AV-unprocessed.smi:1028|AV-procd|sdf|4473|dock5
  -GOLD-   22720 2453D 1   1.00000     0.00000
 Structure written by MMmdl.
 43 44  0  0  0  0  0  0  0  0  1 V2000
  150.3572  143.6015  158.5030 C   0  0  0  0  0  0  0  0  0  0  0  0
  151.6466  144.1841  159.1148 C   0  0  0  0  0  0  0  0  0  0  0  0
  152.5811  144.6789  157.9936 C   0  0  0  0  0  0  0  0  0  0  0  0
  151.2553  145.4008  159.9805 C   0  0  0  0  0  0  0  0  0  0  0  0
  152.3486  143.1254  159.9423 C   0  0  0  0  0  0  0  0  0  0  0  0
  152.4758  143.0628  161.3114 C   0  0  0  0  0  0  0  0  0  0  0  0
  153.3561  141.6521  161.8314 S   0  0  0  0  0  0  0  0  0  0  0  0
  153.5457  141.1898  160.1474 C   0  0  0  0  0  0  0  0  0  0  0  0
  154.2335  139.9398  159.7130 C   0  0  0  0  0  0  0  0  0  0  0  0
  153.4286  138.6786  160.0632 C   0  0  0  0  0  0  0  0  0  0  0  0
  153.9350  138.0368  161.2706 N   0  0  0  0  0  0  0  0  0  0  0  0
  154.1789  136.7238  161.4019 C   0  0  0  0  0  0  0  0  0  0  0  0
  153.9944  135.9108  160.4954 O   0  0  0  0  0  0  0  0  0  0  0  0
  154.7072  136.2596  162.7692 C   0  0  0  0  0  0  0  0  0  0  0  0
  153.6919  136.5306  163.9044 C   0  0  0  0  0  0  0  0  0  0  0  0
  154.3917  137.4409  164.9209 C   0  0  0  0  0  0  0  0  0  0  0  0
  155.5269  138.1049  164.1479 C   0  0  0  0  0  0  0  0  0  0  0  0
  155.9850  137.0205  163.1745 C   0  0  0  0  0  0  0  0  0  0  0  0
  152.9633  142.0416  159.3007 N   0  0  0  0  0  0  0  0  0  0  0  0
  149.8224  144.3491  157.9163 H   0  0  0  0  0  0  0  0  0  0  0  0
  149.6779  143.2435  159.2775 H   0  0  0  0  0  0  0  0  0  0  0  0
  150.5704  142.7621  157.8401 H   0  0  0  0  0  0  0  0  0  0  0  0
  152.8600  143.8708  157.3166 H   0  0  0  0  0  0  0  0  0  0  0  0
  153.5021  145.0970  158.4014 H   0  0  0  0  0  0  0  0  0  0  0  0
  152.1053  145.4540  157.3920 H   0  0  0  0  0  0  0  0  0  0  0  0
  150.7479  146.1625  159.3873 H   0  0  0  0  0  0  0  0  0  0  0  0
  152.1304  145.8717  160.4297 H   0  0  0  0  0  0  0  0  0  0  0  0
  150.5791  145.1172  160.7880 H   0  0  0  0  0  0  0  0  0  0  0  0
  152.1024  143.7556  162.0508 H   0  0  0  0  0  0  0  0  0  0  0  0
  154.4053  139.9901  158.6370 H   0  0  0  0  0  0  0  0  0  0  0  0
  155.2163  139.9065  160.1846 H   0  0  0  0  0  0  0  0  0  0  0  0
  152.3708  138.9198  160.1806 H   0  0  0  0  0  0  0  0  0  0  0  0
  153.4938  137.9591  159.2465 H   0  0  0  0  0  0  0  0  0  0  0  0
  154.1136  138.6345  162.0645 H   0  0  0  0  0  0  0  0  0  0  0  0
  154.9304  135.1924  162.7188 H   0  0  0  0  0  0  0  0  0  0  0  0
  152.7906  137.0223  163.5337 H   0  0  0  0  0  0  0  0  0  0  0  0
  153.3668  135.6028  164.3763 H   0  0  0  0  0  0  0  0  0  0  0  0
  153.7126  138.1653  165.3713 H   0  0  0  0  0  0  0  0  0  0  0  0
  154.8081  136.8345  165.7264 H   0  0  0  0  0  0  0  0  0  0  0  0
  155.1464  138.9649  163.5952 H   0  0  0  0  0  0  0  0  0  0  0  0
  156.3306  138.4531  164.7974 H   0  0  0  0  0  0  0  0  0  0  0  0
  156.6666  136.3376  163.6835 H   0  0  0  0  0  0  0  0  0  0  0  0
  156.5301  137.4411  162.3276 H   0  0  0  0  0  0  0  0  0  0  0  0
  1  2  1  0  0  0  0
  1 20  1  0  0  0  0
  1 21  1  0  0  0  0
  1 22  1  0  0  0  0
  2  3  1  0  0  0  0
  2  4  1  0  0  0  0
  2  5  1  0  0  0  0
  3 23  1  0  0  0  0
  3 24  1  0  0  0  0
  3 25  1  0  0  0  0
  4 26  1  0  0  0  0
  4 27  1  0  0  0  0
  4 28  1  0  0  0  0
  5 19  1  0  0  0  0
  5  6  2  0  0  0  0
  6  7  1  0  0  0  0
  6 29  1  0  0  0  0
  7  8  1  0  0  0  0
  8  9  1  0  0  0  0
  8 19  2  0  0  0  0
  9 10  1  0  0  0  0
  9 30  1  0  0  0  0
  9 31  1  0  0  0  0
 10 11  1  0  0  0  0
 10 32  1  0  0  0  0
 10 33  1  0  0  0  0
 11 12  1  0  0  0  0
 11 34  1  0  0  0  0
 12 13  2  0  0  0  0
 12 14  1  0  0  0  0
 14 18  1  0  0  0  0
 14 15  1  0  0  0  0
 14 35  1  0  0  0  0
 15 16  1  0  0  0  0
 15 36  1  0  0  0  0
 15 37  1  0  0  0  0
 16 17  1  0  0  0  0
 16 38  1  0  0  0  0
 16 39  1  0  0  0  0
 17 18  1  0  0  0  0
 17 40  1  0  0  0  0
 17 41  1  0  0  0  0
 18 42  1  0  0  0  0
 18 43  1  0  0  0  0
M  END
> <s_m_source_file>
AV-unprocessed.smi

> <i_m_source_file_index>
1028

> <i_lp_mmshare_version>
43012

> <i_f3d_flags>
0

> <s_epik_input>
W0NIM11DKFtDSDNdKShbQ0gzXSljMVtjSF1zYyhuMSlbQ0gyXVtDSDJdW05IXUMoPU8pW0NIXTJbQ0gyXVtDSDJdW0NIMl1bQ0gyXTI=

> <s_epik_cmdline>
J2VwaWtfcHl0aG9uJywgJy1waCcsICc3LjAnLCAnLXRuJywgJzgnLCAnLW1hJywgJzIwMCcsICctbWV0YWxfYmluZGluZycsICctaW1hZScsICc8aW5maWxlLm1hZT4nLCAnLW9tYWUnLCAnPG91dGZpbGUubWFlPic=

> <r_epik_Ionization_Penalty>
0.000842107

> <r_epik_Ionization_Penalty_Charging>
0

> <r_epik_Ionization_Penalty_Neutral>
0.000842107

> <r_epik_State_Penalty>
0.000542609

> <r_epik_Charging_Adjusted_Penalty>
0.000542609

> <i_epik_Tot_Q>
0

> <i_epik_Tot_abs_Q>
0

> <r_epik_Metal_State_Penalty>
-0

> <b_epik_Metal_Only>
0

> <s_lp_Force_Field>
OPLS_2005

> <r_lp_Energy>
10.9616

> <b_lp_Chiralities_Consistent>
1

> <s_lp_Variant>
AV-unprocessed.smi:1028-1

> <Gold.Version>
5.8.1

> <Gold.Id.Protein>
6NUR|6NUR_protein|mol2

> <Gold.PLP.Fitness>
51.0768

> <Gold.PLP.PLP>
-49.6252

> <Gold.PLP.part.hbond>
-1.0000

> <Gold.PLP.part.metal>
0.0000

> <Gold.PLP.part.buried>
-6.1862

> <Gold.PLP.part.nonpolar>
-42.1189

> <Gold.PLP.part.repulsive>
0.0216

> <Gold.PLP.ligand.clash>
0.0000

> <Gold.PLP.ligand.torsion>
0.7821

> <Gold.PLP.Chemscore.Hbond>
1.0000

> <Gold.PLP.Chemscore.CHOScore>
0.0000

> <Gold.PLP.Chemscore.Metal>
0.0000

> <Gold.Chemscore.Hbonds>
donor molecule, donor type, donor heavy atom, donor atom, acceptor molecule, acceptor atom, score
      P1  H  6896  6907       L1    13  0.96

> <Gold.PLP.Chemscore.Internal.Correction>
0.0158

> <Gold.Rescore>
     Score         DG    S(hbond)    S(metal)    S(lipo)     H(rot)  DE(clash)    DE(int)     intcor
     19.88     -21.68       1.00        0.00     141.04       1.42       0.24       1.56       ----

> <Gold.Chemscore.Fitness>
19.8799

> <Gold.Chemscore.DG>
-21.6796

> <Gold.Chemscore.ZeroCoef>
-5.4800

> <Gold.Chemscore.Hbond>
1.0000

> <Gold.Chemscore.Metal>
0.0000

> <Gold.Chemscore.Lipo>
141.0390

> <Gold.Chemscore.Internal_Hbond>
0.0000

> <Gold.Chemscore.DEClash>
0.2420

> <Gold.Chemscore.DEInternal>
1.5577

> <Gold.Chemscore.Rot>
1.4226

> <Gold.Chemscore.Internal.Correction>
   9.000000E+99

> <Gold.Chemscore.Hbonds>
donor molecule, donor type, donor heavy atom, donor atom, acceptor molecule, acceptor atom, score
      P1  H  6896  6907       L1    13  0.90

> <Gold.Chemscore.Hbond.Weighted>
-3.3399

> <Gold.Chemscore.Metal.Weighted>
-0.0000

> <Gold.Chemscore.Lipo.Weighted>
-16.5016

> <Gold.Chemscore.Internal_Hbond.Weighted>
0.0000

> <Gold.Chemscore.DEClash.Weighted>
0.2420

> <Gold.Chemscore.DEInternal.Weighted>
1.5577

> <Gold.Chemscore.Rot.Weighted>
3.6419

> <Gold.Chemscore.Internal.Correction.Weighted>
   9.000000E+99

> <Gold.Protein.RotatedTorsions>
[ 6907 6896 6895 6894 ] final   43.41 input  -60.11 | X-H torsion
[ 7974 7965 7964 7962 ] final   13.10 input  175.53 | X-H torsion
[ 8008 7997 7996 7995 ] final   90.72 input   59.86 | X-H torsion
[ 10167 10162 10161 10158 ] final   76.63 input  -65.29 | X-H torsion
[ 10718 10713 10712 10709 ] final  142.84 input   66.30 | X-H torsion
[ 10763 10752 10751 10750 ] final  127.76 input  -60.55 | X-H torsion
[ 11005 11000 10999 10996 ] final  -23.49 input  -57.11 | X-H torsion

> <Gold.Protein.ActiveResidues>
 VAL166  LYS551  ARG553  GLY616  TRP617  ASP618  TYR619  PRO620  LYS621  CYS622 
 ASP623  PHE694  ASN695  SER759  ASP760  ASP761  ALA762  ILE779  LEU786  VAL792 
 PHE793  MET794  SER795  GLU796  ALA797  LYS798  CYS799  TRP800  GLU811  SER814 

> <Gold.Protein.RotatedAtoms>
  152.2199  134.8422  160.0486 H   0  0  0  0  0  0  0  0  0  0  0  0  # atno 6907 bound_to 6896
  151.9210  133.3580  159.3905 H   0  0  0  0  0  0  0  0  0  0  0  0  # atno 6908 bound_to 6896
  150.6997  134.4560  159.5402 H   0  0  0  0  0  0  0  0  0  0  0  0  # atno 6909 bound_to 6896
  146.2337  139.9238  142.8506 H   0  0  0  0  0  0  0  0  0  0  0  0  # atno 7974 bound_to 7965
  156.0153  140.3346  155.6983 H   0  0  0  0  0  0  0  0  0  0  0  0  # atno 8008 bound_to 7997
  155.6099  140.0664  157.2727 H   0  0  0  0  0  0  0  0  0  0  0  0  # atno 8009 bound_to 7997
  154.4296  140.1795  156.1249 H   0  0  0  0  0  0  0  0  0  0  0  0  # atno 8010 bound_to 7997
  139.9902  144.5763  150.7824 H   0  0  0  0  0  0  0  0  0  0  0  0  # atno 10167 bound_to 10162
  157.3758  131.0985  151.0785 H   0  0  0  0  0  0  0  0  0  0  0  0  # atno 10718 bound_to 10713
  153.7147  135.3263  155.3254 H   0  0  0  0  0  0  0  0  0  0  0  0  # atno 10763 bound_to 10752
  154.8374  135.4485  154.1278 H   0  0  0  0  0  0  0  0  0  0  0  0  # atno 10764 bound_to 10752
  153.2382  135.6968  153.7892 H   0  0  0  0  0  0  0  0  0  0  0  0  # atno 10765 bound_to 10752
  140.8756  133.7689  156.0240 H   0  0  0  0  0  0  0  0  0  0  0  0  # atno 11005 bound_to 11000
  145.2111  140.9896  143.4100 LP  0  0  0  0  0  0  0  0  0  0  0  0  # atno 17320 bound_to 7965
  144.9691  139.3899  143.6318 LP  0  0  0  0  0  0  0  0  0  0  0  0  # atno 17321 bound_to 7965
  140.7457  143.2880  151.3409 LP  0  0  0  0  0  0  0  0  0  0  0  0  # atno 17342 bound_to 10162
  139.6346  144.0656  152.2504 LP  0  0  0  0  0  0  0  0  0  0  0  0  # atno 17343 bound_to 10162
  157.1872  130.6336  149.5692 LP  0  0  0  0  0  0  0  0  0  0  0  0  # atno 17370 bound_to 10713
  155.9765  130.4734  150.6532 LP  0  0  0  0  0  0  0  0  0  0  0  0  # atno 17371 bound_to 10713
  140.8521  134.2941  157.5271 LP  0  0  0  0  0  0  0  0  0  0  0  0  # atno 17394 bound_to 11000
  139.8715  134.9473  156.3965 LP  0  0  0  0  0  0  0  0  0  0  0  0  # atno 17395 bound_to 11000

$$$$
