AV-unprocessed.smi:207|AV-procd|sdf|1604|dock1
  -GOLD-   2262019523D 1   1.00000     0.00000
 Structure written by MMmdl.
 56 59  0  0  0  0  0  0  0  0  2 V2000
  149.4648  133.6700  154.1658 C   0  0  0  0  0  0  0  0  0  0  0  0
  148.8934  134.8823  154.9369 C   0  0  0  0  0  0  0  0  0  0  0  0
  148.5100  134.4375  156.3681 C   0  0  0  0  0  0  0  0  0  0  0  0
  150.0435  135.9195  155.0102 C   0  0  0  0  0  0  0  0  0  0  0  0
  149.5945  137.2157  155.5028 N   0  0  0  0  0  0  0  0  0  0  0  0
  150.5783  138.0398  155.9418 C   0  0  0  0  0  0  0  0  0  0  0  0
  151.8116  137.5386  156.2179 N   0  0  0  0  0  0  0  0  0  0  0  0
  152.7849  138.3446  156.6526 C   0  0  0  0  0  0  0  0  0  0  0  0
  152.7433  139.6603  156.8707 N   0  0  0  0  0  0  0  0  0  0  0  0
  151.5105  140.1706  156.5881 C   0  0  0  0  0  0  0  0  0  0  0  0
  150.3812  139.4369  156.1275 C   0  0  0  0  0  0  0  0  0  0  0  0
  149.3025  140.2940  155.9445 N   0  0  0  0  0  0  0  0  0  0  0  0
  149.7670  141.4665  156.2804 C   0  0  0  0  0  0  0  0  0  0  0  0
  151.0885  141.4870  156.6662 N   0  0  0  0  0  0  0  0  0  0  0  0
  151.8610  142.6484  157.0799 C   0  0  0  0  0  0  0  0  0  0  0  0
  151.5825  143.1348  158.5194 C   0  0  0  0  0  0  0  0  0  0  0  0
  150.1003  143.5198  158.6849 C   0  0  0  0  0  0  0  0  0  0  0  0
  149.8176  144.0084  159.9813 O   0  0  0  0  0  0  0  0  0  0  0  0
  152.2007  142.3039  159.6551 C   0  0  0  0  0  0  0  0  0  0  0  0
  153.2891  143.2351  159.8262 O   0  0  0  0  0  0  0  0  0  0  0  0
  152.5849  144.1918  159.0076 C   0  0  0  0  0  0  0  0  0  0  0  0
  148.5015  137.7948  154.7349 C   0  0  0  0  0  0  0  0  0  0  0  0
  147.3184  136.8219  154.6876 C   0  0  0  0  0  0  0  0  0  0  0  0
  147.7173  135.4693  154.2037 N   0  3  2  0  0  0  0  0  0  0  0  0
  146.5345  134.5728  154.0582 C   0  0  0  0  0  0  0  0  0  0  0  0
  146.7179  133.5658  152.9109 C   0  0  0  0  0  0  0  0  0  0  0  0
  146.7785  134.2492  151.6768 O   0  0  0  0  0  0  0  0  0  0  0  0
  150.4089  133.3414  154.6023 H   0  0  0  0  0  0  0  0  0  0  0  0
  149.6608  133.9200  153.1224 H   0  0  0  0  0  0  0  0  0  0  0  0
  148.8075  132.8021  154.1802 H   0  0  0  0  0  0  0  0  0  0  0  0
  149.3746  134.0309  156.8939 H   0  0  0  0  0  0  0  0  0  0  0  0
  147.7459  133.6603  156.3648 H   0  0  0  0  0  0  0  0  0  0  0  0
  148.1348  135.2660  156.9687 H   0  0  0  0  0  0  0  0  0  0  0  0
  150.8594  135.5252  155.6162 H   0  0  0  0  0  0  0  0  0  0  0  0
  150.4599  136.0768  154.0137 H   0  0  0  0  0  0  0  0  0  0  0  0
  153.7330  137.8675  156.8531 H   0  0  0  0  0  0  0  0  0  0  0  0
  149.1519  142.3537  156.2520 H   0  0  0  0  0  0  0  0  0  0  0  0
  152.9161  142.3967  156.9643 H   0  0  0  0  0  0  0  0  0  0  0  0
  151.6754  143.4532  156.3675 H   0  0  0  0  0  0  0  0  0  0  0  0
  149.8217  144.3044  157.9811 H   0  0  0  0  0  0  0  0  0  0  0  0
  149.4461  142.6737  158.4729 H   0  0  0  0  0  0  0  0  0  0  0  0
  150.5425  143.7922  160.5481 H   0  0  0  0  0  0  0  0  0  0  0  0
  151.5788  142.2444  160.5500 H   0  0  0  0  0  0  0  0  0  0  0  0
  152.5444  141.3144  159.3569 H   0  0  0  0  0  0  0  0  0  0  0  0
  153.2124  144.6088  158.2190 H   0  0  0  0  0  0  0  0  0  0  0  0
  152.1441  144.9879  159.6097 H   0  0  0  0  0  0  0  0  0  0  0  0
  148.1803  138.7365  155.1827 H   0  0  0  0  0  0  0  0  0  0  0  0
  148.8462  138.0164  153.7239 H   0  0  0  0  0  0  0  0  0  0  0  0
  146.8763  136.7396  155.6812 H   0  0  0  0  0  0  0  0  0  0  0  0
  146.5458  137.2400  154.0432 H   0  0  0  0  0  0  0  0  0  0  0  0
  146.3254  134.0112  154.9656 H   0  0  0  0  0  0  0  0  0  0  0  0
  145.6418  135.1757  153.8850 H   0  0  0  0  0  0  0  0  0  0  0  0
  147.6520  133.0198  153.0440 H   0  0  0  0  0  0  0  0  0  0  0  0
  145.9195  132.8249  152.8817 H   0  0  0  0  0  0  0  0  0  0  0  0
  147.2933  135.0342  151.7913 H   0  0  0  0  0  0  0  0  0  0  0  0
  148.0566  135.6085  153.2623 H   0  0  0  0  0  0  0  0  0  0  0  0
  1  2  1  0  0  0  0
  1 28  1  0  0  0  0
  1 29  1  0  0  0  0
  1 30  1  0  0  0  0
  2 24  1  0  0  0  0
  2  3  1  0  0  0  0
  2  4  1  0  0  0  0
  3 31  1  0  0  0  0
  3 32  1  0  0  0  0
  3 33  1  0  0  0  0
  4  5  1  0  0  0  0
  4 34  1  0  0  0  0
  4 35  1  0  0  0  0
  5  6  1  0  0  0  0
  5 22  1  0  0  0  0
  6 11  1  0  0  0  0
  6  7  2  0  0  0  0
  7  8  1  0  0  0  0
  8  9  2  0  0  0  0
  8 36  1  0  0  0  0
  9 10  1  0  0  0  0
 10 14  1  0  0  0  0
 10 11  2  0  0  0  0
 11 12  1  0  0  0  0
 12 13  2  0  0  0  0
 13 14  1  0  0  0  0
 13 37  1  0  0  0  0
 14 15  1  0  0  0  0
 15 16  1  0  0  0  0
 15 38  1  0  0  0  0
 15 39  1  0  0  0  0
 16 21  1  0  0  0  0
 16 17  1  0  0  0  0
 16 19  1  0  0  0  0
 17 18  1  0  0  0  0
 17 40  1  0  0  0  0
 17 41  1  0  0  0  0
 18 42  1  0  0  0  0
 19 20  1  0  0  0  0
 19 43  1  0  0  0  0
 19 44  1  0  0  0  0
 20 21  1  0  0  0  0
 21 45  1  0  0  0  0
 21 46  1  0  0  0  0
 22 23  1  0  0  0  0
 22 47  1  0  0  0  0
 22 48  1  0  0  0  0
 23 24  1  0  0  0  0
 23 49  1  0  0  0  0
 23 50  1  0  0  0  0
 24 25  1  0  0  0  0
 24 56  1  0  0  0  0
 25 26  1  0  0  0  0
 25 51  1  0  0  0  0
 25 52  1  0  0  0  0
 26 27  1  0  0  0  0
 26 53  1  0  0  0  0
 26 54  1  0  0  0  0
 27 55  1  0  0  0  0
M  CHG  1  24   1
M  END
> <s_m_source_file>
AV-unprocessed.smi

> <i_m_source_file_index>
207

> <i_lp_mmshare_version>
43012

> <i_f3d_flags>
0

> <s_epik_input>
W09IXVtDSDJdW0NIMl1OMVtDSDJdW0NIMl1OKFtDSDJdQzEoW0NIM10pW0NIM10pYyhuW2NIXW4yKWMoYzIzKW5bY0hdbjNbQ0gyXUM0KFtDSDJdW09IXSlbQ0gyXU9bQ0gyXTQ=

> <s_epik_cmdline>
J2VwaWtfcHl0aG9uJywgJy1waCcsICc3LjAnLCAnLXRuJywgJzgnLCAnLW1hJywgJzIwMCcsICctbWV0YWxfYmluZGluZycsICctaW1hZScsICc8aW5maWxlLm1hZT4nLCAnLW9tYWUnLCAnPG91dGZpbGUubWFlPic=

> <r_lp_tautomer_probability>
1

> <r_epik_Ionization_Penalty>
0.416568

> <r_epik_Ionization_Penalty_Charging>
0.416506

> <r_epik_Ionization_Penalty_Neutral>
6.2219e-05

> <r_epik_State_Penalty>
0.419386

> <r_epik_Charging_Adjusted_Penalty>
0.835892

> <i_epik_Tot_Q>
1

> <i_epik_Tot_abs_Q>
1

> <r_epik_Metal_State_Penalty>
0.420232

> <b_epik_Metal_Only>
0

> <s_lp_Force_Field>
OPLS_2005

> <r_lp_Energy>
56.1561

> <b_lp_Chiralities_Consistent>
1

> <s_lp_Variant>
AV-unprocessed.smi:207-3

> <Gold.Version>
5.8.1

> <Gold.Id.Protein>
6NUR|6NUR_protein|mol2

> <Gold.PLP.Fitness>
46.7572

> <Gold.PLP.PLP>
-33.4766

> <Gold.PLP.part.hbond>
-3.9323

> <Gold.PLP.part.metal>
0.0000

> <Gold.PLP.part.buried>
-5.7963

> <Gold.PLP.part.nonpolar>
-24.5090

> <Gold.PLP.part.repulsive>
0.1220

> <Gold.PLP.ligand.clash>
0.0000

> <Gold.PLP.ligand.torsion>
1.2694

> <Gold.PLP.Chemscore.Hbond>
4.0000

> <Gold.PLP.Chemscore.CHOScore>
1.0000

> <Gold.PLP.Chemscore.Metal>
0.0000

> <Gold.Chemscore.Hbonds>
donor molecule, donor type, donor heavy atom, donor atom, acceptor molecule, acceptor atom, score
      L1  H    24    56       P1  7948  2.00
      L1  H    27    55       P1  7948  1.00
      P1  H  7997  8008       L1     9  1.00
      L1  C    13    37       P1  8028  1.00

> <Gold.PLP.Chemscore.Internal.Correction>
0.8194

> <Gold.Rescore>
     Score         DG    S(hbond)    S(metal)    S(lipo)     H(rot)  DE(clash)    DE(int)     intcor
     10.72     -15.19       2.90        0.00      83.35       3.80       2.15       2.32       ----

> <Gold.Chemscore.Fitness>
10.7193

> <Gold.Chemscore.DG>
-15.1852

> <Gold.Chemscore.ZeroCoef>
-5.4800

> <Gold.Chemscore.Hbond>
2.8983

> <Gold.Chemscore.Metal>
0.0000

> <Gold.Chemscore.Lipo>
83.3520

> <Gold.Chemscore.Internal_Hbond>
0.0000

> <Gold.Chemscore.DEClash>
2.1453

> <Gold.Chemscore.DEInternal>
2.3206

> <Gold.Chemscore.Rot>
3.7997

> <Gold.Chemscore.Internal.Correction>
   9.000000E+99

> <Gold.Chemscore.Hbonds>
donor molecule, donor type, donor heavy atom, donor atom, acceptor molecule, acceptor atom, score
      L1  H    24    56       P1  7948  1.00
      L1  H    27    55       P1  7948  0.86
      P1  H  7997  8008       L1     9  0.30

> <Gold.Chemscore.Hbond.Weighted>
-9.6803

> <Gold.Chemscore.Metal.Weighted>
-0.0000

> <Gold.Chemscore.Lipo.Weighted>
-9.7522

> <Gold.Chemscore.Internal_Hbond.Weighted>
0.0000

> <Gold.Chemscore.DEClash.Weighted>
2.1453

> <Gold.Chemscore.DEInternal.Weighted>
2.3206

> <Gold.Chemscore.Rot.Weighted>
9.7273

> <Gold.Chemscore.Internal.Correction.Weighted>
   9.000000E+99

> <Gold.Protein.RotatedTorsions>
[ 6907 6896 6895 6894 ] final    2.87 input  -60.11 | X-H torsion
[ 7974 7965 7964 7962 ] final  130.39 input  175.53 | X-H torsion
[ 8008 7997 7996 7995 ] final  -41.25 input   59.86 | X-H torsion
[ 10167 10162 10161 10158 ] final  129.37 input  -65.29 | X-H torsion
[ 10718 10713 10712 10709 ] final   80.04 input   66.30 | X-H torsion
[ 10763 10752 10751 10750 ] final -137.73 input  -60.55 | X-H torsion
[ 11005 11000 10999 10996 ] final -124.49 input  -57.11 | X-H torsion

> <Gold.Protein.ActiveResidues>
 VAL166  LYS551  ARG553  GLY616  TRP617  ASP618  TYR619  PRO620  LYS621  CYS622 
 ASP623  PHE694  ASN695  SER759  ASP760  ASP761  ALA762  ILE779  LEU786  VAL792 
 PHE793  MET794  SER795  GLU796  ALA797  LYS798  CYS799  TRP800  GLU811  SER814 

> <Gold.Protein.RotatedAtoms>
  151.6159  135.1036  160.0091 H   0  0  0  0  0  0  0  0  0  0  0  0  # atno 6907 bound_to 6896
  152.4183  133.7071  159.6468 H   0  0  0  0  0  0  0  0  0  0  0  0  # atno 6908 bound_to 6896
  150.8071  133.8416  159.3221 H   0  0  0  0  0  0  0  0  0  0  0  0  # atno 6909 bound_to 6896
  145.0184  139.4154  143.5209 H   0  0  0  0  0  0  0  0  0  0  0  0  # atno 7974 bound_to 7965
  154.4005  140.1504  156.3161 H   0  0  0  0  0  0  0  0  0  0  0  0  # atno 8008 bound_to 7997
  155.8572  140.3455  155.5711 H   0  0  0  0  0  0  0  0  0  0  0  0  # atno 8009 bound_to 7997
  155.7920  140.0858  157.1994 H   0  0  0  0  0  0  0  0  0  0  0  0  # atno 8010 bound_to 7997
  139.5481  144.6790  151.4409 H   0  0  0  0  0  0  0  0  0  0  0  0  # atno 10167 bound_to 10162
  157.6795  130.9942  150.2021 H   0  0  0  0  0  0  0  0  0  0  0  0  # atno 10718 bound_to 10713
  154.8654  135.3633  154.5270 H   0  0  0  0  0  0  0  0  0  0  0  0  # atno 10763 bound_to 10752
  153.5898  135.7016  153.5433 H   0  0  0  0  0  0  0  0  0  0  0  0  # atno 10764 bound_to 10752
  153.3383  135.4105  155.1513 H   0  0  0  0  0  0  0  0  0  0  0  0  # atno 10765 bound_to 10752
  140.9837  134.0638  157.3736 H   0  0  0  0  0  0  0  0  0  0  0  0  # atno 11005 bound_to 11000
  146.3481  139.9668  142.8711 LP  0  0  0  0  0  0  0  0  0  0  0  0  # atno 17320 bound_to 7965
  145.1928  140.9819  143.4201 LP  0  0  0  0  0  0  0  0  0  0  0  0  # atno 17321 bound_to 7965
  140.6736  143.8240  150.7030 LP  0  0  0  0  0  0  0  0  0  0  0  0  # atno 17342 bound_to 10162
  140.1672  143.4225  152.2026 LP  0  0  0  0  0  0  0  0  0  0  0  0  # atno 17343 bound_to 10162
  156.2710  130.3722  149.8032 LP  0  0  0  0  0  0  0  0  0  0  0  0  # atno 17370 bound_to 10713
  156.5749  130.8440  151.3367 LP  0  0  0  0  0  0  0  0  0  0  0  0  # atno 17371 bound_to 10713
  139.8961  135.0144  156.7034 LP  0  0  0  0  0  0  0  0  0  0  0  0  # atno 17394 bound_to 11000
  140.7148  133.9192  155.8108 LP  0  0  0  0  0  0  0  0  0  0  0  0  # atno 17395 bound_to 11000

$$$$
