AV-unprocessed.smi:1986|AV-procd|sdf|8048|dock7
  -GOLD-   2272010243D 1   1.00000     0.00000
 Structure written by MMmdl.
 47 48  0  0  0  0  0  0  0  0  3 V2000
  148.7389  139.0245  154.0982 C   0  0  0  0  0  0  0  0  0  0  0  0
  148.7582  138.0708  155.3061 C   0  0  0  0  0  0  0  0  0  0  0  0
  149.7096  136.8411  155.1935 C   0  0  1  0  0  0  0  0  0  0  0  0
  150.9817  137.2382  154.3986 C   0  0  0  0  0  0  0  0  0  0  0  0
  150.1826  136.4044  156.6122 C   0  0  0  0  0  0  0  0  0  0  0  0
  149.0821  135.8382  157.3849 N   0  0  0  0  0  0  0  0  0  0  0  0
  148.9683  134.5751  157.8208 C   0  0  0  0  0  0  0  0  0  0  0  0
  149.8650  133.7386  157.7205 O   0  0  0  0  0  0  0  0  0  0  0  0
  147.6106  134.1794  158.4214 C   0  0  0  0  0  0  0  0  0  0  0  0
  147.4954  134.4920  159.8570 N   0  0  0  0  0  0  0  0  0  0  0  0
  147.5647  135.9175  160.1679 N   0  5  0  0  0  0  0  0  0  0  0  0
  147.5032  136.3155  161.4663 C   0  0  0  0  0  0  0  0  0  0  0  0
  147.5699  137.4942  161.8054 O   0  0  0  0  0  0  0  0  0  0  0  0
  147.3294  135.2961  162.4872 C   0  0  0  0  0  0  0  0  0  0  0  0
  147.2216  133.9918  162.1674 C   0  0  0  0  0  0  0  0  0  0  0  0
  147.2895  133.5192  160.7904 C   0  0  0  0  0  0  0  0  0  0  0  0
  147.1684  132.3320  160.4902 O   0  0  0  0  0  0  0  0  0  0  0  0
  149.0231  135.6831  154.5057 N   0  3  0  0  0  0  0  0  0  0  0  0
  149.7132  134.3666  154.6188 C   0  0  0  0  0  0  0  0  0  0  0  0
  149.0416  133.3236  153.7122 C   0  0  0  0  0  0  0  0  0  0  0  0
  147.6729  133.1976  154.0695 O   0  0  0  0  0  0  0  0  0  0  0  0
  146.9702  134.4181  153.8867 C   0  0  0  0  0  0  0  0  0  0  0  0
  147.5700  135.5104  154.7889 C   0  0  0  0  0  0  0  0  0  0  0  0
  148.0539  139.8526  154.2813 H   0  0  0  0  0  0  0  0  0  0  0  0
  148.4005  138.5262  153.1901 H   0  0  0  0  0  0  0  0  0  0  0  0
  149.7196  139.4572  153.9038 H   0  0  0  0  0  0  0  0  0  0  0  0
  149.0223  138.6659  156.1799 H   0  0  0  0  0  0  0  0  0  0  0  0
  147.7355  137.7340  155.4729 H   0  0  0  0  0  0  0  0  0  0  0  0
  151.6303  137.8974  154.9763 H   0  0  0  0  0  0  0  0  0  0  0  0
  150.7431  137.7711  153.4781 H   0  0  0  0  0  0  0  0  0  0  0  0
  151.5796  136.3655  154.1335 H   0  0  0  0  0  0  0  0  0  0  0  0
  151.0054  135.6920  156.5401 H   0  0  0  0  0  0  0  0  0  0  0  0
  150.5878  137.2483  157.1699 H   0  0  0  0  0  0  0  0  0  0  0  0
  148.2873  136.4400  157.5497 H   0  0  0  0  0  0  0  0  0  0  0  0
  146.8121  134.6730  157.8646 H   0  0  0  0  0  0  0  0  0  0  0  0
  147.4643  133.1107  158.2557 H   0  0  0  0  0  0  0  0  0  0  0  0
  147.2776  135.5918  163.5247 H   0  0  0  0  0  0  0  0  0  0  0  0
  147.0878  133.2686  162.9581 H   0  0  0  0  0  0  0  0  0  0  0  0
  150.7608  134.4383  154.3323 H   0  0  0  0  0  0  0  0  0  0  0  0
  149.6837  134.0110  155.6489 H   0  0  0  0  0  0  0  0  0  0  0  0
  149.1378  133.5984  152.6620 H   0  0  0  0  0  0  0  0  0  0  0  0
  149.5266  132.3548  153.8315 H   0  0  0  0  0  0  0  0  0  0  0  0
  147.0033  134.7168  152.8385 H   0  0  0  0  0  0  0  0  0  0  0  0
  145.9212  134.2592  154.1369 H   0  0  0  0  0  0  0  0  0  0  0  0
  147.4180  135.2426  155.8345 H   0  0  0  0  0  0  0  0  0  0  0  0
  147.0120  136.4265  154.6049 H   0  0  0  0  0  0  0  0  0  0  0  0
  149.0657  135.9181  153.5236 H   0  0  0  0  0  0  0  0  0  0  0  0
  1  2  1  0  0  0  0
  1 24  1  0  0  0  0
  1 25  1  0  0  0  0
  1 26  1  0  0  0  0
  2  3  1  0  0  0  0
  2 27  1  0  0  0  0
  2 28  1  0  0  0  0
  3  4  1  0  0  0  0
  3  5  1  0  0  0  0
  3 18  1  0  0  0  0
  4 29  1  0  0  0  0
  4 30  1  0  0  0  0
  4 31  1  0  0  0  0
  5  6  1  0  0  0  0
  5 32  1  0  0  0  0
  5 33  1  0  0  0  0
  6  7  1  0  0  0  0
  6 34  1  0  0  0  0
  7  8  2  0  0  0  0
  7  9  1  0  0  0  0
  9 35  1  0  0  0  0
  9 36  1  0  0  0  0
  9 10  1  0  0  0  0
 10 11  1  0  0  0  0
 10 16  1  0  0  0  0
 11 12  1  0  0  0  0
 12 13  2  0  0  0  0
 12 14  1  0  0  0  0
 14 37  1  0  0  0  0
 14 15  2  0  0  0  0
 15 38  1  0  0  0  0
 15 16  1  0  0  0  0
 16 17  2  0  0  0  0
 18 23  1  0  0  0  0
 18 19  1  0  0  0  0
 18 47  1  0  0  0  0
 19 20  1  0  0  0  0
 19 39  1  0  0  0  0
 19 40  1  0  0  0  0
 20 21  1  0  0  0  0
 20 41  1  0  0  0  0
 20 42  1  0  0  0  0
 21 22  1  0  0  0  0
 22 23  1  0  0  0  0
 22 43  1  0  0  0  0
 22 44  1  0  0  0  0
 23 45  1  0  0  0  0
 23 46  1  0  0  0  0
M  CHG  1  11  -1
M  CHG  1  18   1
M  END
> <s_m_source_file>
AV-unprocessed.smi

> <i_m_source_file_index>
1986

> <i_lp_mmshare_version>
43012

> <i_f3d_flags>
0

> <s_epik_input>
W0NIMl0xW0NIMl1PW0NIMl1bQ0gyXU4xW0NAQF0oW0NIM10pKFtDSDJdW0NIM10pW0NIMl1bTkhdQyg9TylbQ0gyXW4yW25IXWMoPU8pW2NIXVtjSF1jMj1P

> <s_epik_cmdline>
J2VwaWtfcHl0aG9uJywgJy1waCcsICc3LjAnLCAnLXRuJywgJzgnLCAnLW1hJywgJzIwMCcsICctbWV0YWxfYmluZGluZycsICctaW1hZScsICc8aW5maWxlLm1hZT4nLCAnLW9tYWUnLCAnPG91dGZpbGUubWFlPic=

> <r_lp_tautomer_probability>
1

> <r_epik_Ionization_Penalty>
0.604767

> <r_epik_Ionization_Penalty_Charging>
0.604766

> <r_epik_Ionization_Penalty_Neutral>
8.70177e-08

> <r_epik_State_Penalty>
0.54579

> <r_epik_Charging_Adjusted_Penalty>
1.15056

> <i_epik_Tot_Q>
0

> <i_epik_Tot_abs_Q>
2

> <r_epik_Metal_State_Penalty>
0.54579

> <b_epik_Metal_Only>
0

> <s_lp_Force_Field>
OPLS_2005

> <r_lp_Energy>
39.3648

> <b_lp_Chiralities_Consistent>
1

> <s_lp_Variant>
AV-unprocessed.smi:1986-3

> <Gold.Version>
5.8.1

> <Gold.Id.Protein>
6NUR|6NUR_protein|mol2

> <Gold.PLP.Fitness>
44.4972

> <Gold.PLP.PLP>
-33.1263

> <Gold.PLP.part.hbond>
-4.0000

> <Gold.PLP.part.metal>
0.0000

> <Gold.PLP.part.buried>
-2.7379

> <Gold.PLP.part.nonpolar>
-25.8964

> <Gold.PLP.part.repulsive>
0.1538

> <Gold.PLP.ligand.clash>
0.0000

> <Gold.PLP.ligand.torsion>
1.4223

> <Gold.PLP.Chemscore.Hbond>
4.6737

> <Gold.PLP.Chemscore.CHOScore>
0.0000

> <Gold.PLP.Chemscore.Metal>
0.0000

> <Gold.Chemscore.Hbonds>
donor molecule, donor type, donor heavy atom, donor atom, acceptor molecule, acceptor atom, score
      L1  H    18    47       P1  7948  2.00
      P1  H  6896  6907       L1     8  1.00
      P1  H  6931  6943       L1    13  0.82
      P1  H  6934  6947       L1    13  0.64

> <Gold.PLP.Chemscore.Internal.Correction>
0.1944

> <Gold.Rescore>
     Score         DG    S(hbond)    S(metal)    S(lipo)     H(rot)  DE(clash)    DE(int)     intcor
     15.56     -17.15       3.40        0.00      57.35       2.50       0.04       1.56       ----

> <Gold.Chemscore.Fitness>
15.5578

> <Gold.Chemscore.DG>
-17.1549

> <Gold.Chemscore.ZeroCoef>
-5.4800

> <Gold.Chemscore.Hbond>
3.4005

> <Gold.Chemscore.Metal>
0.0000

> <Gold.Chemscore.Lipo>
57.3535

> <Gold.Chemscore.Internal_Hbond>
0.0000

> <Gold.Chemscore.DEClash>
0.0354

> <Gold.Chemscore.DEInternal>
1.5617

> <Gold.Chemscore.Rot>
2.4973

> <Gold.Chemscore.Internal.Correction>
   9.000000E+99

> <Gold.Chemscore.Hbonds>
donor molecule, donor type, donor heavy atom, donor atom, acceptor molecule, acceptor atom, score
      L1  H    18    47       P1  7948  0.91
      P1  H  6896  6907       L1     8  0.78
      P1  H  6931  6943       L1    13  0.78
      P1  H  6934  6947       L1    13  0.64

> <Gold.Chemscore.Hbond.Weighted>
-11.3576

> <Gold.Chemscore.Metal.Weighted>
-0.0000

> <Gold.Chemscore.Lipo.Weighted>
-6.7104

> <Gold.Chemscore.Internal_Hbond.Weighted>
0.0000

> <Gold.Chemscore.DEClash.Weighted>
0.0354

> <Gold.Chemscore.DEInternal.Weighted>
1.5617

> <Gold.Chemscore.Rot.Weighted>
6.3930

> <Gold.Chemscore.Internal.Correction.Weighted>
   9.000000E+99

> <Gold.Protein.RotatedTorsions>
[ 6907 6896 6895 6894 ] final -131.51 input  -60.11 | X-H torsion
[ 7974 7965 7964 7962 ] final  168.18 input  175.53 | X-H torsion
[ 8008 7997 7996 7995 ] final  102.58 input   59.86 | X-H torsion
[ 10167 10162 10161 10158 ] final  -29.04 input  -65.29 | X-H torsion
[ 10718 10713 10712 10709 ] final  -62.52 input   66.30 | X-H torsion
[ 10763 10752 10751 10750 ] final  -20.69 input  -60.55 | X-H torsion
[ 11005 11000 10999 10996 ] final  130.45 input  -57.11 | X-H torsion

> <Gold.Protein.ActiveResidues>
 VAL166  LYS551  ARG553  GLY616  TRP617  ASP618  TYR619  PRO620  LYS621  CYS622 
 ASP623  PHE694  ASN695  SER759  ASP760  ASP761  ALA762  ILE779  LEU786  VAL792 
 PHE793  MET794  SER795  GLU796  ALA797  LYS798  CYS799  TRP800  GLU811  SER814 

> <Gold.Protein.RotatedAtoms>
  150.9518  133.6541  159.2770 H   0  0  0  0  0  0  0  0  0  0  0  0  # atno 6907 bound_to 6896
  151.3894  135.0952  159.9531 H   0  0  0  0  0  0  0  0  0  0  0  0  # atno 6908 bound_to 6896
  152.5113  133.9035  159.7508 H   0  0  0  0  0  0  0  0  0  0  0  0  # atno 6909 bound_to 6896
  144.7397  139.8870  143.6400 H   0  0  0  0  0  0  0  0  0  0  0  0  # atno 7974 bound_to 7965
  156.1406  140.3179  155.8489 H   0  0  0  0  0  0  0  0  0  0  0  0  # atno 8008 bound_to 7997
  155.4162  140.0509  157.3046 H   0  0  0  0  0  0  0  0  0  0  0  0  # atno 8009 bound_to 7997
  154.4973  140.2115  155.9433 H   0  0  0  0  0  0  0  0  0  0  0  0  # atno 8010 bound_to 7997
  140.7264  143.3960  151.1346 H   0  0  0  0  0  0  0  0  0  0  0  0  # atno 10167 bound_to 10162
  156.0850  130.4210  150.1146 H   0  0  0  0  0  0  0  0  0  0  0  0  # atno 10718 bound_to 10713
  153.6243  135.6991  153.5299 H   0  0  0  0  0  0  0  0  0  0  0  0  # atno 10763 bound_to 10752
  153.2911  135.4156  155.1167 H   0  0  0  0  0  0  0  0  0  0  0  0  # atno 10764 bound_to 10752
  154.8536  135.3625  154.5785 H   0  0  0  0  0  0  0  0  0  0  0  0  # atno 10765 bound_to 10752
  139.9672  134.9587  156.9295 H   0  0  0  0  0  0  0  0  0  0  0  0  # atno 11005 bound_to 11000
  146.1170  139.4182  143.0252 LP  0  0  0  0  0  0  0  0  0  0  0  0  # atno 17320 bound_to 7965
  145.7361  141.0025  143.1326 LP  0  0  0  0  0  0  0  0  0  0  0  0  # atno 17321 bound_to 7965
  139.7573  143.8688  152.3092 LP  0  0  0  0  0  0  0  0  0  0  0  0  # atno 17342 bound_to 10162
  139.8562  144.7140  150.9154 LP  0  0  0  0  0  0  0  0  0  0  0  0  # atno 17343 bound_to 10162
  156.9169  130.9670  151.3554 LP  0  0  0  0  0  0  0  0  0  0  0  0  # atno 17370 bound_to 10713
  157.5981  130.8492  149.8760 LP  0  0  0  0  0  0  0  0  0  0  0  0  # atno 17371 bound_to 10713
  140.5370  134.0757  155.7331 LP  0  0  0  0  0  0  0  0  0  0  0  0  # atno 17394 bound_to 11000
  141.1352  133.9233  157.2449 LP  0  0  0  0  0  0  0  0  0  0  0  0  # atno 17395 bound_to 11000

$$$$
