AV-unprocessed.smi:2393|AV-procd|sdf|9489|dock3
  -GOLD-   2272013113D 1   1.00000     0.00000
 Structure written by MMmdl.
 43 44  0  0  0  0  0  0  0  0  1 V2000
  144.8315  132.3181  150.0971 C   0  0  0  0  0  0  0  0  0  0  0  0
  144.5083  133.4489  151.0511 C   0  0  0  0  0  0  0  0  0  0  0  0
  143.2340  133.5561  151.6406 C   0  0  0  0  0  0  0  0  0  0  0  0
  142.9956  134.6330  152.5170 C   0  0  0  0  0  0  0  0  0  0  0  0
  141.6489  134.8092  153.1870 C   0  0  0  0  0  0  0  0  0  0  0  0
  143.9289  135.5631  152.8117 N   0  0  0  0  0  0  0  0  0  0  0  0
  145.1594  135.4703  152.2493 C   0  0  0  0  0  0  0  0  0  0  0  0
  146.2116  136.3903  152.5013 N   0  0  0  0  0  0  0  0  0  0  0  0
  146.1999  137.4612  153.3145 C   0  0  0  0  0  0  0  0  0  0  0  0
  145.2225  137.8659  153.9449 O   0  0  0  0  0  0  0  0  0  0  0  0
  147.4011  138.0570  153.3510 N   0  0  0  0  0  0  0  0  0  0  0  0
  147.7228  139.2476  154.1331 C   0  0  1  0  0  0  0  0  0  0  0  0
  149.1861  139.6445  153.9064 C   0  0  0  0  0  0  0  0  0  0  0  0
  149.5055  140.9553  154.6385 C   0  0  0  0  0  0  0  0  0  0  0  0
  148.6166  141.9895  154.2203 O   0  0  0  0  0  0  0  0  0  0  0  0
  147.2203  141.7481  154.4263 C   0  0  0  0  0  0  0  0  0  0  0  0
  146.8782  141.7524  155.9321 C   0  0  0  0  0  0  0  0  0  0  0  0
  146.5062  142.9293  153.7490 C   0  0  0  0  0  0  0  0  0  0  0  0
  146.8141  140.4241  153.7346 C   0  0  0  0  0  0  0  0  0  0  0  0
  145.4826  134.4183  151.3632 C   0  0  0  0  0  0  0  0  0  0  0  0
  144.0144  131.5978  150.0444 H   0  0  0  0  0  0  0  0  0  0  0  0
  145.7288  131.7916  150.4227 H   0  0  0  0  0  0  0  0  0  0  0  0
  145.0071  132.7104  149.0952 H   0  0  0  0  0  0  0  0  0  0  0  0
  142.4602  132.8329  151.4273 H   0  0  0  0  0  0  0  0  0  0  0  0
  141.0078  133.9433  153.0191 H   0  0  0  0  0  0  0  0  0  0  0  0
  141.1434  135.6905  152.7916 H   0  0  0  0  0  0  0  0  0  0  0  0
  141.7709  134.9366  154.2631 H   0  0  0  0  0  0  0  0  0  0  0  0
  147.0768  136.2032  152.0168 H   0  0  0  0  0  0  0  0  0  0  0  0
  148.1480  137.6588  152.8011 H   0  0  0  0  0  0  0  0  0  0  0  0
  147.5893  139.0231  155.1925 H   0  0  0  0  0  0  0  0  0  0  0  0
  149.8523  138.8532  154.2518 H   0  0  0  0  0  0  0  0  0  0  0  0
  149.3777  139.7725  152.8399 H   0  0  0  0  0  0  0  0  0  0  0  0
  149.4622  140.8196  155.7191 H   0  0  0  0  0  0  0  0  0  0  0  0
  150.5249  141.2662  154.4102 H   0  0  0  0  0  0  0  0  0  0  0  0
  145.8020  141.6673  156.0868 H   0  0  0  0  0  0  0  0  0  0  0  0
  147.2055  142.6787  156.4054 H   0  0  0  0  0  0  0  0  0  0  0  0
  147.3415  140.9290  156.4736 H   0  0  0  0  0  0  0  0  0  0  0  0
  145.4226  142.8379  153.8308 H   0  0  0  0  0  0  0  0  0  0  0  0
  146.7541  142.9878  152.6886 H   0  0  0  0  0  0  0  0  0  0  0  0
  146.7939  143.8780  154.2035 H   0  0  0  0  0  0  0  0  0  0  0  0
  146.8707  140.5552  152.6527 H   0  0  0  0  0  0  0  0  0  0  0  0
  145.7718  140.1901  153.9559 H   0  0  0  0  0  0  0  0  0  0  0  0
  146.4673  134.3548  150.9227 H   0  0  0  0  0  0  0  0  0  0  0  0
  1  2  1  0  0  0  0
  1 21  1  0  0  0  0
  1 22  1  0  0  0  0
  1 23  1  0  0  0  0
  2 20  1  0  0  0  0
  2  3  2  0  0  0  0
  3  4  1  0  0  0  0
  3 24  1  0  0  0  0
  4  5  1  0  0  0  0
  4  6  2  0  0  0  0
  5 25  1  0  0  0  0
  5 26  1  0  0  0  0
  5 27  1  0  0  0  0
  6  7  1  0  0  0  0
  7  8  1  0  0  0  0
  7 20  2  0  0  0  0
  8  9  1  0  0  0  0
  8 28  1  0  0  0  0
  9 10  2  0  0  0  0
  9 11  1  0  0  0  0
 11 12  1  0  0  0  0
 11 29  1  0  0  0  0
 12 19  1  0  0  0  0
 12 13  1  0  0  0  0
 12 30  1  0  0  0  0
 13 14  1  0  0  0  0
 13 31  1  0  0  0  0
 13 32  1  0  0  0  0
 14 15  1  0  0  0  0
 14 33  1  0  0  0  0
 14 34  1  0  0  0  0
 15 16  1  0  0  0  0
 16 17  1  0  0  0  0
 16 18  1  0  0  0  0
 16 19  1  0  0  0  0
 17 35  1  0  0  0  0
 17 36  1  0  0  0  0
 17 37  1  0  0  0  0
 18 38  1  0  0  0  0
 18 39  1  0  0  0  0
 18 40  1  0  0  0  0
 19 41  1  0  0  0  0
 19 42  1  0  0  0  0
 20 43  1  0  0  0  0
M  END
> <s_m_source_file>
AV-unprocessed.smi

> <i_m_source_file_index>
2393

> <i_lp_mmshare_version>
43012

> <i_f3d_flags>
0

> <s_epik_input>
W0NIM11jMVtjSF1jKFtDSDNdKW5jKFtjSF0xKVtOSF1DKD1PKVtOSF1bQ0BASF0oW0NIMl0yKVtDSDJdW0NIMl1PQzIoW0NIM10pW0NIM10=

> <s_epik_cmdline>
J2VwaWtfcHl0aG9uJywgJy1waCcsICc3LjAnLCAnLXRuJywgJzgnLCAnLW1hJywgJzIwMCcsICctbWV0YWxfYmluZGluZycsICctaW1hZScsICc8aW5maWxlLm1hZT4nLCAnLW9tYWUnLCAnPG91dGZpbGUubWFlPic=

> <r_lp_tautomer_probability>
1

> <r_epik_Ionization_Penalty>
0.000261351

> <r_epik_Ionization_Penalty_Charging>
0

> <r_epik_Ionization_Penalty_Neutral>
0.000261351

> <r_epik_State_Penalty>
-0

> <r_epik_Charging_Adjusted_Penalty>
0

> <i_epik_Tot_Q>
0

> <i_epik_Tot_abs_Q>
0

> <r_epik_Metal_State_Penalty>
-0

> <b_epik_Metal_Only>
0

> <s_lp_Force_Field>
OPLS_2005

> <r_lp_Energy>
12.7135

> <b_lp_Chiralities_Consistent>
1

> <s_lp_Variant>
AV-unprocessed.smi:2393-2

> <Gold.Version>
5.8.1

> <Gold.Id.Protein>
6NUR|6NUR_protein|mol2

> <Gold.PLP.Fitness>
41.3439

> <Gold.PLP.PLP>
-35.0550

> <Gold.PLP.part.hbond>
-3.0000

> <Gold.PLP.part.metal>
0.0000

> <Gold.PLP.part.buried>
-3.4568

> <Gold.PLP.part.nonpolar>
-28.9514

> <Gold.PLP.part.repulsive>
0.8505

> <Gold.PLP.ligand.clash>
0.0000

> <Gold.PLP.ligand.torsion>
0.0017

> <Gold.PLP.Chemscore.Hbond>
2.0973

> <Gold.PLP.Chemscore.CHOScore>
0.0000

> <Gold.PLP.Chemscore.Metal>
0.0000

> <Gold.Chemscore.Hbonds>
donor molecule, donor type, donor heavy atom, donor atom, acceptor molecule, acceptor atom, score
      L1  H     8    28       P1  7948  1.00
      L1  H    11    29       P1  7948  1.00
      P1  H  8011  8017       L1    15  0.12

> <Gold.PLP.Chemscore.Internal.Correction>
0.0003

> <Gold.Rescore>
     Score         DG    S(hbond)    S(metal)    S(lipo)     H(rot)  DE(clash)    DE(int)     intcor
     17.02     -19.32       1.95        0.00      84.60       1.00       0.99       1.31       ----

> <Gold.Chemscore.Fitness>
17.0216

> <Gold.Chemscore.DG>
-19.3172

> <Gold.Chemscore.ZeroCoef>
-5.4800

> <Gold.Chemscore.Hbond>
1.9459

> <Gold.Chemscore.Metal>
0.0000

> <Gold.Chemscore.Lipo>
84.5989

> <Gold.Chemscore.Internal_Hbond>
0.0000

> <Gold.Chemscore.DEClash>
0.9863

> <Gold.Chemscore.DEInternal>
1.3093

> <Gold.Chemscore.Rot>
1.0000

> <Gold.Chemscore.Internal.Correction>
   9.000000E+99

> <Gold.Chemscore.Hbonds>
donor molecule, donor type, donor heavy atom, donor atom, acceptor molecule, acceptor atom, score
      L1  H     8    28       P1  7948  0.98
      L1  H    11    29       P1  7948  0.97
      P1  H  8011  8017       L1    15  0.01

> <Gold.Chemscore.Hbond.Weighted>
-6.4991

> <Gold.Chemscore.Metal.Weighted>
-0.0000

> <Gold.Chemscore.Lipo.Weighted>
-9.8981

> <Gold.Chemscore.Internal_Hbond.Weighted>
0.0000

> <Gold.Chemscore.DEClash.Weighted>
0.9863

> <Gold.Chemscore.DEInternal.Weighted>
1.3093

> <Gold.Chemscore.Rot.Weighted>
2.5600

> <Gold.Chemscore.Internal.Correction.Weighted>
   9.000000E+99

> <Gold.Protein.RotatedTorsions>
[ 6907 6896 6895 6894 ] final   87.23 input  -60.11 | X-H torsion
[ 7974 7965 7964 7962 ] final   -4.90 input  175.53 | X-H torsion
[ 8008 7997 7996 7995 ] final   87.67 input   59.86 | X-H torsion
[ 10167 10162 10161 10158 ] final  132.82 input  -65.29 | X-H torsion
[ 10718 10713 10712 10709 ] final  -94.43 input   66.30 | X-H torsion
[ 10763 10752 10751 10750 ] final  152.38 input  -60.55 | X-H torsion
[ 11005 11000 10999 10996 ] final   10.87 input  -57.11 | X-H torsion

> <Gold.Protein.ActiveResidues>
 VAL166  LYS551  ARG553  GLY616  TRP617  ASP618  TYR619  PRO620  LYS621  CYS622 
 ASP623  PHE694  ASN695  SER759  ASP760  ASP761  ALA762  ILE779  LEU786  VAL792 
 PHE793  MET794  SER795  GLU796  ALA797  LYS798  CYS799  TRP800  GLU811  SER814 

> <Gold.Protein.RotatedAtoms>
  152.5408  134.2308  159.8823 H   0  0  0  0  0  0  0  0  0  0  0  0  # atno 6907 bound_to 6896
  151.2280  133.4459  159.2610 H   0  0  0  0  0  0  0  0  0  0  0  0  # atno 6908 bound_to 6896
  151.0742  134.9831  159.8380 H   0  0  0  0  0  0  0  0  0  0  0  0  # atno 6909 bound_to 6896
  146.2363  140.1940  142.8333 H   0  0  0  0  0  0  0  0  0  0  0  0  # atno 7974 bound_to 7965
  155.9782  140.3379  155.6638 H   0  0  0  0  0  0  0  0  0  0  0  0  # atno 8008 bound_to 7997
  155.6584  140.0713  157.2581 H   0  0  0  0  0  0  0  0  0  0  0  0  # atno 8009 bound_to 7997
  154.4184  140.1713  156.1737 H   0  0  0  0  0  0  0  0  0  0  0  0  # atno 8010 bound_to 7997
  139.5323  144.6645  151.4906 H   0  0  0  0  0  0  0  0  0  0  0  0  # atno 10167 bound_to 10162
  156.0027  130.5067  150.5926 H   0  0  0  0  0  0  0  0  0  0  0  0  # atno 10718 bound_to 10713
  154.1190  135.2834  155.3213 H   0  0  0  0  0  0  0  0  0  0  0  0  # atno 10763 bound_to 10752
  154.6436  135.5394  153.7822 H   0  0  0  0  0  0  0  0  0  0  0  0  # atno 10764 bound_to 10752
  153.0319  135.6492  154.1345 H   0  0  0  0  0  0  0  0  0  0  0  0  # atno 10765 bound_to 10752
  140.5096  134.0665  155.7814 H   0  0  0  0  0  0  0  0  0  0  0  0  # atno 11005 bound_to 11000
  144.9835  140.8481  143.5383 LP  0  0  0  0  0  0  0  0  0  0  0  0  # atno 17320 bound_to 7965
  145.1936  139.2288  143.5229 LP  0  0  0  0  0  0  0  0  0  0  0  0  # atno 17321 bound_to 7965
  140.6509  143.8698  150.6785 LP  0  0  0  0  0  0  0  0  0  0  0  0  # atno 17342 bound_to 10162
  140.2062  143.3919  152.1753 LP  0  0  0  0  0  0  0  0  0  0  0  0  # atno 17343 bound_to 10162
  157.3788  131.0777  151.1495 LP  0  0  0  0  0  0  0  0  0  0  0  0  # atno 17370 bound_to 10713
  157.2224  130.6487  149.5816 LP  0  0  0  0  0  0  0  0  0  0  0  0  # atno 17371 bound_to 10713
  141.1393  133.9167  157.2363 LP  0  0  0  0  0  0  0  0  0  0  0  0  # atno 17394 bound_to 11000
  139.9667  135.0140  156.9404 LP  0  0  0  0  0  0  0  0  0  0  0  0  # atno 17395 bound_to 11000

$$$$
