AV-unprocessed.smi:1941|AV-procd|sdf|7848|dock4
  -GOLD-   22720 9593D 1   1.00000     0.00000
 Structure written by MMmdl.
 40 41  0  0  0  0  0  0  0  0  1 V2000
  154.1102  140.8026  160.6925 C   0  0  0  0  0  0  0  0  0  0  0  0
  153.3245  142.0540  160.8859 C   0  0  0  0  0  0  0  0  0  0  0  0
  153.0014  142.8852  159.8918 N   0  0  0  0  0  0  0  0  0  0  0  0
  152.2631  143.9886  160.3316 C   0  0  0  0  0  0  0  0  0  0  0  0
  151.8165  145.0284  159.3500 C   0  0  0  0  0  0  0  0  0  0  0  0
  152.2964  144.7293  157.9202 C   0  0  0  0  0  0  0  0  0  0  0  0
  151.2606  144.0602  157.1422 N   0  0  0  0  0  0  0  0  0  0  0  0
  150.9855  142.7502  157.1988 C   0  0  0  0  0  0  0  0  0  0  0  0
  151.6004  141.9477  157.9016 O   0  0  0  0  0  0  0  0  0  0  0  0
  149.9585  142.4261  156.4006 N   0  0  0  0  0  0  0  0  0  0  0  0
  149.3995  141.0870  156.2263 C   0  0  1  0  0  0  0  0  0  0  0  0
  149.0258  140.5181  157.6028 C   0  0  0  0  0  0  0  0  0  0  0  0
  148.1878  141.1404  155.2754 C   0  0  1  0  0  0  0  0  0  0  0  0
  147.0773  142.1042  155.7013 C   0  0  0  0  0  0  0  0  0  0  0  0
  146.4067  142.4905  154.3912 C   0  0  0  0  0  0  0  0  0  0  0  0
  147.3681  141.9825  153.3138 C   0  0  0  0  0  0  0  0  0  0  0  0
  148.5632  141.6603  154.0097 O   0  0  0  0  0  0  0  0  0  0  0  0
  152.0284  143.9789  161.6840 C   0  0  0  0  0  0  0  0  0  0  0  0
  152.7290  142.5826  162.4548 S   0  0  0  0  0  0  0  0  0  0  0  0
  154.4348  140.7077  159.6557 H   0  0  0  0  0  0  0  0  0  0  0  0
  153.4990  139.9372  160.9486 H   0  0  0  0  0  0  0  0  0  0  0  0
  154.9912  140.8129  161.3343 H   0  0  0  0  0  0  0  0  0  0  0  0
  150.7282  145.1015  159.3632 H   0  0  0  0  0  0  0  0  0  0  0  0
  152.1835  146.0082  159.6582 H   0  0  0  0  0  0  0  0  0  0  0  0
  152.5528  145.6581  157.4097 H   0  0  0  0  0  0  0  0  0  0  0  0
  153.2044  144.1238  157.9385 H   0  0  0  0  0  0  0  0  0  0  0  0
  150.7029  144.6393  156.5316 H   0  0  0  0  0  0  0  0  0  0  0  0
  149.5251  143.1661  155.8680 H   0  0  0  0  0  0  0  0  0  0  0  0
  150.1464  140.4231  155.7874 H   0  0  0  0  0  0  0  0  0  0  0  0
  148.6296  139.5060  157.5159 H   0  0  0  0  0  0  0  0  0  0  0  0
  148.2692  141.1300  158.0951 H   0  0  0  0  0  0  0  0  0  0  0  0
  149.8965  140.4727  158.2578 H   0  0  0  0  0  0  0  0  0  0  0  0
  147.7717  140.1405  155.1347 H   0  0  0  0  0  0  0  0  0  0  0  0
  146.3854  141.6555  156.4145 H   0  0  0  0  0  0  0  0  0  0  0  0
  147.5069  142.9928  156.1665 H   0  0  0  0  0  0  0  0  0  0  0  0
  145.4257  142.0260  154.2858 H   0  0  0  0  0  0  0  0  0  0  0  0
  146.2740  143.5714  154.3321 H   0  0  0  0  0  0  0  0  0  0  0  0
  146.9743  141.0808  152.8423 H   0  0  0  0  0  0  0  0  0  0  0  0
  147.5532  142.7216  152.5343 H   0  0  0  0  0  0  0  0  0  0  0  0
  151.4880  144.7065  162.2714 H   0  0  0  0  0  0  0  0  0  0  0  0
  1  2  1  0  0  0  0
  1 20  1  0  0  0  0
  1 21  1  0  0  0  0
  1 22  1  0  0  0  0
  2 19  1  0  0  0  0
  2  3  2  0  0  0  0
  3  4  1  0  0  0  0
  4  5  1  0  0  0  0
  4 18  2  0  0  0  0
  5  6  1  0  0  0  0
  5 23  1  0  0  0  0
  5 24  1  0  0  0  0
  6  7  1  0  0  0  0
  6 25  1  0  0  0  0
  6 26  1  0  0  0  0
  7  8  1  0  0  0  0
  7 27  1  0  0  0  0
  8  9  2  0  0  0  0
  8 10  1  0  0  0  0
 10 11  1  0  0  0  0
 10 28  1  0  0  0  0
 11 12  1  0  0  0  0
 11 13  1  0  0  0  0
 11 29  1  0  0  0  0
 12 30  1  0  0  0  0
 12 31  1  0  0  0  0
 12 32  1  0  0  0  0
 13 17  1  0  0  0  0
 13 14  1  0  0  0  0
 13 33  1  0  0  0  0
 14 15  1  0  0  0  0
 14 34  1  0  0  0  0
 14 35  1  0  0  0  0
 15 16  1  0  0  0  0
 15 36  1  0  0  0  0
 15 37  1  0  0  0  0
 16 17  1  0  0  0  0
 16 38  1  0  0  0  0
 16 39  1  0  0  0  0
 18 19  1  0  0  0  0
 18 40  1  0  0  0  0
M  END
> <s_m_source_file>
AV-unprocessed.smi

> <i_m_source_file_index>
1941

> <i_lp_mmshare_version>
43012

> <i_f3d_flags>
0

> <s_epik_input>
W0NIM11jMW5jKFtjSF1zMSlbQ0gyXVtDSDJdW05IXUMoPU8pW05IXVtDQEhdKFtDSDNdKVtDQEBIXTJbQ0gyXVtDSDJdW0NIMl1PMg==

> <s_epik_cmdline>
J2VwaWtfcHl0aG9uJywgJy1waCcsICc3LjAnLCAnLXRuJywgJzgnLCAnLW1hJywgJzIwMCcsICctbWV0YWxfYmluZGluZycsICctaW1hZScsICc8aW5maWxlLm1hZT4nLCAnLW9tYWUnLCAnPG91dGZpbGUubWFlPic=

> <r_epik_Ionization_Penalty>
0.00195486

> <r_epik_Ionization_Penalty_Charging>
0

> <r_epik_Ionization_Penalty_Neutral>
0.00195486

> <r_epik_State_Penalty>
0.00129472

> <r_epik_Charging_Adjusted_Penalty>
0.00129472

> <i_epik_Tot_Q>
0

> <i_epik_Tot_abs_Q>
0

> <r_epik_Metal_State_Penalty>
-0

> <b_epik_Metal_Only>
0

> <s_lp_Force_Field>
OPLS_2005

> <r_lp_Energy>
10.4384

> <b_lp_Chiralities_Consistent>
1

> <s_lp_Variant>
AV-unprocessed.smi:1941-4

> <Gold.Version>
5.8.1

> <Gold.Id.Protein>
6NUR|6NUR_protein|mol2

> <Gold.PLP.Fitness>
52.1908

> <Gold.PLP.PLP>
-46.5067

> <Gold.PLP.part.hbond>
-3.0000

> <Gold.PLP.part.metal>
0.0000

> <Gold.PLP.part.buried>
-7.2074

> <Gold.PLP.part.nonpolar>
-35.4315

> <Gold.PLP.part.repulsive>
0.2971

> <Gold.PLP.ligand.clash>
0.0000

> <Gold.PLP.ligand.torsion>
0.4369

> <Gold.PLP.Chemscore.Hbond>
2.1741

> <Gold.PLP.Chemscore.CHOScore>
0.0000

> <Gold.PLP.Chemscore.Metal>
0.0000

> <Gold.Chemscore.Hbonds>
donor molecule, donor type, donor heavy atom, donor atom, acceptor molecule, acceptor atom, score
      L1  H     7    27       P1  8028  0.86
      L1  H    10    28       P1  8028  1.00
      P1  H  8011  8017       L1    17  0.18

> <Gold.PLP.Chemscore.Internal.Correction>
0.0356

> <Gold.Rescore>
     Score         DG    S(hbond)    S(metal)    S(lipo)     H(rot)  DE(clash)    DE(int)     intcor
     17.34     -21.03       1.92        0.00     115.19       1.69       0.54       3.15       ----

> <Gold.Chemscore.Fitness>
17.3397

> <Gold.Chemscore.DG>
-21.0317

> <Gold.Chemscore.ZeroCoef>
-5.4800

> <Gold.Chemscore.Hbond>
1.9182

> <Gold.Chemscore.Metal>
0.0000

> <Gold.Chemscore.Lipo>
115.1886

> <Gold.Chemscore.Internal_Hbond>
0.0000

> <Gold.Chemscore.DEClash>
0.5389

> <Gold.Chemscore.DEInternal>
3.1532

> <Gold.Chemscore.Rot>
1.6923

> <Gold.Chemscore.Internal.Correction>
   9.000000E+99

> <Gold.Chemscore.Hbonds>
donor molecule, donor type, donor heavy atom, donor atom, acceptor molecule, acceptor atom, score
      L1  H     7    27       P1  8028  0.80
      L1  H    10    28       P1  8028  0.98
      P1  H  8011  8017       L1    17  0.01

> <Gold.Chemscore.Hbond.Weighted>
-6.4070

> <Gold.Chemscore.Metal.Weighted>
-0.0000

> <Gold.Chemscore.Lipo.Weighted>
-13.4771

> <Gold.Chemscore.Internal_Hbond.Weighted>
0.0000

> <Gold.Chemscore.DEClash.Weighted>
0.5389

> <Gold.Chemscore.DEInternal.Weighted>
3.1532

> <Gold.Chemscore.Rot.Weighted>
4.3323

> <Gold.Chemscore.Internal.Correction.Weighted>
   9.000000E+99

> <Gold.Protein.RotatedTorsions>
[ 6907 6896 6895 6894 ] final -124.72 input  -60.11 | X-H torsion
[ 7974 7965 7964 7962 ] final  151.07 input  175.53 | X-H torsion
[ 8008 7997 7996 7995 ] final -158.63 input   59.86 | X-H torsion
[ 10167 10162 10161 10158 ] final   24.58 input  -65.29 | X-H torsion
[ 10718 10713 10712 10709 ] final  154.70 input   66.30 | X-H torsion
[ 10763 10752 10751 10750 ] final   65.93 input  -60.55 | X-H torsion
[ 11005 11000 10999 10996 ] final   11.71 input  -57.11 | X-H torsion

> <Gold.Protein.ActiveResidues>
 VAL166  LYS551  ARG553  GLY616  TRP617  ASP618  TYR619  PRO620  LYS621  CYS622 
 ASP623  PHE694  ASN695  SER759  ASP760  ASP761  ALA762  ILE779  LEU786  VAL792 
 PHE793  MET794  SER795  GLU796  ALA797  LYS798  CYS799  TRP800  GLU811  SER814 

> <Gold.Protein.RotatedAtoms>
  150.8796  133.7390  159.2935 H   0  0  0  0  0  0  0  0  0  0  0  0  # atno 6907 bound_to 6896
  151.4975  135.1059  159.9830 H   0  0  0  0  0  0  0  0  0  0  0  0  # atno 6908 bound_to 6896
  152.4751  133.8074  159.7040 H   0  0  0  0  0  0  0  0  0  0  0  0  # atno 6909 bound_to 6896
  144.8319  139.6490  143.6055 H   0  0  0  0  0  0  0  0  0  0  0  0  # atno 7974 bound_to 7965
  155.7504  140.0826  157.2203 H   0  0  0  0  0  0  0  0  0  0  0  0  # atno 8008 bound_to 7997
  154.4012  140.1561  156.2774 H   0  0  0  0  0  0  0  0  0  0  0  0  # atno 8009 bound_to 7997
  155.8935  140.3414  155.5976 H   0  0  0  0  0  0  0  0  0  0  0  0  # atno 8010 bound_to 7997
  140.5176  144.0056  150.6401 H   0  0  0  0  0  0  0  0  0  0  0  0  # atno 10167 bound_to 10162
  157.2281  131.0733  151.1870 H   0  0  0  0  0  0  0  0  0  0  0  0  # atno 10718 bound_to 10713
  153.0118  135.5339  154.6745 H   0  0  0  0  0  0  0  0  0  0  0  0  # atno 10763 bound_to 10752
  154.5921  135.2860  155.0627 H   0  0  0  0  0  0  0  0  0  0  0  0  # atno 10764 bound_to 10752
  154.1716  135.6531  153.5063 H   0  0  0  0  0  0  0  0  0  0  0  0  # atno 10765 bound_to 10752
  140.5002  134.0754  155.7792 H   0  0  0  0  0  0  0  0  0  0  0  0  # atno 11005 bound_to 11000
  146.2621  139.6434  142.9355 LP  0  0  0  0  0  0  0  0  0  0  0  0  # atno 17320 bound_to 7965
  145.4878  141.0438  143.2610 LP  0  0  0  0  0  0  0  0  0  0  0  0  # atno 17321 bound_to 7965
  140.3396  143.3028  152.0602 LP  0  0  0  0  0  0  0  0  0  0  0  0  # atno 17342 bound_to 10162
  139.4914  144.6452  151.6794 LP  0  0  0  0  0  0  0  0  0  0  0  0  # atno 17343 bound_to 10162
  157.3506  130.7080  149.6438 LP  0  0  0  0  0  0  0  0  0  0  0  0  # atno 17370 bound_to 10713
  155.9677  130.4253  150.4650 LP  0  0  0  0  0  0  0  0  0  0  0  0  # atno 17371 bound_to 10713
  141.1439  133.9089  157.2260 LP  0  0  0  0  0  0  0  0  0  0  0  0  # atno 17394 bound_to 11000
  139.9718  135.0126  156.9531 LP  0  0  0  0  0  0  0  0  0  0  0  0  # atno 17395 bound_to 11000

$$$$
