AV-unprocessed.smi:1962|AV-procd|sdf|7924|dock6
  -GOLD-   2272010 93D 1   1.00000     0.00000
 Structure written by MMmdl.
 35 36  0  0  0  0  0  0  0  0  2 V2000
  150.5954  139.1635  154.5220 C   0  0  0  0  0  0  0  0  0  0  0  0
  149.8130  140.3091  155.1791 C   0  0  2  0  0  0  0  0  0  0  0  0
  149.0765  141.1661  154.1155 C   0  0  0  0  0  0  0  0  0  0  0  0
  147.8546  141.8081  154.5947 N   0  0  0  0  0  0  0  0  0  0  0  0
  146.9498  142.5824  153.8924 C   0  0  0  0  0  0  0  0  0  0  0  0
  145.9760  142.9717  154.7667 C   0  0  0  0  0  0  0  0  0  0  0  0
  146.3800  142.3918  156.0010 C   0  0  0  0  0  0  0  0  0  0  0  0
  147.5084  141.7095  155.9000 N   0  0  0  0  0  0  0  0  0  0  0  0
  150.7532  141.1397  155.9407 N   0  5  0  0  0  0  0  0  0  0  0  0
  151.7121  140.6723  156.7975 C   0  0  0  0  0  0  0  0  0  0  0  0
  152.4231  139.6751  156.6223 O   0  0  0  0  0  0  0  0  0  0  0  0
  151.9394  141.3962  158.0831 C   0  0  0  0  0  0  0  0  0  0  0  0
  151.8055  142.6854  158.1254 N   0  0  0  0  0  0  0  0  0  0  0  0
  151.9746  143.4060  159.2894 N   0  0  0  0  0  0  0  0  0  0  0  0
  151.5131  144.7909  159.2239 C   0  0  0  0  0  0  0  0  0  0  0  0
  152.5375  142.9188  160.4223 C   0  0  0  0  0  0  0  0  0  0  0  0
  152.6632  143.5700  161.4597 O   0  0  0  0  0  0  0  0  0  0  0  0
  153.0618  141.4820  160.3593 C   0  0  0  0  0  0  0  0  0  0  0  0
  152.2845  140.6221  159.3432 C   0  0  0  0  0  0  0  0  0  0  0  0
  149.9303  138.5099  153.9575 H   0  0  0  0  0  0  0  0  0  0  0  0
  151.0992  138.5502  155.2700 H   0  0  0  0  0  0  0  0  0  0  0  0
  151.3530  139.5401  153.8337 H   0  0  0  0  0  0  0  0  0  0  0  0
  149.0608  139.8503  155.8230 H   0  0  0  0  0  0  0  0  0  0  0  0
  149.7461  141.9298  153.7152 H   0  0  0  0  0  0  0  0  0  0  0  0
  148.7989  140.5358  153.2702 H   0  0  0  0  0  0  0  0  0  0  0  0
  147.0713  142.7810  152.8377 H   0  0  0  0  0  0  0  0  0  0  0  0
  145.1081  143.5784  154.5561 H   0  0  0  0  0  0  0  0  0  0  0  0
  145.8929  142.4505  156.9631 H   0  0  0  0  0  0  0  0  0  0  0  0
  152.3254  145.4808  159.4579 H   0  0  0  0  0  0  0  0  0  0  0  0
  150.7049  144.9576  159.9375 H   0  0  0  0  0  0  0  0  0  0  0  0
  151.1367  145.0500  158.2326 H   0  0  0  0  0  0  0  0  0  0  0  0
  154.1125  141.5296  160.0708 H   0  0  0  0  0  0  0  0  0  0  0  0
  153.0273  141.0247  161.3487 H   0  0  0  0  0  0  0  0  0  0  0  0
  151.3660  140.2477  159.7967 H   0  0  0  0  0  0  0  0  0  0  0  0
  152.8910  139.7471  159.1073 H   0  0  0  0  0  0  0  0  0  0  0  0
  1  2  1  0  0  0  0
  1 20  1  0  0  0  0
  1 21  1  0  0  0  0
  1 22  1  0  0  0  0
  2  3  1  0  0  0  0
  2  9  1  0  0  0  0
  2 23  1  0  0  0  0
  3  4  1  0  0  0  0
  3 24  1  0  0  0  0
  3 25  1  0  0  0  0
  4  8  1  0  0  0  0
  4  5  1  0  0  0  0
  5  6  2  0  0  0  0
  5 26  1  0  0  0  0
  6  7  1  0  0  0  0
  6 27  1  0  0  0  0
  7  8  2  0  0  0  0
  7 28  1  0  0  0  0
  9 10  1  0  0  0  0
 10 11  2  0  0  0  0
 10 12  1  0  0  0  0
 12 19  1  0  0  0  0
 12 13  2  0  0  0  0
 13 14  1  0  0  0  0
 14 15  1  0  0  0  0
 14 16  1  0  0  0  0
 15 29  1  0  0  0  0
 15 30  1  0  0  0  0
 15 31  1  0  0  0  0
 16 17  2  0  0  0  0
 16 18  1  0  0  0  0
 18 19  1  0  0  0  0
 18 32  1  0  0  0  0
 18 33  1  0  0  0  0
 19 34  1  0  0  0  0
 19 35  1  0  0  0  0
M  CHG  1   9  -1
M  END
> <s_m_source_file>
AV-unprocessed.smi

> <i_m_source_file_index>
1962

> <i_lp_mmshare_version>
43012

> <i_f3d_flags>
0

> <s_epik_input>
bjFbY0hdW2NIXVtjSF1uMVtDSDJdW0NAQEhdKFtDSDNdKVtOSF1DKD1PKUMyPU5OKFtDSDNdKUMoPU8pW0NIMl1bQ0gyXTI=

> <s_epik_cmdline>
J2VwaWtfcHl0aG9uJywgJy1waCcsICc3LjAnLCAnLXRuJywgJzgnLCAnLW1hJywgJzIwMCcsICctbWV0YWxfYmluZGluZycsICctaW1hZScsICc8aW5maWxlLm1hZT4nLCAnLW9tYWUnLCAnPG91dGZpbGUubWFlPic=

> <r_lp_tautomer_probability>
1

> <r_epik_Ionization_Penalty>
5.21086

> <r_epik_Ionization_Penalty_Charging>
5.21084

> <r_epik_Ionization_Penalty_Neutral>
2.41961e-05

> <r_epik_State_Penalty>
5.21075

> <r_epik_Charging_Adjusted_Penalty>
10.4216

> <i_epik_Tot_Q>
-1

> <i_epik_Tot_abs_Q>
1

> <r_epik_Metal_State_Penalty>
1.27477

> <b_epik_Metal_Only>
1

> <s_epik_Chemistry_Notes>
This compound has an imine and may undergo hydrolysis.

> <s_lp_Force_Field>
OPLS_2005

> <r_lp_Energy>
24.8429

> <b_lp_Chiralities_Consistent>
1

> <s_lp_Variant>
AV-unprocessed.smi:1962-3

> <Gold.Version>
5.8.1

> <Gold.Id.Protein>
6NUR|6NUR_protein|mol2

> <Gold.PLP.Fitness>
41.9688

> <Gold.PLP.PLP>
-41.4713

> <Gold.PLP.part.hbond>
-1.0000

> <Gold.PLP.part.metal>
0.0000

> <Gold.PLP.part.buried>
-4.2025

> <Gold.PLP.part.nonpolar>
-35.2747

> <Gold.PLP.part.repulsive>
0.2962

> <Gold.PLP.ligand.clash>
0.0000

> <Gold.PLP.ligand.torsion>
1.3035

> <Gold.PLP.Chemscore.Hbond>
1.0000

> <Gold.PLP.Chemscore.CHOScore>
0.0000

> <Gold.PLP.Chemscore.Metal>
0.0000

> <Gold.Chemscore.Hbonds>
donor molecule, donor type, donor heavy atom, donor atom, acceptor molecule, acceptor atom, score
      P1  H  7997  8008       L1    11  1.00

> <Gold.PLP.Chemscore.Internal.Correction>
0.1046

> <Gold.Rescore>
     Score         DG    S(hbond)    S(metal)    S(lipo)     H(rot)  DE(clash)    DE(int)     intcor
     11.18     -13.56       0.99        0.00      73.51       1.50       0.03       2.35       ----

> <Gold.Chemscore.Fitness>
11.1850

> <Gold.Chemscore.DG>
-13.5633

> <Gold.Chemscore.ZeroCoef>
-5.4800

> <Gold.Chemscore.Hbond>
0.9922

> <Gold.Chemscore.Metal>
0.0000

> <Gold.Chemscore.Lipo>
73.5058

> <Gold.Chemscore.Internal_Hbond>
0.0000

> <Gold.Chemscore.DEClash>
0.0324

> <Gold.Chemscore.DEInternal>
2.3459

> <Gold.Chemscore.Rot>
1.4964

> <Gold.Chemscore.Internal.Correction>
   9.000000E+99

> <Gold.Chemscore.Hbonds>
donor molecule, donor type, donor heavy atom, donor atom, acceptor molecule, acceptor atom, score
      P1  H  7997  8008       L1    11  0.84

> <Gold.Chemscore.Hbond.Weighted>
-3.3140

> <Gold.Chemscore.Metal.Weighted>
-0.0000

> <Gold.Chemscore.Lipo.Weighted>
-8.6002

> <Gold.Chemscore.Internal_Hbond.Weighted>
0.0000

> <Gold.Chemscore.DEClash.Weighted>
0.0324

> <Gold.Chemscore.DEInternal.Weighted>
2.3459

> <Gold.Chemscore.Rot.Weighted>
3.8309

> <Gold.Chemscore.Internal.Correction.Weighted>
   9.000000E+99

> <Gold.Protein.RotatedTorsions>
[ 6907 6896 6895 6894 ] final   65.48 input  -60.11 | X-H torsion
[ 7974 7965 7964 7962 ] final  -56.85 input  175.53 | X-H torsion
[ 8008 7997 7996 7995 ] final  -52.13 input   59.86 | X-H torsion
[ 10167 10162 10161 10158 ] final   72.48 input  -65.29 | X-H torsion
[ 10718 10713 10712 10709 ] final -132.46 input   66.30 | X-H torsion
[ 10763 10752 10751 10750 ] final   86.34 input  -60.55 | X-H torsion
[ 11005 11000 10999 10996 ] final  -21.09 input  -57.11 | X-H torsion

> <Gold.Protein.ActiveResidues>
 VAL166  LYS551  ARG553  GLY616  TRP617  ASP618  TYR619  PRO620  LYS621  CYS622 
 ASP623  PHE694  ASN695  SER759  ASP760  ASP761  ALA762  ILE779  LEU786  VAL792 
 PHE793  MET794  SER795  GLU796  ALA797  LYS798  CYS799  TRP800  GLU811  SER814 

> <Gold.Protein.RotatedAtoms>
  152.4410  134.5590  159.9888 H   0  0  0  0  0  0  0  0  0  0  0  0  # atno 6907 bound_to 6896
  151.5688  133.3387  159.2993 H   0  0  0  0  0  0  0  0  0  0  0  0  # atno 6908 bound_to 6896
  150.8316  134.7606  159.6922 H   0  0  0  0  0  0  0  0  0  0  0  0  # atno 6909 bound_to 6896
  145.8579  140.8306  142.9952 H   0  0  0  0  0  0  0  0  0  0  0  0  # atno 7974 bound_to 7965
  154.4099  140.1231  156.4941 H   0  0  0  0  0  0  0  0  0  0  0  0  # atno 8008 bound_to 7997
  155.6960  140.3495  155.4894 H   0  0  0  0  0  0  0  0  0  0  0  0  # atno 8009 bound_to 7997
  155.9427  140.1090  157.1032 H   0  0  0  0  0  0  0  0  0  0  0  0  # atno 8010 bound_to 7997
  140.0348  144.5437  150.7479 H   0  0  0  0  0  0  0  0  0  0  0  0  # atno 10167 bound_to 10162
  156.2348  130.7060  151.0896 H   0  0  0  0  0  0  0  0  0  0  0  0  # atno 10718 bound_to 10713
  153.1561  135.4584  154.9706 H   0  0  0  0  0  0  0  0  0  0  0  0  # atno 10763 bound_to 10752
  154.7862  135.3205  154.7882 H   0  0  0  0  0  0  0  0  0  0  0  0  # atno 10764 bound_to 10752
  153.8379  135.6932  153.4861 H   0  0  0  0  0  0  0  0  0  0  0  0  # atno 10765 bound_to 10752
  140.8527  133.7845  155.9985 H   0  0  0  0  0  0  0  0  0  0  0  0  # atno 11005 bound_to 11000
  144.6727  140.1051  143.7458 LP  0  0  0  0  0  0  0  0  0  0  0  0  # atno 17320 bound_to 7965
  145.9282  139.2589  143.1341 LP  0  0  0  0  0  0  0  0  0  0  0  0  # atno 17321 bound_to 7965
  140.7286  143.2664  151.4032 LP  0  0  0  0  0  0  0  0  0  0  0  0  # atno 17342 bound_to 10162
  139.6052  144.1212  152.2241 LP  0  0  0  0  0  0  0  0  0  0  0  0  # atno 17343 bound_to 10162
  157.7149  131.0715  150.6363 LP  0  0  0  0  0  0  0  0  0  0  0  0  # atno 17370 bound_to 10713
  156.6433  130.4464  149.5745 LP  0  0  0  0  0  0  0  0  0  0  0  0  # atno 17371 bound_to 10713
  140.8771  134.2656  157.5162 LP  0  0  0  0  0  0  0  0  0  0  0  0  # atno 17394 bound_to 11000
  139.8704  134.9597  156.4339 LP  0  0  0  0  0  0  0  0  0  0  0  0  # atno 17395 bound_to 11000

$$$$
