AV-unprocessed.smi:4|AV-procd|sdf|34|dock4
  -GOLD-   2262015143D 1   1.00000     0.00000
 Structure written by MMmdl.
 43 44  0  0  0  0  0  0  0  0  1 V2000
  151.7630  143.9683  160.9211 C   0  0  0  0  0  0  0  0  0  0  0  0
  151.9062  143.6281  159.4146 C   0  0  0  0  0  0  0  0  0  0  0  0
  150.5855  144.1100  158.7588 C   0  0  0  0  0  0  0  0  0  0  0  0
  153.1084  144.4678  158.9121 C   0  0  0  0  0  0  0  0  0  0  0  0
  152.1299  142.1861  159.1767 N   0  0  0  0  0  0  0  0  0  0  0  0
  151.4733  141.4462  158.1892 C   0  0  0  0  0  0  0  0  0  0  0  0
  151.6691  140.1235  157.9542 C   0  0  0  0  0  0  0  0  0  0  0  0
  150.8907  139.3733  156.8821 C   0  0  0  0  0  0  0  0  0  0  0  0
  150.0795  140.2818  156.0762 N   0  0  0  0  0  0  0  0  0  0  0  0
  149.2945  139.5951  155.0539 C   0  0  0  0  0  0  0  0  0  0  0  0
  148.5432  140.5894  154.1642 C   0  0  0  0  0  0  0  0  0  0  0  0
  149.5009  141.0594  153.2355 O   0  0  0  0  0  0  0  0  0  0  0  0
  147.2418  140.0943  153.5071 C   0  0  0  0  0  0  0  0  0  0  0  0
  146.5979  141.4493  153.8037 C   0  0  0  0  0  0  0  0  0  0  0  0
  147.6965  141.6840  154.8409 C   0  0  0  0  0  0  0  0  0  0  0  0
  152.6131  139.3783  158.7877 C   0  0  0  0  0  0  0  0  0  0  0  0
  152.8667  138.1791  158.6861 O   0  0  0  0  0  0  0  0  0  0  0  0
  153.2521  140.1361  159.7663 N   0  0  0  0  0  0  0  0  0  0  0  0
  153.0610  141.4953  160.0042 C   0  0  0  0  0  0  0  0  0  0  0  0
  153.7017  142.0180  160.9145 O   0  0  0  0  0  0  0  0  0  0  0  0
  153.9138  139.6554  160.3582 H   0  0  0  0  0  0  0  0  0  0  0  0
  151.5892  145.0345  161.0719 H   0  0  0  0  0  0  0  0  0  0  0  0
  152.6652  143.7233  161.4835 H   0  0  0  0  0  0  0  0  0  0  0  0
  150.9184  143.4505  161.3777 H   0  0  0  0  0  0  0  0  0  0  0  0
  149.7457  143.4803  159.0555 H   0  0  0  0  0  0  0  0  0  0  0  0
  150.6183  144.1251  157.6711 H   0  0  0  0  0  0  0  0  0  0  0  0
  150.3462  145.1303  159.0606 H   0  0  0  0  0  0  0  0  0  0  0  0
  153.0074  145.5134  159.2051 H   0  0  0  0  0  0  0  0  0  0  0  0
  153.2140  144.4700  157.8287 H   0  0  0  0  0  0  0  0  0  0  0  0
  154.0459  144.1038  159.3340 H   0  0  0  0  0  0  0  0  0  0  0  0
  150.7514  141.9155  157.5421 H   0  0  0  0  0  0  0  0  0  0  0  0
  151.5944  138.8307  156.2497 H   0  0  0  0  0  0  0  0  0  0  0  0
  150.2533  138.6227  157.3507 H   0  0  0  0  0  0  0  0  0  0  0  0
  150.6864  140.9559  155.6193 H   0  0  0  0  0  0  0  0  0  0  0  0
  149.9403  138.9567  154.4488 H   0  0  0  0  0  0  0  0  0  0  0  0
  148.5858  138.9248  155.5418 H   0  0  0  0  0  0  0  0  0  0  0  0
  149.5688  140.4070  152.5553 H   0  0  0  0  0  0  0  0  0  0  0  0
  147.3228  139.8613  152.4446 H   0  0  0  0  0  0  0  0  0  0  0  0
  146.7688  139.2781  154.0554 H   0  0  0  0  0  0  0  0  0  0  0  0
  146.6592  142.1397  152.9612 H   0  0  0  0  0  0  0  0  0  0  0  0
  145.5887  141.3955  154.2131 H   0  0  0  0  0  0  0  0  0  0  0  0
  147.3830  141.4147  155.8511 H   0  0  0  0  0  0  0  0  0  0  0  0
  148.1330  142.6828  154.8140 H   0  0  0  0  0  0  0  0  0  0  0  0
  1  2  1  0  0  0  0
  1 22  1  0  0  0  0
  1 23  1  0  0  0  0
  1 24  1  0  0  0  0
  2  3  1  0  0  0  0
  2  4  1  0  0  0  0
  2  5  1  0  0  0  0
  3 25  1  0  0  0  0
  3 26  1  0  0  0  0
  3 27  1  0  0  0  0
  4 28  1  0  0  0  0
  4 29  1  0  0  0  0
  4 30  1  0  0  0  0
  5 19  1  0  0  0  0
  5  6  1  0  0  0  0
  6  7  2  0  0  0  0
  6 31  1  0  0  0  0
  7  8  1  0  0  0  0
  7 16  1  0  0  0  0
  8  9  1  0  0  0  0
  8 32  1  0  0  0  0
  8 33  1  0  0  0  0
  9 10  1  0  0  0  0
  9 34  1  0  0  0  0
 10 11  1  0  0  0  0
 10 35  1  0  0  0  0
 10 36  1  0  0  0  0
 11 15  1  0  0  0  0
 11 12  1  0  0  0  0
 11 13  1  0  0  0  0
 12 37  1  0  0  0  0
 13 14  1  0  0  0  0
 13 38  1  0  0  0  0
 13 39  1  0  0  0  0
 14 15  1  0  0  0  0
 14 40  1  0  0  0  0
 14 41  1  0  0  0  0
 15 42  1  0  0  0  0
 15 43  1  0  0  0  0
 16 17  2  0  0  0  0
 16 18  1  0  0  0  0
 18 21  1  0  0  0  0
 18 19  1  0  0  0  0
 19 20  2  0  0  0  0
M  END
> <s_m_source_file>
AV-unprocessed.smi

> <i_m_source_file_index>
4

> <i_lp_mmshare_version>
43012

> <i_f3d_flags>
0

> <s_epik_input>
W0NIM11DKFtDSDNdKShbQ0gzXSluMVtjSF1jKGMoPU8pW25IXWMxPU8pW0NIMl1bTkhdW0NIMl1DMihbT0hdKVtDSDJdW0NIMl1bQ0gyXTI=

> <s_epik_cmdline>
J2VwaWtfcHl0aG9uJywgJy1waCcsICc3LjAnLCAnLXRuJywgJzgnLCAnLW1hJywgJzIwMCcsICctbWV0YWxfYmluZGluZycsICctaW1hZScsICc8aW5maWxlLm1hZT4nLCAnLW9tYWUnLCAnPG91dGZpbGUubWFlPic=

> <r_lp_tautomer_probability>
0.999537

> <r_epik_Ionization_Penalty>
2.11381

> <r_epik_Ionization_Penalty_Charging>
0.000786845

> <r_epik_Ionization_Penalty_Neutral>
2.11303

> <r_epik_State_Penalty>
2.25008

> <r_epik_Charging_Adjusted_Penalty>
2.25087

> <i_epik_Tot_Q>
0

> <i_epik_Tot_abs_Q>
0

> <r_epik_Metal_State_Penalty>
2.75188

> <b_epik_Metal_Only>
0

> <s_lp_Force_Field>
OPLS_2005

> <r_lp_Energy>
31.2144

> <b_lp_Chiralities_Consistent>
1

> <s_lp_Variant>
AV-unprocessed.smi:4-2

> <Gold.Version>
5.8.1

> <Gold.Id.Protein>
6NUR|6NUR_protein|mol2

> <Gold.PLP.Fitness>
41.0217

> <Gold.PLP.PLP>
-37.1509

> <Gold.PLP.part.hbond>
-2.2751

> <Gold.PLP.part.metal>
0.0000

> <Gold.PLP.part.buried>
-6.6730

> <Gold.PLP.part.nonpolar>
-28.7532

> <Gold.PLP.part.repulsive>
0.1001

> <Gold.PLP.ligand.clash>
0.0034

> <Gold.PLP.ligand.torsion>
0.9107

> <Gold.PLP.Chemscore.Hbond>
1.8486

> <Gold.PLP.Chemscore.CHOScore>
0.0000

> <Gold.PLP.Chemscore.Metal>
0.0000

> <Gold.Chemscore.Hbonds>
donor molecule, donor type, donor heavy atom, donor atom, acceptor molecule, acceptor atom, score
      L1  H    12    37       P1  7957  0.78
      P1  H  7989  7998       L1    12  0.04
      P1  H  8011  8017       L1    12  0.95

> <Gold.PLP.Chemscore.Internal.Correction>
0.1496

> <Gold.Rescore>
     Score         DG    S(hbond)    S(metal)    S(lipo)     H(rot)  DE(clash)    DE(int)     intcor
     11.77     -14.39       1.31        0.00      92.65       2.46       0.26       2.36       ----

> <Gold.Chemscore.Fitness>
11.7708

> <Gold.Chemscore.DG>
-14.3905

> <Gold.Chemscore.ZeroCoef>
-5.4800

> <Gold.Chemscore.Hbond>
1.3086

> <Gold.Chemscore.Metal>
0.0000

> <Gold.Chemscore.Lipo>
92.6539

> <Gold.Chemscore.Internal_Hbond>
0.0000

> <Gold.Chemscore.DEClash>
0.2575

> <Gold.Chemscore.DEInternal>
2.3622

> <Gold.Chemscore.Rot>
2.4612

> <Gold.Chemscore.Internal.Correction>
   9.000000E+99

> <Gold.Chemscore.Hbonds>
donor molecule, donor type, donor heavy atom, donor atom, acceptor molecule, acceptor atom, score
      L1  H    12    37       P1  7957  0.72
      P1  H  8011  8017       L1    12  0.21

> <Gold.Chemscore.Hbond.Weighted>
-4.3706

> <Gold.Chemscore.Metal.Weighted>
-0.0000

> <Gold.Chemscore.Lipo.Weighted>
-10.8405

> <Gold.Chemscore.Internal_Hbond.Weighted>
0.0000

> <Gold.Chemscore.DEClash.Weighted>
0.2575

> <Gold.Chemscore.DEInternal.Weighted>
2.3622

> <Gold.Chemscore.Rot.Weighted>
6.3006

> <Gold.Chemscore.Internal.Correction.Weighted>
   9.000000E+99

> <Gold.Protein.RotatedTorsions>
[ 6907 6896 6895 6894 ] final  -98.46 input  -60.11 | X-H torsion
[ 7974 7965 7964 7962 ] final   79.05 input  175.53 | X-H torsion
[ 8008 7997 7996 7995 ] final -169.28 input   59.86 | X-H torsion
[ 10167 10162 10161 10158 ] final -164.64 input  -65.29 | X-H torsion
[ 10718 10713 10712 10709 ] final  155.01 input   66.30 | X-H torsion
[ 10763 10752 10751 10750 ] final   35.56 input  -60.55 | X-H torsion
[ 11005 11000 10999 10996 ] final  109.69 input  -57.11 | X-H torsion

> <Gold.Protein.ActiveResidues>
 VAL166  LYS551  ARG553  GLY616  TRP617  ASP618  TYR619  PRO620  LYS621  CYS622 
 ASP623  PHE694  ASN695  SER759  ASP760  ASP761  ALA762  ILE779  LEU786  VAL792 
 PHE793  MET794  SER795  GLU796  ALA797  LYS798  CYS799  TRP800  GLU811  SER814 

> <Gold.Protein.RotatedAtoms>
  150.7047  134.1191  159.4027 H   0  0  0  0  0  0  0  0  0  0  0  0  # atno 6907 bound_to 6896
  151.9177  135.0309  160.0529 H   0  0  0  0  0  0  0  0  0  0  0  0  # atno 6908 bound_to 6896
  152.2282  133.5002  159.5237 H   0  0  0  0  0  0  0  0  0  0  0  0  # atno 6909 bound_to 6896
  145.6693  139.2492  143.1878 H   0  0  0  0  0  0  0  0  0  0  0  0  # atno 7974 bound_to 7965
  155.9028  140.1044  157.1337 H   0  0  0  0  0  0  0  0  0  0  0  0  # atno 8008 bound_to 7997
  154.4028  140.1289  156.4522 H   0  0  0  0  0  0  0  0  0  0  0  0  # atno 8009 bound_to 7997
  155.7402  140.3467  155.5103 H   0  0  0  0  0  0  0  0  0  0  0  0  # atno 8010 bound_to 7997
  139.6236  144.0575  152.1955 H   0  0  0  0  0  0  0  0  0  0  0  0  # atno 10167 bound_to 10162
  157.2240  131.0724  151.1895 H   0  0  0  0  0  0  0  0  0  0  0  0  # atno 10718 bound_to 10713
  153.0114  135.6330  154.1846 H   0  0  0  0  0  0  0  0  0  0  0  0  # atno 10763 bound_to 10752
  154.1588  135.2825  155.3116 H   0  0  0  0  0  0  0  0  0  0  0  0  # atno 10764 bound_to 10752
  154.5997  135.5591  153.7423 H   0  0  0  0  0  0  0  0  0  0  0  0  # atno 10765 bound_to 10752
  139.8867  134.9465  156.6164 H   0  0  0  0  0  0  0  0  0  0  0  0  # atno 11005 bound_to 11000
  146.1059  140.7487  142.9526 LP  0  0  0  0  0  0  0  0  0  0  0  0  # atno 17320 bound_to 7965
  144.7062  140.3861  143.7116 LP  0  0  0  0  0  0  0  0  0  0  0  0  # atno 17321 bound_to 7965
  140.0223  144.6143  150.7556 LP  0  0  0  0  0  0  0  0  0  0  0  0  # atno 17342 bound_to 10162
  140.7397  143.2795  151.3640 LP  0  0  0  0  0  0  0  0  0  0  0  0  # atno 17343 bound_to 10162
  157.3547  130.7100  149.6463 LP  0  0  0  0  0  0  0  0  0  0  0  0  # atno 17370 bound_to 10713
  155.9680  130.4242  150.4599 LP  0  0  0  0  0  0  0  0  0  0  0  0  # atno 17371 bound_to 10713
  140.7772  133.8689  155.8539 LP  0  0  0  0  0  0  0  0  0  0  0  0  # atno 17394 bound_to 11000
  140.9791  134.1429  157.4510 LP  0  0  0  0  0  0  0  0  0  0  0  0  # atno 17395 bound_to 11000

$$$$
