AV-unprocessed.smi:1671|AV-procd|sdf|6698|dock10
  -GOLD-   22720 7433D 1   1.00000     0.00000
 Structure written by MMmdl.
 44 45  0  0  0  0  0  0  0  0  1 V2000
  143.8463  133.4604  151.6408 C   0  0  0  0  0  0  0  0  0  0  0  0
  143.8003  134.9813  152.6275 S   0  0  0  0  0  0  0  0  0  0  0  0
  145.3903  135.7359  152.1731 C   0  0  1  0  0  0  0  0  0  0  0  0
  145.5500  135.7601  150.6448 C   0  0  0  0  0  0  0  0  0  0  0  0
  145.5474  137.1409  152.7672 C   0  0  0  0  0  0  0  0  0  0  0  0
  144.6329  137.6478  153.4177 O   0  0  0  0  0  0  0  0  0  0  0  0
  146.7164  137.7601  152.5391 N   0  0  0  0  0  0  0  0  0  0  0  0
  147.0605  139.0967  153.0134 C   0  0  0  0  0  0  0  0  0  0  0  0
  148.1134  139.1239  154.1129 C   0  0  0  0  0  0  0  0  0  0  0  0
  148.0071  138.3326  155.2761 C   0  0  0  0  0  0  0  0  0  0  0  0
  149.0184  138.4121  156.2521 C   0  0  0  0  0  0  0  0  0  0  0  0
  150.1132  139.2845  156.0440 C   0  0  0  0  0  0  0  0  0  0  0  0
  151.1420  139.3751  157.0069 N   0  0  0  0  0  0  0  0  0  0  0  0
  152.2967  138.5095  156.7815 C   0  0  0  0  0  0  0  0  0  0  0  0
  153.1874  138.4697  158.0344 C   0  0  0  0  0  0  0  0  0  0  0  0
  153.5515  139.7941  158.4094 O   0  0  0  0  0  0  0  0  0  0  0  0
  152.4165  140.5911  158.7353 C   0  0  1  0  0  0  0  0  0  0  0  0
  152.9105  141.9611  159.2115 C   0  0  0  0  0  0  0  0  0  0  0  0
  151.5051  140.7031  157.4984 C   0  0  0  0  0  0  0  0  0  0  0  0
  150.2030  140.0551  154.9318 N   0  0  0  0  0  0  0  0  0  0  0  0
  149.2320  139.9733  153.9982 C   0  0  0  0  0  0  0  0  0  0  0  0
  142.9192  132.9027  151.7716 H   0  0  0  0  0  0  0  0  0  0  0  0
  144.6746  132.8233  151.9501 H   0  0  0  0  0  0  0  0  0  0  0  0
  143.9615  133.6949  150.5826 H   0  0  0  0  0  0  0  0  0  0  0  0
  146.1779  135.0959  152.5741 H   0  0  0  0  0  0  0  0  0  0  0  0
  146.4935  136.2219  150.3512 H   0  0  0  0  0  0  0  0  0  0  0  0
  144.7425  136.3146  150.1649 H   0  0  0  0  0  0  0  0  0  0  0  0
  145.5413  134.7486  150.2380 H   0  0  0  0  0  0  0  0  0  0  0  0
  147.4162  137.2719  151.9992 H   0  0  0  0  0  0  0  0  0  0  0  0
  147.3900  139.7091  152.1722 H   0  0  0  0  0  0  0  0  0  0  0  0
  146.1541  139.5648  153.3973 H   0  0  0  0  0  0  0  0  0  0  0  0
  147.1649  137.6736  155.4280 H   0  0  0  0  0  0  0  0  0  0  0  0
  148.9354  137.8169  157.1493 H   0  0  0  0  0  0  0  0  0  0  0  0
  151.9991  137.4933  156.5268 H   0  0  0  0  0  0  0  0  0  0  0  0
  152.8640  138.8957  155.9336 H   0  0  0  0  0  0  0  0  0  0  0  0
  152.6751  137.9733  158.8602 H   0  0  0  0  0  0  0  0  0  0  0  0
  154.0927  137.8974  157.8322 H   0  0  0  0  0  0  0  0  0  0  0  0
  151.8692  140.1170  159.5523 H   0  0  0  0  0  0  0  0  0  0  0  0
  152.0750  142.6077  159.4810 H   0  0  0  0  0  0  0  0  0  0  0  0
  153.4863  142.4649  158.4348 H   0  0  0  0  0  0  0  0  0  0  0  0
  153.5501  141.8614  160.0887 H   0  0  0  0  0  0  0  0  0  0  0  0
  152.0128  141.2535  156.7048 H   0  0  0  0  0  0  0  0  0  0  0  0
  150.6073  141.2640  157.7616 H   0  0  0  0  0  0  0  0  0  0  0  0
  149.3541  140.6069  153.1319 H   0  0  0  0  0  0  0  0  0  0  0  0
  1  2  1  0  0  0  0
  1 22  1  0  0  0  0
  1 23  1  0  0  0  0
  1 24  1  0  0  0  0
  2  3  1  0  0  0  0
  3  4  1  0  0  0  0
  3  5  1  0  0  0  0
  3 25  1  0  0  0  0
  4 26  1  0  0  0  0
  4 27  1  0  0  0  0
  4 28  1  0  0  0  0
  5  6  2  0  0  0  0
  5  7  1  0  0  0  0
  7  8  1  0  0  0  0
  7 29  1  0  0  0  0
  8  9  1  0  0  0  0
  8 30  1  0  0  0  0
  8 31  1  0  0  0  0
  9 21  1  0  0  0  0
  9 10  2  0  0  0  0
 10 11  1  0  0  0  0
 10 32  1  0  0  0  0
 11 12  2  0  0  0  0
 11 33  1  0  0  0  0
 12 13  1  0  0  0  0
 12 20  1  0  0  0  0
 13 19  1  0  0  0  0
 13 14  1  0  0  0  0
 14 15  1  0  0  0  0
 14 34  1  0  0  0  0
 14 35  1  0  0  0  0
 15 16  1  0  0  0  0
 15 36  1  0  0  0  0
 15 37  1  0  0  0  0
 16 17  1  0  0  0  0
 17 18  1  0  0  0  0
 17 19  1  0  0  0  0
 17 38  1  0  0  0  0
 18 39  1  0  0  0  0
 18 40  1  0  0  0  0
 18 41  1  0  0  0  0
 19 42  1  0  0  0  0
 19 43  1  0  0  0  0
 20 21  2  0  0  0  0
 21 44  1  0  0  0  0
M  END
> <s_m_source_file>
AV-unprocessed.smi

> <i_m_source_file_index>
1671

> <i_lp_mmshare_version>
43012

> <i_f3d_flags>
0

> <s_epik_input>
W0NIM11TW0NASF0oW0NIM10pQyg9TylbTkhdW0NIMl1jMVtjSF1bY0hdYyhuW2NIXTEpTjJbQ0gyXVtDSDJdT1tDQEBIXShbQ0gzXSlbQ0gyXTI=

> <s_epik_cmdline>
J2VwaWtfcHl0aG9uJywgJy1waCcsICc3LjAnLCAnLXRuJywgJzgnLCAnLW1hJywgJzIwMCcsICctbWV0YWxfYmluZGluZycsICctaW1hZScsICc8aW5maWxlLm1hZT4nLCAnLW9tYWUnLCAnPG91dGZpbGUubWFlPic=

> <r_lp_tautomer_probability>
1

> <r_epik_Ionization_Penalty>
0.00480033

> <r_epik_Ionization_Penalty_Charging>
0

> <r_epik_Ionization_Penalty_Neutral>
0.00480033

> <r_epik_State_Penalty>
0.00347981

> <r_epik_Charging_Adjusted_Penalty>
0.00347981

> <i_epik_Tot_Q>
0

> <i_epik_Tot_abs_Q>
0

> <r_epik_Metal_State_Penalty>
-0

> <b_epik_Metal_Only>
0

> <s_lp_Force_Field>
OPLS_2005

> <r_lp_Energy>
15.4739

> <b_lp_Chiralities_Consistent>
1

> <s_lp_Variant>
AV-unprocessed.smi:1671-2

> <Gold.Version>
5.8.1

> <Gold.Id.Protein>
6NUR|6NUR_protein|mol2

> <Gold.PLP.Fitness>
36.3386

> <Gold.PLP.PLP>
-26.9588

> <Gold.PLP.part.hbond>
-2.6293

> <Gold.PLP.part.metal>
0.0000

> <Gold.PLP.part.buried>
-2.3032

> <Gold.PLP.part.nonpolar>
-23.2686

> <Gold.PLP.part.repulsive>
0.7560

> <Gold.PLP.ligand.clash>
0.0000

> <Gold.PLP.ligand.torsion>
0.6020

> <Gold.PLP.Chemscore.Hbond>
2.4119

> <Gold.PLP.Chemscore.CHOScore>
0.9966

> <Gold.PLP.Chemscore.Metal>
0.0000

> <Gold.Chemscore.Hbonds>
donor molecule, donor type, donor heavy atom, donor atom, acceptor molecule, acceptor atom, score
      L1  H     7    29       P1  7948  1.00
      P1  H  7989  7998       L1    20  0.38
      P1  H  7997  8008       L1    16  0.90
      L1  C    21    44       P1  7957  0.97

> <Gold.PLP.Chemscore.Internal.Correction>
0.3584

> <Gold.Rescore>
     Score         DG    S(hbond)    S(metal)    S(lipo)     H(rot)  DE(clash)    DE(int)     intcor
     14.79     -15.52       1.79        0.00      70.23       1.63       0.16       0.57       ----

> <Gold.Chemscore.Fitness>
14.7945

> <Gold.Chemscore.DG>
-15.5234

> <Gold.Chemscore.ZeroCoef>
-5.4800

> <Gold.Chemscore.Hbond>
1.7940

> <Gold.Chemscore.Metal>
0.0000

> <Gold.Chemscore.Lipo>
70.2313

> <Gold.Chemscore.Internal_Hbond>
0.0000

> <Gold.Chemscore.DEClash>
0.1596

> <Gold.Chemscore.DEInternal>
0.5694

> <Gold.Chemscore.Rot>
1.6272

> <Gold.Chemscore.Internal.Correction>
   9.000000E+99

> <Gold.Chemscore.Hbonds>
donor molecule, donor type, donor heavy atom, donor atom, acceptor molecule, acceptor atom, score
      L1  H     7    29       P1  7948  0.97
      P1  H  7989  7998       L1    20  0.03
      P1  H  7997  8008       L1    16  0.17

> <Gold.Chemscore.Hbond.Weighted>
-5.9921

> <Gold.Chemscore.Metal.Weighted>
-0.0000

> <Gold.Chemscore.Lipo.Weighted>
-8.2171

> <Gold.Chemscore.Internal_Hbond.Weighted>
0.0000

> <Gold.Chemscore.DEClash.Weighted>
0.1596

> <Gold.Chemscore.DEInternal.Weighted>
0.5694

> <Gold.Chemscore.Rot.Weighted>
4.1657

> <Gold.Chemscore.Internal.Correction.Weighted>
   9.000000E+99

> <Gold.Protein.RotatedTorsions>
[ 6907 6896 6895 6894 ] final  -95.09 input  -60.11 | X-H torsion
[ 7974 7965 7964 7962 ] final  -93.85 input  175.53 | X-H torsion
[ 8008 7997 7996 7995 ] final -105.54 input   59.86 | X-H torsion
[ 10167 10162 10161 10158 ] final  103.22 input  -65.29 | X-H torsion
[ 10718 10713 10712 10709 ] final   78.98 input   66.30 | X-H torsion
[ 10763 10752 10751 10750 ] final -136.01 input  -60.55 | X-H torsion
[ 11005 11000 10999 10996 ] final  175.84 input  -57.11 | X-H torsion

> <Gold.Protein.ActiveResidues>
 VAL166  LYS551  ARG553  GLY616  TRP617  ASP618  TYR619  PRO620  LYS621  CYS622 
 ASP623  PHE694  ASN695  SER759  ASP760  ASP761  ALA762  ILE779  LEU786  VAL792 
 PHE793  MET794  SER795  GLU796  ALA797  LYS798  CYS799  TRP800  GLU811  SER814 

> <Gold.Protein.RotatedAtoms>
  150.6956  134.1711  159.4212 H   0  0  0  0  0  0  0  0  0  0  0  0  # atno 6907 bound_to 6896
  151.9689  135.0084  160.0561 H   0  0  0  0  0  0  0  0  0  0  0  0  # atno 6908 bound_to 6896
  152.1859  133.4704  159.5019 H   0  0  0  0  0  0  0  0  0  0  0  0  # atno 6909 bound_to 6896
  145.3810  140.9517  143.2394 H   0  0  0  0  0  0  0  0  0  0  0  0  # atno 7974 bound_to 7965
  154.9014  140.0412  157.1895 H   0  0  0  0  0  0  0  0  0  0  0  0  # atno 8008 bound_to 7997
  154.8440  140.2919  155.5620 H   0  0  0  0  0  0  0  0  0  0  0  0  # atno 8009 bound_to 7997
  156.2993  140.2477  156.3387 H   0  0  0  0  0  0  0  0  0  0  0  0  # atno 8010 bound_to 7997
  139.7282  144.7042  151.0764 H   0  0  0  0  0  0  0  0  0  0  0  0  # atno 10167 bound_to 10162
  157.6762  130.9893  150.1866 H   0  0  0  0  0  0  0  0  0  0  0  0  # atno 10718 bound_to 10713
  154.8692  135.3685  154.4992 H   0  0  0  0  0  0  0  0  0  0  0  0  # atno 10763 bound_to 10752
  153.5634  135.7022  153.5542 H   0  0  0  0  0  0  0  0  0  0  0  0  # atno 10764 bound_to 10752
  153.3607  135.4047  155.1680 H   0  0  0  0  0  0  0  0  0  0  0  0  # atno 10765 bound_to 10752
  140.3666  134.7066  157.4366 H   0  0  0  0  0  0  0  0  0  0  0  0  # atno 11005 bound_to 11000
  144.8507  139.5326  143.6857 LP  0  0  0  0  0  0  0  0  0  0  0  0  # atno 17320 bound_to 7965
  146.2842  139.6958  142.9207 LP  0  0  0  0  0  0  0  0  0  0  0  0  # atno 17321 bound_to 7965
  140.7766  143.5078  150.9691 LP  0  0  0  0  0  0  0  0  0  0  0  0  # atno 17342 bound_to 10162
  139.8766  143.7125  152.3161 LP  0  0  0  0  0  0  0  0  0  0  0  0  # atno 17343 bound_to 10162
  156.2587  130.3708  149.8154 LP  0  0  0  0  0  0  0  0  0  0  0  0  # atno 17370 bound_to 10713
  156.5905  130.8504  151.3407 LP  0  0  0  0  0  0  0  0  0  0  0  0  # atno 17371 bound_to 10713
  140.0584  134.6030  155.8777 LP  0  0  0  0  0  0  0  0  0  0  0  0  # atno 17394 bound_to 11000
  141.1967  133.6593  156.5707 LP  0  0  0  0  0  0  0  0  0  0  0  0  # atno 17395 bound_to 11000

$$$$
