AV-unprocessed.smi:601|AV-procd|sdf|3034|dock6
  -GOLD-   2262023553D 1   1.00000     0.00000
 Structure written by MMmdl.
 49 50  0  0  0  0  0  0  0  0  2 V2000
  149.5241  139.0844  154.0954 C   0  0  0  0  0  0  0  0  0  0  0  0
  150.5707  138.3307  154.9269 C   0  0  0  0  0  0  0  0  0  0  0  0
  151.0091  139.0799  156.1953 C   0  0  0  0  0  0  0  0  0  0  0  0
  152.1616  138.3911  156.9511 C   0  0  0  0  0  0  0  0  0  0  0  0
  151.8436  138.1808  158.3720 N   0  0  0  0  0  0  0  0  0  0  0  0
  150.8889  137.2890  158.7512 C   0  0  0  0  0  0  0  0  0  0  0  0
  150.6461  137.0665  159.9391 O   0  0  0  0  0  0  0  0  0  0  0  0
  150.0996  136.5175  157.6700 C   0  0  1  0  0  0  0  0  0  0  0  0
  150.9336  135.6651  156.6995 C   0  0  0  0  0  0  0  0  0  0  0  0
  150.0267  134.4841  156.3738 C   0  0  0  0  0  0  0  0  0  0  0  0
  148.7992  134.6932  157.2609 C   0  0  0  0  0  0  0  0  0  0  0  0
  149.2643  135.5507  158.2883 O   0  0  0  0  0  0  0  0  0  0  0  0
  152.6118  138.9039  159.3043 C   0  0  0  0  0  0  0  0  0  0  0  0
  152.6503  140.2631  159.3218 C   0  0  0  0  0  0  0  0  0  0  0  0
  151.9306  141.0086  158.3986 N   0  0  0  0  0  0  0  0  0  0  0  0
  153.4363  140.9394  160.2935 N   0  0  0  0  0  0  0  0  0  0  0  0
  153.4460  142.4205  160.2985 C   0  0  0  0  0  0  0  0  0  0  0  0
  152.1572  143.0309  160.8891 C   0  0  0  0  0  0  0  0  0  0  0  0
  151.9553  144.5176  160.5669 C   0  0  0  0  0  0  0  0  0  0  0  0
  154.1671  140.2352  161.2131 C   0  0  0  0  0  0  0  0  0  0  0  0
  154.8476  140.8440  162.0398 O   0  0  0  0  0  0  0  0  0  0  0  0
  154.1280  138.8724  161.1886 N   0  5  0  0  0  0  0  0  0  0  0  0
  153.3979  138.1577  160.2928 C   0  0  0  0  0  0  0  0  0  0  0  0
  153.3828  136.9265  160.2926 O   0  0  0  0  0  0  0  0  0  0  0  0
  149.2003  138.4830  153.2458 H   0  0  0  0  0  0  0  0  0  0  0  0
  149.9211  140.0197  153.7011 H   0  0  0  0  0  0  0  0  0  0  0  0
  148.6414  139.3180  154.6917 H   0  0  0  0  0  0  0  0  0  0  0  0
  150.1502  137.3678  155.2186 H   0  0  0  0  0  0  0  0  0  0  0  0
  151.4412  138.1055  154.3097 H   0  0  0  0  0  0  0  0  0  0  0  0
  151.2929  140.0989  155.9319 H   0  0  0  0  0  0  0  0  0  0  0  0
  150.1472  139.1676  156.8576 H   0  0  0  0  0  0  0  0  0  0  0  0
  152.4107  137.4404  156.4764 H   0  0  0  0  0  0  0  0  0  0  0  0
  153.0645  138.9970  156.8686 H   0  0  0  0  0  0  0  0  0  0  0  0
  149.4831  137.2049  157.0890 H   0  0  0  0  0  0  0  0  0  0  0  0
  151.2078  136.2275  155.8066 H   0  0  0  0  0  0  0  0  0  0  0  0
  151.8532  135.2920  157.1517 H   0  0  0  0  0  0  0  0  0  0  0  0
  149.7537  134.4489  155.3188 H   0  0  0  0  0  0  0  0  0  0  0  0
  150.5266  133.5472  156.6227 H   0  0  0  0  0  0  0  0  0  0  0  0
  148.0002  135.1921  156.7096 H   0  0  0  0  0  0  0  0  0  0  0  0
  148.4064  133.7601  157.6650 H   0  0  0  0  0  0  0  0  0  0  0  0
  151.3604  140.5688  157.6907 H   0  0  0  0  0  0  0  0  0  0  0  0
  152.0656  142.0055  158.3082 H   0  0  0  0  0  0  0  0  0  0  0  0
  154.3089  142.7805  160.8592 H   0  0  0  0  0  0  0  0  0  0  0  0
  153.6097  142.8312  159.3013 H   0  0  0  0  0  0  0  0  0  0  0  0
  151.2861  142.4714  160.5485 H   0  0  0  0  0  0  0  0  0  0  0  0
  152.1830  142.9108  161.9723 H   0  0  0  0  0  0  0  0  0  0  0  0
  151.0674  144.9047  161.0666 H   0  0  0  0  0  0  0  0  0  0  0  0
  151.8258  144.6802  159.4968 H   0  0  0  0  0  0  0  0  0  0  0  0
  152.8085  145.1108  160.8968 H   0  0  0  0  0  0  0  0  0  0  0  0
  1  2  1  0  0  0  0
  1 25  1  0  0  0  0
  1 26  1  0  0  0  0
  1 27  1  0  0  0  0
  2  3  1  0  0  0  0
  2 28  1  0  0  0  0
  2 29  1  0  0  0  0
  3  4  1  0  0  0  0
  3 30  1  0  0  0  0
  3 31  1  0  0  0  0
  4  5  1  0  0  0  0
  4 32  1  0  0  0  0
  4 33  1  0  0  0  0
  5  6  1  0  0  0  0
  5 13  1  0  0  0  0
  6  7  2  0  0  0  0
  6  8  1  0  0  0  0
  8 12  1  0  0  0  0
  8  9  1  0  0  0  0
  8 34  1  0  0  0  0
  9 10  1  0  0  0  0
  9 35  1  0  0  0  0
  9 36  1  0  0  0  0
 10 11  1  0  0  0  0
 10 37  1  0  0  0  0
 10 38  1  0  0  0  0
 11 12  1  0  0  0  0
 11 39  1  0  0  0  0
 11 40  1  0  0  0  0
 13 23  1  0  0  0  0
 13 14  2  0  0  0  0
 14 15  1  0  0  0  0
 14 16  1  0  0  0  0
 15 41  1  0  0  0  0
 15 42  1  0  0  0  0
 16 17  1  0  0  0  0
 16 20  1  0  0  0  0
 17 18  1  0  0  0  0
 17 43  1  0  0  0  0
 17 44  1  0  0  0  0
 18 19  1  0  0  0  0
 18 45  1  0  0  0  0
 18 46  1  0  0  0  0
 19 47  1  0  0  0  0
 19 48  1  0  0  0  0
 19 49  1  0  0  0  0
 20 21  2  0  0  0  0
 20 22  1  0  0  0  0
 22 23  1  0  0  0  0
 23 24  2  0  0  0  0
M  CHG  1  22  -1
M  END
> <s_m_source_file>
AV-unprocessed.smi

> <i_m_source_file_index>
601

> <i_lp_mmshare_version>
43012

> <i_f3d_flags>
0

> <s_epik_input>
TzFbQ0gyXVtDSDJdW0NIMl1bQ0BIXTFDKD1PKU4oW0NIMl1bQ0gyXVtDSDJdW0NIM10pYzJjKFtOSDJdKW4oW0NIMl1bQ0gyXVtDSDNdKWMoPU8pW25IXWMyPU8=

> <s_epik_cmdline>
J2VwaWtfcHl0aG9uJywgJy1waCcsICc3LjAnLCAnLXRuJywgJzgnLCAnLW1hJywgJzIwMCcsICctbWV0YWxfYmluZGluZycsICctaW1hZScsICc8aW5maWxlLm1hZT4nLCAnLW9tYWUnLCAnPG91dGZpbGUubWFlPic=

> <r_lp_tautomer_probability>
1

> <r_epik_Ionization_Penalty>
5.90608

> <r_epik_Ionization_Penalty_Charging>
4.55687e-07

> <r_epik_Ionization_Penalty_Neutral>
5.90608

> <r_epik_State_Penalty>
5.90604

> <r_epik_Charging_Adjusted_Penalty>
5.90604

> <i_epik_Tot_Q>
-1

> <i_epik_Tot_abs_Q>
1

> <r_epik_Metal_State_Penalty>
1.84043

> <b_epik_Metal_Only>
1

> <s_lp_Force_Field>
OPLS_2005

> <r_lp_Energy>
54.0415

> <b_lp_Chiralities_Consistent>
1

> <s_lp_Variant>
AV-unprocessed.smi:601-4

> <Gold.Version>
5.8.1

> <Gold.Id.Protein>
6NUR|6NUR_protein|mol2

> <Gold.PLP.Fitness>
39.7486

> <Gold.PLP.PLP>
-37.5227

> <Gold.PLP.part.hbond>
-3.4508

> <Gold.PLP.part.metal>
0.0000

> <Gold.PLP.part.buried>
-5.9563

> <Gold.PLP.part.nonpolar>
-30.3866

> <Gold.PLP.part.repulsive>
0.1011

> <Gold.PLP.ligand.clash>
0.0000

> <Gold.PLP.ligand.torsion>
1.8179

> <Gold.PLP.Chemscore.Hbond>
1.2350

> <Gold.PLP.Chemscore.CHOScore>
0.0000

> <Gold.PLP.Chemscore.Metal>
0.0000

> <Gold.Chemscore.Hbonds>
donor molecule, donor type, donor heavy atom, donor atom, acceptor molecule, acceptor atom, score
      P1  H  6896  6908       L1    12  0.75
      P1  H  6896  6909       L1    24  0.28

> <Gold.PLP.Chemscore.Internal.Correction>
2.1568

> <Gold.Rescore>
     Score         DG    S(hbond)    S(metal)    S(lipo)     H(rot)  DE(clash)    DE(int)     intcor
      9.40     -13.37       1.22        0.00      74.53       1.92       0.36       3.61       ----

> <Gold.Chemscore.Fitness>
9.3963

> <Gold.Chemscore.DG>
-13.3699

> <Gold.Chemscore.ZeroCoef>
-5.4800

> <Gold.Chemscore.Hbond>
1.2233

> <Gold.Chemscore.Metal>
0.0000

> <Gold.Chemscore.Lipo>
74.5269

> <Gold.Chemscore.Internal_Hbond>
0.0000

> <Gold.Chemscore.DEClash>
0.3588

> <Gold.Chemscore.DEInternal>
3.6148

> <Gold.Chemscore.Rot>
1.9201

> <Gold.Chemscore.Internal.Correction>
   9.000000E+99

> <Gold.Chemscore.Hbonds>
donor molecule, donor type, donor heavy atom, donor atom, acceptor molecule, acceptor atom, score
      P1  H  6896  6908       L1    12  0.16
      P1  H  6896  6909       L1    24  0.29

> <Gold.Chemscore.Hbond.Weighted>
-4.0857

> <Gold.Chemscore.Metal.Weighted>
-0.0000

> <Gold.Chemscore.Lipo.Weighted>
-8.7196

> <Gold.Chemscore.Internal_Hbond.Weighted>
0.0000

> <Gold.Chemscore.DEClash.Weighted>
0.3588

> <Gold.Chemscore.DEInternal.Weighted>
3.6148

> <Gold.Chemscore.Rot.Weighted>
4.9154

> <Gold.Chemscore.Internal.Correction.Weighted>
   9.000000E+99

> <Gold.Protein.RotatedTorsions>
[ 6907 6896 6895 6894 ] final  160.14 input  -60.11 | X-H torsion
[ 7974 7965 7964 7962 ] final   15.16 input  175.53 | X-H torsion
[ 8008 7997 7996 7995 ] final   -2.00 input   59.86 | X-H torsion
[ 10167 10162 10161 10158 ] final  139.65 input  -65.29 | X-H torsion
[ 10718 10713 10712 10709 ] final  172.14 input   66.30 | X-H torsion
[ 10763 10752 10751 10750 ] final -113.35 input  -60.55 | X-H torsion
[ 11005 11000 10999 10996 ] final  153.08 input  -57.11 | X-H torsion

> <Gold.Protein.ActiveResidues>
 VAL166  LYS551  ARG553  GLY616  TRP617  ASP618  TYR619  PRO620  LYS621  CYS622 
 ASP623  PHE694  ASN695  SER759  ASP760  ASP761  ALA762  ILE779  LEU786  VAL792 
 PHE793  MET794  SER795  GLU796  ALA797  LYS798  CYS799  TRP800  GLU811  SER814 

> <Gold.Protein.RotatedAtoms>
  151.9751  133.3739  159.4085 H   0  0  0  0  0  0  0  0  0  0  0  0  # atno 6907 bound_to 6896
  150.6943  134.4098  159.5166 H   0  0  0  0  0  0  0  0  0  0  0  0  # atno 6908 bound_to 6896
  152.1808  134.8755  160.0577 H   0  0  0  0  0  0  0  0  0  0  0  0  # atno 6909 bound_to 6896
  146.2286  139.8934  142.8551 H   0  0  0  0  0  0  0  0  0  0  0  0  # atno 7974 bound_to 7965
  154.6406  140.2545  155.7327 H   0  0  0  0  0  0  0  0  0  0  0  0  # atno 8008 bound_to 7997
  156.2527  140.2888  156.0718 H   0  0  0  0  0  0  0  0  0  0  0  0  # atno 8009 bound_to 7997
  155.1603  140.0384  157.2831 H   0  0  0  0  0  0  0  0  0  0  0  0  # atno 8010 bound_to 7997
  139.5072  144.6282  151.5885 H   0  0  0  0  0  0  0  0  0  0  0  0  # atno 10167 bound_to 10162
  156.9832  131.0125  151.2876 H   0  0  0  0  0  0  0  0  0  0  0  0  # atno 10718 bound_to 10713
  154.8392  135.4457  154.1336 H   0  0  0  0  0  0  0  0  0  0  0  0  # atno 10763 bound_to 10752
  153.2540  135.6929  153.7655 H   0  0  0  0  0  0  0  0  0  0  0  0  # atno 10764 bound_to 10752
  153.6956  135.3380  155.3188 H   0  0  0  0  0  0  0  0  0  0  0  0  # atno 10765 bound_to 10752
  140.1366  134.8767  157.2275 H   0  0  0  0  0  0  0  0  0  0  0  0  # atno 11005 bound_to 11000
  145.2395  141.0004  143.3944 LP  0  0  0  0  0  0  0  0  0  0  0  0  # atno 17320 bound_to 7965
  144.9464  139.4131  143.6424 LP  0  0  0  0  0  0  0  0  0  0  0  0  # atno 17321 bound_to 7965
  140.6005  143.9618  150.6383 LP  0  0  0  0  0  0  0  0  0  0  0  0  # atno 17342 bound_to 10162
  140.2828  143.3378  152.1135 LP  0  0  0  0  0  0  0  0  0  0  0  0  # atno 17343 bound_to 10162
  157.5511  130.8183  149.8146 LP  0  0  0  0  0  0  0  0  0  0  0  0  # atno 17370 bound_to 10713
  156.0236  130.3787  150.1889 LP  0  0  0  0  0  0  0  0  0  0  0  0  # atno 17371 bound_to 10713
  140.2775  134.3389  155.7353 LP  0  0  0  0  0  0  0  0  0  0  0  0  # atno 17394 bound_to 11000
  141.2179  133.7459  156.9314 LP  0  0  0  0  0  0  0  0  0  0  0  0  # atno 17395 bound_to 11000

$$$$
