AV-unprocessed.smi:674|AV-procd|sdf|3299|dock4
  -GOLD-   22720 0263D 1   1.00000     0.00000
 Structure written by MMmdl.
 47 48  0  0  0  0  0  0  0  0  1 V2000
  146.0195  129.9490  152.1399 C   0  0  0  0  0  0  0  0  0  0  0  0
  144.9113  130.7338  151.4282 C   0  0  0  0  0  0  0  0  0  0  0  0
  145.1504  132.2165  151.4809 C   0  0  0  0  0  0  0  0  0  0  0  0
  146.1858  132.9119  152.1705 C   0  0  0  0  0  0  0  0  0  0  0  0
  145.9101  134.2222  151.8885 C   0  0  0  0  0  0  0  0  0  0  0  0
  146.5662  135.3389  152.3026 N   0  0  0  0  0  0  0  0  0  0  0  0
  146.0771  136.4085  152.9539 C   0  0  0  0  0  0  0  0  0  0  0  0
  144.9165  136.5400  153.3432 O   0  0  0  0  0  0  0  0  0  0  0  0
  147.0260  137.3356  153.1421 N   0  0  0  0  0  0  0  0  0  0  0  0
  146.8058  138.6096  153.8181 C   0  0  2  0  0  0  0  0  0  0  0  0
  147.1859  139.8120  152.9559 C   0  0  0  0  0  0  0  0  0  0  0  0
  147.7100  140.4731  154.2456 C   0  0  1  0  0  0  0  0  0  0  0  0
  148.9097  141.4257  154.1706 C   0  0  0  0  0  0  0  0  0  0  0  0
  146.6288  141.0828  154.9646 O   0  0  0  0  0  0  0  0  0  0  0  0
  146.1825  142.3568  154.5162 C   0  0  0  0  0  0  0  0  0  0  0  0
  147.9242  139.0286  154.8061 C   0  0  0  0  0  0  0  0  0  0  0  0
  147.6196  138.8174  156.2931 C   0  0  0  0  0  0  0  0  0  0  0  0
  149.3177  138.4138  154.5742 C   0  0  0  0  0  0  0  0  0  0  0  0
  144.7907  134.2780  151.0860 N   0  0  0  0  0  0  0  0  0  0  0  0
  144.0960  135.4220  150.5279 C   0  0  0  0  0  0  0  0  0  0  0  0
  144.3258  133.0353  150.8368 N   0  0  0  0  0  0  0  0  0  0  0  0
  145.8311  128.8767  152.0881 H   0  0  0  0  0  0  0  0  0  0  0  0
  146.0847  130.2247  153.1928 H   0  0  0  0  0  0  0  0  0  0  0  0
  146.9910  130.1395  151.6828 H   0  0  0  0  0  0  0  0  0  0  0  0
  144.8475  130.4059  150.3903 H   0  0  0  0  0  0  0  0  0  0  0  0
  143.9485  130.4933  151.8803 H   0  0  0  0  0  0  0  0  0  0  0  0
  146.9810  132.4986  152.7723 H   0  0  0  0  0  0  0  0  0  0  0  0
  147.5489  135.3689  152.0751 H   0  0  0  0  0  0  0  0  0  0  0  0
  147.9564  137.1527  152.7961 H   0  0  0  0  0  0  0  0  0  0  0  0
  145.8034  138.7195  154.2392 H   0  0  0  0  0  0  0  0  0  0  0  0
  147.9783  139.6018  152.2351 H   0  0  0  0  0  0  0  0  0  0  0  0
  146.3398  140.3003  152.4736 H   0  0  0  0  0  0  0  0  0  0  0  0
  149.7801  140.9475  153.7228 H   0  0  0  0  0  0  0  0  0  0  0  0
  149.2013  141.7730  155.1620 H   0  0  0  0  0  0  0  0  0  0  0  0
  148.6980  142.3013  153.5576 H   0  0  0  0  0  0  0  0  0  0  0  0
  145.2653  142.6169  155.0444 H   0  0  0  0  0  0  0  0  0  0  0  0
  145.9632  142.3705  153.4491 H   0  0  0  0  0  0  0  0  0  0  0  0
  146.9113  143.1371  154.7344 H   0  0  0  0  0  0  0  0  0  0  0  0
  148.2892  139.4034  156.9235 H   0  0  0  0  0  0  0  0  0  0  0  0
  147.7265  137.7707  156.5802 H   0  0  0  0  0  0  0  0  0  0  0  0
  146.5994  139.1068  156.5464 H   0  0  0  0  0  0  0  0  0  0  0  0
  150.0757  138.9000  155.1890 H   0  0  0  0  0  0  0  0  0  0  0  0
  149.6408  138.5024  153.5370 H   0  0  0  0  0  0  0  0  0  0  0  0
  149.3355  137.3521  154.8227 H   0  0  0  0  0  0  0  0  0  0  0  0
  144.7197  136.3143  150.5839 H   0  0  0  0  0  0  0  0  0  0  0  0
  143.1745  135.5965  151.0844 H   0  0  0  0  0  0  0  0  0  0  0  0
  143.8505  135.2332  149.4821 H   0  0  0  0  0  0  0  0  0  0  0  0
  1  2  1  0  0  0  0
  1 22  1  0  0  0  0
  1 23  1  0  0  0  0
  1 24  1  0  0  0  0
  2  3  1  0  0  0  0
  2 25  1  0  0  0  0
  2 26  1  0  0  0  0
  3 21  2  0  0  0  0
  3  4  1  0  0  0  0
  4  5  2  0  0  0  0
  4 27  1  0  0  0  0
  5  6  1  0  0  0  0
  5 19  1  0  0  0  0
  6  7  1  0  0  0  0
  6 28  1  0  0  0  0
  7  8  2  0  0  0  0
  7  9  1  0  0  0  0
  9 10  1  0  0  0  0
  9 29  1  0  0  0  0
 10 16  1  0  0  0  0
 10 11  1  0  0  0  0
 10 30  1  0  0  0  0
 11 12  1  0  0  0  0
 11 31  1  0  0  0  0
 11 32  1  0  0  0  0
 12 13  1  0  0  0  0
 12 14  1  0  0  0  0
 12 16  1  0  0  0  0
 13 33  1  0  0  0  0
 13 34  1  0  0  0  0
 13 35  1  0  0  0  0
 14 15  1  0  0  0  0
 15 36  1  0  0  0  0
 15 37  1  0  0  0  0
 15 38  1  0  0  0  0
 16 17  1  0  0  0  0
 16 18  1  0  0  0  0
 17 39  1  0  0  0  0
 17 40  1  0  0  0  0
 17 41  1  0  0  0  0
 18 42  1  0  0  0  0
 18 43  1  0  0  0  0
 18 44  1  0  0  0  0
 19 20  1  0  0  0  0
 19 21  1  0  0  0  0
 20 45  1  0  0  0  0
 20 46  1  0  0  0  0
 20 47  1  0  0  0  0
M  END
> <s_m_source_file>
AV-unprocessed.smi

> <i_m_source_file_index>
674

> <i_lp_mmshare_version>
43012

> <i_f3d_flags>
0

> <s_epik_input>
W0NIM11bQ0gyXWMxW2NIXWMobihuMSlbQ0gzXSlbTkhdQyg9TylbTkhdW0NAQEhdKEMyKFtDSDNdKVtDSDNdKVtDSDJdW0NAQF0yKFtDSDNdKU9bQ0gzXQ==

> <s_epik_cmdline>
J2VwaWtfcHl0aG9uJywgJy1waCcsICc3LjAnLCAnLXRuJywgJzgnLCAnLW1hJywgJzIwMCcsICctbWV0YWxfYmluZGluZycsICctaW1hZScsICc8aW5maWxlLm1hZT4nLCAnLW9tYWUnLCAnPG91dGZpbGUubWFlPic=

> <r_lp_tautomer_probability>
1

> <r_epik_Ionization_Penalty>
0.000101626

> <r_epik_Ionization_Penalty_Charging>
0

> <r_epik_Ionization_Penalty_Neutral>
0.000101626

> <r_epik_State_Penalty>
-0

> <r_epik_Charging_Adjusted_Penalty>
0

> <i_epik_Tot_Q>
0

> <i_epik_Tot_abs_Q>
0

> <r_epik_Metal_State_Penalty>
-0

> <b_epik_Metal_Only>
0

> <s_lp_Force_Field>
OPLS_2005

> <r_lp_Energy>
22.7412

> <b_lp_Chiralities_Consistent>
1

> <s_lp_Variant>
AV-unprocessed.smi:674-1

> <Gold.Version>
5.8.1

> <Gold.Id.Protein>
6NUR|6NUR_protein|mol2

> <Gold.PLP.Fitness>
36.3860

> <Gold.PLP.PLP>
-31.5440

> <Gold.PLP.part.hbond>
-2.0000

> <Gold.PLP.part.metal>
0.0000

> <Gold.PLP.part.buried>
-2.6067

> <Gold.PLP.part.nonpolar>
-27.9929

> <Gold.PLP.part.repulsive>
0.4311

> <Gold.PLP.ligand.clash>
0.0000

> <Gold.PLP.ligand.torsion>
0.7615

> <Gold.PLP.Chemscore.Hbond>
1.9920

> <Gold.PLP.Chemscore.CHOScore>
0.0000

> <Gold.PLP.Chemscore.Metal>
0.0000

> <Gold.Chemscore.Hbonds>
donor molecule, donor type, donor heavy atom, donor atom, acceptor molecule, acceptor atom, score
      L1  H     6    28       P1  7948  1.00
      L1  H     9    29       P1  7948  0.98

> <Gold.PLP.Chemscore.Internal.Correction>
0.3890

> <Gold.Rescore>
     Score         DG    S(hbond)    S(metal)    S(lipo)     H(rot)  DE(clash)    DE(int)     intcor
     16.63     -17.51       1.94        0.00      77.19       1.37       0.05       0.82       ----

> <Gold.Chemscore.Fitness>
16.6327

> <Gold.Chemscore.DG>
-17.5053

> <Gold.Chemscore.ZeroCoef>
-5.4800

> <Gold.Chemscore.Hbond>
1.9433

> <Gold.Chemscore.Metal>
0.0000

> <Gold.Chemscore.Lipo>
77.1877

> <Gold.Chemscore.Internal_Hbond>
0.0000

> <Gold.Chemscore.DEClash>
0.0480

> <Gold.Chemscore.DEInternal>
0.8247

> <Gold.Chemscore.Rot>
1.3658

> <Gold.Chemscore.Internal.Correction>
   9.000000E+99

> <Gold.Chemscore.Hbonds>
donor molecule, donor type, donor heavy atom, donor atom, acceptor molecule, acceptor atom, score
      L1  H     6    28       P1  7948  0.95
      L1  H     9    29       P1  7948  0.93

> <Gold.Chemscore.Hbond.Weighted>
-6.4907

> <Gold.Chemscore.Metal.Weighted>
-0.0000

> <Gold.Chemscore.Lipo.Weighted>
-9.0310

> <Gold.Chemscore.Internal_Hbond.Weighted>
0.0000

> <Gold.Chemscore.DEClash.Weighted>
0.0480

> <Gold.Chemscore.DEInternal.Weighted>
0.8247

> <Gold.Chemscore.Rot.Weighted>
3.4963

> <Gold.Chemscore.Internal.Correction.Weighted>
   9.000000E+99

> <Gold.Protein.RotatedTorsions>
[ 6907 6896 6895 6894 ] final  -18.63 input  -60.11 | X-H torsion
[ 7974 7965 7964 7962 ] final   35.49 input  175.53 | X-H torsion
[ 8008 7997 7996 7995 ] final   88.63 input   59.86 | X-H torsion
[ 10167 10162 10161 10158 ] final -139.12 input  -65.29 | X-H torsion
[ 10718 10713 10712 10709 ] final -104.11 input   66.30 | X-H torsion
[ 10763 10752 10751 10750 ] final  137.75 input  -60.55 | X-H torsion
[ 11005 11000 10999 10996 ] final  137.11 input  -57.11 | X-H torsion

> <Gold.Protein.ActiveResidues>
 VAL166  LYS551  ARG553  GLY616  TRP617  ASP618  TYR619  PRO620  LYS621  CYS622 
 ASP623  PHE694  ASN695  SER759  ASP760  ASP761  ALA762  ILE779  LEU786  VAL792 
 PHE793  MET794  SER795  GLU796  ALA797  LYS798  CYS799  TRP800  GLU811  SER814 

> <Gold.Protein.RotatedAtoms>
  151.2753  135.0697  159.9148 H   0  0  0  0  0  0  0  0  0  0  0  0  # atno 6907 bound_to 6896
  152.5343  134.0088  159.7939 H   0  0  0  0  0  0  0  0  0  0  0  0  # atno 6908 bound_to 6896
  151.0332  133.5721  159.2689 H   0  0  0  0  0  0  0  0  0  0  0  0  # atno 6909 bound_to 6896
  146.1279  139.6136  142.9246 H   0  0  0  0  0  0  0  0  0  0  0  0  # atno 7974 bound_to 7965
  155.9901  140.3369  155.6744 H   0  0  0  0  0  0  0  0  0  0  0  0  # atno 8008 bound_to 7997
  155.6433  140.0697  157.2629 H   0  0  0  0  0  0  0  0  0  0  0  0  # atno 8009 bound_to 7997
  154.4217  140.1739  156.1583 H   0  0  0  0  0  0  0  0  0  0  0  0  # atno 8010 bound_to 7997
  139.8411  143.7321  152.2663 H   0  0  0  0  0  0  0  0  0  0  0  0  # atno 10167 bound_to 10162
  156.0291  130.5499  150.7349 H   0  0  0  0  0  0  0  0  0  0  0  0  # atno 10718 bound_to 10713
  153.8783  135.3047  155.3444 H   0  0  0  0  0  0  0  0  0  0  0  0  # atno 10763 bound_to 10752
  154.7773  135.4854  153.9775 H   0  0  0  0  0  0  0  0  0  0  0  0  # atno 10764 bound_to 10752
  153.1366  135.6815  153.9190 H   0  0  0  0  0  0  0  0  0  0  0  0  # atno 10765 bound_to 10752
  140.0092  134.9446  157.0241 H   0  0  0  0  0  0  0  0  0  0  0  0  # atno 11005 bound_to 11000
  145.5325  141.0426  143.2375 LP  0  0  0  0  0  0  0  0  0  0  0  0  # atno 17320 bound_to 7965
  144.7661  139.6842  143.7214 LP  0  0  0  0  0  0  0  0  0  0  0  0  # atno 17321 bound_to 7965
  139.7558  144.7521  151.0437 LP  0  0  0  0  0  0  0  0  0  0  0  0  # atno 17342 bound_to 10162
  140.7798  143.4807  151.0022 LP  0  0  0  0  0  0  0  0  0  0  0  0  # atno 17343 bound_to 10162
  157.4933  131.0912  151.0402 LP  0  0  0  0  0  0  0  0  0  0  0  0  # atno 17370 bound_to 10713
  157.0803  130.5900  149.5419 LP  0  0  0  0  0  0  0  0  0  0  0  0  # atno 17371 bound_to 10713
  140.4585  134.1508  155.7189 LP  0  0  0  0  0  0  0  0  0  0  0  0  # atno 17394 bound_to 11000
  141.1699  133.8630  157.1603 LP  0  0  0  0  0  0  0  0  0  0  0  0  # atno 17395 bound_to 11000

$$$$
