AV-unprocessed.smi:3245|AV-procd|sdf|12409|dock7
  -GOLD-   2272018293D 1   1.00000     0.00000
 Structure written by MMmdl.
 34 35  0  0  0  0  0  0  0  0  2 V2000
  147.3518  140.4011  154.2711 C   0  0  0  0  0  0  0  0  0  0  0  0
  147.5726  139.1217  153.4386 C   0  0  1  0  0  0  0  0  0  0  0  0
  146.8344  139.1581  152.0843 C   0  0  0  0  0  0  0  0  0  0  0  0
  146.1799  137.9032  151.7601 N   0  0  0  0  0  0  0  0  0  0  0  0
  145.1898  137.2474  152.4614 C   0  0  0  0  0  0  0  0  0  0  0  0
  144.8852  136.1112  151.7680 C   0  0  0  0  0  0  0  0  0  0  0  0
  145.7489  136.1631  150.6382 C   0  0  0  0  0  0  0  0  0  0  0  0
  146.5202  137.2384  150.6344 N   0  0  0  0  0  0  0  0  0  0  0  0
  148.9906  138.9383  153.1546 N   0  0  0  0  0  0  0  0  0  0  0  0
  149.8274  139.1625  154.3255 C   0  0  0  0  0  0  0  0  0  0  0  0
  150.8640  138.0329  154.4636 C   0  0  0  0  0  0  0  0  0  0  0  0
  151.6373  138.1385  155.7076 N   0  0  0  0  0  0  0  0  0  0  0  0
  151.9750  137.0937  156.4700 C   0  0  0  0  0  0  0  0  0  0  0  0
  151.7193  135.9044  156.2798 O   0  0  0  0  0  0  0  0  0  0  0  0
  152.7503  137.6237  157.6534 C   0  0  0  0  0  0  0  0  0  0  0  0
  152.7625  139.0469  157.4023 N   0  5  0  0  0  0  0  0  0  0  0  0
  152.0914  139.2850  156.2508 C   0  0  0  0  0  0  0  0  0  0  0  0
  151.8959  140.3829  155.7299 O   0  0  0  0  0  0  0  0  0  0  0  0
  146.2945  140.5576  154.4849 H   0  0  0  0  0  0  0  0  0  0  0  0
  147.7161  141.2828  153.7429 H   0  0  0  0  0  0  0  0  0  0  0  0
  147.8599  140.3573  155.2336 H   0  0  0  0  0  0  0  0  0  0  0  0
  147.2096  138.2590  153.9991 H   0  0  0  0  0  0  0  0  0  0  0  0
  146.0790  139.9459  152.0863 H   0  0  0  0  0  0  0  0  0  0  0  0
  147.5301  139.3962  151.2781 H   0  0  0  0  0  0  0  0  0  0  0  0
  144.7917  137.6383  153.3863 H   0  0  0  0  0  0  0  0  0  0  0  0
  144.1560  135.3583  152.0275 H   0  0  0  0  0  0  0  0  0  0  0  0
  145.8366  135.4569  149.8257 H   0  0  0  0  0  0  0  0  0  0  0  0
  149.1490  137.9994  152.8174 H   0  0  0  0  0  0  0  0  0  0  0  0
  150.3286  140.1284  154.2730 H   0  0  0  0  0  0  0  0  0  0  0  0
  149.1932  139.1774  155.2125 H   0  0  0  0  0  0  0  0  0  0  0  0
  150.3451  137.0731  154.4578 H   0  0  0  0  0  0  0  0  0  0  0  0
  151.5202  138.0085  153.5919 H   0  0  0  0  0  0  0  0  0  0  0  0
  152.2428  137.3543  158.5802 H   0  0  0  0  0  0  0  0  0  0  0  0
  153.7467  137.1810  157.6728 H   0  0  0  0  0  0  0  0  0  0  0  0
  1  2  1  0  0  0  0
  1 19  1  0  0  0  0
  1 20  1  0  0  0  0
  1 21  1  0  0  0  0
  2  3  1  0  0  0  0
  2  9  1  0  0  0  0
  2 22  1  0  0  0  0
  3  4  1  0  0  0  0
  3 23  1  0  0  0  0
  3 24  1  0  0  0  0
  4  8  1  0  0  0  0
  4  5  1  0  0  0  0
  5  6  2  0  0  0  0
  5 25  1  0  0  0  0
  6  7  1  0  0  0  0
  6 26  1  0  0  0  0
  7  8  2  0  0  0  0
  7 27  1  0  0  0  0
  9 10  1  0  0  0  0
  9 28  1  0  0  0  0
 10 11  1  0  0  0  0
 10 29  1  0  0  0  0
 10 30  1  0  0  0  0
 11 12  1  0  0  0  0
 11 31  1  0  0  0  0
 11 32  1  0  0  0  0
 12 17  1  0  0  0  0
 12 13  1  0  0  0  0
 13 14  2  0  0  0  0
 13 15  1  0  0  0  0
 15 16  1  0  0  0  0
 15 33  1  0  0  0  0
 15 34  1  0  0  0  0
 16 17  1  0  0  0  0
 17 18  2  0  0  0  0
M  CHG  1  16  -1
M  END
> <s_m_source_file>
AV-unprocessed.smi

> <i_m_source_file_index>
3245

> <i_lp_mmshare_version>
43012

> <i_f3d_flags>
0

> <s_epik_input>
bjFbY0hdW2NIXVtjSF1uMVtDSDJdW0NAQEhdKFtDSDNdKVtOSF1bQ0gyXVtDSDJdTjJDKD1PKVtDSDJdW05IXUMyPU8=

> <s_epik_cmdline>
J2VwaWtfcHl0aG9uJywgJy1waCcsICc3LjAnLCAnLXRuJywgJzgnLCAnLW1hJywgJzIwMCcsICctbWV0YWxfYmluZGluZycsICctaW1hZScsICc8aW5maWxlLm1hZT4nLCAnLW9tYWUnLCAnPG91dGZpbGUubWFlPic=

> <r_lp_tautomer_probability>
1

> <r_epik_Ionization_Penalty>
8.62027

> <r_epik_Ionization_Penalty_Charging>
6.28132

> <r_epik_Ionization_Penalty_Neutral>
2.33895

> <r_epik_State_Penalty>
8.57043

> <r_epik_Charging_Adjusted_Penalty>
14.8517

> <i_epik_Tot_Q>
-1

> <i_epik_Tot_abs_Q>
1

> <r_epik_Metal_State_Penalty>
4.56785

> <b_epik_Metal_Only>
1

> <s_lp_Force_Field>
OPLS_2005

> <r_lp_Energy>
21.4513

> <b_lp_Chiralities_Consistent>
1

> <s_lp_Variant>
AV-unprocessed.smi:3245-8

> <Gold.Version>
5.8.1

> <Gold.Id.Protein>
6NUR|6NUR_protein|mol2

> <Gold.PLP.Fitness>
46.5675

> <Gold.PLP.PLP>
-29.4985

> <Gold.PLP.part.hbond>
-5.3490

> <Gold.PLP.part.metal>
0.0000

> <Gold.PLP.part.buried>
1.1337

> <Gold.PLP.part.nonpolar>
-26.5896

> <Gold.PLP.part.repulsive>
2.3995

> <Gold.PLP.ligand.clash>
0.0000

> <Gold.PLP.ligand.torsion>
1.3026

> <Gold.PLP.Chemscore.Hbond>
5.5319

> <Gold.PLP.Chemscore.CHOScore>
1.0000

> <Gold.PLP.Chemscore.Metal>
0.0000

> <Gold.Chemscore.Hbonds>
donor molecule, donor type, donor heavy atom, donor atom, acceptor molecule, acceptor atom, score
      L1  H     9    28       P1  7948  1.00
      P1  H  7954  7966       L1     8  0.98
      P1  H  7989  7998       L1    18  0.27
      P1  H  7997  8010       L1    16  1.34
      P1  H 10752 10765       L1    14  0.95
      L1  C     7    27       P1  7921  1.00

> <Gold.PLP.Chemscore.Internal.Correction>
0.0784

> <Gold.Rescore>
     Score         DG    S(hbond)    S(metal)    S(lipo)     H(rot)  DE(clash)    DE(int)     intcor
     13.43     -18.02       3.69        0.00      58.19       2.58       1.95       2.64       ----

> <Gold.Chemscore.Fitness>
13.4256

> <Gold.Chemscore.DG>
-18.0174

> <Gold.Chemscore.ZeroCoef>
-5.4800

> <Gold.Chemscore.Hbond>
3.6936

> <Gold.Chemscore.Metal>
0.0000

> <Gold.Chemscore.Lipo>
58.1906

> <Gold.Chemscore.Internal_Hbond>
0.0000

> <Gold.Chemscore.DEClash>
1.9514

> <Gold.Chemscore.DEInternal>
2.6404

> <Gold.Chemscore.Rot>
2.5811

> <Gold.Chemscore.Internal.Correction>
   9.000000E+99

> <Gold.Chemscore.Hbonds>
donor molecule, donor type, donor heavy atom, donor atom, acceptor molecule, acceptor atom, score
      L1  H     9    28       P1  7948  0.96
      P1  H  7954  7966       L1     8  0.80
      P1  H  7989  7998       L1    18  0.27
      P1  H  7997  8010       L1    16  0.07
      P1  H 10752 10765       L1    14  0.21

> <Gold.Chemscore.Hbond.Weighted>
-12.3366

> <Gold.Chemscore.Metal.Weighted>
-0.0000

> <Gold.Chemscore.Lipo.Weighted>
-6.8083

> <Gold.Chemscore.Internal_Hbond.Weighted>
0.0000

> <Gold.Chemscore.DEClash.Weighted>
1.9514

> <Gold.Chemscore.DEInternal.Weighted>
2.6404

> <Gold.Chemscore.Rot.Weighted>
6.6076

> <Gold.Chemscore.Internal.Correction.Weighted>
   9.000000E+99

> <Gold.Protein.RotatedTorsions>
[ 6907 6896 6895 6894 ] final -139.97 input  -60.11 | X-H torsion
[ 7974 7965 7964 7962 ] final  121.95 input  175.53 | X-H torsion
[ 8008 7997 7996 7995 ] final   49.37 input   59.86 | X-H torsion
[ 10167 10162 10161 10158 ] final -113.90 input  -65.29 | X-H torsion
[ 10718 10713 10712 10709 ] final   12.10 input   66.30 | X-H torsion
[ 10763 10752 10751 10750 ] final -159.55 input  -60.55 | X-H torsion
[ 11005 11000 10999 10996 ] final  -90.77 input  -57.11 | X-H torsion

> <Gold.Protein.ActiveResidues>
 VAL166  LYS551  ARG553  GLY616  TRP617  ASP618  TYR619  PRO620  LYS621  CYS622 
 ASP623  PHE694  ASN695  SER759  ASP760  ASP761  ALA762  ILE779  LEU786  VAL792 
 PHE793  MET794  SER795  GLU796  ALA797  LYS798  CYS799  TRP800  GLU811  SER814 

> <Gold.Protein.RotatedAtoms>
  151.0547  133.5594  159.2639 H   0  0  0  0  0  0  0  0  0  0  0  0  # atno 6907 bound_to 6896
  151.2592  135.0647  159.9101 H   0  0  0  0  0  0  0  0  0  0  0  0  # atno 6908 bound_to 6896
  152.5388  134.0295  159.8072 H   0  0  0  0  0  0  0  0  0  0  0  0  # atno 6909 bound_to 6896
  145.1132  139.3438  143.4752 H   0  0  0  0  0  0  0  0  0  0  0  0  # atno 7974 bound_to 7965
  155.4011  140.3438  155.4257 H   0  0  0  0  0  0  0  0  0  0  0  0  # atno 8008 bound_to 7997
  156.1503  140.1569  156.8812 H   0  0  0  0  0  0  0  0  0  0  0  0  # atno 8009 bound_to 7997
  154.5047  140.0805  156.7850 H   0  0  0  0  0  0  0  0  0  0  0  0  # atno 8010 bound_to 7997
  140.1068  143.4563  152.1778 H   0  0  0  0  0  0  0  0  0  0  0  0  # atno 10167 bound_to 10162
  157.0052  130.6095  149.5701 H   0  0  0  0  0  0  0  0  0  0  0  0  # atno 10718 bound_to 10713
  154.7465  135.3081  154.8635 H   0  0  0  0  0  0  0  0  0  0  0  0  # atno 10763 bound_to 10752
  153.9434  135.6772  153.4748 H   0  0  0  0  0  0  0  0  0  0  0  0  # atno 10764 bound_to 10752
  153.1062  135.4888  154.8881 H   0  0  0  0  0  0  0  0  0  0  0  0  # atno 10765 bound_to 10752
  141.1559  133.7713  156.9785 H   0  0  0  0  0  0  0  0  0  0  0  0  # atno 11005 bound_to 11000
  146.3525  140.1060  142.8606 LP  0  0  0  0  0  0  0  0  0  0  0  0  # atno 17320 bound_to 7965
  145.0823  140.9229  143.4818 LP  0  0  0  0  0  0  0  0  0  0  0  0  # atno 17321 bound_to 7965
  139.5641  144.7424  151.4072 LP  0  0  0  0  0  0  0  0  0  0  0  0  # atno 17342 bound_to 10162
  140.6948  143.7776  150.7309 LP  0  0  0  0  0  0  0  0  0  0  0  0  # atno 17343 bound_to 10162
  156.0156  130.5250  150.8125 LP  0  0  0  0  0  0  0  0  0  0  0  0  # atno 17370 bound_to 10713
  157.5361  131.0939  150.9890 LP  0  0  0  0  0  0  0  0  0  0  0  0  # atno 17371 bound_to 10713
  140.1081  134.9493  157.2025 LP  0  0  0  0  0  0  0  0  0  0  0  0  # atno 17394 bound_to 11000
  140.3229  134.2896  155.7242 LP  0  0  0  0  0  0  0  0  0  0  0  0  # atno 17395 bound_to 11000

$$$$
