AV-unprocessed.smi:1323|AV-procd|sdf|5467|dock3
  -GOLD-   22720 5 33D 1   1.00000     0.00000
 Structure written by MMmdl.
 45 46  0  0  0  0  0  0  0  0  1 V2000
  147.3330  131.6378  154.9466 C   0  0  0  0  0  0  0  0  0  0  0  0
  146.5485  132.5105  153.9558 C   0  0  2  0  0  0  0  0  0  0  0  0
  146.8332  132.1142  152.4932 C   0  0  0  0  0  0  0  0  0  0  0  0
  145.9938  132.9461  151.5111 C   0  0  0  0  0  0  0  0  0  0  0  0
  146.2150  134.4510  151.7242 C   0  0  0  0  0  0  0  0  0  0  0  0
  145.9444  134.8558  153.1836 C   0  0  0  0  0  0  0  0  0  0  0  0
  146.7804  134.0251  154.1746 C   0  0  2  0  0  0  0  0  0  0  0  0
  148.1474  134.3476  153.9521 O   0  0  0  0  0  0  0  0  0  0  0  0
  149.0044  134.1303  155.0616 C   0  0  0  0  0  0  0  0  0  0  0  0
  150.4264  134.5750  154.6902 C   0  0  0  0  0  0  0  0  0  0  0  0
  150.4477  135.9449  154.1863 N   0  0  0  0  0  0  0  0  0  0  0  0
  151.3621  136.8741  154.5058 C   0  0  0  0  0  0  0  0  0  0  0  0
  152.3113  136.6554  155.2597 O   0  0  0  0  0  0  0  0  0  0  0  0
  151.1837  138.2506  153.8496 C   0  0  0  0  0  0  0  0  0  0  0  0
  151.0867  139.3474  154.8273 N   0  0  0  0  0  0  0  0  0  0  0  0
  149.8899  140.0916  154.8373 C   0  0  0  0  0  0  0  0  0  0  0  0
  149.7013  141.1223  155.6762 C   0  0  0  0  0  0  0  0  0  0  0  0
  150.7679  141.4647  156.5872 C   0  0  0  0  0  0  0  0  0  0  0  0
  151.9162  140.7589  156.5867 C   0  0  0  0  0  0  0  0  0  0  0  0
  152.1238  139.6278  155.6754 C   0  0  0  0  0  0  0  0  0  0  0  0
  153.1659  138.9729  155.6772 O   0  0  0  0  0  0  0  0  0  0  0  0
  148.4087  131.7463  154.8092 H   0  0  0  0  0  0  0  0  0  0  0  0
  147.0902  130.5829  154.8160 H   0  0  0  0  0  0  0  0  0  0  0  0
  147.0983  131.9050  155.9770 H   0  0  0  0  0  0  0  0  0  0  0  0
  145.4913  132.3170  154.1431 H   0  0  0  0  0  0  0  0  0  0  0  0
  147.8919  132.2510  152.2711 H   0  0  0  0  0  0  0  0  0  0  0  0
  146.6239  131.0545  152.3444 H   0  0  0  0  0  0  0  0  0  0  0  0
  146.2467  132.6755  150.4857 H   0  0  0  0  0  0  0  0  0  0  0  0
  144.9373  132.7097  151.6422 H   0  0  0  0  0  0  0  0  0  0  0  0
  147.2400  134.7100  151.4552 H   0  0  0  0  0  0  0  0  0  0  0  0
  145.5690  135.0198  151.0552 H   0  0  0  0  0  0  0  0  0  0  0  0
  146.1529  135.9176  153.3193 H   0  0  0  0  0  0  0  0  0  0  0  0
  144.8847  134.7210  153.4037 H   0  0  0  0  0  0  0  0  0  0  0  0
  146.4770  134.2998  155.1870 H   0  0  0  0  0  0  0  0  0  0  0  0
  148.6418  134.7118  155.9101 H   0  0  0  0  0  0  0  0  0  0  0  0
  149.0052  133.0824  155.3638 H   0  0  0  0  0  0  0  0  0  0  0  0
  151.1009  134.4598  155.5403 H   0  0  0  0  0  0  0  0  0  0  0  0
  150.8123  133.9291  153.9015 H   0  0  0  0  0  0  0  0  0  0  0  0
  149.7056  136.2090  153.5546 H   0  0  0  0  0  0  0  0  0  0  0  0
  152.0275  138.4181  153.1788 H   0  0  0  0  0  0  0  0  0  0  0  0
  150.3048  138.2351  153.2021 H   0  0  0  0  0  0  0  0  0  0  0  0
  149.1470  139.7763  154.1189 H   0  0  0  0  0  0  0  0  0  0  0  0
  148.7786  141.6835  155.6664 H   0  0  0  0  0  0  0  0  0  0  0  0
  150.6453  142.2922  157.2704 H   0  0  0  0  0  0  0  0  0  0  0  0
  152.7045  141.0309  157.2734 H   0  0  0  0  0  0  0  0  0  0  0  0
  1  2  1  0  0  0  0
  1 22  1  0  0  0  0
  1 23  1  0  0  0  0
  1 24  1  0  0  0  0
  2  7  1  0  0  0  0
  2  3  1  0  0  0  0
  2 25  1  0  0  0  0
  3  4  1  0  0  0  0
  3 26  1  0  0  0  0
  3 27  1  0  0  0  0
  4  5  1  0  0  0  0
  4 28  1  0  0  0  0
  4 29  1  0  0  0  0
  5  6  1  0  0  0  0
  5 30  1  0  0  0  0
  5 31  1  0  0  0  0
  6  7  1  0  0  0  0
  6 32  1  0  0  0  0
  6 33  1  0  0  0  0
  7  8  1  0  0  0  0
  7 34  1  0  0  0  0
  8  9  1  0  0  0  0
  9 10  1  0  0  0  0
  9 35  1  0  0  0  0
  9 36  1  0  0  0  0
 10 11  1  0  0  0  0
 10 37  1  0  0  0  0
 10 38  1  0  0  0  0
 11 12  1  0  0  0  0
 11 39  1  0  0  0  0
 12 13  2  0  0  0  0
 12 14  1  0  0  0  0
 14 15  1  0  0  0  0
 14 40  1  0  0  0  0
 14 41  1  0  0  0  0
 15 20  1  0  0  0  0
 15 16  1  0  0  0  0
 16 17  2  0  0  0  0
 16 42  1  0  0  0  0
 17 18  1  0  0  0  0
 17 43  1  0  0  0  0
 18 19  2  0  0  0  0
 18 44  1  0  0  0  0
 19 20  1  0  0  0  0
 19 45  1  0  0  0  0
 20 21  2  0  0  0  0
M  END
> <s_m_source_file>
AV-unprocessed.smi

> <i_m_source_file_index>
1323

> <i_lp_mmshare_version>
43012

> <i_f3d_flags>
0

> <s_epik_input>
W0NIM11bQ0BASF0xW0NIMl1bQ0gyXVtDSDJdW0NIMl1bQ0BIXTFPW0NIMl1bQ0gyXVtOSF1DKD1PKVtDSDJdbjJbY0hdW2NIXVtjSF1bY0hdYzI9Tw==

> <s_epik_cmdline>
J2VwaWtfcHl0aG9uJywgJy1waCcsICc3LjAnLCAnLXRuJywgJzgnLCAnLW1hJywgJzIwMCcsICctbWV0YWxfYmluZGluZycsICctaW1hZScsICc8aW5maWxlLm1hZT4nLCAnLW9tYWUnLCAnPG91dGZpbGUubWFlPic=

> <r_lp_tautomer_probability>
1

> <r_epik_Ionization_Penalty>
4.02412e-07

> <r_epik_Ionization_Penalty_Charging>
3.74552e-07

> <r_epik_Ionization_Penalty_Neutral>
2.78599e-08

> <r_epik_State_Penalty>
-0

> <r_epik_Charging_Adjusted_Penalty>
3.74552e-07

> <i_epik_Tot_Q>
0

> <i_epik_Tot_abs_Q>
0

> <r_epik_Metal_State_Penalty>
-0

> <b_epik_Metal_Only>
0

> <s_lp_Force_Field>
OPLS_2005

> <r_lp_Energy>
19.1209

> <b_lp_Chiralities_Consistent>
1

> <s_lp_Variant>
AV-unprocessed.smi:1323-3

> <Gold.Version>
5.8.1

> <Gold.Id.Protein>
6NUR|6NUR_protein|mol2

> <Gold.PLP.Fitness>
46.6812

> <Gold.PLP.PLP>
-35.8604

> <Gold.PLP.part.hbond>
-3.8416

> <Gold.PLP.part.metal>
0.0000

> <Gold.PLP.part.buried>
-1.9945

> <Gold.PLP.part.nonpolar>
-30.5199

> <Gold.PLP.part.repulsive>
1.0805

> <Gold.PLP.ligand.clash>
0.0000

> <Gold.PLP.ligand.torsion>
0.4022

> <Gold.PLP.Chemscore.Hbond>
3.0000

> <Gold.PLP.Chemscore.CHOScore>
0.8589

> <Gold.PLP.Chemscore.Metal>
0.0000

> <Gold.Chemscore.Hbonds>
donor molecule, donor type, donor heavy atom, donor atom, acceptor molecule, acceptor atom, score
      L1  H    11    39       P1  7948  0.98
      P1  H  7997  8010       L1    21  1.00
      P1  H 10752 10763       L1    13  0.58

> <Gold.PLP.Chemscore.Internal.Correction>
0.0487

> <Gold.Rescore>
     Score         DG    S(hbond)    S(metal)    S(lipo)     H(rot)  DE(clash)    DE(int)     intcor
     14.93     -17.15       2.53        0.00      69.89       1.94       0.26       1.96       ----

> <Gold.Chemscore.Fitness>
14.9304

> <Gold.Chemscore.DG>
-17.1485

> <Gold.Chemscore.ZeroCoef>
-5.4800

> <Gold.Chemscore.Hbond>
2.5320

> <Gold.Chemscore.Metal>
0.0000

> <Gold.Chemscore.Lipo>
69.8922

> <Gold.Chemscore.Internal_Hbond>
0.0000

> <Gold.Chemscore.DEClash>
0.2552

> <Gold.Chemscore.DEInternal>
1.9628

> <Gold.Chemscore.Rot>
1.9398

> <Gold.Chemscore.Internal.Correction>
   9.000000E+99

> <Gold.Chemscore.Hbonds>
donor molecule, donor type, donor heavy atom, donor atom, acceptor molecule, acceptor atom, score
      L1  H    11    39       P1  7948  0.28
      P1  H  7997  8010       L1    21  0.44
      P1  H 10752 10763       L1    13  0.55

> <Gold.Chemscore.Hbond.Weighted>
-8.4570

> <Gold.Chemscore.Metal.Weighted>
-0.0000

> <Gold.Chemscore.Lipo.Weighted>
-8.1774

> <Gold.Chemscore.Internal_Hbond.Weighted>
0.0000

> <Gold.Chemscore.DEClash.Weighted>
0.2552

> <Gold.Chemscore.DEInternal.Weighted>
1.9628

> <Gold.Chemscore.Rot.Weighted>
4.9659

> <Gold.Chemscore.Internal.Correction.Weighted>
   9.000000E+99

> <Gold.Protein.RotatedTorsions>
[ 6907 6896 6895 6894 ] final -121.79 input  -60.11 | X-H torsion
[ 7974 7965 7964 7962 ] final -123.56 input  175.53 | X-H torsion
[ 8008 7997 7996 7995 ] final   90.91 input   59.86 | X-H torsion
[ 10167 10162 10161 10158 ] final  119.55 input  -65.29 | X-H torsion
[ 10718 10713 10712 10709 ] final  155.70 input   66.30 | X-H torsion
[ 10763 10752 10751 10750 ] final   84.22 input  -60.55 | X-H torsion
[ 11005 11000 10999 10996 ] final   75.16 input  -57.11 | X-H torsion

> <Gold.Protein.ActiveResidues>
 VAL166  LYS551  ARG553  GLY616  TRP617  ASP618  TYR619  PRO620  LYS621  CYS622 
 ASP623  PHE694  ASN695  SER759  ASP760  ASP761  ALA762  ILE779  LEU786  VAL792 
 PHE793  MET794  SER795  GLU796  ALA797  LYS798  CYS799  TRP800  GLU811  SER814 

> <Gold.Protein.RotatedAtoms>
  150.8516  133.7778  159.3023 H   0  0  0  0  0  0  0  0  0  0  0  0  # atno 6907 bound_to 6896
  151.5449  135.1066  159.9945 H   0  0  0  0  0  0  0  0  0  0  0  0  # atno 6908 bound_to 6896
  152.4557  133.7675  159.6836 H   0  0  0  0  0  0  0  0  0  0  0  0  # atno 6909 bound_to 6896
  145.0173  140.7958  143.4402 H   0  0  0  0  0  0  0  0  0  0  0  0  # atno 7974 bound_to 7965
  156.0175  140.3344  155.7004 H   0  0  0  0  0  0  0  0  0  0  0  0  # atno 8008 bound_to 7997
  155.6069  140.0661  157.2735 H   0  0  0  0  0  0  0  0  0  0  0  0  # atno 8009 bound_to 7997
  154.4304  140.1800  156.1220 H   0  0  0  0  0  0  0  0  0  0  0  0  # atno 8010 bound_to 7997
  139.6039  144.7064  151.2999 H   0  0  0  0  0  0  0  0  0  0  0  0  # atno 10167 bound_to 10162
  157.2149  131.0706  151.1947 H   0  0  0  0  0  0  0  0  0  0  0  0  # atno 10718 bound_to 10713
  153.1362  135.4662  154.9426 H   0  0  0  0  0  0  0  0  0  0  0  0  # atno 10763 bound_to 10752
  154.7708  135.3158  154.8196 H   0  0  0  0  0  0  0  0  0  0  0  0  # atno 10764 bound_to 10752
  153.8728  135.6902  153.4827 H   0  0  0  0  0  0  0  0  0  0  0  0  # atno 10765 bound_to 10752
  139.9357  134.7494  156.1237 H   0  0  0  0  0  0  0  0  0  0  0  0  # atno 11005 bound_to 11000
  145.1942  139.2285  143.5227 LP  0  0  0  0  0  0  0  0  0  0  0  0  # atno 17320 bound_to 7965
  146.3480  140.1745  142.8589 LP  0  0  0  0  0  0  0  0  0  0  0  0  # atno 17321 bound_to 7965
  140.7270  143.6974  150.7872 LP  0  0  0  0  0  0  0  0  0  0  0  0  # atno 17342 bound_to 10162
  140.0556  143.5206  152.2652 LP  0  0  0  0  0  0  0  0  0  0  0  0  # atno 17343 bound_to 10162
  157.3635  130.7143  149.6517 LP  0  0  0  0  0  0  0  0  0  0  0  0  # atno 17370 bound_to 10713
  155.9687  130.4219  150.4490 LP  0  0  0  0  0  0  0  0  0  0  0  0  # atno 17371 bound_to 10713
  141.0969  133.6692  156.2665 LP  0  0  0  0  0  0  0  0  0  0  0  0  # atno 17394 bound_to 11000
  140.6083  134.5484  157.5529 LP  0  0  0  0  0  0  0  0  0  0  0  0  # atno 17395 bound_to 11000

$$$$
