AV-unprocessed.smi:1938|AV-procd|sdf|7834|dock1
  -GOLD-   22720 9583D 1   1.00000     0.00000
 Structure written by MMmdl.
 35 36  0  0  0  0  0  0  0  0  1 V2000
  151.7291  138.2781  154.5104 C   0  0  0  0  0  0  0  0  0  0  0  0
  150.3865  138.2653  154.0375 O   0  0  0  0  0  0  0  0  0  0  0  0
  149.6229  139.4074  154.1874 C   0  0  0  0  0  0  0  0  0  0  0  0
  150.1924  140.4923  154.7703 N   0  0  0  0  0  0  0  0  0  0  0  0
  149.4469  141.6061  154.9217 C   0  0  0  0  0  0  0  0  0  0  0  0
  148.1044  141.6964  154.5106 C   0  0  0  0  0  0  0  0  0  0  0  0
  147.5118  140.5731  153.9048 C   0  0  0  0  0  0  0  0  0  0  0  0
  148.2859  139.4010  153.7253 C   0  0  0  0  0  0  0  0  0  0  0  0
  147.7816  138.2050  153.1437 N   0  0  0  0  0  0  0  0  0  0  0  0
  146.5125  137.7664  153.0961 C   0  0  0  0  0  0  0  0  0  0  0  0
  145.5362  138.3558  153.5599 O   0  0  0  0  0  0  0  0  0  0  0  0
  146.4304  136.5962  152.4486 N   0  0  0  0  0  0  0  0  0  0  0  0
  145.1941  135.8692  152.1846 C   0  0  0  0  0  0  0  0  0  0  0  0
  145.3653  134.8652  151.0332 C   0  0  2  0  0  0  0  0  0  0  0  0
  144.1382  133.9903  150.7915 C   0  0  0  0  0  0  0  0  0  0  0  0
  144.7491  132.8110  150.0692 C   0  0  0  0  0  0  0  0  0  0  0  0
  146.0904  132.6558  150.7837 C   0  0  0  0  0  0  0  0  0  0  0  0
  146.4066  133.9371  151.3238 O   0  0  0  0  0  0  0  0  0  0  0  0
  152.1887  137.3093  154.3154 H   0  0  0  0  0  0  0  0  0  0  0  0
  151.7720  138.4537  155.5863 H   0  0  0  0  0  0  0  0  0  0  0  0
  152.3253  139.0352  153.9992 H   0  0  0  0  0  0  0  0  0  0  0  0
  149.9333  142.4483  155.3912 H   0  0  0  0  0  0  0  0  0  0  0  0
  147.5404  142.6050  154.6613 H   0  0  0  0  0  0  0  0  0  0  0  0
  146.4766  140.6282  153.6062 H   0  0  0  0  0  0  0  0  0  0  0  0
  148.4603  137.6528  152.6401 H   0  0  0  0  0  0  0  0  0  0  0  0
  147.2815  136.1878  152.0913 H   0  0  0  0  0  0  0  0  0  0  0  0
  144.9006  135.3478  153.0960 H   0  0  0  0  0  0  0  0  0  0  0  0
  144.3907  136.5721  151.9572 H   0  0  0  0  0  0  0  0  0  0  0  0
  145.6189  135.3825  150.1063 H   0  0  0  0  0  0  0  0  0  0  0  0
  143.7033  133.6647  151.7375 H   0  0  0  0  0  0  0  0  0  0  0  0
  143.3637  134.4931  150.2118 H   0  0  0  0  0  0  0  0  0  0  0  0
  144.1336  131.9122  150.1157 H   0  0  0  0  0  0  0  0  0  0  0  0
  144.9105  133.0608  149.0194 H   0  0  0  0  0  0  0  0  0  0  0  0
  146.0090  131.9448  151.6067 H   0  0  0  0  0  0  0  0  0  0  0  0
  146.8744  132.3064  150.1112 H   0  0  0  0  0  0  0  0  0  0  0  0
  1  2  1  0  0  0  0
  1 19  1  0  0  0  0
  1 20  1  0  0  0  0
  1 21  1  0  0  0  0
  2  3  1  0  0  0  0
  3  8  1  0  0  0  0
  3  4  2  0  0  0  0
  4  5  1  0  0  0  0
  5  6  2  0  0  0  0
  5 22  1  0  0  0  0
  6  7  1  0  0  0  0
  6 23  1  0  0  0  0
  7  8  2  0  0  0  0
  7 24  1  0  0  0  0
  8  9  1  0  0  0  0
  9 10  1  0  0  0  0
  9 25  1  0  0  0  0
 10 11  2  0  0  0  0
 10 12  1  0  0  0  0
 12 13  1  0  0  0  0
 12 26  1  0  0  0  0
 13 14  1  0  0  0  0
 13 27  1  0  0  0  0
 13 28  1  0  0  0  0
 14 18  1  0  0  0  0
 14 15  1  0  0  0  0
 14 29  1  0  0  0  0
 15 16  1  0  0  0  0
 15 30  1  0  0  0  0
 15 31  1  0  0  0  0
 16 17  1  0  0  0  0
 16 32  1  0  0  0  0
 16 33  1  0  0  0  0
 17 18  1  0  0  0  0
 17 34  1  0  0  0  0
 17 35  1  0  0  0  0
M  END
> <s_m_source_file>
AV-unprocessed.smi

> <i_m_source_file_index>
1938

> <i_lp_mmshare_version>
43012

> <i_f3d_flags>
0

> <s_epik_input>
W0NIM11PYzFuW2NIXVtjSF1bY0hdYzFbTkhdQyg9TylbTkhdW0NIMl1bQ0BASF0yW0NIMl1bQ0gyXVtDSDJdTzI=

> <s_epik_cmdline>
J2VwaWtfcHl0aG9uJywgJy1waCcsICc3LjAnLCAnLXRuJywgJzgnLCAnLW1hJywgJzIwMCcsICctbWV0YWxfYmluZGluZycsICctaW1hZScsICc8aW5maWxlLm1hZT4nLCAnLW9tYWUnLCAnPG91dGZpbGUubWFlPic=

> <r_lp_tautomer_probability>
1

> <r_epik_Ionization_Penalty>
9.01657e-05

> <r_epik_Ionization_Penalty_Charging>
0

> <r_epik_Ionization_Penalty_Neutral>
9.01657e-05

> <r_epik_State_Penalty>
-0

> <r_epik_Charging_Adjusted_Penalty>
0

> <i_epik_Tot_Q>
0

> <i_epik_Tot_abs_Q>
0

> <r_epik_Metal_State_Penalty>
-0

> <b_epik_Metal_Only>
0

> <s_lp_Force_Field>
OPLS_2005

> <r_lp_Energy>
19.3797

> <b_lp_Chiralities_Consistent>
1

> <s_lp_Variant>
AV-unprocessed.smi:1938-1

> <Gold.Version>
5.8.1

> <Gold.Id.Protein>
6NUR|6NUR_protein|mol2

> <Gold.PLP.Fitness>
41.7338

> <Gold.PLP.PLP>
-30.7935

> <Gold.PLP.part.hbond>
-3.2861

> <Gold.PLP.part.metal>
0.0000

> <Gold.PLP.part.buried>
-2.8988

> <Gold.PLP.part.nonpolar>
-26.5351

> <Gold.PLP.part.repulsive>
1.4851

> <Gold.PLP.ligand.clash>
0.0000

> <Gold.PLP.ligand.torsion>
0.2982

> <Gold.PLP.Chemscore.Hbond>
2.9600

> <Gold.PLP.Chemscore.CHOScore>
0.8833

> <Gold.PLP.Chemscore.Metal>
0.0000

> <Gold.Chemscore.Hbonds>
donor molecule, donor type, donor heavy atom, donor atom, acceptor molecule, acceptor atom, score
      L1  H     9    25       P1  7948  1.00
      L1  H    12    26       P1  7948  1.00
      P1  H  7989  7998       L1     4  0.96
      L1  C     5    22       P1  8028  0.88

> <Gold.PLP.Chemscore.Internal.Correction>
0.0068

> <Gold.Rescore>
     Score         DG    S(hbond)    S(metal)    S(lipo)     H(rot)  DE(clash)    DE(int)     intcor
     15.56     -17.16       2.33        0.00      66.20       1.50       0.23       1.37       ----

> <Gold.Chemscore.Fitness>
15.5595

> <Gold.Chemscore.DG>
-17.1596

> <Gold.Chemscore.ZeroCoef>
-5.4800

> <Gold.Chemscore.Hbond>
2.3255

> <Gold.Chemscore.Metal>
0.0000

> <Gold.Chemscore.Lipo>
66.1969

> <Gold.Chemscore.Internal_Hbond>
0.0000

> <Gold.Chemscore.DEClash>
0.2281

> <Gold.Chemscore.DEInternal>
1.3720

> <Gold.Chemscore.Rot>
1.4971

> <Gold.Chemscore.Internal.Correction>
   9.000000E+99

> <Gold.Chemscore.Hbonds>
donor molecule, donor type, donor heavy atom, donor atom, acceptor molecule, acceptor atom, score
      L1  H     9    25       P1  7948  0.97
      L1  H    12    26       P1  7948  0.96
      P1  H  7989  7998       L1     4  0.18

> <Gold.Chemscore.Hbond.Weighted>
-7.7672

> <Gold.Chemscore.Metal.Weighted>
-0.0000

> <Gold.Chemscore.Lipo.Weighted>
-7.7450

> <Gold.Chemscore.Internal_Hbond.Weighted>
0.0000

> <Gold.Chemscore.DEClash.Weighted>
0.2281

> <Gold.Chemscore.DEInternal.Weighted>
1.3720

> <Gold.Chemscore.Rot.Weighted>
3.8326

> <Gold.Chemscore.Internal.Correction.Weighted>
   9.000000E+99

> <Gold.Protein.RotatedTorsions>
[ 6907 6896 6895 6894 ] final   83.22 input  -60.11 | X-H torsion
[ 7974 7965 7964 7962 ] final  166.19 input  175.53 | X-H torsion
[ 8008 7997 7996 7995 ] final  134.36 input   59.86 | X-H torsion
[ 10167 10162 10161 10158 ] final  -73.61 input  -65.29 | X-H torsion
[ 10718 10713 10712 10709 ] final   17.20 input   66.30 | X-H torsion
[ 10763 10752 10751 10750 ] final -178.80 input  -60.55 | X-H torsion
[ 11005 11000 10999 10996 ] final -131.21 input  -57.11 | X-H torsion

> <Gold.Protein.ActiveResidues>
 VAL166  LYS551  ARG553  GLY616  TRP617  ASP618  TYR619  PRO620  LYS621  CYS622 
 ASP623  PHE694  ASN695  SER759  ASP760  ASP761  ALA762  ILE779  LEU786  VAL792 
 PHE793  MET794  SER795  GLU796  ALA797  LYS798  CYS799  TRP800  GLU811  SER814 

> <Gold.Protein.RotatedAtoms>
  152.5321  134.2929  159.9049 H   0  0  0  0  0  0  0  0  0  0  0  0  # atno 6907 bound_to 6896
  151.2881  133.4172  159.2639 H   0  0  0  0  0  0  0  0  0  0  0  0  # atno 6908 bound_to 6896
  151.0225  134.9495  159.8124 H   0  0  0  0  0  0  0  0  0  0  0  0  # atno 6909 bound_to 6896
  144.7472  139.8579  143.6378 H   0  0  0  0  0  0  0  0  0  0  0  0  # atno 7974 bound_to 7965
  156.2998  140.2498  156.3404 H   0  0  0  0  0  0  0  0  0  0  0  0  # atno 8008 bound_to 7997
  154.9061  140.0404  157.1939 H   0  0  0  0  0  0  0  0  0  0  0  0  # atno 8009 bound_to 7997
  154.8452  140.2897  155.5638 H   0  0  0  0  0  0  0  0  0  0  0  0  # atno 8010 bound_to 7997
  140.5095  143.2347  151.7616 H   0  0  0  0  0  0  0  0  0  0  0  0  # atno 10167 bound_to 10162
  157.0787  130.6378  149.5821 H   0  0  0  0  0  0  0  0  0  0  0  0  # atno 10718 bound_to 10713
  154.5432  135.2807  155.1077 H   0  0  0  0  0  0  0  0  0  0  0  0  # atno 10763 bound_to 10752
  154.2551  135.6332  153.5258 H   0  0  0  0  0  0  0  0  0  0  0  0  # atno 10764 bound_to 10752
  152.9984  135.5592  154.5977 H   0  0  0  0  0  0  0  0  0  0  0  0  # atno 10765 bound_to 10752
  140.9279  134.1359  157.4260 H   0  0  0  0  0  0  0  0  0  0  0  0  # atno 11005 bound_to 11000
  146.1370  139.4417  143.0133 LP  0  0  0  0  0  0  0  0  0  0  0  0  # atno 17320 bound_to 7965
  145.7077  141.0116  143.1470 LP  0  0  0  0  0  0  0  0  0  0  0  0  # atno 17321 bound_to 7965
  139.4892  144.4410  151.9765 LP  0  0  0  0  0  0  0  0  0  0  0  0  # atno 17342 bound_to 10162
  140.3501  144.3099  150.5951 LP  0  0  0  0  0  0  0  0  0  0  0  0  # atno 17343 bound_to 10162
  155.9930  130.4989  150.7362 LP  0  0  0  0  0  0  0  0  0  0  0  0  # atno 17370 bound_to 10713
  157.4818  131.0903  151.0527 LP  0  0  0  0  0  0  0  0  0  0  0  0  # atno 17371 bound_to 10713
  139.8789  134.9994  156.5955 LP  0  0  0  0  0  0  0  0  0  0  0  0  # atno 17394 bound_to 11000
  140.7902  133.8588  155.8640 LP  0  0  0  0  0  0  0  0  0  0  0  0  # atno 17395 bound_to 11000

$$$$
