AV-unprocessed.smi:3181|AV-procd|sdf|12136|dock7
  -GOLD-   2272017573D 1   1.00000     0.00000
 Structure written by MMmdl.
 42 43  0  0  0  0  0  0  0  0  2 V2000
  148.6881  140.6993  155.8299 C   0  0  0  0  0  0  0  0  0  0  0  0
  149.8182  141.0676  156.8052 C   0  0  1  0  0  0  0  0  0  0  0  0
  151.2140  140.9613  156.1533 C   0  0  0  0  0  0  0  0  0  0  0  0
  151.4674  139.6562  155.5721 N   0  0  0  0  0  0  0  0  0  0  0  0
  152.2471  138.6559  155.9861 C   0  0  0  0  0  0  0  0  0  0  0  0
  152.2212  137.5947  155.1925 N   0  0  0  0  0  0  0  0  0  0  0  0
  151.3388  138.0364  154.2474 C   0  0  0  0  0  0  0  0  0  0  0  0
  150.8548  139.2654  154.4301 N   0  0  0  0  0  0  0  0  0  0  0  0
  149.5998  142.4390  157.3202 N   0  3  0  0  0  0  0  0  0  0  0  0
  150.6430  142.9688  158.2290 C   0  0  2  0  0  0  0  0  0  0  0  0
  151.2647  141.8116  159.0314 C   0  0  0  0  0  0  0  0  0  0  0  0
  152.3328  142.3089  160.0177 C   0  0  0  0  0  0  0  0  0  0  0  0
  151.7665  143.3823  160.9671 C   0  0  1  0  0  0  0  0  0  0  0  0
  152.8036  143.8234  162.0129 C   0  0  0  0  0  0  0  0  0  0  0  0
  151.1422  144.5643  160.1825 C   0  0  1  0  0  0  0  0  0  0  0  0
  152.1731  145.4787  159.4899 C   0  0  0  0  0  0  0  0  0  0  0  0
  150.0832  144.0454  159.1868 C   0  0  0  0  0  0  0  0  0  0  0  0
  148.7781  139.6698  155.4822 H   0  0  0  0  0  0  0  0  0  0  0  0
  148.6927  141.3476  154.9532 H   0  0  0  0  0  0  0  0  0  0  0  0
  147.7125  140.7923  156.3081 H   0  0  0  0  0  0  0  0  0  0  0  0
  149.7649  140.3643  157.6378 H   0  0  0  0  0  0  0  0  0  0  0  0
  151.3210  141.7121  155.3689 H   0  0  0  0  0  0  0  0  0  0  0  0
  152.0003  141.1625  156.8811 H   0  0  0  0  0  0  0  0  0  0  0  0
  152.8472  138.7045  156.8832 H   0  0  0  0  0  0  0  0  0  0  0  0
  151.0432  137.4337  153.4012 H   0  0  0  0  0  0  0  0  0  0  0  0
  149.4817  143.0717  156.5418 H   0  0  0  0  0  0  0  0  0  0  0  0
  151.4273  143.4061  157.6099 H   0  0  0  0  0  0  0  0  0  0  0  0
  150.4854  141.2840  159.5832 H   0  0  0  0  0  0  0  0  0  0  0  0
  151.7087  141.0820  158.3529 H   0  0  0  0  0  0  0  0  0  0  0  0
  152.7082  141.4643  160.5965 H   0  0  0  0  0  0  0  0  0  0  0  0
  153.1882  142.7034  159.4684 H   0  0  0  0  0  0  0  0  0  0  0  0
  150.9540  142.9142  161.5253 H   0  0  0  0  0  0  0  0  0  0  0  0
  153.7048  144.2221  161.5465 H   0  0  0  0  0  0  0  0  0  0  0  0
  153.1059  142.9827  162.6378 H   0  0  0  0  0  0  0  0  0  0  0  0
  152.3977  144.5918  162.6713 H   0  0  0  0  0  0  0  0  0  0  0  0
  150.6161  145.1916  160.9037 H   0  0  0  0  0  0  0  0  0  0  0  0
  152.8005  144.9350  158.7844 H   0  0  0  0  0  0  0  0  0  0  0  0
  152.8308  145.9595  160.2139 H   0  0  0  0  0  0  0  0  0  0  0  0
  151.6752  146.2769  158.9388 H   0  0  0  0  0  0  0  0  0  0  0  0
  149.6798  144.8880  158.6248 H   0  0  0  0  0  0  0  0  0  0  0  0
  149.2450  143.6278  159.7464 H   0  0  0  0  0  0  0  0  0  0  0  0
  148.7373  142.4217  157.8452 H   0  0  0  0  0  0  0  0  0  0  0  0
  1  2  1  0  0  0  0
  1 18  1  0  0  0  0
  1 19  1  0  0  0  0
  1 20  1  0  0  0  0
  2  3  1  0  0  0  0
  2  9  1  0  0  0  0
  2 21  1  0  0  0  0
  3  4  1  0  0  0  0
  3 22  1  0  0  0  0
  3 23  1  0  0  0  0
  4  8  1  0  0  0  0
  4  5  1  0  0  0  0
  5  6  2  0  0  0  0
  5 24  1  0  0  0  0
  6  7  1  0  0  0  0
  7  8  2  0  0  0  0
  7 25  1  0  0  0  0
  9 10  1  0  0  0  0
  9 26  1  0  0  0  0
  9 42  1  0  0  0  0
 10 17  1  0  0  0  0
 10 11  1  0  0  0  0
 10 27  1  0  0  0  0
 11 12  1  0  0  0  0
 11 28  1  0  0  0  0
 11 29  1  0  0  0  0
 12 13  1  0  0  0  0
 12 30  1  0  0  0  0
 12 31  1  0  0  0  0
 13 14  1  0  0  0  0
 13 15  1  0  0  0  0
 13 32  1  0  0  0  0
 14 33  1  0  0  0  0
 14 34  1  0  0  0  0
 14 35  1  0  0  0  0
 15 16  1  0  0  0  0
 15 17  1  0  0  0  0
 15 36  1  0  0  0  0
 16 37  1  0  0  0  0
 16 38  1  0  0  0  0
 16 39  1  0  0  0  0
 17 40  1  0  0  0  0
 17 41  1  0  0  0  0
M  CHG  1   9   1
M  END
> <s_m_source_file>
AV-unprocessed.smi

> <i_m_source_file_index>
3181

> <i_lp_mmshare_version>
43012

> <i_f3d_flags>
0

> <s_epik_input>
bjFbY0hdbltjSF1uMVtDSDJdW0NAQEhdKFtDSDNdKVtOSF1bQ0BASF0yW0NIMl1bQ0gyXVtDQEBIXShbQ0gzXSlbQ0BASF0oW0NIM10pW0NIMl0y

> <s_epik_cmdline>
J2VwaWtfcHl0aG9uJywgJy1waCcsICc3LjAnLCAnLXRuJywgJzgnLCAnLW1hJywgJzIwMCcsICctbWV0YWxfYmluZGluZycsICctaW1hZScsICc8aW5maWxlLm1hZT4nLCAnLW9tYWUnLCAnPG91dGZpbGUubWFlPic=

> <r_lp_tautomer_probability>
1

> <r_epik_Ionization_Penalty>
0.000617007

> <r_epik_Ionization_Penalty_Charging>
0.000616215

> <r_epik_Ionization_Penalty_Neutral>
7.92544e-07

> <r_epik_State_Penalty>
0.000388807

> <r_epik_Charging_Adjusted_Penalty>
0.00100502

> <i_epik_Tot_Q>
1

> <i_epik_Tot_abs_Q>
1

> <r_epik_Metal_State_Penalty>
-0

> <b_epik_Metal_Only>
0

> <s_lp_Force_Field>
OPLS_2005

> <r_lp_Energy>
21.1382

> <b_lp_Chiralities_Consistent>
1

> <s_lp_Variant>
AV-unprocessed.smi:3181-2

> <Gold.Version>
5.8.1

> <Gold.Id.Protein>
6NUR|6NUR_protein|mol2

> <Gold.PLP.Fitness>
48.2488

> <Gold.PLP.PLP>
-37.3514

> <Gold.PLP.part.hbond>
-3.0000

> <Gold.PLP.part.metal>
0.0000

> <Gold.PLP.part.buried>
-6.3302

> <Gold.PLP.part.nonpolar>
-28.9993

> <Gold.PLP.part.repulsive>
0.2207

> <Gold.PLP.ligand.clash>
0.0000

> <Gold.PLP.ligand.torsion>
0.4972

> <Gold.PLP.Chemscore.Hbond>
2.8978

> <Gold.PLP.Chemscore.CHOScore>
1.0586

> <Gold.PLP.Chemscore.Metal>
0.0000

> <Gold.Chemscore.Hbonds>
donor molecule, donor type, donor heavy atom, donor atom, acceptor molecule, acceptor atom, score
      L1  H     9    26       P1  8028  2.00
      P1  H  7989  7998       L1     8  0.50
      P1  H 10752 10765       L1     6  0.43
      L1  C     7    25       P1  7948  0.06
      L1  C     7    25       P1  7949  1.00

> <Gold.PLP.Chemscore.Internal.Correction>
0.0227

> <Gold.Rescore>
     Score         DG    S(hbond)    S(metal)    S(lipo)     H(rot)  DE(clash)    DE(int)     intcor
     14.03     -15.51       1.34        0.00      93.59       2.11       0.24       1.24       ----

> <Gold.Chemscore.Fitness>
14.0258

> <Gold.Chemscore.DG>
-15.5092

> <Gold.Chemscore.ZeroCoef>
-5.4800

> <Gold.Chemscore.Hbond>
1.3411

> <Gold.Chemscore.Metal>
0.0000

> <Gold.Chemscore.Lipo>
93.5919

> <Gold.Chemscore.Internal_Hbond>
0.0000

> <Gold.Chemscore.DEClash>
0.2419

> <Gold.Chemscore.DEInternal>
1.2415

> <Gold.Chemscore.Rot>
2.1095

> <Gold.Chemscore.Internal.Correction>
   9.000000E+99

> <Gold.Chemscore.Hbonds>
donor molecule, donor type, donor heavy atom, donor atom, acceptor molecule, acceptor atom, score
      L1  H     9    26       P1  8028  0.97
      P1  H  7989  7998       L1     8  0.02
      P1  H 10752 10765       L1     6  0.30

> <Gold.Chemscore.Hbond.Weighted>
-4.4793

> <Gold.Chemscore.Metal.Weighted>
-0.0000

> <Gold.Chemscore.Lipo.Weighted>
-10.9502

> <Gold.Chemscore.Internal_Hbond.Weighted>
0.0000

> <Gold.Chemscore.DEClash.Weighted>
0.2419

> <Gold.Chemscore.DEInternal.Weighted>
1.2415

> <Gold.Chemscore.Rot.Weighted>
5.4003

> <Gold.Chemscore.Internal.Correction.Weighted>
   9.000000E+99

> <Gold.Protein.RotatedTorsions>
[ 6907 6896 6895 6894 ] final -111.61 input  -60.11 | X-H torsion
[ 7974 7965 7964 7962 ] final -168.33 input  175.53 | X-H torsion
[ 8008 7997 7996 7995 ] final  163.97 input   59.86 | X-H torsion
[ 10167 10162 10161 10158 ] final -107.05 input  -65.29 | X-H torsion
[ 10718 10713 10712 10709 ] final   74.02 input   66.30 | X-H torsion
[ 10763 10752 10751 10750 ] final -179.36 input  -60.55 | X-H torsion
[ 11005 11000 10999 10996 ] final  -52.84 input  -57.11 | X-H torsion

> <Gold.Protein.ActiveResidues>
 VAL166  LYS551  ARG553  GLY616  TRP617  ASP618  TYR619  PRO620  LYS621  CYS622 
 ASP623  PHE694  ASN695  SER759  ASP760  ASP761  ALA762  ILE779  LEU786  VAL792 
 PHE793  MET794  SER795  GLU796  ALA797  LYS798  CYS799  TRP800  GLU811  SER814 

> <Gold.Protein.RotatedAtoms>
  150.7702  133.9210  159.3397 H   0  0  0  0  0  0  0  0  0  0  0  0  # atno 6907 bound_to 6896
  151.7098  135.0913  160.0275 H   0  0  0  0  0  0  0  0  0  0  0  0  # atno 6908 bound_to 6896
  152.3716  133.6389  159.6127 H   0  0  0  0  0  0  0  0  0  0  0  0  # atno 6909 bound_to 6896
  144.7205  140.2387  143.6294 H   0  0  0  0  0  0  0  0  0  0  0  0  # atno 7974 bound_to 7965
  156.1916  140.1709  156.8080 H   0  0  0  0  0  0  0  0  0  0  0  0  # atno 8008 bound_to 7997
  154.5479  140.0723  156.8651 H   0  0  0  0  0  0  0  0  0  0  0  0  # atno 8009 bound_to 7997
  155.3086  140.3366  155.4247 H   0  0  0  0  0  0  0  0  0  0  0  0  # atno 8010 bound_to 7997
  140.1811  143.3966  152.1280 H   0  0  0  0  0  0  0  0  0  0  0  0  # atno 10167 bound_to 10162
  157.6573  130.9657  150.1151 H   0  0  0  0  0  0  0  0  0  0  0  0  # atno 10718 bound_to 10713
  154.5361  135.2803  155.1137 H   0  0  0  0  0  0  0  0  0  0  0  0  # atno 10763 bound_to 10752
  154.2638  135.6316  153.5288 H   0  0  0  0  0  0  0  0  0  0  0  0  # atno 10764 bound_to 10752
  152.9968  135.5612  154.5887 H   0  0  0  0  0  0  0  0  0  0  0  0  # atno 10765 bound_to 10752
  141.0945  133.6627  156.4083 H   0  0  0  0  0  0  0  0  0  0  0  0  # atno 11005 bound_to 11000
  145.8341  139.2099  143.1866 LP  0  0  0  0  0  0  0  0  0  0  0  0  # atno 17320 bound_to 7965
  146.0405  140.8170  142.9831 LP  0  0  0  0  0  0  0  0  0  0  0  0  # atno 17321 bound_to 7965
  139.5296  144.7143  151.5105 LP  0  0  0  0  0  0  0  0  0  0  0  0  # atno 17342 bound_to 10162
  140.6519  143.8679  150.6794 LP  0  0  0  0  0  0  0  0  0  0  0  0  # atno 17343 bound_to 10162
  156.2037  130.3662  149.8756 LP  0  0  0  0  0  0  0  0  0  0  0  0  # atno 17370 bound_to 10713
  156.6653  130.8798  151.3554 LP  0  0  0  0  0  0  0  0  0  0  0  0  # atno 17371 bound_to 10713
  140.5173  134.6338  157.5306 LP  0  0  0  0  0  0  0  0  0  0  0  0  # atno 17394 bound_to 11000
  139.9778  134.7186  155.9916 LP  0  0  0  0  0  0  0  0  0  0  0  0  # atno 17395 bound_to 11000

$$$$
