AV-unprocessed.smi:2245|AV-procd|sdf|9076|dock5
  -GOLD-   2272012283D 1   1.00000     0.00000
 Structure written by MMmdl.
 44 45  0  0  0  0  0  0  0  0  1 V2000
  152.0472  145.3324  158.7984 C   0  0  0  0  0  0  0  0  0  0  0  0
  152.2906  143.8407  158.8923 C   0  0  0  0  0  0  0  0  0  0  0  0
  153.1161  143.3039  159.8986 C   0  0  0  0  0  0  0  0  0  0  0  0
  153.3047  141.9083  159.9296 C   0  0  0  0  0  0  0  0  0  0  0  0
  154.1861  141.2657  160.9798 C   0  0  0  0  0  0  0  0  0  0  0  0
  152.7335  141.0677  159.0409 N   0  0  0  0  0  0  0  0  0  0  0  0
  151.9363  141.5736  158.0674 C   0  0  0  0  0  0  0  0  0  0  0  0
  151.3020  140.7785  157.0769 N   0  0  0  0  0  0  0  0  0  0  0  0
  151.7578  139.6542  156.4974 C   0  0  0  0  0  0  0  0  0  0  0  0
  152.7916  139.0604  156.8059 O   0  0  0  0  0  0  0  0  0  0  0  0
  150.9353  139.2461  155.5217 N   0  0  0  0  0  0  0  0  0  0  0  0
  151.1695  138.0892  154.6667 C   0  0  0  0  0  0  0  0  0  0  0  0
  150.1727  136.9648  154.9899 C   0  0  2  0  0  0  0  0  0  0  0  0
  149.8314  136.8143  156.4741 C   0  0  0  0  0  0  0  0  0  0  0  0
  149.8583  135.3037  156.7318 C   0  0  0  0  0  0  0  0  0  0  0  0
  149.8215  134.7024  155.4030 N   0  0  0  0  0  0  0  0  0  0  0  0
  150.2981  133.3213  155.3701 C   0  0  0  0  0  0  0  0  0  0  0  0
  149.3738  132.3827  154.5704 C   0  0  0  0  0  0  0  0  0  0  0  0
  148.2143  132.2743  155.2179 F   0  0  0  0  0  0  0  0  0  0  0  0
  149.1266  132.8620  153.3517 F   0  0  0  0  0  0  0  0  0  0  0  0
  149.9165  131.1691  154.4669 F   0  0  0  0  0  0  0  0  0  0  0  0
  150.6690  135.5735  154.6025 C   0  0  0  0  0  0  0  0  0  0  0  0
  151.6932  142.9618  157.9666 C   0  0  0  0  0  0  0  0  0  0  0  0
  152.6201  145.8762  159.5501 H   0  0  0  0  0  0  0  0  0  0  0  0
  150.9900  145.5525  158.9487 H   0  0  0  0  0  0  0  0  0  0  0  0
  152.3391  145.7018  157.8151 H   0  0  0  0  0  0  0  0  0  0  0  0
  153.5939  143.9440  160.6258 H   0  0  0  0  0  0  0  0  0  0  0  0
  154.3918  141.9567  161.7975 H   0  0  0  0  0  0  0  0  0  0  0  0
  155.1365  140.9634  160.5394 H   0  0  0  0  0  0  0  0  0  0  0  0
  153.7038  140.3811  161.3973 H   0  0  0  0  0  0  0  0  0  0  0  0
  150.4185  141.1306  156.7397 H   0  0  0  0  0  0  0  0  0  0  0  0
  150.1038  139.7880  155.3379 H   0  0  0  0  0  0  0  0  0  0  0  0
  151.0649  138.3735  153.6181 H   0  0  0  0  0  0  0  0  0  0  0  0
  152.1956  137.7450  154.8031 H   0  0  0  0  0  0  0  0  0  0  0  0
  149.2464  137.1496  154.4425 H   0  0  0  0  0  0  0  0  0  0  0  0
  150.5536  137.3177  157.1183 H   0  0  0  0  0  0  0  0  0  0  0  0
  148.8489  137.2369  156.6863 H   0  0  0  0  0  0  0  0  0  0  0  0
  150.7861  135.0339  157.2392 H   0  0  0  0  0  0  0  0  0  0  0  0
  149.0220  134.9782  157.3505 H   0  0  0  0  0  0  0  0  0  0  0  0
  151.2784  133.3196  154.8913 H   0  0  0  0  0  0  0  0  0  0  0  0
  150.4459  132.9436  156.3826 H   0  0  0  0  0  0  0  0  0  0  0  0
  150.5658  135.3749  153.5350 H   0  0  0  0  0  0  0  0  0  0  0  0
  151.7168  135.4449  154.8806 H   0  0  0  0  0  0  0  0  0  0  0  0
  151.0576  143.3525  157.1848 H   0  0  0  0  0  0  0  0  0  0  0  0
  1  2  1  0  0  0  0
  1 24  1  0  0  0  0
  1 25  1  0  0  0  0
  1 26  1  0  0  0  0
  2 23  1  0  0  0  0
  2  3  2  0  0  0  0
  3  4  1  0  0  0  0
  3 27  1  0  0  0  0
  4  5  1  0  0  0  0
  4  6  2  0  0  0  0
  5 28  1  0  0  0  0
  5 29  1  0  0  0  0
  5 30  1  0  0  0  0
  6  7  1  0  0  0  0
  7  8  1  0  0  0  0
  7 23  2  0  0  0  0
  8  9  1  0  0  0  0
  8 31  1  0  0  0  0
  9 10  2  0  0  0  0
  9 11  1  0  0  0  0
 11 12  1  0  0  0  0
 11 32  1  0  0  0  0
 12 13  1  0  0  0  0
 12 33  1  0  0  0  0
 12 34  1  0  0  0  0
 13 22  1  0  0  0  0
 13 14  1  0  0  0  0
 13 35  1  0  0  0  0
 14 15  1  0  0  0  0
 14 36  1  0  0  0  0
 14 37  1  0  0  0  0
 15 16  1  0  0  0  0
 15 38  1  0  0  0  0
 15 39  1  0  0  0  0
 16 17  1  0  0  0  0
 16 22  1  0  0  0  0
 17 18  1  0  0  0  0
 17 40  1  0  0  0  0
 17 41  1  0  0  0  0
 18 19  1  0  0  0  0
 18 20  1  0  0  0  0
 18 21  1  0  0  0  0
 22 42  1  0  0  0  0
 22 43  1  0  0  0  0
 23 44  1  0  0  0  0
M  END
> <s_m_source_file>
AV-unprocessed.smi

> <i_m_source_file_index>
2245

> <i_lp_mmshare_version>
43012

> <i_f3d_flags>
0

> <s_epik_input>
W0NIM11jMVtjSF1jKFtDSDNdKW5jKFtjSF0xKVtOSF1DKD1PKVtOSF1bQ0gyXVtDQEBIXTJbQ0gyXVtDSDJdTihbQ0gyXTIpW0NIMl1DKEYpKEYpRg==

> <s_epik_cmdline>
J2VwaWtfcHl0aG9uJywgJy1waCcsICc3LjAnLCAnLXRuJywgJzgnLCAnLW1hJywgJzIwMCcsICctbWV0YWxfYmluZGluZycsICctaW1hZScsICc8aW5maWxlLm1hZT4nLCAnLW9tYWUnLCAnPG91dGZpbGUubWFlPic=

> <r_epik_Ionization_Penalty>
0.252219

> <r_epik_Ionization_Penalty_Charging>
0

> <r_epik_Ionization_Penalty_Neutral>
0.252219

> <r_epik_State_Penalty>
0.24335

> <r_epik_Charging_Adjusted_Penalty>
0.24335

> <i_epik_Tot_Q>
0

> <i_epik_Tot_abs_Q>
0

> <r_epik_Metal_State_Penalty>
0.243337

> <b_epik_Metal_Only>
0

> <s_lp_Force_Field>
OPLS_2005

> <r_lp_Energy>
29.2312

> <b_lp_Chiralities_Consistent>
1

> <s_lp_Variant>
AV-unprocessed.smi:2245-1

> <Gold.Version>
5.8.1

> <Gold.Id.Protein>
6NUR|6NUR_protein|mol2

> <Gold.PLP.Fitness>
45.0483

> <Gold.PLP.PLP>
-44.1504

> <Gold.PLP.part.hbond>
-1.0000

> <Gold.PLP.part.metal>
0.0000

> <Gold.PLP.part.buried>
-4.9580

> <Gold.PLP.part.nonpolar>
-37.6984

> <Gold.PLP.part.repulsive>
0.2265

> <Gold.PLP.ligand.clash>
0.0000

> <Gold.PLP.ligand.torsion>
1.2401

> <Gold.PLP.Chemscore.Hbond>
1.0000

> <Gold.PLP.Chemscore.CHOScore>
0.0000

> <Gold.PLP.Chemscore.Metal>
0.0000

> <Gold.Chemscore.Hbonds>
donor molecule, donor type, donor heavy atom, donor atom, acceptor molecule, acceptor atom, score
      P1  H  7997  8009       L1    10  1.00

> <Gold.PLP.Chemscore.Internal.Correction>
0.3782

> <Gold.Rescore>
     Score         DG    S(hbond)    S(metal)    S(lipo)     H(rot)  DE(clash)    DE(int)     intcor
     15.09     -17.32       0.99        0.00     107.59       1.58       0.08       2.15       ----

> <Gold.Chemscore.Fitness>
15.0861

> <Gold.Chemscore.DG>
-17.3152

> <Gold.Chemscore.ZeroCoef>
-5.4800

> <Gold.Chemscore.Hbond>
0.9877

> <Gold.Chemscore.Metal>
0.0000

> <Gold.Chemscore.Lipo>
107.5872

> <Gold.Chemscore.Internal_Hbond>
0.0000

> <Gold.Chemscore.DEClash>
0.0778

> <Gold.Chemscore.DEInternal>
2.1513

> <Gold.Chemscore.Rot>
1.5826

> <Gold.Chemscore.Internal.Correction>
   9.000000E+99

> <Gold.Chemscore.Hbonds>
donor molecule, donor type, donor heavy atom, donor atom, acceptor molecule, acceptor atom, score
      P1  H  7997  8009       L1    10  0.94

> <Gold.Chemscore.Hbond.Weighted>
-3.2990

> <Gold.Chemscore.Metal.Weighted>
-0.0000

> <Gold.Chemscore.Lipo.Weighted>
-12.5877

> <Gold.Chemscore.Internal_Hbond.Weighted>
0.0000

> <Gold.Chemscore.DEClash.Weighted>
0.0778

> <Gold.Chemscore.DEInternal.Weighted>
2.1513

> <Gold.Chemscore.Rot.Weighted>
4.0515

> <Gold.Chemscore.Internal.Correction.Weighted>
   9.000000E+99

> <Gold.Protein.RotatedTorsions>
[ 6907 6896 6895 6894 ] final   -9.03 input  -60.11 | X-H torsion
[ 7974 7965 7964 7962 ] final  -51.48 input  175.53 | X-H torsion
[ 8008 7997 7996 7995 ] final  174.65 input   59.86 | X-H torsion
[ 10167 10162 10161 10158 ] final  -63.06 input  -65.29 | X-H torsion
[ 10718 10713 10712 10709 ] final  165.92 input   66.30 | X-H torsion
[ 10763 10752 10751 10750 ] final  -46.48 input  -60.55 | X-H torsion
[ 11005 11000 10999 10996 ] final -105.08 input  -57.11 | X-H torsion

> <Gold.Protein.ActiveResidues>
 VAL166  LYS551  ARG553  GLY616  TRP617  ASP618  TYR619  PRO620  LYS621  CYS622 
 ASP623  PHE694  ASN695  SER759  ASP760  ASP761  ALA762  ILE779  LEU786  VAL792 
 PHE793  MET794  SER795  GLU796  ALA797  LYS798  CYS799  TRP800  GLU811  SER814 

> <Gold.Protein.RotatedAtoms>
  151.4243  135.1002  159.9622 H   0  0  0  0  0  0  0  0  0  0  0  0  # atno 6907 bound_to 6896
  152.4978  133.8677  159.7293 H   0  0  0  0  0  0  0  0  0  0  0  0  # atno 6908 bound_to 6896
  150.9201  133.6834  159.2862 H   0  0  0  0  0  0  0  0  0  0  0  0  # atno 6909 bound_to 6896
  145.9185  140.7854  142.9659 H   0  0  0  0  0  0  0  0  0  0  0  0  # atno 7974 bound_to 7965
  156.0952  140.1429  156.9540 H   0  0  0  0  0  0  0  0  0  0  0  0  # atno 8008 bound_to 7997
  154.4667  140.0924  156.7085 H   0  0  0  0  0  0  0  0  0  0  0  0  # atno 8009 bound_to 7997
  155.4852  140.3446  155.4348 H   0  0  0  0  0  0  0  0  0  0  0  0  # atno 8010 bound_to 7997
  140.5896  143.2339  151.6167 H   0  0  0  0  0  0  0  0  0  0  0  0  # atno 10167 bound_to 10162
  157.0733  131.0372  151.2603 H   0  0  0  0  0  0  0  0  0  0  0  0  # atno 10718 bound_to 10713
  154.0457  135.6638  153.4795 H   0  0  0  0  0  0  0  0  0  0  0  0  # atno 10763 bound_to 10752
  153.0483  135.5100  154.7799 H   0  0  0  0  0  0  0  0  0  0  0  0  # atno 10764 bound_to 10752
  154.6789  135.3042  154.9606 H   0  0  0  0  0  0  0  0  0  0  0  0  # atno 10765 bound_to 10752
  141.1070  133.8777  157.1690 H   0  0  0  0  0  0  0  0  0  0  0  0  # atno 11005 bound_to 11000
  144.6750  140.1938  143.7394 LP  0  0  0  0  0  0  0  0  0  0  0  0  # atno 17320 bound_to 7965
  145.8580  139.2208  143.1733 LP  0  0  0  0  0  0  0  0  0  0  0  0  # atno 17321 bound_to 7965
  139.5219  144.3178  152.0937 LP  0  0  0  0  0  0  0  0  0  0  0  0  # atno 17342 bound_to 10162
  140.2340  144.4338  150.6288 LP  0  0  0  0  0  0  0  0  0  0  0  0  # atno 17343 bound_to 10162
  157.4860  130.7793  149.7460 LP  0  0  0  0  0  0  0  0  0  0  0  0  # atno 17370 bound_to 10713
  155.9944  130.3918  150.2860 LP  0  0  0  0  0  0  0  0  0  0  0  0  # atno 17371 bound_to 10713
  139.9945  135.0052  157.0052 LP  0  0  0  0  0  0  0  0  0  0  0  0  # atno 17394 bound_to 11000
  140.4875  134.1227  155.7227 LP  0  0  0  0  0  0  0  0  0  0  0  0  # atno 17395 bound_to 11000

$$$$
