AV-unprocessed.smi:1382|AV-procd|sdf|5621|dock3
  -GOLD-   22720 5233D 1   1.00000     0.00000
 Structure written by MMmdl.
 44 45  0  0  0  0  0  0  0  0  1 V2000
  152.0550  144.8101  158.4458 C   0  0  0  0  0  0  0  0  0  0  0  0
  151.1903  143.9122  157.5547 C   0  0  0  0  0  0  0  0  0  0  0  0
  151.2919  142.4275  157.9397 C   0  0  0  0  0  0  0  0  0  0  0  0
  150.4665  141.4847  157.0398 C   0  0  0  0  0  0  0  0  0  0  0  0
  150.4457  140.1032  157.4867 N   0  0  0  0  0  0  0  0  0  0  0  0
  149.2978  139.4371  157.9303 C   0  0  0  0  0  0  0  0  0  0  0  0
  148.1008  140.1379  157.9543 N   0  0  0  0  0  0  0  0  0  0  0  0
  149.3345  138.1281  158.3232 C   0  0  0  0  0  0  0  0  0  0  0  0
  148.1879  137.4717  158.8064 N   0  0  0  0  0  0  0  0  0  0  0  0
  147.0623  137.3248  157.8792 C   0  0  0  0  0  0  0  0  0  0  0  0
  148.1145  136.9341  160.0516 C   0  0  0  0  0  0  0  0  0  0  0  0
  149.0797  136.9505  160.8179 O   0  0  0  0  0  0  0  0  0  0  0  0
  146.7795  136.3111  160.5379 C   0  0  1  0  0  0  0  0  0  0  0  0
  146.9233  134.9951  161.3128 C   0  0  0  0  0  0  0  0  0  0  0  0
  147.2427  135.4339  162.7351 C   0  0  0  0  0  0  0  0  0  0  0  0
  146.7767  136.8922  162.7888 C   0  0  0  0  0  0  0  0  0  0  0  0
  146.1729  137.1428  161.5229 O   0  0  0  0  0  0  0  0  0  0  0  0
  150.6031  137.3876  158.3390 C   0  0  0  0  0  0  0  0  0  0  0  0
  150.7502  136.2225  158.7067 O   0  0  0  0  0  0  0  0  0  0  0  0
  151.7086  138.1102  157.8993 N   0  0  0  0  0  0  0  0  0  0  0  0
  151.6926  139.4330  157.4725 C   0  0  0  0  0  0  0  0  0  0  0  0
  152.7440  139.9624  157.1107 O   0  0  0  0  0  0  0  0  0  0  0  0
  152.5992  137.6348  157.8950 H   0  0  0  0  0  0  0  0  0  0  0  0
  151.9613  145.8554  158.1513 H   0  0  0  0  0  0  0  0  0  0  0  0
  153.1084  144.5376  158.3754 H   0  0  0  0  0  0  0  0  0  0  0  0
  151.7568  144.7311  159.4916 H   0  0  0  0  0  0  0  0  0  0  0  0
  150.1536  144.2435  157.6201 H   0  0  0  0  0  0  0  0  0  0  0  0
  151.4929  144.0419  156.5152 H   0  0  0  0  0  0  0  0  0  0  0  0
  152.3370  142.1200  157.8918 H   0  0  0  0  0  0  0  0  0  0  0  0
  150.9928  142.3028  158.9809 H   0  0  0  0  0  0  0  0  0  0  0  0
  149.4344  141.8220  156.9584 H   0  0  0  0  0  0  0  0  0  0  0  0
  150.8390  141.4856  156.0135 H   0  0  0  0  0  0  0  0  0  0  0  0
  148.0440  141.1033  157.6625 H   0  0  0  0  0  0  0  0  0  0  0  0
  147.2316  139.6987  158.2214 H   0  0  0  0  0  0  0  0  0  0  0  0
  146.8699  136.2717  157.6692 H   0  0  0  0  0  0  0  0  0  0  0  0
  147.2560  137.8227  156.9279 H   0  0  0  0  0  0  0  0  0  0  0  0
  146.1555  137.7645  158.2974 H   0  0  0  0  0  0  0  0  0  0  0  0
  146.1125  136.1756  159.6869 H   0  0  0  0  0  0  0  0  0  0  0  0
  145.9687  134.4676  161.3009 H   0  0  0  0  0  0  0  0  0  0  0  0
  147.6691  134.3138  160.9014 H   0  0  0  0  0  0  0  0  0  0  0  0
  146.7300  134.8106  163.4684 H   0  0  0  0  0  0  0  0  0  0  0  0
  148.3138  135.3718  162.9316 H   0  0  0  0  0  0  0  0  0  0  0  0
  146.0648  137.0721  163.5943 H   0  0  0  0  0  0  0  0  0  0  0  0
  147.6243  137.5643  162.9301 H   0  0  0  0  0  0  0  0  0  0  0  0
  1  2  1  0  0  0  0
  1 24  1  0  0  0  0
  1 25  1  0  0  0  0
  1 26  1  0  0  0  0
  2  3  1  0  0  0  0
  2 27  1  0  0  0  0
  2 28  1  0  0  0  0
  3  4  1  0  0  0  0
  3 29  1  0  0  0  0
  3 30  1  0  0  0  0
  4  5  1  0  0  0  0
  4 31  1  0  0  0  0
  4 32  1  0  0  0  0
  5 21  1  0  0  0  0
  5  6  1  0  0  0  0
  6  7  1  0  0  0  0
  6  8  2  0  0  0  0
  7 33  1  0  0  0  0
  7 34  1  0  0  0  0
  8  9  1  0  0  0  0
  8 18  1  0  0  0  0
  9 10  1  0  0  0  0
  9 11  1  0  0  0  0
 10 35  1  0  0  0  0
 10 36  1  0  0  0  0
 10 37  1  0  0  0  0
 11 12  2  0  0  0  0
 11 13  1  0  0  0  0
 13 17  1  0  0  0  0
 13 14  1  0  0  0  0
 13 38  1  0  0  0  0
 14 15  1  0  0  0  0
 14 39  1  0  0  0  0
 14 40  1  0  0  0  0
 15 16  1  0  0  0  0
 15 41  1  0  0  0  0
 15 42  1  0  0  0  0
 16 17  1  0  0  0  0
 16 43  1  0  0  0  0
 16 44  1  0  0  0  0
 18 19  2  0  0  0  0
 18 20  1  0  0  0  0
 20 23  1  0  0  0  0
 20 21  1  0  0  0  0
 21 22  2  0  0  0  0
M  END
> <s_m_source_file>
AV-unprocessed.smi

> <i_m_source_file_index>
1382

> <i_lp_mmshare_version>
43012

> <i_f3d_flags>
0

> <s_epik_input>
W0NIM11bQ0gyXVtDSDJdW0NIMl1uMWMoW05IMl0pYyhjKD1PKVtuSF1jMT1PKU4oW0NIM10pQyg9TylbQ0BASF0yW0NIMl1bQ0gyXVtDSDJdTzI=

> <s_epik_cmdline>
J2VwaWtfcHl0aG9uJywgJy1waCcsICc3LjAnLCAnLXRuJywgJzgnLCAnLW1hJywgJzIwMCcsICctbWV0YWxfYmluZGluZycsICctaW1hZScsICc8aW5maWxlLm1hZT4nLCAnLW9tYWUnLCAnPG91dGZpbGUubWFlPic=

> <r_lp_tautomer_probability>
1

> <r_epik_Ionization_Penalty>
1.19634e-05

> <r_epik_Ionization_Penalty_Charging>
6.01811e-06

> <r_epik_Ionization_Penalty_Neutral>
5.94533e-06

> <r_epik_State_Penalty>
-0

> <r_epik_Charging_Adjusted_Penalty>
6.01811e-06

> <i_epik_Tot_Q>
0

> <i_epik_Tot_abs_Q>
0

> <r_epik_Metal_State_Penalty>
-0

> <b_epik_Metal_Only>
0

> <s_epik_Chemistry_Notes>
This compound has an imine and may undergo hydrolysis.

> <s_lp_Force_Field>
OPLS_2005

> <r_lp_Energy>
42.8449

> <b_lp_Chiralities_Consistent>
1

> <s_lp_Variant>
AV-unprocessed.smi:1382-2

> <Gold.Version>
5.8.1

> <Gold.Id.Protein>
6NUR|6NUR_protein|mol2

> <Gold.PLP.Fitness>
44.3333

> <Gold.PLP.PLP>
-34.5371

> <Gold.PLP.part.hbond>
-4.0000

> <Gold.PLP.part.metal>
0.0000

> <Gold.PLP.part.buried>
-3.6161

> <Gold.PLP.part.nonpolar>
-28.3031

> <Gold.PLP.part.repulsive>
0.2324

> <Gold.PLP.ligand.clash>
0.0133

> <Gold.PLP.ligand.torsion>
1.5085

> <Gold.PLP.Chemscore.Hbond>
3.5113

> <Gold.PLP.Chemscore.CHOScore>
0.0000

> <Gold.PLP.Chemscore.Metal>
0.0000

> <Gold.Chemscore.Hbonds>
donor molecule, donor type, donor heavy atom, donor atom, acceptor molecule, acceptor atom, score
      P1  H  6896  6907       L1    19  0.88
      P1  H  6931  6943       L1    12  0.82
      P1  H  6934  6947       L1    17  0.51
      P1  H  7997  8008       L1    22  1.00

> <Gold.PLP.Chemscore.Internal.Correction>
2.2929

> <Gold.Rescore>
     Score         DG    S(hbond)    S(metal)    S(lipo)     H(rot)  DE(clash)    DE(int)     intcor
     14.30     -17.98       2.65        0.00      68.22       1.69       0.22       3.47       ----

> <Gold.Chemscore.Fitness>
14.2962

> <Gold.Chemscore.DG>
-17.9831

> <Gold.Chemscore.ZeroCoef>
-5.4800

> <Gold.Chemscore.Hbond>
2.6521

> <Gold.Chemscore.Metal>
0.0000

> <Gold.Chemscore.Lipo>
68.2249

> <Gold.Chemscore.Internal_Hbond>
0.0000

> <Gold.Chemscore.DEClash>
0.2213

> <Gold.Chemscore.DEInternal>
3.4656

> <Gold.Chemscore.Rot>
1.6942

> <Gold.Chemscore.Internal.Correction>
   9.000000E+99

> <Gold.Chemscore.Hbonds>
donor molecule, donor type, donor heavy atom, donor atom, acceptor molecule, acceptor atom, score
      P1  H  6896  6907       L1    19  0.86
      P1  H  6931  6943       L1    12  0.70
      P1  H  6934  6947       L1    17  0.03
      P1  H  7997  8008       L1    22  1.00

> <Gold.Chemscore.Hbond.Weighted>
-8.8580

> <Gold.Chemscore.Metal.Weighted>
-0.0000

> <Gold.Chemscore.Lipo.Weighted>
-7.9823

> <Gold.Chemscore.Internal_Hbond.Weighted>
0.0000

> <Gold.Chemscore.DEClash.Weighted>
0.2213

> <Gold.Chemscore.DEInternal.Weighted>
3.4656

> <Gold.Chemscore.Rot.Weighted>
4.3372

> <Gold.Chemscore.Internal.Correction.Weighted>
   9.000000E+99

> <Gold.Protein.RotatedTorsions>
[ 6907 6896 6895 6894 ] final  -41.28 input  -60.11 | X-H torsion
[ 7974 7965 7964 7962 ] final   31.52 input  175.53 | X-H torsion
[ 8008 7997 7996 7995 ] final  -58.63 input   59.86 | X-H torsion
[ 10167 10162 10161 10158 ] final  -63.04 input  -65.29 | X-H torsion
[ 10718 10713 10712 10709 ] final  -28.78 input   66.30 | X-H torsion
[ 10763 10752 10751 10750 ] final   42.99 input  -60.55 | X-H torsion
[ 11005 11000 10999 10996 ] final  120.29 input  -57.11 | X-H torsion

> <Gold.Protein.ActiveResidues>
 VAL166  LYS551  ARG553  GLY616  TRP617  ASP618  TYR619  PRO620  LYS621  CYS622 
 ASP623  PHE694  ASN695  SER759  ASP760  ASP761  ALA762  ILE779  LEU786  VAL792 
 PHE793  MET794  SER795  GLU796  ALA797  LYS798  CYS799  TRP800  GLU811  SER814 

> <Gold.Protein.RotatedAtoms>
  150.9686  134.9063  159.7774 H   0  0  0  0  0  0  0  0  0  0  0  0  # atno 6907 bound_to 6896
  152.5182  134.3572  159.9282 H   0  0  0  0  0  0  0  0  0  0  0  0  # atno 6908 bound_to 6896
  151.3582  133.3859  159.2721 H   0  0  0  0  0  0  0  0  0  0  0  0  # atno 6909 bound_to 6896
  146.1545  139.6646  142.9076 H   0  0  0  0  0  0  0  0  0  0  0  0  # atno 7974 bound_to 7965
  154.4317  140.1080  156.5988 H   0  0  0  0  0  0  0  0  0  0  0  0  # atno 8008 bound_to 7997
  155.5934  140.3492  155.4554 H   0  0  0  0  0  0  0  0  0  0  0  0  # atno 8009 bound_to 7997
  156.0229  140.1243  157.0328 H   0  0  0  0  0  0  0  0  0  0  0  0  # atno 8010 bound_to 7997
  140.5898  143.2340  151.6164 H   0  0  0  0  0  0  0  0  0  0  0  0  # atno 10167 bound_to 10162
  156.4209  130.4426  149.7184 H   0  0  0  0  0  0  0  0  0  0  0  0  # atno 10718 bound_to 10713
  152.9870  135.6115  154.3038 H   0  0  0  0  0  0  0  0  0  0  0  0  # atno 10763 bound_to 10752
  154.2757  135.2778  155.2720 H   0  0  0  0  0  0  0  0  0  0  0  0  # atno 10764 bound_to 10752
  154.5082  135.5848  153.6641 H   0  0  0  0  0  0  0  0  0  0  0  0  # atno 10765 bound_to 10752
  139.9179  134.9634  156.7785 H   0  0  0  0  0  0  0  0  0  0  0  0  # atno 11005 bound_to 11000
  145.4743  141.0437  143.2681 LP  0  0  0  0  0  0  0  0  0  0  0  0  # atno 17320 bound_to 7965
  144.7945  139.6261  143.7098 LP  0  0  0  0  0  0  0  0  0  0  0  0  # atno 17321 bound_to 7965
  139.5220  144.3175  152.0939 LP  0  0  0  0  0  0  0  0  0  0  0  0  # atno 17342 bound_to 10162
  140.2338  144.4341  150.6289 LP  0  0  0  0  0  0  0  0  0  0  0  0  # atno 17343 bound_to 10162
  156.4126  130.7729  151.2743 LP  0  0  0  0  0  0  0  0  0  0  0  0  # atno 17370 bound_to 10713
  157.7508  131.0207  150.3719 LP  0  0  0  0  0  0  0  0  0  0  0  0  # atno 17371 bound_to 10713
  140.6563  133.9685  155.7781 LP  0  0  0  0  0  0  0  0  0  0  0  0  # atno 17394 bound_to 11000
  141.0673  134.0257  157.3575 LP  0  0  0  0  0  0  0  0  0  0  0  0  # atno 17395 bound_to 11000

$$$$
