AV-unprocessed.smi:1507|AV-procd|sdf|6080|dock1
  -GOLD-   22720 6203D 1   1.00000     0.00000
 Structure written by MMmdl.
 34 35  0  0  0  0  0  0  0  0  1 V2000
  148.6346  136.1815  154.3552 N   0  0  0  0  0  0  0  0  0  0  0  0
  150.1274  136.5303  155.1329 S   0  0  0  0  0  0  0  0  0  0  0  0
  149.8522  137.2790  156.3683 O   0  0  0  0  0  0  0  0  0  0  0  0
  150.9478  135.3100  155.1493 O   0  0  0  0  0  0  0  0  0  0  0  0
  150.7895  137.6165  153.9721 N   0  0  0  0  0  0  0  0  0  0  0  0
  150.2585  138.9729  153.8627 C   0  0  0  0  0  0  0  0  0  0  0  0
  150.6381  139.8407  155.0457 C   0  0  0  0  0  0  0  0  0  0  0  0
  151.5713  139.3974  156.0026 C   0  0  0  0  0  0  0  0  0  0  0  0
  151.8905  140.2409  157.0841 C   0  0  0  0  0  0  0  0  0  0  0  0
  151.2659  141.5079  157.1811 C   0  0  0  0  0  0  0  0  0  0  0  0
  151.5673  142.3677  158.2598 N   0  0  0  0  0  0  0  0  0  0  0  0
  151.7834  143.7694  157.9090 C   0  0  0  0  0  0  0  0  0  0  0  0
  151.8007  144.6440  159.1749 C   0  0  0  0  0  0  0  0  0  0  0  0
  152.7699  144.1474  160.0915 O   0  0  0  0  0  0  0  0  0  0  0  0
  152.4723  142.8188  160.5068 C   0  0  0  0  0  0  0  0  0  0  0  0
  152.4852  141.8807  159.2884 C   0  0  0  0  0  0  0  0  0  0  0  0
  150.3746  141.9318  156.2502 N   0  0  0  0  0  0  0  0  0  0  0  0
  150.0702  141.1187  155.2170 C   0  0  0  0  0  0  0  0  0  0  0  0
  148.1922  135.3523  154.7502 H   0  0  0  0  0  0  0  0  0  0  0  0
  148.7548  136.0931  153.3463 H   0  0  0  0  0  0  0  0  0  0  0  0
  151.0621  137.1853  153.0893 H   0  0  0  0  0  0  0  0  0  0  0  0
  150.6468  139.4365  152.9549 H   0  0  0  0  0  0  0  0  0  0  0  0
  149.1746  138.9240  153.7535 H   0  0  0  0  0  0  0  0  0  0  0  0
  152.0395  138.4284  155.9114 H   0  0  0  0  0  0  0  0  0  0  0  0
  152.6161  139.9138  157.8134 H   0  0  0  0  0  0  0  0  0  0  0  0
  152.7350  143.8564  157.3829 H   0  0  0  0  0  0  0  0  0  0  0  0
  151.0139  144.1408  157.2340 H   0  0  0  0  0  0  0  0  0  0  0  0
  152.0520  145.6728  158.9161 H   0  0  0  0  0  0  0  0  0  0  0  0
  150.8167  144.6660  159.6458 H   0  0  0  0  0  0  0  0  0  0  0  0
  153.2180  142.4985  161.2345 H   0  0  0  0  0  0  0  0  0  0  0  0
  151.5045  142.7908  161.0100 H   0  0  0  0  0  0  0  0  0  0  0  0
  152.2008  140.8760  159.6039 H   0  0  0  0  0  0  0  0  0  0  0  0
  153.4931  141.8208  158.8747 H   0  0  0  0  0  0  0  0  0  0  0  0
  149.3538  141.5015  154.5049 H   0  0  0  0  0  0  0  0  0  0  0  0
  1  2  1  0  0  0  0
  1 19  1  0  0  0  0
  1 20  1  0  0  0  0
  2  3  2  0  0  0  0
  2  4  2  0  0  0  0
  2  5  1  0  0  0  0
  5  6  1  0  0  0  0
  5 21  1  0  0  0  0
  6  7  1  0  0  0  0
  6 22  1  0  0  0  0
  6 23  1  0  0  0  0
  7 18  1  0  0  0  0
  7  8  2  0  0  0  0
  8  9  1  0  0  0  0
  8 24  1  0  0  0  0
  9 10  2  0  0  0  0
  9 25  1  0  0  0  0
 10 11  1  0  0  0  0
 10 17  1  0  0  0  0
 11 16  1  0  0  0  0
 11 12  1  0  0  0  0
 12 13  1  0  0  0  0
 12 26  1  0  0  0  0
 12 27  1  0  0  0  0
 13 14  1  0  0  0  0
 13 28  1  0  0  0  0
 13 29  1  0  0  0  0
 14 15  1  0  0  0  0
 15 16  1  0  0  0  0
 15 30  1  0  0  0  0
 15 31  1  0  0  0  0
 16 32  1  0  0  0  0
 16 33  1  0  0  0  0
 17 18  2  0  0  0  0
 18 34  1  0  0  0  0
M  END
> <s_m_source_file>
AV-unprocessed.smi

> <i_m_source_file_index>
1507

> <i_lp_mmshare_version>
43012

> <i_f3d_flags>
0

> <s_epik_input>
W05IMl1TKD1PKSg9TylbTkhdW0NIMl1jMVtjSF1bY0hdYyhuW2NIXTEpTjJbQ0gyXVtDSDJdT1tDSDJdW0NIMl0y

> <s_epik_cmdline>
J2VwaWtfcHl0aG9uJywgJy1waCcsICc3LjAnLCAnLXRuJywgJzgnLCAnLW1hJywgJzIwMCcsICctbWV0YWxfYmluZGluZycsICctaW1hZScsICc8aW5maWxlLm1hZT4nLCAnLW9tYWUnLCAnPG91dGZpbGUubWFlPic=

> <r_lp_tautomer_probability>
1

> <r_epik_Ionization_Penalty>
0.193648

> <r_epik_Ionization_Penalty_Charging>
0

> <r_epik_Ionization_Penalty_Neutral>
0.193648

> <r_epik_State_Penalty>
0.187016

> <r_epik_Charging_Adjusted_Penalty>
0.187016

> <i_epik_Tot_Q>
0

> <i_epik_Tot_abs_Q>
0

> <r_epik_Metal_State_Penalty>
0.77957

> <b_epik_Metal_Only>
0

> <s_lp_Force_Field>
OPLS_2005

> <r_lp_Energy>
21.8842

> <b_lp_Chiralities_Consistent>
1

> <s_lp_Variant>
AV-unprocessed.smi:1507-1

> <Gold.Version>
5.8.1

> <Gold.Id.Protein>
6NUR|6NUR_protein|mol2

> <Gold.PLP.Fitness>
41.9596

> <Gold.PLP.PLP>
-33.7086

> <Gold.PLP.part.hbond>
-3.7490

> <Gold.PLP.part.metal>
0.0000

> <Gold.PLP.part.buried>
-1.6778

> <Gold.PLP.part.nonpolar>
-28.6638

> <Gold.PLP.part.repulsive>
0.2563

> <Gold.PLP.ligand.clash>
0.0000

> <Gold.PLP.ligand.torsion>
0.5774

> <Gold.PLP.Chemscore.Hbond>
2.9920

> <Gold.PLP.Chemscore.CHOScore>
0.0000

> <Gold.PLP.Chemscore.Metal>
0.0000

> <Gold.Chemscore.Hbonds>
donor molecule, donor type, donor heavy atom, donor atom, acceptor molecule, acceptor atom, score
      L1  H     1    20       P1  7948  0.91
      L1  H     5    21       P1  7949  1.00
      P1  H 10752 10764       L1     4  0.93

> <Gold.PLP.Chemscore.Internal.Correction>
0.4299

> <Gold.Rescore>
     Score         DG    S(hbond)    S(metal)    S(lipo)     H(rot)  DE(clash)    DE(int)     intcor
     13.61     -15.37       2.08        0.00      79.17       2.47       0.05       1.71       ----

> <Gold.Chemscore.Fitness>
13.6083

> <Gold.Chemscore.DG>
-15.3654

> <Gold.Chemscore.ZeroCoef>
-5.4800

> <Gold.Chemscore.Hbond>
2.0773

> <Gold.Chemscore.Metal>
0.0000

> <Gold.Chemscore.Lipo>
79.1707

> <Gold.Chemscore.Internal_Hbond>
0.0000

> <Gold.Chemscore.DEClash>
0.0463

> <Gold.Chemscore.DEInternal>
1.7108

> <Gold.Chemscore.Rot>
2.4671

> <Gold.Chemscore.Internal.Correction>
   9.000000E+99

> <Gold.Chemscore.Hbonds>
donor molecule, donor type, donor heavy atom, donor atom, acceptor molecule, acceptor atom, score
      L1  H     1    20       P1  7948  0.87
      L1  H     5    21       P1  7949  0.33
      P1  H 10752 10764       L1     4  0.80

> <Gold.Chemscore.Hbond.Weighted>
-6.9381

> <Gold.Chemscore.Metal.Weighted>
-0.0000

> <Gold.Chemscore.Lipo.Weighted>
-9.2630

> <Gold.Chemscore.Internal_Hbond.Weighted>
0.0000

> <Gold.Chemscore.DEClash.Weighted>
0.0463

> <Gold.Chemscore.DEInternal.Weighted>
1.7108

> <Gold.Chemscore.Rot.Weighted>
6.3157

> <Gold.Chemscore.Internal.Correction.Weighted>
   9.000000E+99

> <Gold.Protein.RotatedTorsions>
[ 6907 6896 6895 6894 ] final  -37.85 input  -60.11 | X-H torsion
[ 7974 7965 7964 7962 ] final  -87.95 input  175.53 | X-H torsion
[ 8008 7997 7996 7995 ] final -171.08 input   59.86 | X-H torsion
[ 10167 10162 10161 10158 ] final  104.01 input  -65.29 | X-H torsion
[ 10718 10713 10712 10709 ] final -110.32 input   66.30 | X-H torsion
[ 10763 10752 10751 10750 ] final  -52.53 input  -60.55 | X-H torsion
[ 11005 11000 10999 10996 ] final  -87.54 input  -57.11 | X-H torsion

> <Gold.Protein.ActiveResidues>
 VAL166  LYS551  ARG553  GLY616  TRP617  ASP618  TYR619  PRO620  LYS621  CYS622 
 ASP623  PHE694  ASN695  SER759  ASP760  ASP761  ALA762  ILE779  LEU786  VAL792 
 PHE793  MET794  SER795  GLU796  ALA797  LYS798  CYS799  TRP800  GLU811  SER814 

> <Gold.Protein.RotatedAtoms>
  151.0097  134.9387  159.7999 H   0  0  0  0  0  0  0  0  0  0  0  0  # atno 6907 bound_to 6896
  152.5299  134.3045  159.9101 H   0  0  0  0  0  0  0  0  0  0  0  0  # atno 6908 bound_to 6896
  151.3051  133.4063  159.2677 H   0  0  0  0  0  0  0  0  0  0  0  0  # atno 6909 bound_to 6896
  145.4597  140.9561  143.1976 H   0  0  0  0  0  0  0  0  0  0  0  0  # atno 7974 bound_to 7965
  155.9268  140.1084  157.1164 H   0  0  0  0  0  0  0  0  0  0  0  0  # atno 8008 bound_to 7997
  154.4063  140.1245  156.4816 H   0  0  0  0  0  0  0  0  0  0  0  0  # atno 8009 bound_to 7997
  155.7129  140.3470  155.4984 H   0  0  0  0  0  0  0  0  0  0  0  0  # atno 8010 bound_to 7997
  139.7214  144.7057  151.0866 H   0  0  0  0  0  0  0  0  0  0  0  0  # atno 10167 bound_to 10162
  156.0584  130.5809  150.8220 H   0  0  0  0  0  0  0  0  0  0  0  0  # atno 10718 bound_to 10713
  154.1442  135.6500  153.4949 H   0  0  0  0  0  0  0  0  0  0  0  0  # atno 10763 bound_to 10752
  153.0157  135.5322  154.6874 H   0  0  0  0  0  0  0  0  0  0  0  0  # atno 10764 bound_to 10752
  154.6144  135.2957  155.0367 H   0  0  0  0  0  0  0  0  0  0  0  0  # atno 10765 bound_to 10752
  141.1615  133.7517  156.9321 H   0  0  0  0  0  0  0  0  0  0  0  0  # atno 11005 bound_to 11000
  144.8010  139.6141  143.7071 LP  0  0  0  0  0  0  0  0  0  0  0  0  # atno 17320 bound_to 7965
  146.2458  139.6095  142.9461 LP  0  0  0  0  0  0  0  0  0  0  0  0  # atno 17321 bound_to 7965
  140.7754  143.5161  150.9593 LP  0  0  0  0  0  0  0  0  0  0  0  0  # atno 17342 bound_to 10162
  139.8848  143.7027  152.3152 LP  0  0  0  0  0  0  0  0  0  0  0  0  # atno 17343 bound_to 10162
  157.5573  131.0945  150.9610 LP  0  0  0  0  0  0  0  0  0  0  0  0  # atno 17370 bound_to 10713
  156.9855  130.5543  149.5299 LP  0  0  0  0  0  0  0  0  0  0  0  0  # atno 17371 bound_to 10713
  140.1379  134.9313  157.2427 LP  0  0  0  0  0  0  0  0  0  0  0  0  # atno 17394 bound_to 11000
  140.2872  134.3282  155.7325 LP  0  0  0  0  0  0  0  0  0  0  0  0  # atno 17395 bound_to 11000

$$$$
