AV-unprocessed.smi:662|AV-procd|sdf|3243|dock10
  -GOLD-   22720 0193D 1   1.00000     0.00000
 Structure written by MMmdl.
 34 35  0  0  0  0  0  0  0  0  2 V2000
  149.7371  140.2217  154.8641 O   0  0  0  0  0  0  0  0  0  0  0  0
  149.7575  141.3861  155.2619 C   0  0  0  0  0  0  0  0  0  0  0  0
  148.7883  142.2692  154.9637 N   0  0  0  0  0  0  0  0  0  0  0  0
  147.6090  141.9724  154.1577 C   0  0  0  0  0  0  0  0  0  0  0  0
  146.3118  142.1563  154.9612 C   0  0  0  0  0  0  0  0  0  0  0  0
  145.5750  143.3938  154.5736 C   0  0  0  0  0  0  0  0  0  0  0  0
  144.8080  144.0872  155.4185 N   0  0  0  0  0  0  0  0  0  0  0  0
  144.1935  145.1890  154.8134 C   0  0  0  0  0  0  0  0  0  0  0  0
  143.3021  146.0844  155.6249 C   0  0  0  0  0  0  0  0  0  0  0  0
  142.2981  145.4050  156.1795 F   0  0  0  0  0  0  0  0  0  0  0  0
  143.9805  146.6726  156.6097 F   0  0  0  0  0  0  0  0  0  0  0  0
  142.7683  147.0438  154.8696 F   0  0  0  0  0  0  0  0  0  0  0  0
  144.5020  145.3095  153.4800 C   0  0  0  0  0  0  0  0  0  0  0  0
  145.5711  144.0445  152.9394 S   0  0  0  0  0  0  0  0  0  0  0  0
  150.9390  141.8601  156.1260 C   0  0  2  0  0  0  0  0  0  0  0  0
  150.9511  141.1628  157.4930 C   0  0  0  0  0  0  0  0  0  0  0  0
  151.7405  142.1252  158.3671 C   0  0  0  0  0  0  0  0  0  0  0  0
  151.3643  143.5033  157.8207 C   0  0  0  0  0  0  0  0  0  0  0  0
  150.9241  143.3112  156.4227 N   0  3  0  0  0  0  0  0  0  0  0  0
  148.8718  143.2136  155.3092 H   0  0  0  0  0  0  0  0  0  0  0  0
  147.6094  142.6409  153.2962 H   0  0  0  0  0  0  0  0  0  0  0  0
  147.6721  140.9573  153.7613 H   0  0  0  0  0  0  0  0  0  0  0  0
  145.6500  141.3009  154.8187 H   0  0  0  0  0  0  0  0  0  0  0  0
  146.5338  142.2045  156.0278 H   0  0  0  0  0  0  0  0  0  0  0  0
  144.1623  146.0624  152.7842 H   0  0  0  0  0  0  0  0  0  0  0  0
  151.8688  141.6418  155.5989 H   0  0  0  0  0  0  0  0  0  0  0  0
  149.9391  141.0588  157.8890 H   0  0  0  0  0  0  0  0  0  0  0  0
  151.4001  140.1696  157.4563 H   0  0  0  0  0  0  0  0  0  0  0  0
  151.5220  142.0149  159.4298 H   0  0  0  0  0  0  0  0  0  0  0  0
  152.8083  141.9523  158.2252 H   0  0  0  0  0  0  0  0  0  0  0  0
  150.5323  143.9235  158.3867 H   0  0  0  0  0  0  0  0  0  0  0  0
  152.1968  144.2051  157.8789 H   0  0  0  0  0  0  0  0  0  0  0  0
  151.5317  143.8002  155.7808 H   0  0  0  0  0  0  0  0  0  0  0  0
  149.9787  143.6549  156.3357 H   0  0  0  0  0  0  0  0  0  0  0  0
  1  2  2  0  0  0  0
  2  3  1  0  0  0  0
  2 15  1  0  0  0  0
  3  4  1  0  0  0  0
  3 20  1  0  0  0  0
  4  5  1  0  0  0  0
  4 21  1  0  0  0  0
  4 22  1  0  0  0  0
  5  6  1  0  0  0  0
  5 23  1  0  0  0  0
  5 24  1  0  0  0  0
  6 14  1  0  0  0  0
  6  7  2  0  0  0  0
  7  8  1  0  0  0  0
  8  9  1  0  0  0  0
  8 13  2  0  0  0  0
  9 10  1  0  0  0  0
  9 11  1  0  0  0  0
  9 12  1  0  0  0  0
 13 14  1  0  0  0  0
 13 25  1  0  0  0  0
 15 19  1  0  0  0  0
 15 16  1  0  0  0  0
 15 26  1  0  0  0  0
 16 17  1  0  0  0  0
 16 27  1  0  0  0  0
 16 28  1  0  0  0  0
 17 18  1  0  0  0  0
 17 29  1  0  0  0  0
 17 30  1  0  0  0  0
 18 19  1  0  0  0  0
 18 31  1  0  0  0  0
 18 32  1  0  0  0  0
 19 33  1  0  0  0  0
 19 34  1  0  0  0  0
M  CHG  1  19   1
M  END
> <s_m_source_file>
AV-unprocessed.smi

> <i_m_source_file_index>
662

> <i_lp_mmshare_version>
43012

> <i_f3d_flags>
0

> <s_epik_input>
W05IXTFbQ0gyXVtDSDJdW0NIMl1bQ0BIXTFDKD1PKVtOSF1bQ0gyXVtDSDJdYzJuYyhDKEYpKEYpRilbY0hdczI=

> <s_epik_cmdline>
J2VwaWtfcHl0aG9uJywgJy1waCcsICc3LjAnLCAnLXRuJywgJzgnLCAnLW1hJywgJzIwMCcsICctbWV0YWxfYmluZGluZycsICctaW1hZScsICc8aW5maWxlLm1hZT4nLCAnLW9tYWUnLCAnPG91dGZpbGUubWFlPic=

> <r_epik_Ionization_Penalty>
0.0382401

> <r_epik_Ionization_Penalty_Charging>
0.0382382

> <r_epik_Ionization_Penalty_Neutral>
1.85239e-06

> <r_epik_State_Penalty>
0.0320549

> <r_epik_Charging_Adjusted_Penalty>
0.0702931

> <i_epik_Tot_Q>
1

> <i_epik_Tot_abs_Q>
1

> <r_epik_Metal_State_Penalty>
0.0320549

> <b_epik_Metal_Only>
0

> <s_lp_Force_Field>
OPLS_2005

> <r_lp_Energy>
7.29414

> <b_lp_Chiralities_Consistent>
1

> <s_lp_Variant>
AV-unprocessed.smi:662-1

> <Gold.Version>
5.8.1

> <Gold.Id.Protein>
6NUR|6NUR_protein|mol2

> <Gold.PLP.Fitness>
47.1306

> <Gold.PLP.PLP>
-39.7438

> <Gold.PLP.part.hbond>
-2.0000

> <Gold.PLP.part.metal>
0.0000

> <Gold.PLP.part.buried>
-6.8399

> <Gold.PLP.part.nonpolar>
-31.3586

> <Gold.PLP.part.repulsive>
0.5235

> <Gold.PLP.ligand.clash>
0.0000

> <Gold.PLP.ligand.torsion>
0.7937

> <Gold.PLP.Chemscore.Hbond>
2.9840

> <Gold.PLP.Chemscore.CHOScore>
0.0000

> <Gold.PLP.Chemscore.Metal>
0.0000

> <Gold.Chemscore.Hbonds>
donor molecule, donor type, donor heavy atom, donor atom, acceptor molecule, acceptor atom, score
      L1  H     3    20       P1  8028  1.00
      L1  H    19    34       P1  8028  1.98
      P1  H  7989  7998       L1     1  0.01

> <Gold.PLP.Chemscore.Internal.Correction>
0.0221

> <Gold.Rescore>
     Score         DG    S(hbond)    S(metal)    S(lipo)     H(rot)  DE(clash)    DE(int)     intcor
     15.61     -16.41       1.97        0.00      80.41       1.97       0.03       0.77       ----

> <Gold.Chemscore.Fitness>
15.6090

> <Gold.Chemscore.DG>
-16.4129

> <Gold.Chemscore.ZeroCoef>
-5.4800

> <Gold.Chemscore.Hbond>
1.9663

> <Gold.Chemscore.Metal>
0.0000

> <Gold.Chemscore.Lipo>
80.4090

> <Gold.Chemscore.Internal_Hbond>
0.0000

> <Gold.Chemscore.DEClash>
0.0314

> <Gold.Chemscore.DEInternal>
0.7726

> <Gold.Chemscore.Rot>
1.9697

> <Gold.Chemscore.Internal.Correction>
   9.000000E+99

> <Gold.Chemscore.Hbonds>
donor molecule, donor type, donor heavy atom, donor atom, acceptor molecule, acceptor atom, score
      L1  H     3    20       P1  8028  0.93
      L1  H    19    34       P1  8028  0.93

> <Gold.Chemscore.Hbond.Weighted>
-6.5675

> <Gold.Chemscore.Metal.Weighted>
-0.0000

> <Gold.Chemscore.Lipo.Weighted>
-9.4079

> <Gold.Chemscore.Internal_Hbond.Weighted>
0.0000

> <Gold.Chemscore.DEClash.Weighted>
0.0314

> <Gold.Chemscore.DEInternal.Weighted>
0.7726

> <Gold.Chemscore.Rot.Weighted>
5.0424

> <Gold.Chemscore.Internal.Correction.Weighted>
   9.000000E+99

> <Gold.Protein.RotatedTorsions>
[ 6907 6896 6895 6894 ] final   -1.12 input  -60.11 | X-H torsion
[ 7974 7965 7964 7962 ] final   76.80 input  175.53 | X-H torsion
[ 8008 7997 7996 7995 ] final -155.67 input   59.86 | X-H torsion
[ 10167 10162 10161 10158 ] final  -86.13 input  -65.29 | X-H torsion
[ 10718 10713 10712 10709 ] final   48.71 input   66.30 | X-H torsion
[ 10763 10752 10751 10750 ] final    8.22 input  -60.55 | X-H torsion
[ 11005 11000 10999 10996 ] final   17.84 input  -57.11 | X-H torsion

> <Gold.Protein.ActiveResidues>
 VAL166  LYS551  ARG553  GLY616  TRP617  ASP618  TYR619  PRO620  LYS621  CYS622 
 ASP623  PHE694  ASN695  SER759  ASP760  ASP761  ALA762  ILE779  LEU786  VAL792 
 PHE793  MET794  SER795  GLU796  ALA797  LYS798  CYS799  TRP800  GLU811  SER814 

> <Gold.Protein.RotatedAtoms>
  151.5512  135.1067  159.9949 H   0  0  0  0  0  0  0  0  0  0  0  0  # atno 6907 bound_to 6896
  152.4490  133.7589  159.6746 H   0  0  0  0  0  0  0  0  0  0  0  0  # atno 6908 bound_to 6896
  150.8414  133.7863  159.3084 H   0  0  0  0  0  0  0  0  0  0  0  0  # atno 6909 bound_to 6896
  145.6982  139.2574  143.1720 H   0  0  0  0  0  0  0  0  0  0  0  0  # atno 7974 bound_to 7965
  155.7054  140.0772  157.2393 H   0  0  0  0  0  0  0  0  0  0  0  0  # atno 8008 bound_to 7997
  154.4066  140.1640  156.2290 H   0  0  0  0  0  0  0  0  0  0  0  0  # atno 8009 bound_to 7997
  155.9331  140.3390  155.6268 H   0  0  0  0  0  0  0  0  0  0  0  0  # atno 8010 bound_to 7997
  140.3971  143.2679  151.9191 H   0  0  0  0  0  0  0  0  0  0  0  0  # atno 10167 bound_to 10162
  157.4714  130.8257  149.7991 H   0  0  0  0  0  0  0  0  0  0  0  0  # atno 10718 bound_to 10713
  153.2274  135.6888  153.7929 H   0  0  0  0  0  0  0  0  0  0  0  0  # atno 10763 bound_to 10752
  153.7105  135.3283  155.3246 H   0  0  0  0  0  0  0  0  0  0  0  0  # atno 10764 bound_to 10752
  154.8298  135.4589  154.1146 H   0  0  0  0  0  0  0  0  0  0  0  0  # atno 10765 bound_to 10752
  140.4315  134.1415  155.7681 H   0  0  0  0  0  0  0  0  0  0  0  0  # atno 11005 bound_to 11000
  146.0821  140.7752  142.9636 LP  0  0  0  0  0  0  0  0  0  0  0  0  # atno 17320 bound_to 7965
  144.6976  140.3506  143.7182 LP  0  0  0  0  0  0  0  0  0  0  0  0  # atno 17321 bound_to 7965
  139.4786  144.5671  151.8148 LP  0  0  0  0  0  0  0  0  0  0  0  0  # atno 17342 bound_to 10162
  140.4779  144.1492  150.5928 LP  0  0  0  0  0  0  0  0  0  0  0  0  # atno 17343 bound_to 10162
  156.0075  130.3848  150.2380 LP  0  0  0  0  0  0  0  0  0  0  0  0  # atno 17370 bound_to 10713
  157.0562  131.0077  151.3237 LP  0  0  0  0  0  0  0  0  0  0  0  0  # atno 17371 bound_to 10713
  141.1744  133.8544  157.1470 LP  0  0  0  0  0  0  0  0  0  0  0  0  # atno 17394 bound_to 11000
  140.0131  134.9979  157.0437 LP  0  0  0  0  0  0  0  0  0  0  0  0  # atno 17395 bound_to 11000

$$$$
