AV-unprocessed.smi:1059|AV-procd|sdf|4654|dock8
  -GOLD-   22720 3163D 1   1.00000     0.00000
 Structure written by MMmdl.
 55 56  0  0  0  0  0  0  0  0  2 V2000
  153.0597  141.8337  159.9946 C   0  0  0  0  0  0  0  0  0  0  0  0
  152.2050  142.3440  158.8240 C   0  0  0  0  0  0  0  0  0  0  0  0
  151.3473  143.5407  159.2768 C   0  0  0  0  0  0  0  0  0  0  0  0
  151.3573  141.1926  158.2291 C   0  0  0  0  0  0  0  0  0  0  0  0
  152.1115  140.2176  157.3026 C   0  0  0  0  0  0  0  0  0  0  0  0
  153.0115  139.5187  157.7709 O   0  0  0  0  0  0  0  0  0  0  0  0
  151.7592  140.1509  155.9948 N   0  0  0  0  0  0  0  0  0  0  0  0
  152.4128  139.2424  155.0442 C   0  0  0  0  0  0  0  0  0  0  0  0
  151.4363  138.1092  154.6822 C   0  0  0  0  0  0  0  0  0  0  0  0
  150.1112  138.6697  154.1235 C   0  0  0  0  0  0  0  0  0  0  0  0
  149.1522  137.5825  153.9518 N   0  0  0  0  0  0  0  0  0  0  0  0
  148.4785  136.9828  154.9435 C   0  0  0  0  0  0  0  0  0  0  0  0
  148.6033  137.2857  156.1299 O   0  0  0  0  0  0  0  0  0  0  0  0
  147.6508  136.0366  154.4672 N   0  0  0  0  0  0  0  0  0  0  0  0
  146.7884  135.1726  155.1947 C   0  0  0  0  0  0  0  0  0  0  0  0
  146.9627  135.0919  156.5934 C   0  0  0  0  0  0  0  0  0  0  0  0
  146.1225  134.2554  157.3565 C   0  0  0  0  0  0  0  0  0  0  0  0
  145.1109  133.5153  156.7098 C   0  0  0  0  0  0  0  0  0  0  0  0
  144.2546  132.6691  157.4277 N   0  0  0  0  0  0  0  0  0  0  0  0
  144.9508  131.5418  158.0291 C   0  0  0  0  0  0  0  0  0  0  0  0
  143.3431  133.3934  158.3011 C   0  0  0  0  0  0  0  0  0  0  0  0
  144.9624  133.6307  155.3688 N   0  3  0  0  0  0  0  0  0  0  0  0
  145.7457  134.4191  154.6015 C   0  0  0  0  0  0  0  0  0  0  0  0
  149.5373  139.7730  155.0424 C   0  0  0  0  0  0  0  0  0  0  0  0
  150.6067  140.8263  155.3832 C   0  0  0  0  0  0  0  0  0  0  0  0
  152.4363  141.4580  160.8066 H   0  0  0  0  0  0  0  0  0  0  0  0
  153.6886  142.6275  160.3984 H   0  0  0  0  0  0  0  0  0  0  0  0
  153.7189  141.0243  159.6792 H   0  0  0  0  0  0  0  0  0  0  0  0
  152.8981  142.6975  158.0588 H   0  0  0  0  0  0  0  0  0  0  0  0
  150.6349  143.2461  160.0478 H   0  0  0  0  0  0  0  0  0  0  0  0
  150.7809  143.9745  158.4535 H   0  0  0  0  0  0  0  0  0  0  0  0
  151.9706  144.3342  159.6895 H   0  0  0  0  0  0  0  0  0  0  0  0
  150.9370  140.6016  159.0440 H   0  0  0  0  0  0  0  0  0  0  0  0
  150.5174  141.6273  157.6862 H   0  0  0  0  0  0  0  0  0  0  0  0
  152.6915  139.7978  154.1474 H   0  0  0  0  0  0  0  0  0  0  0  0
  153.3426  138.8220  155.4298 H   0  0  0  0  0  0  0  0  0  0  0  0
  151.8970  137.4401  153.9545 H   0  0  0  0  0  0  0  0  0  0  0  0
  151.2405  137.5100  155.5730 H   0  0  0  0  0  0  0  0  0  0  0  0
  150.3240  139.1102  153.1475 H   0  0  0  0  0  0  0  0  0  0  0  0
  148.9844  137.2724  153.0058 H   0  0  0  0  0  0  0  0  0  0  0  0
  147.5964  135.9603  153.4620 H   0  0  0  0  0  0  0  0  0  0  0  0
  147.7399  135.6618  157.0817 H   0  0  0  0  0  0  0  0  0  0  0  0
  146.2560  134.1840  158.4262 H   0  0  0  0  0  0  0  0  0  0  0  0
  145.5947  131.0480  157.3002 H   0  0  0  0  0  0  0  0  0  0  0  0
  144.2328  130.8075  158.3953 H   0  0  0  0  0  0  0  0  0  0  0  0
  145.5659  131.8657  158.8695 H   0  0  0  0  0  0  0  0  0  0  0  0
  142.8498  134.2029  157.7617 H   0  0  0  0  0  0  0  0  0  0  0  0
  143.8730  133.8195  159.1539 H   0  0  0  0  0  0  0  0  0  0  0  0
  142.5714  132.7229  158.6799 H   0  0  0  0  0  0  0  0  0  0  0  0
  145.4962  134.4199  153.5512 H   0  0  0  0  0  0  0  0  0  0  0  0
  148.6841  140.2567  154.5654 H   0  0  0  0  0  0  0  0  0  0  0  0
  149.1637  139.3292  155.9666 H   0  0  0  0  0  0  0  0  0  0  0  0
  150.1661  141.6030  156.0053 H   0  0  0  0  0  0  0  0  0  0  0  0
  150.9309  141.3336  154.4733 H   0  0  0  0  0  0  0  0  0  0  0  0
  144.2209  133.0978  154.9139 H   0  0  0  0  0  0  0  0  0  0  0  0
  1  2  1  0  0  0  0
  1 26  1  0  0  0  0
  1 27  1  0  0  0  0
  1 28  1  0  0  0  0
  2  3  1  0  0  0  0
  2  4  1  0  0  0  0
  2 29  1  0  0  0  0
  3 30  1  0  0  0  0
  3 31  1  0  0  0  0
  3 32  1  0  0  0  0
  4  5  1  0  0  0  0
  4 33  1  0  0  0  0
  4 34  1  0  0  0  0
  5  6  2  0  0  0  0
  5  7  1  0  0  0  0
  7 25  1  0  0  0  0
  7  8  1  0  0  0  0
  8  9  1  0  0  0  0
  8 35  1  0  0  0  0
  8 36  1  0  0  0  0
  9 10  1  0  0  0  0
  9 37  1  0  0  0  0
  9 38  1  0  0  0  0
 10 11  1  0  0  0  0
 10 24  1  0  0  0  0
 10 39  1  0  0  0  0
 11 12  1  0  0  0  0
 11 40  1  0  0  0  0
 12 13  2  0  0  0  0
 12 14  1  0  0  0  0
 14 15  1  0  0  0  0
 14 41  1  0  0  0  0
 15 23  1  0  0  0  0
 15 16  2  0  0  0  0
 16 17  1  0  0  0  0
 16 42  1  0  0  0  0
 17 18  2  0  0  0  0
 17 43  1  0  0  0  0
 18 19  1  0  0  0  0
 18 22  1  0  0  0  0
 19 20  1  0  0  0  0
 19 21  1  0  0  0  0
 20 44  1  0  0  0  0
 20 45  1  0  0  0  0
 20 46  1  0  0  0  0
 21 47  1  0  0  0  0
 21 48  1  0  0  0  0
 21 49  1  0  0  0  0
 22 23  2  0  0  0  0
 22 55  1  0  0  0  0
 23 50  1  0  0  0  0
 24 25  1  0  0  0  0
 24 51  1  0  0  0  0
 24 52  1  0  0  0  0
 25 53  1  0  0  0  0
 25 54  1  0  0  0  0
M  CHG  1  22   1
M  END
> <s_m_source_file>
AV-unprocessed.smi

> <i_m_source_file_index>
1059

> <i_lp_mmshare_version>
43012

> <i_f3d_flags>
0

> <s_epik_input>
W0NIM11bQ0hdKFtDSDNdKVtDSDJdQyg9TylOMVtDSDJdW0NIMl1bQ0hdKFtDSDJdW0NIMl0xKVtOSF1DKD1PKVtOSF1jMltjSF1bY0hdYyhOKFtDSDNdKVtDSDNdKW5bY0hdMg==

> <s_epik_cmdline>
J2VwaWtfcHl0aG9uJywgJy1waCcsICc3LjAnLCAnLXRuJywgJzgnLCAnLW1hJywgJzIwMCcsICctbWV0YWxfYmluZGluZycsICctaW1hZScsICc8aW5maWxlLm1hZT4nLCAnLW9tYWUnLCAnPG91dGZpbGUubWFlPic=

> <r_lp_tautomer_probability>
0.999994

> <r_epik_Ionization_Penalty>
0.255783

> <r_epik_Ionization_Penalty_Charging>
0.255763

> <r_epik_Ionization_Penalty_Neutral>
1.99447e-05

> <r_epik_State_Penalty>
0.247288

> <r_epik_Charging_Adjusted_Penalty>
0.503051

> <i_epik_Tot_Q>
1

> <i_epik_Tot_abs_Q>
1

> <r_epik_Metal_State_Penalty>
0.537004

> <b_epik_Metal_Only>
0

> <s_lp_Force_Field>
OPLS_2005

> <r_lp_Energy>
38.2328

> <b_lp_Chiralities_Consistent>
1

> <s_lp_Variant>
AV-unprocessed.smi:1059-1

> <Gold.Version>
5.8.1

> <Gold.Id.Protein>
6NUR|6NUR_protein|mol2

> <Gold.PLP.Fitness>
47.3781

> <Gold.PLP.PLP>
-34.7406

> <Gold.PLP.part.hbond>
-3.9830

> <Gold.PLP.part.metal>
0.0000

> <Gold.PLP.part.buried>
-2.8474

> <Gold.PLP.part.nonpolar>
-28.6842

> <Gold.PLP.part.repulsive>
0.1730

> <Gold.PLP.ligand.clash>
0.0000

> <Gold.PLP.ligand.torsion>
0.5238

> <Gold.PLP.Chemscore.Hbond>
4.4859

> <Gold.PLP.Chemscore.CHOScore>
0.0000

> <Gold.PLP.Chemscore.Metal>
0.0000

> <Gold.Chemscore.Hbonds>
donor molecule, donor type, donor heavy atom, donor atom, acceptor molecule, acceptor atom, score
      L1  H    11    40       P1  7948  0.99
      L1  H    14    41       P1  7948  0.56
      L1  H    22    55       P1 10957  1.92
      P1  H  7997  8008       L1     6  1.00

> <Gold.PLP.Chemscore.Internal.Correction>
0.2276

> <Gold.Rescore>
     Score         DG    S(hbond)    S(metal)    S(lipo)     H(rot)  DE(clash)    DE(int)     intcor
     18.11     -21.78       3.32        0.00      78.53       1.55       0.30       3.37       ----

> <Gold.Chemscore.Fitness>
18.1053

> <Gold.Chemscore.DG>
-21.7765

> <Gold.Chemscore.ZeroCoef>
-5.4800

> <Gold.Chemscore.Hbond>
3.3173

> <Gold.Chemscore.Metal>
0.0000

> <Gold.Chemscore.Lipo>
78.5317

> <Gold.Chemscore.Internal_Hbond>
0.0000

> <Gold.Chemscore.DEClash>
0.3032

> <Gold.Chemscore.DEInternal>
3.3680

> <Gold.Chemscore.Rot>
1.5514

> <Gold.Chemscore.Internal.Correction>
   9.000000E+99

> <Gold.Chemscore.Hbonds>
donor molecule, donor type, donor heavy atom, donor atom, acceptor molecule, acceptor atom, score
      L1  H    11    40       P1  7948  0.91
      L1  H    14    41       P1  7948  0.55
      L1  H    22    55       P1 10957  0.90
      P1  H  7997  8008       L1     6  0.26

> <Gold.Chemscore.Hbond.Weighted>
-11.0799

> <Gold.Chemscore.Metal.Weighted>
-0.0000

> <Gold.Chemscore.Lipo.Weighted>
-9.1882

> <Gold.Chemscore.Internal_Hbond.Weighted>
0.0000

> <Gold.Chemscore.DEClash.Weighted>
0.3032

> <Gold.Chemscore.DEInternal.Weighted>
3.3680

> <Gold.Chemscore.Rot.Weighted>
3.9716

> <Gold.Chemscore.Internal.Correction.Weighted>
   9.000000E+99

> <Gold.Protein.RotatedTorsions>
[ 6907 6896 6895 6894 ] final   -5.33 input  -60.11 | X-H torsion
[ 7974 7965 7964 7962 ] final  -38.68 input  175.53 | X-H torsion
[ 8008 7997 7996 7995 ] final  -64.51 input   59.86 | X-H torsion
[ 10167 10162 10161 10158 ] final   21.23 input  -65.29 | X-H torsion
[ 10718 10713 10712 10709 ] final    4.01 input   66.30 | X-H torsion
[ 10763 10752 10751 10750 ] final -159.14 input  -60.55 | X-H torsion
[ 11005 11000 10999 10996 ] final   54.00 input  -57.11 | X-H torsion

> <Gold.Protein.ActiveResidues>
 VAL166  LYS551  ARG553  GLY616  TRP617  ASP618  TYR619  PRO620  LYS621  CYS622 
 ASP623  PHE694  ASN695  SER759  ASP760  ASP761  ALA762  ILE779  LEU786  VAL792 
 PHE793  MET794  SER795  GLU796  ALA797  LYS798  CYS799  TRP800  GLU811  SER814 

> <Gold.Protein.RotatedAtoms>
  151.4834  135.1053  159.9783 H   0  0  0  0  0  0  0  0  0  0  0  0  # atno 6907 bound_to 6896
  152.4770  133.8158  159.7038 H   0  0  0  0  0  0  0  0  0  0  0  0  # atno 6908 bound_to 6896
  150.8815  133.7304  159.2957 H   0  0  0  0  0  0  0  0  0  0  0  0  # atno 6909 bound_to 6896
  146.0465  140.6539  142.9062 H   0  0  0  0  0  0  0  0  0  0  0  0  # atno 7974 bound_to 7965
  154.4616  140.0952  156.6908 H   0  0  0  0  0  0  0  0  0  0  0  0  # atno 8008 bound_to 7997
  155.4978  140.3472  155.4347 H   0  0  0  0  0  0  0  0  0  0  0  0  # atno 8009 bound_to 7997
  156.0880  140.1390  156.9616 H   0  0  0  0  0  0  0  0  0  0  0  0  # atno 8010 bound_to 7997
  140.5443  143.9623  150.6538 H   0  0  0  0  0  0  0  0  0  0  0  0  # atno 10167 bound_to 10162
  156.8863  130.5671  149.5651 H   0  0  0  0  0  0  0  0  0  0  0  0  # atno 10718 bound_to 10713
  154.7499  135.3090  154.8576 H   0  0  0  0  0  0  0  0  0  0  0  0  # atno 10763 bound_to 10752
  153.9366  135.6779  153.4749 H   0  0  0  0  0  0  0  0  0  0  0  0  # atno 10764 bound_to 10752
  153.1095  135.4873  154.8939 H   0  0  0  0  0  0  0  0  0  0  0  0  # atno 10765 bound_to 10752
  140.0721  134.5454  155.9035 H   0  0  0  0  0  0  0  0  0  0  0  0  # atno 11005 bound_to 11000
  144.7100  140.4003  143.7088 LP  0  0  0  0  0  0  0  0  0  0  0  0  # atno 17320 bound_to 7965
  145.6797  139.1616  143.2707 LP  0  0  0  0  0  0  0  0  0  0  0  0  # atno 17321 bound_to 7965
  140.3031  143.3247  152.0952 LP  0  0  0  0  0  0  0  0  0  0  0  0  # atno 17342 bound_to 10162
  139.5001  144.6684  151.6302 LP  0  0  0  0  0  0  0  0  0  0  0  0  # atno 17343 bound_to 10162
  156.0651  130.5696  150.9273 LP  0  0  0  0  0  0  0  0  0  0  0  0  # atno 17370 bound_to 10713
  157.6110  131.0936  150.8794 LP  0  0  0  0  0  0  0  0  0  0  0  0  # atno 17371 bound_to 10713
  141.2016  133.6619  156.5959 LP  0  0  0  0  0  0  0  0  0  0  0  0  # atno 17394 bound_to 11000
  140.3611  134.7687  157.4534 LP  0  0  0  0  0  0  0  0  0  0  0  0  # atno 17395 bound_to 11000

$$$$
