AV-unprocessed.smi:863|AV-procd|sdf|3984|dock4
  -GOLD-   22720 1463D 1   1.00000     0.00000
 Structure written by MMmdl.
 42 44  0  0  0  0  0  0  0  0  1 V2000
  152.0637  135.1706  156.7405 O   0  0  0  0  0  0  0  0  0  0  0  0
  150.8378  135.1335  156.6336 C   0  0  0  0  0  0  0  0  0  0  0  0
  150.1114  133.7880  156.6229 C   0  0  0  0  0  0  0  0  0  0  0  0
  149.4666  133.5563  155.2831 C   0  0  0  0  0  0  0  0  0  0  0  0
  149.7019  132.4983  154.3613 C   0  0  0  0  0  0  0  0  0  0  0  0
  148.8581  132.7821  153.3266 C   0  0  0  0  0  0  0  0  0  0  0  0
  148.1621  133.9191  153.5795 O   0  0  0  0  0  0  0  0  0  0  0  0
  148.5590  134.4081  154.8295 N   0  0  0  0  0  0  0  0  0  0  0  0
  150.0709  136.2296  156.5202 N   0  0  0  0  0  0  0  0  0  0  0  0
  150.5619  137.6042  156.5168 C   0  0  2  0  0  0  0  0  0  0  0  0
  151.6057  137.7796  155.4084 C   0  0  0  0  0  0  0  0  0  0  0  0
  152.2185  139.1855  155.4632 C   0  0  0  0  0  0  0  0  0  0  0  0
  152.7699  139.4397  156.7539 O   0  0  0  0  0  0  0  0  0  0  0  0
  151.8665  139.3612  157.8645 C   0  0  0  0  0  0  0  0  0  0  0  0
  152.7389  139.5176  159.1323 C   0  0  0  0  0  0  0  0  0  0  0  0
  153.3800  140.9118  159.2457 C   0  0  0  0  0  0  0  0  0  0  0  0
  152.3198  142.0201  159.1944 C   0  0  0  0  0  0  0  0  0  0  0  0
  151.4585  141.8960  157.9301 C   0  0  0  0  0  0  0  0  0  0  0  0
  150.8147  140.5033  157.8308 C   0  0  0  0  0  0  0  0  0  0  0  0
  151.2027  137.9624  157.8699 C   0  0  0  0  0  0  0  0  0  0  0  0
  150.8126  132.9874  156.8637 H   0  0  0  0  0  0  0  0  0  0  0  0
  149.3575  133.7839  157.4109 H   0  0  0  0  0  0  0  0  0  0  0  0
  150.3811  131.6633  154.4478 H   0  0  0  0  0  0  0  0  0  0  0  0
  148.6489  132.2958  152.3853 H   0  0  0  0  0  0  0  0  0  0  0  0
  149.0723  136.1027  156.4400 H   0  0  0  0  0  0  0  0  0  0  0  0
  149.7255  138.2749  156.3146 H   0  0  0  0  0  0  0  0  0  0  0  0
  152.3987  137.0392  155.5233 H   0  0  0  0  0  0  0  0  0  0  0  0
  151.1546  137.6064  154.4306 H   0  0  0  0  0  0  0  0  0  0  0  0
  153.0184  139.2666  154.7272 H   0  0  0  0  0  0  0  0  0  0  0  0
  151.4826  139.9437  155.1968 H   0  0  0  0  0  0  0  0  0  0  0  0
  152.1288  139.3368  160.0186 H   0  0  0  0  0  0  0  0  0  0  0  0
  153.5225  138.7589  159.1440 H   0  0  0  0  0  0  0  0  0  0  0  0
  153.9461  140.9842  160.1748 H   0  0  0  0  0  0  0  0  0  0  0  0
  154.0979  141.0544  158.4369 H   0  0  0  0  0  0  0  0  0  0  0  0
  151.6837  141.9600  160.0785 H   0  0  0  0  0  0  0  0  0  0  0  0
  152.8005  142.9982  159.2242 H   0  0  0  0  0  0  0  0  0  0  0  0
  150.6835  142.6626  157.9342 H   0  0  0  0  0  0  0  0  0  0  0  0
  152.0714  142.0822  157.0473 H   0  0  0  0  0  0  0  0  0  0  0  0
  150.1950  140.4561  156.9367 H   0  0  0  0  0  0  0  0  0  0  0  0
  150.1249  140.3775  158.6664 H   0  0  0  0  0  0  0  0  0  0  0  0
  150.4614  137.9042  158.6681 H   0  0  0  0  0  0  0  0  0  0  0  0
  151.9584  137.2112  158.1058 H   0  0  0  0  0  0  0  0  0  0  0  0
  1  2  2  0  0  0  0
  2  3  1  0  0  0  0
  2  9  1  0  0  0  0
  3  4  1  0  0  0  0
  3 21  1  0  0  0  0
  3 22  1  0  0  0  0
  4  8  2  0  0  0  0
  4  5  1  0  0  0  0
  5  6  2  0  0  0  0
  5 23  1  0  0  0  0
  6  7  1  0  0  0  0
  6 24  1  0  0  0  0
  7  8  1  0  0  0  0
  9 10  1  0  0  0  0
  9 25  1  0  0  0  0
 10 20  1  0  0  0  0
 10 11  1  0  0  0  0
 10 26  1  0  0  0  0
 11 12  1  0  0  0  0
 11 27  1  0  0  0  0
 11 28  1  0  0  0  0
 12 13  1  0  0  0  0
 12 29  1  0  0  0  0
 12 30  1  0  0  0  0
 13 14  1  0  0  0  0
 14 19  1  0  0  0  0
 14 15  1  0  0  0  0
 14 20  1  0  0  0  0
 15 16  1  0  0  0  0
 15 31  1  0  0  0  0
 15 32  1  0  0  0  0
 16 17  1  0  0  0  0
 16 33  1  0  0  0  0
 16 34  1  0  0  0  0
 17 18  1  0  0  0  0
 17 35  1  0  0  0  0
 17 36  1  0  0  0  0
 18 19  1  0  0  0  0
 18 37  1  0  0  0  0
 18 38  1  0  0  0  0
 19 39  1  0  0  0  0
 19 40  1  0  0  0  0
 20 41  1  0  0  0  0
 20 42  1  0  0  0  0
M  END
> <s_m_source_file>
AV-unprocessed.smi

> <i_m_source_file_index>
863

> <i_lp_mmshare_version>
43012

> <i_f3d_flags>
0

> <s_epik_input>
bjFvW2NIXVtjSF1jMVtDSDJdQyg9TylbTkhdW0NAQEhdKFtDSDJdMilbQ0gyXVtDSDJdT0MyM1tDSDJdW0NIMl1bQ0gyXVtDSDJdW0NIMl0z

> <s_epik_cmdline>
J2VwaWtfcHl0aG9uJywgJy1waCcsICc3LjAnLCAnLXRuJywgJzgnLCAnLW1hJywgJzIwMCcsICctbWV0YWxfYmluZGluZycsICctaW1hZScsICc8aW5maWxlLm1hZT4nLCAnLW9tYWUnLCAnPG91dGZpbGUubWFlPic=

> <r_lp_tautomer_probability>
1

> <r_epik_Ionization_Penalty>
1.10177e-07

> <r_epik_Ionization_Penalty_Charging>
0

> <r_epik_Ionization_Penalty_Neutral>
1.10177e-07

> <r_epik_State_Penalty>
-0

> <r_epik_Charging_Adjusted_Penalty>
0

> <i_epik_Tot_Q>
0

> <i_epik_Tot_abs_Q>
0

> <r_epik_Metal_State_Penalty>
-0

> <b_epik_Metal_Only>
0

> <s_lp_Force_Field>
OPLS_2005

> <r_lp_Energy>
15.5763

> <b_lp_Chiralities_Consistent>
1

> <s_lp_Variant>
AV-unprocessed.smi:863-1

> <Gold.Version>
5.8.1

> <Gold.Id.Protein>
6NUR|6NUR_protein|mol2

> <Gold.PLP.Fitness>
39.0222

> <Gold.PLP.PLP>
-30.1190

> <Gold.PLP.part.hbond>
-2.0000

> <Gold.PLP.part.metal>
0.0000

> <Gold.PLP.part.buried>
-5.6885

> <Gold.PLP.part.nonpolar>
-23.5011

> <Gold.PLP.part.repulsive>
1.5443

> <Gold.PLP.ligand.clash>
0.0000

> <Gold.PLP.ligand.torsion>
0.0490

> <Gold.PLP.Chemscore.Hbond>
2.0000

> <Gold.PLP.Chemscore.CHOScore>
1.0000

> <Gold.PLP.Chemscore.Metal>
0.0000

> <Gold.Chemscore.Hbonds>
donor molecule, donor type, donor heavy atom, donor atom, acceptor molecule, acceptor atom, score
      P1  H  7997  8010       L1    13  1.00
      P1  H 10752 10764       L1     1  1.00
      L1  C     6    24       P1 10747  0.94

> <Gold.PLP.Chemscore.Internal.Correction>
0.0011

> <Gold.Rescore>
     Score         DG    S(hbond)    S(metal)    S(lipo)     H(rot)  DE(clash)    DE(int)     intcor
     16.91     -18.13       1.98        0.00      82.68       1.42       0.07       1.14       ----

> <Gold.Chemscore.Fitness>
16.9145

> <Gold.Chemscore.DG>
-18.1294

> <Gold.Chemscore.ZeroCoef>
-5.4800

> <Gold.Chemscore.Hbond>
1.9765

> <Gold.Chemscore.Metal>
0.0000

> <Gold.Chemscore.Lipo>
82.6809

> <Gold.Chemscore.Internal_Hbond>
0.0000

> <Gold.Chemscore.DEClash>
0.0742

> <Gold.Chemscore.DEInternal>
1.1407

> <Gold.Chemscore.Rot>
1.4164

> <Gold.Chemscore.Internal.Correction>
   9.000000E+99

> <Gold.Chemscore.Hbonds>
donor molecule, donor type, donor heavy atom, donor atom, acceptor molecule, acceptor atom, score
      P1  H  7997  8010       L1    13  0.45
      P1  H 10752 10764       L1     1  0.96

> <Gold.Chemscore.Hbond.Weighted>
-6.6016

> <Gold.Chemscore.Metal.Weighted>
-0.0000

> <Gold.Chemscore.Lipo.Weighted>
-9.6737

> <Gold.Chemscore.Internal_Hbond.Weighted>
0.0000

> <Gold.Chemscore.DEClash.Weighted>
0.0742

> <Gold.Chemscore.DEInternal.Weighted>
1.1407

> <Gold.Chemscore.Rot.Weighted>
3.6259

> <Gold.Chemscore.Internal.Correction.Weighted>
   9.000000E+99

> <Gold.Protein.RotatedTorsions>
[ 6907 6896 6895 6894 ] final   55.66 input  -60.11 | X-H torsion
[ 7974 7965 7964 7962 ] final -153.84 input  175.53 | X-H torsion
[ 8008 7997 7996 7995 ] final   73.08 input   59.86 | X-H torsion
[ 10167 10162 10161 10158 ] final   73.29 input  -65.29 | X-H torsion
[ 10718 10713 10712 10709 ] final -124.83 input   66.30 | X-H torsion
[ 10763 10752 10751 10750 ] final  -20.30 input  -60.55 | X-H torsion
[ 11005 11000 10999 10996 ] final   73.24 input  -57.11 | X-H torsion

> <Gold.Protein.ActiveResidues>
 VAL166  LYS551  ARG553  GLY616  TRP617  ASP618  TYR619  PRO620  LYS621  CYS622 
 ASP623  PHE694  ASN695  SER759  ASP760  ASP761  ALA762  ILE779  LEU786  VAL792 
 PHE793  MET794  SER795  GLU796  ALA797  LYS798  CYS799  TRP800  GLU811  SER814 

> <Gold.Protein.RotatedAtoms>
  152.3560  134.6939  160.0221 H   0  0  0  0  0  0  0  0  0  0  0  0  # atno 6907 bound_to 6896
  151.7277  133.3311  159.3340 H   0  0  0  0  0  0  0  0  0  0  0  0  # atno 6908 bound_to 6896
  150.7572  134.6325  159.6238 H   0  0  0  0  0  0  0  0  0  0  0  0  # atno 6909 bound_to 6896
  144.7719  140.4470  143.5901 H   0  0  0  0  0  0  0  0  0  0  0  0  # atno 7974 bound_to 7965
  155.7784  140.3482  155.5284 H   0  0  0  0  0  0  0  0  0  0  0  0  # atno 8008 bound_to 7997
  155.8753  140.0993  157.1543 H   0  0  0  0  0  0  0  0  0  0  0  0  # atno 8009 bound_to 7997
  154.4020  140.1333  156.4116 H   0  0  0  0  0  0  0  0  0  0  0  0  # atno 8010 bound_to 7997
  140.0261  144.5502  150.7543 H   0  0  0  0  0  0  0  0  0  0  0  0  # atno 10167 bound_to 10162
  156.1622  130.6610  151.0066 H   0  0  0  0  0  0  0  0  0  0  0  0  # atno 10718 bound_to 10713
  153.6183  135.6993  153.5320 H   0  0  0  0  0  0  0  0  0  0  0  0  # atno 10763 bound_to 10752
  153.2959  135.4143  155.1208 H   0  0  0  0  0  0  0  0  0  0  0  0  # atno 10764 bound_to 10752
  154.8549  135.3637  154.5723 H   0  0  0  0  0  0  0  0  0  0  0  0  # atno 10765 bound_to 10752
  139.9450  134.7330  156.1003 H   0  0  0  0  0  0  0  0  0  0  0  0  # atno 11005 bound_to 11000
  145.6297  139.1535  143.2976 LP  0  0  0  0  0  0  0  0  0  0  0  0  # atno 17320 bound_to 7965
  146.1872  140.6402  142.9162 LP  0  0  0  0  0  0  0  0  0  0  0  0  # atno 17321 bound_to 7965
  140.7322  143.2703  151.3911 LP  0  0  0  0  0  0  0  0  0  0  0  0  # atno 17342 bound_to 10162
  139.6107  144.1104  152.2295 LP  0  0  0  0  0  0  0  0  0  0  0  0  # atno 17343 bound_to 10162
  157.6741  131.0854  150.7539 LP  0  0  0  0  0  0  0  0  0  0  0  0  # atno 17370 bound_to 10713
  156.7601  130.4796  149.5439 LP  0  0  0  0  0  0  0  0  0  0  0  0  # atno 17371 bound_to 10713
  141.1097  133.6647  156.2949 LP  0  0  0  0  0  0  0  0  0  0  0  0  # atno 17394 bound_to 11000
  140.5857  134.5701  157.5489 LP  0  0  0  0  0  0  0  0  0  0  0  0  # atno 17395 bound_to 11000

$$$$
