AV-unprocessed.smi:2479|AV-procd|sdf|9767|dock2
  -GOLD-   2272013413D 1   1.00000     0.00000
 Structure written by MMmdl.
 29 30  0  0  0  0  0  0  0  0  1 V2000
  152.2245  137.0762  159.7786 N   0  0  0  0  0  0  0  0  0  0  0  0
  151.5381  137.8553  159.2683 C   0  0  0  0  0  0  0  0  0  0  0  0
  150.6764  138.8333  158.6273 C   0  0  0  0  0  0  0  0  0  0  0  0
  149.3141  138.5561  158.3992 C   0  0  0  0  0  0  0  0  0  0  0  0
  148.4708  139.4296  157.8094 N   0  0  0  0  0  0  0  0  0  0  0  0
  148.9552  140.6316  157.4095 C   0  0  0  0  0  0  0  0  0  0  0  0
  148.0595  141.5373  156.8072 N   0  0  0  0  0  0  0  0  0  0  0  0
  147.0212  141.9491  157.7473 C   0  0  0  0  0  0  0  0  0  0  0  0
  146.1640  143.0710  157.1440 C   0  0  0  0  0  0  0  0  0  0  0  0
  145.6220  142.6284  155.9065 O   0  0  0  0  0  0  0  0  0  0  0  0
  146.6436  142.3382  154.9593 C   0  0  0  0  0  0  0  0  0  0  0  0
  147.5481  141.1932  155.4722 C   0  0  1  0  0  0  0  0  0  0  0  0
  148.6372  140.9215  154.4186 C   0  0  0  0  0  0  0  0  0  0  0  0
  148.2256  140.5971  153.1903 N   0  0  0  0  0  0  0  0  0  0  0  0
  149.8299  141.0162  154.7040 O   0  0  0  0  0  0  0  0  0  0  0  0
  150.3091  141.0013  157.6017 C   0  0  0  0  0  0  0  0  0  0  0  0
  150.9122  142.5376  157.0863 Cl  0  0  0  0  0  0  0  0  0  0  0  0
  151.1813  140.0830  158.2186 C   0  0  0  0  0  0  0  0  0  0  0  0
  148.8829  137.6109  158.6967 H   0  0  0  0  0  0  0  0  0  0  0  0
  146.3910  141.0926  157.9930 H   0  0  0  0  0  0  0  0  0  0  0  0
  147.4683  142.2944  158.6808 H   0  0  0  0  0  0  0  0  0  0  0  0
  145.3468  143.3257  157.8190 H   0  0  0  0  0  0  0  0  0  0  0  0
  146.7523  143.9786  156.9975 H   0  0  0  0  0  0  0  0  0  0  0  0
  146.1663  142.0554  154.0204 H   0  0  0  0  0  0  0  0  0  0  0  0
  147.2231  143.2419  154.7585 H   0  0  0  0  0  0  0  0  0  0  0  0
  146.9292  140.2987  155.5684 H   0  0  0  0  0  0  0  0  0  0  0  0
  148.9021  140.4131  152.4636 H   0  0  0  0  0  0  0  0  0  0  0  0
  147.2371  140.5407  152.9923 H   0  0  0  0  0  0  0  0  0  0  0  0
  152.2200  140.3379  158.3725 H   0  0  0  0  0  0  0  0  0  0  0  0
  1  2  3  0  0  0  0
  2  3  1  0  0  0  0
  3 18  1  0  0  0  0
  3  4  2  0  0  0  0
  4  5  1  0  0  0  0
  4 19  1  0  0  0  0
  5  6  2  0  0  0  0
  6  7  1  0  0  0  0
  6 16  1  0  0  0  0
  7 12  1  0  0  0  0
  7  8  1  0  0  0  0
  8  9  1  0  0  0  0
  8 20  1  0  0  0  0
  8 21  1  0  0  0  0
  9 10  1  0  0  0  0
  9 22  1  0  0  0  0
  9 23  1  0  0  0  0
 10 11  1  0  0  0  0
 11 12  1  0  0  0  0
 11 24  1  0  0  0  0
 11 25  1  0  0  0  0
 12 13  1  0  0  0  0
 12 26  1  0  0  0  0
 13 14  1  0  0  0  0
 13 15  2  0  0  0  0
 14 27  1  0  0  0  0
 14 28  1  0  0  0  0
 16 17  1  0  0  0  0
 16 18  2  0  0  0  0
 18 29  1  0  0  0  0
M  END
> <s_m_source_file>
AV-unprocessed.smi

> <i_m_source_file_index>
2479

> <i_lp_mmshare_version>
43012

> <i_f3d_flags>
0

> <s_epik_input>
TiNDYzFbY0hdbmMoYyhDbClbY0hdMSlOMltDSDJdW0NIMl1PW0NIMl1bQ0BIXTJDKD1PKVtOSDJd

> <s_epik_cmdline>
J2VwaWtfcHl0aG9uJywgJy1waCcsICc3LjAnLCAnLXRuJywgJzgnLCAnLW1hJywgJzIwMCcsICctbWV0YWxfYmluZGluZycsICctaW1hZScsICc8aW5maWxlLm1hZT4nLCAnLW9tYWUnLCAnPG91dGZpbGUubWFlPic=

> <r_lp_tautomer_probability>
1

> <r_epik_Ionization_Penalty>
1.61078e-07

> <r_epik_Ionization_Penalty_Charging>
0

> <r_epik_Ionization_Penalty_Neutral>
1.61078e-07

> <r_epik_State_Penalty>
-0

> <r_epik_Charging_Adjusted_Penalty>
0

> <i_epik_Tot_Q>
0

> <i_epik_Tot_abs_Q>
0

> <r_epik_Metal_State_Penalty>
-0

> <b_epik_Metal_Only>
0

> <s_lp_Force_Field>
OPLS_2005

> <r_lp_Energy>
18.2822

> <b_lp_Chiralities_Consistent>
1

> <s_lp_Variant>
AV-unprocessed.smi:2479-1

> <Gold.Version>
5.8.1

> <Gold.Id.Protein>
6NUR|6NUR_protein|mol2

> <Gold.PLP.Fitness>
31.4804

> <Gold.PLP.PLP>
-23.8487

> <Gold.PLP.part.hbond>
-2.9343

> <Gold.PLP.part.metal>
0.0000

> <Gold.PLP.part.buried>
-6.3290

> <Gold.PLP.part.nonpolar>
-15.5960

> <Gold.PLP.part.repulsive>
0.4878

> <Gold.PLP.ligand.clash>
0.0000

> <Gold.PLP.ligand.torsion>
0.0963

> <Gold.PLP.Chemscore.Hbond>
2.5482

> <Gold.PLP.Chemscore.CHOScore>
0.0000

> <Gold.PLP.Chemscore.Metal>
0.0000

> <Gold.Chemscore.Hbonds>
donor molecule, donor type, donor heavy atom, donor atom, acceptor molecule, acceptor atom, score
      L1  H    14    27       P1  7957  0.99
      P1  H  6896  6907       L1     1  0.93
      P1  H  7989  7998       L1    15  0.43

> <Gold.PLP.Chemscore.Internal.Correction>
0.1797

> <Gold.Rescore>
     Score         DG    S(hbond)    S(metal)    S(lipo)     H(rot)  DE(clash)    DE(int)     intcor
     13.07     -14.55       2.62        0.00      35.60       1.50       0.00       1.48       ----

> <Gold.Chemscore.Fitness>
13.0673

> <Gold.Chemscore.DG>
-14.5511

> <Gold.Chemscore.ZeroCoef>
-5.4800

> <Gold.Chemscore.Hbond>
2.6191

> <Gold.Chemscore.Metal>
0.0000

> <Gold.Chemscore.Lipo>
35.5966

> <Gold.Chemscore.Internal_Hbond>
0.0000

> <Gold.Chemscore.DEClash>
0.0021

> <Gold.Chemscore.DEInternal>
1.4817

> <Gold.Chemscore.Rot>
1.5006

> <Gold.Chemscore.Internal.Correction>
   9.000000E+99

> <Gold.Chemscore.Hbonds>
donor molecule, donor type, donor heavy atom, donor atom, acceptor molecule, acceptor atom, score
      L1  H    14    27       P1  7957  0.92
      P1  H  6896  6907       L1     1  0.85
      P1  H  7989  7998       L1    15  0.43

> <Gold.Chemscore.Hbond.Weighted>
-8.7479

> <Gold.Chemscore.Metal.Weighted>
-0.0000

> <Gold.Chemscore.Lipo.Weighted>
-4.1648

> <Gold.Chemscore.Internal_Hbond.Weighted>
0.0000

> <Gold.Chemscore.DEClash.Weighted>
0.0021

> <Gold.Chemscore.DEInternal.Weighted>
1.4817

> <Gold.Chemscore.Rot.Weighted>
3.8416

> <Gold.Chemscore.Internal.Correction.Weighted>
   9.000000E+99

> <Gold.Protein.RotatedTorsions>
[ 6907 6896 6895 6894 ] final   29.99 input  -60.11 | X-H torsion
[ 7974 7965 7964 7962 ] final  -82.21 input  175.53 | X-H torsion
[ 8008 7997 7996 7995 ] final  174.87 input   59.86 | X-H torsion
[ 10167 10162 10161 10158 ] final  173.63 input  -65.29 | X-H torsion
[ 10718 10713 10712 10709 ] final -169.09 input   66.30 | X-H torsion
[ 10763 10752 10751 10750 ] final  129.60 input  -60.55 | X-H torsion
[ 11005 11000 10999 10996 ] final  158.72 input  -57.11 | X-H torsion

> <Gold.Protein.ActiveResidues>
 VAL166  LYS551  ARG553  GLY616  TRP617  ASP618  TYR619  PRO620  LYS621  CYS622 
 ASP623  PHE694  ASN695  SER759  ASP760  ASP761  ALA762  ILE779  LEU786  VAL792 
 PHE793  MET794  SER795  GLU796  ALA797  LYS798  CYS799  TRP800  GLU811  SER814 

> <Gold.Protein.RotatedAtoms>
  152.0396  134.9719  160.0573 H   0  0  0  0  0  0  0  0  0  0  0  0  # atno 6907 bound_to 6896
  152.1163  133.4324  159.4663 H   0  0  0  0  0  0  0  0  0  0  0  0  # atno 6908 bound_to 6896
  150.6846  134.2506  159.4552 H   0  0  0  0  0  0  0  0  0  0  0  0  # atno 6909 bound_to 6896
  145.5363  140.9515  143.1575 H   0  0  0  0  0  0  0  0  0  0  0  0  # atno 7974 bound_to 7965
  156.0930  140.1423  156.9568 H   0  0  0  0  0  0  0  0  0  0  0  0  # atno 8008 bound_to 7997
  154.4653  140.0928  156.7051 H   0  0  0  0  0  0  0  0  0  0  0  0  # atno 8009 bound_to 7997
  155.4888  140.3447  155.4354 H   0  0  0  0  0  0  0  0  0  0  0  0  # atno 8010 bound_to 7997
  139.5115  144.3239  152.0177 H   0  0  0  0  0  0  0  0  0  0  0  0  # atno 10167 bound_to 10162
  156.7065  130.9217  151.3085 H   0  0  0  0  0  0  0  0  0  0  0  0  # atno 10718 bound_to 10713
  153.7445  135.3219  155.3310 H   0  0  0  0  0  0  0  0  0  0  0  0  # atno 10763 bound_to 10752
  154.8284  135.4552  154.0994 H   0  0  0  0  0  0  0  0  0  0  0  0  # atno 10764 bound_to 10752
  153.2178  135.6944  153.8118 H   0  0  0  0  0  0  0  0  0  0  0  0  # atno 10765 bound_to 10752
  140.1892  134.8419  157.2893 H   0  0  0  0  0  0  0  0  0  0  0  0  # atno 11005 bound_to 11000
  144.7600  139.6981  143.7238 LP  0  0  0  0  0  0  0  0  0  0  0  0  # atno 17320 bound_to 7965
  146.2011  139.5306  142.9743 LP  0  0  0  0  0  0  0  0  0  0  0  0  # atno 17321 bound_to 7965
  140.2680  144.3995  150.6161 LP  0  0  0  0  0  0  0  0  0  0  0  0  # atno 17342 bound_to 10162
  140.6109  143.2169  151.6887 LP  0  0  0  0  0  0  0  0  0  0  0  0  # atno 17343 bound_to 10162
  157.6953  130.9275  150.0626 LP  0  0  0  0  0  0  0  0  0  0  0  0  # atno 17370 bound_to 10713
  156.1691  130.3646  149.9190 LP  0  0  0  0  0  0  0  0  0  0  0  0  # atno 17371 bound_to 10713
  140.2178  134.4060  155.7580 LP  0  0  0  0  0  0  0  0  0  0  0  0  # atno 17394 bound_to 11000
  141.2226  133.7151  156.8442 LP  0  0  0  0  0  0  0  0  0  0  0  0  # atno 17395 bound_to 11000

$$$$
