AV-unprocessed.smi:249|AV-procd|sdf|1927|dock9
  -GOLD-   2262021 43D 1   1.00000     0.00000
 Structure written by MMmdl.
 64 67  0  0  0  0  0  0  0  0  2 V2000
  143.6019  132.1769  150.7400 C   0  0  0  0  0  0  0  0  0  0  0  0
  143.8461  133.4008  151.6383 C   0  0  0  0  0  0  0  0  0  0  0  0
  144.5517  133.0768  152.9124 N   0  3  1  0  0  0  0  0  0  0  0  0
  145.6618  132.1035  152.6987 C   0  0  0  0  0  0  0  0  0  0  0  0
  146.3455  131.7009  154.0148 C   0  0  0  0  0  0  0  0  0  0  0  0
  146.9093  132.9260  154.7533 C   0  0  1  0  0  0  0  0  0  0  0  0
  148.0349  133.5438  154.0331 N   0  0  0  0  0  0  0  0  0  0  0  0
  149.0039  132.6467  153.4111 C   0  0  0  0  0  0  0  0  0  0  0  0
  148.6706  134.5388  154.6911 C   0  0  0  0  0  0  0  0  0  0  0  0
  149.8252  134.2242  155.3278 N   0  0  0  0  0  0  0  0  0  0  0  0
  150.5011  135.1707  155.9867 C   0  0  0  0  0  0  0  0  0  0  0  0
  150.2020  136.4639  156.1306 N   0  0  0  0  0  0  0  0  0  0  0  0
  149.0359  136.7779  155.4962 C   0  0  0  0  0  0  0  0  0  0  0  0
  148.2109  135.8834  154.7596 C   0  0  0  0  0  0  0  0  0  0  0  0
  147.1042  136.5580  154.2588 N   0  0  0  0  0  0  0  0  0  0  0  0
  147.2635  137.7834  154.6796 C   0  0  0  0  0  0  0  0  0  0  0  0
  148.3958  138.0029  155.4309 N   0  0  0  0  0  0  0  0  0  0  0  0
  148.8126  139.2616  156.0214 C   0  0  0  0  0  0  0  0  0  0  0  0
  149.8150  140.0596  155.1420 C   0  0  1  0  0  0  0  0  0  0  0  0
  149.1996  141.3294  154.5034 C   0  0  0  0  0  0  0  0  0  0  0  0
  148.3466  141.0198  153.4202 O   0  0  0  0  0  0  0  0  0  0  0  0
  151.1296  140.4225  155.8832 C   0  0  1  0  0  0  0  0  0  0  0  0
  151.0062  141.3452  157.0947 C   0  0  0  0  0  0  0  0  0  0  0  0
  152.0961  140.8502  158.0515 C   0  0  0  0  0  0  0  0  0  0  0  0
  152.8553  139.9077  157.3060 O   0  0  0  0  0  0  0  0  0  0  0  0
  151.9624  139.2564  156.4188 C   0  0  0  0  0  0  0  0  0  0  0  0
  145.7181  133.8813  154.9838 C   0  0  0  0  0  0  0  0  0  0  0  0
  145.0094  134.2871  153.6704 C   0  0  2  0  0  0  0  0  0  0  0  0
  143.8606  135.2582  154.0132 C   0  0  0  0  0  0  0  0  0  0  0  0
  142.9412  132.4394  149.9137 H   0  0  0  0  0  0  0  0  0  0  0  0
  143.1282  131.3659  151.2938 H   0  0  0  0  0  0  0  0  0  0  0  0
  144.5222  131.7976  150.2967 H   0  0  0  0  0  0  0  0  0  0  0  0
  144.3978  134.1678  151.0929 H   0  0  0  0  0  0  0  0  0  0  0  0
  142.8626  133.8155  151.8471 H   0  0  0  0  0  0  0  0  0  0  0  0
  145.2858  131.1926  152.2359 H   0  0  0  0  0  0  0  0  0  0  0  0
  146.3916  132.5279  152.0073 H   0  0  0  0  0  0  0  0  0  0  0  0
  145.6185  131.1981  154.6542 H   0  0  0  0  0  0  0  0  0  0  0  0
  147.1237  130.9616  153.8250 H   0  0  0  0  0  0  0  0  0  0  0  0
  147.2810  132.5943  155.7233 H   0  0  0  0  0  0  0  0  0  0  0  0
  149.9314  133.1610  153.1524 H   0  0  0  0  0  0  0  0  0  0  0  0
  148.5965  132.2329  152.4888 H   0  0  0  0  0  0  0  0  0  0  0  0
  149.2498  131.8202  154.0789 H   0  0  0  0  0  0  0  0  0  0  0  0
  151.4123  134.8460  156.4670 H   0  0  0  0  0  0  0  0  0  0  0  0
  146.5529  138.5659  154.4570 H   0  0  0  0  0  0  0  0  0  0  0  0
  147.9188  139.8495  156.2258 H   0  0  0  0  0  0  0  0  0  0  0  0
  149.2510  139.0264  156.9902 H   0  0  0  0  0  0  0  0  0  0  0  0
  150.1137  139.4035  154.3226 H   0  0  0  0  0  0  0  0  0  0  0  0
  148.6535  141.9117  155.2463 H   0  0  0  0  0  0  0  0  0  0  0  0
  149.9820  141.9786  154.1092 H   0  0  0  0  0  0  0  0  0  0  0  0
  148.8234  140.4811  152.8071 H   0  0  0  0  0  0  0  0  0  0  0  0
  151.7748  140.9347  155.1670 H   0  0  0  0  0  0  0  0  0  0  0  0
  151.1701  142.3840  156.8053 H   0  0  0  0  0  0  0  0  0  0  0  0
  150.0311  141.2920  157.5773 H   0  0  0  0  0  0  0  0  0  0  0  0
  152.7285  141.6582  158.4198 H   0  0  0  0  0  0  0  0  0  0  0  0
  151.6496  140.3497  158.9119 H   0  0  0  0  0  0  0  0  0  0  0  0
  151.3714  138.5372  156.9855 H   0  0  0  0  0  0  0  0  0  0  0  0
  152.4959  138.7227  155.6318 H   0  0  0  0  0  0  0  0  0  0  0  0
  144.9963  133.3878  155.6367 H   0  0  0  0  0  0  0  0  0  0  0  0
  146.0340  134.7680  155.5342 H   0  0  0  0  0  0  0  0  0  0  0  0
  145.7226  134.8240  153.0434 H   0  0  0  0  0  0  0  0  0  0  0  0
  144.2018  136.0393  154.6935 H   0  0  0  0  0  0  0  0  0  0  0  0
  143.0320  134.7411  154.4980 H   0  0  0  0  0  0  0  0  0  0  0  0
  143.4761  135.7753  153.1348 H   0  0  0  0  0  0  0  0  0  0  0  0
  143.8759  132.6152  153.5044 H   0  0  0  0  0  0  0  0  0  0  0  0
  1  2  1  0  0  0  0
  1 30  1  0  0  0  0
  1 31  1  0  0  0  0
  1 32  1  0  0  0  0
  2  3  1  0  0  0  0
  2 33  1  0  0  0  0
  2 34  1  0  0  0  0
  3 28  1  0  0  0  0
  3  4  1  0  0  0  0
  3 64  1  0  0  0  0
  4  5  1  0  0  0  0
  4 35  1  0  0  0  0
  4 36  1  0  0  0  0
  5  6  1  0  0  0  0
  5 37  1  0  0  0  0
  5 38  1  0  0  0  0
  6  7  1  0  0  0  0
  6 27  1  0  0  0  0
  6 39  1  0  0  0  0
  7  8  1  0  0  0  0
  7  9  1  0  0  0  0
  8 40  1  0  0  0  0
  8 41  1  0  0  0  0
  8 42  1  0  0  0  0
  9 14  1  0  0  0  0
  9 10  2  0  0  0  0
 10 11  1  0  0  0  0
 11 12  2  0  0  0  0
 11 43  1  0  0  0  0
 12 13  1  0  0  0  0
 13 17  1  0  0  0  0
 13 14  2  0  0  0  0
 14 15  1  0  0  0  0
 15 16  2  0  0  0  0
 16 17  1  0  0  0  0
 16 44  1  0  0  0  0
 17 18  1  0  0  0  0
 18 19  1  0  0  0  0
 18 45  1  0  0  0  0
 18 46  1  0  0  0  0
 19 20  1  0  0  0  0
 19 22  1  0  0  0  0
 19 47  1  0  0  0  0
 20 21  1  0  0  0  0
 20 48  1  0  0  0  0
 20 49  1  0  0  0  0
 21 50  1  0  0  0  0
 22 26  1  0  0  0  0
 22 23  1  0  0  0  0
 22 51  1  0  0  0  0
 23 24  1  0  0  0  0
 23 52  1  0  0  0  0
 23 53  1  0  0  0  0
 24 25  1  0  0  0  0
 24 54  1  0  0  0  0
 24 55  1  0  0  0  0
 25 26  1  0  0  0  0
 26 56  1  0  0  0  0
 26 57  1  0  0  0  0
 27 28  1  0  0  0  0
 27 58  1  0  0  0  0
 27 59  1  0  0  0  0
 28 29  1  0  0  0  0
 28 60  1  0  0  0  0
 29 61  1  0  0  0  0
 29 62  1  0  0  0  0
 29 63  1  0  0  0  0
M  CHG  1   3   1
M  END
> <s_m_source_file>
AV-unprocessed.smi

> <i_m_source_file_index>
249

> <i_lp_mmshare_version>
43012

> <i_f3d_flags>
0

> <s_epik_input>
W0NIM11bQ0gyXU4xW0NIMl1bQ0gyXVtDQEhdKFtDSDJdW0NASF0xW0NIM10pTihbQ0gzXSljKG5bY0hdbjIpYyhjMjMpbltjSF1uM1tDSDJdW0NASF0oW0NIMl1bT0hdKVtDQEBIXTRbQ0gyXVtDSDJdT1tDSDJdNA==

> <s_epik_cmdline>
J2VwaWtfcHl0aG9uJywgJy1waCcsICc3LjAnLCAnLXRuJywgJzgnLCAnLW1hJywgJzIwMCcsICctbWV0YWxfYmluZGluZycsICctaW1hZScsICc8aW5maWxlLm1hZT4nLCAnLW9tYWUnLCAnPG91dGZpbGUubWFlPic=

> <r_lp_tautomer_probability>
1

> <r_epik_Ionization_Penalty>
0.00294688

> <r_epik_Ionization_Penalty_Charging>
0.00169971

> <r_epik_Ionization_Penalty_Neutral>
0.00124717

> <r_epik_State_Penalty>
-0

> <r_epik_Charging_Adjusted_Penalty>
0.00169971

> <i_epik_Tot_Q>
1

> <i_epik_Tot_abs_Q>
1

> <r_epik_Metal_State_Penalty>
-0

> <b_epik_Metal_Only>
0

> <s_lp_Force_Field>
OPLS_2005

> <r_lp_Energy>
57.5801

> <b_lp_Chiralities_Consistent>
1

> <s_lp_Variant>
AV-unprocessed.smi:249-30

> <Gold.Version>
5.8.1

> <Gold.Id.Protein>
6NUR|6NUR_protein|mol2

> <Gold.PLP.Fitness>
44.0296

> <Gold.PLP.PLP>
-35.7158

> <Gold.PLP.part.hbond>
-3.8523

> <Gold.PLP.part.metal>
0.0000

> <Gold.PLP.part.buried>
-3.2066

> <Gold.PLP.part.nonpolar>
-28.3745

> <Gold.PLP.part.repulsive>
0.7925

> <Gold.PLP.ligand.clash>
0.0000

> <Gold.PLP.ligand.torsion>
2.1854

> <Gold.PLP.Chemscore.Hbond>
4.0000

> <Gold.PLP.Chemscore.CHOScore>
0.0000

> <Gold.PLP.Chemscore.Metal>
0.0000

> <Gold.Chemscore.Hbonds>
donor molecule, donor type, donor heavy atom, donor atom, acceptor molecule, acceptor atom, score
      L1  H     3    64       P1 10957  2.00
      L1  H    21    50       P1  7957  1.00
      P1  H  7997  8008       L1    25  1.00

> <Gold.PLP.Chemscore.Internal.Correction>
0.6846

> <Gold.Rescore>
     Score         DG    S(hbond)    S(metal)    S(lipo)     H(rot)  DE(clash)    DE(int)     intcor
     14.60     -17.20       2.91        0.00      80.58       2.90       0.31       2.28       ----

> <Gold.Chemscore.Fitness>
14.6033

> <Gold.Chemscore.DG>
-17.1976

> <Gold.Chemscore.ZeroCoef>
-5.4800

> <Gold.Chemscore.Hbond>
2.9088

> <Gold.Chemscore.Metal>
0.0000

> <Gold.Chemscore.Lipo>
80.5790

> <Gold.Chemscore.Internal_Hbond>
0.0000

> <Gold.Chemscore.DEClash>
0.3096

> <Gold.Chemscore.DEInternal>
2.2847

> <Gold.Chemscore.Rot>
2.9006

> <Gold.Chemscore.Internal.Correction>
   9.000000E+99

> <Gold.Chemscore.Hbonds>
donor molecule, donor type, donor heavy atom, donor atom, acceptor molecule, acceptor atom, score
      L1  H     3    64       P1 10957  0.44
      L1  H    21    50       P1  7957  0.98
      P1  H  7997  8008       L1    25  0.90

> <Gold.Chemscore.Hbond.Weighted>
-9.7155

> <Gold.Chemscore.Metal.Weighted>
-0.0000

> <Gold.Chemscore.Lipo.Weighted>
-9.4277

> <Gold.Chemscore.Internal_Hbond.Weighted>
0.0000

> <Gold.Chemscore.DEClash.Weighted>
0.3096

> <Gold.Chemscore.DEInternal.Weighted>
2.2847

> <Gold.Chemscore.Rot.Weighted>
7.4256

> <Gold.Chemscore.Internal.Correction.Weighted>
   9.000000E+99

> <Gold.Protein.RotatedTorsions>
[ 6907 6896 6895 6894 ] final  108.75 input  -60.11 | X-H torsion
[ 7974 7965 7964 7962 ] final  103.05 input  175.53 | X-H torsion
[ 8008 7997 7996 7995 ] final  -66.96 input   59.86 | X-H torsion
[ 10167 10162 10161 10158 ] final  111.88 input  -65.29 | X-H torsion
[ 10718 10713 10712 10709 ] final  -46.74 input   66.30 | X-H torsion
[ 10763 10752 10751 10750 ] final -165.67 input  -60.55 | X-H torsion
[ 11005 11000 10999 10996 ] final   52.52 input  -57.11 | X-H torsion

> <Gold.Protein.ActiveResidues>
 VAL166  LYS551  ARG553  GLY616  TRP617  ASP618  TYR619  PRO620  LYS621  CYS622 
 ASP623  PHE694  ASN695  SER759  ASP760  ASP761  ALA762  ILE779  LEU786  VAL792 
 PHE793  MET794  SER795  GLU796  ALA797  LYS798  CYS799  TRP800  GLU811  SER814 

> <Gold.Protein.RotatedAtoms>
  152.5098  133.9043  159.7456 H   0  0  0  0  0  0  0  0  0  0  0  0  # atno 6907 bound_to 6896
  150.9452  133.6603  159.2789 H   0  0  0  0  0  0  0  0  0  0  0  0  # atno 6908 bound_to 6896
  151.3901  135.0959  159.9576 H   0  0  0  0  0  0  0  0  0  0  0  0  # atno 6909 bound_to 6896
  145.3510  139.2439  143.3558 H   0  0  0  0  0  0  0  0  0  0  0  0  # atno 7974 bound_to 7965
  154.4768  140.0902  156.7282 H   0  0  0  0  0  0  0  0  0  0  0  0  # atno 8008 bound_to 7997
  155.4574  140.3459  155.4290 H   0  0  0  0  0  0  0  0  0  0  0  0  # atno 8009 bound_to 7997
  156.1129  140.1453  156.9301 H   0  0  0  0  0  0  0  0  0  0  0  0  # atno 8010 bound_to 7997
  139.6578  144.7129  151.1924 H   0  0  0  0  0  0  0  0  0  0  0  0  # atno 10167 bound_to 10162
  156.2153  130.4163  149.9062 H   0  0  0  0  0  0  0  0  0  0  0  0  # atno 10718 bound_to 10713
  154.6909  135.2970  154.9481 H   0  0  0  0  0  0  0  0  0  0  0  0  # atno 10763 bound_to 10752
  154.0444  135.6653  153.4797 H   0  0  0  0  0  0  0  0  0  0  0  0  # atno 10764 bound_to 10752
  153.0611  135.5115  154.8001 H   0  0  0  0  0  0  0  0  0  0  0  0  # atno 10765 bound_to 10752
  140.0842  134.5297  155.8915 H   0  0  0  0  0  0  0  0  0  0  0  0  # atno 11005 bound_to 11000
  146.2968  140.4126  142.8719 LP  0  0  0  0  0  0  0  0  0  0  0  0  # atno 17320 bound_to 7965
  144.8718  140.7282  143.6042 LP  0  0  0  0  0  0  0  0  0  0  0  0  # atno 17321 bound_to 7965
  140.7567  143.6044  150.8667 LP  0  0  0  0  0  0  0  0  0  0  0  0  # atno 17342 bound_to 10162
  139.9699  143.6069  152.2977 LP  0  0  0  0  0  0  0  0  0  0  0  0  # atno 17343 bound_to 10162
  156.6726  130.8826  151.3564 LP  0  0  0  0  0  0  0  0  0  0  0  0  # atno 17370 bound_to 10713
  157.7060  130.9385  150.0932 LP  0  0  0  0  0  0  0  0  0  0  0  0  # atno 17371 bound_to 10713
  141.2057  133.6649  156.6197 LP  0  0  0  0  0  0  0  0  0  0  0  0  # atno 17394 bound_to 11000
  140.3444  134.7822  157.4421 LP  0  0  0  0  0  0  0  0  0  0  0  0  # atno 17395 bound_to 11000

$$$$
