AV-unprocessed.smi:2117|AV-procd|sdf|8626|dock3
  -GOLD-   2272011373D 1   1.00000     0.00000
 Structure written by MMmdl.
 26 27  0  0  0  0  0  0  0  0  1 V2000
  150.3805  142.8504  156.3638 N   0  0  0  0  0  0  0  0  0  0  0  0
  151.2986  142.9369  157.4128 C   0  0  0  0  0  0  0  0  0  0  0  0
  151.6737  144.2019  157.9098 C   0  0  0  0  0  0  0  0  0  0  0  0
  152.6001  144.2724  158.9665 C   0  0  0  0  0  0  0  0  0  0  0  0
  153.1151  143.0693  159.4848 C   0  0  0  0  0  0  0  0  0  0  0  0
  152.7643  141.8524  159.0187 N   0  0  0  0  0  0  0  0  0  0  0  0
  151.8720  141.7813  158.0008 C   0  0  0  0  0  0  0  0  0  0  0  0
  151.5243  140.5038  157.5311 N   0  0  0  0  0  0  0  0  0  0  0  0
  151.9009  140.2704  156.1426 C   0  0  0  0  0  0  0  0  0  0  0  0
  151.3608  138.9083  155.6743 C   0  0  0  0  0  0  0  0  0  0  0  0
  151.8297  137.8823  156.5450 O   0  0  0  0  0  0  0  0  0  0  0  0
  151.3949  138.0799  157.8877 C   0  0  0  0  0  0  0  0  0  0  0  0
  151.9373  139.4200  158.4139 C   0  0  0  0  0  0  0  0  0  0  0  0
  150.0901  141.9607  155.9843 H   0  0  0  0  0  0  0  0  0  0  0  0
  149.9843  143.6799  155.9452 H   0  0  0  0  0  0  0  0  0  0  0  0
  151.2595  145.1068  157.4893 H   0  0  0  0  0  0  0  0  0  0  0  0
  152.9089  145.2253  159.3700 H   0  0  0  0  0  0  0  0  0  0  0  0
  153.8282  143.0841  160.2957 H   0  0  0  0  0  0  0  0  0  0  0  0
  151.5049  141.0683  155.5132 H   0  0  0  0  0  0  0  0  0  0  0  0
  152.9874  140.2905  156.0459 H   0  0  0  0  0  0  0  0  0  0  0  0
  150.2699  138.9092  155.6517 H   0  0  0  0  0  0  0  0  0  0  0  0
  151.7005  138.6976  154.6602 H   0  0  0  0  0  0  0  0  0  0  0  0
  150.3050  138.0558  157.9347 H   0  0  0  0  0  0  0  0  0  0  0  0
  151.7590  137.2585  158.5047 H   0  0  0  0  0  0  0  0  0  0  0  0
  153.0261  139.3815  158.4692 H   0  0  0  0  0  0  0  0  0  0  0  0
  151.5677  139.6048  159.4233 H   0  0  0  0  0  0  0  0  0  0  0  0
  1  2  1  0  0  0  0
  1 14  1  0  0  0  0
  1 15  1  0  0  0  0
  2  7  1  0  0  0  0
  2  3  2  0  0  0  0
  3  4  1  0  0  0  0
  3 16  1  0  0  0  0
  4  5  2  0  0  0  0
  4 17  1  0  0  0  0
  5  6  1  0  0  0  0
  5 18  1  0  0  0  0
  6  7  2  0  0  0  0
  7  8  1  0  0  0  0
  8 13  1  0  0  0  0
  8  9  1  0  0  0  0
  9 10  1  0  0  0  0
  9 19  1  0  0  0  0
  9 20  1  0  0  0  0
 10 11  1  0  0  0  0
 10 21  1  0  0  0  0
 10 22  1  0  0  0  0
 11 12  1  0  0  0  0
 12 13  1  0  0  0  0
 12 23  1  0  0  0  0
 12 24  1  0  0  0  0
 13 25  1  0  0  0  0
 13 26  1  0  0  0  0
M  END
> <s_m_source_file>
AV-unprocessed.smi

> <i_m_source_file_index>
2117

> <i_lp_mmshare_version>
43012

> <i_f3d_flags>
0

> <s_epik_input>
W05IMl1jMVtjSF1bY0hdW2NIXW5jMU4yW0NIMl1bQ0gyXU9bQ0gyXVtDSDJdMg==

> <s_epik_cmdline>
J2VwaWtfcHl0aG9uJywgJy1waCcsICc3LjAnLCAnLXRuJywgJzgnLCAnLW1hJywgJzIwMCcsICctbWV0YWxfYmluZGluZycsICctaW1hZScsICc8aW5maWxlLm1hZT4nLCAnLW9tYWUnLCAnPG91dGZpbGUubWFlPic=

> <r_lp_tautomer_probability>
1

> <r_epik_Ionization_Penalty>
0.00962163

> <r_epik_Ionization_Penalty_Charging>
0

> <r_epik_Ionization_Penalty_Neutral>
0.00962163

> <r_epik_State_Penalty>
0.00726246

> <r_epik_Charging_Adjusted_Penalty>
0.00726246

> <i_epik_Tot_Q>
0

> <i_epik_Tot_abs_Q>
0

> <r_epik_Metal_State_Penalty>
7.30711e-06

> <b_epik_Metal_Only>
0

> <s_lp_Force_Field>
OPLS_2005

> <r_lp_Energy>
21.1425

> <b_lp_Chiralities_Consistent>
1

> <s_lp_Variant>
AV-unprocessed.smi:2117-1

> <Gold.Version>
5.8.1

> <Gold.Id.Protein>
6NUR|6NUR_protein|mol2

> <Gold.PLP.Fitness>
29.0773

> <Gold.PLP.PLP>
-26.3034

> <Gold.PLP.part.hbond>
-0.8719

> <Gold.PLP.part.metal>
0.0000

> <Gold.PLP.part.buried>
-4.3472

> <Gold.PLP.part.nonpolar>
-21.0630

> <Gold.PLP.part.repulsive>
0.0947

> <Gold.PLP.ligand.clash>
0.0000

> <Gold.PLP.ligand.torsion>
0.1702

> <Gold.PLP.Chemscore.Hbond>
1.0000

> <Gold.PLP.Chemscore.CHOScore>
0.0000

> <Gold.PLP.Chemscore.Metal>
0.0000

> <Gold.Chemscore.Hbonds>
donor molecule, donor type, donor heavy atom, donor atom, acceptor molecule, acceptor atom, score
      L1  H     1    15       P1  8028  1.00

> <Gold.PLP.Chemscore.Internal.Correction>
0.1142

> <Gold.Rescore>
     Score         DG    S(hbond)    S(metal)    S(lipo)     H(rot)  DE(clash)    DE(int)     intcor
     13.59     -14.70       0.99        0.00      72.53       1.00       0.03       1.09       ----

> <Gold.Chemscore.Fitness>
13.5857

> <Gold.Chemscore.DG>
-14.7031

> <Gold.Chemscore.ZeroCoef>
-5.4800

> <Gold.Chemscore.Hbond>
0.9873

> <Gold.Chemscore.Metal>
0.0000

> <Gold.Chemscore.Lipo>
72.5258

> <Gold.Chemscore.Internal_Hbond>
0.0000

> <Gold.Chemscore.DEClash>
0.0288

> <Gold.Chemscore.DEInternal>
1.0886

> <Gold.Chemscore.Rot>
1.0000

> <Gold.Chemscore.Internal.Correction>
   9.000000E+99

> <Gold.Chemscore.Hbonds>
donor molecule, donor type, donor heavy atom, donor atom, acceptor molecule, acceptor atom, score
      L1  H     1    15       P1  8028  0.92

> <Gold.Chemscore.Hbond.Weighted>
-3.2976

> <Gold.Chemscore.Metal.Weighted>
-0.0000

> <Gold.Chemscore.Lipo.Weighted>
-8.4855

> <Gold.Chemscore.Internal_Hbond.Weighted>
0.0000

> <Gold.Chemscore.DEClash.Weighted>
0.0288

> <Gold.Chemscore.DEInternal.Weighted>
1.0886

> <Gold.Chemscore.Rot.Weighted>
2.5600

> <Gold.Chemscore.Internal.Correction.Weighted>
   9.000000E+99

> <Gold.Protein.RotatedTorsions>
[ 6907 6896 6895 6894 ] final -155.34 input  -60.11 | X-H torsion
[ 7974 7965 7964 7962 ] final -174.07 input  175.53 | X-H torsion
[ 8008 7997 7996 7995 ] final -128.55 input   59.86 | X-H torsion
[ 10167 10162 10161 10158 ] final   31.54 input  -65.29 | X-H torsion
[ 10718 10713 10712 10709 ] final    7.72 input   66.30 | X-H torsion
[ 10763 10752 10751 10750 ] final   37.63 input  -60.55 | X-H torsion
[ 11005 11000 10999 10996 ] final -170.09 input  -57.11 | X-H torsion

> <Gold.Protein.ActiveResidues>
 VAL166  LYS551  ARG553  GLY616  TRP617  ASP618  TYR619  PRO620  LYS621  CYS622 
 ASP623  PHE694  ASN695  SER759  ASP760  ASP761  ALA762  ILE779  LEU786  VAL792 
 PHE793  MET794  SER795  GLU796  ALA797  LYS798  CYS799  TRP800  GLU811  SER814 

> <Gold.Protein.RotatedAtoms>
  151.2710  133.4255  159.2621 H   0  0  0  0  0  0  0  0  0  0  0  0  # atno 6907 bound_to 6896
  151.0445  134.9631  159.8189 H   0  0  0  0  0  0  0  0  0  0  0  0  # atno 6908 bound_to 6896
  152.5371  134.2667  159.9008 H   0  0  0  0  0  0  0  0  0  0  0  0  # atno 6909 bound_to 6896
  144.7134  140.1527  143.6383 H   0  0  0  0  0  0  0  0  0  0  0  0  # atno 7974 bound_to 7965
  155.2645  140.0437  157.3001 H   0  0  0  0  0  0  0  0  0  0  0  0  # atno 8008 bound_to 7997
  154.5690  140.2368  155.8189 H   0  0  0  0  0  0  0  0  0  0  0  0  # atno 8009 bound_to 7997
  156.2108  140.2999  155.9735 H   0  0  0  0  0  0  0  0  0  0  0  0  # atno 8010 bound_to 7997
  140.4579  144.0951  150.6206 H   0  0  0  0  0  0  0  0  0  0  0  0  # atno 10167 bound_to 10162
  156.9411  130.5861  149.5652 H   0  0  0  0  0  0  0  0  0  0  0  0  # atno 10718 bound_to 10713
  153.0030  135.6272  154.2176 H   0  0  0  0  0  0  0  0  0  0  0  0  # atno 10763 bound_to 10752
  154.1919  135.2808  155.3021 H   0  0  0  0  0  0  0  0  0  0  0  0  # atno 10764 bound_to 10752
  154.5753  135.5664  153.7193 H   0  0  0  0  0  0  0  0  0  0  0  0  # atno 10765 bound_to 10752
  140.5234  134.5687  157.5054 H   0  0  0  0  0  0  0  0  0  0  0  0  # atno 11005 bound_to 11000
  145.9102  139.2482  143.1442 LP  0  0  0  0  0  0  0  0  0  0  0  0  # atno 17320 bound_to 7965
  145.9724  140.8749  143.0156 LP  0  0  0  0  0  0  0  0  0  0  0  0  # atno 17321 bound_to 7965
  140.4129  143.2648  151.9811 LP  0  0  0  0  0  0  0  0  0  0  0  0  # atno 17342 bound_to 10162
  139.4803  144.5899  151.7789 LP  0  0  0  0  0  0  0  0  0  0  0  0  # atno 17343 bound_to 10162
  156.0404  130.5487  150.8757 LP  0  0  0  0  0  0  0  0  0  0  0  0  # atno 17370 bound_to 10713
  157.5784  131.0946  150.9309 LP  0  0  0  0  0  0  0  0  0  0  0  0  # atno 17371 bound_to 10713
  139.9593  134.7479  156.0271 LP  0  0  0  0  0  0  0  0  0  0  0  0  # atno 17394 bound_to 11000
  141.1322  133.6584  156.3495 LP  0  0  0  0  0  0  0  0  0  0  0  0  # atno 17395 bound_to 11000

$$$$
