AV-unprocessed.smi:1522|AV-procd|sdf|6134|dock5
  -GOLD-   22720 6273D 1   1.00000     0.00000
 Structure written by MMmdl.
 35 36  0  0  0  0  0  0  0  0  2 V2000
  144.1118  137.0289  152.3141 C   0  0  0  0  0  0  0  0  0  0  0  0
  145.6474  137.1434  152.4421 C   0  0  2  0  0  0  0  0  0  0  0  0
  146.1819  138.3291  151.5963 C   0  0  0  0  0  0  0  0  0  0  0  0
  147.4907  138.8004  152.0393 N   0  0  0  0  0  0  0  0  0  0  0  0
  147.7345  139.3754  153.2257 C   0  0  0  0  0  0  0  0  0  0  0  0
  146.8647  139.5602  154.0767 O   0  0  0  0  0  0  0  0  0  0  0  0
  149.0279  139.7150  153.3468 N   0  0  0  0  0  0  0  0  0  0  0  0
  149.6578  140.3723  154.4332 C   0  0  0  0  0  0  0  0  0  0  0  0
  150.9702  140.1792  154.6081 N   0  0  0  0  0  0  0  0  0  0  0  0
  151.4587  140.8839  155.7015 N   0  0  0  0  0  0  0  0  0  0  0  0
  150.4945  141.5826  156.3083 C   0  0  0  0  0  0  0  0  0  0  0  0
  148.8924  141.4495  155.6052 S   0  0  0  0  0  0  0  0  0  0  0  0
  146.3221  135.8719  152.0514 N   0  3  0  0  0  0  0  0  0  0  0  0
  146.2386  134.7796  153.0549 C   0  0  0  0  0  0  0  0  0  0  0  0
  146.0774  133.4617  152.2845 C   0  0  0  0  0  0  0  0  0  0  0  0
  146.3269  133.8273  150.8263 C   0  0  0  0  0  0  0  0  0  0  0  0
  145.8973  135.2881  150.7602 C   0  0  0  0  0  0  0  0  0  0  0  0
  143.6145  137.9591  152.5893 H   0  0  0  0  0  0  0  0  0  0  0  0
  143.7019  136.2620  152.9709 H   0  0  0  0  0  0  0  0  0  0  0  0
  143.8171  136.7883  151.2920 H   0  0  0  0  0  0  0  0  0  0  0  0
  145.8812  137.3255  153.4924 H   0  0  0  0  0  0  0  0  0  0  0  0
  146.2530  138.0689  150.5395 H   0  0  0  0  0  0  0  0  0  0  0  0
  145.4869  139.1674  151.6545 H   0  0  0  0  0  0  0  0  0  0  0  0
  148.2613  138.6827  151.3973 H   0  0  0  0  0  0  0  0  0  0  0  0
  149.6304  139.4910  152.5686 H   0  0  0  0  0  0  0  0  0  0  0  0
  150.7289  142.1814  157.1761 H   0  0  0  0  0  0  0  0  0  0  0  0
  147.1456  134.7772  153.6602 H   0  0  0  0  0  0  0  0  0  0  0  0
  145.3902  134.9151  153.7280 H   0  0  0  0  0  0  0  0  0  0  0  0
  146.7540  132.6833  152.6384 H   0  0  0  0  0  0  0  0  0  0  0  0
  145.0578  133.0915  152.4009 H   0  0  0  0  0  0  0  0  0  0  0  0
  147.3903  133.7430  150.5983 H   0  0  0  0  0  0  0  0  0  0  0  0
  145.7808  133.1912  150.1289 H   0  0  0  0  0  0  0  0  0  0  0  0
  144.8115  135.3478  150.6673 H   0  0  0  0  0  0  0  0  0  0  0  0
  146.3433  135.8051  149.9099 H   0  0  0  0  0  0  0  0  0  0  0  0
  147.3053  136.0785  151.9467 H   0  0  0  0  0  0  0  0  0  0  0  0
  1  2  1  0  0  0  0
  1 18  1  0  0  0  0
  1 19  1  0  0  0  0
  1 20  1  0  0  0  0
  2  3  1  0  0  0  0
  2 13  1  0  0  0  0
  2 21  1  0  0  0  0
  3  4  1  0  0  0  0
  3 22  1  0  0  0  0
  3 23  1  0  0  0  0
  4  5  1  0  0  0  0
  4 24  1  0  0  0  0
  5  6  2  0  0  0  0
  5  7  1  0  0  0  0
  7  8  1  0  0  0  0
  7 25  1  0  0  0  0
  8 12  1  0  0  0  0
  8  9  2  0  0  0  0
  9 10  1  0  0  0  0
 10 11  2  0  0  0  0
 11 12  1  0  0  0  0
 11 26  1  0  0  0  0
 13 17  1  0  0  0  0
 13 14  1  0  0  0  0
 13 35  1  0  0  0  0
 14 15  1  0  0  0  0
 14 27  1  0  0  0  0
 14 28  1  0  0  0  0
 15 16  1  0  0  0  0
 15 29  1  0  0  0  0
 15 30  1  0  0  0  0
 16 17  1  0  0  0  0
 16 31  1  0  0  0  0
 16 32  1  0  0  0  0
 17 33  1  0  0  0  0
 17 34  1  0  0  0  0
M  CHG  1  13   1
M  END
> <s_m_source_file>
AV-unprocessed.smi

> <i_m_source_file_index>
1522

> <i_lp_mmshare_version>
43012

> <i_f3d_flags>
0

> <s_epik_input>
W0NIMl0xW0NIMl1bQ0gyXVtDSDJdTjFbQ0BIXShbQ0gzXSlbQ0gyXVtOSF1DKD1PKVtOSF1jMm5uW2NIXXMy

> <s_epik_cmdline>
J2VwaWtfcHl0aG9uJywgJy1waCcsICc3LjAnLCAnLXRuJywgJzgnLCAnLW1hJywgJzIwMCcsICctbWV0YWxfYmluZGluZycsICctaW1hZScsICc8aW5maWxlLm1hZT4nLCAnLW9tYWUnLCAnPG91dGZpbGUubWFlPic=

> <r_lp_tautomer_probability>
1

> <r_epik_Ionization_Penalty>
0.00457064

> <r_epik_Ionization_Penalty_Charging>
0.000848324

> <r_epik_Ionization_Penalty_Neutral>
0.00372231

> <r_epik_State_Penalty>
-0

> <r_epik_Charging_Adjusted_Penalty>
0.000848324

> <i_epik_Tot_Q>
1

> <i_epik_Tot_abs_Q>
1

> <r_epik_Metal_State_Penalty>
0.370178

> <b_epik_Metal_Only>
0

> <s_lp_Force_Field>
OPLS_2005

> <r_lp_Energy>
27.0536

> <b_lp_Chiralities_Consistent>
1

> <s_lp_Variant>
AV-unprocessed.smi:1522-1

> <Gold.Version>
5.8.1

> <Gold.Id.Protein>
6NUR|6NUR_protein|mol2

> <Gold.PLP.Fitness>
40.2627

> <Gold.PLP.PLP>
-28.3486

> <Gold.PLP.part.hbond>
-5.6401

> <Gold.PLP.part.metal>
0.0000

> <Gold.PLP.part.buried>
-2.3543

> <Gold.PLP.part.nonpolar>
-20.6010

> <Gold.PLP.part.repulsive>
0.4310

> <Gold.PLP.ligand.clash>
0.0000

> <Gold.PLP.ligand.torsion>
0.5545

> <Gold.PLP.Chemscore.Hbond>
4.3280

> <Gold.PLP.Chemscore.CHOScore>
0.0000

> <Gold.PLP.Chemscore.Metal>
0.0000

> <Gold.Chemscore.Hbonds>
donor molecule, donor type, donor heavy atom, donor atom, acceptor molecule, acceptor atom, score
      L1  H     4    24       P1  7957  0.46
      L1  H     7    25       P1  7957  0.56
      L1  H    13    35       P1  7948  2.00
      P1  H  7989  7998       L1     9  0.83

> <Gold.PLP.Chemscore.Internal.Correction>
0.0391

> <Gold.Rescore>
     Score         DG    S(hbond)    S(metal)    S(lipo)     H(rot)  DE(clash)    DE(int)     intcor
     17.63     -18.28       3.51        0.00      46.49       1.70       0.17       0.49       ----

> <Gold.Chemscore.Fitness>
17.6275

> <Gold.Chemscore.DG>
-18.2827

> <Gold.Chemscore.ZeroCoef>
-5.4800

> <Gold.Chemscore.Hbond>
3.5098

> <Gold.Chemscore.Metal>
0.0000

> <Gold.Chemscore.Lipo>
46.4897

> <Gold.Chemscore.Internal_Hbond>
0.0000

> <Gold.Chemscore.DEClash>
0.1674

> <Gold.Chemscore.DEInternal>
0.4879

> <Gold.Chemscore.Rot>
1.7028

> <Gold.Chemscore.Internal.Correction>
   9.000000E+99

> <Gold.Chemscore.Hbonds>
donor molecule, donor type, donor heavy atom, donor atom, acceptor molecule, acceptor atom, score
      L1  H     4    24       P1  7957  0.14
      L1  H     7    25       P1  7957  0.54
      L1  H    13    35       P1  7948  1.00
      P1  H  7989  7998       L1     9  0.14

> <Gold.Chemscore.Hbond.Weighted>
-11.7226

> <Gold.Chemscore.Metal.Weighted>
-0.0000

> <Gold.Chemscore.Lipo.Weighted>
-5.4393

> <Gold.Chemscore.Internal_Hbond.Weighted>
0.0000

> <Gold.Chemscore.DEClash.Weighted>
0.1674

> <Gold.Chemscore.DEInternal.Weighted>
0.4879

> <Gold.Chemscore.Rot.Weighted>
4.3592

> <Gold.Chemscore.Internal.Correction.Weighted>
   9.000000E+99

> <Gold.Protein.RotatedTorsions>
[ 6907 6896 6895 6894 ] final  -48.87 input  -60.11 | X-H torsion
[ 7974 7965 7964 7962 ] final   86.20 input  175.53 | X-H torsion
[ 8008 7997 7996 7995 ] final  -47.77 input   59.86 | X-H torsion
[ 10167 10162 10161 10158 ] final -103.39 input  -65.29 | X-H torsion
[ 10718 10713 10712 10709 ] final  157.57 input   66.30 | X-H torsion
[ 10763 10752 10751 10750 ] final  145.80 input  -60.55 | X-H torsion
[ 11005 11000 10999 10996 ] final  115.09 input  -57.11 | X-H torsion

> <Gold.Protein.ActiveResidues>
 VAL166  LYS551  ARG553  GLY616  TRP617  ASP618  TYR619  PRO620  LYS621  CYS622 
 ASP623  PHE694  ASN695  SER759  ASP760  ASP761  ALA762  ILE779  LEU786  VAL792 
 PHE793  MET794  SER795  GLU796  ALA797  LYS798  CYS799  TRP800  GLU811  SER814 

> <Gold.Protein.RotatedAtoms>
  150.8862  134.8260  159.7260 H   0  0  0  0  0  0  0  0  0  0  0  0  # atno 6907 bound_to 6896
  152.4809  134.4719  159.9648 H   0  0  0  0  0  0  0  0  0  0  0  0  # atno 6908 bound_to 6896
  151.4788  133.3512  159.2870 H   0  0  0  0  0  0  0  0  0  0  0  0  # atno 6909 bound_to 6896
  145.5754  139.2318  143.2383 H   0  0  0  0  0  0  0  0  0  0  0  0  # atno 7974 bound_to 7965
  154.4020  140.1338  156.4230 H   0  0  0  0  0  0  0  0  0  0  0  0  # atno 8008 bound_to 7997
  155.7624  140.3486  155.5185 H   0  0  0  0  0  0  0  0  0  0  0  0  # atno 8009 bound_to 7997
  155.8846  140.0993  157.1452 H   0  0  0  0  0  0  0  0  0  0  0  0  # atno 8010 bound_to 7997
  140.2205  143.3679  152.0973 H   0  0  0  0  0  0  0  0  0  0  0  0  # atno 10167 bound_to 10162
  157.1897  131.0651  151.2086 H   0  0  0  0  0  0  0  0  0  0  0  0  # atno 10718 bound_to 10713
  154.0113  135.2914  155.3392 H   0  0  0  0  0  0  0  0  0  0  0  0  # atno 10763 bound_to 10752
  154.7101  135.5153  153.8657 H   0  0  0  0  0  0  0  0  0  0  0  0  # atno 10764 bound_to 10752
  153.0722  135.6651  154.0344 H   0  0  0  0  0  0  0  0  0  0  0  0  # atno 10765 bound_to 10752
  139.8999  134.9578  156.6992 H   0  0  0  0  0  0  0  0  0  0  0  0  # atno 11005 bound_to 11000
  146.1754  140.6580  142.9213 LP  0  0  0  0  0  0  0  0  0  0  0  0  # atno 17320 bound_to 7965
  144.7418  140.4963  143.6863 LP  0  0  0  0  0  0  0  0  0  0  0  0  # atno 17321 bound_to 7965
  139.5146  144.6950  151.5655 LP  0  0  0  0  0  0  0  0  0  0  0  0  # atno 17342 bound_to 10162
  140.6258  143.9171  150.6563 LP  0  0  0  0  0  0  0  0  0  0  0  0  # atno 17343 bound_to 10162
  157.3873  130.7263  149.6672 LP  0  0  0  0  0  0  0  0  0  0  0  0  # atno 17370 bound_to 10713
  155.9713  130.4156  150.4190 LP  0  0  0  0  0  0  0  0  0  0  0  0  # atno 17371 bound_to 10713
  140.7164  133.9178  155.8118 LP  0  0  0  0  0  0  0  0  0  0  0  0  # atno 17394 bound_to 11000
  141.0261  134.0821  157.4067 LP  0  0  0  0  0  0  0  0  0  0  0  0  # atno 17395 bound_to 11000

$$$$
