AV-unprocessed.smi:671|AV-procd|sdf|3286|dock1
  -GOLD-   22720 0243D 1   1.00000     0.00000
 Structure written by MMmdl.
 50 51  0  0  0  0  0  0  0  0  2 V2000
  148.4849  141.1988  156.2252 C   0  0  0  0  0  0  0  0  0  0  0  0
  149.6458  141.6323  157.0561 C   0  0  0  0  0  0  0  0  0  0  0  0
  150.1887  142.8785  157.0197 N   0  3  0  0  0  0  0  0  0  0  0  0
  151.2158  142.9617  157.8767 N   0  0  0  0  0  0  0  0  0  0  0  0
  151.9464  144.2235  157.9961 C   0  0  0  0  0  0  0  0  0  0  0  0
  151.3961  141.7701  158.5129 C   0  0  0  0  0  0  0  0  0  0  0  0
  152.4574  141.5077  159.5305 C   0  0  0  0  0  0  0  0  0  0  0  0
  150.4078  140.9242  157.9940 C   0  0  0  0  0  0  0  0  0  0  0  0
  150.2042  139.4833  158.3788 C   0  0  0  0  0  0  0  0  0  0  0  0
  148.9801  138.8374  157.6978 C   0  0  1  0  0  0  0  0  0  0  0  0
  149.3859  137.9657  156.5019 C   0  0  0  0  0  0  0  0  0  0  0  0
  148.2340  138.0229  158.6633 N   0  0  0  0  0  0  0  0  0  0  0  0
  148.6493  136.9713  159.3921 C   0  0  0  0  0  0  0  0  0  0  0  0
  149.7959  136.5386  159.2979 O   0  0  0  0  0  0  0  0  0  0  0  0
  147.7159  136.4339  160.1949 N   0  0  0  0  0  0  0  0  0  0  0  0
  147.9068  135.2899  161.0876 C   0  0  2  0  0  0  0  0  0  0  0  0
  147.0623  134.0931  160.6032 C   0  0  0  0  0  0  0  0  0  0  0  0
  146.1103  133.7330  161.7492 C   0  0  0  0  0  0  0  0  0  0  0  0
  146.0265  134.9928  162.6059 C   0  0  0  0  0  0  0  0  0  0  0  0
  147.4373  135.5786  162.5331 C   0  0  2  0  0  0  0  0  0  0  0  0
  147.5232  137.0370  163.0133 C   0  0  0  0  0  0  0  0  0  0  0  0
  148.8041  140.4658  155.4843 H   0  0  0  0  0  0  0  0  0  0  0  0
  148.0473  142.0500  155.7028 H   0  0  0  0  0  0  0  0  0  0  0  0
  147.7173  140.7487  156.8548 H   0  0  0  0  0  0  0  0  0  0  0  0
  152.9803  144.0665  157.6874 H   0  0  0  0  0  0  0  0  0  0  0  0
  151.9218  144.5515  159.0355 H   0  0  0  0  0  0  0  0  0  0  0  0
  151.4908  144.9868  157.3636 H   0  0  0  0  0  0  0  0  0  0  0  0
  152.6154  140.4373  159.6587 H   0  0  0  0  0  0  0  0  0  0  0  0
  152.1685  141.9340  160.4909 H   0  0  0  0  0  0  0  0  0  0  0  0
  153.4013  141.9560  159.2194 H   0  0  0  0  0  0  0  0  0  0  0  0
  151.0974  138.9084  158.1312 H   0  0  0  0  0  0  0  0  0  0  0  0
  150.1009  139.3989  159.4613 H   0  0  0  0  0  0  0  0  0  0  0  0
  148.3638  139.6488  157.3103 H   0  0  0  0  0  0  0  0  0  0  0  0
  149.9296  138.5485  155.7579 H   0  0  0  0  0  0  0  0  0  0  0  0
  148.5093  137.5420  156.0103 H   0  0  0  0  0  0  0  0  0  0  0  0
  150.0270  137.1392  156.8105 H   0  0  0  0  0  0  0  0  0  0  0  0
  147.2447  138.2201  158.7108 H   0  0  0  0  0  0  0  0  0  0  0  0
  146.7957  136.8489  160.1879 H   0  0  0  0  0  0  0  0  0  0  0  0
  148.9595  135.0018  161.1050 H   0  0  0  0  0  0  0  0  0  0  0  0
  146.4854  134.3518  159.7136 H   0  0  0  0  0  0  0  0  0  0  0  0
  147.6902  133.2422  160.3357 H   0  0  0  0  0  0  0  0  0  0  0  0
  145.1335  133.4025  161.3943 H   0  0  0  0  0  0  0  0  0  0  0  0
  146.5394  132.9210  162.3383 H   0  0  0  0  0  0  0  0  0  0  0  0
  145.3068  135.6879  162.1703 H   0  0  0  0  0  0  0  0  0  0  0  0
  145.7115  134.7814  163.6282 H   0  0  0  0  0  0  0  0  0  0  0  0
  148.0655  134.9807  163.1957 H   0  0  0  0  0  0  0  0  0  0  0  0
  146.8544  137.6812  162.4447 H   0  0  0  0  0  0  0  0  0  0  0  0
  148.5361  137.4276  162.9115 H   0  0  0  0  0  0  0  0  0  0  0  0
  147.2406  137.1180  164.0629 H   0  0  0  0  0  0  0  0  0  0  0  0
  149.9114  143.6724  156.4560 H   0  0  0  0  0  0  0  0  0  0  0  0
  1  2  1  0  0  0  0
  1 22  1  0  0  0  0
  1 23  1  0  0  0  0
  1 24  1  0  0  0  0
  2  8  1  0  0  0  0
  2  3  2  0  0  0  0
  3  4  1  0  0  0  0
  3 50  1  0  0  0  0
  4  5  1  0  0  0  0
  4  6  1  0  0  0  0
  5 25  1  0  0  0  0
  5 26  1  0  0  0  0
  5 27  1  0  0  0  0
  6  7  1  0  0  0  0
  6  8  2  0  0  0  0
  7 28  1  0  0  0  0
  7 29  1  0  0  0  0
  7 30  1  0  0  0  0
  8  9  1  0  0  0  0
  9 10  1  0  0  0  0
  9 31  1  0  0  0  0
  9 32  1  0  0  0  0
 10 11  1  0  0  0  0
 10 12  1  0  0  0  0
 10 33  1  0  0  0  0
 11 34  1  0  0  0  0
 11 35  1  0  0  0  0
 11 36  1  0  0  0  0
 12 13  1  0  0  0  0
 12 37  1  0  0  0  0
 13 14  2  0  0  0  0
 13 15  1  0  0  0  0
 15 16  1  0  0  0  0
 15 38  1  0  0  0  0
 16 20  1  0  0  0  0
 16 17  1  0  0  0  0
 16 39  1  0  0  0  0
 17 18  1  0  0  0  0
 17 40  1  0  0  0  0
 17 41  1  0  0  0  0
 18 19  1  0  0  0  0
 18 42  1  0  0  0  0
 18 43  1  0  0  0  0
 19 20  1  0  0  0  0
 19 44  1  0  0  0  0
 19 45  1  0  0  0  0
 20 21  1  0  0  0  0
 20 46  1  0  0  0  0
 21 47  1  0  0  0  0
 21 48  1  0  0  0  0
 21 49  1  0  0  0  0
M  CHG  1   3   1
M  END
> <s_m_source_file>
AV-unprocessed.smi

> <i_m_source_file_index>
671

> <i_lp_mmshare_version>
43012

> <i_f3d_flags>
0

> <s_epik_input>
W0NIM11jMW5uKFtDSDNdKWMoW0NIM10pYzFbQ0gyXVtDQEhdKFtDSDNdKVtOSF1DKD1PKVtOSF1bQ0BASF0yW0NIMl1bQ0gyXVtDSDJdW0NASF0yW0NIM10=

> <s_epik_cmdline>
J2VwaWtfcHl0aG9uJywgJy1waCcsICc3LjAnLCAnLXRuJywgJzgnLCAnLW1hJywgJzIwMCcsICctbWV0YWxfYmluZGluZycsICctaW1hZScsICc8aW5maWxlLm1hZT4nLCAnLW9tYWUnLCAnPG91dGZpbGUubWFlPic=

> <r_lp_tautomer_probability>
1

> <r_epik_Ionization_Penalty>
2.28705

> <r_epik_Ionization_Penalty_Charging>
2.28698

> <r_epik_Ionization_Penalty_Neutral>
6.23157e-05

> <r_epik_State_Penalty>
2.43671

> <r_epik_Charging_Adjusted_Penalty>
4.72369

> <i_epik_Tot_Q>
1

> <i_epik_Tot_abs_Q>
1

> <r_epik_Metal_State_Penalty>
2.44911

> <b_epik_Metal_Only>
0

> <s_lp_Force_Field>
OPLS_2005

> <r_lp_Energy>
35.2288

> <b_lp_Chiralities_Consistent>
1

> <s_lp_Variant>
AV-unprocessed.smi:671-14

> <Gold.Version>
5.8.1

> <Gold.Id.Protein>
6NUR|6NUR_protein|mol2

> <Gold.PLP.Fitness>
41.0906

> <Gold.PLP.PLP>
-38.9663

> <Gold.PLP.part.hbond>
-2.0000

> <Gold.PLP.part.metal>
0.0000

> <Gold.PLP.part.buried>
-4.9331

> <Gold.PLP.part.nonpolar>
-32.7686

> <Gold.PLP.part.repulsive>
0.3794

> <Gold.PLP.ligand.clash>
5.6100

> <Gold.PLP.ligand.torsion>
0.6772

> <Gold.PLP.Chemscore.Hbond>
3.0000

> <Gold.PLP.Chemscore.CHOScore>
0.0000

> <Gold.PLP.Chemscore.Metal>
0.0000

> <Gold.Chemscore.Hbonds>
donor molecule, donor type, donor heavy atom, donor atom, acceptor molecule, acceptor atom, score
      L1  H     3    50       P1  8028  2.00
      P1  H  6896  6908       L1    14  1.00

> <Gold.PLP.Chemscore.Internal.Correction>
0.0888

> <Gold.Rescore>
     Score         DG    S(hbond)    S(metal)    S(lipo)     H(rot)  DE(clash)    DE(int)     intcor
     17.70     -19.86       1.99        0.00      98.95       1.51       0.02       2.14       ----

> <Gold.Chemscore.Fitness>
17.6969

> <Gold.Chemscore.DG>
-19.8585

> <Gold.Chemscore.ZeroCoef>
-5.4800

> <Gold.Chemscore.Hbond>
1.9929

> <Gold.Chemscore.Metal>
0.0000

> <Gold.Chemscore.Lipo>
98.9464

> <Gold.Chemscore.Internal_Hbond>
0.0000

> <Gold.Chemscore.DEClash>
0.0222

> <Gold.Chemscore.DEInternal>
2.1394

> <Gold.Chemscore.Rot>
1.5057

> <Gold.Chemscore.Internal.Correction>
   9.000000E+99

> <Gold.Chemscore.Hbonds>
donor molecule, donor type, donor heavy atom, donor atom, acceptor molecule, acceptor atom, score
      L1  H     3    50       P1  8028  0.99
      P1  H  6896  6908       L1    14  0.97

> <Gold.Chemscore.Hbond.Weighted>
-6.6564

> <Gold.Chemscore.Metal.Weighted>
-0.0000

> <Gold.Chemscore.Lipo.Weighted>
-11.5767

> <Gold.Chemscore.Internal_Hbond.Weighted>
0.0000

> <Gold.Chemscore.DEClash.Weighted>
0.0222

> <Gold.Chemscore.DEInternal.Weighted>
2.1394

> <Gold.Chemscore.Rot.Weighted>
3.8547

> <Gold.Chemscore.Internal.Correction.Weighted>
   9.000000E+99

> <Gold.Protein.RotatedTorsions>
[ 6907 6896 6895 6894 ] final -163.46 input  -60.11 | X-H torsion
[ 7974 7965 7964 7962 ] final -118.60 input  175.53 | X-H torsion
[ 8008 7997 7996 7995 ] final   79.31 input   59.86 | X-H torsion
[ 10167 10162 10161 10158 ] final    6.40 input  -65.29 | X-H torsion
[ 10718 10713 10712 10709 ] final  -70.53 input   66.30 | X-H torsion
[ 10763 10752 10751 10750 ] final  109.33 input  -60.55 | X-H torsion
[ 11005 11000 10999 10996 ] final  177.76 input  -57.11 | X-H torsion

> <Gold.Protein.ActiveResidues>
 VAL166  LYS551  ARG553  GLY616  TRP617  ASP618  TYR619  PRO620  LYS621  CYS622 
 ASP623  PHE694  ASN695  SER759  ASP760  ASP761  ALA762  ILE779  LEU786  VAL792 
 PHE793  MET794  SER795  GLU796  ALA797  LYS798  CYS799  TRP800  GLU811  SER814 

> <Gold.Protein.RotatedAtoms>
  151.3963  133.3772  159.2726 H   0  0  0  0  0  0  0  0  0  0  0  0  # atno 6907 bound_to 6896
  150.9467  134.8872  159.7657 H   0  0  0  0  0  0  0  0  0  0  0  0  # atno 6908 bound_to 6896
  152.5094  134.3917  159.9438 H   0  0  0  0  0  0  0  0  0  0  0  0  # atno 6909 bound_to 6896
  145.0719  140.8365  143.4090 H   0  0  0  0  0  0  0  0  0  0  0  0  # atno 7974 bound_to 7965
  155.8679  140.3450  155.5800 H   0  0  0  0  0  0  0  0  0  0  0  0  # atno 8008 bound_to 7997
  155.7861  140.0865  157.2053 H   0  0  0  0  0  0  0  0  0  0  0  0  # atno 8009 bound_to 7997
  154.4015  140.1492  156.3095 H   0  0  0  0  0  0  0  0  0  0  0  0  # atno 8010 bound_to 7997
  140.6430  143.7730  150.7456 H   0  0  0  0  0  0  0  0  0  0  0  0  # atno 10167 bound_to 10162
  156.0403  130.4333  150.2310 H   0  0  0  0  0  0  0  0  0  0  0  0  # atno 10718 bound_to 10713
  153.4332  135.3783  155.2183 H   0  0  0  0  0  0  0  0  0  0  0  0  # atno 10763 bound_to 10752
  154.8751  135.3845  154.4243 H   0  0  0  0  0  0  0  0  0  0  0  0  # atno 10764 bound_to 10752
  153.4778  135.7088  153.6018 H   0  0  0  0  0  0  0  0  0  0  0  0  # atno 10765 bound_to 10752
  140.3876  134.6891  157.4488 H   0  0  0  0  0  0  0  0  0  0  0  0  # atno 11005 bound_to 11000
  145.1282  139.2649  143.5553 LP  0  0  0  0  0  0  0  0  0  0  0  0  # atno 17320 bound_to 7965
  146.3529  140.0925  142.8612 LP  0  0  0  0  0  0  0  0  0  0  0  0  # atno 17321 bound_to 7965
  140.1365  143.4479  152.2221 LP  0  0  0  0  0  0  0  0  0  0  0  0  # atno 17342 bound_to 10162
  139.5639  144.7423  151.4077 LP  0  0  0  0  0  0  0  0  0  0  0  0  # atno 17343 bound_to 10162
  157.0405  131.0034  151.3285 LP  0  0  0  0  0  0  0  0  0  0  0  0  # atno 17370 bound_to 10713
  157.5213  130.7999  149.7812 LP  0  0  0  0  0  0  0  0  0  0  0  0  # atno 17371 bound_to 10713
  140.0431  134.6239  155.8955 LP  0  0  0  0  0  0  0  0  0  0  0  0  # atno 17394 bound_to 11000
  141.1902  133.6567  156.5401 LP  0  0  0  0  0  0  0  0  0  0  0  0  # atno 17395 bound_to 11000

$$$$
