AV-unprocessed.smi:701|AV-procd|sdf|3408|dock4
  -GOLD-   22720 0383D 1   1.00000     0.00000
 Structure written by MMmdl.
 49 51  0  0  0  0  0  0  0  0  1 V2000
  154.1209  141.1898  161.1149 C   0  0  0  0  0  0  0  0  0  0  0  0
  153.5302  142.2252  160.1555 C   0  0  0  0  0  0  0  0  0  0  0  0
  152.9315  141.5457  159.0650 O   0  0  0  0  0  0  0  0  0  0  0  0
  151.5187  141.7047  159.0118 C   0  0  2  0  0  0  0  0  0  0  0  0
  150.8707  140.7697  157.9818 C   0  0  0  0  0  0  0  0  0  0  0  0
  151.1044  141.8844  156.9615 C   0  0  1  0  0  0  0  0  0  0  0  0
  150.0066  142.0220  156.0117 N   0  0  0  0  0  0  0  0  0  0  0  0
  149.7735  141.1741  154.9998 C   0  0  0  0  0  0  0  0  0  0  0  0
  150.4781  140.1902  154.7702 O   0  0  0  0  0  0  0  0  0  0  0  0
  148.5808  141.5075  154.0937 C   0  0  0  0  0  0  0  0  0  0  0  0
  147.2952  141.4236  154.8010 N   0  0  0  0  0  0  0  0  0  0  0  0
  146.4925  142.5477  154.9352 C   0  0  0  0  0  0  0  0  0  0  0  0
  145.2909  142.5355  155.5595 C   0  0  0  0  0  0  0  0  0  0  0  0
  144.7709  141.3005  156.1365 C   0  0  0  0  0  0  0  0  0  0  0  0
  143.6955  141.1883  156.7205 O   0  0  0  0  0  0  0  0  0  0  0  0
  145.6070  140.1917  155.9801 N   0  0  0  0  0  0  0  0  0  0  0  0
  146.8453  140.1970  155.3362 C   0  0  0  0  0  0  0  0  0  0  0  0
  147.5016  139.1598  155.2495 O   0  0  0  0  0  0  0  0  0  0  0  0
  151.0865  142.9065  158.1281 C   0  0  0  0  0  0  0  0  0  0  0  0
  149.7207  143.5327  158.4971 C   0  0  0  0  0  0  0  0  0  0  0  0
  149.7699  144.3586  159.7948 C   0  0  0  0  0  0  0  0  0  0  0  0
  150.8314  145.4632  159.7131 C   0  0  0  0  0  0  0  0  0  0  0  0
  152.1953  144.8954  159.2995 C   0  0  0  0  0  0  0  0  0  0  0  0
  152.0824  144.0737  158.0050 C   0  0  0  0  0  0  0  0  0  0  0  0
  145.2880  139.3135  156.3624 H   0  0  0  0  0  0  0  0  0  0  0  0
  154.5893  141.6744  161.9716 H   0  0  0  0  0  0  0  0  0  0  0  0
  154.8781  140.5828  160.6177 H   0  0  0  0  0  0  0  0  0  0  0  0
  153.3473  140.5200  161.4909 H   0  0  0  0  0  0  0  0  0  0  0  0
  152.7933  142.8362  160.6777 H   0  0  0  0  0  0  0  0  0  0  0  0
  154.3157  142.8911  159.7958 H   0  0  0  0  0  0  0  0  0  0  0  0
  151.0467  141.6864  159.9950 H   0  0  0  0  0  0  0  0  0  0  0  0
  151.4163  139.8487  157.7765 H   0  0  0  0  0  0  0  0  0  0  0  0
  149.8175  140.5738  158.1901 H   0  0  0  0  0  0  0  0  0  0  0  0
  152.0882  141.7949  156.4942 H   0  0  0  0  0  0  0  0  0  0  0  0
  149.3883  142.8113  156.1301 H   0  0  0  0  0  0  0  0  0  0  0  0
  148.7051  142.4993  153.6538 H   0  0  0  0  0  0  0  0  0  0  0  0
  148.5952  140.8157  153.2505 H   0  0  0  0  0  0  0  0  0  0  0  0
  146.8354  143.4839  154.5183 H   0  0  0  0  0  0  0  0  0  0  0  0
  144.7103  143.4439  155.6308 H   0  0  0  0  0  0  0  0  0  0  0  0
  149.3742  144.1774  157.6881 H   0  0  0  0  0  0  0  0  0  0  0  0
  148.9566  142.7627  158.6046 H   0  0  0  0  0  0  0  0  0  0  0  0
  148.7923  144.7995  159.9913 H   0  0  0  0  0  0  0  0  0  0  0  0
  149.9866  143.7065  160.6412 H   0  0  0  0  0  0  0  0  0  0  0  0
  150.5167  146.2123  158.9854 H   0  0  0  0  0  0  0  0  0  0  0  0
  150.9130  145.9775  160.6710 H   0  0  0  0  0  0  0  0  0  0  0  0
  152.9092  145.7081  159.1638 H   0  0  0  0  0  0  0  0  0  0  0  0
  152.5903  144.2667  160.0984 H   0  0  0  0  0  0  0  0  0  0  0  0
  153.0719  143.7099  157.7273 H   0  0  0  0  0  0  0  0  0  0  0  0
  151.7809  144.7328  157.1898 H   0  0  0  0  0  0  0  0  0  0  0  0
  1  2  1  0  0  0  0
  1 26  1  0  0  0  0
  1 27  1  0  0  0  0
  1 28  1  0  0  0  0
  2  3  1  0  0  0  0
  2 29  1  0  0  0  0
  2 30  1  0  0  0  0
  3  4  1  0  0  0  0
  4 19  1  0  0  0  0
  4  5  1  0  0  0  0
  4 31  1  0  0  0  0
  5  6  1  0  0  0  0
  5 32  1  0  0  0  0
  5 33  1  0  0  0  0
  6  7  1  0  0  0  0
  6 19  1  0  0  0  0
  6 34  1  0  0  0  0
  7  8  1  0  0  0  0
  7 35  1  0  0  0  0
  8  9  2  0  0  0  0
  8 10  1  0  0  0  0
 10 11  1  0  0  0  0
 10 36  1  0  0  0  0
 10 37  1  0  0  0  0
 11 17  1  0  0  0  0
 11 12  1  0  0  0  0
 12 13  2  0  0  0  0
 12 38  1  0  0  0  0
 13 14  1  0  0  0  0
 13 39  1  0  0  0  0
 14 15  2  0  0  0  0
 14 16  1  0  0  0  0
 16 25  1  0  0  0  0
 16 17  1  0  0  0  0
 17 18  2  0  0  0  0
 19 24  1  0  0  0  0
 19 20  1  0  0  0  0
 20 21  1  0  0  0  0
 20 40  1  0  0  0  0
 20 41  1  0  0  0  0
 21 22  1  0  0  0  0
 21 42  1  0  0  0  0
 21 43  1  0  0  0  0
 22 23  1  0  0  0  0
 22 44  1  0  0  0  0
 22 45  1  0  0  0  0
 23 24  1  0  0  0  0
 23 46  1  0  0  0  0
 23 47  1  0  0  0  0
 24 48  1  0  0  0  0
 24 49  1  0  0  0  0
M  END
> <s_m_source_file>
AV-unprocessed.smi

> <i_m_source_file_index>
701

> <i_lp_mmshare_version>
43012

> <i_f3d_flags>
0

> <s_epik_input>
W0NIMl0xW0NIMl1bQ0gyXVtDSDJdW0NIMl1DMTJbQ0BIXShPW0NIMl1bQ0gzXSlbQ0gyXVtDQEhdMltOSF1DKD1PKVtDSDJdbjNbY0hdW2NIXWMoPU8pW25IXWMzPU8=

> <s_epik_cmdline>
J2VwaWtfcHl0aG9uJywgJy1waCcsICc3LjAnLCAnLXRuJywgJzgnLCAnLW1hJywgJzIwMCcsICctbWV0YWxfYmluZGluZycsICctaW1hZScsICc8aW5maWxlLm1hZT4nLCAnLW9tYWUnLCAnPG91dGZpbGUubWFlPic=

> <r_lp_tautomer_probability>
0.999537

> <r_epik_Ionization_Penalty>
0.00304597

> <r_epik_Ionization_Penalty_Charging>
0.00304595

> <r_epik_Ionization_Penalty_Neutral>
1.88422e-08

> <r_epik_State_Penalty>
0.00214084

> <r_epik_Charging_Adjusted_Penalty>
0.00518679

> <i_epik_Tot_Q>
0

> <i_epik_Tot_abs_Q>
0

> <r_epik_Metal_State_Penalty>
0.361872

> <b_epik_Metal_Only>
0

> <s_lp_Force_Field>
OPLS_2005

> <r_lp_Energy>
27.2214

> <b_lp_Chiralities_Consistent>
1

> <s_lp_Variant>
AV-unprocessed.smi:701-1

> <Gold.Version>
5.8.1

> <Gold.Id.Protein>
6NUR|6NUR_protein|mol2

> <Gold.PLP.Fitness>
52.2968

> <Gold.PLP.PLP>
-46.3562

> <Gold.PLP.part.hbond>
-2.0000

> <Gold.PLP.part.metal>
0.0000

> <Gold.PLP.part.buried>
-3.3925

> <Gold.PLP.part.nonpolar>
-40.8046

> <Gold.PLP.part.repulsive>
0.2633

> <Gold.PLP.ligand.clash>
0.0000

> <Gold.PLP.ligand.torsion>
0.7383

> <Gold.PLP.Chemscore.Hbond>
2.0000

> <Gold.PLP.Chemscore.CHOScore>
0.3588

> <Gold.PLP.Chemscore.Metal>
0.0000

> <Gold.Chemscore.Hbonds>
donor molecule, donor type, donor heavy atom, donor atom, acceptor molecule, acceptor atom, score
      L1  H     7    35       P1  8028  0.99
      P1  H  7989  7998       L1     9  1.00
      L1  C    12    38       P1  8028  0.31

> <Gold.PLP.Chemscore.Internal.Correction>
0.3410

> <Gold.Rescore>
     Score         DG    S(hbond)    S(metal)    S(lipo)     H(rot)  DE(clash)    DE(int)     intcor
     18.32     -19.51       1.65        0.00     118.63       2.09       0.42       0.77       ----

> <Gold.Chemscore.Fitness>
18.3203

> <Gold.Chemscore.DG>
-19.5127

> <Gold.Chemscore.ZeroCoef>
-5.4800

> <Gold.Chemscore.Hbond>
1.6501

> <Gold.Chemscore.Metal>
0.0000

> <Gold.Chemscore.Lipo>
118.6338

> <Gold.Chemscore.Internal_Hbond>
0.0000

> <Gold.Chemscore.DEClash>
0.4237

> <Gold.Chemscore.DEInternal>
0.7687

> <Gold.Chemscore.Rot>
2.0933

> <Gold.Chemscore.Internal.Correction>
   9.000000E+99

> <Gold.Chemscore.Hbonds>
donor molecule, donor type, donor heavy atom, donor atom, acceptor molecule, acceptor atom, score
      L1  H     7    35       P1  8028  0.87
      P1  H  7989  7998       L1     9  0.30

> <Gold.Chemscore.Hbond.Weighted>
-5.5113

> <Gold.Chemscore.Metal.Weighted>
-0.0000

> <Gold.Chemscore.Lipo.Weighted>
-13.8802

> <Gold.Chemscore.Internal_Hbond.Weighted>
0.0000

> <Gold.Chemscore.DEClash.Weighted>
0.4237

> <Gold.Chemscore.DEInternal.Weighted>
0.7687

> <Gold.Chemscore.Rot.Weighted>
5.3588

> <Gold.Chemscore.Internal.Correction.Weighted>
   9.000000E+99

> <Gold.Protein.RotatedTorsions>
[ 6907 6896 6895 6894 ] final -175.74 input  -60.11 | X-H torsion
[ 7974 7965 7964 7962 ] final   67.70 input  175.53 | X-H torsion
[ 8008 7997 7996 7995 ] final  -17.60 input   59.86 | X-H torsion
[ 10167 10162 10161 10158 ] final   85.74 input  -65.29 | X-H torsion
[ 10718 10713 10712 10709 ] final  156.16 input   66.30 | X-H torsion
[ 10763 10752 10751 10750 ] final  -31.69 input  -60.55 | X-H torsion
[ 11005 11000 10999 10996 ] final   44.19 input  -57.11 | X-H torsion

> <Gold.Protein.ActiveResidues>
 VAL166  LYS551  ARG553  GLY616  TRP617  ASP618  TYR619  PRO620  LYS621  CYS622 
 ASP623  PHE694  ASN695  SER759  ASP760  ASP761  ALA762  ILE779  LEU786  VAL792 
 PHE793  MET794  SER795  GLU796  ALA797  LYS798  CYS799  TRP800  GLU811  SER814 

> <Gold.Protein.RotatedAtoms>
  151.5934  133.3364  159.3032 H   0  0  0  0  0  0  0  0  0  0  0  0  # atno 6907 bound_to 6896
  150.8247  134.7476  159.6814 H   0  0  0  0  0  0  0  0  0  0  0  0  # atno 6908 bound_to 6896
  152.4338  134.5733  159.9979 H   0  0  0  0  0  0  0  0  0  0  0  0  # atno 6909 bound_to 6896
  145.8115  139.3035  143.1096 H   0  0  0  0  0  0  0  0  0  0  0  0  # atno 7974 bound_to 7965
  154.4967  140.2138  155.9433 H   0  0  0  0  0  0  0  0  0  0  0  0  # atno 8008 bound_to 7997
  156.1379  140.3185  155.8417 H   0  0  0  0  0  0  0  0  0  0  0  0  # atno 8009 bound_to 7997
  155.4175  140.0494  157.3018 H   0  0  0  0  0  0  0  0  0  0  0  0  # atno 8010 bound_to 7997
  139.8947  144.6365  150.8701 H   0  0  0  0  0  0  0  0  0  0  0  0  # atno 10167 bound_to 10162
  157.2086  131.0692  151.1983 H   0  0  0  0  0  0  0  0  0  0  0  0  # atno 10718 bound_to 10713
  153.8015  135.6890  153.4855 H   0  0  0  0  0  0  0  0  0  0  0  0  # atno 10763 bound_to 10752
  153.1685  135.4552  154.9869 H   0  0  0  0  0  0  0  0  0  0  0  0  # atno 10764 bound_to 10752
  154.8004  135.3335  154.7503 H   0  0  0  0  0  0  0  0  0  0  0  0  # atno 10765 bound_to 10752
  140.1574  134.4384  155.8340 H   0  0  0  0  0  0  0  0  0  0  0  0  # atno 11005 bound_to 11000
  145.9772  140.8712  143.0132 LP  0  0  0  0  0  0  0  0  0  0  0  0  # atno 17320 bound_to 7965
  144.6757  140.2029  143.7385 LP  0  0  0  0  0  0  0  0  0  0  0  0  # atno 17321 bound_to 7965
  140.7719  143.3483  151.2066 LP  0  0  0  0  0  0  0  0  0  0  0  0  # atno 17342 bound_to 10162
  139.7079  143.9425  152.2934 LP  0  0  0  0  0  0  0  0  0  0  0  0  # atno 17343 bound_to 10162
  157.3695  130.7173  149.6555 LP  0  0  0  0  0  0  0  0  0  0  0  0  # atno 17370 bound_to 10713
  155.9693  130.4203  150.4415 LP  0  0  0  0  0  0  0  0  0  0  0  0  # atno 17371 bound_to 10713
  141.2206  133.6898  156.7533 LP  0  0  0  0  0  0  0  0  0  0  0  0  # atno 17394 bound_to 11000
  140.2530  134.8526  157.3686 LP  0  0  0  0  0  0  0  0  0  0  0  0  # atno 17395 bound_to 11000

$$$$
