AV-unprocessed.smi:1071|AV-procd|sdf|4677|dock3
  -GOLD-   22720 3193D 1   1.00000     0.00000
 Structure written by MMmdl.
 47 48  0  0  0  0  0  0  0  0  2 V2000
  154.8465  137.6593  164.8246 C   0  0  0  0  0  0  0  0  0  0  0  0
  155.3781  137.0667  163.6525 O   0  0  0  0  0  0  0  0  0  0  0  0
  154.3668  136.6026  162.7737 C   0  0  0  0  0  0  0  0  0  0  0  0
  155.0018  136.2310  161.4310 C   0  0  0  0  0  0  0  0  0  0  0  0
  153.9734  136.1426  160.4495 O   0  0  0  0  0  0  0  0  0  0  0  0
  153.4047  137.3105  159.9840 C   0  0  0  0  0  0  0  0  0  0  0  0
  153.8643  138.5366  160.5033 C   0  0  0  0  0  0  0  0  0  0  0  0
  153.2895  139.7309  160.0302 C   0  0  0  0  0  0  0  0  0  0  0  0
  152.2807  139.6691  159.0478 C   0  0  0  0  0  0  0  0  0  0  0  0
  151.7194  140.8967  158.6016 N   0  0  0  0  0  0  0  0  0  0  0  0
  151.5367  142.0454  159.2827 C   0  0  0  0  0  0  0  0  0  0  0  0
  151.9998  142.2666  160.4002 O   0  0  0  0  0  0  0  0  0  0  0  0
  150.8910  142.9858  158.5498 N   0  0  0  0  0  0  0  0  0  0  0  0
  149.7219  142.6129  157.7390 C   0  0  0  0  0  0  0  0  0  0  0  0
  148.4435  142.7958  158.5821 C   0  0  0  0  0  0  0  0  0  0  0  0
  148.3374  144.1779  159.1188 N   0  3  1  0  0  0  0  0  0  0  0  0
  147.1312  144.3694  159.9518 C   0  0  0  0  0  0  0  0  0  0  0  0
  149.5753  144.6468  159.7955 C   0  0  0  0  0  0  0  0  0  0  0  0
  150.8149  144.4171  158.9061 C   0  0  1  0  0  0  0  0  0  0  0  0
  152.1023  145.0108  159.5158 C   0  0  0  0  0  0  0  0  0  0  0  0
  151.8779  138.3870  158.5990 C   0  0  0  0  0  0  0  0  0  0  0  0
  152.4248  137.2381  159.0496 N   0  0  0  0  0  0  0  0  0  0  0  0
  155.6605  137.9959  165.4666 H   0  0  0  0  0  0  0  0  0  0  0  0
  154.2457  136.9454  165.3897 H   0  0  0  0  0  0  0  0  0  0  0  0
  154.2275  138.5247  164.5835 H   0  0  0  0  0  0  0  0  0  0  0  0
  153.8677  135.7322  163.2029 H   0  0  0  0  0  0  0  0  0  0  0  0
  153.6128  137.3777  162.6278 H   0  0  0  0  0  0  0  0  0  0  0  0
  155.7323  136.9902  161.1468 H   0  0  0  0  0  0  0  0  0  0  0  0
  155.5227  135.2764  161.5234 H   0  0  0  0  0  0  0  0  0  0  0  0
  154.6439  138.5603  161.2504 H   0  0  0  0  0  0  0  0  0  0  0  0
  153.6255  140.6824  160.4157 H   0  0  0  0  0  0  0  0  0  0  0  0
  151.3045  140.8673  157.6816 H   0  0  0  0  0  0  0  0  0  0  0  0
  149.6788  143.2418  156.8487 H   0  0  0  0  0  0  0  0  0  0  0  0
  149.7686  141.5882  157.3679 H   0  0  0  0  0  0  0  0  0  0  0  0
  147.5649  142.5732  157.9758 H   0  0  0  0  0  0  0  0  0  0  0  0
  148.4436  142.0867  159.4118 H   0  0  0  0  0  0  0  0  0  0  0  0
  147.1772  143.7575  160.8536 H   0  0  0  0  0  0  0  0  0  0  0  0
  146.2334  144.0950  159.3974 H   0  0  0  0  0  0  0  0  0  0  0  0
  147.0320  145.4134  160.2508 H   0  0  0  0  0  0  0  0  0  0  0  0
  149.4752  145.7077  160.0283 H   0  0  0  0  0  0  0  0  0  0  0  0
  149.6920  144.1235  160.7462 H   0  0  0  0  0  0  0  0  0  0  0  0
  150.6616  144.9656  157.9749 H   0  0  0  0  0  0  0  0  0  0  0  0
  152.0382  146.0986  159.5540 H   0  0  0  0  0  0  0  0  0  0  0  0
  152.9776  144.7589  158.9161 H   0  0  0  0  0  0  0  0  0  0  0  0
  152.2793  144.6715  160.5359 H   0  0  0  0  0  0  0  0  0  0  0  0
  151.0906  138.2496  157.8753 H   0  0  0  0  0  0  0  0  0  0  0  0
  148.2232  144.7761  158.3129 H   0  0  0  0  0  0  0  0  0  0  0  0
  1  2  1  0  0  0  0
  1 23  1  0  0  0  0
  1 24  1  0  0  0  0
  1 25  1  0  0  0  0
  2  3  1  0  0  0  0
  3  4  1  0  0  0  0
  3 26  1  0  0  0  0
  3 27  1  0  0  0  0
  4  5  1  0  0  0  0
  4 28  1  0  0  0  0
  4 29  1  0  0  0  0
  5  6  1  0  0  0  0
  6 22  1  0  0  0  0
  6  7  2  0  0  0  0
  7  8  1  0  0  0  0
  7 30  1  0  0  0  0
  8  9  2  0  0  0  0
  8 31  1  0  0  0  0
  9 10  1  0  0  0  0
  9 21  1  0  0  0  0
 10 11  1  0  0  0  0
 10 32  1  0  0  0  0
 11 12  2  0  0  0  0
 11 13  1  0  0  0  0
 13 19  1  0  0  0  0
 13 14  1  0  0  0  0
 14 15  1  0  0  0  0
 14 33  1  0  0  0  0
 14 34  1  0  0  0  0
 15 16  1  0  0  0  0
 15 35  1  0  0  0  0
 15 36  1  0  0  0  0
 16 17  1  0  0  0  0
 16 18  1  0  0  0  0
 16 47  1  0  0  0  0
 17 37  1  0  0  0  0
 17 38  1  0  0  0  0
 17 39  1  0  0  0  0
 18 19  1  0  0  0  0
 18 40  1  0  0  0  0
 18 41  1  0  0  0  0
 19 20  1  0  0  0  0
 19 42  1  0  0  0  0
 20 43  1  0  0  0  0
 20 44  1  0  0  0  0
 20 45  1  0  0  0  0
 21 22  2  0  0  0  0
 21 46  1  0  0  0  0
M  CHG  1  16   1
M  END
> <s_m_source_file>
AV-unprocessed.smi

> <i_m_source_file_index>
1071

> <i_lp_mmshare_version>
43012

> <i_f3d_flags>
0

> <s_epik_input>
W0NIM11PW0NIMl1bQ0gyXU9jMVtjSF1bY0hdYyhbY0hdbjEpW05IXUMoPU8pTjJbQ0gyXVtDSDJdTihbQ0gzXSlbQ0gyXVtDQEhdMltDSDNd

> <s_epik_cmdline>
J2VwaWtfcHl0aG9uJywgJy1waCcsICc3LjAnLCAnLXRuJywgJzgnLCAnLW1hJywgJzIwMCcsICctbWV0YWxfYmluZGluZycsICctaW1hZScsICc8aW5maWxlLm1hZT4nLCAnLW9tYWUnLCAnPG91dGZpbGUubWFlPic=

> <r_lp_tautomer_probability>
1

> <r_epik_Ionization_Penalty>
0.25455

> <r_epik_Ionization_Penalty_Charging>
0.254506

> <r_epik_Ionization_Penalty_Neutral>
4.43365e-05

> <r_epik_State_Penalty>
0.245983

> <r_epik_Charging_Adjusted_Penalty>
0.500488

> <i_epik_Tot_Q>
1

> <i_epik_Tot_abs_Q>
1

> <r_epik_Metal_State_Penalty>
0.245987

> <b_epik_Metal_Only>
0

> <s_lp_Force_Field>
OPLS_2005

> <r_lp_Energy>
54.998

> <b_lp_Chiralities_Consistent>
1

> <s_lp_Variant>
AV-unprocessed.smi:1071-1

> <Gold.Version>
5.8.1

> <Gold.Id.Protein>
6NUR|6NUR_protein|mol2

> <Gold.PLP.Fitness>
42.9555

> <Gold.PLP.PLP>
-35.3636

> <Gold.PLP.part.hbond>
-2.5080

> <Gold.PLP.part.metal>
0.0000

> <Gold.PLP.part.buried>
-5.7665

> <Gold.PLP.part.nonpolar>
-27.1114

> <Gold.PLP.part.repulsive>
0.3064

> <Gold.PLP.ligand.clash>
0.6092

> <Gold.PLP.ligand.torsion>
0.7089

> <Gold.PLP.Chemscore.Hbond>
3.0000

> <Gold.PLP.Chemscore.CHOScore>
0.0000

> <Gold.PLP.Chemscore.Metal>
0.0000

> <Gold.Chemscore.Hbonds>
donor molecule, donor type, donor heavy atom, donor atom, acceptor molecule, acceptor atom, score
      L1  H    16    47       P1  8029  2.00
      P1  H  6896  6907       L1     5  0.73

> <Gold.PLP.Chemscore.Internal.Correction>
0.6189

> <Gold.Rescore>
     Score         DG    S(hbond)    S(metal)    S(lipo)     H(rot)  DE(clash)    DE(int)     intcor
     14.37     -17.68       1.89        0.00      85.58       1.60       0.04       3.28       ----

> <Gold.Chemscore.Fitness>
14.3713

> <Gold.Chemscore.DG>
-17.6846

> <Gold.Chemscore.ZeroCoef>
-5.4800

> <Gold.Chemscore.Hbond>
1.8859

> <Gold.Chemscore.Metal>
0.0000

> <Gold.Chemscore.Lipo>
85.5836

> <Gold.Chemscore.Internal_Hbond>
0.0000

> <Gold.Chemscore.DEClash>
0.0361

> <Gold.Chemscore.DEInternal>
3.2773

> <Gold.Chemscore.Rot>
1.6045

> <Gold.Chemscore.Internal.Correction>
   9.000000E+99

> <Gold.Chemscore.Hbonds>
donor molecule, donor type, donor heavy atom, donor atom, acceptor molecule, acceptor atom, score
      L1  H    16    47       P1  8029  0.87
      P1  H  6896  6907       L1     5  0.19

> <Gold.Chemscore.Hbond.Weighted>
-6.2989

> <Gold.Chemscore.Metal.Weighted>
-0.0000

> <Gold.Chemscore.Lipo.Weighted>
-10.0133

> <Gold.Chemscore.Internal_Hbond.Weighted>
0.0000

> <Gold.Chemscore.DEClash.Weighted>
0.0361

> <Gold.Chemscore.DEInternal.Weighted>
3.2773

> <Gold.Chemscore.Rot.Weighted>
4.1075

> <Gold.Chemscore.Internal.Correction.Weighted>
   9.000000E+99

> <Gold.Protein.RotatedTorsions>
[ 6907 6896 6895 6894 ] final   52.97 input  -60.11 | X-H torsion
[ 7974 7965 7964 7962 ] final -159.34 input  175.53 | X-H torsion
[ 8008 7997 7996 7995 ] final  -71.99 input   59.86 | X-H torsion
[ 10167 10162 10161 10158 ] final   75.74 input  -65.29 | X-H torsion
[ 10718 10713 10712 10709 ] final  -36.36 input   66.30 | X-H torsion
[ 10763 10752 10751 10750 ] final -165.88 input  -60.55 | X-H torsion
[ 11005 11000 10999 10996 ] final  138.74 input  -57.11 | X-H torsion

> <Gold.Protein.ActiveResidues>
 VAL166  LYS551  ARG553  GLY616  TRP617  ASP618  TYR619  PRO620  LYS621  CYS622 
 ASP623  PHE694  ASN695  SER759  ASP760  ASP761  ALA762  ILE779  LEU786  VAL792 
 PHE793  MET794  SER795  GLU796  ALA797  LYS798  CYS799  TRP800  GLU811  SER814 

> <Gold.Protein.RotatedAtoms>
  152.3288  134.7286  160.0294 H   0  0  0  0  0  0  0  0  0  0  0  0  # atno 6907 bound_to 6896
  151.7710  133.3336  159.3452 H   0  0  0  0  0  0  0  0  0  0  0  0  # atno 6908 bound_to 6896
  150.7411  134.5950  159.6052 H   0  0  0  0  0  0  0  0  0  0  0  0  # atno 6909 bound_to 6896
  144.7469  140.3698  143.6078 H   0  0  0  0  0  0  0  0  0  0  0  0  # atno 7974 bound_to 7965
  154.5130  140.0805  156.8028 H   0  0  0  0  0  0  0  0  0  0  0  0  # atno 8008 bound_to 7997
  155.3742  140.3424  155.4226 H   0  0  0  0  0  0  0  0  0  0  0  0  # atno 8009 bound_to 7997
  156.1596  140.1584  156.8622 H   0  0  0  0  0  0  0  0  0  0  0  0  # atno 8010 bound_to 7997
  139.9997  144.5696  150.7748 H   0  0  0  0  0  0  0  0  0  0  0  0  # atno 10167 bound_to 10162
  156.3278  130.4275  149.7900 H   0  0  0  0  0  0  0  0  0  0  0  0  # atno 10718 bound_to 10713
  154.6889  135.2967  154.9508 H   0  0  0  0  0  0  0  0  0  0  0  0  # atno 10763 bound_to 10752
  154.0478  135.6648  153.4801 H   0  0  0  0  0  0  0  0  0  0  0  0  # atno 10764 bound_to 10752
  153.0598  135.5122  154.7970 H   0  0  0  0  0  0  0  0  0  0  0  0  # atno 10765 bound_to 10752
  140.0205  134.9399  157.0464 H   0  0  0  0  0  0  0  0  0  0  0  0  # atno 11005 bound_to 11000
  145.7089  139.1680  143.2550 LP  0  0  0  0  0  0  0  0  0  0  0  0  # atno 17320 bound_to 7965
  146.1361  140.7120  142.9389 LP  0  0  0  0  0  0  0  0  0  0  0  0  # atno 17321 bound_to 7965
  140.7423  143.2831  151.3542 LP  0  0  0  0  0  0  0  0  0  0  0  0  # atno 17342 bound_to 10162
  139.6281  144.0775  152.2452 LP  0  0  0  0  0  0  0  0  0  0  0  0  # atno 17343 bound_to 10162
  156.5184  130.8204  151.3195 LP  0  0  0  0  0  0  0  0  0  0  0  0  # atno 17370 bound_to 10713
  157.7424  130.9891  150.2518 LP  0  0  0  0  0  0  0  0  0  0  0  0  # atno 17371 bound_to 10713
  140.4395  134.1695  155.7173 LP  0  0  0  0  0  0  0  0  0  0  0  0  # atno 17394 bound_to 11000
  141.1771  133.8492  157.1386 LP  0  0  0  0  0  0  0  0  0  0  0  0  # atno 17395 bound_to 11000

$$$$
