AV-unprocessed.smi:1690|AV-procd|sdf|6773|dock6
  -GOLD-   22720 7533D 1   1.00000     0.00000
 Structure written by MMmdl.
 37 38  0  0  0  0  0  0  0  0  1 V2000
  154.0543  141.0928  160.6446 C   0  0  0  0  0  0  0  0  0  0  0  0
  153.6581  142.5561  160.8895 C   0  0  0  0  0  0  0  0  0  0  0  0
  153.0775  142.7967  162.2908 C   0  0  0  0  0  0  0  0  0  0  0  0
  152.7634  143.0855  159.8136 C   0  0  0  0  0  0  0  0  0  0  0  0
  152.4118  142.3850  158.7312 N   0  0  0  0  0  0  0  0  0  0  0  0
  151.5526  143.0917  157.8831 C   0  0  0  0  0  0  0  0  0  0  0  0
  151.0401  142.4455  156.6279 C   0  0  0  0  0  0  0  0  0  0  0  0
  149.7039  141.7471  156.8919 C   0  0  0  0  0  0  0  0  0  0  0  0
  149.6839  140.6334  157.4157 O   0  0  0  0  0  0  0  0  0  0  0  0
  148.5968  142.4162  156.5326 N   0  0  0  0  0  0  0  0  0  0  0  0
  147.2280  141.9310  156.6800 C   0  0  0  0  0  0  0  0  0  0  0  0
  146.5502  141.7912  155.3028 C   0  0  0  0  0  0  0  0  0  0  0  0
  145.2097  142.5209  155.4113 C   0  0  0  0  0  0  0  0  0  0  0  0
  145.4472  143.5978  156.4652 C   0  0  0  0  0  0  0  0  0  0  0  0
  146.3666  142.9238  157.4838 C   0  0  0  0  0  0  0  0  0  0  0  0
  151.2694  144.3569  158.3350 C   0  0  0  0  0  0  0  0  0  0  0  0
  152.0594  144.6986  159.8496 S   0  0  0  0  0  0  0  0  0  0  0  0
  154.5381  140.9749  159.6744 H   0  0  0  0  0  0  0  0  0  0  0  0
  153.1833  140.4371  160.6648 H   0  0  0  0  0  0  0  0  0  0  0  0
  154.7513  140.7418  161.4060 H   0  0  0  0  0  0  0  0  0  0  0  0
  154.5798  143.1368  160.8352 H   0  0  0  0  0  0  0  0  0  0  0  0
  152.8876  143.8572  162.4594 H   0  0  0  0  0  0  0  0  0  0  0  0
  153.7655  142.4569  163.0650 H   0  0  0  0  0  0  0  0  0  0  0  0
  152.1358  142.2639  162.4269 H   0  0  0  0  0  0  0  0  0  0  0  0
  150.9109  143.1897  155.8410 H   0  0  0  0  0  0  0  0  0  0  0  0
  151.7535  141.7143  156.2456 H   0  0  0  0  0  0  0  0  0  0  0  0
  148.7134  143.3265  156.1108 H   0  0  0  0  0  0  0  0  0  0  0  0
  147.2318  140.9614  157.1820 H   0  0  0  0  0  0  0  0  0  0  0  0
  147.1524  142.2654  154.5257 H   0  0  0  0  0  0  0  0  0  0  0  0
  146.4202  140.7478  155.0139 H   0  0  0  0  0  0  0  0  0  0  0  0
  144.8771  142.9310  154.4574 H   0  0  0  0  0  0  0  0  0  0  0  0
  144.4423  141.8295  155.7621 H   0  0  0  0  0  0  0  0  0  0  0  0
  145.9592  144.4485  156.0135 H   0  0  0  0  0  0  0  0  0  0  0  0
  144.5214  143.9625  156.9110 H   0  0  0  0  0  0  0  0  0  0  0  0
  145.7599  142.3707  158.2023 H   0  0  0  0  0  0  0  0  0  0  0  0
  146.9516  143.6485  158.0518 H   0  0  0  0  0  0  0  0  0  0  0  0
  150.6395  145.1029  157.8734 H   0  0  0  0  0  0  0  0  0  0  0  0
  1  2  1  0  0  0  0
  1 18  1  0  0  0  0
  1 19  1  0  0  0  0
  1 20  1  0  0  0  0
  2  3  1  0  0  0  0
  2  4  1  0  0  0  0
  2 21  1  0  0  0  0
  3 22  1  0  0  0  0
  3 23  1  0  0  0  0
  3 24  1  0  0  0  0
  4 17  1  0  0  0  0
  4  5  2  0  0  0  0
  5  6  1  0  0  0  0
  6  7  1  0  0  0  0
  6 16  2  0  0  0  0
  7  8  1  0  0  0  0
  7 25  1  0  0  0  0
  7 26  1  0  0  0  0
  8  9  2  0  0  0  0
  8 10  1  0  0  0  0
 10 11  1  0  0  0  0
 10 27  1  0  0  0  0
 11 15  1  0  0  0  0
 11 12  1  0  0  0  0
 11 28  1  0  0  0  0
 12 13  1  0  0  0  0
 12 29  1  0  0  0  0
 12 30  1  0  0  0  0
 13 14  1  0  0  0  0
 13 31  1  0  0  0  0
 13 32  1  0  0  0  0
 14 15  1  0  0  0  0
 14 33  1  0  0  0  0
 14 34  1  0  0  0  0
 15 35  1  0  0  0  0
 15 36  1  0  0  0  0
 16 17  1  0  0  0  0
 16 37  1  0  0  0  0
M  END
> <s_m_source_file>
AV-unprocessed.smi

> <i_m_source_file_index>
1690

> <i_lp_mmshare_version>
43012

> <i_f3d_flags>
0

> <s_epik_input>
W0NIM11bQ0hdKFtDSDNdKWMxbmMoW2NIXXMxKVtDSDJdQyg9TylbTkhdW0NIXTJbQ0gyXVtDSDJdW0NIMl1bQ0gyXTI=

> <s_epik_cmdline>
J2VwaWtfcHl0aG9uJywgJy1waCcsICc3LjAnLCAnLXRuJywgJzgnLCAnLW1hJywgJzIwMCcsICctbWV0YWxfYmluZGluZycsICctaW1hZScsICc8aW5maWxlLm1hZT4nLCAnLW9tYWUnLCAnPG91dGZpbGUubWFlPic=

> <r_lp_tautomer_probability>
1

> <r_epik_Ionization_Penalty>
4.81312e-05

> <r_epik_Ionization_Penalty_Charging>
0

> <r_epik_Ionization_Penalty_Neutral>
4.81312e-05

> <r_epik_State_Penalty>
-0

> <r_epik_Charging_Adjusted_Penalty>
0

> <i_epik_Tot_Q>
0

> <i_epik_Tot_abs_Q>
0

> <r_epik_Metal_State_Penalty>
-0

> <b_epik_Metal_Only>
0

> <s_lp_Force_Field>
OPLS_2005

> <r_lp_Energy>
9.48899

> <b_lp_Chiralities_Consistent>
1

> <s_lp_Variant>
AV-unprocessed.smi:1690-1

> <Gold.Version>
5.8.1

> <Gold.Id.Protein>
6NUR|6NUR_protein|mol2

> <Gold.PLP.Fitness>
43.2429

> <Gold.PLP.PLP>
-38.7895

> <Gold.PLP.part.hbond>
-1.0000

> <Gold.PLP.part.metal>
0.0000

> <Gold.PLP.part.buried>
-5.8411

> <Gold.PLP.part.nonpolar>
-31.6295

> <Gold.PLP.part.repulsive>
0.0525

> <Gold.PLP.ligand.clash>
0.0000

> <Gold.PLP.ligand.torsion>
0.8152

> <Gold.PLP.Chemscore.Hbond>
1.0000

> <Gold.PLP.Chemscore.CHOScore>
1.0021

> <Gold.PLP.Chemscore.Metal>
0.0000

> <Gold.Chemscore.Hbonds>
donor molecule, donor type, donor heavy atom, donor atom, acceptor molecule, acceptor atom, score
      L1  H    10    27       P1  8028  0.84
      L1  C    16    37       P1  8028  0.23
      L1  C    16    37       P1  8029  0.03

> <Gold.PLP.Chemscore.Internal.Correction>
0.0774

> <Gold.Rescore>
     Score         DG    S(hbond)    S(metal)    S(lipo)     H(rot)  DE(clash)    DE(int)     intcor
     16.58     -17.40       0.98        0.00     103.43       1.35       0.00       0.82       ----

> <Gold.Chemscore.Fitness>
16.5805

> <Gold.Chemscore.DG>
-17.4025

> <Gold.Chemscore.ZeroCoef>
-5.4800

> <Gold.Chemscore.Hbond>
0.9803

> <Gold.Chemscore.Metal>
0.0000

> <Gold.Chemscore.Lipo>
103.4303

> <Gold.Chemscore.Internal_Hbond>
0.0000

> <Gold.Chemscore.DEClash>
0.0000

> <Gold.Chemscore.DEInternal>
0.8219

> <Gold.Chemscore.Rot>
1.3489

> <Gold.Chemscore.Internal.Correction>
   9.000000E+99

> <Gold.Chemscore.Hbonds>
donor molecule, donor type, donor heavy atom, donor atom, acceptor molecule, acceptor atom, score
      L1  H    10    27       P1  8028  0.80

> <Gold.Chemscore.Hbond.Weighted>
-3.2743

> <Gold.Chemscore.Metal.Weighted>
-0.0000

> <Gold.Chemscore.Lipo.Weighted>
-12.1013

> <Gold.Chemscore.Internal_Hbond.Weighted>
0.0000

> <Gold.Chemscore.DEClash.Weighted>
0.0000

> <Gold.Chemscore.DEInternal.Weighted>
0.8219

> <Gold.Chemscore.Rot.Weighted>
3.4532

> <Gold.Chemscore.Internal.Correction.Weighted>
   9.000000E+99

> <Gold.Protein.RotatedTorsions>
[ 6907 6896 6895 6894 ] final  -83.07 input  -60.11 | X-H torsion
[ 7974 7965 7964 7962 ] final  -74.90 input  175.53 | X-H torsion
[ 8008 7997 7996 7995 ] final  -51.42 input   59.86 | X-H torsion
[ 10167 10162 10161 10158 ] final  -86.74 input  -65.29 | X-H torsion
[ 10718 10713 10712 10709 ] final  179.51 input   66.30 | X-H torsion
[ 10763 10752 10751 10750 ] final -116.73 input  -60.55 | X-H torsion
[ 11005 11000 10999 10996 ] final   81.35 input  -57.11 | X-H torsion

> <Gold.Protein.ActiveResidues>
 VAL166  LYS551  ARG553  GLY616  TRP617  ASP618  TYR619  PRO620  LYS621  CYS622 
 ASP623  PHE694  ASN695  SER759  ASP760  ASP761  ALA762  ILE779  LEU786  VAL792 
 PHE793  MET794  SER795  GLU796  ALA797  LYS798  CYS799  TRP800  GLU811  SER814 

> <Gold.Protein.RotatedAtoms>
  150.6889  134.3568  159.4932 H   0  0  0  0  0  0  0  0  0  0  0  0  # atno 6907 bound_to 6896
  152.1402  134.9065  160.0563 H   0  0  0  0  0  0  0  0  0  0  0  0  # atno 6908 bound_to 6896
  152.0202  133.3861  159.4292 H   0  0  0  0  0  0  0  0  0  0  0  0  # atno 6909 bound_to 6896
  145.6330  140.9332  143.1076 H   0  0  0  0  0  0  0  0  0  0  0  0  # atno 7974 bound_to 7965
  154.4082  140.1248  156.4825 H   0  0  0  0  0  0  0  0  0  0  0  0  # atno 8008 bound_to 7997
  155.7070  140.3494  155.4938 H   0  0  0  0  0  0  0  0  0  0  0  0  # atno 8009 bound_to 7997
  155.9334  140.1074  157.1104 H   0  0  0  0  0  0  0  0  0  0  0  0  # atno 8010 bound_to 7997
  140.3912  143.2704  151.9261 H   0  0  0  0  0  0  0  0  0  0  0  0  # atno 10167 bound_to 10162
  156.8747  130.9795  151.3069 H   0  0  0  0  0  0  0  0  0  0  0  0  # atno 10718 bound_to 10713
  154.8530  135.4335  154.1868 H   0  0  0  0  0  0  0  0  0  0  0  0  # atno 10763 bound_to 10752
  153.2945  135.6964  153.7267 H   0  0  0  0  0  0  0  0  0  0  0  0  # atno 10764 bound_to 10752
  153.6421  135.3466  155.3049 H   0  0  0  0  0  0  0  0  0  0  0  0  # atno 10765 bound_to 10752
  139.9101  134.7990  156.2030 H   0  0  0  0  0  0  0  0  0  0  0  0  # atno 11005 bound_to 11000
  144.7186  139.8109  143.7390 LP  0  0  0  0  0  0  0  0  0  0  0  0  # atno 17320 bound_to 7965
  146.1341  139.4383  143.0150 LP  0  0  0  0  0  0  0  0  0  0  0  0  # atno 17321 bound_to 7965
  139.4789  144.5725  151.8065 LP  0  0  0  0  0  0  0  0  0  0  0  0  # atno 17342 bound_to 10162
  140.4837  144.1412  150.5937 LP  0  0  0  0  0  0  0  0  0  0  0  0  # atno 17343 bound_to 10162
  157.6175  130.8630  149.9053 LP  0  0  0  0  0  0  0  0  0  0  0  0  # atno 17370 bound_to 10713
  156.0708  130.3685  150.0780 LP  0  0  0  0  0  0  0  0  0  0  0  0  # atno 17371 bound_to 10713
  141.0513  133.6887  156.1777 LP  0  0  0  0  0  0  0  0  0  0  0  0  # atno 17394 bound_to 11000
  140.6806  134.4771  157.5589 LP  0  0  0  0  0  0  0  0  0  0  0  0  # atno 17395 bound_to 11000

$$$$
