AV-unprocessed.smi:270|AV-procd|sdf|2047|dock8
  -GOLD-   2262021273D 1   1.00000     0.00000
 Structure written by MMmdl.
 54 57  0  0  0  0  0  0  0  0  1 V2000
  149.1980  144.0090  158.9996 C   0  0  0  0  0  0  0  0  0  0  0  0
  150.2314  142.8726  158.9308 C   0  0  2  0  0  0  0  0  0  0  0  0
  151.0610  142.8736  160.0923 O   0  0  0  0  0  0  0  0  0  0  0  0
  152.4265  142.9880  159.7175 C   0  0  0  0  0  0  0  0  0  0  0  0
  152.4838  142.3916  158.3172 C   0  0  0  0  0  0  0  0  0  0  0  0
  151.1740  142.8671  157.7043 C   0  0  2  0  0  0  0  0  0  0  0  0
  151.3663  144.1824  157.2074 O   0  0  0  0  0  0  0  0  0  0  0  0
  150.6585  141.9750  156.5502 C   0  0  0  0  0  0  0  0  0  0  0  0
  150.5783  140.5659  156.9020 N   0  0  0  0  0  0  0  0  0  0  0  0
  149.9598  140.0253  158.0060 C   0  0  0  0  0  0  0  0  0  0  0  0
  150.0313  138.7259  158.1018 N   0  0  0  0  0  0  0  0  0  0  0  0
  150.7483  138.3366  156.9757 C   0  0  0  0  0  0  0  0  0  0  0  0
  151.1818  137.0761  156.4693 C   0  0  0  0  0  0  0  0  0  0  0  0
  150.9166  135.8257  157.0998 N   0  0  0  0  0  0  0  0  0  0  0  0
  151.3137  134.6376  156.3585 C   0  0  0  0  0  0  0  0  0  0  0  0
  149.9623  134.0316  156.7495 C   0  0  0  0  0  0  0  0  0  0  0  0
  150.0352  133.1002  157.8177 O   0  0  0  0  0  0  0  0  0  0  0  0
  149.9343  131.7537  157.3818 C   0  0  0  0  0  0  0  0  0  0  0  0
  151.3311  131.2490  157.0001 C   0  0  0  0  0  0  0  0  0  0  0  0
  152.2365  131.3579  157.8282 O   0  0  0  0  0  0  0  0  0  0  0  0
  151.5270  130.6994  155.7785 N   0  0  0  0  0  0  0  0  0  0  0  0
  150.4592  130.5539  154.7842 C   0  0  0  0  0  0  0  0  0  0  0  0
  152.8528  130.2082  155.3931 C   0  0  0  0  0  0  0  0  0  0  0  0
  149.5222  135.4168  157.2247 C   0  0  0  0  0  0  0  0  0  0  0  0
  151.8497  137.1032  155.2843 N   0  0  0  0  0  0  0  0  0  0  0  0
  152.1057  138.2561  154.6596 C   0  0  0  0  0  0  0  0  0  0  0  0
  151.7788  139.4940  155.0301 N   0  0  0  0  0  0  0  0  0  0  0  0
  151.0891  139.4850  156.2049 C   0  0  0  0  0  0  0  0  0  0  0  0
  148.5722  144.0242  158.1070 H   0  0  0  0  0  0  0  0  0  0  0  0
  149.6776  144.9837  159.0933 H   0  0  0  0  0  0  0  0  0  0  0  0
  148.5429  143.8836  159.8618 H   0  0  0  0  0  0  0  0  0  0  0  0
  149.6921  141.9250  158.9632 H   0  0  0  0  0  0  0  0  0  0  0  0
  152.7050  144.0426  159.6993 H   0  0  0  0  0  0  0  0  0  0  0  0
  153.0797  142.4745  160.4231 H   0  0  0  0  0  0  0  0  0  0  0  0
  153.3696  142.6956  157.7575 H   0  0  0  0  0  0  0  0  0  0  0  0
  152.4922  141.3032  158.3920 H   0  0  0  0  0  0  0  0  0  0  0  0
  150.5361  144.5118  156.8989 H   0  0  0  0  0  0  0  0  0  0  0  0
  149.6646  142.2987  156.2383 H   0  0  0  0  0  0  0  0  0  0  0  0
  151.3012  142.0792  155.6750 H   0  0  0  0  0  0  0  0  0  0  0  0
  149.4553  140.6295  158.7459 H   0  0  0  0  0  0  0  0  0  0  0  0
  151.4084  134.8035  155.2843 H   0  0  0  0  0  0  0  0  0  0  0  0
  152.1826  134.1356  156.7845 H   0  0  0  0  0  0  0  0  0  0  0  0
  149.3763  133.6765  155.9000 H   0  0  0  0  0  0  0  0  0  0  0  0
  149.5324  131.1366  158.1872 H   0  0  0  0  0  0  0  0  0  0  0  0
  149.2527  131.6549  156.5364 H   0  0  0  0  0  0  0  0  0  0  0  0
  149.6462  129.9412  155.1747 H   0  0  0  0  0  0  0  0  0  0  0  0
  150.8008  130.0769  153.8657 H   0  0  0  0  0  0  0  0  0  0  0  0
  150.0538  131.5268  154.5044 H   0  0  0  0  0  0  0  0  0  0  0  0
  153.5879  131.0129  155.4428 H   0  0  0  0  0  0  0  0  0  0  0  0
  152.8827  129.8066  154.3803 H   0  0  0  0  0  0  0  0  0  0  0  0
  153.1754  129.4130  156.0669 H   0  0  0  0  0  0  0  0  0  0  0  0
  149.1517  135.4461  158.2497 H   0  0  0  0  0  0  0  0  0  0  0  0
  148.8445  135.9023  156.5209 H   0  0  0  0  0  0  0  0  0  0  0  0
  152.6505  138.1741  153.7306 H   0  0  0  0  0  0  0  0  0  0  0  0
  1  2  1  0  0  0  0
  1 29  1  0  0  0  0
  1 30  1  0  0  0  0
  1 31  1  0  0  0  0
  2  6  1  0  0  0  0
  2  3  1  0  0  0  0
  2 32  1  0  0  0  0
  3  4  1  0  0  0  0
  4  5  1  0  0  0  0
  4 33  1  0  0  0  0
  4 34  1  0  0  0  0
  5  6  1  0  0  0  0
  5 35  1  0  0  0  0
  5 36  1  0  0  0  0
  6  7  1  0  0  0  0
  6  8  1  0  0  0  0
  7 37  1  0  0  0  0
  8  9  1  0  0  0  0
  8 38  1  0  0  0  0
  8 39  1  0  0  0  0
  9 28  1  0  0  0  0
  9 10  1  0  0  0  0
 10 11  2  0  0  0  0
 10 40  1  0  0  0  0
 11 12  1  0  0  0  0
 12 28  2  0  0  0  0
 12 13  1  0  0  0  0
 13 14  1  0  0  0  0
 13 25  2  0  0  0  0
 14 24  1  0  0  0  0
 14 15  1  0  0  0  0
 15 16  1  0  0  0  0
 15 41  1  0  0  0  0
 15 42  1  0  0  0  0
 16 17  1  0  0  0  0
 16 24  1  0  0  0  0
 16 43  1  0  0  0  0
 17 18  1  0  0  0  0
 18 19  1  0  0  0  0
 18 44  1  0  0  0  0
 18 45  1  0  0  0  0
 19 20  2  0  0  0  0
 19 21  1  0  0  0  0
 21 22  1  0  0  0  0
 21 23  1  0  0  0  0
 22 46  1  0  0  0  0
 22 47  1  0  0  0  0
 22 48  1  0  0  0  0
 23 49  1  0  0  0  0
 23 50  1  0  0  0  0
 23 51  1  0  0  0  0
 24 52  1  0  0  0  0
 24 53  1  0  0  0  0
 25 26  1  0  0  0  0
 26 27  2  0  0  0  0
 26 54  1  0  0  0  0
 27 28  1  0  0  0  0
M  END
> <s_m_source_file>
AV-unprocessed.smi

> <i_m_source_file_index>
270

> <i_lp_mmshare_version>
43012

> <i_f3d_flags>
0

> <s_epik_input>
W0NIMl0xW0NIMl1PW0NAQEhdKFtDSDNdKVtDQEBdMShbT0hdKVtDSDJdbihbY0hdbjIpYyhjMjMpbltjSF1uYzNONFtDSDJdW0NIXShbQ0gyXTQpT1tDSDJdQyg9TylOKFtDSDNdKVtDSDNd

> <s_epik_cmdline>
J2VwaWtfcHl0aG9uJywgJy1waCcsICc3LjAnLCAnLXRuJywgJzgnLCAnLW1hJywgJzIwMCcsICctbWV0YWxfYmluZGluZycsICctaW1hZScsICc8aW5maWxlLm1hZT4nLCAnLW9tYWUnLCAnPG91dGZpbGUubWFlPic=

> <r_lp_tautomer_probability>
1

> <r_epik_Ionization_Penalty>
0.00375854

> <r_epik_Ionization_Penalty_Charging>
0

> <r_epik_Ionization_Penalty_Neutral>
0.00375854

> <r_epik_State_Penalty>
-0

> <r_epik_Charging_Adjusted_Penalty>
0

> <i_epik_Tot_Q>
0

> <i_epik_Tot_abs_Q>
0

> <r_epik_Metal_State_Penalty>
-0

> <b_epik_Metal_Only>
0

> <s_lp_Force_Field>
OPLS_2005

> <r_lp_Energy>
53.9225

> <b_lp_Chiralities_Consistent>
1

> <s_lp_Variant>
AV-unprocessed.smi:270-3

> <Gold.Version>
5.8.1

> <Gold.Id.Protein>
6NUR|6NUR_protein|mol2

> <Gold.PLP.Fitness>
47.3079

> <Gold.PLP.PLP>
-36.5784

> <Gold.PLP.part.hbond>
-5.0000

> <Gold.PLP.part.metal>
0.0000

> <Gold.PLP.part.buried>
-4.9809

> <Gold.PLP.part.nonpolar>
-26.9961

> <Gold.PLP.part.repulsive>
0.1399

> <Gold.PLP.ligand.clash>
0.0000

> <Gold.PLP.ligand.torsion>
0.7837

> <Gold.PLP.Chemscore.Hbond>
4.0000

> <Gold.PLP.Chemscore.CHOScore>
0.0000

> <Gold.PLP.Chemscore.Metal>
0.0000

> <Gold.Chemscore.Hbonds>
donor molecule, donor type, donor heavy atom, donor atom, acceptor molecule, acceptor atom, score
      L1  H     7    37       P1  8028  0.98
      P1  H  6896  6909       L1    17  1.00
      P1  H  7989  7998       L1    27  0.94
      P1  H 10752 10764       L1    25  0.99

> <Gold.PLP.Chemscore.Internal.Correction>
0.2969

> <Gold.Rescore>
     Score         DG    S(hbond)    S(metal)    S(lipo)     H(rot)  DE(clash)    DE(int)     intcor
     16.11     -18.29       3.56        0.00      76.31       3.12       1.43       0.76       ----

> <Gold.Chemscore.Fitness>
16.1052

> <Gold.Chemscore.DG>
-18.2944

> <Gold.Chemscore.ZeroCoef>
-5.4800

> <Gold.Chemscore.Hbond>
3.5576

> <Gold.Chemscore.Metal>
0.0000

> <Gold.Chemscore.Lipo>
76.3053

> <Gold.Chemscore.Internal_Hbond>
0.0000

> <Gold.Chemscore.DEClash>
1.4315

> <Gold.Chemscore.DEInternal>
0.7577

> <Gold.Chemscore.Rot>
3.1234

> <Gold.Chemscore.Internal.Correction>
   9.000000E+99

> <Gold.Chemscore.Hbonds>
donor molecule, donor type, donor heavy atom, donor atom, acceptor molecule, acceptor atom, score
      L1  H     7    37       P1  8028  0.82
      P1  H  6896  6909       L1    17  0.89
      P1  H  7989  7998       L1    27  0.78
      P1  H 10752 10764       L1    25  0.75

> <Gold.Chemscore.Hbond.Weighted>
-11.8825

> <Gold.Chemscore.Metal.Weighted>
-0.0000

> <Gold.Chemscore.Lipo.Weighted>
-8.9277

> <Gold.Chemscore.Internal_Hbond.Weighted>
0.0000

> <Gold.Chemscore.DEClash.Weighted>
1.4315

> <Gold.Chemscore.DEInternal.Weighted>
0.7577

> <Gold.Chemscore.Rot.Weighted>
7.9959

> <Gold.Chemscore.Internal.Correction.Weighted>
   9.000000E+99

> <Gold.Protein.RotatedTorsions>
[ 6907 6896 6895 6894 ] final  -28.35 input  -60.11 | X-H torsion
[ 7974 7965 7964 7962 ] final   13.94 input  175.53 | X-H torsion
[ 8008 7997 7996 7995 ] final   98.28 input   59.86 | X-H torsion
[ 10167 10162 10161 10158 ] final -177.33 input  -65.29 | X-H torsion
[ 10718 10713 10712 10709 ] final  146.66 input   66.30 | X-H torsion
[ 10763 10752 10751 10750 ] final  -62.23 input  -60.55 | X-H torsion
[ 11005 11000 10999 10996 ] final -101.59 input  -57.11 | X-H torsion

> <Gold.Protein.ActiveResidues>
 VAL166  LYS551  ARG553  GLY616  TRP617  ASP618  TYR619  PRO620  LYS621  CYS622 
 ASP623  PHE694  ASN695  SER759  ASP760  ASP761  ALA762  ILE779  LEU786  VAL792 
 PHE793  MET794  SER795  GLU796  ALA797  LYS798  CYS799  TRP800  GLU811  SER814 

> <Gold.Protein.RotatedAtoms>
  151.1342  135.0146  159.8595 H   0  0  0  0  0  0  0  0  0  0  0  0  # atno 6907 bound_to 6896
  152.5451  134.1575  159.8554 H   0  0  0  0  0  0  0  0  0  0  0  0  # atno 6908 bound_to 6896
  151.1644  133.4779  159.2627 H   0  0  0  0  0  0  0  0  0  0  0  0  # atno 6909 bound_to 6896
  146.2317  139.9115  142.8524 H   0  0  0  0  0  0  0  0  0  0  0  0  # atno 7974 bound_to 7965
  156.0988  140.3246  155.7914 H   0  0  0  0  0  0  0  0  0  0  0  0  # atno 8008 bound_to 7997
  155.4871  140.0558  157.2976 H   0  0  0  0  0  0  0  0  0  0  0  0  # atno 8009 bound_to 7997
  154.4684  140.2000  156.0074 H   0  0  0  0  0  0  0  0  0  0  0  0  # atno 8010 bound_to 7997
  139.5485  144.2170  152.1034 H   0  0  0  0  0  0  0  0  0  0  0  0  # atno 10167 bound_to 10162
  157.3305  131.0919  151.1166 H   0  0  0  0  0  0  0  0  0  0  0  0  # atno 10718 bound_to 10713
  154.2966  135.6243  153.5407 H   0  0  0  0  0  0  0  0  0  0  0  0  # atno 10763 bound_to 10752
  152.9845  135.5668  154.5330 H   0  0  0  0  0  0  0  0  0  0  0  0  # atno 10764 bound_to 10752
  154.4952  135.2869  155.1441 H   0  0  0  0  0  0  0  0  0  0  0  0  # atno 10765 bound_to 10752
  141.1224  133.8490  157.1251 H   0  0  0  0  0  0  0  0  0  0  0  0  # atno 11005 bound_to 11000
  145.2225  140.9941  143.4037 LP  0  0  0  0  0  0  0  0  0  0  0  0  # atno 17320 bound_to 7965
  144.9598  139.3992  143.6361 LP  0  0  0  0  0  0  0  0  0  0  0  0  # atno 17321 bound_to 7965
  140.1661  144.4979  150.6605 LP  0  0  0  0  0  0  0  0  0  0  0  0  # atno 17342 bound_to 10162
  140.6741  143.2298  151.5551 LP  0  0  0  0  0  0  0  0  0  0  0  0  # atno 17343 bound_to 10162
  157.2417  130.6572  149.5892 LP  0  0  0  0  0  0  0  0  0  0  0  0  # atno 17370 bound_to 10713
  155.9695  130.4566  150.5932 LP  0  0  0  0  0  0  0  0  0  0  0  0  # atno 17371 bound_to 10713
  140.0193  134.9953  157.0559 LP  0  0  0  0  0  0  0  0  0  0  0  0  # atno 17394 bound_to 11000
  140.4466  134.1625  155.7178 LP  0  0  0  0  0  0  0  0  0  0  0  0  # atno 17395 bound_to 11000

$$$$
