AV-unprocessed.smi:840|AV-procd|sdf|3914|dock10
  -GOLD-   22720 1373D 1   1.00000     0.00000
 Structure written by MMmdl.
 36 37  0  0  0  0  0  0  0  0  2 V2000
  150.0098  134.1052  154.7195 C   0  0  0  0  0  0  0  0  0  0  0  0
  149.1822  135.0808  155.5731 C   0  0  1  0  0  0  0  0  0  0  0  0
  149.1057  134.5441  156.9314 N   0  0  0  0  0  0  0  0  0  0  0  0
  148.4155  135.0777  157.9510 C   0  0  0  0  0  0  0  0  0  0  0  0
  147.7603  136.1084  157.7770 O   0  0  0  0  0  0  0  0  0  0  0  0
  148.5277  134.3855  159.1075 N   0  5  0  0  0  0  0  0  0  0  0  0
  148.0048  134.8813  160.2406 C   0  0  0  0  0  0  0  0  0  0  0  0
  147.7817  136.1869  160.4290 N   0  0  0  0  0  0  0  0  0  0  0  0
  147.2276  136.4817  161.6759 C   0  0  0  0  0  0  0  0  0  0  0  0
  147.0157  135.3736  162.4523 C   0  0  0  0  0  0  0  0  0  0  0  0
  147.5073  133.9176  161.6346 S   0  0  0  0  0  0  0  0  0  0  0  0
  149.8941  136.4428  155.5781 C   0  0  0  0  0  0  0  0  0  0  0  0
  150.2956  136.9382  156.6325 O   0  0  0  0  0  0  0  0  0  0  0  0
  150.0513  137.0318  154.3833 N   0  0  0  0  0  0  0  0  0  0  0  0
  150.6875  138.3274  154.1633 C   0  0  0  0  0  0  0  0  0  0  0  0
  152.1365  138.3446  154.6921 C   0  0  0  0  0  0  0  0  0  0  0  0
  152.1259  139.2475  155.9260 C   0  0  0  0  0  0  0  0  0  0  0  0
  151.0175  140.2559  155.6421 C   0  0  0  0  0  0  0  0  0  0  0  0
  149.9414  139.4413  154.9224 C   0  0  0  0  0  0  0  0  0  0  0  0
  150.0970  134.4557  153.6904 H   0  0  0  0  0  0  0  0  0  0  0  0
  149.5391  133.1221  154.6881 H   0  0  0  0  0  0  0  0  0  0  0  0
  151.0188  133.9734  155.1134 H   0  0  0  0  0  0  0  0  0  0  0  0
  148.1799  135.1735  155.1500 H   0  0  0  0  0  0  0  0  0  0  0  0
  149.6326  133.7040  157.1190 H   0  0  0  0  0  0  0  0  0  0  0  0
  147.0152  137.5102  161.9271 H   0  0  0  0  0  0  0  0  0  0  0  0
  146.6015  135.3239  163.4478 H   0  0  0  0  0  0  0  0  0  0  0  0
  149.6861  136.5564  153.5708 H   0  0  0  0  0  0  0  0  0  0  0  0
  150.6884  138.5557  153.0959 H   0  0  0  0  0  0  0  0  0  0  0  0
  152.5301  137.3524  154.9189 H   0  0  0  0  0  0  0  0  0  0  0  0
  152.7885  138.7792  153.9335 H   0  0  0  0  0  0  0  0  0  0  0  0
  151.8712  138.6599  156.8088 H   0  0  0  0  0  0  0  0  0  0  0  0
  153.0908  139.7219  156.1074 H   0  0  0  0  0  0  0  0  0  0  0  0
  150.6450  140.7377  156.5465 H   0  0  0  0  0  0  0  0  0  0  0  0
  151.3933  141.0357  154.9784 H   0  0  0  0  0  0  0  0  0  0  0  0
  149.3384  140.0603  154.2574 H   0  0  0  0  0  0  0  0  0  0  0  0
  149.2654  139.0148  155.6653 H   0  0  0  0  0  0  0  0  0  0  0  0
  1  2  1  0  0  0  0
  1 20  1  0  0  0  0
  1 21  1  0  0  0  0
  1 22  1  0  0  0  0
  2  3  1  0  0  0  0
  2 12  1  0  0  0  0
  2 23  1  0  0  0  0
  3  4  1  0  0  0  0
  3 24  1  0  0  0  0
  4  5  2  0  0  0  0
  4  6  1  0  0  0  0
  6  7  1  0  0  0  0
  7 11  1  0  0  0  0
  7  8  2  0  0  0  0
  8  9  1  0  0  0  0
  9 10  2  0  0  0  0
  9 25  1  0  0  0  0
 10 11  1  0  0  0  0
 10 26  1  0  0  0  0
 12 13  2  0  0  0  0
 12 14  1  0  0  0  0
 14 15  1  0  0  0  0
 14 27  1  0  0  0  0
 15 19  1  0  0  0  0
 15 16  1  0  0  0  0
 15 28  1  0  0  0  0
 16 17  1  0  0  0  0
 16 29  1  0  0  0  0
 16 30  1  0  0  0  0
 17 18  1  0  0  0  0
 17 31  1  0  0  0  0
 17 32  1  0  0  0  0
 18 19  1  0  0  0  0
 18 33  1  0  0  0  0
 18 34  1  0  0  0  0
 19 35  1  0  0  0  0
 19 36  1  0  0  0  0
M  CHG  1   6  -1
M  END
> <s_m_source_file>
AV-unprocessed.smi

> <i_m_source_file_index>
840

> <i_lp_mmshare_version>
43012

> <i_f3d_flags>
0

> <s_epik_input>
W0NIMl0xW0NIMl1bQ0gyXVtDSDJdW0NIXTFbTkhdQyg9TylbQ0BIXShbQ0gzXSlbTkhdQyg9TylbTkhdYzJuW2NIXVtjSF1zMg==

> <s_epik_cmdline>
J2VwaWtfcHl0aG9uJywgJy1waCcsICc3LjAnLCAnLXRuJywgJzgnLCAnLW1hJywgJzIwMCcsICctbWV0YWxfYmluZGluZycsICctaW1hZScsICc8aW5maWxlLm1hZT4nLCAnLW9tYWUnLCAnPG91dGZpbGUubWFlPic=

> <r_lp_tautomer_probability>
1

> <r_epik_Ionization_Penalty>
6.35467

> <r_epik_Ionization_Penalty_Charging>
5.47395

> <r_epik_Ionization_Penalty_Neutral>
0.880717

> <r_epik_State_Penalty>
5.4739

> <r_epik_Charging_Adjusted_Penalty>
10.9479

> <i_epik_Tot_Q>
-1

> <i_epik_Tot_abs_Q>
1

> <r_epik_Metal_State_Penalty>
1.48639

> <b_epik_Metal_Only>
1

> <s_lp_Force_Field>
OPLS_2005

> <r_lp_Energy>
13.1034

> <b_lp_Chiralities_Consistent>
1

> <s_lp_Variant>
AV-unprocessed.smi:840-4

> <Gold.Version>
5.8.1

> <Gold.Id.Protein>
6NUR|6NUR_protein|mol2

> <Gold.PLP.Fitness>
42.7574

> <Gold.PLP.PLP>
-34.0544

> <Gold.PLP.part.hbond>
-2.1799

> <Gold.PLP.part.metal>
0.0000

> <Gold.PLP.part.buried>
-4.0297

> <Gold.PLP.part.nonpolar>
-28.0161

> <Gold.PLP.part.repulsive>
0.1037

> <Gold.PLP.ligand.clash>
0.0000

> <Gold.PLP.ligand.torsion>
0.1603

> <Gold.PLP.Chemscore.Hbond>
3.0000

> <Gold.PLP.Chemscore.CHOScore>
0.0000

> <Gold.PLP.Chemscore.Metal>
0.0000

> <Gold.Chemscore.Hbonds>
donor molecule, donor type, donor heavy atom, donor atom, acceptor molecule, acceptor atom, score
      L1  H    14    27       P1  7948  1.00
      P1  H  6896  6907       L1     6  1.53

> <Gold.PLP.Chemscore.Internal.Correction>
0.0235

> <Gold.Rescore>
     Score         DG    S(hbond)    S(metal)    S(lipo)     H(rot)  DE(clash)    DE(int)     intcor
     11.88     -15.17       1.67        0.00      70.48       1.62       0.09       3.20       ----

> <Gold.Chemscore.Fitness>
11.8752

> <Gold.Chemscore.DG>
-15.1669

> <Gold.Chemscore.ZeroCoef>
-5.4800

> <Gold.Chemscore.Hbond>
1.6735

> <Gold.Chemscore.Metal>
0.0000

> <Gold.Chemscore.Lipo>
70.4756

> <Gold.Chemscore.Internal_Hbond>
0.0000

> <Gold.Chemscore.DEClash>
0.0901

> <Gold.Chemscore.DEInternal>
3.2016

> <Gold.Chemscore.Rot>
1.6204

> <Gold.Chemscore.Internal.Correction>
   9.000000E+99

> <Gold.Chemscore.Hbonds>
donor molecule, donor type, donor heavy atom, donor atom, acceptor molecule, acceptor atom, score
      L1  H    14    27       P1  7948  0.50
      P1  H  6896  6907       L1     6  0.17

> <Gold.Chemscore.Hbond.Weighted>
-5.5894

> <Gold.Chemscore.Metal.Weighted>
-0.0000

> <Gold.Chemscore.Lipo.Weighted>
-8.2456

> <Gold.Chemscore.Internal_Hbond.Weighted>
0.0000

> <Gold.Chemscore.DEClash.Weighted>
0.0901

> <Gold.Chemscore.DEInternal.Weighted>
3.2016

> <Gold.Chemscore.Rot.Weighted>
4.1481

> <Gold.Chemscore.Internal.Correction.Weighted>
   9.000000E+99

> <Gold.Protein.RotatedTorsions>
[ 6907 6896 6895 6894 ] final  -85.94 input  -60.11 | X-H torsion
[ 7974 7965 7964 7962 ] final  -42.80 input  175.53 | X-H torsion
[ 8008 7997 7996 7995 ] final   32.70 input   59.86 | X-H torsion
[ 10167 10162 10161 10158 ] final -118.44 input  -65.29 | X-H torsion
[ 10718 10713 10712 10709 ] final  -84.22 input   66.30 | X-H torsion
[ 10763 10752 10751 10750 ] final  -40.50 input  -60.55 | X-H torsion
[ 11005 11000 10999 10996 ] final   50.18 input  -57.11 | X-H torsion

> <Gold.Protein.ActiveResidues>
 VAL166  LYS551  ARG553  GLY616  TRP617  ASP618  TYR619  PRO620  LYS621  CYS622 
 ASP623  PHE694  ASN695  SER759  ASP760  ASP761  ALA762  ILE779  LEU786  VAL792 
 PHE793  MET794  SER795  GLU796  ALA797  LYS798  CYS799  TRP800  GLU811  SER814 

> <Gold.Protein.RotatedAtoms>
  150.6868  134.3128  159.4753 H   0  0  0  0  0  0  0  0  0  0  0  0  # atno 6907 bound_to 6896
  152.1012  134.9338  160.0578 H   0  0  0  0  0  0  0  0  0  0  0  0  # atno 6908 bound_to 6896
  152.0616  133.4030  159.4457 H   0  0  0  0  0  0  0  0  0  0  0  0  # atno 6909 bound_to 6896
  146.0080  140.6997  142.9238 H   0  0  0  0  0  0  0  0  0  0  0  0  # atno 7974 bound_to 7965
  155.1267  140.3253  155.4484 H   0  0  0  0  0  0  0  0  0  0  0  0  # atno 8008 bound_to 7997
  156.2646  140.2017  156.6336 H   0  0  0  0  0  0  0  0  0  0  0  0  # atno 8009 bound_to 7997
  154.6643  140.0543  157.0083 H   0  0  0  0  0  0  0  0  0  0  0  0  # atno 8010 bound_to 7997
  140.0575  143.5000  152.2049 H   0  0  0  0  0  0  0  0  0  0  0  0  # atno 10167 bound_to 10162
  156.0009  130.4690  150.4376 H   0  0  0  0  0  0  0  0  0  0  0  0  # atno 10718 bound_to 10713
  153.9470  135.6755  153.4744 H   0  0  0  0  0  0  0  0  0  0  0  0  # atno 10763 bound_to 10752
  153.0903  135.4878  154.8673 H   0  0  0  0  0  0  0  0  0  0  0  0  # atno 10764 bound_to 10752
  154.7346  135.3146  154.8792 H   0  0  0  0  0  0  0  0  0  0  0  0  # atno 10765 bound_to 10752
  140.1039  134.5044  155.8737 H   0  0  0  0  0  0  0  0  0  0  0  0  # atno 11005 bound_to 11000
  144.6943  140.3349  143.7209 LP  0  0  0  0  0  0  0  0  0  0  0  0  # atno 17320 bound_to 7965
  145.7385  139.1757  143.2389 LP  0  0  0  0  0  0  0  0  0  0  0  0  # atno 17321 bound_to 7965
  139.5914  144.7551  151.3391 LP  0  0  0  0  0  0  0  0  0  0  0  0  # atno 17342 bound_to 10162
  140.7188  143.7194  150.7707 LP  0  0  0  0  0  0  0  0  0  0  0  0  # atno 17343 bound_to 10162
  157.2420  131.0527  151.2431 LP  0  0  0  0  0  0  0  0  0  0  0  0  # atno 17370 bound_to 10713
  157.3611  130.7132  149.6502 LP  0  0  0  0  0  0  0  0  0  0  0  0  # atno 17371 bound_to 10713
  141.2113  133.6705  156.6573 LP  0  0  0  0  0  0  0  0  0  0  0  0  # atno 17394 bound_to 11000
  140.3182  134.8030  157.4231 LP  0  0  0  0  0  0  0  0  0  0  0  0  # atno 17395 bound_to 11000

$$$$
