AV-unprocessed.smi:3158|AV-procd|sdf|12041|dock7
  -GOLD-   2272017463D 1   1.00000     0.00000
 Structure written by MMmdl.
 40 40  0  0  0  0  0  0  0  0  2 V2000
  148.5651  133.5766  153.6555 C   0  0  0  0  0  0  0  0  0  0  0  0
  147.0827  133.8195  153.3355 C   0  0  0  0  0  0  0  0  0  0  0  0
  146.4694  135.0047  154.1042 C   0  0  2  0  0  0  0  0  0  0  0  0
  144.9365  134.9115  154.1600 C   0  0  0  0  0  0  0  0  0  0  0  0
  146.8716  136.2671  153.4878 N   0  0  0  0  0  0  0  0  0  0  0  0
  146.5845  137.4905  153.9588 C   0  0  0  0  0  0  0  0  0  0  0  0
  145.9290  137.6846  154.9836 O   0  0  0  0  0  0  0  0  0  0  0  0
  147.1309  138.6761  153.1499 C   0  0  2  0  0  0  0  0  0  0  0  0
  146.5007  138.6897  151.7486 C   0  0  0  0  0  0  0  0  0  0  0  0
  148.6055  138.6272  153.0341 N   0  3  0  0  0  0  0  0  0  0  0  0
  149.3459  138.8749  154.2914 C   0  0  0  0  0  0  0  0  0  0  0  0
  149.4295  140.3760  154.6055 C   0  0  0  0  0  0  0  0  0  0  0  0
  150.2678  140.6389  155.7612 N   0  0  0  0  0  0  0  0  0  0  0  0
  150.6012  141.8550  156.3193 C   0  0  0  0  0  0  0  0  0  0  0  0
  151.3934  141.6009  157.4020 C   0  0  0  0  0  0  0  0  0  0  0  0
  151.4896  140.1815  157.4254 C   0  0  0  0  0  0  0  0  0  0  0  0
  150.8122  139.6081  156.4435 N   0  0  0  0  0  0  0  0  0  0  0  0
  148.9371  132.7022  153.1216 H   0  0  0  0  0  0  0  0  0  0  0  0
  148.7128  133.4014  154.7214 H   0  0  0  0  0  0  0  0  0  0  0  0
  149.1844  134.4260  153.3661 H   0  0  0  0  0  0  0  0  0  0  0  0
  146.9669  133.9739  152.2617 H   0  0  0  0  0  0  0  0  0  0  0  0
  146.5243  132.9130  153.5720 H   0  0  0  0  0  0  0  0  0  0  0  0
  146.8493  134.9684  155.1269 H   0  0  0  0  0  0  0  0  0  0  0  0
  144.6178  133.9822  154.6329 H   0  0  0  0  0  0  0  0  0  0  0  0
  144.4996  134.9425  153.1613 H   0  0  0  0  0  0  0  0  0  0  0  0
  144.5104  135.7332  154.7364 H   0  0  0  0  0  0  0  0  0  0  0  0
  147.4211  136.2008  152.6430 H   0  0  0  0  0  0  0  0  0  0  0  0
  146.8596  139.6054  153.6543 H   0  0  0  0  0  0  0  0  0  0  0  0
  145.4133  138.7592  151.8018 H   0  0  0  0  0  0  0  0  0  0  0  0
  146.7492  137.7871  151.1884 H   0  0  0  0  0  0  0  0  0  0  0  0
  146.8523  139.5449  151.1707 H   0  0  0  0  0  0  0  0  0  0  0  0
  148.8612  137.7142  152.6833 H   0  0  0  0  0  0  0  0  0  0  0  0
  148.8410  138.3527  155.1046 H   0  0  0  0  0  0  0  0  0  0  0  0
  150.3532  138.4617  154.2269 H   0  0  0  0  0  0  0  0  0  0  0  0
  149.8119  140.9321  153.7480 H   0  0  0  0  0  0  0  0  0  0  0  0
  148.4330  140.7677  154.8133 H   0  0  0  0  0  0  0  0  0  0  0  0
  150.2488  142.7890  155.9069 H   0  0  0  0  0  0  0  0  0  0  0  0
  151.8366  142.3195  158.0756 H   0  0  0  0  0  0  0  0  0  0  0  0
  152.0263  139.5552  158.1228 H   0  0  0  0  0  0  0  0  0  0  0  0
  148.8985  139.3216  152.3621 H   0  0  0  0  0  0  0  0  0  0  0  0
  1  2  1  0  0  0  0
  1 18  1  0  0  0  0
  1 19  1  0  0  0  0
  1 20  1  0  0  0  0
  2  3  1  0  0  0  0
  2 21  1  0  0  0  0
  2 22  1  0  0  0  0
  3  4  1  0  0  0  0
  3  5  1  0  0  0  0
  3 23  1  0  0  0  0
  4 24  1  0  0  0  0
  4 25  1  0  0  0  0
  4 26  1  0  0  0  0
  5  6  1  0  0  0  0
  5 27  1  0  0  0  0
  6  7  2  0  0  0  0
  6  8  1  0  0  0  0
  8  9  1  0  0  0  0
  8 10  1  0  0  0  0
  8 28  1  0  0  0  0
  9 29  1  0  0  0  0
  9 30  1  0  0  0  0
  9 31  1  0  0  0  0
 10 11  1  0  0  0  0
 10 32  1  0  0  0  0
 10 40  1  0  0  0  0
 11 12  1  0  0  0  0
 11 33  1  0  0  0  0
 11 34  1  0  0  0  0
 12 13  1  0  0  0  0
 12 35  1  0  0  0  0
 12 36  1  0  0  0  0
 13 17  1  0  0  0  0
 13 14  1  0  0  0  0
 14 15  2  0  0  0  0
 14 37  1  0  0  0  0
 15 16  1  0  0  0  0
 15 38  1  0  0  0  0
 16 17  2  0  0  0  0
 16 39  1  0  0  0  0
M  CHG  1  10   1
M  END
> <s_m_source_file>
AV-unprocessed.smi

> <i_m_source_file_index>
3158

> <i_lp_mmshare_version>
43012

> <i_f3d_flags>
0

> <s_epik_input>
W0NIM11bQ0gyXVtDQEhdKFtDSDNdKVtOSF1DKD1PKVtDQEhdKFtDSDNdKVtOSF1bQ0gyXVtDSDJdbjFbY0hdW2NIXVtjSF1uMQ==

> <s_epik_cmdline>
J2VwaWtfcHl0aG9uJywgJy1waCcsICc3LjAnLCAnLXRuJywgJzgnLCAnLW1hJywgJzIwMCcsICctbWV0YWxfYmluZGluZycsICctaW1hZScsICc8aW5maWxlLm1hZT4nLCAnLW9tYWUnLCAnPG91dGZpbGUubWFlPic=

> <r_lp_tautomer_probability>
1

> <r_epik_Ionization_Penalty>
0.20724

> <r_epik_Ionization_Penalty_Charging>
0.207237

> <r_epik_Ionization_Penalty_Neutral>
3.33806e-06

> <r_epik_State_Penalty>
0.197234

> <r_epik_Charging_Adjusted_Penalty>
0.404471

> <i_epik_Tot_Q>
1

> <i_epik_Tot_abs_Q>
1

> <r_epik_Metal_State_Penalty>
0.197524

> <b_epik_Metal_Only>
0

> <s_lp_Force_Field>
OPLS_2005

> <r_lp_Energy>
5.42496

> <b_lp_Chiralities_Consistent>
1

> <s_lp_Variant>
AV-unprocessed.smi:3158-1

> <Gold.Version>
5.8.1

> <Gold.Id.Protein>
6NUR|6NUR_protein|mol2

> <Gold.PLP.Fitness>
42.9622

> <Gold.PLP.PLP>
-28.5659

> <Gold.PLP.part.hbond>
-2.9516

> <Gold.PLP.part.metal>
0.0000

> <Gold.PLP.part.buried>
-3.0395

> <Gold.PLP.part.nonpolar>
-23.4716

> <Gold.PLP.part.repulsive>
0.1279

> <Gold.PLP.ligand.clash>
0.0000

> <Gold.PLP.ligand.torsion>
0.3607

> <Gold.PLP.Chemscore.Hbond>
4.0000

> <Gold.PLP.Chemscore.CHOScore>
1.0000

> <Gold.PLP.Chemscore.Metal>
0.0000

> <Gold.Chemscore.Hbonds>
donor molecule, donor type, donor heavy atom, donor atom, acceptor molecule, acceptor atom, score
      L1  H     5    27       P1  7948  1.00
      L1  H    10    32       P1  7948  2.00
      L1  H    10    40       P1  7957  1.00
      L1  C    14    37       P1  8028  1.00

> <Gold.PLP.Chemscore.Internal.Correction>
0.1178

> <Gold.Rescore>
     Score         DG    S(hbond)    S(metal)    S(lipo)     H(rot)  DE(clash)    DE(int)     intcor
     16.86     -17.21       2.95        0.00      64.43       2.21       0.04       0.30       ----

> <Gold.Chemscore.Fitness>
16.8640

> <Gold.Chemscore.DG>
-17.2097

> <Gold.Chemscore.ZeroCoef>
-5.4800

> <Gold.Chemscore.Hbond>
2.9514

> <Gold.Chemscore.Metal>
0.0000

> <Gold.Chemscore.Lipo>
64.4256

> <Gold.Chemscore.Internal_Hbond>
0.0000

> <Gold.Chemscore.DEClash>
0.0429

> <Gold.Chemscore.DEInternal>
0.3029

> <Gold.Chemscore.Rot>
2.2132

> <Gold.Chemscore.Internal.Correction>
   9.000000E+99

> <Gold.Chemscore.Hbonds>
donor molecule, donor type, donor heavy atom, donor atom, acceptor molecule, acceptor atom, score
      L1  H     5    27       P1  7948  0.95
      L1  H    10    32       P1  7948  1.00
      L1  H    10    40       P1  7957  0.96

> <Gold.Chemscore.Hbond.Weighted>
-9.8577

> <Gold.Chemscore.Metal.Weighted>
-0.0000

> <Gold.Chemscore.Lipo.Weighted>
-7.5378

> <Gold.Chemscore.Internal_Hbond.Weighted>
0.0000

> <Gold.Chemscore.DEClash.Weighted>
0.0429

> <Gold.Chemscore.DEInternal.Weighted>
0.3029

> <Gold.Chemscore.Rot.Weighted>
5.6658

> <Gold.Chemscore.Internal.Correction.Weighted>
   9.000000E+99

> <Gold.Protein.RotatedTorsions>
[ 6907 6896 6895 6894 ] final  -83.73 input  -60.11 | X-H torsion
[ 7974 7965 7964 7962 ] final -101.98 input  175.53 | X-H torsion
[ 8008 7997 7996 7995 ] final  143.07 input   59.86 | X-H torsion
[ 10167 10162 10161 10158 ] final  -31.83 input  -65.29 | X-H torsion
[ 10718 10713 10712 10709 ] final  141.38 input   66.30 | X-H torsion
[ 10763 10752 10751 10750 ] final  165.09 input  -60.55 | X-H torsion
[ 11005 11000 10999 10996 ] final   82.83 input  -57.11 | X-H torsion

> <Gold.Protein.ActiveResidues>
 VAL166  LYS551  ARG553  GLY616  TRP617  ASP618  TYR619  PRO620  LYS621  CYS622 
 ASP623  PHE694  ASN695  SER759  ASP760  ASP761  ALA762  ILE779  LEU786  VAL792 
 PHE793  MET794  SER795  GLU796  ALA797  LYS798  CYS799  TRP800  GLU811  SER814 

> <Gold.Protein.RotatedAtoms>
  150.6882  134.3467  159.4891 H   0  0  0  0  0  0  0  0  0  0  0  0  # atno 6907 bound_to 6896
  152.1314  134.9129  160.0568 H   0  0  0  0  0  0  0  0  0  0  0  0  # atno 6908 bound_to 6896
  152.0298  133.3898  159.4329 H   0  0  0  0  0  0  0  0  0  0  0  0  # atno 6909 bound_to 6896
  145.2746  140.9309  143.2967 H   0  0  0  0  0  0  0  0  0  0  0  0  # atno 7974 bound_to 7965
  156.2937  140.2272  156.4831 H   0  0  0  0  0  0  0  0  0  0  0  0  # atno 8008 bound_to 7997
  154.7835  140.0458  157.1167 H   0  0  0  0  0  0  0  0  0  0  0  0  # atno 8009 bound_to 7997
  154.9730  140.3069  155.4983 H   0  0  0  0  0  0  0  0  0  0  0  0  # atno 8010 bound_to 7997
  140.7230  143.3741  151.1723 H   0  0  0  0  0  0  0  0  0  0  0  0  # atno 10167 bound_to 10162
  157.3926  131.1006  151.0631 H   0  0  0  0  0  0  0  0  0  0  0  0  # atno 10718 bound_to 10713
  154.3188  135.2756  155.2530 H   0  0  0  0  0  0  0  0  0  0  0  0  # atno 10763 bound_to 10752
  154.4892  135.5838  153.6450 H   0  0  0  0  0  0  0  0  0  0  0  0  # atno 10764 bound_to 10752
  152.9879  135.6130  154.3371 H   0  0  0  0  0  0  0  0  0  0  0  0  # atno 10765 bound_to 10752
  139.9050  134.8100  156.2228 H   0  0  0  0  0  0  0  0  0  0  0  0  # atno 11005 bound_to 11000
  144.9306  139.4304  143.6497 LP  0  0  0  0  0  0  0  0  0  0  0  0  # atno 17320 bound_to 7965
  146.3236  139.8214  142.8926 LP  0  0  0  0  0  0  0  0  0  0  0  0  # atno 17321 bound_to 7965
  139.7318  143.9061  152.3022 LP  0  0  0  0  0  0  0  0  0  0  0  0  # atno 17342 bound_to 10162
  139.8853  144.6995  150.8832 LP  0  0  0  0  0  0  0  0  0  0  0  0  # atno 17343 bound_to 10162
  157.1659  130.6246  149.5625 LP  0  0  0  0  0  0  0  0  0  0  0  0  # atno 17370 bound_to 10713
  155.9802  130.4801  150.6760 LP  0  0  0  0  0  0  0  0  0  0  0  0  # atno 17371 bound_to 10713
  141.0395  133.6945  156.1572 LP  0  0  0  0  0  0  0  0  0  0  0  0  # atno 17394 bound_to 11000
  140.6977  134.4598  157.5587 LP  0  0  0  0  0  0  0  0  0  0  0  0  # atno 17395 bound_to 11000

$$$$
