AV-unprocessed.smi:2061|AV-procd|sdf|8395|dock2
  -GOLD-   2272011 83D 1   1.00000     0.00000
 Structure written by MMmdl.
 45 46  0  0  0  0  0  0  0  0  3 V2000
  147.6069  136.8924  163.3763 C   0  0  0  0  0  0  0  0  0  0  0  0
  147.4668  136.1322  162.1023 C   0  0  0  0  0  0  0  0  0  0  0  0
  147.6063  136.4834  160.7893 C   0  0  0  0  0  0  0  0  0  0  0  0
  147.3277  135.2725  160.1010 C   0  0  0  0  0  0  0  0  0  0  0  0
  147.3645  135.2221  158.6824 N   0  0  0  0  0  0  0  0  0  0  0  0
  148.0158  136.0303  157.8263 C   0  0  0  0  0  0  0  0  0  0  0  0
  148.6786  136.9850  158.2494 O   0  0  0  0  0  0  0  0  0  0  0  0
  147.8388  135.6542  156.5302 N   0  5  0  0  0  0  0  0  0  0  0  0
  148.2276  136.4574  155.3714 C   0  0  0  0  0  0  0  0  0  0  0  0
  149.7781  136.5786  155.2898 C   0  0  1  0  0  0  0  0  0  0  0  0
  150.4302  135.1731  155.1413 C   0  0  0  0  0  0  0  0  0  0  0  0
  150.1605  137.5561  154.2086 N   0  3  1  0  0  0  0  0  0  0  0  0
  149.5720  138.9200  154.3611 C   0  0  0  0  0  0  0  0  0  0  0  0
  150.3671  139.7755  155.3703 C   0  0  2  0  0  0  0  0  0  0  0  0
  149.8227  141.2049  155.4656 C   0  0  0  0  0  0  0  0  0  0  0  0
  151.7245  139.8474  154.9510 O   0  0  0  0  0  0  0  0  0  0  0  0
  152.3488  138.5701  154.8990 C   0  0  2  0  0  0  0  0  0  0  0  0
  153.8195  138.7763  154.5218 C   0  0  0  0  0  0  0  0  0  0  0  0
  151.6044  137.6929  153.8696 C   0  0  0  0  0  0  0  0  0  0  0  0
  147.0447  134.2719  160.9220 N   0  0  0  0  0  0  0  0  0  0  0  0
  147.1330  134.8174  162.2082 O   0  0  0  0  0  0  0  0  0  0  0  0
  147.8193  137.9437  163.1814 H   0  0  0  0  0  0  0  0  0  0  0  0
  148.4207  136.4887  163.9789 H   0  0  0  0  0  0  0  0  0  0  0  0
  146.6896  136.8361  163.9626 H   0  0  0  0  0  0  0  0  0  0  0  0
  147.8646  137.4516  160.3871 H   0  0  0  0  0  0  0  0  0  0  0  0
  146.8386  134.4718  158.2599 H   0  0  0  0  0  0  0  0  0  0  0  0
  147.8516  136.0385  154.4373 H   0  0  0  0  0  0  0  0  0  0  0  0
  147.7968  137.4574  155.4311 H   0  0  0  0  0  0  0  0  0  0  0  0
  150.1396  136.9858  156.2345 H   0  0  0  0  0  0  0  0  0  0  0  0
  150.1490  134.4968  155.9513 H   0  0  0  0  0  0  0  0  0  0  0  0
  151.5170  135.2207  155.1814 H   0  0  0  0  0  0  0  0  0  0  0  0
  150.1569  134.6833  154.2046 H   0  0  0  0  0  0  0  0  0  0  0  0
  149.5900  139.4051  153.3841 H   0  0  0  0  0  0  0  0  0  0  0  0
  148.5223  138.8776  154.6513 H   0  0  0  0  0  0  0  0  0  0  0  0
  150.3221  139.3288  156.3645 H   0  0  0  0  0  0  0  0  0  0  0  0
  148.7835  141.2068  155.7955 H   0  0  0  0  0  0  0  0  0  0  0  0
  149.8696  141.7119  154.5015 H   0  0  0  0  0  0  0  0  0  0  0  0
  150.3979  141.7941  156.1803 H   0  0  0  0  0  0  0  0  0  0  0  0
  152.3091  138.1182  155.8905 H   0  0  0  0  0  0  0  0  0  0  0  0
  154.3496  137.8247  154.4766 H   0  0  0  0  0  0  0  0  0  0  0  0
  154.3257  139.4039  155.2557 H   0  0  0  0  0  0  0  0  0  0  0  0
  153.9142  139.2596  153.5490 H   0  0  0  0  0  0  0  0  0  0  0  0
  152.0915  136.7288  153.7309 H   0  0  0  0  0  0  0  0  0  0  0  0
  151.6649  138.1754  152.8929 H   0  0  0  0  0  0  0  0  0  0  0  0
  149.7376  137.1622  153.3799 H   0  0  0  0  0  0  0  0  0  0  0  0
  1  2  1  0  0  0  0
  1 22  1  0  0  0  0
  1 23  1  0  0  0  0
  1 24  1  0  0  0  0
  2 21  1  0  0  0  0
  2  3  2  0  0  0  0
  3  4  1  0  0  0  0
  3 25  1  0  0  0  0
  4  5  1  0  0  0  0
  4 20  2  0  0  0  0
  5  6  1  0  0  0  0
  5 26  1  0  0  0  0
  6  7  2  0  0  0  0
  6  8  1  0  0  0  0
  8  9  1  0  0  0  0
  9 10  1  0  0  0  0
  9 27  1  0  0  0  0
  9 28  1  0  0  0  0
 10 11  1  0  0  0  0
 10 12  1  0  0  0  0
 10 29  1  0  0  0  0
 11 30  1  0  0  0  0
 11 31  1  0  0  0  0
 11 32  1  0  0  0  0
 12 19  1  0  0  0  0
 12 13  1  0  0  0  0
 12 45  1  0  0  0  0
 13 14  1  0  0  0  0
 13 33  1  0  0  0  0
 13 34  1  0  0  0  0
 14 15  1  0  0  0  0
 14 16  1  0  0  0  0
 14 35  1  0  0  0  0
 15 36  1  0  0  0  0
 15 37  1  0  0  0  0
 15 38  1  0  0  0  0
 16 17  1  0  0  0  0
 17 18  1  0  0  0  0
 17 19  1  0  0  0  0
 17 39  1  0  0  0  0
 18 40  1  0  0  0  0
 18 41  1  0  0  0  0
 18 42  1  0  0  0  0
 19 43  1  0  0  0  0
 19 44  1  0  0  0  0
 20 21  1  0  0  0  0
M  CHG  1   8  -1
M  CHG  1  12   1
M  END
> <s_m_source_file>
AV-unprocessed.smi

> <i_m_source_file_index>
2061

> <i_lp_mmshare_version>
43012

> <i_f3d_flags>
0

> <s_epik_input>
W0NIM11jMVtjSF1jKG5vMSlbTkhdQyg9TylbTkhdW0NIMl1bQ0BIXShbQ0gzXSlOMltDSDJdW0NAQEhdKFtDSDNdKU9bQ0BASF0oW0NIM10pW0NIMl0y

> <s_epik_cmdline>
J2VwaWtfcHl0aG9uJywgJy1waCcsICc3LjAnLCAnLXRuJywgJzgnLCAnLW1hJywgJzIwMCcsICctbWV0YWxfYmluZGluZycsICctaW1hZScsICc8aW5maWxlLm1hZT4nLCAnLW9tYWUnLCAnPG91dGZpbGUubWFlPic=

> <r_epik_Ionization_Penalty>
6.8073

> <r_epik_Ionization_Penalty_Charging>
6.80729

> <r_epik_Ionization_Penalty_Neutral>
5.65391e-06

> <r_epik_State_Penalty>
7.47323

> <r_epik_Charging_Adjusted_Penalty>
14.2805

> <i_epik_Tot_Q>
0

> <i_epik_Tot_abs_Q>
2

> <r_epik_Metal_State_Penalty>
3.40035

> <b_epik_Metal_Only>
1

> <s_lp_Force_Field>
OPLS_2005

> <r_lp_Energy>
21.1883

> <b_lp_Chiralities_Consistent>
1

> <s_lp_Variant>
AV-unprocessed.smi:2061-36

> <Gold.Version>
5.8.1

> <Gold.Id.Protein>
6NUR|6NUR_protein|mol2

> <Gold.PLP.Fitness>
40.9853

> <Gold.PLP.PLP>
-32.2693

> <Gold.PLP.part.hbond>
-2.1284

> <Gold.PLP.part.metal>
0.0000

> <Gold.PLP.part.buried>
-2.2067

> <Gold.PLP.part.nonpolar>
-28.4481

> <Gold.PLP.part.repulsive>
0.1282

> <Gold.PLP.ligand.clash>
0.0000

> <Gold.PLP.ligand.torsion>
0.2290

> <Gold.PLP.Chemscore.Hbond>
3.0000

> <Gold.PLP.Chemscore.CHOScore>
0.0000

> <Gold.PLP.Chemscore.Metal>
0.0000

> <Gold.Chemscore.Hbonds>
donor molecule, donor type, donor heavy atom, donor atom, acceptor molecule, acceptor atom, score
      L1  H    12    45       P1  7948  2.00
      P1  H  7989  7998       L1    16  1.00

> <Gold.PLP.Chemscore.Internal.Correction>
0.1740

> <Gold.Rescore>
     Score         DG    S(hbond)    S(metal)    S(lipo)     H(rot)  DE(clash)    DE(int)     intcor
     14.43     -16.88       1.68        0.00      83.45       1.56       0.82       1.63       ----

> <Gold.Chemscore.Fitness>
14.4349

> <Gold.Chemscore.DG>
-16.8833

> <Gold.Chemscore.ZeroCoef>
-5.4800

> <Gold.Chemscore.Hbond>
1.6827

> <Gold.Chemscore.Metal>
0.0000

> <Gold.Chemscore.Lipo>
83.4524

> <Gold.Chemscore.Internal_Hbond>
0.0000

> <Gold.Chemscore.DEClash>
0.8218

> <Gold.Chemscore.DEInternal>
1.6266

> <Gold.Chemscore.Rot>
1.5550

> <Gold.Chemscore.Internal.Correction>
   9.000000E+99

> <Gold.Chemscore.Hbonds>
donor molecule, donor type, donor heavy atom, donor atom, acceptor molecule, acceptor atom, score
      L1  H    12    45       P1  7948  0.60
      P1  H  7989  7998       L1    16  0.42

> <Gold.Chemscore.Hbond.Weighted>
-5.6202

> <Gold.Chemscore.Metal.Weighted>
-0.0000

> <Gold.Chemscore.Lipo.Weighted>
-9.7639

> <Gold.Chemscore.Internal_Hbond.Weighted>
0.0000

> <Gold.Chemscore.DEClash.Weighted>
0.8218

> <Gold.Chemscore.DEInternal.Weighted>
1.6266

> <Gold.Chemscore.Rot.Weighted>
3.9809

> <Gold.Chemscore.Internal.Correction.Weighted>
   9.000000E+99

> <Gold.Protein.RotatedTorsions>
[ 6907 6896 6895 6894 ] final  -76.17 input  -60.11 | X-H torsion
[ 7974 7965 7964 7962 ] final -104.00 input  175.53 | X-H torsion
[ 8008 7997 7996 7995 ] final  -10.35 input   59.86 | X-H torsion
[ 10167 10162 10161 10158 ] final    4.87 input  -65.29 | X-H torsion
[ 10718 10713 10712 10709 ] final   97.77 input   66.30 | X-H torsion
[ 10763 10752 10751 10750 ] final  -98.37 input  -60.55 | X-H torsion
[ 11005 11000 10999 10996 ] final -165.66 input  -57.11 | X-H torsion

> <Gold.Protein.ActiveResidues>
 VAL166  LYS551  ARG553  GLY616  TRP617  ASP618  TYR619  PRO620  LYS621  CYS622 
 ASP623  PHE694  ASN695  SER759  ASP760  ASP761  ALA762  ILE779  LEU786  VAL792 
 PHE793  MET794  SER795  GLU796  ALA797  LYS798  CYS799  TRP800  GLU811  SER814 

> <Gold.Protein.RotatedAtoms>
  150.7035  134.4611  159.5380 H   0  0  0  0  0  0  0  0  0  0  0  0  # atno 6907 bound_to 6896
  152.2286  134.8341  160.0486 H   0  0  0  0  0  0  0  0  0  0  0  0  # atno 6908 bound_to 6896
  151.9166  133.3539  159.3919 H   0  0  0  0  0  0  0  0  0  0  0  0  # atno 6909 bound_to 6896
  145.2488  140.9231  143.3107 H   0  0  0  0  0  0  0  0  0  0  0  0  # atno 7974 bound_to 7965
  154.5563  140.2331  155.8406 H   0  0  0  0  0  0  0  0  0  0  0  0  # atno 8008 bound_to 7997
  156.1991  140.3057  155.9448 H   0  0  0  0  0  0  0  0  0  0  0  0  # atno 8009 bound_to 7997
  155.2974  140.0429  157.3018 H   0  0  0  0  0  0  0  0  0  0  0  0  # atno 8010 bound_to 7997
  140.6512  143.7541  150.7578 H   0  0  0  0  0  0  0  0  0  0  0  0  # atno 10167 bound_to 10162
  157.6907  131.0619  150.4694 H   0  0  0  0  0  0  0  0  0  0  0  0  # atno 10718 bound_to 10713
  154.7409  135.5012  153.9120 H   0  0  0  0  0  0  0  0  0  0  0  0  # atno 10763 bound_to 10752
  153.1042  135.6693  153.9625 H   0  0  0  0  0  0  0  0  0  0  0  0  # atno 10764 bound_to 10752
  153.9403  135.3068  155.3422 H   0  0  0  0  0  0  0  0  0  0  0  0  # atno 10765 bound_to 10752
  140.5732  134.5216  157.5165 H   0  0  0  0  0  0  0  0  0  0  0  0  # atno 11005 bound_to 11000
  144.9522  139.4070  143.6397 LP  0  0  0  0  0  0  0  0  0  0  0  0  # atno 17320 bound_to 7965
  146.3308  139.8535  142.8869 LP  0  0  0  0  0  0  0  0  0  0  0  0  # atno 17321 bound_to 7965
  140.1191  143.4628  152.2324 LP  0  0  0  0  0  0  0  0  0  0  0  0  # atno 17342 bound_to 10162
  139.5727  144.7471  151.3847 LP  0  0  0  0  0  0  0  0  0  0  0  0  # atno 17343 bound_to 10162
  156.5033  130.4122  149.6341 LP  0  0  0  0  0  0  0  0  0  0  0  0  # atno 17370 bound_to 10713
  156.3308  130.7330  151.2259 LP  0  0  0  0  0  0  0  0  0  0  0  0  # atno 17371 bound_to 10713
  139.9352  134.7889  156.0823 LP  0  0  0  0  0  0  0  0  0  0  0  0  # atno 17394 bound_to 11000
  141.1043  133.6666  156.2827 LP  0  0  0  0  0  0  0  0  0  0  0  0  # atno 17395 bound_to 11000

$$$$
