AV-unprocessed.smi:3147|AV-procd|sdf|11987|dock9
  -GOLD-   2272017393D 1   1.00000     0.00000
 Structure written by MMmdl.
 37 38  0  0  0  0  0  0  0  0  2 V2000
  143.5144  133.0221  147.9632 C   0  0  0  0  0  0  0  0  0  0  0  0
  143.9992  132.6921  149.3348 C   0  0  0  0  0  0  0  0  0  0  0  0
  143.2561  132.9513  150.4563 N   0  3  0  0  0  0  0  0  0  0  0  0
  143.9073  132.5573  151.5518 C   0  0  0  0  0  0  0  0  0  0  0  0
  145.0725  132.0421  151.1444 N   0  0  0  0  0  0  0  0  0  0  0  0
  146.0547  131.4976  152.0950 C   0  0  0  0  0  0  0  0  0  0  0  0
  146.2107  129.9775  151.9761 C   0  0  0  0  0  0  0  0  0  0  0  0
  145.5291  129.2182  152.6658 O   0  0  0  0  0  0  0  0  0  0  0  0
  147.1178  129.5505  151.0852 N   0  0  0  0  0  0  0  0  0  0  0  0
  147.3981  128.1522  150.7720 C   0  0  0  0  0  0  0  0  0  0  0  0
  148.4900  127.5511  151.6770 C   0  0  2  0  0  0  0  0  0  0  0  0
  148.9709  126.1494  151.3007 C   0  0  0  0  0  0  0  0  0  0  0  0
  149.6172  125.7066  152.5941 C   0  0  0  0  0  0  0  0  0  0  0  0
  148.6928  126.3171  153.6473 C   0  0  0  0  0  0  0  0  0  0  0  0
  148.0506  127.4295  153.0260 O   0  0  0  0  0  0  0  0  0  0  0  0
  145.1652  132.1069  149.7715 C   0  0  0  0  0  0  0  0  0  0  0  0
  146.3449  131.5987  149.0085 C   0  0  0  0  0  0  0  0  0  0  0  0
  144.3226  133.4512  147.3703 H   0  0  0  0  0  0  0  0  0  0  0  0
  142.6969  133.7426  148.0049 H   0  0  0  0  0  0  0  0  0  0  0  0
  143.1585  132.1198  147.4655 H   0  0  0  0  0  0  0  0  0  0  0  0
  143.5574  132.6368  152.5657 H   0  0  0  0  0  0  0  0  0  0  0  0
  147.0095  131.9933  151.9156 H   0  0  0  0  0  0  0  0  0  0  0  0
  145.7432  131.7527  153.1088 H   0  0  0  0  0  0  0  0  0  0  0  0
  147.6361  130.2437  150.5650 H   0  0  0  0  0  0  0  0  0  0  0  0
  146.4725  127.5914  150.9025 H   0  0  0  0  0  0  0  0  0  0  0  0
  147.6750  128.0378  149.7228 H   0  0  0  0  0  0  0  0  0  0  0  0
  149.3501  128.2227  151.6819 H   0  0  0  0  0  0  0  0  0  0  0  0
  148.1359  125.4897  151.0629 H   0  0  0  0  0  0  0  0  0  0  0  0
  149.6605  126.1485  150.4562 H   0  0  0  0  0  0  0  0  0  0  0  0
  149.7072  124.6236  152.6814 H   0  0  0  0  0  0  0  0  0  0  0  0
  150.6155  126.1389  152.6767 H   0  0  0  0  0  0  0  0  0  0  0  0
  147.9298  125.5998  153.9495 H   0  0  0  0  0  0  0  0  0  0  0  0
  149.2385  126.6248  154.5395 H   0  0  0  0  0  0  0  0  0  0  0  0
  146.2515  131.8453  147.9510 H   0  0  0  0  0  0  0  0  0  0  0  0
  146.4134  130.5153  149.1041 H   0  0  0  0  0  0  0  0  0  0  0  0
  147.2658  132.0443  149.3852 H   0  0  0  0  0  0  0  0  0  0  0  0
  142.3386  133.3787  150.4572 H   0  0  0  0  0  0  0  0  0  0  0  0
  1  2  1  0  0  0  0
  1 18  1  0  0  0  0
  1 19  1  0  0  0  0
  1 20  1  0  0  0  0
  2 16  2  0  0  0  0
  2  3  1  0  0  0  0
  3  4  2  0  0  0  0
  3 37  1  0  0  0  0
  4  5  1  0  0  0  0
  4 21  1  0  0  0  0
  5  6  1  0  0  0  0
  5 16  1  0  0  0  0
  6  7  1  0  0  0  0
  6 22  1  0  0  0  0
  6 23  1  0  0  0  0
  7  8  2  0  0  0  0
  7  9  1  0  0  0  0
  9 10  1  0  0  0  0
  9 24  1  0  0  0  0
 10 11  1  0  0  0  0
 10 25  1  0  0  0  0
 10 26  1  0  0  0  0
 11 15  1  0  0  0  0
 11 12  1  0  0  0  0
 11 27  1  0  0  0  0
 12 13  1  0  0  0  0
 12 28  1  0  0  0  0
 12 29  1  0  0  0  0
 13 14  1  0  0  0  0
 13 30  1  0  0  0  0
 13 31  1  0  0  0  0
 14 15  1  0  0  0  0
 14 32  1  0  0  0  0
 14 33  1  0  0  0  0
 16 17  1  0  0  0  0
 17 34  1  0  0  0  0
 17 35  1  0  0  0  0
 17 36  1  0  0  0  0
M  CHG  1   3   1
M  END
> <s_m_source_file>
AV-unprocessed.smi

> <i_m_source_file_index>
3147

> <i_lp_mmshare_version>
43012

> <i_f3d_flags>
0

> <s_epik_input>
W0NIM11jMW5bY0hdbihjMVtDSDNdKVtDSDJdQyg9TylbTkhdW0NIMl1bQ0BASF0yW0NIMl1bQ0gyXVtDSDJdTzI=

> <s_epik_cmdline>
J2VwaWtfcHl0aG9uJywgJy1waCcsICc3LjAnLCAnLXRuJywgJzgnLCAnLW1hJywgJzIwMCcsICctbWV0YWxfYmluZGluZycsICctaW1hZScsICc8aW5maWxlLm1hZT4nLCAnLW9tYWUnLCAnPG91dGZpbGUubWFlPic=

> <r_lp_tautomer_probability>
1

> <r_epik_Ionization_Penalty>
0.131257

> <r_epik_Ionization_Penalty_Charging>
0

> <r_epik_Ionization_Penalty_Neutral>
0.131257

> <r_epik_State_Penalty>
0.12065

> <r_epik_Charging_Adjusted_Penalty>
0.12065

> <i_epik_Tot_Q>
1

> <i_epik_Tot_abs_Q>
1

> <r_epik_Metal_State_Penalty>
0.448684

> <b_epik_Metal_Only>
0

> <s_lp_Force_Field>
OPLS_2005

> <r_lp_Energy>
20.508

> <b_lp_Chiralities_Consistent>
1

> <s_lp_Variant>
AV-unprocessed.smi:3147-1

> <Gold.Version>
5.8.1

> <Gold.Id.Protein>
6NUR|6NUR_protein|mol2

> <Gold.PLP.Fitness>
45.2717

> <Gold.PLP.PLP>
-35.7908

> <Gold.PLP.part.hbond>
-1.6262

> <Gold.PLP.part.metal>
0.0000

> <Gold.PLP.part.buried>
-1.6159

> <Gold.PLP.part.nonpolar>
-34.0303

> <Gold.PLP.part.repulsive>
0.8248

> <Gold.PLP.ligand.clash>
0.0000

> <Gold.PLP.ligand.torsion>
0.6494

> <Gold.PLP.Chemscore.Hbond>
2.9051

> <Gold.PLP.Chemscore.CHOScore>
0.6866

> <Gold.PLP.Chemscore.Metal>
0.0000

> <Gold.Chemscore.Hbonds>
donor molecule, donor type, donor heavy atom, donor atom, acceptor molecule, acceptor atom, score
      L1  H     3    37       P1 10186  1.98
      L1  H     9    24       P1 10747  0.81
      L1  C     4    21       P1 10957  0.67

> <Gold.PLP.Chemscore.Internal.Correction>
0.0049

> <Gold.Rescore>
     Score         DG    S(hbond)    S(metal)    S(lipo)     H(rot)  DE(clash)    DE(int)     intcor
     15.68     -18.27       1.84        0.00      95.31       1.76       1.87       0.71       ----

> <Gold.Chemscore.Fitness>
15.6807

> <Gold.Chemscore.DG>
-18.2650

> <Gold.Chemscore.ZeroCoef>
-5.4800

> <Gold.Chemscore.Hbond>
1.8365

> <Gold.Chemscore.Metal>
0.0000

> <Gold.Chemscore.Lipo>
95.3074

> <Gold.Chemscore.Internal_Hbond>
0.0000

> <Gold.Chemscore.DEClash>
1.8737

> <Gold.Chemscore.DEInternal>
0.7106

> <Gold.Chemscore.Rot>
1.7577

> <Gold.Chemscore.Internal.Correction>
   9.000000E+99

> <Gold.Chemscore.Hbonds>
donor molecule, donor type, donor heavy atom, donor atom, acceptor molecule, acceptor atom, score
      L1  H     3    37       P1 10186  0.94
      L1  H     9    24       P1 10747  0.77

> <Gold.Chemscore.Hbond.Weighted>
-6.1339

> <Gold.Chemscore.Metal.Weighted>
-0.0000

> <Gold.Chemscore.Lipo.Weighted>
-11.1510

> <Gold.Chemscore.Internal_Hbond.Weighted>
0.0000

> <Gold.Chemscore.DEClash.Weighted>
1.8737

> <Gold.Chemscore.DEInternal.Weighted>
0.7106

> <Gold.Chemscore.Rot.Weighted>
4.4998

> <Gold.Chemscore.Internal.Correction.Weighted>
   9.000000E+99

> <Gold.Protein.RotatedTorsions>
[ 6907 6896 6895 6894 ] final -165.24 input  -60.11 | X-H torsion
[ 7974 7965 7964 7962 ] final -158.98 input  175.53 | X-H torsion
[ 8008 7997 7996 7995 ] final  102.39 input   59.86 | X-H torsion
[ 10167 10162 10161 10158 ] final  -51.31 input  -65.29 | X-H torsion
[ 10718 10713 10712 10709 ] final  118.80 input   66.30 | X-H torsion
[ 10763 10752 10751 10750 ] final  132.71 input  -60.55 | X-H torsion
[ 11005 11000 10999 10996 ] final -145.45 input  -57.11 | X-H torsion

> <Gold.Protein.ActiveResidues>
 VAL166  LYS551  ARG553  GLY616  TRP617  ASP618  TYR619  PRO620  LYS621  CYS622 
 ASP623  PHE694  ASN695  SER759  ASP760  ASP761  ALA762  ILE779  LEU786  VAL792 
 PHE793  MET794  SER795  GLU796  ALA797  LYS798  CYS799  TRP800  GLU811  SER814 

> <Gold.Protein.RotatedAtoms>
  151.4245  133.3688  159.2760 H   0  0  0  0  0  0  0  0  0  0  0  0  # atno 6907 bound_to 6896
  150.9269  134.8687  159.7537 H   0  0  0  0  0  0  0  0  0  0  0  0  # atno 6908 bound_to 6896
  152.5009  134.4187  159.9525 H   0  0  0  0  0  0  0  0  0  0  0  0  # atno 6909 bound_to 6896
  144.7483  140.3750  143.6067 H   0  0  0  0  0  0  0  0  0  0  0  0  # atno 7974 bound_to 7965
  156.1389  140.3182  155.8464 H   0  0  0  0  0  0  0  0  0  0  0  0  # atno 8008 bound_to 7997
  155.4192  140.0511  157.3044 H   0  0  0  0  0  0  0  0  0  0  0  0  # atno 8009 bound_to 7997
  154.4959  140.2110  155.9460 H   0  0  0  0  0  0  0  0  0  0  0  0  # atno 8010 bound_to 7997
  140.6594  143.2624  151.4485 H   0  0  0  0  0  0  0  0  0  0  0  0  # atno 10167 bound_to 10162
  157.6005  131.1051  150.7807 H   0  0  0  0  0  0  0  0  0  0  0  0  # atno 10718 bound_to 10713
  153.7952  135.3149  155.3383 H   0  0  0  0  0  0  0  0  0  0  0  0  # atno 10763 bound_to 10752
  154.8110  135.4667  154.0520 H   0  0  0  0  0  0  0  0  0  0  0  0  # atno 10764 bound_to 10752
  153.1851  135.6900  153.8513 H   0  0  0  0  0  0  0  0  0  0  0  0  # atno 10765 bound_to 10752
  140.7921  134.2956  157.5009 H   0  0  0  0  0  0  0  0  0  0  0  0  # atno 11005 bound_to 11000
  145.7038  139.1667  143.2578 LP  0  0  0  0  0  0  0  0  0  0  0  0  # atno 17320 bound_to 7965
  146.1396  140.7075  142.9373 LP  0  0  0  0  0  0  0  0  0  0  0  0  # atno 17321 bound_to 7965
  139.5825  144.1678  152.1986 LP  0  0  0  0  0  0  0  0  0  0  0  0  # atno 17342 bound_to 10162
  140.1008  144.5541  150.6990 LP  0  0  0  0  0  0  0  0  0  0  0  0  # atno 17343 bound_to 10162
  156.8208  130.4983  149.5343 LP  0  0  0  0  0  0  0  0  0  0  0  0  # atno 17370 bound_to 10713
  156.1077  130.6017  150.9998 LP  0  0  0  0  0  0  0  0  0  0  0  0  # atno 17371 bound_to 10713
  139.8730  134.9381  156.3704 LP  0  0  0  0  0  0  0  0  0  0  0  0  # atno 17394 bound_to 11000
  140.9379  133.7535  156.0108 LP  0  0  0  0  0  0  0  0  0  0  0  0  # atno 17395 bound_to 11000

$$$$
