AV-unprocessed.smi:101|AV-procd|sdf|919|dock9
  -GOLD-   2262017423D 1   1.00000     0.00000
 Structure written by MMmdl.
 44 46  0  0  0  0  0  0  0  0  1 V2000
  145.4163  137.0773  155.4175 C   0  0  0  0  0  0  0  0  0  0  0  0
  145.8778  137.8899  154.2192 C   0  0  0  0  0  0  0  0  0  0  0  0
  146.8084  138.8730  154.3217 C   0  0  0  0  0  0  0  0  0  0  0  0
  147.2476  139.6330  153.2461 N   0  0  0  0  0  0  0  0  0  0  0  0
  148.2754  140.7259  153.4251 C   0  0  2  0  0  0  0  0  0  0  0  0
  149.4332  140.1626  153.9619 O   0  0  0  0  0  0  0  0  0  0  0  0
  149.9509  141.0127  154.9759 C   0  0  2  0  0  0  0  0  0  0  0  0
  150.8502  140.2296  155.9426 C   0  0  0  0  0  0  0  0  0  0  0  0
  151.5891  141.1466  156.7321 O   0  0  0  0  0  0  0  0  0  0  0  0
  151.8050  140.8921  158.0371 C   0  0  0  0  0  0  0  0  0  0  0  0
  151.8953  139.7549  158.5043 O   0  0  0  0  0  0  0  0  0  0  0  0
  151.9246  142.1318  158.8578 C   0  0  0  0  0  0  0  0  0  0  0  0
  151.6964  143.3891  158.2513 C   0  0  0  0  0  0  0  0  0  0  0  0
  151.8000  144.5769  159.0011 C   0  0  0  0  0  0  0  0  0  0  0  0
  152.1312  144.5218  160.3675 C   0  0  0  0  0  0  0  0  0  0  0  0
  152.3598  143.2774  160.9831 C   0  0  0  0  0  0  0  0  0  0  0  0
  152.2585  142.0886  160.2342 C   0  0  0  0  0  0  0  0  0  0  0  0
  148.7015  141.6505  155.5966 C   0  0  2  0  0  0  0  0  0  0  0  0
  148.1275  140.8092  156.5804 O   0  0  0  0  0  0  0  0  0  0  0  0
  147.7627  141.7987  154.4044 C   0  0  1  0  0  0  0  0  0  0  0  0
  147.8825  143.0956  153.8532 O   0  0  0  0  0  0  0  0  0  0  0  0
  146.6907  139.4119  151.9699 C   0  0  0  0  0  0  0  0  0  0  0  0
  147.0038  140.0702  150.9787 O   0  0  0  0  0  0  0  0  0  0  0  0
  145.7400  138.3985  151.8626 N   0  0  0  0  0  0  0  0  0  0  0  0
  145.2836  137.5969  152.9119 C   0  0  0  0  0  0  0  0  0  0  0  0
  144.4411  136.7287  152.6907 O   0  0  0  0  0  0  0  0  0  0  0  0
  145.3435  138.2327  150.9492 H   0  0  0  0  0  0  0  0  0  0  0  0
  145.9212  137.3848  156.3338 H   0  0  0  0  0  0  0  0  0  0  0  0
  145.6223  136.0177  155.2619 H   0  0  0  0  0  0  0  0  0  0  0  0
  144.3434  137.1993  155.5706 H   0  0  0  0  0  0  0  0  0  0  0  0
  147.2230  139.0740  155.2987 H   0  0  0  0  0  0  0  0  0  0  0  0
  148.5145  141.1083  152.4308 H   0  0  0  0  0  0  0  0  0  0  0  0
  150.5305  141.7999  154.4900 H   0  0  0  0  0  0  0  0  0  0  0  0
  150.2399  139.6084  156.5995 H   0  0  0  0  0  0  0  0  0  0  0  0
  151.5226  139.5702  155.3917 H   0  0  0  0  0  0  0  0  0  0  0  0
  151.4384  143.4563  157.2042 H   0  0  0  0  0  0  0  0  0  0  0  0
  151.6237  145.5311  158.5269 H   0  0  0  0  0  0  0  0  0  0  0  0
  152.2091  145.4328  160.9427 H   0  0  0  0  0  0  0  0  0  0  0  0
  152.6127  143.2337  162.0321 H   0  0  0  0  0  0  0  0  0  0  0  0
  152.4403  141.1504  160.7380 H   0  0  0  0  0  0  0  0  0  0  0  0
  148.9293  142.6060  156.0717 H   0  0  0  0  0  0  0  0  0  0  0  0
  147.3007  140.4859  156.2564 H   0  0  0  0  0  0  0  0  0  0  0  0
  146.7177  141.6289  154.6700 H   0  0  0  0  0  0  0  0  0  0  0  0
  148.0485  143.7066  154.5547 H   0  0  0  0  0  0  0  0  0  0  0  0
  1  2  1  0  0  0  0
  1 28  1  0  0  0  0
  1 29  1  0  0  0  0
  1 30  1  0  0  0  0
  2 25  1  0  0  0  0
  2  3  2  0  0  0  0
  3  4  1  0  0  0  0
  3 31  1  0  0  0  0
  4  5  1  0  0  0  0
  4 22  1  0  0  0  0
  5 20  1  0  0  0  0
  5  6  1  0  0  0  0
  5 32  1  0  0  0  0
  6  7  1  0  0  0  0
  7  8  1  0  0  0  0
  7 18  1  0  0  0  0
  7 33  1  0  0  0  0
  8  9  1  0  0  0  0
  8 34  1  0  0  0  0
  8 35  1  0  0  0  0
  9 10  1  0  0  0  0
 10 11  2  0  0  0  0
 10 12  1  0  0  0  0
 12 17  1  0  0  0  0
 12 13  2  0  0  0  0
 13 14  1  0  0  0  0
 13 36  1  0  0  0  0
 14 15  2  0  0  0  0
 14 37  1  0  0  0  0
 15 16  1  0  0  0  0
 15 38  1  0  0  0  0
 16 17  2  0  0  0  0
 16 39  1  0  0  0  0
 17 40  1  0  0  0  0
 18 19  1  0  0  0  0
 18 20  1  0  0  0  0
 18 41  1  0  0  0  0
 19 42  1  0  0  0  0
 20 21  1  0  0  0  0
 20 43  1  0  0  0  0
 21 44  1  0  0  0  0
 22 23  2  0  0  0  0
 22 24  1  0  0  0  0
 24 27  1  0  0  0  0
 24 25  1  0  0  0  0
 25 26  2  0  0  0  0
M  END
> <s_m_source_file>
AV-unprocessed.smi

> <i_m_source_file_index>
101

> <i_lp_mmshare_version>
43012

> <i_f3d_flags>
0

> <s_epik_input>
Tz1jMVtuSF1jKD1PKW4oW2NIXWMxW0NIM10pW0NAQEhdMk9bQ0BIXShbQ0BASF0oW09IXSlbQ0BIXTJbT0hdKVtDSDJdT0MoPU8pYzNbY0hdW2NIXVtjSF1bY0hdW2NIXTM=

> <s_epik_cmdline>
J2VwaWtfcHl0aG9uJywgJy1waCcsICc3LjAnLCAnLXRuJywgJzgnLCAnLW1hJywgJzIwMCcsICctbWV0YWxfYmluZGluZycsICctaW1hZScsICc8aW5maWxlLm1hZT4nLCAnLW9tYWUnLCAnPG91dGZpbGUubWFlPic=

> <r_lp_tautomer_probability>
0.999537

> <r_epik_Ionization_Penalty>
0.00263537

> <r_epik_Ionization_Penalty_Charging>
0.00263428

> <r_epik_Ionization_Penalty_Neutral>
1.09111e-06

> <r_epik_State_Penalty>
0.00183335

> <r_epik_Charging_Adjusted_Penalty>
0.00446763

> <i_epik_Tot_Q>
0

> <i_epik_Tot_abs_Q>
0

> <r_epik_Metal_State_Penalty>
1.00528

> <b_epik_Metal_Only>
0

> <s_epik_Chemistry_Notes>
This compound has an ester and may undergo hydrolysis at high or low pH. This compound contains an acetal/aminal-like group ( X-CH(R)-Y where X, Y are N, S, or O) that may be acid/base labile, releasing an aldehyde.

> <s_lp_Force_Field>
OPLS_2005

> <r_lp_Energy>
30.9331

> <b_lp_Chiralities_Consistent>
1

> <s_lp_Variant>
AV-unprocessed.smi:101-7

> <Gold.Version>
5.8.1

> <Gold.Id.Protein>
6NUR|6NUR_protein|mol2

> <Gold.PLP.Fitness>
45.1020

> <Gold.PLP.PLP>
-40.7343

> <Gold.PLP.part.hbond>
-5.0000

> <Gold.PLP.part.metal>
0.0000

> <Gold.PLP.part.buried>
0.9273

> <Gold.PLP.part.nonpolar>
-38.6596

> <Gold.PLP.part.repulsive>
3.1923

> <Gold.PLP.ligand.clash>
0.0000

> <Gold.PLP.ligand.torsion>
0.7748

> <Gold.PLP.Chemscore.Hbond>
1.9600

> <Gold.PLP.Chemscore.CHOScore>
0.0000

> <Gold.PLP.Chemscore.Metal>
0.0000

> <Gold.Chemscore.Hbonds>
donor molecule, donor type, donor heavy atom, donor atom, acceptor molecule, acceptor atom, score
      L1  H    21    44       P1  8028  1.00
      L1  H    24    27       P1 10171  0.90

> <Gold.PLP.Chemscore.Internal.Correction>
0.0373

> <Gold.Rescore>
     Score         DG    S(hbond)    S(metal)    S(lipo)     H(rot)  DE(clash)    DE(int)     intcor
     11.18     -13.63       1.78        0.00      91.31       3.32       1.75       0.70       ----

> <Gold.Chemscore.Fitness>
11.1835

> <Gold.Chemscore.DG>
-13.6292

> <Gold.Chemscore.ZeroCoef>
-5.4800

> <Gold.Chemscore.Hbond>
1.7839

> <Gold.Chemscore.Metal>
0.0000

> <Gold.Chemscore.Lipo>
91.3085

> <Gold.Chemscore.Internal_Hbond>
0.0000

> <Gold.Chemscore.DEClash>
1.7488

> <Gold.Chemscore.DEInternal>
0.6969

> <Gold.Chemscore.Rot>
3.3172

> <Gold.Chemscore.Internal.Correction>
   9.000000E+99

> <Gold.Chemscore.Hbonds>
donor molecule, donor type, donor heavy atom, donor atom, acceptor molecule, acceptor atom, score
      L1  H    21    44       P1  8028  0.70
      L1  H    24    27       P1 10171  0.88

> <Gold.Chemscore.Hbond.Weighted>
-5.9581

> <Gold.Chemscore.Metal.Weighted>
-0.0000

> <Gold.Chemscore.Lipo.Weighted>
-10.6831

> <Gold.Chemscore.Internal_Hbond.Weighted>
0.0000

> <Gold.Chemscore.DEClash.Weighted>
1.7488

> <Gold.Chemscore.DEInternal.Weighted>
0.6969

> <Gold.Chemscore.Rot.Weighted>
8.4920

> <Gold.Chemscore.Internal.Correction.Weighted>
   9.000000E+99

> <Gold.Protein.RotatedTorsions>
[ 6907 6896 6895 6894 ] final   16.53 input  -60.11 | X-H torsion
[ 7974 7965 7964 7962 ] final  158.49 input  175.53 | X-H torsion
[ 8008 7997 7996 7995 ] final  128.93 input   59.86 | X-H torsion
[ 10167 10162 10161 10158 ] final   27.00 input  -65.29 | X-H torsion
[ 10718 10713 10712 10709 ] final   24.96 input   66.30 | X-H torsion
[ 10763 10752 10751 10750 ] final  114.51 input  -60.55 | X-H torsion
[ 11005 11000 10999 10996 ] final  131.89 input  -57.11 | X-H torsion

> <Gold.Protein.ActiveResidues>
 VAL166  LYS551  ARG553  GLY616  TRP617  ASP618  TYR619  PRO620  LYS621  CYS622 
 ASP623  PHE694  ASN695  SER759  ASP760  ASP761  ALA762  ILE779  LEU786  VAL792 
 PHE793  MET794  SER795  GLU796  ALA797  LYS798  CYS799  TRP800  GLU811  SER814 

> <Gold.Protein.RotatedAtoms>
  151.8354  135.0608  160.0441 H   0  0  0  0  0  0  0  0  0  0  0  0  # atno 6907 bound_to 6896
  152.2849  133.5501  159.5529 H   0  0  0  0  0  0  0  0  0  0  0  0  # atno 6908 bound_to 6896
  150.7205  134.0427  159.3813 H   0  0  0  0  0  0  0  0  0  0  0  0  # atno 6909 bound_to 6896
  144.7843  139.7485  143.6247 H   0  0  0  0  0  0  0  0  0  0  0  0  # atno 7974 bound_to 7965
  156.2925  140.2633  156.2516 H   0  0  0  0  0  0  0  0  0  0  0  0  # atno 8008 bound_to 7997
  154.9877  140.0389  157.2324 H   0  0  0  0  0  0  0  0  0  0  0  0  # atno 8009 bound_to 7997
  154.7714  140.2779  155.6140 H   0  0  0  0  0  0  0  0  0  0  0  0  # atno 8010 bound_to 7997
  140.4975  144.0368  150.6320 H   0  0  0  0  0  0  0  0  0  0  0  0  # atno 10167 bound_to 10162
  157.1869  130.6828  149.6135 H   0  0  0  0  0  0  0  0  0  0  0  0  # atno 10718 bound_to 10713
  153.5083  135.3623  155.2574 H   0  0  0  0  0  0  0  0  0  0  0  0  # atno 10763 bound_to 10752
  154.8743  135.4016  154.3398 H   0  0  0  0  0  0  0  0  0  0  0  0  # atno 10764 bound_to 10752
  153.4046  135.7076  153.6468 H   0  0  0  0  0  0  0  0  0  0  0  0  # atno 10765 bound_to 10752
  139.9757  134.9564  156.9503 H   0  0  0  0  0  0  0  0  0  0  0  0  # atno 11005 bound_to 11000
  146.2067  139.5396  142.9708 LP  0  0  0  0  0  0  0  0  0  0  0  0  # atno 17320 bound_to 7965
  145.5965  141.0362  143.2042 LP  0  0  0  0  0  0  0  0  0  0  0  0  # atno 17321 bound_to 7965
  140.3655  143.2884  152.0337 LP  0  0  0  0  0  0  0  0  0  0  0  0  # atno 17342 bound_to 10162
  139.4864  144.6270  151.7144 LP  0  0  0  0  0  0  0  0  0  0  0  0  # atno 17343 bound_to 10162
  155.9717  130.4627  150.6157 LP  0  0  0  0  0  0  0  0  0  0  0  0  # atno 17370 bound_to 10713
  157.3898  131.0794  151.1404 LP  0  0  0  0  0  0  0  0  0  0  0  0  # atno 17371 bound_to 10713
  140.5200  134.0917  155.7290 LP  0  0  0  0  0  0  0  0  0  0  0  0  # atno 17394 bound_to 11000
  141.1434  133.9098  157.2272 LP  0  0  0  0  0  0  0  0  0  0  0  0  # atno 17395 bound_to 11000

$$$$
