AV-unprocessed.smi:819|AV-procd|sdf|3835|dock6
  -GOLD-   22720 1273D 1   1.00000     0.00000
 Structure written by MMmdl.
 40 41  0  0  0  0  0  0  0  0  1 V2000
  146.1658  133.7767  154.9797 C   0  0  0  0  0  0  0  0  0  0  0  0
  145.7589  134.7398  153.8521 C   0  0  1  0  0  0  0  0  0  0  0  0
  146.8275  135.7238  153.6844 N   0  0  0  0  0  0  0  0  0  0  0  0
  146.7763  136.9985  154.1003 C   0  0  0  0  0  0  0  0  0  0  0  0
  145.8074  137.4780  154.6883 O   0  0  0  0  0  0  0  0  0  0  0  0
  147.9031  137.6568  153.7777 N   0  0  0  0  0  0  0  0  0  0  0  0
  148.2642  139.0095  154.0303 C   0  0  0  0  0  0  0  0  0  0  0  0
  147.3760  140.1120  153.9709 C   0  0  0  0  0  0  0  0  0  0  0  0
  147.8703  141.3997  154.2547 C   0  0  0  0  0  0  0  0  0  0  0  0
  149.2301  141.5404  154.5914 C   0  0  0  0  0  0  0  0  0  0  0  0
  150.0866  140.5000  154.6586 N   0  0  0  0  0  0  0  0  0  0  0  0
  149.6059  139.2687  154.3840 C   0  0  0  0  0  0  0  0  0  0  0  0
  145.5684  133.9287  152.5607 C   0  0  0  0  0  0  0  0  0  0  0  0
  146.2237  134.1942  151.5515 O   0  0  0  0  0  0  0  0  0  0  0  0
  144.6644  132.9393  152.6128 N   0  0  0  0  0  0  0  0  0  0  0  0
  144.3057  132.0667  151.4986 C   0  0  0  0  0  0  0  0  0  0  0  0
  145.5405  131.3302  150.9413 C   0  0  0  0  0  0  0  0  0  0  0  0
  145.8520  131.9913  149.5987 C   0  0  0  0  0  0  0  0  0  0  0  0
  144.4880  132.4315  149.0769 C   0  0  0  0  0  0  0  0  0  0  0  0
  143.7313  132.8863  150.3265 C   0  0  0  0  0  0  0  0  0  0  0  0
  145.4032  133.0143  155.1441 H   0  0  0  0  0  0  0  0  0  0  0  0
  146.2952  134.3126  155.9203 H   0  0  0  0  0  0  0  0  0  0  0  0
  147.1048  133.2657  154.7603 H   0  0  0  0  0  0  0  0  0  0  0  0
  144.8300  135.2459  154.1237 H   0  0  0  0  0  0  0  0  0  0  0  0
  147.6570  135.4132  153.2007 H   0  0  0  0  0  0  0  0  0  0  0  0
  148.5865  137.1238  153.2598 H   0  0  0  0  0  0  0  0  0  0  0  0
  146.3321  140.0069  153.7241 H   0  0  0  0  0  0  0  0  0  0  0  0
  147.2198  142.2610  154.2171 H   0  0  0  0  0  0  0  0  0  0  0  0
  149.6395  142.5142  154.8161 H   0  0  0  0  0  0  0  0  0  0  0  0
  150.3205  138.4610  154.4489 H   0  0  0  0  0  0  0  0  0  0  0  0
  144.1711  132.7951  153.4820 H   0  0  0  0  0  0  0  0  0  0  0  0
  143.5647  131.3371  151.8309 H   0  0  0  0  0  0  0  0  0  0  0  0
  146.4000  131.3463  151.6133 H   0  0  0  0  0  0  0  0  0  0  0  0
  145.2866  130.2824  150.7748 H   0  0  0  0  0  0  0  0  0  0  0  0
  146.4856  132.8652  149.7574 H   0  0  0  0  0  0  0  0  0  0  0  0
  146.3705  131.3226  148.9111 H   0  0  0  0  0  0  0  0  0  0  0  0
  144.5594  133.2142  148.3213 H   0  0  0  0  0  0  0  0  0  0  0  0
  143.9760  131.5796  148.6272 H   0  0  0  0  0  0  0  0  0  0  0  0
  142.6545  132.7514  150.2193 H   0  0  0  0  0  0  0  0  0  0  0  0
  143.9072  133.9525  150.4780 H   0  0  0  0  0  0  0  0  0  0  0  0
  1  2  1  0  0  0  0
  1 21  1  0  0  0  0
  1 22  1  0  0  0  0
  1 23  1  0  0  0  0
  2  3  1  0  0  0  0
  2 13  1  0  0  0  0
  2 24  1  0  0  0  0
  3  4  1  0  0  0  0
  3 25  1  0  0  0  0
  4  5  2  0  0  0  0
  4  6  1  0  0  0  0
  6  7  1  0  0  0  0
  6 26  1  0  0  0  0
  7 12  1  0  0  0  0
  7  8  2  0  0  0  0
  8  9  1  0  0  0  0
  8 27  1  0  0  0  0
  9 10  2  0  0  0  0
  9 28  1  0  0  0  0
 10 11  1  0  0  0  0
 10 29  1  0  0  0  0
 11 12  2  0  0  0  0
 12 30  1  0  0  0  0
 13 14  2  0  0  0  0
 13 15  1  0  0  0  0
 15 16  1  0  0  0  0
 15 31  1  0  0  0  0
 16 20  1  0  0  0  0
 16 17  1  0  0  0  0
 16 32  1  0  0  0  0
 17 18  1  0  0  0  0
 17 33  1  0  0  0  0
 17 34  1  0  0  0  0
 18 19  1  0  0  0  0
 18 35  1  0  0  0  0
 18 36  1  0  0  0  0
 19 20  1  0  0  0  0
 19 37  1  0  0  0  0
 19 38  1  0  0  0  0
 20 39  1  0  0  0  0
 20 40  1  0  0  0  0
M  END
> <s_m_source_file>
AV-unprocessed.smi

> <i_m_source_file_index>
819

> <i_lp_mmshare_version>
43012

> <i_f3d_flags>
0

> <s_epik_input>
W0NIMl0xW0NIMl1bQ0gyXVtDSDJdW0NIXTFbTkhdQyg9TylbQ0BIXShbQ0gzXSlbTkhdQyg9TylbTkhdYzJbY0hdW2NIXVtjSF1uW2NIXTI=

> <s_epik_cmdline>
J2VwaWtfcHl0aG9uJywgJy1waCcsICc3LjAnLCAnLXRuJywgJzgnLCAnLW1hJywgJzIwMCcsICctbWV0YWxfYmluZGluZycsICctaW1hZScsICc8aW5maWxlLm1hZT4nLCAnLW9tYWUnLCAnPG91dGZpbGUubWFlPic=

> <r_epik_Ionization_Penalty>
0.00416979

> <r_epik_Ionization_Penalty_Charging>
0

> <r_epik_Ionization_Penalty_Neutral>
0.00416979

> <r_epik_State_Penalty>
0.00297037

> <r_epik_Charging_Adjusted_Penalty>
0.00297037

> <i_epik_Tot_Q>
0

> <i_epik_Tot_abs_Q>
0

> <r_epik_Metal_State_Penalty>
-0

> <b_epik_Metal_Only>
0

> <s_lp_Force_Field>
OPLS_2005

> <r_lp_Energy>
20.1385

> <b_lp_Chiralities_Consistent>
1

> <s_lp_Variant>
AV-unprocessed.smi:819-2

> <Gold.Version>
5.8.1

> <Gold.Id.Protein>
6NUR|6NUR_protein|mol2

> <Gold.PLP.Fitness>
45.3327

> <Gold.PLP.PLP>
-34.0142

> <Gold.PLP.part.hbond>
-3.5639

> <Gold.PLP.part.metal>
0.0000

> <Gold.PLP.part.buried>
-4.9413

> <Gold.PLP.part.nonpolar>
-26.7671

> <Gold.PLP.part.repulsive>
0.3361

> <Gold.PLP.ligand.clash>
0.0000

> <Gold.PLP.ligand.torsion>
0.5168

> <Gold.PLP.Chemscore.Hbond>
3.1118

> <Gold.PLP.Chemscore.CHOScore>
1.0000

> <Gold.PLP.Chemscore.Metal>
0.0000

> <Gold.Chemscore.Hbonds>
donor molecule, donor type, donor heavy atom, donor atom, acceptor molecule, acceptor atom, score
      L1  H     3    25       P1  7948  0.74
      L1  H     6    26       P1  7948  0.98
      L1  H    15    31       P1 10957  0.50
      P1  H  7989  7998       L1    11  0.91
      L1  C    10    29       P1  8028  1.00

> <Gold.PLP.Chemscore.Internal.Correction>
0.0169

> <Gold.Rescore>
     Score         DG    S(hbond)    S(metal)    S(lipo)     H(rot)  DE(clash)    DE(int)     intcor
     18.04     -20.93       2.81        0.00      85.09       1.52       0.06       2.82       ----

> <Gold.Chemscore.Fitness>
18.0413

> <Gold.Chemscore.DG>
-20.9256

> <Gold.Chemscore.ZeroCoef>
-5.4800

> <Gold.Chemscore.Hbond>
2.8109

> <Gold.Chemscore.Metal>
0.0000

> <Gold.Chemscore.Lipo>
85.0852

> <Gold.Chemscore.Internal_Hbond>
0.0000

> <Gold.Chemscore.DEClash>
0.0605

> <Gold.Chemscore.DEInternal>
2.8237

> <Gold.Chemscore.Rot>
1.5225

> <Gold.Chemscore.Internal.Correction>
   9.000000E+99

> <Gold.Chemscore.Hbonds>
donor molecule, donor type, donor heavy atom, donor atom, acceptor molecule, acceptor atom, score
      L1  H     3    25       P1  7948  0.70
      L1  H     6    26       P1  7948  0.93
      L1  H    15    31       P1 10957  0.29
      P1  H  7989  7998       L1    11  0.43

> <Gold.Chemscore.Hbond.Weighted>
-9.3883

> <Gold.Chemscore.Metal.Weighted>
-0.0000

> <Gold.Chemscore.Lipo.Weighted>
-9.9550

> <Gold.Chemscore.Internal_Hbond.Weighted>
0.0000

> <Gold.Chemscore.DEClash.Weighted>
0.0605

> <Gold.Chemscore.DEInternal.Weighted>
2.8237

> <Gold.Chemscore.Rot.Weighted>
3.8977

> <Gold.Chemscore.Internal.Correction.Weighted>
   9.000000E+99

> <Gold.Protein.RotatedTorsions>
[ 6907 6896 6895 6894 ] final   42.81 input  -60.11 | X-H torsion
[ 7974 7965 7964 7962 ] final -158.90 input  175.53 | X-H torsion
[ 8008 7997 7996 7995 ] final   -3.47 input   59.86 | X-H torsion
[ 10167 10162 10161 10158 ] final   95.92 input  -65.29 | X-H torsion
[ 10718 10713 10712 10709 ] final   85.19 input   66.30 | X-H torsion
[ 10763 10752 10751 10750 ] final -110.11 input  -60.55 | X-H torsion
[ 11005 11000 10999 10996 ] final -162.48 input  -57.11 | X-H torsion

> <Gold.Protein.ActiveResidues>
 VAL166  LYS551  ARG553  GLY616  TRP617  ASP618  TYR619  PRO620  LYS621  CYS622 
 ASP623  PHE694  ASN695  SER759  ASP760  ASP761  ALA762  ILE779  LEU786  VAL792 
 PHE793  MET794  SER795  GLU796  ALA797  LYS798  CYS799  TRP800  GLU811  SER814 

> <Gold.Protein.RotatedAtoms>
  152.2125  134.8488  160.0495 H   0  0  0  0  0  0  0  0  0  0  0  0  # atno 6907 bound_to 6896
  151.9301  133.3604  159.3936 H   0  0  0  0  0  0  0  0  0  0  0  0  # atno 6908 bound_to 6896
  150.6980  134.4471  159.5363 H   0  0  0  0  0  0  0  0  0  0  0  0  # atno 6909 bound_to 6896
  144.7487  140.3762  143.6065 H   0  0  0  0  0  0  0  0  0  0  0  0  # atno 7974 bound_to 7965
  154.6246  140.2508  155.7508 H   0  0  0  0  0  0  0  0  0  0  0  0  # atno 8008 bound_to 7997
  156.2446  140.2919  156.0489 H   0  0  0  0  0  0  0  0  0  0  0  0  # atno 8009 bound_to 7997
  155.1842  140.0390  157.2878 H   0  0  0  0  0  0  0  0  0  0  0  0  # atno 8010 bound_to 7997
  139.7942  144.6840  150.9851 H   0  0  0  0  0  0  0  0  0  0  0  0  # atno 10167 bound_to 10162
  157.6911  131.0165  150.2786 H   0  0  0  0  0  0  0  0  0  0  0  0  # atno 10718 bound_to 10713
  154.8230  135.4576  154.0835 H   0  0  0  0  0  0  0  0  0  0  0  0  # atno 10763 bound_to 10752
  153.2173  135.6889  153.8048 H   0  0  0  0  0  0  0  0  0  0  0  0  # atno 10764 bound_to 10752
  153.7478  135.3302  155.3292 H   0  0  0  0  0  0  0  0  0  0  0  0  # atno 10765 bound_to 10752
  140.6088  134.4871  157.5213 H   0  0  0  0  0  0  0  0  0  0  0  0  # atno 11005 bound_to 11000
  145.7026  139.1665  143.2584 LP  0  0  0  0  0  0  0  0  0  0  0  0  # atno 17320 bound_to 7965
  146.1405  140.7065  142.9369 LP  0  0  0  0  0  0  0  0  0  0  0  0  # atno 17321 bound_to 7965
  140.7820  143.4348  151.0639 LP  0  0  0  0  0  0  0  0  0  0  0  0  # atno 17342 bound_to 10162
  139.8023  143.8066  152.3164 LP  0  0  0  0  0  0  0  0  0  0  0  0  # atno 17343 bound_to 10162
  156.3336  130.3804  149.7469 LP  0  0  0  0  0  0  0  0  0  0  0  0  # atno 17370 bound_to 10713
  156.5001  130.8124  151.3129 LP  0  0  0  0  0  0  0  0  0  0  0  0  # atno 17371 bound_to 10713
  139.9201  134.8166  156.1239 LP  0  0  0  0  0  0  0  0  0  0  0  0  # atno 17394 bound_to 11000
  141.0822  133.6749  156.2361 LP  0  0  0  0  0  0  0  0  0  0  0  0  # atno 17395 bound_to 11000

$$$$
