AV-unprocessed.smi:3112|AV-procd|sdf|11836|dock6
  -GOLD-   2272017213D 1   1.00000     0.00000
 Structure written by MMmdl.
 37 37  0  0  0  0  0  0  0  0  2 V2000
  145.5977  135.8809  150.9983 C   0  0  0  0  0  0  0  0  0  0  0  0
  144.8359  136.6428  152.0914 C   0  0  0  0  0  0  0  0  0  0  0  0
  145.7238  137.6066  152.8996 C   0  0  2  0  0  0  0  0  0  0  0  0
  144.8982  138.4077  153.7226 O   0  0  0  0  0  0  0  0  0  0  0  0
  146.5410  138.5360  151.9876 C   0  0  0  0  0  0  0  0  0  0  0  0
  147.9395  138.6441  152.4562 N   0  3  0  0  0  0  0  0  0  0  0  0
  148.1262  139.2441  153.7976 C   0  0  2  0  0  0  0  0  0  0  0  0
  147.6580  140.7100  153.7471 C   0  0  0  0  0  0  0  0  0  0  0  0
  149.5839  139.0580  154.3112 C   0  0  2  0  0  0  0  0  0  0  0  0
  149.9040  137.5971  154.6848 C   0  0  0  0  0  0  0  0  0  0  0  0
  149.9289  139.9852  155.3865 N   0  0  0  0  0  0  0  0  0  0  0  0
  149.3145  140.1183  156.6158 C   0  0  0  0  0  0  0  0  0  0  0  0
  149.9867  141.0822  157.3105 C   0  0  0  0  0  0  0  0  0  0  0  0
  151.0180  141.4842  156.4176 C   0  0  0  0  0  0  0  0  0  0  0  0
  150.9861  140.8220  155.2730 N   0  0  0  0  0  0  0  0  0  0  0  0
  144.9228  135.2351  150.4364 H   0  0  0  0  0  0  0  0  0  0  0  0
  146.3802  135.2505  151.4212 H   0  0  0  0  0  0  0  0  0  0  0  0
  146.0643  136.5669  150.2910 H   0  0  0  0  0  0  0  0  0  0  0  0
  144.0336  137.2085  151.6164 H   0  0  0  0  0  0  0  0  0  0  0  0
  144.3488  135.9323  152.7610 H   0  0  0  0  0  0  0  0  0  0  0  0
  146.3992  137.0298  153.5332 H   0  0  0  0  0  0  0  0  0  0  0  0
  144.5137  139.0887  153.1910 H   0  0  0  0  0  0  0  0  0  0  0  0
  146.5504  138.1413  150.9708 H   0  0  0  0  0  0  0  0  0  0  0  0
  146.0687  139.5172  151.9433 H   0  0  0  0  0  0  0  0  0  0  0  0
  148.3584  137.7247  152.4527 H   0  0  0  0  0  0  0  0  0  0  0  0
  147.4555  138.7220  154.4818 H   0  0  0  0  0  0  0  0  0  0  0  0
  147.7424  141.1958  154.7187 H   0  0  0  0  0  0  0  0  0  0  0  0
  146.6101  140.7702  153.4512 H   0  0  0  0  0  0  0  0  0  0  0  0
  148.2300  141.2962  153.0281 H   0  0  0  0  0  0  0  0  0  0  0  0
  150.2615  139.2877  153.4895 H   0  0  0  0  0  0  0  0  0  0  0  0
  149.7202  136.9301  153.8422 H   0  0  0  0  0  0  0  0  0  0  0  0
  149.3058  137.2404  155.5231 H   0  0  0  0  0  0  0  0  0  0  0  0
  150.9529  137.4886  154.9628 H   0  0  0  0  0  0  0  0  0  0  0  0
  148.4574  139.5219  156.8925 H   0  0  0  0  0  0  0  0  0  0  0  0
  149.7747  141.4442  158.3057 H   0  0  0  0  0  0  0  0  0  0  0  0
  151.7860  142.2288  156.5676 H   0  0  0  0  0  0  0  0  0  0  0  0
  148.4341  139.2194  151.7896 H   0  0  0  0  0  0  0  0  0  0  0  0
  1  2  1  0  0  0  0
  1 16  1  0  0  0  0
  1 17  1  0  0  0  0
  1 18  1  0  0  0  0
  2  3  1  0  0  0  0
  2 19  1  0  0  0  0
  2 20  1  0  0  0  0
  3  4  1  0  0  0  0
  3  5  1  0  0  0  0
  3 21  1  0  0  0  0
  4 22  1  0  0  0  0
  5  6  1  0  0  0  0
  5 23  1  0  0  0  0
  5 24  1  0  0  0  0
  6  7  1  0  0  0  0
  6 25  1  0  0  0  0
  6 37  1  0  0  0  0
  7  8  1  0  0  0  0
  7  9  1  0  0  0  0
  7 26  1  0  0  0  0
  8 27  1  0  0  0  0
  8 28  1  0  0  0  0
  8 29  1  0  0  0  0
  9 10  1  0  0  0  0
  9 11  1  0  0  0  0
  9 30  1  0  0  0  0
 10 31  1  0  0  0  0
 10 32  1  0  0  0  0
 10 33  1  0  0  0  0
 11 15  1  0  0  0  0
 11 12  1  0  0  0  0
 12 13  2  0  0  0  0
 12 34  1  0  0  0  0
 13 14  1  0  0  0  0
 13 35  1  0  0  0  0
 14 15  2  0  0  0  0
 14 36  1  0  0  0  0
M  CHG  1   6   1
M  END
> <s_m_source_file>
AV-unprocessed.smi

> <i_m_source_file_index>
3112

> <i_lp_mmshare_version>
43012

> <i_f3d_flags>
0

> <s_epik_input>
W0NIM11bQ0gyXVtDQEhdKFtPSF0pW0NIMl1bTkhdW0NASF0oW0NIM10pW0NASF0oW0NIM10pbjFbY0hdW2NIXVtjSF1uMQ==

> <s_epik_cmdline>
J2VwaWtfcHl0aG9uJywgJy1waCcsICc3LjAnLCAnLXRuJywgJzgnLCAnLW1hJywgJzIwMCcsICctbWV0YWxfYmluZGluZycsICctaW1hZScsICc8aW5maWxlLm1hZT4nLCAnLW9tYWUnLCAnPG91dGZpbGUubWFlPic=

> <r_lp_tautomer_probability>
1

> <r_epik_Ionization_Penalty>
0.0154842

> <r_epik_Ionization_Penalty_Charging>
0.0154724

> <r_epik_Ionization_Penalty_Neutral>
1.17979e-05

> <r_epik_State_Penalty>
0.0121607

> <r_epik_Charging_Adjusted_Penalty>
0.0276331

> <i_epik_Tot_Q>
1

> <i_epik_Tot_abs_Q>
1

> <r_epik_Metal_State_Penalty>
0.0121863

> <b_epik_Metal_Only>
0

> <s_lp_Force_Field>
OPLS_2005

> <r_lp_Energy>
12.3071

> <b_lp_Chiralities_Consistent>
1

> <s_lp_Variant>
AV-unprocessed.smi:3112-1

> <Gold.Version>
5.8.1

> <Gold.Id.Protein>
6NUR|6NUR_protein|mol2

> <Gold.PLP.Fitness>
40.5384

> <Gold.PLP.PLP>
-28.1375

> <Gold.PLP.part.hbond>
-3.9941

> <Gold.PLP.part.metal>
0.0000

> <Gold.PLP.part.buried>
-2.2086

> <Gold.PLP.part.nonpolar>
-22.8147

> <Gold.PLP.part.repulsive>
0.1322

> <Gold.PLP.ligand.clash>
0.0000

> <Gold.PLP.ligand.torsion>
1.0946

> <Gold.PLP.Chemscore.Hbond>
4.8000

> <Gold.PLP.Chemscore.CHOScore>
0.0000

> <Gold.PLP.Chemscore.Metal>
0.0000

> <Gold.Chemscore.Hbonds>
donor molecule, donor type, donor heavy atom, donor atom, acceptor molecule, acceptor atom, score
      L1  H     4    22       P1 10175  1.00
      L1  H     6    25       P1  7948  2.00
      L1  H     6    37       P1  7957  1.00
      P1  H  7989  7998       L1    15  0.80

> <Gold.PLP.Chemscore.Internal.Correction>
0.1899

> <Gold.Rescore>
     Score         DG    S(hbond)    S(metal)    S(lipo)     H(rot)  DE(clash)    DE(int)     intcor
     18.37     -19.52       3.78        0.00      64.75       2.41       0.07       1.08       ----

> <Gold.Chemscore.Fitness>
18.3677

> <Gold.Chemscore.DG>
-19.5234

> <Gold.Chemscore.ZeroCoef>
-5.4800

> <Gold.Chemscore.Hbond>
3.7826

> <Gold.Chemscore.Metal>
0.0000

> <Gold.Chemscore.Lipo>
64.7546

> <Gold.Chemscore.Internal_Hbond>
0.0000

> <Gold.Chemscore.DEClash>
0.0747

> <Gold.Chemscore.DEInternal>
1.0810

> <Gold.Chemscore.Rot>
2.4089

> <Gold.Chemscore.Internal.Correction>
   9.000000E+99

> <Gold.Chemscore.Hbonds>
donor molecule, donor type, donor heavy atom, donor atom, acceptor molecule, acceptor atom, score
      L1  H     4    22       P1 10175  1.00
      L1  H     6    25       P1  7948  0.99
      L1  H     6    37       P1  7957  0.91
      P1  H  7989  7998       L1    15  0.65

> <Gold.Chemscore.Hbond.Weighted>
-12.6338

> <Gold.Chemscore.Metal.Weighted>
-0.0000

> <Gold.Chemscore.Lipo.Weighted>
-7.5763

> <Gold.Chemscore.Internal_Hbond.Weighted>
0.0000

> <Gold.Chemscore.DEClash.Weighted>
0.0747

> <Gold.Chemscore.DEInternal.Weighted>
1.0810

> <Gold.Chemscore.Rot.Weighted>
6.1667

> <Gold.Chemscore.Internal.Correction.Weighted>
   9.000000E+99

> <Gold.Protein.RotatedTorsions>
[ 6907 6896 6895 6894 ] final -143.73 input  -60.11 | X-H torsion
[ 7974 7965 7964 7962 ] final -103.81 input  175.53 | X-H torsion
[ 8008 7997 7996 7995 ] final   19.62 input   59.86 | X-H torsion
[ 10167 10162 10161 10158 ] final  133.34 input  -65.29 | X-H torsion
[ 10718 10713 10712 10709 ] final  -39.91 input   66.30 | X-H torsion
[ 10763 10752 10751 10750 ] final -124.25 input  -60.55 | X-H torsion
[ 11005 11000 10999 10996 ] final   95.72 input  -57.11 | X-H torsion

> <Gold.Protein.ActiveResidues>
 VAL166  LYS551  ARG553  GLY616  TRP617  ASP618  TYR619  PRO620  LYS621  CYS622 
 ASP623  PHE694  ASN695  SER759  ASP760  ASP761  ALA762  ILE779  LEU786  VAL792 
 PHE793  MET794  SER795  GLU796  ALA797  LYS798  CYS799  TRP800  GLU811  SER814 

> <Gold.Protein.RotatedAtoms>
  151.1044  133.5219  159.2608 H   0  0  0  0  0  0  0  0  0  0  0  0  # atno 6907 bound_to 6896
  151.2037  135.0453  159.8893 H   0  0  0  0  0  0  0  0  0  0  0  0  # atno 6908 bound_to 6896
  152.5445  134.0869  159.8313 H   0  0  0  0  0  0  0  0  0  0  0  0  # atno 6909 bound_to 6896
  145.2511  140.9238  143.3094 H   0  0  0  0  0  0  0  0  0  0  0  0  # atno 7974 bound_to 7965
  154.9234  140.3030  155.5204 H   0  0  0  0  0  0  0  0  0  0  0  0  # atno 8008 bound_to 7997
  156.3008  140.2367  156.4223 H   0  0  0  0  0  0  0  0  0  0  0  0  # atno 8009 bound_to 7997
  154.8308  140.0418  157.1464 H   0  0  0  0  0  0  0  0  0  0  0  0  # atno 8010 bound_to 7997
  139.5301  144.6620  151.4982 H   0  0  0  0  0  0  0  0  0  0  0  0  # atno 10167 bound_to 10162
  156.2872  130.4224  149.8275 H   0  0  0  0  0  0  0  0  0  0  0  0  # atno 10718 bound_to 10713
  154.8720  135.4070  154.3076 H   0  0  0  0  0  0  0  0  0  0  0  0  # atno 10763 bound_to 10752
  153.3925  135.7015  153.6490 H   0  0  0  0  0  0  0  0  0  0  0  0  # atno 10764 bound_to 10752
  153.5267  135.3676  155.2628 H   0  0  0  0  0  0  0  0  0  0  0  0  # atno 10765 bound_to 10752
  139.8787  134.8914  156.4053 H   0  0  0  0  0  0  0  0  0  0  0  0  # atno 11005 bound_to 11000
  144.9502  139.4091  143.6406 LP  0  0  0  0  0  0  0  0  0  0  0  0  # atno 17320 bound_to 7965
  146.3302  139.8505  142.8874 LP  0  0  0  0  0  0  0  0  0  0  0  0  # atno 17321 bound_to 7965
  140.6473  143.8768  150.6750 LP  0  0  0  0  0  0  0  0  0  0  0  0  # atno 17342 bound_to 10162
  140.2122  143.3874  152.1709 LP  0  0  0  0  0  0  0  0  0  0  0  0  # atno 17343 bound_to 10162
  156.5701  130.8421  151.3354 LP  0  0  0  0  0  0  0  0  0  0  0  0  # atno 17370 bound_to 10713
  157.7332  130.9727  150.1966 LP  0  0  0  0  0  0  0  0  0  0  0  0  # atno 17371 bound_to 10713
  140.9238  133.7626  155.9940 LP  0  0  0  0  0  0  0  0  0  0  0  0  # atno 17394 bound_to 11000
  140.8409  134.3068  157.5314 LP  0  0  0  0  0  0  0  0  0  0  0  0  # atno 17395 bound_to 11000

$$$$
