AV-unprocessed.smi:3040|AV-procd|sdf|11595|dock2
  -GOLD-   2272016573D 1   1.00000     0.00000
 Structure written by MMmdl.
 39 40  0  0  0  0  0  0  0  0  1 V2000
  153.0162  143.8260  161.7071 C   0  0  0  0  0  0  0  0  0  0  0  0
  152.4682  144.0534  160.3689 N   0  0  0  0  0  0  0  0  0  0  0  0
  153.4718  144.1860  159.3059 C   0  0  0  0  0  0  0  0  0  0  0  0
  152.9329  144.8957  158.0568 C   0  0  0  0  0  0  0  0  0  0  0  0
  151.5926  144.2998  157.6023 C   0  0  1  0  0  0  0  0  0  0  0  0
  151.7589  142.9061  156.9730 C   0  0  0  0  0  0  0  0  0  0  0  0
  152.6472  142.1478  157.3641 O   0  0  0  0  0  0  0  0  0  0  0  0
  150.9089  142.5924  155.9816 N   0  0  0  0  0  0  0  0  0  0  0  0
  150.9729  141.3834  155.1624 C   0  0  0  0  0  0  0  0  0  0  0  0
  149.9380  141.4023  154.0196 C   0  0  0  0  0  0  0  0  0  0  0  0
  148.5314  141.6438  154.5027 C   0  0  0  0  0  0  0  0  0  0  0  0
  147.8896  141.0889  155.6467 C   0  0  0  0  0  0  0  0  0  0  0  0
  146.6303  141.4757  155.7685 N   0  0  0  0  0  0  0  0  0  0  0  0
  146.4254  142.2896  154.7131 N   0  0  0  0  0  0  0  0  0  0  0  0
  145.1249  142.8938  154.5192 C   0  0  0  0  0  0  0  0  0  0  0  0
  147.5574  142.4184  153.9382 C   0  0  0  0  0  0  0  0  0  0  0  0
  150.5611  144.3107  158.7543 C   0  0  0  0  0  0  0  0  0  0  0  0
  151.1277  144.0801  160.1694 C   0  0  0  0  0  0  0  0  0  0  0  0
  150.3238  143.9398  161.0915 O   0  0  0  0  0  0  0  0  0  0  0  0
  152.5592  142.9526  162.1752 H   0  0  0  0  0  0  0  0  0  0  0  0
  152.8317  144.6916  162.3444 H   0  0  0  0  0  0  0  0  0  0  0  0
  154.0925  143.6503  161.6858 H   0  0  0  0  0  0  0  0  0  0  0  0
  154.3387  144.7359  159.6748 H   0  0  0  0  0  0  0  0  0  0  0  0
  153.8283  143.1881  159.0493 H   0  0  0  0  0  0  0  0  0  0  0  0
  152.7949  145.9552  158.2769 H   0  0  0  0  0  0  0  0  0  0  0  0
  153.6700  144.8488  157.2544 H   0  0  0  0  0  0  0  0  0  0  0  0
  151.1992  144.9479  156.8172 H   0  0  0  0  0  0  0  0  0  0  0  0
  150.2034  143.2709  155.7337 H   0  0  0  0  0  0  0  0  0  0  0  0
  151.9753  141.2484  154.7523 H   0  0  0  0  0  0  0  0  0  0  0  0
  150.7928  140.5222  155.8061 H   0  0  0  0  0  0  0  0  0  0  0  0
  150.2277  142.1639  153.2952 H   0  0  0  0  0  0  0  0  0  0  0  0
  149.9939  140.4552  153.4818 H   0  0  0  0  0  0  0  0  0  0  0  0
  148.2964  140.4074  156.3790 H   0  0  0  0  0  0  0  0  0  0  0  0
  145.0792  143.3758  153.5422 H   0  0  0  0  0  0  0  0  0  0  0  0
  144.9475  143.6406  155.2935 H   0  0  0  0  0  0  0  0  0  0  0  0
  144.3489  142.1292  154.5721 H   0  0  0  0  0  0  0  0  0  0  0  0
  147.5719  143.0298  153.0481 H   0  0  0  0  0  0  0  0  0  0  0  0
  150.0708  145.2847  158.7703 H   0  0  0  0  0  0  0  0  0  0  0  0
  149.7649  143.5868  158.5711 H   0  0  0  0  0  0  0  0  0  0  0  0
  1  2  1  0  0  0  0
  1 20  1  0  0  0  0
  1 21  1  0  0  0  0
  1 22  1  0  0  0  0
  2 18  1  0  0  0  0
  2  3  1  0  0  0  0
  3  4  1  0  0  0  0
  3 23  1  0  0  0  0
  3 24  1  0  0  0  0
  4  5  1  0  0  0  0
  4 25  1  0  0  0  0
  4 26  1  0  0  0  0
  5  6  1  0  0  0  0
  5 17  1  0  0  0  0
  5 27  1  0  0  0  0
  6  7  2  0  0  0  0
  6  8  1  0  0  0  0
  8  9  1  0  0  0  0
  8 28  1  0  0  0  0
  9 10  1  0  0  0  0
  9 29  1  0  0  0  0
  9 30  1  0  0  0  0
 10 11  1  0  0  0  0
 10 31  1  0  0  0  0
 10 32  1  0  0  0  0
 11 16  2  0  0  0  0
 11 12  1  0  0  0  0
 12 13  2  0  0  0  0
 12 33  1  0  0  0  0
 13 14  1  0  0  0  0
 14 15  1  0  0  0  0
 14 16  1  0  0  0  0
 15 34  1  0  0  0  0
 15 35  1  0  0  0  0
 15 36  1  0  0  0  0
 16 37  1  0  0  0  0
 17 18  1  0  0  0  0
 17 38  1  0  0  0  0
 17 39  1  0  0  0  0
 18 19  2  0  0  0  0
M  END
> <s_m_source_file>
AV-unprocessed.smi

> <i_m_source_file_index>
3040

> <i_lp_mmshare_version>
43012

> <i_f3d_flags>
0

> <s_epik_input>
W0NIM11OMVtDSDJdW0NIMl1bQ0BIXShbQ0gyXUMxPU8pQyg9TylbTkhdW0NIMl1bQ0gyXWMyW2NIXW5uKFtDSDNdKVtjSF0y

> <s_epik_cmdline>
J2VwaWtfcHl0aG9uJywgJy1waCcsICc3LjAnLCAnLXRuJywgJzgnLCAnLW1hJywgJzIwMCcsICctbWV0YWxfYmluZGluZycsICctaW1hZScsICc8aW5maWxlLm1hZT4nLCAnLW9tYWUnLCAnPG91dGZpbGUubWFlPic=

> <r_lp_tautomer_probability>
1

> <r_epik_Ionization_Penalty>
0.000456436

> <r_epik_Ionization_Penalty_Charging>
0

> <r_epik_Ionization_Penalty_Neutral>
0.000456436

> <r_epik_State_Penalty>
-0

> <r_epik_Charging_Adjusted_Penalty>
0

> <i_epik_Tot_Q>
0

> <i_epik_Tot_abs_Q>
0

> <r_epik_Metal_State_Penalty>
-0

> <b_epik_Metal_Only>
0

> <s_lp_Force_Field>
OPLS_2005

> <r_lp_Energy>
8.58968

> <b_lp_Chiralities_Consistent>
1

> <s_lp_Variant>
AV-unprocessed.smi:3040-1

> <Gold.Version>
5.8.1

> <Gold.Id.Protein>
6NUR|6NUR_protein|mol2

> <Gold.PLP.Fitness>
46.4680

> <Gold.PLP.PLP>
-45.4536

> <Gold.PLP.part.hbond>
-2.0000

> <Gold.PLP.part.metal>
0.0000

> <Gold.PLP.part.buried>
-3.8426

> <Gold.PLP.part.nonpolar>
-39.7242

> <Gold.PLP.part.repulsive>
0.5865

> <Gold.PLP.ligand.clash>
0.0000

> <Gold.PLP.ligand.torsion>
1.0153

> <Gold.PLP.Chemscore.Hbond>
1.0000

> <Gold.PLP.Chemscore.CHOScore>
0.0000

> <Gold.PLP.Chemscore.Metal>
0.0000

> <Gold.Chemscore.Hbonds>
donor molecule, donor type, donor heavy atom, donor atom, acceptor molecule, acceptor atom, score
      L1  H     8    28       P1  8028  1.00

> <Gold.PLP.Chemscore.Internal.Correction>
0.0450

> <Gold.Rescore>
     Score         DG    S(hbond)    S(metal)    S(lipo)     H(rot)  DE(clash)    DE(int)     intcor
     14.19     -16.67       1.25        0.00      96.22       1.65       0.21       2.27       ----

> <Gold.Chemscore.Fitness>
14.1935

> <Gold.Chemscore.DG>
-16.6745

> <Gold.Chemscore.ZeroCoef>
-5.4800

> <Gold.Chemscore.Hbond>
1.2485

> <Gold.Chemscore.Metal>
0.0000

> <Gold.Chemscore.Lipo>
96.2203

> <Gold.Chemscore.Internal_Hbond>
0.0000

> <Gold.Chemscore.DEClash>
0.2092

> <Gold.Chemscore.DEInternal>
2.2719

> <Gold.Chemscore.Rot>
1.6536

> <Gold.Chemscore.Internal.Correction>
   9.000000E+99

> <Gold.Chemscore.Hbonds>
donor molecule, donor type, donor heavy atom, donor atom, acceptor molecule, acceptor atom, score
      L1  H     8    28       P1  8028  0.99
      P1  H  6933  6944       L1    19  0.01

> <Gold.Chemscore.Hbond.Weighted>
-4.1699

> <Gold.Chemscore.Metal.Weighted>
-0.0000

> <Gold.Chemscore.Lipo.Weighted>
-11.2578

> <Gold.Chemscore.Internal_Hbond.Weighted>
0.0000

> <Gold.Chemscore.DEClash.Weighted>
0.2092

> <Gold.Chemscore.DEInternal.Weighted>
2.2719

> <Gold.Chemscore.Rot.Weighted>
4.2332

> <Gold.Chemscore.Internal.Correction.Weighted>
   9.000000E+99

> <Gold.Protein.RotatedTorsions>
[ 6907 6896 6895 6894 ] final -139.58 input  -60.11 | X-H torsion
[ 7974 7965 7964 7962 ] final   12.21 input  175.53 | X-H torsion
[ 8008 7997 7996 7995 ] final -125.22 input   59.86 | X-H torsion
[ 10167 10162 10161 10158 ] final -111.98 input  -65.29 | X-H torsion
[ 10718 10713 10712 10709 ] final   -3.99 input   66.30 | X-H torsion
[ 10763 10752 10751 10750 ] final  121.45 input  -60.55 | X-H torsion
[ 11005 11000 10999 10996 ] final -144.38 input  -57.11 | X-H torsion

> <Gold.Protein.ActiveResidues>
 VAL166  LYS551  ARG553  GLY616  TRP617  ASP618  TYR619  PRO620  LYS621  CYS622 
 ASP623  PHE694  ASN695  SER759  ASP760  ASP761  ALA762  ILE779  LEU786  VAL792 
 PHE793  MET794  SER795  GLU796  ALA797  LYS798  CYS799  TRP800  GLU811  SER814 

> <Gold.Protein.RotatedAtoms>
  151.0496  133.5635  159.2643 H   0  0  0  0  0  0  0  0  0  0  0  0  # atno 6907 bound_to 6896
  151.2651  135.0666  159.9123 H   0  0  0  0  0  0  0  0  0  0  0  0  # atno 6908 bound_to 6896
  152.5379  134.0235  159.8046 H   0  0  0  0  0  0  0  0  0  0  0  0  # atno 6909 bound_to 6896
  146.2356  139.9370  142.8488 H   0  0  0  0  0  0  0  0  0  0  0  0  # atno 7974 bound_to 7965
  155.2096  140.0418  157.2931 H   0  0  0  0  0  0  0  0  0  0  0  0  # atno 8008 bound_to 7997
  154.6020  140.2454  155.7751 H   0  0  0  0  0  0  0  0  0  0  0  0  # atno 8009 bound_to 7997
  156.2327  140.2932  156.0239 H   0  0  0  0  0  0  0  0  0  0  0  0  # atno 8010 bound_to 7997
  140.1277  143.4388  152.1648 H   0  0  0  0  0  0  0  0  0  0  0  0  # atno 10167 bound_to 10162
  156.7679  130.5290  149.5773 H   0  0  0  0  0  0  0  0  0  0  0  0  # atno 10718 bound_to 10713
  153.6143  135.3425  155.2989 H   0  0  0  0  0  0  0  0  0  0  0  0  # atno 10763 bound_to 10752
  154.8612  135.4257  154.2276 H   0  0  0  0  0  0  0  0  0  0  0  0  # atno 10764 bound_to 10752
  153.3134  135.7033  153.7167 H   0  0  0  0  0  0  0  0  0  0  0  0  # atno 10765 bound_to 10752
  140.8030  134.2834  157.4971 H   0  0  0  0  0  0  0  0  0  0  0  0  # atno 11005 bound_to 11000
  145.1989  140.9845  143.4167 LP  0  0  0  0  0  0  0  0  0  0  0  0  # atno 17320 bound_to 7965
  144.9791  139.3802  143.6271 LP  0  0  0  0  0  0  0  0  0  0  0  0  # atno 17321 bound_to 7965
  139.5535  144.7356  151.4362 LP  0  0  0  0  0  0  0  0  0  0  0  0  # atno 17342 bound_to 10162
  140.6835  143.8027  150.7154 LP  0  0  0  0  0  0  0  0  0  0  0  0  # atno 17343 bound_to 10162
  156.1297  130.6169  151.0315 LP  0  0  0  0  0  0  0  0  0  0  0  0  # atno 17370 bound_to 10713
  157.6704  131.0862  150.7625 LP  0  0  0  0  0  0  0  0  0  0  0  0  # atno 17371 bound_to 10713
  139.8720  134.9440  156.3869 LP  0  0  0  0  0  0  0  0  0  0  0  0  # atno 17394 bound_to 11000
  140.9275  133.7602  155.9983 LP  0  0  0  0  0  0  0  0  0  0  0  0  # atno 17395 bound_to 11000

$$$$
