AV-unprocessed.smi:2312|AV-procd|sdf|9263|dock3
  -GOLD-   2272012483D 1   1.00000     0.00000
 Structure written by MMmdl.
 34 35  0  0  0  0  0  0  0  0  1 V2000
  152.3629  141.0597  159.4982 C   0  0  0  0  0  0  0  0  0  0  0  0
  152.4426  142.1072  158.5401 O   0  0  0  0  0  0  0  0  0  0  0  0
  151.6671  143.2727  158.8219 C   0  0  0  0  0  0  0  0  0  0  0  0
  150.1615  142.9739  158.8132 C   0  0  0  0  0  0  0  0  0  0  0  0
  149.6720  142.8400  157.4478 N   0  0  0  0  0  0  0  0  0  0  0  0
  149.2209  141.6990  156.9125 C   0  0  0  0  0  0  0  0  0  0  0  0
  149.1879  140.6299  157.5224 O   0  0  0  0  0  0  0  0  0  0  0  0
  148.8115  141.8843  155.6462 N   0  0  0  0  0  0  0  0  0  0  0  0
  148.2813  140.9161  154.7521 C   0  0  0  0  0  0  0  0  0  0  0  0
  148.7855  139.7089  154.5158 N   0  0  0  0  0  0  0  0  0  0  0  0
  147.8815  139.2606  153.5952 C   0  0  0  0  0  0  0  0  0  0  0  0
  146.8997  140.1059  153.2802 N   0  0  0  0  0  0  0  0  0  0  0  0
  147.1772  141.1849  154.0489 N   0  0  0  0  0  0  0  0  0  0  0  0
  146.3333  142.3636  154.0107 C   0  0  0  0  0  0  0  0  0  0  0  0
  152.2552  143.9431  160.0779 C   0  0  0  0  0  0  0  0  0  0  0  0
  152.1791  145.2864  159.3498 C   0  0  0  0  0  0  0  0  0  0  0  0
  152.1867  144.4961  158.0405 C   0  0  0  0  0  0  0  0  0  0  0  0
  152.9127  140.1949  159.1277 H   0  0  0  0  0  0  0  0  0  0  0  0
  151.3342  140.7459  159.6761 H   0  0  0  0  0  0  0  0  0  0  0  0
  152.8122  141.3453  160.4490 H   0  0  0  0  0  0  0  0  0  0  0  0
  149.9585  142.0484  159.3542 H   0  0  0  0  0  0  0  0  0  0  0  0
  149.5991  143.7527  159.3290 H   0  0  0  0  0  0  0  0  0  0  0  0
  149.6647  143.6765  156.8828 H   0  0  0  0  0  0  0  0  0  0  0  0
  148.8819  142.8226  155.2814 H   0  0  0  0  0  0  0  0  0  0  0  0
  147.9497  138.2825  153.1421 H   0  0  0  0  0  0  0  0  0  0  0  0
  146.8480  143.1648  153.4798 H   0  0  0  0  0  0  0  0  0  0  0  0
  146.1123  142.6923  155.0264 H   0  0  0  0  0  0  0  0  0  0  0  0
  145.3943  142.1447  153.5010 H   0  0  0  0  0  0  0  0  0  0  0  0
  151.6312  143.8785  160.9698 H   0  0  0  0  0  0  0  0  0  0  0  0
  153.2827  143.6399  160.2880 H   0  0  0  0  0  0  0  0  0  0  0  0
  151.2386  145.8117  159.5235 H   0  0  0  0  0  0  0  0  0  0  0  0
  153.0420  145.9365  159.4969 H   0  0  0  0  0  0  0  0  0  0  0  0
  153.1949  144.3616  157.6445 H   0  0  0  0  0  0  0  0  0  0  0  0
  151.5050  144.8766  157.2793 H   0  0  0  0  0  0  0  0  0  0  0  0
  1  2  1  0  0  0  0
  1 18  1  0  0  0  0
  1 19  1  0  0  0  0
  1 20  1  0  0  0  0
  2  3  1  0  0  0  0
  3 17  1  0  0  0  0
  3  4  1  0  0  0  0
  3 15  1  0  0  0  0
  4  5  1  0  0  0  0
  4 21  1  0  0  0  0
  4 22  1  0  0  0  0
  5  6  1  0  0  0  0
  5 23  1  0  0  0  0
  6  7  2  0  0  0  0
  6  8  1  0  0  0  0
  8  9  1  0  0  0  0
  8 24  1  0  0  0  0
  9 13  1  0  0  0  0
  9 10  2  0  0  0  0
 10 11  1  0  0  0  0
 11 12  2  0  0  0  0
 11 25  1  0  0  0  0
 12 13  1  0  0  0  0
 13 14  1  0  0  0  0
 14 26  1  0  0  0  0
 14 27  1  0  0  0  0
 14 28  1  0  0  0  0
 15 16  1  0  0  0  0
 15 29  1  0  0  0  0
 15 30  1  0  0  0  0
 16 17  1  0  0  0  0
 16 31  1  0  0  0  0
 16 32  1  0  0  0  0
 17 33  1  0  0  0  0
 17 34  1  0  0  0  0
M  END
> <s_m_source_file>
AV-unprocessed.smi

> <i_m_source_file_index>
2312

> <i_lp_mmshare_version>
43012

> <i_f3d_flags>
0

> <s_epik_input>
W0NIMl0xW0NIMl1bQ0gyXUMxKE9bQ0gzXSlbQ0gyXVtOSF1DKD1PKVtOSF1jMm5bY0hdbm4yW0NIM10=

> <s_epik_cmdline>
J2VwaWtfcHl0aG9uJywgJy1waCcsICc3LjAnLCAnLXRuJywgJzgnLCAnLW1hJywgJzIwMCcsICctbWV0YWxfYmluZGluZycsICctaW1hZScsICc8aW5maWxlLm1hZT4nLCAnLW9tYWUnLCAnPG91dGZpbGUubWFlPic=

> <r_lp_tautomer_probability>
1

> <r_epik_Ionization_Penalty>
2.1066e-05

> <r_epik_Ionization_Penalty_Charging>
0

> <r_epik_Ionization_Penalty_Neutral>
2.1066e-05

> <r_epik_State_Penalty>
-0

> <r_epik_Charging_Adjusted_Penalty>
0

> <i_epik_Tot_Q>
0

> <i_epik_Tot_abs_Q>
0

> <r_epik_Metal_State_Penalty>
-0

> <b_epik_Metal_Only>
0

> <s_lp_Force_Field>
OPLS_2005

> <r_lp_Energy>
16.1455

> <b_lp_Chiralities_Consistent>
1

> <s_lp_Variant>
AV-unprocessed.smi:2312-1

> <Gold.Version>
5.8.1

> <Gold.Id.Protein>
6NUR|6NUR_protein|mol2

> <Gold.PLP.Fitness>
40.8731

> <Gold.PLP.PLP>
-33.6132

> <Gold.PLP.part.hbond>
-2.0000

> <Gold.PLP.part.metal>
0.0000

> <Gold.PLP.part.buried>
-4.9206

> <Gold.PLP.part.nonpolar>
-27.6315

> <Gold.PLP.part.repulsive>
0.4917

> <Gold.PLP.ligand.clash>
0.0000

> <Gold.PLP.ligand.torsion>
0.7144

> <Gold.PLP.Chemscore.Hbond>
1.8080

> <Gold.PLP.Chemscore.CHOScore>
1.0000

> <Gold.PLP.Chemscore.Metal>
0.0000

> <Gold.Chemscore.Hbonds>
donor molecule, donor type, donor heavy atom, donor atom, acceptor molecule, acceptor atom, score
      L1  H     5    23       P1  8028  1.00
      L1  H     8    24       P1  8028  0.96
      L1  C    11    25       P1  7948  0.82

> <Gold.PLP.Chemscore.Internal.Correction>
0.2647

> <Gold.Rescore>
     Score         DG    S(hbond)    S(metal)    S(lipo)     H(rot)  DE(clash)    DE(int)     intcor
     15.02     -15.76       1.86        0.00      72.18       1.71       0.09       0.66       ----

> <Gold.Chemscore.Fitness>
15.0201

> <Gold.Chemscore.DG>
-15.7622

> <Gold.Chemscore.ZeroCoef>
-5.4800

> <Gold.Chemscore.Hbond>
1.8574

> <Gold.Chemscore.Metal>
0.0000

> <Gold.Chemscore.Lipo>
72.1845

> <Gold.Chemscore.Internal_Hbond>
0.0000

> <Gold.Chemscore.DEClash>
0.0854

> <Gold.Chemscore.DEInternal>
0.6567

> <Gold.Chemscore.Rot>
1.7059

> <Gold.Chemscore.Internal.Correction>
   9.000000E+99

> <Gold.Chemscore.Hbonds>
donor molecule, donor type, donor heavy atom, donor atom, acceptor molecule, acceptor atom, score
      L1  H     5    23       P1  8028  0.92
      L1  H     8    24       P1  8028  0.92

> <Gold.Chemscore.Hbond.Weighted>
-6.2036

> <Gold.Chemscore.Metal.Weighted>
-0.0000

> <Gold.Chemscore.Lipo.Weighted>
-8.4456

> <Gold.Chemscore.Internal_Hbond.Weighted>
0.0000

> <Gold.Chemscore.DEClash.Weighted>
0.0854

> <Gold.Chemscore.DEInternal.Weighted>
0.6567

> <Gold.Chemscore.Rot.Weighted>
4.3670

> <Gold.Chemscore.Internal.Correction.Weighted>
   9.000000E+99

> <Gold.Protein.RotatedTorsions>
[ 6907 6896 6895 6894 ] final -113.49 input  -60.11 | X-H torsion
[ 7974 7965 7964 7962 ] final   31.69 input  175.53 | X-H torsion
[ 8008 7997 7996 7995 ] final -156.18 input   59.86 | X-H torsion
[ 10167 10162 10161 10158 ] final -170.31 input  -65.29 | X-H torsion
[ 10718 10713 10712 10709 ] final  117.87 input   66.30 | X-H torsion
[ 10763 10752 10751 10750 ] final   81.20 input  -60.55 | X-H torsion
[ 11005 11000 10999 10996 ] final  161.99 input  -57.11 | X-H torsion

> <Gold.Protein.ActiveResidues>
 VAL166  LYS551  ARG553  GLY616  TRP617  ASP618  TYR619  PRO620  LYS621  CYS622 
 ASP623  PHE694  ASN695  SER759  ASP760  ASP761  ALA762  ILE779  LEU786  VAL792 
 PHE793  MET794  SER795  GLU796  ALA797  LYS798  CYS799  TRP800  GLU811  SER814 

> <Gold.Protein.RotatedAtoms>
  150.7833  133.8937  159.3320 H   0  0  0  0  0  0  0  0  0  0  0  0  # atno 6907 bound_to 6896
  151.6794  135.0962  160.0222 H   0  0  0  0  0  0  0  0  0  0  0  0  # atno 6908 bound_to 6896
  152.3891  133.6614  159.6258 H   0  0  0  0  0  0  0  0  0  0  0  0  # atno 6909 bound_to 6896
  146.1534  139.6624  142.9083 H   0  0  0  0  0  0  0  0  0  0  0  0  # atno 7974 bound_to 7965
  155.7133  140.0781  157.2362 H   0  0  0  0  0  0  0  0  0  0  0  0  # atno 8008 bound_to 7997
  154.4055  140.1626  156.2374 H   0  0  0  0  0  0  0  0  0  0  0  0  # atno 8009 bound_to 7997
  155.9263  140.3394  155.6216 H   0  0  0  0  0  0  0  0  0  0  0  0  # atno 8010 bound_to 7997
  139.5869  144.1298  152.1587 H   0  0  0  0  0  0  0  0  0  0  0  0  # atno 10167 bound_to 10162
  157.6068  131.1042  150.7675 H   0  0  0  0  0  0  0  0  0  0  0  0  # atno 10718 bound_to 10713
  153.1097  135.4774  154.9013 H   0  0  0  0  0  0  0  0  0  0  0  0  # atno 10763 bound_to 10752
  154.7467  135.3096  154.8633 H   0  0  0  0  0  0  0  0  0  0  0  0  # atno 10764 bound_to 10752
  153.9226  135.6853  153.4801 H   0  0  0  0  0  0  0  0  0  0  0  0  # atno 10765 bound_to 10752
  140.2213  134.8194  157.3223 H   0  0  0  0  0  0  0  0  0  0  0  0  # atno 11005 bound_to 11000
  145.4767  141.0437  143.2668 LP  0  0  0  0  0  0  0  0  0  0  0  0  # atno 17320 bound_to 7965
  144.7933  139.6285  143.7104 LP  0  0  0  0  0  0  0  0  0  0  0  0  # atno 17321 bound_to 7965
  140.0863  144.5658  150.7086 LP  0  0  0  0  0  0  0  0  0  0  0  0  # atno 17342 bound_to 10162
  140.7139  143.2528  151.4494 LP  0  0  0  0  0  0  0  0  0  0  0  0  # atno 17343 bound_to 10162
  156.8062  130.4937  149.5362 LP  0  0  0  0  0  0  0  0  0  0  0  0  # atno 17370 bound_to 10713
  156.1157  130.6073  151.0117 LP  0  0  0  0  0  0  0  0  0  0  0  0  # atno 17371 bound_to 10713
  140.1847  134.4446  155.7751 LP  0  0  0  0  0  0  0  0  0  0  0  0  # atno 17394 bound_to 11000
  141.2223  133.6999  156.7927 LP  0  0  0  0  0  0  0  0  0  0  0  0  # atno 17395 bound_to 11000

$$$$
