AV-unprocessed.smi:2597|AV-procd|sdf|10177|dock2
  -GOLD-   2272014193D 1   1.00000     0.00000
 Structure written by MMmdl.
 30 31  0  0  0  0  0  0  0  0  1 V2000
  147.4042  132.6282  152.0469 N   0  0  0  0  0  0  0  0  0  0  0  0
  146.1905  132.2847  151.3266 C   0  0  2  0  0  0  0  0  0  0  0  0
  146.4159  132.4216  149.8071 C   0  0  0  0  0  0  0  0  0  0  0  0
  145.1373  132.0792  149.0259 C   0  0  0  0  0  0  0  0  0  0  0  0
  143.9392  132.9193  149.4961 C   0  0  0  0  0  0  0  0  0  0  0  0
  143.7096  132.7711  151.0117 C   0  0  0  0  0  0  0  0  0  0  0  0
  144.9666  133.0847  151.8543 C   0  0  2  0  0  0  0  0  0  0  0  0
  145.1816  134.5263  152.0042 N   0  0  0  0  0  0  0  0  0  0  0  0
  145.5943  135.4136  151.0299 C   0  0  0  0  0  0  0  0  0  0  0  0
  145.6601  136.6104  151.6840 C   0  0  0  0  0  0  0  0  0  0  0  0
  146.0417  137.9594  151.1575 C   0  0  0  0  0  0  0  0  0  0  0  0
  147.3947  138.1611  151.5047 O   0  0  0  0  0  0  0  0  0  0  0  0
  145.3022  136.4095  153.0150 N   0  0  0  0  0  0  0  0  0  0  0  0
  145.0234  135.1573  153.1952 N   0  0  0  0  0  0  0  0  0  0  0  0
  146.0011  131.2301  151.5305 H   0  0  0  0  0  0  0  0  0  0  0  0
  144.7651  132.7156  152.8611 H   0  0  0  0  0  0  0  0  0  0  0  0
  147.3068  132.3797  153.0210 H   0  0  0  0  0  0  0  0  0  0  0  0
  148.1799  132.0915  151.6860 H   0  0  0  0  0  0  0  0  0  0  0  0
  146.7476  133.4265  149.5480 H   0  0  0  0  0  0  0  0  0  0  0  0
  147.2186  131.7539  149.4917 H   0  0  0  0  0  0  0  0  0  0  0  0
  145.3023  132.2323  147.9590 H   0  0  0  0  0  0  0  0  0  0  0  0
  144.9084  131.0202  149.1530 H   0  0  0  0  0  0  0  0  0  0  0  0
  144.0961  133.9657  149.2361 H   0  0  0  0  0  0  0  0  0  0  0  0
  143.0422  132.6097  148.9591 H   0  0  0  0  0  0  0  0  0  0  0  0
  142.8772  133.4014  151.3270 H   0  0  0  0  0  0  0  0  0  0  0  0
  143.4006  131.7449  151.2146 H   0  0  0  0  0  0  0  0  0  0  0  0
  145.7914  135.1317  150.0065 H   0  0  0  0  0  0  0  0  0  0  0  0
  145.9271  138.0176  150.0744 H   0  0  0  0  0  0  0  0  0  0  0  0
  145.4292  138.7453  151.6005 H   0  0  0  0  0  0  0  0  0  0  0  0
  147.7205  137.3730  151.9111 H   0  0  0  0  0  0  0  0  0  0  0  0
  1  2  1  0  0  0  0
  1 17  1  0  0  0  0
  1 18  1  0  0  0  0
  2 15  1  0  0  0  0
  2  7  1  0  0  0  0
  2  3  1  0  0  0  0
  3  4  1  0  0  0  0
  3 19  1  0  0  0  0
  3 20  1  0  0  0  0
  4  5  1  0  0  0  0
  4 21  1  0  0  0  0
  4 22  1  0  0  0  0
  5  6  1  0  0  0  0
  5 23  1  0  0  0  0
  5 24  1  0  0  0  0
  6  7  1  0  0  0  0
  6 25  1  0  0  0  0
  6 26  1  0  0  0  0
  7 16  1  0  0  0  0
  7  8  1  0  0  0  0
  8 14  1  0  0  0  0
  8  9  1  0  0  0  0
  9 10  2  0  0  0  0
  9 27  1  0  0  0  0
 10 11  1  0  0  0  0
 10 13  1  0  0  0  0
 11 12  1  0  0  0  0
 11 28  1  0  0  0  0
 11 29  1  0  0  0  0
 12 30  1  0  0  0  0
 13 14  2  0  0  0  0
M  END
> <s_m_source_file>
AV-unprocessed.smi

> <i_m_source_file_index>
2597

> <i_lp_mmshare_version>
43012

> <i_f3d_flags>
0

> <s_epik_input>
W05IMl1bQ0BIXTFbQ0gyXVtDSDJdW0NIMl1bQ0gyXVtDQEhdMW4yW2NIXWMobm4yKVtDSDJdW09IXQ==

> <s_epik_cmdline>
J2VwaWtfcHl0aG9uJywgJy1waCcsICc3LjAnLCAnLXRuJywgJzgnLCAnLW1hJywgJzIwMCcsICctbWV0YWxfYmluZGluZycsICctaW1hZScsICc8aW5maWxlLm1hZT4nLCAnLW9tYWUnLCAnPG91dGZpbGUubWFlPic=

> <r_lp_tautomer_probability>
1

> <r_epik_Ionization_Penalty>
2.21303

> <r_epik_Ionization_Penalty_Charging>
0

> <r_epik_Ionization_Penalty_Neutral>
2.21303

> <r_epik_State_Penalty>
2.3573

> <r_epik_Charging_Adjusted_Penalty>
2.3573

> <i_epik_Tot_Q>
0

> <i_epik_Tot_abs_Q>
0

> <r_epik_Metal_State_Penalty>
2.35724

> <b_epik_Metal_Only>
0

> <s_lp_Force_Field>
OPLS_2005

> <r_lp_Energy>
16.7408

> <b_lp_Chiralities_Consistent>
1

> <s_lp_Variant>
AV-unprocessed.smi:2597-8

> <Gold.Version>
5.8.1

> <Gold.Id.Protein>
6NUR|6NUR_protein|mol2

> <Gold.PLP.Fitness>
36.9318

> <Gold.PLP.PLP>
-26.7514

> <Gold.PLP.part.hbond>
-3.7925

> <Gold.PLP.part.metal>
0.0000

> <Gold.PLP.part.buried>
2.4073

> <Gold.PLP.part.nonpolar>
-25.5756

> <Gold.PLP.part.repulsive>
0.2010

> <Gold.PLP.ligand.clash>
0.0000

> <Gold.PLP.ligand.torsion>
0.4124

> <Gold.PLP.Chemscore.Hbond>
2.6480

> <Gold.PLP.Chemscore.CHOScore>
1.0000

> <Gold.PLP.Chemscore.Metal>
0.0000

> <Gold.Chemscore.Hbonds>
donor molecule, donor type, donor heavy atom, donor atom, acceptor molecule, acceptor atom, score
      L1  H     1    18       P1 10747  1.00
      L1  H    12    30       P1  7948  0.85
      P1  H  7954  7966       L1    12  0.80
      L1  C     9    27       P1  7921  1.00

> <Gold.PLP.Chemscore.Internal.Correction>
0.0612

> <Gold.Rescore>
     Score         DG    S(hbond)    S(metal)    S(lipo)     H(rot)  DE(clash)    DE(int)     intcor
     14.84     -17.34       1.96        0.00      85.18       1.82       2.01       0.49       ----

> <Gold.Chemscore.Fitness>
14.8412

> <Gold.Chemscore.DG>
-17.3391

> <Gold.Chemscore.ZeroCoef>
-5.4800

> <Gold.Chemscore.Hbond>
1.9637

> <Gold.Chemscore.Metal>
0.0000

> <Gold.Chemscore.Lipo>
85.1750

> <Gold.Chemscore.Internal_Hbond>
0.0000

> <Gold.Chemscore.DEClash>
2.0092

> <Gold.Chemscore.DEInternal>
0.4887

> <Gold.Chemscore.Rot>
1.8222

> <Gold.Chemscore.Internal.Correction>
   9.000000E+99

> <Gold.Chemscore.Hbonds>
donor molecule, donor type, donor heavy atom, donor atom, acceptor molecule, acceptor atom, score
      L1  H     1    18       P1 10747  0.89
      L1  H    12    30       P1  7948  0.83
      P1  H  7954  7966       L1    12  0.03

> <Gold.Chemscore.Hbond.Weighted>
-6.5586

> <Gold.Chemscore.Metal.Weighted>
-0.0000

> <Gold.Chemscore.Lipo.Weighted>
-9.9655

> <Gold.Chemscore.Internal_Hbond.Weighted>
0.0000

> <Gold.Chemscore.DEClash.Weighted>
2.0092

> <Gold.Chemscore.DEInternal.Weighted>
0.4887

> <Gold.Chemscore.Rot.Weighted>
4.6649

> <Gold.Chemscore.Internal.Correction.Weighted>
   9.000000E+99

> <Gold.Protein.RotatedTorsions>
[ 6907 6896 6895 6894 ] final  -51.51 input  -60.11 | X-H torsion
[ 7974 7965 7964 7962 ] final -173.55 input  175.53 | X-H torsion
[ 8008 7997 7996 7995 ] final  -24.86 input   59.86 | X-H torsion
[ 10167 10162 10161 10158 ] final  116.58 input  -65.29 | X-H torsion
[ 10718 10713 10712 10709 ] final -125.30 input   66.30 | X-H torsion
[ 10763 10752 10751 10750 ] final  148.24 input  -60.55 | X-H torsion
[ 11005 11000 10999 10996 ] final  -28.84 input  -57.11 | X-H torsion

> <Gold.Protein.ActiveResidues>
 VAL166  LYS551  ARG553  GLY616  TRP617  ASP618  TYR619  PRO620  LYS621  CYS622 
 ASP623  PHE694  ASN695  SER759  ASP760  ASP761  ALA762  ILE779  LEU786  VAL792 
 PHE793  MET794  SER795  GLU796  ALA797  LYS798  CYS799  TRP800  GLU811  SER814 

> <Gold.Protein.RotatedAtoms>
  150.8604  134.7954  159.7078 H   0  0  0  0  0  0  0  0  0  0  0  0  # atno 6907 bound_to 6896
  152.4643  134.5109  159.9763 H   0  0  0  0  0  0  0  0  0  0  0  0  # atno 6908 bound_to 6896
  151.5214  133.3427  159.2937 H   0  0  0  0  0  0  0  0  0  0  0  0  # atno 6909 bound_to 6896
  144.7137  140.1604  143.6376 H   0  0  0  0  0  0  0  0  0  0  0  0  # atno 7974 bound_to 7965
  154.4506  140.1942  156.0530 H   0  0  0  0  0  0  0  0  0  0  0  0  # atno 8008 bound_to 7997
  156.0640  140.3293  155.7468 H   0  0  0  0  0  0  0  0  0  0  0  0  # atno 8009 bound_to 7997
  155.5367  140.0583  157.2869 H   0  0  0  0  0  0  0  0  0  0  0  0  # atno 8010 bound_to 7997
  139.6237  144.7105  151.2578 H   0  0  0  0  0  0  0  0  0  0  0  0  # atno 10167 bound_to 10162
  156.1663  130.6637  151.0119 H   0  0  0  0  0  0  0  0  0  0  0  0  # atno 10718 bound_to 10713
  154.0515  135.2881  155.3339 H   0  0  0  0  0  0  0  0  0  0  0  0  # atno 10763 bound_to 10752
  154.6866  135.5243  153.8338 H   0  0  0  0  0  0  0  0  0  0  0  0  # atno 10764 bound_to 10752
  153.0559  135.6595  154.0711 H   0  0  0  0  0  0  0  0  0  0  0  0  # atno 10765 bound_to 10752
  140.9244  133.7378  156.0846 H   0  0  0  0  0  0  0  0  0  0  0  0  # atno 11005 bound_to 11000
  145.9035  139.2444  143.1479 LP  0  0  0  0  0  0  0  0  0  0  0  0  # atno 17320 bound_to 7965
  145.9787  140.8701  143.0125 LP  0  0  0  0  0  0  0  0  0  0  0  0  # atno 17321 bound_to 7965
  140.7398  143.6607  150.8167 LP  0  0  0  0  0  0  0  0  0  0  0  0  # atno 17342 bound_to 10162
  140.0222  143.5531  152.2796 LP  0  0  0  0  0  0  0  0  0  0  0  0  # atno 17343 bound_to 10162
  157.6770  131.0848  150.7468 LP  0  0  0  0  0  0  0  0  0  0  0  0  # atno 17370 bound_to 10713
  156.7529  130.4774  149.5453 LP  0  0  0  0  0  0  0  0  0  0  0  0  # atno 17371 bound_to 10713
  140.7946  134.3579  157.5456 LP  0  0  0  0  0  0  0  0  0  0  0  0  # atno 17394 bound_to 11000
  139.8782  134.9161  156.3146 LP  0  0  0  0  0  0  0  0  0  0  0  0  # atno 17395 bound_to 11000

$$$$
