AV-unprocessed.smi:1240|AV-procd|sdf|5196|dock6
  -GOLD-   22720 4283D 1   1.00000     0.00000
 Structure written by MMmdl.
 47 49  0  0  0  0  0  0  0  0  1 V2000
  144.4958  136.7617  152.2050 O   0  0  0  0  0  0  0  0  0  0  0  0
  145.7079  136.5699  152.1114 C   0  0  0  0  0  0  0  0  0  0  0  0
  146.6304  137.4750  152.4678 N   0  0  0  0  0  0  0  0  0  0  0  0
  146.3557  138.8031  153.0101 C   0  0  0  0  0  0  0  0  0  0  0  0
  146.6563  138.8727  154.5313 C   0  0  1  0  0  0  0  0  0  0  0  0
  146.0791  137.6475  155.3081 C   0  0  2  0  0  0  0  0  0  0  0  0
  144.6021  137.3154  155.0739 C   0  0  0  0  0  0  0  0  0  0  0  0
  144.0242  137.1931  156.4830 C   0  0  0  0  0  0  0  0  0  0  0  0
  145.1409  136.8443  157.2838 O   0  0  0  0  0  0  0  0  0  0  0  0
  146.2314  137.6349  156.8389 C   0  0  0  0  0  0  0  0  0  0  0  0
  148.0459  139.2407  154.8745 N   0  0  0  0  0  0  0  0  0  0  0  0
  148.3879  140.6143  154.5102 C   0  0  0  0  0  0  0  0  0  0  0  0
  149.7862  141.0073  155.0138 C   0  0  0  0  0  0  0  0  0  0  0  0
  150.7466  140.0949  154.4928 O   0  0  0  0  0  0  0  0  0  0  0  0
  150.4827  138.7482  154.8713 C   0  0  0  0  0  0  0  0  0  0  0  0
  149.0815  138.3289  154.3922 C   0  0  0  0  0  0  0  0  0  0  0  0
  146.2871  135.4571  151.6278 N   0  0  0  0  0  0  0  0  0  0  0  0
  145.6769  134.2650  151.1498 C   0  0  0  0  0  0  0  0  0  0  0  0
  146.4967  133.1272  151.0000 C   0  0  0  0  0  0  0  0  0  0  0  0
  145.9175  131.9267  150.5429 C   0  0  0  0  0  0  0  0  0  0  0  0
  144.6074  131.8019  150.2449 N   0  0  0  0  0  0  0  0  0  0  0  0
  143.8212  132.8879  150.4002 C   0  0  0  0  0  0  0  0  0  0  0  0
  144.2989  134.1350  150.8506 C   0  0  0  0  0  0  0  0  0  0  0  0
  147.6026  137.2296  152.3506 H   0  0  0  0  0  0  0  0  0  0  0  0
  146.9200  139.5707  152.4792 H   0  0  0  0  0  0  0  0  0  0  0  0
  145.3050  139.0053  152.8080 H   0  0  0  0  0  0  0  0  0  0  0  0
  146.0514  139.7036  154.8979 H   0  0  0  0  0  0  0  0  0  0  0  0
  146.6317  136.7738  154.9588 H   0  0  0  0  0  0  0  0  0  0  0  0
  144.0553  138.0504  154.4843 H   0  0  0  0  0  0  0  0  0  0  0  0
  144.5185  136.3615  154.5516 H   0  0  0  0  0  0  0  0  0  0  0  0
  143.6218  138.1492  156.8208 H   0  0  0  0  0  0  0  0  0  0  0  0
  143.2323  136.4468  156.5493 H   0  0  0  0  0  0  0  0  0  0  0  0
  147.1772  137.1974  157.1586 H   0  0  0  0  0  0  0  0  0  0  0  0
  146.1649  138.6252  157.2845 H   0  0  0  0  0  0  0  0  0  0  0  0
  148.3668  140.7364  153.4277 H   0  0  0  0  0  0  0  0  0  0  0  0
  147.6503  141.3044  154.9210 H   0  0  0  0  0  0  0  0  0  0  0  0
  150.0379  142.0162  154.6864 H   0  0  0  0  0  0  0  0  0  0  0  0
  149.8218  141.0046  156.1043 H   0  0  0  0  0  0  0  0  0  0  0  0
  151.2418  138.0995  154.4343 H   0  0  0  0  0  0  0  0  0  0  0  0
  150.5626  138.6482  155.9549 H   0  0  0  0  0  0  0  0  0  0  0  0
  148.9003  137.3218  154.7576 H   0  0  0  0  0  0  0  0  0  0  0  0
  149.0701  138.2872  153.3026 H   0  0  0  0  0  0  0  0  0  0  0  0
  147.2930  135.4835  151.5498 H   0  0  0  0  0  0  0  0  0  0  0  0
  147.5524  133.1693  151.2256 H   0  0  0  0  0  0  0  0  0  0  0  0
  146.5239  131.0422  150.4151 H   0  0  0  0  0  0  0  0  0  0  0  0
  142.7754  132.7580  150.1640 H   0  0  0  0  0  0  0  0  0  0  0  0
  143.6018  134.9501  150.9654 H   0  0  0  0  0  0  0  0  0  0  0  0
  1  2  2  0  0  0  0
  2  3  1  0  0  0  0
  2 17  1  0  0  0  0
  3  4  1  0  0  0  0
  3 24  1  0  0  0  0
  4  5  1  0  0  0  0
  4 25  1  0  0  0  0
  4 26  1  0  0  0  0
  5  6  1  0  0  0  0
  5 11  1  0  0  0  0
  5 27  1  0  0  0  0
  6 10  1  0  0  0  0
  6  7  1  0  0  0  0
  6 28  1  0  0  0  0
  7  8  1  0  0  0  0
  7 29  1  0  0  0  0
  7 30  1  0  0  0  0
  8  9  1  0  0  0  0
  8 31  1  0  0  0  0
  8 32  1  0  0  0  0
  9 10  1  0  0  0  0
 10 33  1  0  0  0  0
 10 34  1  0  0  0  0
 11 16  1  0  0  0  0
 11 12  1  0  0  0  0
 12 13  1  0  0  0  0
 12 35  1  0  0  0  0
 12 36  1  0  0  0  0
 13 14  1  0  0  0  0
 13 37  1  0  0  0  0
 13 38  1  0  0  0  0
 14 15  1  0  0  0  0
 15 16  1  0  0  0  0
 15 39  1  0  0  0  0
 15 40  1  0  0  0  0
 16 41  1  0  0  0  0
 16 42  1  0  0  0  0
 17 18  1  0  0  0  0
 17 43  1  0  0  0  0
 18 23  1  0  0  0  0
 18 19  2  0  0  0  0
 19 20  1  0  0  0  0
 19 44  1  0  0  0  0
 20 21  2  0  0  0  0
 20 45  1  0  0  0  0
 21 22  1  0  0  0  0
 22 23  2  0  0  0  0
 22 46  1  0  0  0  0
 23 47  1  0  0  0  0
M  END
> <s_m_source_file>
AV-unprocessed.smi

> <i_m_source_file_index>
1240

> <i_lp_mmshare_version>
43012

> <i_f3d_flags>
0

> <s_epik_input>
W2NIXTFbY0hdbltjSF1bY0hdYzFbTkhdQyg9TylbTkhdW0NIMl1bQ0BIXShbQ0BASF0yW0NIMl1bQ0gyXU9bQ0gyXTIpTjNbQ0gyXVtDSDJdT1tDSDJdW0NIMl0z

> <s_epik_cmdline>
J2VwaWtfcHl0aG9uJywgJy1waCcsICc3LjAnLCAnLXRuJywgJzgnLCAnLW1hJywgJzIwMCcsICctbWV0YWxfYmluZGluZycsICctaW1hZScsICc8aW5maWxlLm1hZT4nLCAnLW9tYWUnLCAnPG91dGZpbGUubWFlPic=

> <r_epik_Ionization_Penalty>
0.238664

> <r_epik_Ionization_Penalty_Charging>
0

> <r_epik_Ionization_Penalty_Neutral>
0.238664

> <r_epik_State_Penalty>
0.217087

> <r_epik_Charging_Adjusted_Penalty>
0.217087

> <i_epik_Tot_Q>
0

> <i_epik_Tot_abs_Q>
0

> <r_epik_Metal_State_Penalty>
0.199194

> <b_epik_Metal_Only>
0

> <s_lp_Force_Field>
OPLS_2005

> <r_lp_Energy>
59.2824

> <b_lp_Chiralities_Consistent>
1

> <s_lp_Variant>
AV-unprocessed.smi:1240-2

> <Gold.Version>
5.8.1

> <Gold.Id.Protein>
6NUR|6NUR_protein|mol2

> <Gold.PLP.Fitness>
44.1082

> <Gold.PLP.PLP>
-29.9143

> <Gold.PLP.part.hbond>
-2.9641

> <Gold.PLP.part.metal>
0.0000

> <Gold.PLP.part.buried>
-5.1111

> <Gold.PLP.part.nonpolar>
-23.5010

> <Gold.PLP.part.repulsive>
0.9446

> <Gold.PLP.ligand.clash>
0.0000

> <Gold.PLP.ligand.torsion>
0.5573

> <Gold.PLP.Chemscore.Hbond>
2.9913

> <Gold.PLP.Chemscore.CHOScore>
1.9871

> <Gold.PLP.Chemscore.Metal>
0.0000

> <Gold.Chemscore.Hbonds>
donor molecule, donor type, donor heavy atom, donor atom, acceptor molecule, acceptor atom, score
      L1  H     3    24       P1  7948  1.00
      L1  H    17    43       P1  7948  1.00
      P1  H  7989  7998       L1    14  1.00
      L1  C    20    45       P1 10747  0.99
      L1  C    22    46       P1 10186  1.00

> <Gold.PLP.Chemscore.Internal.Correction>
0.3734

> <Gold.Rescore>
     Score         DG    S(hbond)    S(metal)    S(lipo)     H(rot)  DE(clash)    DE(int)     intcor
     17.99     -19.85       2.91        0.00      76.04       1.65       0.08       1.78       ----

> <Gold.Chemscore.Fitness>
17.9915

> <Gold.Chemscore.DG>
-19.8533

> <Gold.Chemscore.ZeroCoef>
-5.4800

> <Gold.Chemscore.Hbond>
2.9050

> <Gold.Chemscore.Metal>
0.0000

> <Gold.Chemscore.Lipo>
76.0404

> <Gold.Chemscore.Internal_Hbond>
0.0000

> <Gold.Chemscore.DEClash>
0.0842

> <Gold.Chemscore.DEInternal>
1.7775

> <Gold.Chemscore.Rot>
1.6508

> <Gold.Chemscore.Internal.Correction>
   9.000000E+99

> <Gold.Chemscore.Hbonds>
donor molecule, donor type, donor heavy atom, donor atom, acceptor molecule, acceptor atom, score
      L1  H     3    24       P1  7948  0.99
      L1  H    17    43       P1  7948  0.95
      P1  H  7989  7998       L1    14  0.57

> <Gold.Chemscore.Hbond.Weighted>
-9.7027

> <Gold.Chemscore.Metal.Weighted>
-0.0000

> <Gold.Chemscore.Lipo.Weighted>
-8.8967

> <Gold.Chemscore.Internal_Hbond.Weighted>
0.0000

> <Gold.Chemscore.DEClash.Weighted>
0.0842

> <Gold.Chemscore.DEInternal.Weighted>
1.7775

> <Gold.Chemscore.Rot.Weighted>
4.2262

> <Gold.Chemscore.Internal.Correction.Weighted>
   9.000000E+99

> <Gold.Protein.RotatedTorsions>
[ 6907 6896 6895 6894 ] final  -87.30 input  -60.11 | X-H torsion
[ 7974 7965 7964 7962 ] final   38.12 input  175.53 | X-H torsion
[ 8008 7997 7996 7995 ] final   18.23 input   59.86 | X-H torsion
[ 10167 10162 10161 10158 ] final -155.16 input  -65.29 | X-H torsion
[ 10718 10713 10712 10709 ] final   90.16 input   66.30 | X-H torsion
[ 10763 10752 10751 10750 ] final  166.03 input  -60.55 | X-H torsion
[ 11005 11000 10999 10996 ] final    0.09 input  -57.11 | X-H torsion

> <Gold.Protein.ActiveResidues>
 VAL166  LYS551  ARG553  GLY616  TRP617  ASP618  TYR619  PRO620  LYS621  CYS622 
 ASP623  PHE694  ASN695  SER759  ASP760  ASP761  ALA762  ILE779  LEU786  VAL792 
 PHE793  MET794  SER795  GLU796  ALA797  LYS798  CYS799  TRP800  GLU811  SER814 

> <Gold.Protein.RotatedAtoms>
  150.6866  134.2917  159.4669 H   0  0  0  0  0  0  0  0  0  0  0  0  # atno 6907 bound_to 6896
  152.0822  134.9461  160.0582 H   0  0  0  0  0  0  0  0  0  0  0  0  # atno 6908 bound_to 6896
  152.0810  133.4118  159.4538 H   0  0  0  0  0  0  0  0  0  0  0  0  # atno 6909 bound_to 6896
  146.1086  139.5810  142.9367 H   0  0  0  0  0  0  0  0  0  0  0  0  # atno 7974 bound_to 7965
  154.9029  140.3003  155.5308 H   0  0  0  0  0  0  0  0  0  0  0  0  # atno 8008 bound_to 7997
  156.3018  140.2403  156.3994 H   0  0  0  0  0  0  0  0  0  0  0  0  # atno 8009 bound_to 7997
  154.8503  140.0410  157.1588 H   0  0  0  0  0  0  0  0  0  0  0  0  # atno 8010 bound_to 7997
  139.6954  143.9351  152.2404 H   0  0  0  0  0  0  0  0  0  0  0  0  # atno 10167 bound_to 10162
  157.6958  131.0360  150.3535 H   0  0  0  0  0  0  0  0  0  0  0  0  # atno 10718 bound_to 10713
  154.3328  135.2754  155.2463 H   0  0  0  0  0  0  0  0  0  0  0  0  # atno 10763 bound_to 10752
  154.4767  135.5869  153.6363 H   0  0  0  0  0  0  0  0  0  0  0  0  # atno 10764 bound_to 10752
  152.9865  135.6101  154.3522 H   0  0  0  0  0  0  0  0  0  0  0  0  # atno 10765 bound_to 10752
  140.6304  133.9580  155.8271 H   0  0  0  0  0  0  0  0  0  0  0  0  # atno 11005 bound_to 11000
  145.5711  141.0394  143.2174 LP  0  0  0  0  0  0  0  0  0  0  0  0  # atno 17320 bound_to 7965
  144.7492  139.7239  143.7280 LP  0  0  0  0  0  0  0  0  0  0  0  0  # atno 17321 bound_to 7965
  139.9179  144.6817  150.8493 LP  0  0  0  0  0  0  0  0  0  0  0  0  # atno 17342 bound_to 10162
  140.7695  143.3396  151.2236 LP  0  0  0  0  0  0  0  0  0  0  0  0  # atno 17343 bound_to 10162
  156.3980  130.3910  149.6980 LP  0  0  0  0  0  0  0  0  0  0  0  0  # atno 17370 bound_to 10713
  156.4307  130.7814  151.2833 LP  0  0  0  0  0  0  0  0  0  0  0  0  # atno 17371 bound_to 10713
  141.0679  134.0249  157.3567 LP  0  0  0  0  0  0  0  0  0  0  0  0  # atno 17394 bound_to 11000
  139.9118  135.0191  156.7723 LP  0  0  0  0  0  0  0  0  0  0  0  0  # atno 17395 bound_to 11000

$$$$
