AV-unprocessed.smi:1256|AV-procd|sdf|5283|dock6
  -GOLD-   22720 4403D 1   1.00000     0.00000
 Structure written by MMmdl.
 41 42  0  0  0  0  0  0  0  0  1 V2000
  150.6926  142.0005  156.2124 C   0  0  0  0  0  0  0  0  0  0  0  0
  150.3394  140.7863  155.4050 C   0  0  0  0  0  0  0  0  0  0  0  0
  149.1064  140.4939  154.7528 C   0  0  0  0  0  0  0  0  0  0  0  0
  149.3497  139.2748  154.1814 C   0  0  0  0  0  0  0  0  0  0  0  0
  148.5204  138.5005  153.4321 N   0  0  0  0  0  0  0  0  0  0  0  0
  147.1763  138.4780  153.4172 C   0  0  0  0  0  0  0  0  0  0  0  0
  146.4417  139.1836  154.1092 O   0  0  0  0  0  0  0  0  0  0  0  0
  146.7179  137.5774  152.5361 N   0  0  0  0  0  0  0  0  0  0  0  0
  145.3095  137.3094  152.2703 C   0  0  0  0  0  0  0  0  0  0  0  0
  144.8455  136.0102  152.9520 C   0  0  0  0  0  0  0  0  0  0  0  0
  144.9267  134.8015  152.0346 C   0  0  0  0  0  0  0  0  0  0  0  0
  143.8223  134.1632  151.6009 C   0  0  0  0  0  0  0  0  0  0  0  0
  143.8412  132.9259  150.7208 C   0  0  0  0  0  0  0  0  0  0  0  0
  145.2273  132.2617  150.6749 C   0  0  0  0  0  0  0  0  0  0  0  0
  146.3371  133.3078  150.5144 C   0  0  0  0  0  0  0  0  0  0  0  0
  146.3288  134.3226  151.6720 C   0  0  0  0  0  0  0  0  0  0  0  0
  150.6376  138.8911  154.4829 N   0  0  0  0  0  0  0  0  0  0  0  0
  151.3524  137.6865  154.1078 C   0  0  0  0  0  0  0  0  0  0  0  0
  151.2456  139.8290  155.2411 N   0  0  0  0  0  0  0  0  0  0  0  0
  149.8546  142.6959  156.2651 H   0  0  0  0  0  0  0  0  0  0  0  0
  151.5373  142.5317  155.7731 H   0  0  0  0  0  0  0  0  0  0  0  0
  150.9623  141.7286  157.2333 H   0  0  0  0  0  0  0  0  0  0  0  0
  148.2080  141.0917  154.7237 H   0  0  0  0  0  0  0  0  0  0  0  0
  148.9823  137.8643  152.7993 H   0  0  0  0  0  0  0  0  0  0  0  0
  147.3903  137.0399  152.0085 H   0  0  0  0  0  0  0  0  0  0  0  0
  144.7305  138.1522  152.6489 H   0  0  0  0  0  0  0  0  0  0  0  0
  145.1380  137.2745  151.1936 H   0  0  0  0  0  0  0  0  0  0  0  0
  145.4411  135.8100  153.8435 H   0  0  0  0  0  0  0  0  0  0  0  0
  143.8163  136.1316  153.2934 H   0  0  0  0  0  0  0  0  0  0  0  0
  142.8450  134.5348  151.8733 H   0  0  0  0  0  0  0  0  0  0  0  0
  143.1014  132.2135  151.0870 H   0  0  0  0  0  0  0  0  0  0  0  0
  143.5302  133.2202  149.7180 H   0  0  0  0  0  0  0  0  0  0  0  0
  145.3943  131.7010  151.5956 H   0  0  0  0  0  0  0  0  0  0  0  0
  145.2667  131.5374  149.8607 H   0  0  0  0  0  0  0  0  0  0  0  0
  147.3109  132.8215  150.4544 H   0  0  0  0  0  0  0  0  0  0  0  0
  146.1966  133.8341  149.5694 H   0  0  0  0  0  0  0  0  0  0  0  0
  146.9605  135.1698  151.4073 H   0  0  0  0  0  0  0  0  0  0  0  0
  146.7677  133.8728  152.5633 H   0  0  0  0  0  0  0  0  0  0  0  0
  151.2663  137.5276  153.0328 H   0  0  0  0  0  0  0  0  0  0  0  0
  150.9261  136.8306  154.6312 H   0  0  0  0  0  0  0  0  0  0  0  0
  152.4086  137.7706  154.3667 H   0  0  0  0  0  0  0  0  0  0  0  0
  1  2  1  0  0  0  0
  1 20  1  0  0  0  0
  1 21  1  0  0  0  0
  1 22  1  0  0  0  0
  2 19  2  0  0  0  0
  2  3  1  0  0  0  0
  3  4  2  0  0  0  0
  3 23  1  0  0  0  0
  4  5  1  0  0  0  0
  4 17  1  0  0  0  0
  5  6  1  0  0  0  0
  5 24  1  0  0  0  0
  6  7  2  0  0  0  0
  6  8  1  0  0  0  0
  8  9  1  0  0  0  0
  8 25  1  0  0  0  0
  9 10  1  0  0  0  0
  9 26  1  0  0  0  0
  9 27  1  0  0  0  0
 10 11  1  0  0  0  0
 10 28  1  0  0  0  0
 10 29  1  0  0  0  0
 11 16  1  0  0  0  0
 11 12  2  0  0  0  0
 12 13  1  0  0  0  0
 12 30  1  0  0  0  0
 13 14  1  0  0  0  0
 13 31  1  0  0  0  0
 13 32  1  0  0  0  0
 14 15  1  0  0  0  0
 14 33  1  0  0  0  0
 14 34  1  0  0  0  0
 15 16  1  0  0  0  0
 15 35  1  0  0  0  0
 15 36  1  0  0  0  0
 16 37  1  0  0  0  0
 16 38  1  0  0  0  0
 17 18  1  0  0  0  0
 17 19  1  0  0  0  0
 18 39  1  0  0  0  0
 18 40  1  0  0  0  0
 18 41  1  0  0  0  0
M  END
> <s_m_source_file>
AV-unprocessed.smi

> <i_m_source_file_index>
1256

> <i_lp_mmshare_version>
43012

> <i_f3d_flags>
0

> <s_epik_input>
W0NIM11jMVtjSF1jKG4objEpW0NIM10pW05IXUMoPU8pW05IXVtDSDJdW0NIMl1DMj1bQ0hdW0NIMl1bQ0gyXVtDSDJdW0NIMl0y

> <s_epik_cmdline>
J2VwaWtfcHl0aG9uJywgJy1waCcsICc3LjAnLCAnLXRuJywgJzgnLCAnLW1hJywgJzIwMCcsICctbWV0YWxfYmluZGluZycsICctaW1hZScsICc8aW5maWxlLm1hZT4nLCAnLW9tYWUnLCAnPG91dGZpbGUubWFlPic=

> <r_lp_tautomer_probability>
1

> <r_epik_Ionization_Penalty>
9.50632e-05

> <r_epik_Ionization_Penalty_Charging>
0

> <r_epik_Ionization_Penalty_Neutral>
9.50632e-05

> <r_epik_State_Penalty>
-0

> <r_epik_Charging_Adjusted_Penalty>
0

> <i_epik_Tot_Q>
0

> <i_epik_Tot_abs_Q>
0

> <r_epik_Metal_State_Penalty>
-0

> <b_epik_Metal_Only>
0

> <s_lp_Force_Field>
OPLS_2005

> <r_lp_Energy>
8.63058

> <b_lp_Chiralities_Consistent>
1

> <s_lp_Variant>
AV-unprocessed.smi:1256-1

> <Gold.Version>
5.8.1

> <Gold.Id.Protein>
6NUR|6NUR_protein|mol2

> <Gold.PLP.Fitness>
41.8449

> <Gold.PLP.PLP>
-36.7483

> <Gold.PLP.part.hbond>
-4.0000

> <Gold.PLP.part.metal>
0.0000

> <Gold.PLP.part.buried>
-2.0958

> <Gold.PLP.part.nonpolar>
-30.7905

> <Gold.PLP.part.repulsive>
0.2591

> <Gold.PLP.ligand.clash>
0.0000

> <Gold.PLP.ligand.torsion>
0.5420

> <Gold.PLP.Chemscore.Hbond>
2.0566

> <Gold.PLP.Chemscore.CHOScore>
0.0000

> <Gold.PLP.Chemscore.Metal>
0.0000

> <Gold.Chemscore.Hbonds>
donor molecule, donor type, donor heavy atom, donor atom, acceptor molecule, acceptor atom, score
      L1  H     5    24       P1  7948  1.00
      L1  H     8    25       P1  7948  1.00
      P1  H  7989  7998       L1    19  0.05

> <Gold.PLP.Chemscore.Internal.Correction>
0.0108

> <Gold.Rescore>
     Score         DG    S(hbond)    S(metal)    S(lipo)     H(rot)  DE(clash)    DE(int)     intcor
     16.56     -17.41       1.94        0.00      77.10       1.40       0.21       0.65       ----

> <Gold.Chemscore.Fitness>
16.5614

> <Gold.Chemscore.DG>
-17.4144

> <Gold.Chemscore.ZeroCoef>
-5.4800

> <Gold.Chemscore.Hbond>
1.9423

> <Gold.Chemscore.Metal>
0.0000

> <Gold.Chemscore.Lipo>
77.0969

> <Gold.Chemscore.Internal_Hbond>
0.0000

> <Gold.Chemscore.DEClash>
0.2068

> <Gold.Chemscore.DEInternal>
0.6462

> <Gold.Chemscore.Rot>
1.3958

> <Gold.Chemscore.Internal.Correction>
   9.000000E+99

> <Gold.Chemscore.Hbonds>
donor molecule, donor type, donor heavy atom, donor atom, acceptor molecule, acceptor atom, score
      L1  H     5    24       P1  7948  0.94
      L1  H     8    25       P1  7948  0.97

> <Gold.Chemscore.Hbond.Weighted>
-6.4873

> <Gold.Chemscore.Metal.Weighted>
-0.0000

> <Gold.Chemscore.Lipo.Weighted>
-9.0203

> <Gold.Chemscore.Internal_Hbond.Weighted>
0.0000

> <Gold.Chemscore.DEClash.Weighted>
0.2068

> <Gold.Chemscore.DEInternal.Weighted>
0.6462

> <Gold.Chemscore.Rot.Weighted>
3.5733

> <Gold.Chemscore.Internal.Correction.Weighted>
   9.000000E+99

> <Gold.Protein.RotatedTorsions>
[ 6907 6896 6895 6894 ] final   20.67 input  -60.11 | X-H torsion
[ 7974 7965 7964 7962 ] final  -69.33 input  175.53 | X-H torsion
[ 8008 7997 7996 7995 ] final  168.98 input   59.86 | X-H torsion
[ 10167 10162 10161 10158 ] final -160.42 input  -65.29 | X-H torsion
[ 10718 10713 10712 10709 ] final  -20.75 input   66.30 | X-H torsion
[ 10763 10752 10751 10750 ] final -110.02 input  -60.55 | X-H torsion
[ 11005 11000 10999 10996 ] final   34.43 input  -57.11 | X-H torsion

> <Gold.Protein.ActiveResidues>
 VAL166  LYS551  ARG553  GLY616  TRP617  ASP618  TYR619  PRO620  LYS621  CYS622 
 ASP623  PHE694  ASN695  SER759  ASP760  ASP761  ALA762  ILE779  LEU786  VAL792 
 PHE793  MET794  SER795  GLU796  ALA797  LYS798  CYS799  TRP800  GLU811  SER814 

> <Gold.Protein.RotatedAtoms>
  151.9000  135.0382  160.0505 H   0  0  0  0  0  0  0  0  0  0  0  0  # atno 6907 bound_to 6896
  152.2366  133.5096  159.5254 H   0  0  0  0  0  0  0  0  0  0  0  0  # atno 6908 bound_to 6896
  150.7041  134.1062  159.4026 H   0  0  0  0  0  0  0  0  0  0  0  0  # atno 6909 bound_to 6896
  145.7051  140.9101  143.0710 H   0  0  0  0  0  0  0  0  0  0  0  0  # atno 7974 bound_to 7965
  156.1499  140.1576  156.8787 H   0  0  0  0  0  0  0  0  0  0  0  0  # atno 8008 bound_to 7997
  154.5061  140.0812  156.7935 H   0  0  0  0  0  0  0  0  0  0  0  0  # atno 8009 bound_to 7997
  155.3917  140.3410  155.4254 H   0  0  0  0  0  0  0  0  0  0  0  0  # atno 8010 bound_to 7997
  139.6541  144.0031  152.2182 H   0  0  0  0  0  0  0  0  0  0  0  0  # atno 10167 bound_to 10162
  156.5275  130.4647  149.6564 H   0  0  0  0  0  0  0  0  0  0  0  0  # atno 10718 bound_to 10713
  154.8225  135.4579  154.0822 H   0  0  0  0  0  0  0  0  0  0  0  0  # atno 10763 bound_to 10752
  153.2163  135.6888  153.8060 H   0  0  0  0  0  0  0  0  0  0  0  0  # atno 10764 bound_to 10752
  153.7493  135.3300  155.3295 H   0  0  0  0  0  0  0  0  0  0  0  0  # atno 10765 bound_to 10752
  140.2530  134.3281  155.7884 H   0  0  0  0  0  0  0  0  0  0  0  0  # atno 11005 bound_to 11000
  144.6957  139.9000  143.7458 LP  0  0  0  0  0  0  0  0  0  0  0  0  # atno 17320 bound_to 7965
  146.0763  139.3751  143.0492 LP  0  0  0  0  0  0  0  0  0  0  0  0  # atno 17321 bound_to 7965
  139.9752  144.6466  150.7951 LP  0  0  0  0  0  0  0  0  0  0  0  0  # atno 17342 bound_to 10162
  140.7551  143.3040  151.3009 LP  0  0  0  0  0  0  0  0  0  0  0  0  # atno 17343 bound_to 10162
  156.3091  130.7219  151.2107 LP  0  0  0  0  0  0  0  0  0  0  0  0  # atno 17370 bound_to 10713
  157.7427  131.0486  150.5004 LP  0  0  0  0  0  0  0  0  0  0  0  0  # atno 17371 bound_to 10713
  141.2199  133.7364  156.9066 LP  0  0  0  0  0  0  0  0  0  0  0  0  # atno 17394 bound_to 11000
  140.1539  134.9211  157.2629 LP  0  0  0  0  0  0  0  0  0  0  0  0  # atno 17395 bound_to 11000

$$$$
