AV-unprocessed.smi:1285|AV-procd|sdf|5368|dock1
  -GOLD-   22720 4513D 1   1.00000     0.00000
 Structure written by MMmdl.
 46 47  0  0  0  0  0  0  0  0  1 V2000
  150.0377  145.3361  160.1071 C   0  0  0  0  0  0  0  0  0  0  0  0
  151.1743  144.3072  160.2465 C   0  0  0  0  0  0  0  0  0  0  0  0
  151.2677  143.2443  159.1049 C   0  0  2  0  0  0  0  0  0  0  0  0
  152.0454  143.9217  157.9441 C   0  0  0  0  0  0  0  0  0  0  0  0
  149.8181  142.9211  158.6142 C   0  0  0  0  0  0  0  0  0  0  0  0
  149.7553  142.5310  157.2071 N   0  0  0  0  0  0  0  0  0  0  0  0
  149.5750  141.2858  156.7381 C   0  0  0  0  0  0  0  0  0  0  0  0
  149.3372  140.3196  157.4638 O   0  0  0  0  0  0  0  0  0  0  0  0
  149.7142  141.1162  155.2160 C   0  0  2  0  0  0  0  0  0  0  0  0
  148.3588  141.1047  154.4805 C   0  0  0  0  0  0  0  0  0  0  0  0
  150.5062  139.9283  154.9168 N   0  0  0  0  0  0  0  0  0  0  0  0
  151.7132  139.5672  155.3583 C   0  0  0  0  0  0  0  0  0  0  0  0
  152.1115  138.3788  154.9272 N   0  0  0  0  0  0  0  0  0  0  0  0
  151.0246  138.0331  154.1754 C   0  0  0  0  0  0  0  0  0  0  0  0
  150.0315  138.9212  154.1417 N   0  0  0  0  0  0  0  0  0  0  0  0
  151.9864  142.0226  159.5661 N   0  0  0  0  0  0  0  0  0  0  0  0
  153.3262  142.2564  160.1188 C   0  0  0  0  0  0  0  0  0  0  0  0
  153.9413  140.9725  160.7018 C   0  0  0  0  0  0  0  0  0  0  0  0
  153.9806  139.9616  159.7018 O   0  0  0  0  0  0  0  0  0  0  0  0
  152.6912  139.6642  159.1798 C   0  0  0  0  0  0  0  0  0  0  0  0
  152.0697  140.9371  158.5814 C   0  0  0  0  0  0  0  0  0  0  0  0
  150.0581  146.0408  160.9385 H   0  0  0  0  0  0  0  0  0  0  0  0
  149.0579  144.8598  160.1122 H   0  0  0  0  0  0  0  0  0  0  0  0
  150.1247  145.9161  159.1885 H   0  0  0  0  0  0  0  0  0  0  0  0
  152.1201  144.8399  160.3452 H   0  0  0  0  0  0  0  0  0  0  0  0
  151.0410  143.8113  161.2087 H   0  0  0  0  0  0  0  0  0  0  0  0
  151.6951  144.9360  157.7512 H   0  0  0  0  0  0  0  0  0  0  0  0
  151.9354  143.3753  157.0071 H   0  0  0  0  0  0  0  0  0  0  0  0
  153.1122  143.9885  158.1581 H   0  0  0  0  0  0  0  0  0  0  0  0
  149.3566  142.1497  159.2309 H   0  0  0  0  0  0  0  0  0  0  0  0
  149.1787  143.7976  158.7104 H   0  0  0  0  0  0  0  0  0  0  0  0
  149.9359  143.2614  156.5341 H   0  0  0  0  0  0  0  0  0  0  0  0
  150.2758  141.9776  154.8507 H   0  0  0  0  0  0  0  0  0  0  0  0
  147.8047  142.0263  154.6618 H   0  0  0  0  0  0  0  0  0  0  0  0
  147.7287  140.2723  154.7965 H   0  0  0  0  0  0  0  0  0  0  0  0
  148.5026  141.0187  153.4031 H   0  0  0  0  0  0  0  0  0  0  0  0
  152.3086  140.1816  156.0176 H   0  0  0  0  0  0  0  0  0  0  0  0
  150.9604  137.0958  153.6428 H   0  0  0  0  0  0  0  0  0  0  0  0
  153.9927  142.6426  159.3478 H   0  0  0  0  0  0  0  0  0  0  0  0
  153.2967  143.0000  160.9133 H   0  0  0  0  0  0  0  0  0  0  0  0
  154.9550  141.1642  161.0539 H   0  0  0  0  0  0  0  0  0  0  0  0
  153.3647  140.6234  161.5600 H   0  0  0  0  0  0  0  0  0  0  0  0
  152.7865  138.8935  158.4148 H   0  0  0  0  0  0  0  0  0  0  0  0
  152.0550  139.2572  159.9675 H   0  0  0  0  0  0  0  0  0  0  0  0
  151.0840  140.6782  158.1994 H   0  0  0  0  0  0  0  0  0  0  0  0
  152.6699  141.2468  157.7260 H   0  0  0  0  0  0  0  0  0  0  0  0
  1  2  1  0  0  0  0
  1 22  1  0  0  0  0
  1 23  1  0  0  0  0
  1 24  1  0  0  0  0
  2  3  1  0  0  0  0
  2 25  1  0  0  0  0
  2 26  1  0  0  0  0
  3  4  1  0  0  0  0
  3  5  1  0  0  0  0
  3 16  1  0  0  0  0
  4 27  1  0  0  0  0
  4 28  1  0  0  0  0
  4 29  1  0  0  0  0
  5  6  1  0  0  0  0
  5 30  1  0  0  0  0
  5 31  1  0  0  0  0
  6  7  1  0  0  0  0
  6 32  1  0  0  0  0
  7  8  2  0  0  0  0
  7  9  1  0  0  0  0
  9 10  1  0  0  0  0
  9 11  1  0  0  0  0
  9 33  1  0  0  0  0
 10 34  1  0  0  0  0
 10 35  1  0  0  0  0
 10 36  1  0  0  0  0
 11 15  1  0  0  0  0
 11 12  1  0  0  0  0
 12 13  2  0  0  0  0
 12 37  1  0  0  0  0
 13 14  1  0  0  0  0
 14 15  2  0  0  0  0
 14 38  1  0  0  0  0
 16 21  1  0  0  0  0
 16 17  1  0  0  0  0
 17 18  1  0  0  0  0
 17 39  1  0  0  0  0
 17 40  1  0  0  0  0
 18 19  1  0  0  0  0
 18 41  1  0  0  0  0
 18 42  1  0  0  0  0
 19 20  1  0  0  0  0
 20 21  1  0  0  0  0
 20 43  1  0  0  0  0
 20 44  1  0  0  0  0
 21 45  1  0  0  0  0
 21 46  1  0  0  0  0
M  END
> <s_m_source_file>
AV-unprocessed.smi

> <i_m_source_file_index>
1285

> <i_lp_mmshare_version>
43012

> <i_f3d_flags>
0

> <s_epik_input>
W0NIMl0xW0NIMl1PW0NIMl1bQ0gyXU4xW0NAQF0oW0NIM10pKFtDSDJdW0NIM10pW0NIMl1bTkhdQyg9TylbQ0BIXShbQ0gzXSluMltjSF1uW2NIXW4y

> <s_epik_cmdline>
J2VwaWtfcHl0aG9uJywgJy1waCcsICc3LjAnLCAnLXRuJywgJzgnLCAnLW1hJywgJzIwMCcsICctbWV0YWxfYmluZGluZycsICctaW1hZScsICc8aW5maWxlLm1hZT4nLCAnLW9tYWUnLCAnPG91dGZpbGUubWFlPic=

> <r_lp_tautomer_probability>
1

> <r_epik_Ionization_Penalty>
0.285697

> <r_epik_Ionization_Penalty_Charging>
0

> <r_epik_Ionization_Penalty_Neutral>
0.285697

> <r_epik_State_Penalty>
0.278478

> <r_epik_Charging_Adjusted_Penalty>
0.278478

> <i_epik_Tot_Q>
0

> <i_epik_Tot_abs_Q>
0

> <r_epik_Metal_State_Penalty>
0.278477

> <b_epik_Metal_Only>
0

> <s_lp_Force_Field>
OPLS_2005

> <r_lp_Energy>
47.2582

> <b_lp_Chiralities_Consistent>
1

> <s_lp_Variant>
AV-unprocessed.smi:1285-2

> <Gold.Version>
5.8.1

> <Gold.Id.Protein>
6NUR|6NUR_protein|mol2

> <Gold.PLP.Fitness>
44.0877

> <Gold.PLP.PLP>
-41.2234

> <Gold.PLP.part.hbond>
-1.0000

> <Gold.PLP.part.metal>
0.0000

> <Gold.PLP.part.buried>
-4.2820

> <Gold.PLP.part.nonpolar>
-36.5569

> <Gold.PLP.part.repulsive>
0.2864

> <Gold.PLP.ligand.clash>
0.0000

> <Gold.PLP.ligand.torsion>
1.5446

> <Gold.PLP.Chemscore.Hbond>
0.7040

> <Gold.PLP.Chemscore.CHOScore>
1.1243

> <Gold.PLP.Chemscore.Metal>
0.0000

> <Gold.Chemscore.Hbonds>
donor molecule, donor type, donor heavy atom, donor atom, acceptor molecule, acceptor atom, score
      L1  H     6    32       P1  8028  0.74
      L1  C    14    38       P1  7948  0.10
      L1  C    14    38       P1  7949  1.00

> <Gold.PLP.Chemscore.Internal.Correction>
0.4687

> <Gold.Rescore>
     Score         DG    S(hbond)    S(metal)    S(lipo)     H(rot)  DE(clash)    DE(int)     intcor
     11.15     -12.79       0.96        0.00      93.68       2.68       0.01       1.63       ----

> <Gold.Chemscore.Fitness>
11.1515

> <Gold.Chemscore.DG>
-12.7885

> <Gold.Chemscore.ZeroCoef>
-5.4800

> <Gold.Chemscore.Hbond>
0.9625

> <Gold.Chemscore.Metal>
0.0000

> <Gold.Chemscore.Lipo>
93.6755

> <Gold.Chemscore.Internal_Hbond>
0.0000

> <Gold.Chemscore.DEClash>
0.0059

> <Gold.Chemscore.DEInternal>
1.6311

> <Gold.Chemscore.Rot>
2.6821

> <Gold.Chemscore.Internal.Correction>
   9.000000E+99

> <Gold.Chemscore.Hbonds>
donor molecule, donor type, donor heavy atom, donor atom, acceptor molecule, acceptor atom, score
      L1  H     6    32       P1  8028  0.71

> <Gold.Chemscore.Hbond.Weighted>
-3.2146

> <Gold.Chemscore.Metal.Weighted>
-0.0000

> <Gold.Chemscore.Lipo.Weighted>
-10.9600

> <Gold.Chemscore.Internal_Hbond.Weighted>
0.0000

> <Gold.Chemscore.DEClash.Weighted>
0.0059

> <Gold.Chemscore.DEInternal.Weighted>
1.6311

> <Gold.Chemscore.Rot.Weighted>
6.8661

> <Gold.Chemscore.Internal.Correction.Weighted>
   9.000000E+99

> <Gold.Protein.RotatedTorsions>
[ 6907 6896 6895 6894 ] final  145.32 input  -60.11 | X-H torsion
[ 7974 7965 7964 7962 ] final   13.45 input  175.53 | X-H torsion
[ 8008 7997 7996 7995 ] final  162.73 input   59.86 | X-H torsion
[ 10167 10162 10161 10158 ] final   -0.69 input  -65.29 | X-H torsion
[ 10718 10713 10712 10709 ] final   69.23 input   66.30 | X-H torsion
[ 10763 10752 10751 10750 ] final   53.72 input  -60.55 | X-H torsion
[ 11005 11000 10999 10996 ] final   19.74 input  -57.11 | X-H torsion

> <Gold.Protein.ActiveResidues>
 VAL166  LYS551  ARG553  GLY616  TRP617  ASP618  TYR619  PRO620  LYS621  CYS622 
 ASP623  PHE694  ASN695  SER759  ASP760  ASP761  ALA762  ILE779  LEU786  VAL792 
 PHE793  MET794  SER795  GLU796  ALA797  LYS798  CYS799  TRP800  GLU811  SER814 

> <Gold.Protein.RotatedAtoms>
  152.1824  133.4716  159.4964 H   0  0  0  0  0  0  0  0  0  0  0  0  # atno 6907 bound_to 6896
  150.6937  134.1817  159.4260 H   0  0  0  0  0  0  0  0  0  0  0  0  # atno 6908 bound_to 6896
  151.9728  135.0067  160.0604 H   0  0  0  0  0  0  0  0  0  0  0  0  # atno 6909 bound_to 6896
  146.2329  139.9186  142.8513 H   0  0  0  0  0  0  0  0  0  0  0  0  # atno 7974 bound_to 7965
  156.2010  140.1742  156.7900 H   0  0  0  0  0  0  0  0  0  0  0  0  # atno 8008 bound_to 7997
  154.5591  140.0703  156.8822 H   0  0  0  0  0  0  0  0  0  0  0  0  # atno 8009 bound_to 7997
  155.2881  140.3353  155.4256 H   0  0  0  0  0  0  0  0  0  0  0  0  # atno 8010 bound_to 7997
  140.6778  143.6865  150.8063 H   0  0  0  0  0  0  0  0  0  0  0  0  # atno 10167 bound_to 10162
  157.6334  130.9415  150.0485 H   0  0  0  0  0  0  0  0  0  0  0  0  # atno 10718 bound_to 10713
  152.9798  135.5769  154.4787 H   0  0  0  0  0  0  0  0  0  0  0  0  # atno 10763 bound_to 10752
  154.4339  135.2774  155.1896 H   0  0  0  0  0  0  0  0  0  0  0  0  # atno 10764 bound_to 10752
  154.3592  135.6192  153.5736 H   0  0  0  0  0  0  0  0  0  0  0  0  # atno 10765 bound_to 10752
  140.4104  134.1624  155.7667 H   0  0  0  0  0  0  0  0  0  0  0  0  # atno 11005 bound_to 11000
  145.2158  140.9915  143.4074 LP  0  0  0  0  0  0  0  0  0  0  0  0  # atno 17320 bound_to 7965
  144.9652  139.3938  143.6336 LP  0  0  0  0  0  0  0  0  0  0  0  0  # atno 17321 bound_to 7965
  140.0560  143.5202  152.2650 LP  0  0  0  0  0  0  0  0  0  0  0  0  # atno 17342 bound_to 10162
  139.6081  144.7601  151.3015 LP  0  0  0  0  0  0  0  0  0  0  0  0  # atno 17343 bound_to 10162
  156.1554  130.3643  149.9376 LP  0  0  0  0  0  0  0  0  0  0  0  0  # atno 17370 bound_to 10713
  156.7386  130.9071  151.3630 LP  0  0  0  0  0  0  0  0  0  0  0  0  # atno 17371 bound_to 10713
  141.1823  133.8387  157.1213 LP  0  0  0  0  0  0  0  0  0  0  0  0  # atno 17394 bound_to 11000
  140.0272  134.9918  157.0708 LP  0  0  0  0  0  0  0  0  0  0  0  0  # atno 17395 bound_to 11000

$$$$
