AV-unprocessed.smi:1995|AV-procd|sdf|8081|dock6
  -GOLD-   2272010293D 1   1.00000     0.00000
 Structure written by MMmdl.
 41 42  0  0  0  0  0  0  0  0  2 V2000
  151.8313  138.5115  154.4885 C   0  0  0  0  0  0  0  0  0  0  0  0
  151.7031  139.6823  155.4800 C   0  0  0  0  0  0  0  0  0  0  0  0
  150.4157  139.6818  156.3651 C   0  0  2  0  0  0  0  0  0  0  0  0
  150.6481  140.7436  157.4736 C   0  0  0  0  0  0  0  0  0  0  0  0
  150.2846  138.2757  157.0375 C   0  0  0  0  0  0  0  0  0  0  0  0
  149.1866  138.1770  158.0007 N   0  0  0  0  0  0  0  0  0  0  0  0
  148.9721  137.1809  158.8725 C   0  0  0  0  0  0  0  0  0  0  0  0
  149.7493  136.2247  158.9228 O   0  0  0  0  0  0  0  0  0  0  0  0
  147.8622  137.3503  159.6268 N   0  5  0  0  0  0  0  0  0  0  0  0
  147.5383  136.4381  160.5577 C   0  0  0  0  0  0  0  0  0  0  0  0
  147.7860  136.6052  161.8619 N   0  0  0  0  0  0  0  0  0  0  0  0
  147.3608  135.5335  162.6495 C   0  0  0  0  0  0  0  0  0  0  0  0
  146.7682  134.5308  161.9286 C   0  0  0  0  0  0  0  0  0  0  0  0
  146.7249  134.9051  160.2294 S   0  0  0  0  0  0  0  0  0  0  0  0
  149.2102  140.0310  155.5599 N   0  0  0  0  0  0  0  0  0  0  0  0
  148.8788  139.0835  154.4886 C   0  0  0  0  0  0  0  0  0  0  0  0
  147.5476  139.4327  153.8014 C   0  0  0  0  0  0  0  0  0  0  0  0
  147.6006  140.7618  153.2963 O   0  0  0  0  0  0  0  0  0  0  0  0
  147.8668  141.7192  154.3142 C   0  0  0  0  0  0  0  0  0  0  0  0
  149.2029  141.3881  155.0007 C   0  0  0  0  0  0  0  0  0  0  0  0
  152.7620  138.5900  153.9266 H   0  0  0  0  0  0  0  0  0  0  0  0
  151.0170  138.5037  153.7648 H   0  0  0  0  0  0  0  0  0  0  0  0
  151.8396  137.5470  154.9963 H   0  0  0  0  0  0  0  0  0  0  0  0
  152.5934  139.7095  156.1081 H   0  0  0  0  0  0  0  0  0  0  0  0
  151.7543  140.6038  154.8989 H   0  0  0  0  0  0  0  0  0  0  0  0
  151.6392  140.6599  157.9204 H   0  0  0  0  0  0  0  0  0  0  0  0
  149.9344  140.6426  158.2914 H   0  0  0  0  0  0  0  0  0  0  0  0
  150.5569  141.7585  157.0863 H   0  0  0  0  0  0  0  0  0  0  0  0
  150.1871  137.4888  156.2897 H   0  0  0  0  0  0  0  0  0  0  0  0
  151.1895  138.0371  157.5951 H   0  0  0  0  0  0  0  0  0  0  0  0
  148.5189  138.9341  158.0001 H   0  0  0  0  0  0  0  0  0  0  0  0
  147.5201  135.5693  163.7169 H   0  0  0  0  0  0  0  0  0  0  0  0
  146.3557  133.6012  162.2904 H   0  0  0  0  0  0  0  0  0  0  0  0
  149.6660  139.0721  153.7349 H   0  0  0  0  0  0  0  0  0  0  0  0
  148.7966  138.0693  154.8753 H   0  0  0  0  0  0  0  0  0  0  0  0
  147.3562  138.7462  152.9765 H   0  0  0  0  0  0  0  0  0  0  0  0
  146.7154  139.3339  154.5003 H   0  0  0  0  0  0  0  0  0  0  0  0
  147.9071  142.7123  153.8667 H   0  0  0  0  0  0  0  0  0  0  0  0
  147.0516  141.7264  155.0394 H   0  0  0  0  0  0  0  0  0  0  0  0
  149.3714  142.1323  155.7767 H   0  0  0  0  0  0  0  0  0  0  0  0
  150.0060  141.5019  154.2728 H   0  0  0  0  0  0  0  0  0  0  0  0
  1  2  1  0  0  0  0
  1 21  1  0  0  0  0
  1 22  1  0  0  0  0
  1 23  1  0  0  0  0
  2  3  1  0  0  0  0
  2 24  1  0  0  0  0
  2 25  1  0  0  0  0
  3  4  1  0  0  0  0
  3  5  1  0  0  0  0
  3 15  1  0  0  0  0
  4 26  1  0  0  0  0
  4 27  1  0  0  0  0
  4 28  1  0  0  0  0
  5  6  1  0  0  0  0
  5 29  1  0  0  0  0
  5 30  1  0  0  0  0
  6  7  1  0  0  0  0
  6 31  1  0  0  0  0
  7  8  2  0  0  0  0
  7  9  1  0  0  0  0
  9 10  1  0  0  0  0
 10 14  1  0  0  0  0
 10 11  2  0  0  0  0
 11 12  1  0  0  0  0
 12 13  2  0  0  0  0
 12 32  1  0  0  0  0
 13 14  1  0  0  0  0
 13 33  1  0  0  0  0
 15 20  1  0  0  0  0
 15 16  1  0  0  0  0
 16 17  1  0  0  0  0
 16 34  1  0  0  0  0
 16 35  1  0  0  0  0
 17 18  1  0  0  0  0
 17 36  1  0  0  0  0
 17 37  1  0  0  0  0
 18 19  1  0  0  0  0
 19 20  1  0  0  0  0
 19 38  1  0  0  0  0
 19 39  1  0  0  0  0
 20 40  1  0  0  0  0
 20 41  1  0  0  0  0
M  CHG  1   9  -1
M  END
> <s_m_source_file>
AV-unprocessed.smi

> <i_m_source_file_index>
1995

> <i_lp_mmshare_version>
43012

> <i_f3d_flags>
0

> <s_epik_input>
W0NIMl0xW0NIMl1PW0NIMl1bQ0gyXU4xW0NAQF0oW0NIM10pKFtDSDJdW0NIM10pW0NIMl1bTkhdQyg9TylbTkhdYzJuW2NIXVtjSF1zMg==

> <s_epik_cmdline>
J2VwaWtfcHl0aG9uJywgJy1waCcsICc3LjAnLCAnLXRuJywgJzgnLCAnLW1hJywgJzIwMCcsICctbWV0YWxfYmluZGluZycsICctaW1hZScsICc8aW5maWxlLm1hZT4nLCAnLW9tYWUnLCAnPG91dGZpbGUubWFlPic=

> <r_lp_tautomer_probability>
0.999

> <r_epik_Ionization_Penalty>
8.86479

> <r_epik_Ionization_Penalty_Charging>
6.76546

> <r_epik_Ionization_Penalty_Neutral>
2.09933

> <r_epik_State_Penalty>
7.05418

> <r_epik_Charging_Adjusted_Penalty>
13.8196

> <i_epik_Tot_Q>
-1

> <i_epik_Tot_abs_Q>
1

> <r_epik_Metal_State_Penalty>
2.97744

> <b_epik_Metal_Only>
1

> <s_lp_Force_Field>
OPLS_2005

> <r_lp_Energy>
37.8837

> <b_lp_Chiralities_Consistent>
1

> <s_lp_Variant>
AV-unprocessed.smi:1995-6

> <Gold.Version>
5.8.1

> <Gold.Id.Protein>
6NUR|6NUR_protein|mol2

> <Gold.PLP.Fitness>
43.5293

> <Gold.PLP.PLP>
-37.6370

> <Gold.PLP.part.hbond>
-3.9492

> <Gold.PLP.part.metal>
0.0000

> <Gold.PLP.part.buried>
-6.1651

> <Gold.PLP.part.nonpolar>
-30.0398

> <Gold.PLP.part.repulsive>
1.7850

> <Gold.PLP.ligand.clash>
0.0000

> <Gold.PLP.ligand.torsion>
0.9164

> <Gold.PLP.Chemscore.Hbond>
2.5341

> <Gold.PLP.Chemscore.CHOScore>
0.0000

> <Gold.PLP.Chemscore.Metal>
0.0000

> <Gold.Chemscore.Hbonds>
donor molecule, donor type, donor heavy atom, donor atom, acceptor molecule, acceptor atom, score
      P1  H  6896  6907       L1     8  1.00
      P1  H  6931  6943       L1    11  0.93
      P1  H  6934  6947       L1     9  0.49

> <Gold.PLP.Chemscore.Internal.Correction>
0.1229

> <Gold.Rescore>
     Score         DG    S(hbond)    S(metal)    S(lipo)     H(rot)  DE(clash)    DE(int)     intcor
     15.53     -16.87       1.94        0.00      79.25       1.70       0.07       1.27       ----

> <Gold.Chemscore.Fitness>
15.5319

> <Gold.Chemscore.DG>
-16.8739

> <Gold.Chemscore.ZeroCoef>
-5.4800

> <Gold.Chemscore.Hbond>
1.9369

> <Gold.Chemscore.Metal>
0.0000

> <Gold.Chemscore.Lipo>
79.2543

> <Gold.Chemscore.Internal_Hbond>
0.0000

> <Gold.Chemscore.DEClash>
0.0748

> <Gold.Chemscore.DEInternal>
1.2673

> <Gold.Chemscore.Rot>
1.6985

> <Gold.Chemscore.Internal.Correction>
   9.000000E+99

> <Gold.Chemscore.Hbonds>
donor molecule, donor type, donor heavy atom, donor atom, acceptor molecule, acceptor atom, score
      P1  H  6896  6907       L1     8  0.99
      P1  H  6931  6943       L1    11  0.40
      P1  H  6934  6947       L1     9  0.02

> <Gold.Chemscore.Hbond.Weighted>
-6.4694

> <Gold.Chemscore.Metal.Weighted>
-0.0000

> <Gold.Chemscore.Lipo.Weighted>
-9.2728

> <Gold.Chemscore.Internal_Hbond.Weighted>
0.0000

> <Gold.Chemscore.DEClash.Weighted>
0.0748

> <Gold.Chemscore.DEInternal.Weighted>
1.2673

> <Gold.Chemscore.Rot.Weighted>
4.3482

> <Gold.Chemscore.Internal.Correction.Weighted>
   9.000000E+99

> <Gold.Protein.RotatedTorsions>
[ 6907 6896 6895 6894 ] final  -39.07 input  -60.11 | X-H torsion
[ 7974 7965 7964 7962 ] final  -99.00 input  175.53 | X-H torsion
[ 8008 7997 7996 7995 ] final   92.21 input   59.86 | X-H torsion
[ 10167 10162 10161 10158 ] final  -28.69 input  -65.29 | X-H torsion
[ 10718 10713 10712 10709 ] final  -35.54 input   66.30 | X-H torsion
[ 10763 10752 10751 10750 ] final  138.70 input  -60.55 | X-H torsion
[ 11005 11000 10999 10996 ] final -176.40 input  -57.11 | X-H torsion

> <Gold.Protein.ActiveResidues>
 VAL166  LYS551  ARG553  GLY616  TRP617  ASP618  TYR619  PRO620  LYS621  CYS622 
 ASP623  PHE694  ASN695  SER759  ASP760  ASP761  ALA762  ILE779  LEU786  VAL792 
 PHE793  MET794  SER795  GLU796  ALA797  LYS798  CYS799  TRP800  GLU811  SER814 

> <Gold.Protein.RotatedAtoms>
  150.9947  134.9274  159.7919 H   0  0  0  0  0  0  0  0  0  0  0  0  # atno 6907 bound_to 6896
  152.5261  134.3234  159.9166 H   0  0  0  0  0  0  0  0  0  0  0  0  # atno 6908 bound_to 6896
  151.3240  133.3987  159.2691 H   0  0  0  0  0  0  0  0  0  0  0  0  # atno 6909 bound_to 6896
  145.3133  140.9405  143.2757 H   0  0  0  0  0  0  0  0  0  0  0  0  # atno 7974 bound_to 7965
  156.0327  140.3328  155.7157 H   0  0  0  0  0  0  0  0  0  0  0  0  # atno 8008 bound_to 7997
  155.5861  140.0641  157.2788 H   0  0  0  0  0  0  0  0  0  0  0  0  # atno 8009 bound_to 7997
  154.4360  140.1835  156.1014 H   0  0  0  0  0  0  0  0  0  0  0  0  # atno 8010 bound_to 7997
  140.7267  143.3989  151.1298 H   0  0  0  0  0  0  0  0  0  0  0  0  # atno 10167 bound_to 10162
  156.3374  130.4288  149.7818 H   0  0  0  0  0  0  0  0  0  0  0  0  # atno 10718 bound_to 10713
  153.8940  135.3030  155.3448 H   0  0  0  0  0  0  0  0  0  0  0  0  # atno 10763 bound_to 10752
  154.7703  135.4889  153.9638 H   0  0  0  0  0  0  0  0  0  0  0  0  # atno 10764 bound_to 10752
  153.1282  135.6798  153.9321 H   0  0  0  0  0  0  0  0  0  0  0  0  # atno 10765 bound_to 10752
  140.4525  134.6330  157.4807 H   0  0  0  0  0  0  0  0  0  0  0  0  # atno 11005 bound_to 11000
  144.8998  139.4664  143.6638 LP  0  0  0  0  0  0  0  0  0  0  0  0  # atno 17320 bound_to 7965
  146.3110  139.7745  142.9020 LP  0  0  0  0  0  0  0  0  0  0  0  0  # atno 17321 bound_to 7965
  139.7606  143.8641  152.3099 LP  0  0  0  0  0  0  0  0  0  0  0  0  # atno 17342 bound_to 10162
  139.8525  144.7157  150.9196 LP  0  0  0  0  0  0  0  0  0  0  0  0  # atno 17343 bound_to 10162
  156.5067  130.8153  151.3153 LP  0  0  0  0  0  0  0  0  0  0  0  0  # atno 17370 bound_to 10713
  157.7441  130.9927  150.2646 LP  0  0  0  0  0  0  0  0  0  0  0  0  # atno 17371 bound_to 10713
  139.9997  134.6855  155.9550 LP  0  0  0  0  0  0  0  0  0  0  0  0  # atno 17394 bound_to 11000
  141.1658  133.6537  156.4473 LP  0  0  0  0  0  0  0  0  0  0  0  0  # atno 17395 bound_to 11000

$$$$
