AV-unprocessed.smi:876|AV-procd|sdf|4022|dock9
  -GOLD-   22720 1513D 1   1.00000     0.00000
 Structure written by MMmdl.
 41 42  0  0  0  0  0  0  0  0  2 V2000
  144.4751  131.8319  150.5642 C   0  0  0  0  0  0  0  0  0  0  0  0
  144.8087  132.5462  151.7897 N   0  0  0  0  0  0  0  0  0  0  0  0
  145.6841  131.9348  152.7836 C   0  0  0  0  0  0  0  0  0  0  0  0
  144.3215  133.8554  151.9943 C   0  0  0  0  0  0  0  0  0  0  0  0
  144.7929  134.9803  151.2740 C   0  0  0  0  0  0  0  0  0  0  0  0
  144.2582  136.2590  151.5342 C   0  0  0  0  0  0  0  0  0  0  0  0
  143.2436  136.4074  152.5117 C   0  0  0  0  0  0  0  0  0  0  0  0
  142.6456  137.6473  152.8662 N   0  0  0  0  0  0  0  0  0  0  0  0
  141.4113  137.8811  153.3450 C   0  0  0  0  0  0  0  0  0  0  0  0
  140.5645  137.0207  153.5844 O   0  0  0  0  0  0  0  0  0  0  0  0
  141.2110  139.1905  153.5498 N   0  0  0  0  0  0  0  0  0  0  0  0
  139.9763  139.7735  154.0631 C   0  0  1  0  0  0  0  0  0  0  0  0
  138.7898  139.2572  153.2964 C   0  0  0  0  0  0  0  0  0  0  0  0
  137.8669  138.7106  154.0846 C   0  0  0  0  0  0  0  0  0  0  0  0
  138.2500  138.7417  155.5424 C   0  0  1  0  0  0  0  0  0  0  0  0
  138.1907  137.3561  156.2086 C   0  0  0  0  0  0  0  0  0  0  0  0
  139.1378  136.4837  155.6281 O   0  0  0  0  0  0  0  0  0  0  0  0
  139.6752  139.3509  155.5256 C   0  0  0  0  0  0  0  0  0  0  0  0
  142.8185  135.2583  153.2078 C   0  0  0  0  0  0  0  0  0  0  0  0
  143.3583  134.0528  152.9272 N   0  3  0  0  0  0  0  0  0  0  0  0
  139.9997  140.8604  153.9672 H   0  0  0  0  0  0  0  0  0  0  0  0
  137.5695  139.4248  156.0528 H   0  0  0  0  0  0  0  0  0  0  0  0
  144.8526  132.3683  149.6931 H   0  0  0  0  0  0  0  0  0  0  0  0
  143.3947  131.7219  150.4662 H   0  0  0  0  0  0  0  0  0  0  0  0
  144.9122  130.8331  150.5557 H   0  0  0  0  0  0  0  0  0  0  0  0
  145.1787  131.8628  153.7473 H   0  0  0  0  0  0  0  0  0  0  0  0
  146.5914  132.5264  152.9104 H   0  0  0  0  0  0  0  0  0  0  0  0
  145.9806  130.9285  152.4869 H   0  0  0  0  0  0  0  0  0  0  0  0
  145.5642  134.8867  150.5242 H   0  0  0  0  0  0  0  0  0  0  0  0
  144.6504  137.1002  150.9844 H   0  0  0  0  0  0  0  0  0  0  0  0
  143.2477  138.4540  152.7897 H   0  0  0  0  0  0  0  0  0  0  0  0
  141.9602  139.8310  153.3324 H   0  0  0  0  0  0  0  0  0  0  0  0
  138.7125  139.3498  152.2229 H   0  0  0  0  0  0  0  0  0  0  0  0
  136.9306  138.2926  153.7453 H   0  0  0  0  0  0  0  0  0  0  0  0
  138.3803  137.4303  157.2800 H   0  0  0  0  0  0  0  0  0  0  0  0
  137.1992  136.9199  156.0848 H   0  0  0  0  0  0  0  0  0  0  0  0
  139.3128  135.7825  156.2371 H   0  0  0  0  0  0  0  0  0  0  0  0
  140.4053  138.6198  155.8772 H   0  0  0  0  0  0  0  0  0  0  0  0
  139.7431  140.2057  156.1994 H   0  0  0  0  0  0  0  0  0  0  0  0
  142.0605  135.2631  153.9778 H   0  0  0  0  0  0  0  0  0  0  0  0
  143.0213  133.2438  153.4492 H   0  0  0  0  0  0  0  0  0  0  0  0
  1  2  1  0  0  0  0
  1 23  1  0  0  0  0
  1 24  1  0  0  0  0
  1 25  1  0  0  0  0
  2  3  1  0  0  0  0
  2  4  1  0  0  0  0
  3 26  1  0  0  0  0
  3 27  1  0  0  0  0
  3 28  1  0  0  0  0
  4 20  1  0  0  0  0
  4  5  2  0  0  0  0
  5  6  1  0  0  0  0
  5 29  1  0  0  0  0
  6  7  2  0  0  0  0
  6 30  1  0  0  0  0
  7  8  1  0  0  0  0
  7 19  1  0  0  0  0
  8  9  1  0  0  0  0
  8 31  1  0  0  0  0
  9 10  2  0  0  0  0
  9 11  1  0  0  0  0
 11 12  1  0  0  0  0
 11 32  1  0  0  0  0
 12 21  1  0  0  0  0
 12 18  1  0  0  0  0
 12 13  1  0  0  0  0
 13 14  2  0  0  0  0
 13 33  1  0  0  0  0
 14 15  1  0  0  0  0
 14 34  1  0  0  0  0
 15 22  1  0  0  0  0
 15 16  1  0  0  0  0
 15 18  1  0  0  0  0
 16 17  1  0  0  0  0
 16 35  1  0  0  0  0
 16 36  1  0  0  0  0
 17 37  1  0  0  0  0
 18 38  1  0  0  0  0
 18 39  1  0  0  0  0
 19 20  2  0  0  0  0
 19 40  1  0  0  0  0
 20 41  1  0  0  0  0
M  CHG  1  20   1
M  END
> <s_m_source_file>
AV-unprocessed.smi

> <i_m_source_file_index>
876

> <i_lp_mmshare_version>
43012

> <i_f3d_flags>
0

> <s_epik_input>
W0NIM11OKFtDSDNdKWMxW2NIXVtjSF1jKFtjSF1uMSlbTkhdQyg9TylbTkhdW0NAQEhdMltDSF09W0NIXVtDQEBIXShbQ0gyXTIpW0NIMl1bT0hd

> <s_epik_cmdline>
J2VwaWtfcHl0aG9uJywgJy1waCcsICc3LjAnLCAnLXRuJywgJzgnLCAnLW1hJywgJzIwMCcsICctbWV0YWxfYmluZGluZycsICctaW1hZScsICc8aW5maWxlLm1hZT4nLCAnLW9tYWUnLCAnPG91dGZpbGUubWFlPic=

> <r_lp_tautomer_probability>
0.999994

> <r_epik_Ionization_Penalty>
0.257994

> <r_epik_Ionization_Penalty_Charging>
0.257974

> <r_epik_Ionization_Penalty_Neutral>
1.95938e-05

> <r_epik_State_Penalty>
0.249586

> <r_epik_Charging_Adjusted_Penalty>
0.50756

> <i_epik_Tot_Q>
1

> <i_epik_Tot_abs_Q>
1

> <r_epik_Metal_State_Penalty>
0.538508

> <b_epik_Metal_Only>
0

> <s_lp_Force_Field>
OPLS_2005

> <r_lp_Energy>
25.8864

> <b_lp_Chiralities_Consistent>
1

> <s_lp_Variant>
AV-unprocessed.smi:876-4

> <Gold.Version>
5.8.1

> <Gold.Id.Protein>
6NUR|6NUR_protein|mol2

> <Gold.PLP.Fitness>
43.2260

> <Gold.PLP.PLP>
-31.5023

> <Gold.PLP.part.hbond>
-4.9714

> <Gold.PLP.part.metal>
0.0000

> <Gold.PLP.part.buried>
-3.9475

> <Gold.PLP.part.nonpolar>
-23.4018

> <Gold.PLP.part.repulsive>
0.1800

> <Gold.PLP.ligand.clash>
0.0000

> <Gold.PLP.ligand.torsion>
1.6102

> <Gold.PLP.Chemscore.Hbond>
4.9750

> <Gold.PLP.Chemscore.CHOScore>
0.0000

> <Gold.PLP.Chemscore.Metal>
0.0000

> <Gold.Chemscore.Hbonds>
donor molecule, donor type, donor heavy atom, donor atom, acceptor molecule, acceptor atom, score
      L1  H     8    31       P1 10175  0.98
      L1  H    11    32       P1 10175  1.00
      L1  H    17    37       P1 11000  0.99
      L1  H    20    41       P1 10957  2.00

> <Gold.PLP.Chemscore.Internal.Correction>
0.0192

> <Gold.Rescore>
     Score         DG    S(hbond)    S(metal)    S(lipo)     H(rot)  DE(clash)    DE(int)     intcor
     14.84     -19.39       3.40        0.00      61.62       1.82       0.30       4.26       ----

> <Gold.Chemscore.Fitness>
14.8389

> <Gold.Chemscore.DG>
-19.3944

> <Gold.Chemscore.ZeroCoef>
-5.4800

> <Gold.Chemscore.Hbond>
3.4023

> <Gold.Chemscore.Metal>
0.0000

> <Gold.Chemscore.Lipo>
61.6169

> <Gold.Chemscore.Internal_Hbond>
0.0000

> <Gold.Chemscore.DEClash>
0.2994

> <Gold.Chemscore.DEInternal>
4.2561

> <Gold.Chemscore.Rot>
1.8197

> <Gold.Chemscore.Internal.Correction>
   9.000000E+99

> <Gold.Chemscore.Hbonds>
donor molecule, donor type, donor heavy atom, donor atom, acceptor molecule, acceptor atom, score
      L1  H     8    31       P1 10175  0.88
      L1  H    11    32       P1 10175  0.69
      L1  H    17    37       P1 11000  0.52
      L1  H    20    41       P1 10957  0.90

> <Gold.Chemscore.Hbond.Weighted>
-11.3637

> <Gold.Chemscore.Metal.Weighted>
-0.0000

> <Gold.Chemscore.Lipo.Weighted>
-7.2092

> <Gold.Chemscore.Internal_Hbond.Weighted>
0.0000

> <Gold.Chemscore.DEClash.Weighted>
0.2994

> <Gold.Chemscore.DEInternal.Weighted>
4.2561

> <Gold.Chemscore.Rot.Weighted>
4.6585

> <Gold.Chemscore.Internal.Correction.Weighted>
   9.000000E+99

> <Gold.Protein.RotatedTorsions>
[ 6907 6896 6895 6894 ] final   14.70 input  -60.11 | X-H torsion
[ 7974 7965 7964 7962 ] final  -46.87 input  175.53 | X-H torsion
[ 8008 7997 7996 7995 ] final  -22.20 input   59.86 | X-H torsion
[ 10167 10162 10161 10158 ] final    4.81 input  -65.29 | X-H torsion
[ 10718 10713 10712 10709 ] final  -43.38 input   66.30 | X-H torsion
[ 10763 10752 10751 10750 ] final  148.74 input  -60.55 | X-H torsion
[ 11005 11000 10999 10996 ] final  -65.13 input  -57.11 | X-H torsion

> <Gold.Protein.ActiveResidues>
 VAL166  LYS551  ARG553  GLY616  TRP617  ASP618  TYR619  PRO620  LYS621  CYS622 
 ASP623  PHE694  ASN695  SER759  ASP760  ASP761  ALA762  ILE779  LEU786  VAL792 
 PHE793  MET794  SER795  GLU796  ALA797  LYS798  CYS799  TRP800  GLU811  SER814 

> <Gold.Protein.RotatedAtoms>
  151.8064  135.0694  160.0406 H   0  0  0  0  0  0  0  0  0  0  0  0  # atno 6907 bound_to 6896
  152.3052  133.5691  159.5653 H   0  0  0  0  0  0  0  0  0  0  0  0  # atno 6908 bound_to 6896
  150.7293  134.0149  159.3724 H   0  0  0  0  0  0  0  0  0  0  0  0  # atno 6909 bound_to 6896
  145.9675  140.7417  142.9427 H   0  0  0  0  0  0  0  0  0  0  0  0  # atno 7974 bound_to 7965
  154.4658  140.2014  156.0122 H   0  0  0  0  0  0  0  0  0  0  0  0  # atno 8008 bound_to 7997
  156.0924  140.3256  155.7805 H   0  0  0  0  0  0  0  0  0  0  0  0  # atno 8009 bound_to 7997
  155.4933  140.0548  157.2941 H   0  0  0  0  0  0  0  0  0  0  0  0  # atno 8010 bound_to 7997
  140.6515  143.7532  150.7583 H   0  0  0  0  0  0  0  0  0  0  0  0  # atno 10167 bound_to 10162
  156.2496  130.4187  149.8665 H   0  0  0  0  0  0  0  0  0  0  0  0  # atno 10718 bound_to 10713
  154.0596  135.2875  155.3327 H   0  0  0  0  0  0  0  0  0  0  0  0  # atno 10763 bound_to 10752
  154.6816  135.5261  153.8274 H   0  0  0  0  0  0  0  0  0  0  0  0  # atno 10764 bound_to 10752
  153.0528  135.6583  154.0786 H   0  0  0  0  0  0  0  0  0  0  0  0  # atno 10765 bound_to 10752
  141.1445  133.6676  156.5939 H   0  0  0  0  0  0  0  0  0  0  0  0  # atno 11005 bound_to 11000
  144.6829  140.2693  143.7308 LP  0  0  0  0  0  0  0  0  0  0  0  0  # atno 17320 bound_to 7965
  145.7953  139.1943  143.2079 LP  0  0  0  0  0  0  0  0  0  0  0  0  # atno 17321 bound_to 7965
  140.1184  143.4635  152.2328 LP  0  0  0  0  0  0  0  0  0  0  0  0  # atno 17342 bound_to 10162
  139.5731  144.7473  151.3837 LP  0  0  0  0  0  0  0  0  0  0  0  0  # atno 17343 bound_to 10162
  156.6218  130.8629  151.3477 LP  0  0  0  0  0  0  0  0  0  0  0  0  # atno 17370 bound_to 10713
  157.7209  130.9557  150.1436 LP  0  0  0  0  0  0  0  0  0  0  0  0  # atno 17371 bound_to 10713
  140.3741  134.7580  157.4618 LP  0  0  0  0  0  0  0  0  0  0  0  0  # atno 17394 bound_to 11000
  140.0688  134.5892  155.8665 LP  0  0  0  0  0  0  0  0  0  0  0  0  # atno 17395 bound_to 11000

$$$$
