AV-unprocessed.smi:1971|AV-procd|sdf|7963|dock3
  -GOLD-   2272010133D 1   1.00000     0.00000
 Structure written by MMmdl.
 44 45  0  0  0  0  0  0  0  0  2 V2000
  151.6222  144.4562  158.1983 C   0  0  0  0  0  0  0  0  0  0  0  0
  150.4026  143.6328  158.6364 C   0  0  0  0  0  0  0  0  0  0  0  0
  149.8976  142.7402  157.5637 N   0  3  0  0  0  0  0  0  0  0  0  0
  148.8043  141.8556  158.0362 C   0  0  0  0  0  0  0  0  0  0  0  0
  148.2801  140.9744  156.8824 C   0  0  0  0  0  0  0  0  0  0  0  0
  149.3416  140.1327  156.3112 N   0  0  0  0  0  0  0  0  0  0  0  0
  149.8509  139.0568  157.1928 C   0  0  1  0  0  0  0  0  0  0  0  0
  148.6899  138.1529  157.6732 C   0  0  0  0  0  0  0  0  0  0  0  0
  150.9398  138.2207  156.4665 C   0  0  0  0  0  0  0  0  0  0  0  0
  150.3836  137.2701  155.5066 N   0  0  0  0  0  0  0  0  0  0  0  0
  150.3311  135.9396  155.6700 C   0  0  0  0  0  0  0  0  0  0  0  0
  150.7833  135.3568  156.6551 O   0  0  0  0  0  0  0  0  0  0  0  0
  149.7289  135.3459  154.6269 N   0  0  0  0  0  0  0  0  0  0  0  0
  149.4700  133.9644  154.4460 C   0  0  0  0  0  0  0  0  0  0  0  0
  148.8481  133.5649  153.3350 N   0  0  0  0  0  0  0  0  0  0  0  0
  148.6641  132.1796  153.3053 C   0  0  0  0  0  0  0  0  0  0  0  0
  149.1579  131.5335  154.4116 C   0  0  0  0  0  0  0  0  0  0  0  0
  149.8795  132.6443  155.5447 S   0  0  0  0  0  0  0  0  0  0  0  0
  150.3550  141.0600  155.7871 C   0  0  0  0  0  0  0  0  0  0  0  0
  150.9595  141.9415  156.9006 C   0  0  0  0  0  0  0  0  0  0  0  0
  151.8978  145.1718  158.9731 H   0  0  0  0  0  0  0  0  0  0  0  0
  151.4126  145.0200  157.2888 H   0  0  0  0  0  0  0  0  0  0  0  0
  152.4949  143.8298  158.0147 H   0  0  0  0  0  0  0  0  0  0  0  0
  150.6327  143.0510  159.5302 H   0  0  0  0  0  0  0  0  0  0  0  0
  149.6117  144.3301  158.9163 H   0  0  0  0  0  0  0  0  0  0  0  0
  149.1455  141.2467  158.8740 H   0  0  0  0  0  0  0  0  0  0  0  0
  147.9853  142.4695  158.4128 H   0  0  0  0  0  0  0  0  0  0  0  0
  147.4288  140.3795  157.2076 H   0  0  0  0  0  0  0  0  0  0  0  0
  147.8839  141.6159  156.0937 H   0  0  0  0  0  0  0  0  0  0  0  0
  150.3091  139.4977  158.0772 H   0  0  0  0  0  0  0  0  0  0  0  0
  149.0467  137.3166  158.2729 H   0  0  0  0  0  0  0  0  0  0  0  0
  148.1341  137.7381  156.8315 H   0  0  0  0  0  0  0  0  0  0  0  0
  147.9895  138.6825  158.3172 H   0  0  0  0  0  0  0  0  0  0  0  0
  151.6704  138.8806  155.9949 H   0  0  0  0  0  0  0  0  0  0  0  0
  151.4928  137.6046  157.1733 H   0  0  0  0  0  0  0  0  0  0  0  0
  149.9925  137.6573  154.6603 H   0  0  0  0  0  0  0  0  0  0  0  0
  149.4063  135.9490  153.8849 H   0  0  0  0  0  0  0  0  0  0  0  0
  148.1697  131.7344  152.4544 H   0  0  0  0  0  0  0  0  0  0  0  0
  149.1410  130.4757  154.6276 H   0  0  0  0  0  0  0  0  0  0  0  0
  151.1368  140.5345  155.2426 H   0  0  0  0  0  0  0  0  0  0  0  0
  149.8842  141.7015  155.0406 H   0  0  0  0  0  0  0  0  0  0  0  0
  151.6947  142.6075  156.4506 H   0  0  0  0  0  0  0  0  0  0  0  0
  151.4957  141.3385  157.6344 H   0  0  0  0  0  0  0  0  0  0  0  0
  149.4927  143.3342  156.8542 H   0  0  0  0  0  0  0  0  0  0  0  0
  1  2  1  0  0  0  0
  1 21  1  0  0  0  0
  1 22  1  0  0  0  0
  1 23  1  0  0  0  0
  2  3  1  0  0  0  0
  2 24  1  0  0  0  0
  2 25  1  0  0  0  0
  3 20  1  0  0  0  0
  3  4  1  0  0  0  0
  3 44  1  0  0  0  0
  4  5  1  0  0  0  0
  4 26  1  0  0  0  0
  4 27  1  0  0  0  0
  5  6  1  0  0  0  0
  5 28  1  0  0  0  0
  5 29  1  0  0  0  0
  6  7  1  0  0  0  0
  6 19  1  0  0  0  0
  7  8  1  0  0  0  0
  7  9  1  0  0  0  0
  7 30  1  0  0  0  0
  8 31  1  0  0  0  0
  8 32  1  0  0  0  0
  8 33  1  0  0  0  0
  9 10  1  0  0  0  0
  9 34  1  0  0  0  0
  9 35  1  0  0  0  0
 10 11  1  0  0  0  0
 10 36  1  0  0  0  0
 11 12  2  0  0  0  0
 11 13  1  0  0  0  0
 13 14  1  0  0  0  0
 13 37  1  0  0  0  0
 14 18  1  0  0  0  0
 14 15  2  0  0  0  0
 15 16  1  0  0  0  0
 16 17  2  0  0  0  0
 16 38  1  0  0  0  0
 17 18  1  0  0  0  0
 17 39  1  0  0  0  0
 19 20  1  0  0  0  0
 19 40  1  0  0  0  0
 19 41  1  0  0  0  0
 20 42  1  0  0  0  0
 20 43  1  0  0  0  0
M  CHG  1   3   1
M  END
> <s_m_source_file>
AV-unprocessed.smi

> <i_m_source_file_index>
1971

> <i_lp_mmshare_version>
43012

> <i_f3d_flags>
0

> <s_epik_input>
W0NIM11bQ0gyXU4xW0NIMl1bQ0gyXU4oW0NIMl1bQ0gyXTEpW0NASF0oW0NIM10pW0NIMl1bTkhdQyg9TylbTkhdYzJuW2NIXVtjSF1zMg==

> <s_epik_cmdline>
J2VwaWtfcHl0aG9uJywgJy1waCcsICc3LjAnLCAnLXRuJywgJzgnLCAnLW1hJywgJzIwMCcsICctbWV0YWxfYmluZGluZycsICctaW1hZScsICc8aW5maWxlLm1hZT4nLCAnLW9tYWUnLCAnPG91dGZpbGUubWFlPic=

> <r_lp_tautomer_probability>
0.999

> <r_epik_Ionization_Penalty>
0.0459519

> <r_epik_Ionization_Penalty_Charging>
0.0451959

> <r_epik_Ionization_Penalty_Neutral>
0.000756076

> <r_epik_State_Penalty>
0.165541

> <r_epik_Charging_Adjusted_Penalty>
0.210737

> <i_epik_Tot_Q>
1

> <i_epik_Tot_abs_Q>
1

> <r_epik_Metal_State_Penalty>
0.198809

> <b_epik_Metal_Only>
0

> <s_lp_Force_Field>
OPLS_2005

> <r_lp_Energy>
20.1316

> <b_lp_Chiralities_Consistent>
1

> <s_lp_Variant>
AV-unprocessed.smi:1971-2

> <Gold.Version>
5.8.1

> <Gold.Id.Protein>
6NUR|6NUR_protein|mol2

> <Gold.PLP.Fitness>
40.6130

> <Gold.PLP.PLP>
-29.0740

> <Gold.PLP.part.hbond>
-2.0000

> <Gold.PLP.part.metal>
0.0000

> <Gold.PLP.part.buried>
-4.6534

> <Gold.PLP.part.nonpolar>
-23.0539

> <Gold.PLP.part.repulsive>
1.1061

> <Gold.PLP.ligand.clash>
0.0000

> <Gold.PLP.ligand.torsion>
0.2451

> <Gold.PLP.Chemscore.Hbond>
2.9920

> <Gold.PLP.Chemscore.CHOScore>
0.9918

> <Gold.PLP.Chemscore.Metal>
0.0000

> <Gold.Chemscore.Hbonds>
donor molecule, donor type, donor heavy atom, donor atom, acceptor molecule, acceptor atom, score
      L1  H     3    44       P1  8028  2.00
      L1  H    13    37       P1  7948  0.89
      L1  C    16    38       P1 10747  1.00

> <Gold.PLP.Chemscore.Internal.Correction>
0.0778

> <Gold.Rescore>
     Score         DG    S(hbond)    S(metal)    S(lipo)     H(rot)  DE(clash)    DE(int)     intcor
     13.65     -14.85       1.74        0.00      69.58       1.79       0.20       1.01       ----

> <Gold.Chemscore.Fitness>
13.6484

> <Gold.Chemscore.DG>
-14.8517

> <Gold.Chemscore.ZeroCoef>
-5.4800

> <Gold.Chemscore.Hbond>
1.7432

> <Gold.Chemscore.Metal>
0.0000

> <Gold.Chemscore.Lipo>
69.5840

> <Gold.Chemscore.Internal_Hbond>
0.0000

> <Gold.Chemscore.DEClash>
0.1974

> <Gold.Chemscore.DEInternal>
1.0059

> <Gold.Chemscore.Rot>
1.7937

> <Gold.Chemscore.Internal.Correction>
   9.000000E+99

> <Gold.Chemscore.Hbonds>
donor molecule, donor type, donor heavy atom, donor atom, acceptor molecule, acceptor atom, score
      L1  H     3    44       P1  8028  0.98
      L1  H    13    37       P1  7948  0.53

> <Gold.Chemscore.Hbond.Weighted>
-5.8223

> <Gold.Chemscore.Metal.Weighted>
-0.0000

> <Gold.Chemscore.Lipo.Weighted>
-8.1413

> <Gold.Chemscore.Internal_Hbond.Weighted>
0.0000

> <Gold.Chemscore.DEClash.Weighted>
0.1974

> <Gold.Chemscore.DEInternal.Weighted>
1.0059

> <Gold.Chemscore.Rot.Weighted>
4.5919

> <Gold.Chemscore.Internal.Correction.Weighted>
   9.000000E+99

> <Gold.Protein.RotatedTorsions>
[ 6907 6896 6895 6894 ] final  -75.45 input  -60.11 | X-H torsion
[ 7974 7965 7964 7962 ] final   -1.56 input  175.53 | X-H torsion
[ 8008 7997 7996 7995 ] final  160.91 input   59.86 | X-H torsion
[ 10167 10162 10161 10158 ] final  100.21 input  -65.29 | X-H torsion
[ 10718 10713 10712 10709 ] final   42.80 input   66.30 | X-H torsion
[ 10763 10752 10751 10750 ] final   92.90 input  -60.55 | X-H torsion
[ 11005 11000 10999 10996 ] final   32.95 input  -57.11 | X-H torsion

> <Gold.Protein.ActiveResidues>
 VAL166  LYS551  ARG553  GLY616  TRP617  ASP618  TYR619  PRO620  LYS621  CYS622 
 ASP623  PHE694  ASN695  SER759  ASP760  ASP761  ALA762  ILE779  LEU786  VAL792 
 PHE793  MET794  SER795  GLU796  ALA797  LYS798  CYS799  TRP800  GLU811  SER814 

> <Gold.Protein.RotatedAtoms>
  150.7058  134.4718  159.5428 H   0  0  0  0  0  0  0  0  0  0  0  0  # atno 6907 bound_to 6896
  152.2373  134.8260  160.0474 H   0  0  0  0  0  0  0  0  0  0  0  0  # atno 6908 bound_to 6896
  151.9055  133.3513  159.3882 H   0  0  0  0  0  0  0  0  0  0  0  0  # atno 6909 bound_to 6896
  146.2415  140.1439  142.8335 H   0  0  0  0  0  0  0  0  0  0  0  0  # atno 7974 bound_to 7965
  156.2140  140.1791  156.7632 H   0  0  0  0  0  0  0  0  0  0  0  0  # atno 8008 bound_to 7997
  154.5763  140.0674  156.9069 H   0  0  0  0  0  0  0  0  0  0  0  0  # atno 8009 bound_to 7997
  155.2581  140.3334  155.4278 H   0  0  0  0  0  0  0  0  0  0  0  0  # atno 8010 bound_to 7997
  139.7548  144.6973  151.0379 H   0  0  0  0  0  0  0  0  0  0  0  0  # atno 10167 bound_to 10162
  157.4088  130.7902  149.7412 H   0  0  0  0  0  0  0  0  0  0  0  0  # atno 10718 bound_to 10713
  153.2243  135.4345  155.0524 H   0  0  0  0  0  0  0  0  0  0  0  0  # atno 10763 bound_to 10752
  154.8265  135.3364  154.6881 H   0  0  0  0  0  0  0  0  0  0  0  0  # atno 10764 bound_to 10752
  153.7312  135.7011  153.5045 H   0  0  0  0  0  0  0  0  0  0  0  0  # atno 10765 bound_to 10752
  140.2681  134.3113  155.7836 H   0  0  0  0  0  0  0  0  0  0  0  0  # atno 11005 bound_to 11000
  145.0223  140.8804  143.5159 LP  0  0  0  0  0  0  0  0  0  0  0  0  # atno 17320 bound_to 7965
  145.1490  139.2526  143.5451 LP  0  0  0  0  0  0  0  0  0  0  0  0  # atno 17321 bound_to 7965
  140.7801  143.4766  151.0074 LP  0  0  0  0  0  0  0  0  0  0  0  0  # atno 17342 bound_to 10162
  139.8453  143.7509  152.3179 LP  0  0  0  0  0  0  0  0  0  0  0  0  # atno 17343 bound_to 10162
  155.9844  130.3991  150.3311 LP  0  0  0  0  0  0  0  0  0  0  0  0  # atno 17370 bound_to 10713
  157.1447  131.0305  151.2912 LP  0  0  0  0  0  0  0  0  0  0  0  0  # atno 17371 bound_to 10713
  141.2181  133.7450  156.9292 LP  0  0  0  0  0  0  0  0  0  0  0  0  # atno 17394 bound_to 11000
  140.1399  134.9300  157.2452 LP  0  0  0  0  0  0  0  0  0  0  0  0  # atno 17395 bound_to 11000

$$$$
