AV-unprocessed.smi:41|AV-procd|sdf|385|dock10
  -GOLD-   2262016243D 1   1.00000     0.00000
 Structure written by MMmdl.
 26 27  0  0  0  0  0  0  0  0  1 V2000
  154.5681  141.6786  162.8815 N   0  0  0  0  0  0  0  0  0  0  0  0
  153.9294  141.6330  161.7032 C   0  0  0  0  0  0  0  0  0  0  0  0
  154.2027  140.6538  160.8636 N   0  0  0  0  0  0  0  0  0  0  0  0
  153.6034  140.5237  159.6380 C   0  0  0  0  0  0  0  0  0  0  0  0
  153.8813  139.5718  158.9097 O   0  0  0  0  0  0  0  0  0  0  0  0
  152.6694  141.5199  159.2533 N   0  0  0  0  0  0  0  0  0  0  0  0
  151.9507  141.4102  157.9847 C   0  0  2  0  0  0  0  0  0  0  0  0
  150.7801  142.3971  157.8193 C   0  0  0  0  0  0  0  0  0  0  0  0
  149.7093  141.6820  156.5641 S   0  0  0  0  0  0  0  0  0  0  0  0
  150.5489  140.0876  156.7360 C   0  0  1  0  0  0  0  0  0  0  0  0
  151.3046  139.7139  155.4462 C   0  0  0  0  0  0  0  0  0  0  0  0
  150.5344  140.0591  154.3147 O   0  0  0  0  0  0  0  0  0  0  0  0
  151.4422  140.1213  157.8436 O   0  0  0  0  0  0  0  0  0  0  0  0
  152.3486  142.5318  160.1509 C   0  0  0  0  0  0  0  0  0  0  0  0
  152.9470  142.6339  161.3570 C   0  0  0  0  0  0  0  0  0  0  0  0
  152.6318  143.6281  162.2052 F   0  0  0  0  0  0  0  0  0  0  0  0
  152.6442  141.5739  157.1595 H   0  0  0  0  0  0  0  0  0  0  0  0
  149.7796  139.3401  156.9333 H   0  0  0  0  0  0  0  0  0  0  0  0
  154.3631  142.4191  163.5369 H   0  0  0  0  0  0  0  0  0  0  0  0
  155.2545  140.9741  163.1098 H   0  0  0  0  0  0  0  0  0  0  0  0
  150.1948  142.4995  158.7297 H   0  0  0  0  0  0  0  0  0  0  0  0
  151.1480  143.3817  157.5300 H   0  0  0  0  0  0  0  0  0  0  0  0
  152.2350  140.2789  155.3810 H   0  0  0  0  0  0  0  0  0  0  0  0
  151.5712  138.6579  155.4122 H   0  0  0  0  0  0  0  0  0  0  0  0
  149.6806  140.3404  154.6064 H   0  0  0  0  0  0  0  0  0  0  0  0
  151.5936  143.2642  159.9104 H   0  0  0  0  0  0  0  0  0  0  0  0
  1  2  1  0  0  0  0
  1 19  1  0  0  0  0
  1 20  1  0  0  0  0
  2 15  1  0  0  0  0
  2  3  2  0  0  0  0
  3  4  1  0  0  0  0
  4  5  2  0  0  0  0
  4  6  1  0  0  0  0
  6  7  1  0  0  0  0
  6 14  1  0  0  0  0
  7 17  1  0  0  0  0
  7 13  1  0  0  0  0
  7  8  1  0  0  0  0
  8  9  1  0  0  0  0
  8 21  1  0  0  0  0
  8 22  1  0  0  0  0
  9 10  1  0  0  0  0
 10 18  1  0  0  0  0
 10 11  1  0  0  0  0
 10 13  1  0  0  0  0
 11 12  1  0  0  0  0
 11 23  1  0  0  0  0
 11 24  1  0  0  0  0
 12 25  1  0  0  0  0
 14 15  2  0  0  0  0
 14 26  1  0  0  0  0
 15 16  1  0  0  0  0
M  END
> <s_m_source_file>
AV-unprocessed.smi

> <i_m_source_file_index>
41

> <i_lp_mmshare_version>
43012

> <i_f3d_flags>
0

> <s_epik_input>
W05IMl1jMW5jKD1PKW4oW2NIXWMxRilbQ0BASF0yW0NIMl1TW0NAQEhdKE8yKVtDSDJdW09IXQ==

> <s_epik_cmdline>
J2VwaWtfcHl0aG9uJywgJy1waCcsICc3LjAnLCAnLXRuJywgJzgnLCAnLW1hJywgJzIwMCcsICctbWV0YWxfYmluZGluZycsICctaW1hZScsICc8aW5maWxlLm1hZT4nLCAnLW9tYWUnLCAnPG91dGZpbGUubWFlPic=

> <r_lp_tautomer_probability>
1

> <r_epik_Ionization_Penalty>
0.000101883

> <r_epik_Ionization_Penalty_Charging>
1.48607e-08

> <r_epik_Ionization_Penalty_Neutral>
0.000101868

> <r_epik_State_Penalty>
-0

> <r_epik_Charging_Adjusted_Penalty>
1.48607e-08

> <i_epik_Tot_Q>
0

> <i_epik_Tot_abs_Q>
0

> <r_epik_Metal_State_Penalty>
-0

> <b_epik_Metal_Only>
0

> <s_epik_Chemistry_Notes>
This compound contains an acetal/aminal-like group ( X-CH(R)-Y where X, Y are N, S, or O) that may be acid/base labile, releasing an aldehyde.

> <s_lp_Force_Field>
OPLS_2005

> <r_lp_Energy>
16.0015

> <b_lp_Chiralities_Consistent>
1

> <s_lp_Variant>
AV-unprocessed.smi:41-3

> <Gold.Version>
5.8.1

> <Gold.Id.Protein>
6NUR|6NUR_protein|mol2

> <Gold.PLP.Fitness>
39.7444

> <Gold.PLP.PLP>
-34.3585

> <Gold.PLP.part.hbond>
-3.0879

> <Gold.PLP.part.metal>
0.0000

> <Gold.PLP.part.buried>
-3.8611

> <Gold.PLP.part.nonpolar>
-26.9953

> <Gold.PLP.part.repulsive>
0.0137

> <Gold.PLP.ligand.clash>
0.0000

> <Gold.PLP.ligand.torsion>
0.3288

> <Gold.PLP.Chemscore.Hbond>
2.0000

> <Gold.PLP.Chemscore.CHOScore>
0.0000

> <Gold.PLP.Chemscore.Metal>
0.0000

> <Gold.Chemscore.Hbonds>
donor molecule, donor type, donor heavy atom, donor atom, acceptor molecule, acceptor atom, score
      P1  H  7989  7998       L1    12  1.00
      P1  H  7997  8010       L1     5  1.00

> <Gold.PLP.Chemscore.Internal.Correction>
0.0436

> <Gold.Rescore>
     Score         DG    S(hbond)    S(metal)    S(lipo)     H(rot)  DE(clash)    DE(int)     intcor
      8.68     -11.30       1.84        0.00      45.21       2.19       1.03       1.59       ----

> <Gold.Chemscore.Fitness>
8.6766

> <Gold.Chemscore.DG>
-11.3003

> <Gold.Chemscore.ZeroCoef>
-5.4800

> <Gold.Chemscore.Hbond>
1.8396

> <Gold.Chemscore.Metal>
0.0000

> <Gold.Chemscore.Lipo>
45.2107

> <Gold.Chemscore.Internal_Hbond>
0.0000

> <Gold.Chemscore.DEClash>
1.0309

> <Gold.Chemscore.DEInternal>
1.5928

> <Gold.Chemscore.Rot>
2.1929

> <Gold.Chemscore.Internal.Correction>
   9.000000E+99

> <Gold.Chemscore.Hbonds>
donor molecule, donor type, donor heavy atom, donor atom, acceptor molecule, acceptor atom, score
      P1  H  7989  7998       L1    12  0.25
      P1  H  7997  8010       L1     5  0.90

> <Gold.Chemscore.Hbond.Weighted>
-6.1443

> <Gold.Chemscore.Metal.Weighted>
-0.0000

> <Gold.Chemscore.Lipo.Weighted>
-5.2897

> <Gold.Chemscore.Internal_Hbond.Weighted>
0.0000

> <Gold.Chemscore.DEClash.Weighted>
1.0309

> <Gold.Chemscore.DEInternal.Weighted>
1.5928

> <Gold.Chemscore.Rot.Weighted>
5.6137

> <Gold.Chemscore.Internal.Correction.Weighted>
   9.000000E+99

> <Gold.Protein.RotatedTorsions>
[ 6907 6896 6895 6894 ] final  -34.49 input  -60.11 | X-H torsion
[ 7974 7965 7964 7962 ] final   49.54 input  175.53 | X-H torsion
[ 8008 7997 7996 7995 ] final   18.26 input   59.86 | X-H torsion
[ 10167 10162 10161 10158 ] final   13.18 input  -65.29 | X-H torsion
[ 10718 10713 10712 10709 ] final    5.14 input   66.30 | X-H torsion
[ 10763 10752 10751 10750 ] final -114.89 input  -60.55 | X-H torsion
[ 11005 11000 10999 10996 ] final -164.71 input  -57.11 | X-H torsion

> <Gold.Protein.ActiveResidues>
 VAL166  LYS551  ARG553  GLY616  TRP617  ASP618  TYR619  PRO620  LYS621  CYS622 
 ASP623  PHE694  ASN695  SER759  ASP760  ASP761  ALA762  ILE779  LEU786  VAL792 
 PHE793  MET794  SER795  GLU796  ALA797  LYS798  CYS799  TRP800  GLU811  SER814 

> <Gold.Protein.RotatedAtoms>
  151.0520  134.9679  159.8215 H   0  0  0  0  0  0  0  0  0  0  0  0  # atno 6907 bound_to 6896
  152.5382  134.2525  159.8914 H   0  0  0  0  0  0  0  0  0  0  0  0  # atno 6908 bound_to 6896
  151.2542  133.4292  159.2646 H   0  0  0  0  0  0  0  0  0  0  0  0  # atno 6909 bound_to 6896
  146.0099  139.4532  142.9962 H   0  0  0  0  0  0  0  0  0  0  0  0  # atno 7974 bound_to 7965
  154.9035  140.3004  155.5305 H   0  0  0  0  0  0  0  0  0  0  0  0  # atno 8008 bound_to 7997
  156.3017  140.2402  156.4001 H   0  0  0  0  0  0  0  0  0  0  0  0  # atno 8009 bound_to 7997
  154.8497  140.0410  157.1585 H   0  0  0  0  0  0  0  0  0  0  0  0  # atno 8010 bound_to 7997
  140.6019  143.8586  150.6974 H   0  0  0  0  0  0  0  0  0  0  0  0  # atno 10167 bound_to 10162
  156.9029  130.5728  149.5648 H   0  0  0  0  0  0  0  0  0  0  0  0  # atno 10718 bound_to 10713
  154.8459  135.4401  154.1576 H   0  0  0  0  0  0  0  0  0  0  0  0  # atno 10763 bound_to 10752
  153.2721  135.6946  153.7476 H   0  0  0  0  0  0  0  0  0  0  0  0  # atno 10764 bound_to 10752
  153.6712  135.3418  155.3129 H   0  0  0  0  0  0  0  0  0  0  0  0  # atno 10765 bound_to 10752
  140.5838  134.5114  157.5182 H   0  0  0  0  0  0  0  0  0  0  0  0  # atno 11005 bound_to 11000
  145.7358  141.0026  143.1327 LP  0  0  0  0  0  0  0  0  0  0  0  0  # atno 17320 bound_to 7965
  144.6949  139.9039  143.7460 LP  0  0  0  0  0  0  0  0  0  0  0  0  # atno 17321 bound_to 7965
  140.2134  143.3865  152.1700 LP  0  0  0  0  0  0  0  0  0  0  0  0  # atno 17342 bound_to 10162
  139.5297  144.7145  151.5099 LP  0  0  0  0  0  0  0  0  0  0  0  0  # atno 17343 bound_to 10162
  156.0573  130.5632  150.9118 LP  0  0  0  0  0  0  0  0  0  0  0  0  # atno 17370 bound_to 10713
  157.6015  131.0941  150.8952 LP  0  0  0  0  0  0  0  0  0  0  0  0  # atno 17371 bound_to 10713
  139.9305  134.7973  156.0945 LP  0  0  0  0  0  0  0  0  0  0  0  0  # atno 17394 bound_to 11000
  141.0979  133.6688  156.2687 LP  0  0  0  0  0  0  0  0  0  0  0  0  # atno 17395 bound_to 11000

$$$$
