AV-unprocessed.smi:1825|AV-procd|sdf|7413|dock4
  -GOLD-   22720 9 93D 1   1.00000     0.00000
 Structure written by MMmdl.
 34 35  0  0  0  0  0  0  0  0  1 V2000
  144.3338  136.4325  152.4577 O   0  0  0  0  0  0  0  0  0  0  0  0
  145.5511  136.3521  152.2908 C   0  0  0  0  0  0  0  0  0  0  0  0
  146.4308  137.2162  152.8165 N   0  0  0  0  0  0  0  0  0  0  0  0
  146.0844  138.3917  153.6118 C   0  0  0  0  0  0  0  0  0  0  0  0
  147.1579  139.5085  153.5554 C   0  0  0  0  0  0  0  0  0  0  0  0
  147.3666  139.8149  152.1887 O   0  0  0  0  0  0  0  0  0  0  0  0
  146.6080  140.7894  154.2285 C   0  0  0  0  0  0  0  0  0  0  0  0
  147.6387  141.9309  154.2922 C   0  0  0  0  0  0  0  0  0  0  0  0
  148.9337  141.4740  154.9774 C   0  0  0  0  0  0  0  0  0  0  0  0
  149.5223  140.2450  154.2713 C   0  0  0  0  0  0  0  0  0  0  0  0
  148.5049  139.0918  154.2011 C   0  0  0  0  0  0  0  0  0  0  0  0
  146.1750  135.4080  151.5649 N   0  0  0  0  0  0  0  0  0  0  0  0
  145.5985  134.3233  150.8541 C   0  0  0  0  0  0  0  0  0  0  0  0
  144.3163  134.2644  150.4753 N   0  0  0  0  0  0  0  0  0  0  0  0
  144.0245  133.0802  149.7941 C   0  0  0  0  0  0  0  0  0  0  0  0
  145.1038  132.2424  149.6626 C   0  0  0  0  0  0  0  0  0  0  0  0
  146.5380  132.9107  150.3946 S   0  0  0  0  0  0  0  0  0  0  0  0
  147.4116  137.0703  152.6284 H   0  0  0  0  0  0  0  0  0  0  0  0
  145.1003  138.7791  153.3410 H   0  0  0  0  0  0  0  0  0  0  0  0
  145.9880  138.0387  154.6390 H   0  0  0  0  0  0  0  0  0  0  0  0
  148.2954  139.7984  152.0168 H   0  0  0  0  0  0  0  0  0  0  0  0
  145.7112  141.1334  153.7111 H   0  0  0  0  0  0  0  0  0  0  0  0
  146.2943  140.5540  155.2466 H   0  0  0  0  0  0  0  0  0  0  0  0
  147.8615  142.2872  153.2857 H   0  0  0  0  0  0  0  0  0  0  0  0
  147.2157  142.7798  154.8295 H   0  0  0  0  0  0  0  0  0  0  0  0
  149.6609  142.2864  154.9788 H   0  0  0  0  0  0  0  0  0  0  0  0
  148.7321  141.2357  156.0226 H   0  0  0  0  0  0  0  0  0  0  0  0
  149.8392  140.5186  153.2642 H   0  0  0  0  0  0  0  0  0  0  0  0
  150.4197  139.9131  154.7940 H   0  0  0  0  0  0  0  0  0  0  0  0
  148.3181  138.7278  155.2123 H   0  0  0  0  0  0  0  0  0  0  0  0
  148.9530  138.2595  153.6571 H   0  0  0  0  0  0  0  0  0  0  0  0
  147.1803  135.4776  151.5081 H   0  0  0  0  0  0  0  0  0  0  0  0
  143.0191  132.9146  149.4360 H   0  0  0  0  0  0  0  0  0  0  0  0
  145.1417  131.2762  149.1820 H   0  0  0  0  0  0  0  0  0  0  0  0
  1  2  2  0  0  0  0
  2  3  1  0  0  0  0
  2 12  1  0  0  0  0
  3  4  1  0  0  0  0
  3 18  1  0  0  0  0
  4  5  1  0  0  0  0
  4 19  1  0  0  0  0
  4 20  1  0  0  0  0
  5 11  1  0  0  0  0
  5  6  1  0  0  0  0
  5  7  1  0  0  0  0
  6 21  1  0  0  0  0
  7  8  1  0  0  0  0
  7 22  1  0  0  0  0
  7 23  1  0  0  0  0
  8  9  1  0  0  0  0
  8 24  1  0  0  0  0
  8 25  1  0  0  0  0
  9 10  1  0  0  0  0
  9 26  1  0  0  0  0
  9 27  1  0  0  0  0
 10 11  1  0  0  0  0
 10 28  1  0  0  0  0
 10 29  1  0  0  0  0
 11 30  1  0  0  0  0
 11 31  1  0  0  0  0
 12 13  1  0  0  0  0
 12 32  1  0  0  0  0
 13 17  1  0  0  0  0
 13 14  2  0  0  0  0
 14 15  1  0  0  0  0
 15 16  2  0  0  0  0
 15 33  1  0  0  0  0
 16 17  1  0  0  0  0
 16 34  1  0  0  0  0
M  END
> <s_m_source_file>
AV-unprocessed.smi

> <i_m_source_file_index>
1825

> <i_lp_mmshare_version>
43012

> <i_f3d_flags>
0

> <s_epik_input>
czFbY0hdW2NIXW5jMVtOSF1DKD1PKVtOSF1bQ0gyXUMyKFtPSF0pW0NIMl1bQ0gyXVtDSDJdW0NIMl1bQ0gyXTI=

> <s_epik_cmdline>
J2VwaWtfcHl0aG9uJywgJy1waCcsICc3LjAnLCAnLXRuJywgJzgnLCAnLW1hJywgJzIwMCcsICctbWV0YWxfYmluZGluZycsICctaW1hZScsICc8aW5maWxlLm1hZT4nLCAnLW9tYWUnLCAnPG91dGZpbGUubWFlPic=

> <r_lp_tautomer_probability>
0.999

> <r_epik_Ionization_Penalty>
0.000358719

> <r_epik_Ionization_Penalty_Charging>
0

> <r_epik_Ionization_Penalty_Neutral>
0.000358719

> <r_epik_State_Penalty>
0.000177984

> <r_epik_Charging_Adjusted_Penalty>
0.000177984

> <i_epik_Tot_Q>
0

> <i_epik_Tot_abs_Q>
0

> <r_epik_Metal_State_Penalty>
0.00708714

> <b_epik_Metal_Only>
0

> <s_lp_Force_Field>
OPLS_2005

> <r_lp_Energy>
11.7205

> <b_lp_Chiralities_Consistent>
1

> <s_lp_Variant>
AV-unprocessed.smi:1825-1

> <Gold.Version>
5.8.1

> <Gold.Id.Protein>
6NUR|6NUR_protein|mol2

> <Gold.PLP.Fitness>
42.2873

> <Gold.PLP.PLP>
-30.9439

> <Gold.PLP.part.hbond>
-2.5180

> <Gold.PLP.part.metal>
0.0000

> <Gold.PLP.part.buried>
-4.4263

> <Gold.PLP.part.nonpolar>
-25.7052

> <Gold.PLP.part.repulsive>
0.4632

> <Gold.PLP.ligand.clash>
0.0000

> <Gold.PLP.ligand.torsion>
0.2990

> <Gold.PLP.Chemscore.Hbond>
2.9833

> <Gold.PLP.Chemscore.CHOScore>
0.9935

> <Gold.PLP.Chemscore.Metal>
0.0000

> <Gold.Chemscore.Hbonds>
donor molecule, donor type, donor heavy atom, donor atom, acceptor molecule, acceptor atom, score
      L1  H     3    18       P1  7948  1.00
      L1  H     6    21       P1  7957  1.00
      L1  H    12    32       P1  7948  1.00
      L1  C    15    33       P1 10186  1.00

> <Gold.PLP.Chemscore.Internal.Correction>
0.0108

> <Gold.Rescore>
     Score         DG    S(hbond)    S(metal)    S(lipo)     H(rot)  DE(clash)    DE(int)     intcor
     17.28     -18.79       2.88        0.00      72.08       1.86       0.02       1.49       ----

> <Gold.Chemscore.Fitness>
17.2758

> <Gold.Chemscore.DG>
-18.7913

> <Gold.Chemscore.ZeroCoef>
-5.4800

> <Gold.Chemscore.Hbond>
2.8839

> <Gold.Chemscore.Metal>
0.0000

> <Gold.Chemscore.Lipo>
72.0832

> <Gold.Chemscore.Internal_Hbond>
0.0000

> <Gold.Chemscore.DEClash>
0.0222

> <Gold.Chemscore.DEInternal>
1.4932

> <Gold.Chemscore.Rot>
1.8572

> <Gold.Chemscore.Internal.Correction>
   9.000000E+99

> <Gold.Chemscore.Hbonds>
donor molecule, donor type, donor heavy atom, donor atom, acceptor molecule, acceptor atom, score
      L1  H     3    18       P1  7948  0.99
      L1  H     6    21       P1  7957  0.94
      L1  H    12    32       P1  7948  0.97

> <Gold.Chemscore.Hbond.Weighted>
-9.6321

> <Gold.Chemscore.Metal.Weighted>
-0.0000

> <Gold.Chemscore.Lipo.Weighted>
-8.4337

> <Gold.Chemscore.Internal_Hbond.Weighted>
0.0000

> <Gold.Chemscore.DEClash.Weighted>
0.0222

> <Gold.Chemscore.DEInternal.Weighted>
1.4932

> <Gold.Chemscore.Rot.Weighted>
4.7545

> <Gold.Chemscore.Internal.Correction.Weighted>
   9.000000E+99

> <Gold.Protein.RotatedTorsions>
[ 6907 6896 6895 6894 ] final -118.96 input  -60.11 | X-H torsion
[ 7974 7965 7964 7962 ] final  -99.84 input  175.53 | X-H torsion
[ 8008 7997 7996 7995 ] final   23.41 input   59.86 | X-H torsion
[ 10167 10162 10161 10158 ] final   13.55 input  -65.29 | X-H torsion
[ 10718 10713 10712 10709 ] final  173.19 input   66.30 | X-H torsion
[ 10763 10752 10751 10750 ] final -106.19 input  -60.55 | X-H torsion
[ 11005 11000 10999 10996 ] final  -98.01 input  -57.11 | X-H torsion

> <Gold.Protein.ActiveResidues>
 VAL166  LYS551  ARG553  GLY616  TRP617  ASP618  TYR619  PRO620  LYS621  CYS622 
 ASP623  PHE694  ASN695  SER759  ASP760  ASP761  ALA762  ILE779  LEU786  VAL792 
 PHE793  MET794  SER795  GLU796  ALA797  LYS798  CYS799  TRP800  GLU811  SER814 

> <Gold.Protein.RotatedAtoms>
  150.8264  133.8164  159.3116 H   0  0  0  0  0  0  0  0  0  0  0  0  # atno 6907 bound_to 6896
  151.5907  135.1052  160.0048 H   0  0  0  0  0  0  0  0  0  0  0  0  # atno 6908 bound_to 6896
  152.4349  133.7302  159.6639 H   0  0  0  0  0  0  0  0  0  0  0  0  # atno 6909 bound_to 6896
  145.3023  140.9380  143.2816 H   0  0  0  0  0  0  0  0  0  0  0  0  # atno 7974 bound_to 7965
  154.9805  140.3101  155.4948 H   0  0  0  0  0  0  0  0  0  0  0  0  # atno 8008 bound_to 7997
  156.2954  140.2267  156.4844 H   0  0  0  0  0  0  0  0  0  0  0  0  # atno 8009 bound_to 7997
  154.7793  140.0447  157.1103 H   0  0  0  0  0  0  0  0  0  0  0  0  # atno 8010 bound_to 7997
  140.5995  143.8634  150.6951 H   0  0  0  0  0  0  0  0  0  0  0  0  # atno 10167 bound_to 10162
  156.9680  131.0081  151.2912 H   0  0  0  0  0  0  0  0  0  0  0  0  # atno 10718 bound_to 10713
  154.7996  135.4721  154.0243 H   0  0  0  0  0  0  0  0  0  0  0  0  # atno 10763 bound_to 10752
  153.1759  135.6833  153.8551 H   0  0  0  0  0  0  0  0  0  0  0  0  # atno 10764 bound_to 10752
  153.8117  135.3216  155.3379 H   0  0  0  0  0  0  0  0  0  0  0  0  # atno 10765 bound_to 10752
  141.1360  133.8213  157.0782 H   0  0  0  0  0  0  0  0  0  0  0  0  # atno 11005 bound_to 11000
  144.9083  139.4561  143.6599 LP  0  0  0  0  0  0  0  0  0  0  0  0  # atno 17320 bound_to 7965
  146.3147  139.7877  142.8992 LP  0  0  0  0  0  0  0  0  0  0  0  0  # atno 17321 bound_to 7965
  140.2176  143.3834  152.1668 LP  0  0  0  0  0  0  0  0  0  0  0  0  # atno 17342 bound_to 10162
  139.5281  144.7127  151.5155 LP  0  0  0  0  0  0  0  0  0  0  0  0  # atno 17343 bound_to 10162
  157.5612  130.8247  149.8269 LP  0  0  0  0  0  0  0  0  0  0  0  0  # atno 17370 bound_to 10713
  156.0295  130.3769  150.1729 LP  0  0  0  0  0  0  0  0  0  0  0  0  # atno 17371 bound_to 10713
  140.0468  134.9826  157.1064 LP  0  0  0  0  0  0  0  0  0  0  0  0  # atno 17394 bound_to 11000
  140.4050  134.2042  155.7163 LP  0  0  0  0  0  0  0  0  0  0  0  0  # atno 17395 bound_to 11000

$$$$
