AV-unprocessed.smi:3314|AV-procd|sdf|12740|dock7
  -GOLD-   2272019 83D 1   1.00000     0.00000
 Structure written by MMmdl.
 38 39  0  0  0  0  0  0  0  0  2 V2000
  152.3185  144.2267  161.5312 C   0  0  0  0  0  0  0  0  0  0  0  0
  152.5316  142.9992  160.6693 C   0  0  0  0  0  0  0  0  0  0  0  0
  153.4005  141.9255  161.1209 C   0  0  0  0  0  0  0  0  0  0  0  0
  153.5756  140.8447  160.3417 C   0  0  0  0  0  0  0  0  0  0  0  0
  154.4578  139.6721  160.7156 C   0  0  0  0  0  0  0  0  0  0  0  0
  152.9367  140.7405  159.1126 N   0  0  0  0  0  0  0  0  0  0  0  0
  152.0824  141.7351  158.6047 C   0  0  0  0  0  0  0  0  0  0  0  0
  151.4621  141.6867  157.4615 N   0  0  0  0  0  0  0  0  0  0  0  0
  151.5731  140.6054  156.5914 C   0  0  0  0  0  0  0  0  0  0  0  0
  152.5412  139.8706  156.3752 O   0  0  0  0  0  0  0  0  0  0  0  0
  150.2709  140.3553  155.8213 C   0  0  1  0  0  0  0  0  0  0  0  0
  149.2112  141.4246  156.1628 C   0  0  0  0  0  0  0  0  0  0  0  0
  147.9953  141.2297  155.3400 N   0  3  1  0  0  0  0  0  0  0  0  0
  146.9303  142.2054  155.6559 C   0  0  0  0  0  0  0  0  0  0  0  0
  148.3316  141.1963  153.8987 C   0  0  0  0  0  0  0  0  0  0  0  0
  149.4083  140.1331  153.6284 C   0  0  0  0  0  0  0  0  0  0  0  0
  150.5544  140.4052  154.4250 O   0  0  0  0  0  0  0  0  0  0  0  0
  151.9132  142.8930  159.4695 C   0  0  0  0  0  0  0  0  0  0  0  0
  152.8862  144.1607  162.4599 H   0  0  0  0  0  0  0  0  0  0  0  0
  151.2634  144.3339  161.7843 H   0  0  0  0  0  0  0  0  0  0  0  0
  152.6388  145.1234  160.9999 H   0  0  0  0  0  0  0  0  0  0  0  0
  153.9015  141.9964  162.0753 H   0  0  0  0  0  0  0  0  0  0  0  0
  154.9133  139.8174  161.6957 H   0  0  0  0  0  0  0  0  0  0  0  0
  155.2569  139.5504  159.9839 H   0  0  0  0  0  0  0  0  0  0  0  0
  153.8744  138.7514  160.7448 H   0  0  0  0  0  0  0  0  0  0  0  0
  149.8909  139.3609  156.0668 H   0  0  0  0  0  0  0  0  0  0  0  0
  148.9451  141.3646  157.2194 H   0  0  0  0  0  0  0  0  0  0  0  0
  149.6092  142.4265  155.9891 H   0  0  0  0  0  0  0  0  0  0  0  0
  147.2520  143.2235  155.4325 H   0  0  0  0  0  0  0  0  0  0  0  0
  146.6644  142.1546  156.7123 H   0  0  0  0  0  0  0  0  0  0  0  0
  146.0313  141.9952  155.0754 H   0  0  0  0  0  0  0  0  0  0  0  0
  147.4367  140.9756  153.3156 H   0  0  0  0  0  0  0  0  0  0  0  0
  148.6886  142.1774  153.5814 H   0  0  0  0  0  0  0  0  0  0  0  0
  149.0313  139.1314  153.8404 H   0  0  0  0  0  0  0  0  0  0  0  0
  149.6968  140.1489  152.5771 H   0  0  0  0  0  0  0  0  0  0  0  0
  151.2749  143.7113  159.1675 H   0  0  0  0  0  0  0  0  0  0  0  0
  153.1193  139.8962  158.5891 H   0  0  0  0  0  0  0  0  0  0  0  0
  147.6309  140.3171  155.5737 H   0  0  0  0  0  0  0  0  0  0  0  0
  1  2  1  0  0  0  0
  1 19  1  0  0  0  0
  1 20  1  0  0  0  0
  1 21  1  0  0  0  0
  2 18  2  0  0  0  0
  2  3  1  0  0  0  0
  3  4  2  0  0  0  0
  3 22  1  0  0  0  0
  4  5  1  0  0  0  0
  4  6  1  0  0  0  0
  5 23  1  0  0  0  0
  5 24  1  0  0  0  0
  5 25  1  0  0  0  0
  6  7  1  0  0  0  0
  6 37  1  0  0  0  0
  7  8  2  0  0  0  0
  7 18  1  0  0  0  0
  8  9  1  0  0  0  0
  9 10  2  0  0  0  0
  9 11  1  0  0  0  0
 11 17  1  0  0  0  0
 11 12  1  0  0  0  0
 11 26  1  0  0  0  0
 12 13  1  0  0  0  0
 12 27  1  0  0  0  0
 12 28  1  0  0  0  0
 13 14  1  0  0  0  0
 13 15  1  0  0  0  0
 13 38  1  0  0  0  0
 14 29  1  0  0  0  0
 14 30  1  0  0  0  0
 14 31  1  0  0  0  0
 15 16  1  0  0  0  0
 15 32  1  0  0  0  0
 15 33  1  0  0  0  0
 16 17  1  0  0  0  0
 16 34  1  0  0  0  0
 16 35  1  0  0  0  0
 18 36  1  0  0  0  0
M  CHG  1  13   1
M  END
> <s_m_source_file>
AV-unprocessed.smi

> <i_m_source_file_index>
3314

> <i_lp_mmshare_version>
43012

> <i_f3d_flags>
0

> <s_epik_input>
W0NIM11jMVtjSF1jKFtDSDNdKW5jKFtjSF0xKVtOSF1DKD1PKVtDQEBIXTJbQ0gyXU4oW0NIM10pW0NIMl1bQ0gyXU8y

> <s_epik_cmdline>
J2VwaWtfcHl0aG9uJywgJy1waCcsICc3LjAnLCAnLXRuJywgJzgnLCAnLW1hJywgJzIwMCcsICctbWV0YWxfYmluZGluZycsICctaW1hZScsICc8aW5maWxlLm1hZT4nLCAnLW9tYWUnLCAnPG91dGZpbGUubWFlPic=

> <r_epik_Ionization_Penalty>
0.519783

> <r_epik_Ionization_Penalty_Charging>
0.519783

> <r_epik_Ionization_Penalty_Neutral>
1.74183e-13

> <r_epik_State_Penalty>
2.39351

> <r_epik_Charging_Adjusted_Penalty>
2.91329

> <i_epik_Tot_Q>
1

> <i_epik_Tot_abs_Q>
1

> <r_epik_Metal_State_Penalty>
2.41924

> <b_epik_Metal_Only>
0

> <s_lp_Force_Field>
OPLS_2005

> <r_lp_Energy>
34.3137

> <b_lp_Chiralities_Consistent>
1

> <s_lp_Variant>
AV-unprocessed.smi:3314-10

> <Gold.Version>
5.8.1

> <Gold.Id.Protein>
6NUR|6NUR_protein|mol2

> <Gold.PLP.Fitness>
39.4054

> <Gold.PLP.PLP>
-33.9124

> <Gold.PLP.part.hbond>
-2.0000

> <Gold.PLP.part.metal>
0.0000

> <Gold.PLP.part.buried>
-0.4897

> <Gold.PLP.part.nonpolar>
-31.4901

> <Gold.PLP.part.repulsive>
0.2599

> <Gold.PLP.ligand.clash>
0.0000

> <Gold.PLP.ligand.torsion>
0.2536

> <Gold.PLP.Chemscore.Hbond>
2.0000

> <Gold.PLP.Chemscore.CHOScore>
0.0000

> <Gold.PLP.Chemscore.Metal>
0.0000

> <Gold.Chemscore.Hbonds>
donor molecule, donor type, donor heavy atom, donor atom, acceptor molecule, acceptor atom, score
      P1  H  7989  7998       L1    17  0.91
      P1  H  7997  8009       L1    10  1.00

> <Gold.PLP.Chemscore.Internal.Correction>
0.0002

> <Gold.Rescore>
     Score         DG    S(hbond)    S(metal)    S(lipo)     H(rot)  DE(clash)    DE(int)     intcor
     17.23     -19.52       1.86        0.00      88.87       1.00       0.58       1.72       ----

> <Gold.Chemscore.Fitness>
17.2289

> <Gold.Chemscore.DG>
-19.5195

> <Gold.Chemscore.ZeroCoef>
-5.4800

> <Gold.Chemscore.Hbond>
1.8568

> <Gold.Chemscore.Metal>
0.0000

> <Gold.Chemscore.Lipo>
88.8689

> <Gold.Chemscore.Internal_Hbond>
0.0000

> <Gold.Chemscore.DEClash>
0.5755

> <Gold.Chemscore.DEInternal>
1.7150

> <Gold.Chemscore.Rot>
1.0000

> <Gold.Chemscore.Internal.Correction>
   9.000000E+99

> <Gold.Chemscore.Hbonds>
donor molecule, donor type, donor heavy atom, donor atom, acceptor molecule, acceptor atom, score
      P1  H  7989  7998       L1    17  0.47
      P1  H  7997  8009       L1    10  1.00

> <Gold.Chemscore.Hbond.Weighted>
-6.2018

> <Gold.Chemscore.Metal.Weighted>
-0.0000

> <Gold.Chemscore.Lipo.Weighted>
-10.3977

> <Gold.Chemscore.Internal_Hbond.Weighted>
0.0000

> <Gold.Chemscore.DEClash.Weighted>
0.5755

> <Gold.Chemscore.DEInternal.Weighted>
1.7150

> <Gold.Chemscore.Rot.Weighted>
2.5600

> <Gold.Chemscore.Internal.Correction.Weighted>
   9.000000E+99

> <Gold.Protein.RotatedTorsions>
[ 6907 6896 6895 6894 ] final  -22.52 input  -60.11 | X-H torsion
[ 7974 7965 7964 7962 ] final   16.99 input  175.53 | X-H torsion
[ 8008 7997 7996 7995 ] final -169.10 input   59.86 | X-H torsion
[ 10167 10162 10161 10158 ] final   66.67 input  -65.29 | X-H torsion
[ 10718 10713 10712 10709 ] final -146.21 input   66.30 | X-H torsion
[ 10763 10752 10751 10750 ] final -105.33 input  -60.55 | X-H torsion
[ 11005 11000 10999 10996 ] final  138.05 input  -57.11 | X-H torsion

> <Gold.Protein.ActiveResidues>
 VAL166  LYS551  ARG553  GLY616  TRP617  ASP618  TYR619  PRO620  LYS621  CYS622 
 ASP623  PHE694  ASN695  SER759  ASP760  ASP761  ALA762  ILE779  LEU786  VAL792 
 PHE793  MET794  SER795  GLU796  ALA797  LYS798  CYS799  TRP800  GLU811  SER814 

> <Gold.Protein.RotatedAtoms>
  151.2174  135.0505  159.8935 H   0  0  0  0  0  0  0  0  0  0  0  0  # atno 6907 bound_to 6896
  152.5419  134.0678  159.8190 H   0  0  0  0  0  0  0  0  0  0  0  0  # atno 6908 bound_to 6896
  151.0839  133.5320  159.2650 H   0  0  0  0  0  0  0  0  0  0  0  0  # atno 6909 bound_to 6896
  146.2232  139.8668  142.8594 H   0  0  0  0  0  0  0  0  0  0  0  0  # atno 7974 bound_to 7965
  155.9004  140.1040  157.1354 H   0  0  0  0  0  0  0  0  0  0  0  0  # atno 8008 bound_to 7997
  154.4025  140.1294  156.4492 H   0  0  0  0  0  0  0  0  0  0  0  0  # atno 8009 bound_to 7997
  155.7430  140.3466  155.5115 H   0  0  0  0  0  0  0  0  0  0  0  0  # atno 8010 bound_to 7997
  140.0979  144.4930  150.7056 H   0  0  0  0  0  0  0  0  0  0  0  0  # atno 10167 bound_to 10162
  156.3921  130.7891  151.2094 H   0  0  0  0  0  0  0  0  0  0  0  0  # atno 10718 bound_to 10713
  154.7939  135.4753  154.0116 H   0  0  0  0  0  0  0  0  0  0  0  0  # atno 10763 bound_to 10752
  153.1673  135.6819  153.8664 H   0  0  0  0  0  0  0  0  0  0  0  0  # atno 10764 bound_to 10752
  153.8258  135.3198  155.3392 H   0  0  0  0  0  0  0  0  0  0  0  0  # atno 10765 bound_to 10752
  140.0156  134.9420  157.0369 H   0  0  0  0  0  0  0  0  0  0  0  0  # atno 11005 bound_to 11000
  145.2649  141.0089  143.3805 LP  0  0  0  0  0  0  0  0  0  0  0  0  # atno 17320 bound_to 7965
  144.9269  139.4344  143.6514 LP  0  0  0  0  0  0  0  0  0  0  0  0  # atno 17321 bound_to 7965
  140.6994  143.2424  151.4908 LP  0  0  0  0  0  0  0  0  0  0  0  0  # atno 17342 bound_to 10162
  139.5688  144.1978  152.1805 LP  0  0  0  0  0  0  0  0  0  0  0  0  # atno 17343 bound_to 10162
  157.7499  131.0312  150.4173 LP  0  0  0  0  0  0  0  0  0  0  0  0  # atno 17370 bound_to 10713
  156.4436  130.3997  149.6681 LP  0  0  0  0  0  0  0  0  0  0  0  0  # atno 17371 bound_to 10713
  140.4477  134.1615  155.7179 LP  0  0  0  0  0  0  0  0  0  0  0  0  # atno 17394 bound_to 11000
  141.1740  133.8551  157.1479 LP  0  0  0  0  0  0  0  0  0  0  0  0  # atno 17395 bound_to 11000

$$$$
