AV-unprocessed.smi:966|AV-procd|sdf|4283|dock9
  -GOLD-   22720 2193D 1   1.00000     0.00000
 Structure written by MMmdl.
 30 31  0  0  0  0  0  0  0  0  2 V2000
  151.0271  138.5866  153.7386 C   0  0  0  0  0  0  0  0  0  0  0  0
  151.1432  139.3412  155.0505 C   0  0  0  0  0  0  0  0  0  0  0  0
  152.1898  138.9881  155.9829 C   0  0  0  0  0  0  0  0  0  0  0  0
  152.2767  139.6755  157.1780 C   0  0  0  0  0  0  0  0  0  0  0  0
  153.1049  139.5444  158.1098 O   0  5  0  0  0  0  0  0  0  0  0  0
  151.3431  140.7189  157.4944 N   0  0  0  0  0  0  0  0  0  0  0  0
  151.4072  141.4606  158.7879 C   0  0  0  0  0  0  0  0  0  0  0  0
  152.1424  142.8085  158.6446 C   0  0  2  0  0  0  0  0  0  0  0  0
  152.2786  143.5706  159.9622 C   0  0  0  0  0  0  0  0  0  0  0  0
  152.4100  144.9970  159.4806 C   0  0  0  0  0  0  0  0  0  0  0  0
  151.4260  145.0155  158.3160 C   0  0  0  0  0  0  0  0  0  0  0  0
  151.4351  143.6958  157.7792 O   0  0  0  0  0  0  0  0  0  0  0  0
  150.3625  141.0931  156.6118 C   0  0  0  0  0  0  0  0  0  0  0  0
  149.5773  142.0135  156.8534 O   0  0  0  0  0  0  0  0  0  0  0  0
  150.2889  140.3393  155.3567 C   0  0  0  0  0  0  0  0  0  0  0  0
  149.2435  140.7283  154.4635 C   0  0  0  0  0  0  0  0  0  0  0  0
  148.4114  141.0582  153.7286 N   0  0  0  0  0  0  0  0  0  0  0  0
  151.7869  137.8083  153.6624 H   0  0  0  0  0  0  0  0  0  0  0  0
  151.1550  139.2662  152.8955 H   0  0  0  0  0  0  0  0  0  0  0  0
  150.0490  138.1119  153.6560 H   0  0  0  0  0  0  0  0  0  0  0  0
  152.8978  138.2074  155.7453 H   0  0  0  0  0  0  0  0  0  0  0  0
  150.4170  141.6368  159.2108 H   0  0  0  0  0  0  0  0  0  0  0  0
  151.8836  140.8598  159.5639 H   0  0  0  0  0  0  0  0  0  0  0  0
  153.1375  142.6607  158.2227 H   0  0  0  0  0  0  0  0  0  0  0  0
  151.3750  143.4643  160.5645 H   0  0  0  0  0  0  0  0  0  0  0  0
  153.1290  143.2384  160.5582 H   0  0  0  0  0  0  0  0  0  0  0  0
  152.1785  145.7352  160.2488 H   0  0  0  0  0  0  0  0  0  0  0  0
  153.4235  145.1802  159.1214 H   0  0  0  0  0  0  0  0  0  0  0  0
  150.4190  145.2352  158.6725 H   0  0  0  0  0  0  0  0  0  0  0  0
  151.6874  145.7569  157.5609 H   0  0  0  0  0  0  0  0  0  0  0  0
  1  2  1  0  0  0  0
  1 18  1  0  0  0  0
  1 19  1  0  0  0  0
  1 20  1  0  0  0  0
  2 15  2  0  0  0  0
  2  3  1  0  0  0  0
  3  4  2  0  0  0  0
  3 21  1  0  0  0  0
  4  5  1  0  0  0  0
  4  6  1  0  0  0  0
  6  7  1  0  0  0  0
  6 13  1  0  0  0  0
  7  8  1  0  0  0  0
  7 22  1  0  0  0  0
  7 23  1  0  0  0  0
  8 12  1  0  0  0  0
  8  9  1  0  0  0  0
  8 24  1  0  0  0  0
  9 10  1  0  0  0  0
  9 25  1  0  0  0  0
  9 26  1  0  0  0  0
 10 11  1  0  0  0  0
 10 27  1  0  0  0  0
 10 28  1  0  0  0  0
 11 12  1  0  0  0  0
 11 29  1  0  0  0  0
 11 30  1  0  0  0  0
 13 14  2  0  0  0  0
 13 15  1  0  0  0  0
 15 16  1  0  0  0  0
 16 17  3  0  0  0  0
M  CHG  1   5  -1
M  END
> <s_m_source_file>
AV-unprocessed.smi

> <i_m_source_file_index>
966

> <i_lp_mmshare_version>
43012

> <i_f3d_flags>
0

> <s_epik_input>
W0NIM11jMVtjSF1jKFtPSF0pbihjKD1PKWMxQyNOKVtDSDJdW0NAQEhdMltDSDJdW0NIMl1bQ0gyXU8y

> <s_epik_cmdline>
J2VwaWtfcHl0aG9uJywgJy1waCcsICc3LjAnLCAnLXRuJywgJzgnLCAnLW1hJywgJzIwMCcsICctbWV0YWxfYmluZGluZycsICctaW1hZScsICc8aW5maWxlLm1hZT4nLCAnLW9tYWUnLCAnPG91dGZpbGUubWFlPic=

> <r_lp_tautomer_probability>
1

> <r_epik_Ionization_Penalty>
3.48555e-06

> <r_epik_Ionization_Penalty_Charging>
3.48554e-06

> <r_epik_Ionization_Penalty_Neutral>
1.71861e-11

> <r_epik_State_Penalty>
-0

> <r_epik_Charging_Adjusted_Penalty>
3.48554e-06

> <i_epik_Tot_Q>
-1

> <i_epik_Tot_abs_Q>
1

> <r_epik_Metal_State_Penalty>
-0

> <b_epik_Metal_Only>
0

> <s_lp_Force_Field>
OPLS_2005

> <r_lp_Energy>
36.1557

> <b_lp_Chiralities_Consistent>
1

> <s_lp_Variant>
AV-unprocessed.smi:966-1

> <Gold.Version>
5.8.1

> <Gold.Id.Protein>
6NUR|6NUR_protein|mol2

> <Gold.PLP.Fitness>
39.3787

> <Gold.PLP.PLP>
-34.0068

> <Gold.PLP.part.hbond>
-1.0000

> <Gold.PLP.part.metal>
0.0000

> <Gold.PLP.part.buried>
-5.3707

> <Gold.PLP.part.nonpolar>
-28.4922

> <Gold.PLP.part.repulsive>
0.4097

> <Gold.PLP.ligand.clash>
0.0000

> <Gold.PLP.ligand.torsion>
0.3149

> <Gold.PLP.Chemscore.Hbond>
2.0000

> <Gold.PLP.Chemscore.CHOScore>
0.0000

> <Gold.PLP.Chemscore.Metal>
0.0000

> <Gold.Chemscore.Hbonds>
donor molecule, donor type, donor heavy atom, donor atom, acceptor molecule, acceptor atom, score
      P1  H  7997  8009       L1     5  1.90
      P1  H  8011  8017       L1    17  0.08

> <Gold.PLP.Chemscore.Internal.Correction>
0.0018

> <Gold.Rescore>
     Score         DG    S(hbond)    S(metal)    S(lipo)     H(rot)  DE(clash)    DE(int)     intcor
     13.61     -15.48       0.93        0.00      86.18       1.25       0.12       1.74       ----

> <Gold.Chemscore.Fitness>
13.6134

> <Gold.Chemscore.DG>
-15.4778

> <Gold.Chemscore.ZeroCoef>
-5.4800

> <Gold.Chemscore.Hbond>
0.9334

> <Gold.Chemscore.Metal>
0.0000

> <Gold.Chemscore.Lipo>
86.1850

> <Gold.Chemscore.Internal_Hbond>
0.0000

> <Gold.Chemscore.DEClash>
0.1200

> <Gold.Chemscore.DEInternal>
1.7443

> <Gold.Chemscore.Rot>
1.2514

> <Gold.Chemscore.Internal.Correction>
   9.000000E+99

> <Gold.Chemscore.Hbonds>
donor molecule, donor type, donor heavy atom, donor atom, acceptor molecule, acceptor atom, score
      P1  H  7997  8009       L1     5  0.21
      P1  H  8011  8017       L1    17  0.02

> <Gold.Chemscore.Hbond.Weighted>
-3.1177

> <Gold.Chemscore.Metal.Weighted>
-0.0000

> <Gold.Chemscore.Lipo.Weighted>
-10.0836

> <Gold.Chemscore.Internal_Hbond.Weighted>
0.0000

> <Gold.Chemscore.DEClash.Weighted>
0.1200

> <Gold.Chemscore.DEInternal.Weighted>
1.7443

> <Gold.Chemscore.Rot.Weighted>
3.2036

> <Gold.Chemscore.Internal.Correction.Weighted>
   9.000000E+99

> <Gold.Protein.RotatedTorsions>
[ 6907 6896 6895 6894 ] final   51.14 input  -60.11 | X-H torsion
[ 7974 7965 7964 7962 ] final   19.36 input  175.53 | X-H torsion
[ 8008 7997 7996 7995 ] final  144.10 input   59.86 | X-H torsion
[ 10167 10162 10161 10158 ] final   55.66 input  -65.29 | X-H torsion
[ 10718 10713 10712 10709 ] final  -61.97 input   66.30 | X-H torsion
[ 10763 10752 10751 10750 ] final  141.71 input  -60.55 | X-H torsion
[ 11005 11000 10999 10996 ] final  -20.07 input  -57.11 | X-H torsion

> <Gold.Protein.ActiveResidues>
 VAL166  LYS551  ARG553  GLY616  TRP617  ASP618  TYR619  PRO620  LYS621  CYS622 
 ASP623  PHE694  ASN695  SER759  ASP760  ASP761  ALA762  ILE779  LEU786  VAL792 
 PHE793  MET794  SER795  GLU796  ALA797  LYS798  CYS799  TRP800  GLU811  SER814 

> <Gold.Protein.RotatedAtoms>
  152.3095  134.7515  160.0339 H   0  0  0  0  0  0  0  0  0  0  0  0  # atno 6907 bound_to 6896
  151.8000  133.3363  159.3532 H   0  0  0  0  0  0  0  0  0  0  0  0  # atno 6908 bound_to 6896
  150.7313  134.5692  159.5926 H   0  0  0  0  0  0  0  0  0  0  0  0  # atno 6909 bound_to 6896
  146.2152  139.8324  142.8657 H   0  0  0  0  0  0  0  0  0  0  0  0  # atno 7974 bound_to 7965
  156.2915  140.2244  156.4999 H   0  0  0  0  0  0  0  0  0  0  0  0  # atno 8008 bound_to 7997
  154.7699  140.0467  157.1064 H   0  0  0  0  0  0  0  0  0  0  0  0  # atno 8009 bound_to 7997
  154.9887  140.3087  155.4918 H   0  0  0  0  0  0  0  0  0  0  0  0  # atno 8010 bound_to 7997
  140.2171  144.3828  150.6465 H   0  0  0  0  0  0  0  0  0  0  0  0  # atno 10167 bound_to 10162
  156.0886  130.4204  150.1068 H   0  0  0  0  0  0  0  0  0  0  0  0  # atno 10718 bound_to 10713
  153.9438  135.2977  155.3441 H   0  0  0  0  0  0  0  0  0  0  0  0  # atno 10763 bound_to 10752
  154.7463  135.5001  153.9212 H   0  0  0  0  0  0  0  0  0  0  0  0  # atno 10764 bound_to 10752
  153.1029  135.6739  153.9747 H   0  0  0  0  0  0  0  0  0  0  0  0  # atno 10765 bound_to 10752
  140.8429  133.7913  155.9880 H   0  0  0  0  0  0  0  0  0  0  0  0  # atno 11005 bound_to 11000
  145.2983  141.0187  143.3623 LP  0  0  0  0  0  0  0  0  0  0  0  0  # atno 17320 bound_to 7965
  144.9025  139.4631  143.6625 LP  0  0  0  0  0  0  0  0  0  0  0  0  # atno 17321 bound_to 7965
  140.6282  143.2184  151.6552 LP  0  0  0  0  0  0  0  0  0  0  0  0  # atno 17342 bound_to 10162
  139.5158  144.3367  152.0777 LP  0  0  0  0  0  0  0  0  0  0  0  0  # atno 17343 bound_to 10162
  156.9083  130.9643  151.3566 LP  0  0  0  0  0  0  0  0  0  0  0  0  # atno 17370 bound_to 10713
  157.6029  130.8525  149.8829 LP  0  0  0  0  0  0  0  0  0  0  0  0  # atno 17371 bound_to 10713
  140.8876  134.2535  157.5112 LP  0  0  0  0  0  0  0  0  0  0  0  0  # atno 17394 bound_to 11000
  139.8703  134.9645  156.4499 LP  0  0  0  0  0  0  0  0  0  0  0  0  # atno 17395 bound_to 11000

$$$$
