AV-unprocessed.smi:3330|AV-procd|sdf|12806|dock10
  -GOLD-   2272019173D 1   1.00000     0.00000
 Structure written by MMmdl.
 38 39  0  0  0  0  0  0  0  0  1 V2000
  149.6344  139.9503  157.0126 C   0  0  0  0  0  0  0  0  0  0  0  0
  150.4497  139.3800  158.1939 C   0  0  1  0  0  0  0  0  0  0  0  0
  150.6248  137.9453  157.9946 N   0  0  0  0  0  0  0  0  0  0  0  0
  150.2054  137.1762  159.1582 C   0  0  0  0  0  0  0  0  0  0  0  0
  148.6699  137.1654  159.2620 C   0  0  0  0  0  0  0  0  0  0  0  0
  148.1762  135.9873  159.9846 N   0  0  0  0  0  0  0  0  0  0  0  0
  147.5115  136.0354  161.1470 C   0  0  0  0  0  0  0  0  0  0  0  0
  147.1924  137.0360  161.7886 O   0  0  0  0  0  0  0  0  0  0  0  0
  147.2001  134.6194  161.5804 C   0  0  0  0  0  0  0  0  0  0  0  0
  147.8010  133.8991  160.4787 N   0  0  0  0  0  0  0  0  0  0  0  0
  148.3580  134.7176  159.5766 C   0  0  0  0  0  0  0  0  0  0  0  0
  148.9369  134.3542  158.5539 O   0  0  0  0  0  0  0  0  0  0  0  0
  151.8538  140.0264  158.3394 C   0  0  2  0  0  0  0  0  0  0  0  0
  152.6582  139.4311  159.5120 C   0  0  0  0  0  0  0  0  0  0  0  0
  151.7806  141.4771  158.4680 N   0  0  0  0  0  0  0  0  0  0  0  0
  152.3418  142.2754  159.4439 C   0  0  0  0  0  0  0  0  0  0  0  0
  152.0185  143.5691  159.1506 C   0  0  0  0  0  0  0  0  0  0  0  0
  151.2470  143.4628  157.9602 C   0  0  0  0  0  0  0  0  0  0  0  0
  151.1062  142.2117  157.5537 N   0  0  0  0  0  0  0  0  0  0  0  0
  149.4277  141.0122  157.1436 H   0  0  0  0  0  0  0  0  0  0  0  0
  148.6681  139.4590  156.9052 H   0  0  0  0  0  0  0  0  0  0  0  0
  150.1706  139.8313  156.0704 H   0  0  0  0  0  0  0  0  0  0  0  0
  149.8999  139.5522  159.1205 H   0  0  0  0  0  0  0  0  0  0  0  0
  151.5995  137.7505  157.8140 H   0  0  0  0  0  0  0  0  0  0  0  0
  150.5683  136.1536  159.0496 H   0  0  0  0  0  0  0  0  0  0  0  0
  150.6420  137.5735  160.0739 H   0  0  0  0  0  0  0  0  0  0  0  0
  148.3132  138.0876  159.7246 H   0  0  0  0  0  0  0  0  0  0  0  0
  148.2441  137.1633  158.2574 H   0  0  0  0  0  0  0  0  0  0  0  0
  147.6776  134.3741  162.5295 H   0  0  0  0  0  0  0  0  0  0  0  0
  146.1258  134.4425  161.6396 H   0  0  0  0  0  0  0  0  0  0  0  0
  147.7982  132.8914  160.4128 H   0  0  0  0  0  0  0  0  0  0  0  0
  152.4136  139.8284  157.4235 H   0  0  0  0  0  0  0  0  0  0  0  0
  152.8379  138.3649  159.3740 H   0  0  0  0  0  0  0  0  0  0  0  0
  152.1363  139.5570  160.4612 H   0  0  0  0  0  0  0  0  0  0  0  0
  153.6320  139.9135  159.6017 H   0  0  0  0  0  0  0  0  0  0  0  0
  152.9207  141.8609  160.2561 H   0  0  0  0  0  0  0  0  0  0  0  0
  152.2926  144.4564  159.7018 H   0  0  0  0  0  0  0  0  0  0  0  0
  150.7891  144.2521  157.3826 H   0  0  0  0  0  0  0  0  0  0  0  0
  1  2  1  0  0  0  0
  1 20  1  0  0  0  0
  1 21  1  0  0  0  0
  1 22  1  0  0  0  0
  2  3  1  0  0  0  0
  2 13  1  0  0  0  0
  2 23  1  0  0  0  0
  3  4  1  0  0  0  0
  3 24  1  0  0  0  0
  4  5  1  0  0  0  0
  4 25  1  0  0  0  0
  4 26  1  0  0  0  0
  5  6  1  0  0  0  0
  5 27  1  0  0  0  0
  5 28  1  0  0  0  0
  6 11  1  0  0  0  0
  6  7  1  0  0  0  0
  7  8  2  0  0  0  0
  7  9  1  0  0  0  0
  9 10  1  0  0  0  0
  9 29  1  0  0  0  0
  9 30  1  0  0  0  0
 10 11  1  0  0  0  0
 10 31  1  0  0  0  0
 11 12  2  0  0  0  0
 13 14  1  0  0  0  0
 13 15  1  0  0  0  0
 13 32  1  0  0  0  0
 14 33  1  0  0  0  0
 14 34  1  0  0  0  0
 14 35  1  0  0  0  0
 15 19  1  0  0  0  0
 15 16  1  0  0  0  0
 16 17  2  0  0  0  0
 16 36  1  0  0  0  0
 17 18  1  0  0  0  0
 17 37  1  0  0  0  0
 18 19  2  0  0  0  0
 18 38  1  0  0  0  0
M  END
> <s_m_source_file>
AV-unprocessed.smi

> <i_m_source_file_index>
3330

> <i_lp_mmshare_version>
43012

> <i_f3d_flags>
0

> <s_epik_input>
bjFbY0hdW2NIXVtjSF1uMVtDQEBIXShbQ0gzXSlbQ0BIXShbQ0gzXSlbTkhdW0NIMl1bQ0gyXU4yQyg9TylbQ0gyXVtOSF1DMj1P

> <s_epik_cmdline>
J2VwaWtfcHl0aG9uJywgJy1waCcsICc3LjAnLCAnLXRuJywgJzgnLCAnLW1hJywgJzIwMCcsICctbWV0YWxfYmluZGluZycsICctaW1hZScsICc8aW5maWxlLm1hZT4nLCAnLW9tYWUnLCAnPG91dGZpbGUubWFlPic=

> <r_lp_tautomer_probability>
1

> <r_epik_Ionization_Penalty>
2.2997

> <r_epik_Ionization_Penalty_Charging>
0

> <r_epik_Ionization_Penalty_Neutral>
2.2997

> <r_epik_State_Penalty>
2.44917

> <r_epik_Charging_Adjusted_Penalty>
2.44917

> <i_epik_Tot_Q>
0

> <i_epik_Tot_abs_Q>
0

> <r_epik_Metal_State_Penalty>
2.52438

> <b_epik_Metal_Only>
0

> <s_lp_Force_Field>
OPLS_2005

> <r_lp_Energy>
29.8527

> <b_lp_Chiralities_Consistent>
1

> <s_lp_Variant>
AV-unprocessed.smi:3330-6

> <Gold.Version>
5.8.1

> <Gold.Id.Protein>
6NUR|6NUR_protein|mol2

> <Gold.PLP.Fitness>
41.8717

> <Gold.PLP.PLP>
-32.9112

> <Gold.PLP.part.hbond>
-3.0000

> <Gold.PLP.part.metal>
0.0000

> <Gold.PLP.part.buried>
-4.5116

> <Gold.PLP.part.nonpolar>
-26.5249

> <Gold.PLP.part.repulsive>
0.1253

> <Gold.PLP.ligand.clash>
0.0000

> <Gold.PLP.ligand.torsion>
0.9606

> <Gold.PLP.Chemscore.Hbond>
2.5840

> <Gold.PLP.Chemscore.CHOScore>
1.0000

> <Gold.PLP.Chemscore.Metal>
0.0000

> <Gold.Chemscore.Hbonds>
donor molecule, donor type, donor heavy atom, donor atom, acceptor molecule, acceptor atom, score
      P1  H  6896  6907       L1    12  0.90
      P1  H  6931  6943       L1     8  0.53
      P1  H  6934  6947       L1     8  0.60
      L1  C    18    38       P1  8028  0.88

> <Gold.PLP.Chemscore.Internal.Correction>
0.1299

> <Gold.Rescore>
     Score         DG    S(hbond)    S(metal)    S(lipo)     H(rot)  DE(clash)    DE(int)     intcor
     10.36     -12.53       1.71        0.00      68.23       2.60       0.00       2.17       ----

> <Gold.Chemscore.Fitness>
10.3628

> <Gold.Chemscore.DG>
-12.5337

> <Gold.Chemscore.ZeroCoef>
-5.4800

> <Gold.Chemscore.Hbond>
1.7109

> <Gold.Chemscore.Metal>
0.0000

> <Gold.Chemscore.Lipo>
68.2322

> <Gold.Chemscore.Internal_Hbond>
0.0000

> <Gold.Chemscore.DEClash>
0.0021

> <Gold.Chemscore.DEInternal>
2.1688

> <Gold.Chemscore.Rot>
2.5952

> <Gold.Chemscore.Internal.Correction>
   9.000000E+99

> <Gold.Chemscore.Hbonds>
donor molecule, donor type, donor heavy atom, donor atom, acceptor molecule, acceptor atom, score
      P1  H  6896  6907       L1    12  0.18
      P1  H  6931  6943       L1     8  0.28
      P1  H  6934  6947       L1     8  0.59

> <Gold.Chemscore.Hbond.Weighted>
-5.7143

> <Gold.Chemscore.Metal.Weighted>
-0.0000

> <Gold.Chemscore.Lipo.Weighted>
-7.9832

> <Gold.Chemscore.Internal_Hbond.Weighted>
0.0000

> <Gold.Chemscore.DEClash.Weighted>
0.0021

> <Gold.Chemscore.DEInternal.Weighted>
2.1688

> <Gold.Chemscore.Rot.Weighted>
6.6437

> <Gold.Chemscore.Internal.Correction.Weighted>
   9.000000E+99

> <Gold.Protein.RotatedTorsions>
[ 6907 6896 6895 6894 ] final -106.23 input  -60.11 | X-H torsion
[ 7974 7965 7964 7962 ] final -142.29 input  175.53 | X-H torsion
[ 8008 7997 7996 7995 ] final  -74.25 input   59.86 | X-H torsion
[ 10167 10162 10161 10158 ] final   67.13 input  -65.29 | X-H torsion
[ 10718 10713 10712 10709 ] final  179.03 input   66.30 | X-H torsion
[ 10763 10752 10751 10750 ] final  170.33 input  -60.55 | X-H torsion
[ 11005 11000 10999 10996 ] final -169.27 input  -57.11 | X-H torsion

> <Gold.Protein.ActiveResidues>
 VAL166  LYS551  ARG553  GLY616  TRP617  ASP618  TYR619  PRO620  LYS621  CYS622 
 ASP623  PHE694  ASN695  SER759  ASP760  ASP761  ALA762  ILE779  LEU786  VAL792 
 PHE793  MET794  SER795  GLU796  ALA797  LYS798  CYS799  TRP800  GLU811  SER814 

> <Gold.Protein.RotatedAtoms>
  150.7378  134.0008  159.3637 H   0  0  0  0  0  0  0  0  0  0  0  0  # atno 6907 bound_to 6896
  151.7962  135.0720  160.0403 H   0  0  0  0  0  0  0  0  0  0  0  0  # atno 6908 bound_to 6896
  152.3173  133.5779  159.5757 H   0  0  0  0  0  0  0  0  0  0  0  0  # atno 6909 bound_to 6896
  144.8455  140.5976  143.5424 H   0  0  0  0  0  0  0  0  0  0  0  0  # atno 7974 bound_to 7965
  154.5315  140.0764  156.8353 H   0  0  0  0  0  0  0  0  0  0  0  0  # atno 8008 bound_to 7997
  155.3365  140.3405  155.4221 H   0  0  0  0  0  0  0  0  0  0  0  0  # atno 8009 bound_to 7997
  156.1786  140.1644  156.8303 H   0  0  0  0  0  0  0  0  0  0  0  0  # atno 8010 bound_to 7997
  140.0928  144.4973  150.7087 H   0  0  0  0  0  0  0  0  0  0  0  0  # atno 10167 bound_to 10162
  156.8818  130.9818  151.3061 H   0  0  0  0  0  0  0  0  0  0  0  0  # atno 10718 bound_to 10713
  154.3961  135.2754  155.2125 H   0  0  0  0  0  0  0  0  0  0  0  0  # atno 10763 bound_to 10752
  154.4171  135.6009  153.5991 H   0  0  0  0  0  0  0  0  0  0  0  0  # atno 10764 bound_to 10752
  152.9831  135.5963  154.4222 H   0  0  0  0  0  0  0  0  0  0  0  0  # atno 10765 bound_to 10752
  140.5326  134.5601  157.5079 H   0  0  0  0  0  0  0  0  0  0  0  0  # atno 11005 bound_to 11000
  145.4606  139.1513  143.3868 LP  0  0  0  0  0  0  0  0  0  0  0  0  # atno 17320 bound_to 7965
  146.2740  140.4736  142.8803 LP  0  0  0  0  0  0  0  0  0  0  0  0  # atno 17321 bound_to 7965
  140.7019  143.2441  151.4839 LP  0  0  0  0  0  0  0  0  0  0  0  0  # atno 17342 bound_to 10162
  139.5715  144.1918  152.1843 LP  0  0  0  0  0  0  0  0  0  0  0  0  # atno 17343 bound_to 10162
  157.6136  130.8601  149.8991 LP  0  0  0  0  0  0  0  0  0  0  0  0  # atno 17370 bound_to 10713
  156.0673  130.3690  150.0850 LP  0  0  0  0  0  0  0  0  0  0  0  0  # atno 17371 bound_to 10713
  139.9546  134.7557  156.0370 LP  0  0  0  0  0  0  0  0  0  0  0  0  # atno 17394 bound_to 11000
  141.1273  133.6596  156.3370 LP  0  0  0  0  0  0  0  0  0  0  0  0  # atno 17395 bound_to 11000

$$$$
