AV-unprocessed.smi:1092|AV-procd|sdf|4737|dock9
  -GOLD-   22720 3273D 1   1.00000     0.00000
 Structure written by MMmdl.
 43 45  0  0  0  0  0  0  0  0  1 V2000
  154.4014  140.7019  162.2929 C   0  0  0  0  0  0  0  0  0  0  0  0
  155.0277  139.5286  161.5140 C   0  0  0  0  0  0  0  0  0  0  0  0
  155.8135  140.0554  160.3010 C   0  0  0  0  0  0  0  0  0  0  0  0
  155.9894  138.9133  162.3501 O   0  0  0  0  0  0  0  0  0  0  0  0
  154.0151  138.4422  161.0555 C   0  0  0  0  0  0  0  0  0  0  0  0
  153.0218  138.9192  160.0821 N   0  0  0  0  0  0  0  0  0  0  0  0
  152.9206  140.2887  160.0083 N   0  0  0  0  0  0  0  0  0  0  0  0
  152.1174  140.8703  159.1752 C   0  0  0  0  0  0  0  0  0  0  0  0
  152.0716  142.3505  159.2226 C   0  0  0  0  0  0  0  0  0  0  0  0
  151.8661  143.0729  158.0251 C   0  0  0  0  0  0  0  0  0  0  0  0
  151.8253  144.4803  158.0645 C   0  0  0  0  0  0  0  0  0  0  0  0
  151.9966  145.1594  159.2876 C   0  0  0  0  0  0  0  0  0  0  0  0
  152.2144  144.4348  160.4763 C   0  0  0  0  0  0  0  0  0  0  0  0
  152.2568  143.0272  160.4490 C   0  0  0  0  0  0  0  0  0  0  0  0
  151.3037  139.9625  158.2969 C   0  0  0  0  0  0  0  0  0  0  0  0
  150.3937  140.4812  157.2354 C   0  0  0  0  0  0  0  0  0  0  0  0
  150.6413  140.1599  155.8799 C   0  0  0  0  0  0  0  0  0  0  0  0
  149.7977  140.6514  154.8647 C   0  0  0  0  0  0  0  0  0  0  0  0
  148.7045  141.4749  155.1924 C   0  0  0  0  0  0  0  0  0  0  0  0
  148.4578  141.8117  156.5363 C   0  0  0  0  0  0  0  0  0  0  0  0
  149.3003  141.3219  157.5528 C   0  0  0  0  0  0  0  0  0  0  0  0
  151.3928  138.6818  158.4096 N   0  0  0  0  0  0  0  0  0  0  0  0
  152.2606  138.0768  159.3239 C   0  0  0  0  0  0  0  0  0  0  0  0
  152.3474  136.8537  159.4305 O   0  0  0  0  0  0  0  0  0  0  0  0
  153.6337  141.2018  161.7018 H   0  0  0  0  0  0  0  0  0  0  0  0
  155.1521  141.4486  162.5537 H   0  0  0  0  0  0  0  0  0  0  0  0
  153.9422  140.3720  163.2254 H   0  0  0  0  0  0  0  0  0  0  0  0
  155.1542  140.5668  159.5988 H   0  0  0  0  0  0  0  0  0  0  0  0
  156.3042  139.2452  159.7604 H   0  0  0  0  0  0  0  0  0  0  0  0
  156.5848  140.7657  160.6016 H   0  0  0  0  0  0  0  0  0  0  0  0
  155.5379  138.4638  163.0479 H   0  0  0  0  0  0  0  0  0  0  0  0
  154.5641  137.5981  160.6350 H   0  0  0  0  0  0  0  0  0  0  0  0
  153.5000  138.0198  161.9204 H   0  0  0  0  0  0  0  0  0  0  0  0
  151.7291  142.5647  157.0810 H   0  0  0  0  0  0  0  0  0  0  0  0
  151.6619  145.0398  157.1554 H   0  0  0  0  0  0  0  0  0  0  0  0
  151.9652  146.2387  159.3134 H   0  0  0  0  0  0  0  0  0  0  0  0
  152.3526  144.9598  161.4101 H   0  0  0  0  0  0  0  0  0  0  0  0
  152.4396  142.4857  161.3657 H   0  0  0  0  0  0  0  0  0  0  0  0
  151.4742  139.5275  155.6077 H   0  0  0  0  0  0  0  0  0  0  0  0
  149.9910  140.3963  153.8331 H   0  0  0  0  0  0  0  0  0  0  0  0
  148.0592  141.8526  154.4131 H   0  0  0  0  0  0  0  0  0  0  0  0
  147.6241  142.4503  156.7883 H   0  0  0  0  0  0  0  0  0  0  0  0
  149.1026  141.6078  158.5755 H   0  0  0  0  0  0  0  0  0  0  0  0
  1  2  1  0  0  0  0
  1 25  1  0  0  0  0
  1 26  1  0  0  0  0
  1 27  1  0  0  0  0
  2  3  1  0  0  0  0
  2  4  1  0  0  0  0
  2  5  1  0  0  0  0
  3 28  1  0  0  0  0
  3 29  1  0  0  0  0
  3 30  1  0  0  0  0
  4 31  1  0  0  0  0
  5  6  1  0  0  0  0
  5 32  1  0  0  0  0
  5 33  1  0  0  0  0
  6 23  1  0  0  0  0
  6  7  1  0  0  0  0
  7  8  2  0  0  0  0
  8  9  1  0  0  0  0
  8 15  1  0  0  0  0
  9 14  1  0  0  0  0
  9 10  2  0  0  0  0
 10 11  1  0  0  0  0
 10 34  1  0  0  0  0
 11 12  2  0  0  0  0
 11 35  1  0  0  0  0
 12 13  1  0  0  0  0
 12 36  1  0  0  0  0
 13 14  2  0  0  0  0
 13 37  1  0  0  0  0
 14 38  1  0  0  0  0
 15 16  1  0  0  0  0
 15 22  2  0  0  0  0
 16 21  1  0  0  0  0
 16 17  2  0  0  0  0
 17 18  1  0  0  0  0
 17 39  1  0  0  0  0
 18 19  2  0  0  0  0
 18 40  1  0  0  0  0
 19 20  1  0  0  0  0
 19 41  1  0  0  0  0
 20 21  2  0  0  0  0
 20 42  1  0  0  0  0
 21 43  1  0  0  0  0
 22 23  1  0  0  0  0
 23 24  2  0  0  0  0
M  END
> <s_m_source_file>
AV-unprocessed.smi

> <i_m_source_file_index>
1092

> <i_lp_mmshare_version>
43012

> <i_f3d_flags>
0

> <s_epik_input>
W2NIXTFbY0hdW2NIXVtjSF1bY0hdYzEtYyhubjJbQ0gyXUMoW0NIM10pKFtDSDNdKVtPSF0pYyhuYzI9TyktYzNbY0hdW2NIXVtjSF1bY0hdW2NIXTM=

> <s_epik_cmdline>
J2VwaWtfcHl0aG9uJywgJy1waCcsICc3LjAnLCAnLXRuJywgJzgnLCAnLW1hJywgJzIwMCcsICctbWV0YWxfYmluZGluZycsICctaW1hZScsICc8aW5maWxlLm1hZT4nLCAnLW9tYWUnLCAnPG91dGZpbGUubWFlPic=

> <r_lp_tautomer_probability>
1

> <r_epik_Ionization_Penalty>
4.51197e-08

> <r_epik_Ionization_Penalty_Charging>
4.64162e-09

> <r_epik_Ionization_Penalty_Neutral>
4.04781e-08

> <r_epik_State_Penalty>
-0

> <r_epik_Charging_Adjusted_Penalty>
4.64162e-09

> <i_epik_Tot_Q>
0

> <i_epik_Tot_abs_Q>
0

> <r_epik_Metal_State_Penalty>
-0

> <b_epik_Metal_Only>
0

> <s_lp_Force_Field>
OPLS_2005

> <r_lp_Energy>
39.3317

> <b_lp_Chiralities_Consistent>
1

> <s_lp_Variant>
AV-unprocessed.smi:1092-1

> <Gold.Version>
5.8.1

> <Gold.Id.Protein>
6NUR|6NUR_protein|mol2

> <Gold.PLP.Fitness>
48.7870

> <Gold.PLP.PLP>
-47.2045

> <Gold.PLP.part.hbond>
-1.0000

> <Gold.PLP.part.metal>
0.0000

> <Gold.PLP.part.buried>
-4.4241

> <Gold.PLP.part.nonpolar>
-41.8983

> <Gold.PLP.part.repulsive>
0.0000

> <Gold.PLP.ligand.clash>
0.0000

> <Gold.PLP.ligand.torsion>
1.8554

> <Gold.PLP.Chemscore.Hbond>
0.9913

> <Gold.PLP.Chemscore.CHOScore>
0.0000

> <Gold.PLP.Chemscore.Metal>
0.0000

> <Gold.Chemscore.Hbonds>
donor molecule, donor type, donor heavy atom, donor atom, acceptor molecule, acceptor atom, score
      P1  H  6896  6909       L1    24  1.00

> <Gold.PLP.Chemscore.Internal.Correction>
2.3194

> <Gold.Rescore>
     Score         DG    S(hbond)    S(metal)    S(lipo)     H(rot)  DE(clash)    DE(int)     intcor
     16.30     -21.22       0.99        0.00     141.28       1.59       0.06       4.86       ----

> <Gold.Chemscore.Fitness>
16.3012

> <Gold.Chemscore.DG>
-21.2249

> <Gold.Chemscore.ZeroCoef>
-5.4800

> <Gold.Chemscore.Hbond>
0.9852

> <Gold.Chemscore.Metal>
0.0000

> <Gold.Chemscore.Lipo>
141.2757

> <Gold.Chemscore.Internal_Hbond>
0.0000

> <Gold.Chemscore.DEClash>
0.0604

> <Gold.Chemscore.DEInternal>
4.8633

> <Gold.Chemscore.Rot>
1.5918

> <Gold.Chemscore.Internal.Correction>
   9.000000E+99

> <Gold.Chemscore.Hbonds>
donor molecule, donor type, donor heavy atom, donor atom, acceptor molecule, acceptor atom, score
      P1  H  6896  6909       L1    24  0.98

> <Gold.Chemscore.Hbond.Weighted>
-3.2906

> <Gold.Chemscore.Metal.Weighted>
-0.0000

> <Gold.Chemscore.Lipo.Weighted>
-16.5293

> <Gold.Chemscore.Internal_Hbond.Weighted>
0.0000

> <Gold.Chemscore.DEClash.Weighted>
0.0604

> <Gold.Chemscore.DEInternal.Weighted>
4.8633

> <Gold.Chemscore.Rot.Weighted>
4.0749

> <Gold.Chemscore.Internal.Correction.Weighted>
   9.000000E+99

> <Gold.Protein.RotatedTorsions>
[ 6907 6896 6895 6894 ] final  140.63 input  -60.11 | X-H torsion
[ 7974 7965 7964 7962 ] final -113.27 input  175.53 | X-H torsion
[ 8008 7997 7996 7995 ] final  -43.79 input   59.86 | X-H torsion
[ 10167 10162 10161 10158 ] final  -27.89 input  -65.29 | X-H torsion
[ 10718 10713 10712 10709 ] final   38.18 input   66.30 | X-H torsion
[ 10763 10752 10751 10750 ] final  179.20 input  -60.55 | X-H torsion
[ 11005 11000 10999 10996 ] final    9.79 input  -57.11 | X-H torsion

> <Gold.Protein.ActiveResidues>
 VAL166  LYS551  ARG553  GLY616  TRP617  ASP618  TYR619  PRO620  LYS621  CYS622 
 ASP623  PHE694  ASN695  SER759  ASP760  ASP761  ALA762  ILE779  LEU786  VAL792 
 PHE793  MET794  SER795  GLU796  ALA797  LYS798  CYS799  TRP800  GLU811  SER814 

> <Gold.Protein.RotatedAtoms>
  152.2407  133.5133  159.5267 H   0  0  0  0  0  0  0  0  0  0  0  0  # atno 6907 bound_to 6896
  150.7063  134.1093  159.4003 H   0  0  0  0  0  0  0  0  0  0  0  0  # atno 6908 bound_to 6896
  151.9014  135.0376  160.0557 H   0  0  0  0  0  0  0  0  0  0  0  0  # atno 6909 bound_to 6896
  145.1340  140.8741  143.3741 H   0  0  0  0  0  0  0  0  0  0  0  0  # atno 7974 bound_to 7965
  154.3997  140.1439  156.3576 H   0  0  0  0  0  0  0  0  0  0  0  0  # atno 8008 bound_to 7997
  155.8211  140.3469  155.5494 H   0  0  0  0  0  0  0  0  0  0  0  0  # atno 8009 bound_to 7997
  155.8287  140.0909  157.1796 H   0  0  0  0  0  0  0  0  0  0  0  0  # atno 8010 bound_to 7997
  140.7274  143.4055  151.1192 H   0  0  0  0  0  0  0  0  0  0  0  0  # atno 10167 bound_to 10162
  157.3557  130.7622  149.7011 H   0  0  0  0  0  0  0  0  0  0  0  0  # atno 10718 bound_to 10713
  154.5176  135.2792  155.1290 H   0  0  0  0  0  0  0  0  0  0  0  0  # atno 10763 bound_to 10752
  154.2861  135.6276  153.5370 H   0  0  0  0  0  0  0  0  0  0  0  0  # atno 10764 bound_to 10752
  152.9930  135.5663  154.5656 H   0  0  0  0  0  0  0  0  0  0  0  0  # atno 10765 bound_to 10752
  140.5217  134.0552  155.7847 H   0  0  0  0  0  0  0  0  0  0  0  0  # atno 11005 bound_to 11000
  145.0604  139.3110  143.5883 LP  0  0  0  0  0  0  0  0  0  0  0  0  # atno 17320 bound_to 7965
  146.3511  140.0044  142.8673 LP  0  0  0  0  0  0  0  0  0  0  0  0  # atno 17321 bound_to 7965
  139.7681  143.8535  152.3115 LP  0  0  0  0  0  0  0  0  0  0  0  0  # atno 17342 bound_to 10162
  139.8444  144.7195  150.9291 LP  0  0  0  0  0  0  0  0  0  0  0  0  # atno 17343 bound_to 10162
  155.9729  130.4128  150.4049 LP  0  0  0  0  0  0  0  0  0  0  0  0  # atno 17370 bound_to 10713
  157.2119  131.0462  151.2594 LP  0  0  0  0  0  0  0  0  0  0  0  0  # atno 17371 bound_to 10713
  141.1330  133.9269  157.2494 LP  0  0  0  0  0  0  0  0  0  0  0  0  # atno 17394 bound_to 11000
  139.9602  135.0156  156.9240 LP  0  0  0  0  0  0  0  0  0  0  0  0  # atno 17395 bound_to 11000

$$$$
