AV-unprocessed.smi:2520|AV-procd|sdf|9907|dock8
  -GOLD-   2272013543D 1   1.00000     0.00000
 Structure written by MMmdl.
 41 44  0  0  0  0  0  0  0  0  1 V2000
  153.0965  140.2977  158.2839 O   0  0  0  0  0  0  0  0  0  0  0  0
  152.3257  141.2539  158.3405 C   0  0  0  0  0  0  0  0  0  0  0  0
  152.2748  142.0426  159.4348 N   0  0  0  0  0  0  0  0  0  0  0  0
  152.9966  141.9964  160.6634 C   0  0  0  0  0  0  0  0  0  0  0  0
  152.5363  142.8905  161.6537 C   0  0  0  0  0  0  0  0  0  0  0  0
  153.1968  142.9149  162.8939 C   0  0  0  0  0  0  0  0  0  0  0  0
  154.2833  142.0398  163.0614 C   0  0  0  0  0  0  0  0  0  0  0  0
  154.6951  141.2022  162.0856 N   0  0  0  0  0  0  0  0  0  0  0  0
  154.0608  141.1859  160.9086 N   0  0  0  0  0  0  0  0  0  0  0  0
  151.4966  141.5776  157.3364 N   0  0  0  0  0  0  0  0  0  0  0  0
  151.3467  140.8249  156.0975 C   0  0  2  0  0  0  0  0  0  0  0  0
  149.9030  140.8116  155.5962 C   0  0  1  0  0  0  0  0  0  0  0  0
  149.2058  141.3939  154.4188 C   0  0  0  0  0  0  0  0  0  0  0  0
  148.4134  140.1303  153.9915 C   0  0  0  0  0  0  0  0  0  0  0  0
  148.9616  139.0364  154.7660 O   0  0  0  0  0  0  0  0  0  0  0  0
  150.2828  139.4489  155.0527 C   0  0  2  0  0  0  0  0  0  0  0  0
  151.1490  139.2764  156.3172 C   0  0  0  0  0  0  0  0  0  0  0  0
  152.4017  138.3992  156.1863 C   0  0  0  0  0  0  0  0  0  0  0  0
  152.3941  137.3690  157.3174 C   0  0  0  0  0  0  0  0  0  0  0  0
  151.5141  137.9878  158.3935 C   0  0  0  0  0  0  0  0  0  0  0  0
  150.4643  138.7592  157.6000 C   0  0  0  0  0  0  0  0  0  0  0  0
  151.6418  142.8250  159.3544 H   0  0  0  0  0  0  0  0  0  0  0  0
  151.6956  143.5438  161.4709 H   0  0  0  0  0  0  0  0  0  0  0  0
  152.8832  143.5787  163.6856 H   0  0  0  0  0  0  0  0  0  0  0  0
  154.8319  142.0111  163.9912 H   0  0  0  0  0  0  0  0  0  0  0  0
  150.8974  142.3819  157.4579 H   0  0  0  0  0  0  0  0  0  0  0  0
  152.0742  141.0840  155.3225 H   0  0  0  0  0  0  0  0  0  0  0  0
  149.2072  140.7474  156.4386 H   0  0  0  0  0  0  0  0  0  0  0  0
  148.5559  142.2291  154.6805 H   0  0  0  0  0  0  0  0  0  0  0  0
  149.9076  141.7156  153.6482 H   0  0  0  0  0  0  0  0  0  0  0  0
  147.3484  140.2268  154.2042 H   0  0  0  0  0  0  0  0  0  0  0  0
  148.5302  139.9391  152.9241 H   0  0  0  0  0  0  0  0  0  0  0  0
  150.8846  139.4853  154.1373 H   0  0  0  0  0  0  0  0  0  0  0  0
  152.4552  137.9024  155.2170 H   0  0  0  0  0  0  0  0  0  0  0  0
  153.2991  139.0128  156.2667 H   0  0  0  0  0  0  0  0  0  0  0  0
  151.9381  136.4434  156.9636 H   0  0  0  0  0  0  0  0  0  0  0  0
  153.3955  137.1302  157.6767 H   0  0  0  0  0  0  0  0  0  0  0  0
  151.0794  137.2464  159.0644 H   0  0  0  0  0  0  0  0  0  0  0  0
  152.1025  138.6825  158.9943 H   0  0  0  0  0  0  0  0  0  0  0  0
  150.0249  139.5477  158.2113 H   0  0  0  0  0  0  0  0  0  0  0  0
  149.6500  138.0836  157.3354 H   0  0  0  0  0  0  0  0  0  0  0  0
  1  2  2  0  0  0  0
  2  3  1  0  0  0  0
  2 10  1  0  0  0  0
  3  4  1  0  0  0  0
  3 22  1  0  0  0  0
  4  9  1  0  0  0  0
  4  5  2  0  0  0  0
  5  6  1  0  0  0  0
  5 23  1  0  0  0  0
  6  7  2  0  0  0  0
  6 24  1  0  0  0  0
  7  8  1  0  0  0  0
  7 25  1  0  0  0  0
  8  9  2  0  0  0  0
 10 11  1  0  0  0  0
 10 26  1  0  0  0  0
 11 17  1  0  0  0  0
 11 12  1  0  0  0  0
 11 27  1  0  0  0  0
 12 16  1  0  0  0  0
 12 13  1  0  0  0  0
 12 28  1  0  0  0  0
 13 14  1  0  0  0  0
 13 29  1  0  0  0  0
 13 30  1  0  0  0  0
 14 15  1  0  0  0  0
 14 31  1  0  0  0  0
 14 32  1  0  0  0  0
 15 16  1  0  0  0  0
 16 17  1  0  0  0  0
 16 33  1  0  0  0  0
 17 21  1  0  0  0  0
 17 18  1  0  0  0  0
 18 19  1  0  0  0  0
 18 34  1  0  0  0  0
 18 35  1  0  0  0  0
 19 20  1  0  0  0  0
 19 36  1  0  0  0  0
 19 37  1  0  0  0  0
 20 21  1  0  0  0  0
 20 38  1  0  0  0  0
 20 39  1  0  0  0  0
 21 40  1  0  0  0  0
 21 41  1  0  0  0  0
M  END
> <s_m_source_file>
AV-unprocessed.smi

> <i_m_source_file_index>
2520

> <i_lp_mmshare_version>
43012

> <i_f3d_flags>
0

> <s_epik_input>
bjFuW2NIXVtjSF1bY0hdYzFbTkhdQyg9TylbTkhdW0NAQEhdMltDQEBIXShbQ0gyXVtDSDJdTzMpW0NASF0zQzI0W0NIMl1bQ0gyXVtDSDJdW0NIMl00

> <s_epik_cmdline>
J2VwaWtfcHl0aG9uJywgJy1waCcsICc3LjAnLCAnLXRuJywgJzgnLCAnLW1hJywgJzIwMCcsICctbWV0YWxfYmluZGluZycsICctaW1hZScsICc8aW5maWxlLm1hZT4nLCAnLW9tYWUnLCAnPG91dGZpbGUubWFlPic=

> <r_lp_tautomer_probability>
1

> <r_epik_Ionization_Penalty>
0.00552561

> <r_epik_Ionization_Penalty_Charging>
0

> <r_epik_Ionization_Penalty_Neutral>
0.00552561

> <r_epik_State_Penalty>
-0

> <r_epik_Charging_Adjusted_Penalty>
0

> <i_epik_Tot_Q>
0

> <i_epik_Tot_abs_Q>
0

> <r_epik_Metal_State_Penalty>
-0

> <b_epik_Metal_Only>
0

> <s_lp_Force_Field>
OPLS_2005

> <r_lp_Energy>
83.7492

> <b_lp_Chiralities_Consistent>
1

> <s_lp_Variant>
AV-unprocessed.smi:2520-1

> <Gold.Version>
5.8.1

> <Gold.Id.Protein>
6NUR|6NUR_protein|mol2

> <Gold.PLP.Fitness>
39.9472

> <Gold.PLP.PLP>
-37.3670

> <Gold.PLP.part.hbond>
-2.0000

> <Gold.PLP.part.metal>
0.0000

> <Gold.PLP.part.buried>
-0.8440

> <Gold.PLP.part.nonpolar>
-32.8856

> <Gold.PLP.part.repulsive>
0.2854

> <Gold.PLP.ligand.clash>
0.0000

> <Gold.PLP.ligand.torsion>
0.2423

> <Gold.PLP.Chemscore.Hbond>
0.9280

> <Gold.PLP.Chemscore.CHOScore>
0.0000

> <Gold.PLP.Chemscore.Metal>
0.0000

> <Gold.Chemscore.Hbonds>
donor molecule, donor type, donor heavy atom, donor atom, acceptor molecule, acceptor atom, score
      P1  H  7997  8009       L1     1  0.91

> <Gold.PLP.Chemscore.Internal.Correction>
0.2809

> <Gold.Rescore>
     Score         DG    S(hbond)    S(metal)    S(lipo)     H(rot)  DE(clash)    DE(int)     intcor
     11.25     -16.71       0.94        0.00      90.90       1.00       0.27       5.19       ----

> <Gold.Chemscore.Fitness>
11.2499

> <Gold.Chemscore.DG>
-16.7086

> <Gold.Chemscore.ZeroCoef>
-5.4800

> <Gold.Chemscore.Hbond>
0.9440

> <Gold.Chemscore.Metal>
0.0000

> <Gold.Chemscore.Lipo>
90.9013

> <Gold.Chemscore.Internal_Hbond>
0.0000

> <Gold.Chemscore.DEClash>
0.2670

> <Gold.Chemscore.DEInternal>
5.1917

> <Gold.Chemscore.Rot>
1.0000

> <Gold.Chemscore.Internal.Correction>
   9.000000E+99

> <Gold.Chemscore.Hbonds>
donor molecule, donor type, donor heavy atom, donor atom, acceptor molecule, acceptor atom, score
      P1  H  7997  8009       L1     1  0.88

> <Gold.Chemscore.Hbond.Weighted>
-3.1531

> <Gold.Chemscore.Metal.Weighted>
-0.0000

> <Gold.Chemscore.Lipo.Weighted>
-10.6355

> <Gold.Chemscore.Internal_Hbond.Weighted>
0.0000

> <Gold.Chemscore.DEClash.Weighted>
0.2670

> <Gold.Chemscore.DEInternal.Weighted>
5.1917

> <Gold.Chemscore.Rot.Weighted>
2.5600

> <Gold.Chemscore.Internal.Correction.Weighted>
   9.000000E+99

> <Gold.Protein.RotatedTorsions>
[ 6907 6896 6895 6894 ] final  -31.88 input  -60.11 | X-H torsion
[ 7974 7965 7964 7962 ] final  145.58 input  175.53 | X-H torsion
[ 8008 7997 7996 7995 ] final  156.58 input   59.86 | X-H torsion
[ 10167 10162 10161 10158 ] final  104.82 input  -65.29 | X-H torsion
[ 10718 10713 10712 10709 ] final  152.98 input   66.30 | X-H torsion
[ 10763 10752 10751 10750 ] final -109.09 input  -60.55 | X-H torsion
[ 11005 11000 10999 10996 ] final  132.72 input  -57.11 | X-H torsion

> <Gold.Protein.ActiveResidues>
 VAL166  LYS551  ARG553  GLY616  TRP617  ASP618  TYR619  PRO620  LYS621  CYS622 
 ASP623  PHE694  ASN695  SER759  ASP760  ASP761  ALA762  ILE779  LEU786  VAL792 
 PHE793  MET794  SER795  GLU796  ALA797  LYS798  CYS799  TRP800  GLU811  SER814 

> <Gold.Protein.RotatedAtoms>
  151.0862  134.9888  159.8380 H   0  0  0  0  0  0  0  0  0  0  0  0  # atno 6907 bound_to 6896
  152.5424  134.2121  159.8764 H   0  0  0  0  0  0  0  0  0  0  0  0  # atno 6908 bound_to 6896
  151.2154  133.4488  159.2632 H   0  0  0  0  0  0  0  0  0  0  0  0  # atno 6909 bound_to 6896
  144.8741  139.5800  143.5873 H   0  0  0  0  0  0  0  0  0  0  0  0  # atno 7974 bound_to 7965
  156.2414  140.1908  156.6977 H   0  0  0  0  0  0  0  0  0  0  0  0  # atno 8008 bound_to 7997
  154.6204  140.0609  156.9635 H   0  0  0  0  0  0  0  0  0  0  0  0  # atno 8009 bound_to 7997
  155.1870  140.3281  155.4367 H   0  0  0  0  0  0  0  0  0  0  0  0  # atno 8010 bound_to 7997
  139.7145  144.7071  151.0973 H   0  0  0  0  0  0  0  0  0  0  0  0  # atno 10167 bound_to 10162
  157.2507  131.0778  151.1731 H   0  0  0  0  0  0  0  0  0  0  0  0  # atno 10718 bound_to 10713
  154.8173  135.4614  154.0679 H   0  0  0  0  0  0  0  0  0  0  0  0  # atno 10763 bound_to 10752
  153.2061  135.6875  153.8177 H   0  0  0  0  0  0  0  0  0  0  0  0  # atno 10764 bound_to 10752
  153.7645  135.3279  155.3319 H   0  0  0  0  0  0  0  0  0  0  0  0  # atno 10765 bound_to 10752
  139.9807  134.9549  156.9622 H   0  0  0  0  0  0  0  0  0  0  0  0  # atno 11005 bound_to 11000
  146.2950  139.7252  142.9133 LP  0  0  0  0  0  0  0  0  0  0  0  0  # atno 17320 bound_to 7965
  145.4076  141.0393  143.3035 LP  0  0  0  0  0  0  0  0  0  0  0  0  # atno 17321 bound_to 7965
  140.7740  143.5248  150.9493 LP  0  0  0  0  0  0  0  0  0  0  0  0  # atno 17342 bound_to 10162
  139.8934  143.6925  152.3142 LP  0  0  0  0  0  0  0  0  0  0  0  0  # atno 17343 bound_to 10162
  157.3281  130.6971  149.6308 LP  0  0  0  0  0  0  0  0  0  0  0  0  # atno 17370 bound_to 10713
  155.9666  130.4315  150.4925 LP  0  0  0  0  0  0  0  0  0  0  0  0  # atno 17371 bound_to 10713
  140.5102  134.1010  155.7268 LP  0  0  0  0  0  0  0  0  0  0  0  0  # atno 17394 bound_to 11000
  141.1480  133.9021  157.2169 LP  0  0  0  0  0  0  0  0  0  0  0  0  # atno 17395 bound_to 11000

$$$$
