AV-unprocessed.smi:2526|AV-procd|sdf|9934|dock10
  -GOLD-   2272013573D 1   1.00000     0.00000
 Structure written by MMmdl.
 29 30  0  0  0  0  0  0  0  0  2 V2000
  153.7073  138.0632  154.2079 C   0  0  0  0  0  0  0  0  0  0  0  0
  152.4619  138.7126  154.5564 N   0  0  0  0  0  0  0  0  0  0  0  0
  151.2199  138.5545  153.9814 C   0  0  0  0  0  0  0  0  0  0  0  0
  150.3488  139.3724  154.6480 C   0  0  0  0  0  0  0  0  0  0  0  0
  148.8720  139.5883  154.4175 C   0  0  2  0  0  0  0  0  0  0  0  0
  148.4079  138.8030  153.2707 N   0  0  0  0  0  0  0  0  0  0  0  0
  147.4513  139.1480  152.3901 C   0  0  0  0  0  0  0  0  0  0  0  0
  147.0940  138.3810  151.4999 O   0  0  0  0  0  0  0  0  0  0  0  0
  146.8201  140.5461  152.4790 C   0  0  0  0  0  0  0  0  0  0  0  0
  147.0854  141.2619  153.8139 C   0  0  0  0  0  0  0  0  0  0  0  0
  148.5459  141.0905  154.2471 C   0  0  1  0  0  0  0  0  0  0  0  0
  148.8300  141.8542  155.4759 N   0  3  0  0  0  0  0  0  0  0  0  0
  151.1735  139.9929  155.6307 C   0  0  0  0  0  0  0  0  0  0  0  0
  152.4343  139.5997  155.5714 N   0  0  0  0  0  0  0  0  0  0  0  0
  153.6350  137.6284  153.2105 H   0  0  0  0  0  0  0  0  0  0  0  0
  153.9215  137.2717  154.9268 H   0  0  0  0  0  0  0  0  0  0  0  0
  154.5229  138.7873  154.2188 H   0  0  0  0  0  0  0  0  0  0  0  0
  151.0602  137.8807  153.1520 H   0  0  0  0  0  0  0  0  0  0  0  0
  148.3104  139.2128  155.2745 H   0  0  0  0  0  0  0  0  0  0  0  0
  148.8176  137.8858  153.1642 H   0  0  0  0  0  0  0  0  0  0  0  0
  147.2304  141.1409  151.6623 H   0  0  0  0  0  0  0  0  0  0  0  0
  145.7466  140.4729  152.3006 H   0  0  0  0  0  0  0  0  0  0  0  0
  146.8436  142.3204  153.7105 H   0  0  0  0  0  0  0  0  0  0  0  0
  146.4184  140.8663  154.5817 H   0  0  0  0  0  0  0  0  0  0  0  0
  149.1836  141.5054  153.4645 H   0  0  0  0  0  0  0  0  0  0  0  0
  148.8176  142.8430  155.2705 H   0  0  0  0  0  0  0  0  0  0  0  0
  149.7397  141.5955  155.8307 H   0  0  0  0  0  0  0  0  0  0  0  0
  150.8936  140.7181  156.3805 H   0  0  0  0  0  0  0  0  0  0  0  0
  148.1269  141.6450  156.1703 H   0  0  0  0  0  0  0  0  0  0  0  0
  1  2  1  0  0  0  0
  1 15  1  0  0  0  0
  1 16  1  0  0  0  0
  1 17  1  0  0  0  0
  2 14  1  0  0  0  0
  2  3  1  0  0  0  0
  3  4  2  0  0  0  0
  3 18  1  0  0  0  0
  4  5  1  0  0  0  0
  4 13  1  0  0  0  0
  5 11  1  0  0  0  0
  5  6  1  0  0  0  0
  5 19  1  0  0  0  0
  6  7  1  0  0  0  0
  6 20  1  0  0  0  0
  7  8  2  0  0  0  0
  7  9  1  0  0  0  0
  9 10  1  0  0  0  0
  9 21  1  0  0  0  0
  9 22  1  0  0  0  0
 10 11  1  0  0  0  0
 10 23  1  0  0  0  0
 10 24  1  0  0  0  0
 11 12  1  0  0  0  0
 11 25  1  0  0  0  0
 12 26  1  0  0  0  0
 12 27  1  0  0  0  0
 12 29  1  0  0  0  0
 13 14  2  0  0  0  0
 13 28  1  0  0  0  0
M  CHG  1  12   1
M  END
> <s_m_source_file>
AV-unprocessed.smi

> <i_m_source_file_index>
2526

> <i_lp_mmshare_version>
43012

> <i_f3d_flags>
0

> <s_epik_input>
W0NIM11uMVtjSF1jKFtjSF1uMSlbQ0BASF0yW05IXUMoPU8pW0NIMl1bQ0gyXVtDQEhdMltOSDJd

> <s_epik_cmdline>
J2VwaWtfcHl0aG9uJywgJy1waCcsICc3LjAnLCAnLXRuJywgJzgnLCAnLW1hJywgJzIwMCcsICctbWV0YWxfYmluZGluZycsICctaW1hZScsICc8aW5maWxlLm1hZT4nLCAnLW9tYWUnLCAnPG91dGZpbGUubWFlPic=

> <r_lp_tautomer_probability>
1

> <r_epik_Ionization_Penalty>
0.00878543

> <r_epik_Ionization_Penalty_Charging>
0.00874185

> <r_epik_Ionization_Penalty_Neutral>
4.35793e-05

> <r_epik_State_Penalty>
0.00660351

> <r_epik_Charging_Adjusted_Penalty>
0.0153454

> <i_epik_Tot_Q>
1

> <i_epik_Tot_abs_Q>
1

> <r_epik_Metal_State_Penalty>
0.00660727

> <b_epik_Metal_Only>
0

> <s_lp_Force_Field>
OPLS_2005

> <r_lp_Energy>
10.7235

> <b_lp_Chiralities_Consistent>
1

> <s_lp_Variant>
AV-unprocessed.smi:2526-1

> <Gold.Version>
5.8.1

> <Gold.Id.Protein>
6NUR|6NUR_protein|mol2

> <Gold.PLP.Fitness>
39.7745

> <Gold.PLP.PLP>
-23.1086

> <Gold.PLP.part.hbond>
-4.7976

> <Gold.PLP.part.metal>
0.0000

> <Gold.PLP.part.buried>
3.2390

> <Gold.PLP.part.nonpolar>
-24.1399

> <Gold.PLP.part.repulsive>
3.3621

> <Gold.PLP.ligand.clash>
0.1100

> <Gold.PLP.ligand.torsion>
0.0514

> <Gold.PLP.Chemscore.Hbond>
4.6076

> <Gold.PLP.Chemscore.CHOScore>
1.0114

> <Gold.PLP.Chemscore.Metal>
0.0000

> <Gold.Chemscore.Hbonds>
donor molecule, donor type, donor heavy atom, donor atom, acceptor molecule, acceptor atom, score
      L1  H     6    20       P1  7948  0.74
      L1  H    12    26       P1  8028  2.00
      P1  H  7954  7966       L1     8  1.00
      P1  H  7997  8009       L1    14  0.88
      L1  C     3    18       P1  7948  0.01
      L1  C     3    18       P1  7949  1.00

> <Gold.PLP.Chemscore.Internal.Correction>
0.0215

> <Gold.Rescore>
     Score         DG    S(hbond)    S(metal)    S(lipo)     H(rot)  DE(clash)    DE(int)     intcor
     15.90     -21.49       3.40        0.00      61.76       1.00       4.30       1.29       ----

> <Gold.Chemscore.Fitness>
15.8991

> <Gold.Chemscore.DG>
-21.4868

> <Gold.Chemscore.ZeroCoef>
-5.4800

> <Gold.Chemscore.Hbond>
3.3955

> <Gold.Chemscore.Metal>
0.0000

> <Gold.Chemscore.Lipo>
61.7601

> <Gold.Chemscore.Internal_Hbond>
0.0000

> <Gold.Chemscore.DEClash>
4.2970

> <Gold.Chemscore.DEInternal>
1.2908

> <Gold.Chemscore.Rot>
1.0000

> <Gold.Chemscore.Internal.Correction>
   9.000000E+99

> <Gold.Chemscore.Hbonds>
donor molecule, donor type, donor heavy atom, donor atom, acceptor molecule, acceptor atom, score
      L1  H     6    20       P1  7948  0.71
      L1  H    12    26       P1  8028  0.99
      P1  H  7954  7966       L1     8  0.96
      P1  H  7997  8009       L1    14  0.67

> <Gold.Chemscore.Hbond.Weighted>
-11.3409

> <Gold.Chemscore.Metal.Weighted>
-0.0000

> <Gold.Chemscore.Lipo.Weighted>
-7.2259

> <Gold.Chemscore.Internal_Hbond.Weighted>
0.0000

> <Gold.Chemscore.DEClash.Weighted>
4.2970

> <Gold.Chemscore.DEInternal.Weighted>
1.2908

> <Gold.Chemscore.Rot.Weighted>
2.5600

> <Gold.Chemscore.Internal.Correction.Weighted>
   9.000000E+99

> <Gold.Protein.RotatedTorsions>
[ 6907 6896 6895 6894 ] final   21.33 input  -60.11 | X-H torsion
[ 7974 7965 7964 7962 ] final    2.64 input  175.53 | X-H torsion
[ 8008 7997 7996 7995 ] final -150.25 input   59.86 | X-H torsion
[ 10167 10162 10161 10158 ] final -158.52 input  -65.29 | X-H torsion
[ 10718 10713 10712 10709 ] final  109.37 input   66.30 | X-H torsion
[ 10763 10752 10751 10750 ] final   54.38 input  -60.55 | X-H torsion
[ 11005 11000 10999 10996 ] final  157.13 input  -57.11 | X-H torsion

> <Gold.Protein.ActiveResidues>
 VAL166  LYS551  ARG553  GLY616  TRP617  ASP618  TYR619  PRO620  LYS621  CYS622 
 ASP623  PHE694  ASN695  SER759  ASP760  ASP761  ALA762  ILE779  LEU786  VAL792 
 PHE793  MET794  SER795  GLU796  ALA797  LYS798  CYS799  TRP800  GLU811  SER814 

> <Gold.Protein.RotatedAtoms>
  151.9102  135.0342  160.0513 H   0  0  0  0  0  0  0  0  0  0  0  0  # atno 6907 bound_to 6896
  152.2286  133.5035  159.5211 H   0  0  0  0  0  0  0  0  0  0  0  0  # atno 6908 bound_to 6896
  150.7019  134.1163  159.4061 H   0  0  0  0  0  0  0  0  0  0  0  0  # atno 6909 bound_to 6896
  146.2444  140.0805  142.8357 H   0  0  0  0  0  0  0  0  0  0  0  0  # atno 7974 bound_to 7965
  155.6205  140.0681  157.2679 H   0  0  0  0  0  0  0  0  0  0  0  0  # atno 8008 bound_to 7997
  154.4230  140.1785  156.1415 H   0  0  0  0  0  0  0  0  0  0  0  0  # atno 8009 bound_to 7997
  156.0013  140.3336  155.6852 H   0  0  0  0  0  0  0  0  0  0  0  0  # atno 8010 bound_to 7997
  139.6686  143.9785  152.2270 H   0  0  0  0  0  0  0  0  0  0  0  0  # atno 10167 bound_to 10162
  157.6544  131.0912  150.6443 H   0  0  0  0  0  0  0  0  0  0  0  0  # atno 10718 bound_to 10713
  152.9804  135.5747  154.4894 H   0  0  0  0  0  0  0  0  0  0  0  0  # atno 10763 bound_to 10752
  154.4431  135.2776  155.1836 H   0  0  0  0  0  0  0  0  0  0  0  0  # atno 10764 bound_to 10752
  154.3495  135.6212  153.5689 H   0  0  0  0  0  0  0  0  0  0  0  0  # atno 10765 bound_to 10752
  140.1740  134.8522  157.2725 H   0  0  0  0  0  0  0  0  0  0  0  0  # atno 11005 bound_to 11000
  145.0737  140.9173  143.4866 LP  0  0  0  0  0  0  0  0  0  0  0  0  # atno 17320 bound_to 7965
  145.0944  139.2867  143.5718 LP  0  0  0  0  0  0  0  0  0  0  0  0  # atno 17321 bound_to 7965
  139.9543  144.6600  150.8141 LP  0  0  0  0  0  0  0  0  0  0  0  0  # atno 17342 bound_to 10162
  140.7609  143.3162  151.2728 LP  0  0  0  0  0  0  0  0  0  0  0  0  # atno 17343 bound_to 10162
  156.6751  130.4551  149.5645 LP  0  0  0  0  0  0  0  0  0  0  0  0  # atno 17370 bound_to 10713
  156.1969  130.6595  151.1124 LP  0  0  0  0  0  0  0  0  0  0  0  0  # atno 17371 bound_to 10713
  140.2344  134.3871  155.7508 LP  0  0  0  0  0  0  0  0  0  0  0  0  # atno 17394 bound_to 11000
  141.2219  133.7231  156.8690 LP  0  0  0  0  0  0  0  0  0  0  0  0  # atno 17395 bound_to 11000

$$$$
