AV-unprocessed.smi:733|AV-procd|sdf|3529|dock2
  -GOLD-   22720 0523D 1   1.00000     0.00000
 Structure written by MMmdl.
 43 44  0  0  0  0  0  0  0  0  1 V2000
  144.9719  131.2511  151.3026 C   0  0  0  0  0  0  0  0  0  0  0  0
  146.1033  131.5728  152.2300 C   0  0  0  0  0  0  0  0  0  0  0  0
  146.5506  132.8926  152.3424 N   0  0  0  0  0  0  0  0  0  0  0  0
  147.5619  133.0124  153.2084 C   0  0  0  0  0  0  0  0  0  0  0  0
  148.2093  134.2364  153.5209 N   0  0  0  0  0  0  0  0  0  0  0  0
  148.4812  134.7469  154.7345 C   0  0  0  0  0  0  0  0  0  0  0  0
  148.1894  134.2205  155.8088 O   0  0  0  0  0  0  0  0  0  0  0  0
  149.1247  135.9188  154.6313 N   0  0  0  0  0  0  0  0  0  0  0  0
  149.5926  136.7416  155.7462 C   0  0  0  0  0  0  0  0  0  0  0  0
  150.0551  138.1580  155.3024 C   0  0  0  0  0  0  0  0  0  0  0  0
  148.8827  139.0000  154.7152 C   0  0  0  0  0  0  0  0  0  0  0  0
  149.1528  140.4959  154.4459 C   0  0  0  0  0  0  0  0  0  0  0  0
  150.0312  140.6886  153.3580 O   0  0  0  0  0  0  0  0  0  0  0  0
  150.7284  138.8795  156.4955 C   0  0  0  0  0  0  0  0  0  0  0  0
  152.2288  138.6494  156.3457 C   0  0  0  0  0  0  0  0  0  0  0  0
  152.4379  138.7223  154.8405 C   0  0  0  0  0  0  0  0  0  0  0  0
  151.1977  138.0449  154.2519 C   0  0  0  0  0  0  0  0  0  0  0  0
  148.0368  131.4946  153.9506 S   0  0  0  0  0  0  0  0  0  0  0  0
  146.7943  130.6882  153.0258 C   0  0  0  0  0  0  0  0  0  0  0  0
  146.5802  129.2163  153.1494 C   0  0  0  0  0  0  0  0  0  0  0  0
  145.3029  130.6032  150.4909 H   0  0  0  0  0  0  0  0  0  0  0  0
  144.5484  132.1504  150.8539 H   0  0  0  0  0  0  0  0  0  0  0  0
  144.1670  130.7378  151.8288 H   0  0  0  0  0  0  0  0  0  0  0  0
  148.5074  134.7835  152.7270 H   0  0  0  0  0  0  0  0  0  0  0  0
  149.3180  136.2686  153.7045 H   0  0  0  0  0  0  0  0  0  0  0  0
  148.7725  136.8189  156.4599 H   0  0  0  0  0  0  0  0  0  0  0  0
  150.3944  136.2410  156.2920 H   0  0  0  0  0  0  0  0  0  0  0  0
  148.5241  138.5346  153.7958 H   0  0  0  0  0  0  0  0  0  0  0  0
  148.0386  138.9432  155.4035 H   0  0  0  0  0  0  0  0  0  0  0  0
  148.2130  140.9911  154.2004 H   0  0  0  0  0  0  0  0  0  0  0  0
  149.5436  141.0028  155.3273 H   0  0  0  0  0  0  0  0  0  0  0  0
  149.8537  140.0277  152.7062 H   0  0  0  0  0  0  0  0  0  0  0  0
  150.5472  139.9538  156.4412 H   0  0  0  0  0  0  0  0  0  0  0  0
  150.3562  138.5451  157.4647 H   0  0  0  0  0  0  0  0  0  0  0  0
  152.8243  139.3834  156.8893 H   0  0  0  0  0  0  0  0  0  0  0  0
  152.4954  137.6577  156.7136 H   0  0  0  0  0  0  0  0  0  0  0  0
  152.4723  139.7659  154.5247 H   0  0  0  0  0  0  0  0  0  0  0  0
  153.3662  138.2472  154.5219 H   0  0  0  0  0  0  0  0  0  0  0  0
  151.4417  137.0027  154.0479 H   0  0  0  0  0  0  0  0  0  0  0  0
  150.9360  138.4886  153.2905 H   0  0  0  0  0  0  0  0  0  0  0  0
  145.5983  129.0030  153.5728 H   0  0  0  0  0  0  0  0  0  0  0  0
  147.3310  128.7599  153.7948 H   0  0  0  0  0  0  0  0  0  0  0  0
  146.6394  128.7338  152.1736 H   0  0  0  0  0  0  0  0  0  0  0  0
  1  2  1  0  0  0  0
  1 21  1  0  0  0  0
  1 22  1  0  0  0  0
  1 23  1  0  0  0  0
  2 19  2  0  0  0  0
  2  3  1  0  0  0  0
  3  4  2  0  0  0  0
  4  5  1  0  0  0  0
  4 18  1  0  0  0  0
  5  6  1  0  0  0  0
  5 24  1  0  0  0  0
  6  7  2  0  0  0  0
  6  8  1  0  0  0  0
  8  9  1  0  0  0  0
  8 25  1  0  0  0  0
  9 10  1  0  0  0  0
  9 26  1  0  0  0  0
  9 27  1  0  0  0  0
 10 17  1  0  0  0  0
 10 11  1  0  0  0  0
 10 14  1  0  0  0  0
 11 12  1  0  0  0  0
 11 28  1  0  0  0  0
 11 29  1  0  0  0  0
 12 13  1  0  0  0  0
 12 30  1  0  0  0  0
 12 31  1  0  0  0  0
 13 32  1  0  0  0  0
 14 15  1  0  0  0  0
 14 33  1  0  0  0  0
 14 34  1  0  0  0  0
 15 16  1  0  0  0  0
 15 35  1  0  0  0  0
 15 36  1  0  0  0  0
 16 17  1  0  0  0  0
 16 37  1  0  0  0  0
 16 38  1  0  0  0  0
 17 39  1  0  0  0  0
 17 40  1  0  0  0  0
 18 19  1  0  0  0  0
 19 20  1  0  0  0  0
 20 41  1  0  0  0  0
 20 42  1  0  0  0  0
 20 43  1  0  0  0  0
M  END
> <s_m_source_file>
AV-unprocessed.smi

> <i_m_source_file_index>
733

> <i_lp_mmshare_version>
43012

> <i_f3d_flags>
0

> <s_epik_input>
W0NIM11jMW5jKHNjMVtDSDNdKVtOSF1DKD1PKVtOSF1bQ0gyXUMyKFtDSDJdW0NIMl1bT0hdKVtDSDJdW0NIMl1bQ0gyXVtDSDJdMg==

> <s_epik_cmdline>
J2VwaWtfcHl0aG9uJywgJy1waCcsICc3LjAnLCAnLXRuJywgJzgnLCAnLW1hJywgJzIwMCcsICctbWV0YWxfYmluZGluZycsICctaW1hZScsICc8aW5maWxlLm1hZT4nLCAnLW9tYWUnLCAnPG91dGZpbGUubWFlPic=

> <r_lp_tautomer_probability>
0.999

> <r_epik_Ionization_Penalty>
0.000695797

> <r_epik_Ionization_Penalty_Charging>
0

> <r_epik_Ionization_Penalty_Neutral>
0.000695797

> <r_epik_State_Penalty>
0.000177984

> <r_epik_Charging_Adjusted_Penalty>
0.000177984

> <i_epik_Tot_Q>
0

> <i_epik_Tot_abs_Q>
0

> <r_epik_Metal_State_Penalty>
-0

> <b_epik_Metal_Only>
0

> <s_lp_Force_Field>
OPLS_2005

> <r_lp_Energy>
29.226

> <b_lp_Chiralities_Consistent>
1

> <s_lp_Variant>
AV-unprocessed.smi:733-1

> <Gold.Version>
5.8.1

> <Gold.Id.Protein>
6NUR|6NUR_protein|mol2

> <Gold.PLP.Fitness>
44.2653

> <Gold.PLP.PLP>
-33.1277

> <Gold.PLP.part.hbond>
-4.3624

> <Gold.PLP.part.metal>
0.0000

> <Gold.PLP.part.buried>
-3.2077

> <Gold.PLP.part.nonpolar>
-24.4460

> <Gold.PLP.part.repulsive>
0.1659

> <Gold.PLP.ligand.clash>
0.0000

> <Gold.PLP.ligand.torsion>
0.6115

> <Gold.PLP.Chemscore.Hbond>
4.0880

> <Gold.PLP.Chemscore.CHOScore>
0.0000

> <Gold.PLP.Chemscore.Metal>
0.0000

> <Gold.Chemscore.Hbonds>
donor molecule, donor type, donor heavy atom, donor atom, acceptor molecule, acceptor atom, score
      L1  H     5    24       P1  7948  1.00
      L1  H     8    25       P1  7948  0.99
      L1  H    13    32       P1  7957  0.69
      P1  H  7989  7998       L1    13  0.34
      P1  H  8011  8017       L1    13  1.00

> <Gold.PLP.Chemscore.Internal.Correction>
0.0966

> <Gold.Rescore>
     Score         DG    S(hbond)    S(metal)    S(lipo)     H(rot)  DE(clash)    DE(int)     intcor
     18.57     -19.13       3.03        0.00      80.47       2.30       0.01       0.54       ----

> <Gold.Chemscore.Fitness>
18.5741

> <Gold.Chemscore.DG>
-19.1301

> <Gold.Chemscore.ZeroCoef>
-5.4800

> <Gold.Chemscore.Hbond>
3.0300

> <Gold.Chemscore.Metal>
0.0000

> <Gold.Chemscore.Lipo>
80.4738

> <Gold.Chemscore.Internal_Hbond>
0.0000

> <Gold.Chemscore.DEClash>
0.0145

> <Gold.Chemscore.DEInternal>
0.5416

> <Gold.Chemscore.Rot>
2.2990

> <Gold.Chemscore.Internal.Correction>
   9.000000E+99

> <Gold.Chemscore.Hbonds>
donor molecule, donor type, donor heavy atom, donor atom, acceptor molecule, acceptor atom, score
      L1  H     5    24       P1  7948  0.30
      L1  H     8    25       P1  7948  0.81
      L1  H    13    32       P1  7957  0.67
      P1  H  7989  7998       L1    13  0.22
      P1  H  8011  8017       L1    13  0.35

> <Gold.Chemscore.Hbond.Weighted>
-10.1201

> <Gold.Chemscore.Metal.Weighted>
-0.0000

> <Gold.Chemscore.Lipo.Weighted>
-9.4154

> <Gold.Chemscore.Internal_Hbond.Weighted>
0.0000

> <Gold.Chemscore.DEClash.Weighted>
0.0145

> <Gold.Chemscore.DEInternal.Weighted>
0.5416

> <Gold.Chemscore.Rot.Weighted>
5.8854

> <Gold.Chemscore.Internal.Correction.Weighted>
   9.000000E+99

> <Gold.Protein.RotatedTorsions>
[ 6907 6896 6895 6894 ] final -154.13 input  -60.11 | X-H torsion
[ 7974 7965 7964 7962 ] final  146.85 input  175.53 | X-H torsion
[ 8008 7997 7996 7995 ] final  -84.22 input   59.86 | X-H torsion
[ 10167 10162 10161 10158 ] final  165.03 input  -65.29 | X-H torsion
[ 10718 10713 10712 10709 ] final -148.49 input   66.30 | X-H torsion
[ 10763 10752 10751 10750 ] final  -30.33 input  -60.55 | X-H torsion
[ 11005 11000 10999 10996 ] final -155.53 input  -57.11 | X-H torsion

> <Gold.Protein.ActiveResidues>
 VAL166  LYS551  ARG553  GLY616  TRP617  ASP618  TYR619  PRO620  LYS621  CYS622 
 ASP623  PHE694  ASN695  SER759  ASP760  ASP761  ALA762  ILE779  LEU786  VAL792 
 PHE793  MET794  SER795  GLU796  ALA797  LYS798  CYS799  TRP800  GLU811  SER814 

> <Gold.Protein.RotatedAtoms>
  151.2529  133.4341  159.2612 H   0  0  0  0  0  0  0  0  0  0  0  0  # atno 6907 bound_to 6896
  151.0600  134.9731  159.8266 H   0  0  0  0  0  0  0  0  0  0  0  0  # atno 6908 bound_to 6896
  152.5397  134.2480  159.8940 H   0  0  0  0  0  0  0  0  0  0  0  0  # atno 6909 bound_to 6896
  144.8638  139.5956  143.5918 H   0  0  0  0  0  0  0  0  0  0  0  0  # atno 7974 bound_to 7965
  154.6274  140.0608  156.9690 H   0  0  0  0  0  0  0  0  0  0  0  0  # atno 8008 bound_to 7997
  155.1720  140.3292  155.4372 H   0  0  0  0  0  0  0  0  0  0  0  0  # atno 8009 bound_to 7997
  156.2465  140.1912  156.6821 H   0  0  0  0  0  0  0  0  0  0  0  0  # atno 8010 bound_to 7997
  139.4899  144.4174  151.9227 H   0  0  0  0  0  0  0  0  0  0  0  0  # atno 10167 bound_to 10162
  156.4210  130.8028  151.2251 H   0  0  0  0  0  0  0  0  0  0  0  0  # atno 10718 bound_to 10713
  153.7792  135.6906  153.4891 H   0  0  0  0  0  0  0  0  0  0  0  0  # atno 10763 bound_to 10752
  153.1823  135.4502  155.0042 H   0  0  0  0  0  0  0  0  0  0  0  0  # atno 10764 bound_to 10752
  154.8088  135.3368  154.7296 H   0  0  0  0  0  0  0  0  0  0  0  0  # atno 10765 bound_to 10752
  140.6854  134.4099  157.5223 H   0  0  0  0  0  0  0  0  0  0  0  0  # atno 11005 bound_to 11000
  146.2880  139.7059  142.9181 LP  0  0  0  0  0  0  0  0  0  0  0  0  # atno 17320 bound_to 7965
  145.4261  141.0411  143.2937 LP  0  0  0  0  0  0  0  0  0  0  0  0  # atno 17321 bound_to 7965
  140.3617  144.2964  150.5932 LP  0  0  0  0  0  0  0  0  0  0  0  0  # atno 17342 bound_to 10162
  140.5397  143.2226  151.8105 LP  0  0  0  0  0  0  0  0  0  0  0  0  # atno 17343 bound_to 10162
  157.7508  131.0228  150.3808 LP  0  0  0  0  0  0  0  0  0  0  0  0  # atno 17370 bound_to 10713
  156.4125  130.3937  149.6881 LP  0  0  0  0  0  0  0  0  0  0  0  0  # atno 17371 bound_to 10713
  139.8939  134.8719  156.2202 LP  0  0  0  0  0  0  0  0  0  0  0  0  # atno 17394 bound_to 11000
  141.0284  133.7002  156.1387 LP  0  0  0  0  0  0  0  0  0  0  0  0  # atno 17395 bound_to 11000

$$$$
