AV-unprocessed.smi:1166|AV-procd|sdf|4936|dock9
  -GOLD-   22720 3523D 1   1.00000     0.00000
 Structure written by MMmdl.
 46 47  0  0  0  0  0  0  0  0  1 V2000
  144.6791  131.9422  150.5666 C   0  0  0  0  0  0  0  0  0  0  0  0
  145.3409  133.0069  151.3138 N   0  0  0  0  0  0  0  0  0  0  0  0
  146.7450  132.8711  151.6807 C   0  0  0  0  0  0  0  0  0  0  0  0
  144.6446  134.2042  151.5979 C   0  0  0  0  0  0  0  0  0  0  0  0
  143.2804  134.1933  151.9813 C   0  0  0  0  0  0  0  0  0  0  0  0
  142.6331  135.4133  152.2529 C   0  0  0  0  0  0  0  0  0  0  0  0
  143.3503  136.6182  152.1293 C   0  0  0  0  0  0  0  0  0  0  0  0
  142.6752  137.8318  152.4292 N   0  0  0  0  0  0  0  0  0  0  0  0
  141.3789  138.0142  152.7326 C   0  0  0  0  0  0  0  0  0  0  0  0
  140.5363  137.1219  152.8271 O   0  0  0  0  0  0  0  0  0  0  0  0
  141.1112  139.3099  152.9466 N   0  0  0  0  0  0  0  0  0  0  0  0
  139.8110  139.8492  153.3317 C   0  0  2  0  0  0  0  0  0  0  0  0
  138.7237  139.4267  152.3301 C   0  0  0  0  0  0  0  0  0  0  0  0
  137.3818  140.0496  152.7315 C   0  0  0  0  0  0  0  0  0  0  0  0
  137.4869  141.5806  152.8468 C   0  0  0  0  0  0  0  0  0  0  0  0
  138.5887  141.9867  153.7434 N   0  0  0  0  0  0  0  0  0  0  0  0
  138.2447  142.4979  155.3710 S   0  0  0  0  0  0  0  0  0  0  0  0
  138.3060  144.3349  155.2907 C   0  0  0  0  0  0  0  0  0  0  0  0
  136.8639  142.0993  155.6845 O   0  0  0  0  0  0  0  0  0  0  0  0
  139.3482  142.0393  156.2287 O   0  0  0  0  0  0  0  0  0  0  0  0
  139.8980  141.3850  153.4225 C   0  0  0  0  0  0  0  0  0  0  0  0
  144.7108  136.5338  151.7521 C   0  0  0  0  0  0  0  0  0  0  0  0
  145.3351  135.3659  151.4923 N   0  0  0  0  0  0  0  0  0  0  0  0
  143.7762  131.6145  151.0827 H   0  0  0  0  0  0  0  0  0  0  0  0
  145.3283  131.0741  150.4507 H   0  0  0  0  0  0  0  0  0  0  0  0
  144.4028  132.2890  149.5704 H   0  0  0  0  0  0  0  0  0  0  0  0
  147.3412  133.6540  151.2110 H   0  0  0  0  0  0  0  0  0  0  0  0
  147.1478  131.9101  151.3607 H   0  0  0  0  0  0  0  0  0  0  0  0
  146.8671  132.9385  152.7621 H   0  0  0  0  0  0  0  0  0  0  0  0
  142.7183  133.2763  152.0724 H   0  0  0  0  0  0  0  0  0  0  0  0
  141.5942  135.4197  152.5489 H   0  0  0  0  0  0  0  0  0  0  0  0
  143.2612  138.6526  152.4725 H   0  0  0  0  0  0  0  0  0  0  0  0
  141.8659  139.9732  152.8491 H   0  0  0  0  0  0  0  0  0  0  0  0
  139.5514  139.4575  154.3151 H   0  0  0  0  0  0  0  0  0  0  0  0
  138.9934  139.7487  151.3233 H   0  0  0  0  0  0  0  0  0  0  0  0
  138.6322  138.3403  152.2991 H   0  0  0  0  0  0  0  0  0  0  0  0
  136.6192  139.7881  151.9976 H   0  0  0  0  0  0  0  0  0  0  0  0
  137.0500  139.6241  153.6777 H   0  0  0  0  0  0  0  0  0  0  0  0
  137.6723  142.0081  151.8609 H   0  0  0  0  0  0  0  0  0  0  0  0
  136.5422  142.0005  153.1905 H   0  0  0  0  0  0  0  0  0  0  0  0
  138.1230  144.7395  156.2858 H   0  0  0  0  0  0  0  0  0  0  0  0
  137.5365  144.7039  154.6150 H   0  0  0  0  0  0  0  0  0  0  0  0
  139.2883  144.6603  154.9528 H   0  0  0  0  0  0  0  0  0  0  0  0
  140.6396  141.6818  154.1639 H   0  0  0  0  0  0  0  0  0  0  0  0
  140.2367  141.7937  152.4693 H   0  0  0  0  0  0  0  0  0  0  0  0
  145.3383  137.4074  151.6714 H   0  0  0  0  0  0  0  0  0  0  0  0
  1  2  1  0  0  0  0
  1 24  1  0  0  0  0
  1 25  1  0  0  0  0
  1 26  1  0  0  0  0
  2  3  1  0  0  0  0
  2  4  1  0  0  0  0
  3 27  1  0  0  0  0
  3 28  1  0  0  0  0
  3 29  1  0  0  0  0
  4 23  1  0  0  0  0
  4  5  2  0  0  0  0
  5  6  1  0  0  0  0
  5 30  1  0  0  0  0
  6  7  2  0  0  0  0
  6 31  1  0  0  0  0
  7  8  1  0  0  0  0
  7 22  1  0  0  0  0
  8  9  1  0  0  0  0
  8 32  1  0  0  0  0
  9 10  2  0  0  0  0
  9 11  1  0  0  0  0
 11 12  1  0  0  0  0
 11 33  1  0  0  0  0
 12 21  1  0  0  0  0
 12 13  1  0  0  0  0
 12 34  1  0  0  0  0
 13 14  1  0  0  0  0
 13 35  1  0  0  0  0
 13 36  1  0  0  0  0
 14 15  1  0  0  0  0
 14 37  1  0  0  0  0
 14 38  1  0  0  0  0
 15 16  1  0  0  0  0
 15 39  1  0  0  0  0
 15 40  1  0  0  0  0
 16 17  1  0  0  0  0
 16 21  1  0  0  0  0
 17 18  1  0  0  0  0
 17 19  2  0  0  0  0
 17 20  2  0  0  0  0
 18 41  1  0  0  0  0
 18 42  1  0  0  0  0
 18 43  1  0  0  0  0
 21 44  1  0  0  0  0
 21 45  1  0  0  0  0
 22 23  2  0  0  0  0
 22 46  1  0  0  0  0
M  END
> <s_m_source_file>
AV-unprocessed.smi

> <i_m_source_file_index>
1166

> <i_lp_mmshare_version>
43012

> <i_f3d_flags>
0

> <s_epik_input>
W0NIM11OKFtDSDNdKWMxW2NIXVtjSF1jKFtjSF1uMSlbTkhdQyg9TylbTkhdW0NAQEhdMltDSDJdW0NIMl1bQ0gyXU4oW0NIMl0yKVMoPU8pKD1PKVtDSDNd

> <s_epik_cmdline>
J2VwaWtfcHl0aG9uJywgJy1waCcsICc3LjAnLCAnLXRuJywgJzgnLCAnLW1hJywgJzIwMCcsICctbWV0YWxfYmluZGluZycsICctaW1hZScsICc8aW5maWxlLm1hZT4nLCAnLW9tYWUnLCAnPG91dGZpbGUubWFlPic=

> <r_lp_tautomer_probability>
1

> <r_epik_Ionization_Penalty>
0.585334

> <r_epik_Ionization_Penalty_Charging>
0

> <r_epik_Ionization_Penalty_Neutral>
0.585334

> <r_epik_State_Penalty>
0.597345

> <r_epik_Charging_Adjusted_Penalty>
0.597345

> <i_epik_Tot_Q>
0

> <i_epik_Tot_abs_Q>
0

> <r_epik_Metal_State_Penalty>
0.29678

> <b_epik_Metal_Only>
0

> <s_lp_Force_Field>
OPLS_2005

> <r_lp_Energy>
0.833523

> <b_lp_Chiralities_Consistent>
1

> <s_lp_Variant>
AV-unprocessed.smi:1166-3

> <Gold.Version>
5.8.1

> <Gold.Id.Protein>
6NUR|6NUR_protein|mol2

> <Gold.PLP.Fitness>
39.6909

> <Gold.PLP.PLP>
-33.5417

> <Gold.PLP.part.hbond>
-3.5150

> <Gold.PLP.part.metal>
0.0000

> <Gold.PLP.part.buried>
-2.3336

> <Gold.PLP.part.nonpolar>
-28.1839

> <Gold.PLP.part.repulsive>
0.3958

> <Gold.PLP.ligand.clash>
0.0000

> <Gold.PLP.ligand.torsion>
1.6202

> <Gold.PLP.Chemscore.Hbond>
2.0000

> <Gold.PLP.Chemscore.CHOScore>
0.4422

> <Gold.PLP.Chemscore.Metal>
0.0000

> <Gold.Chemscore.Hbonds>
donor molecule, donor type, donor heavy atom, donor atom, acceptor molecule, acceptor atom, score
      L1  H     8    32       P1 10175  1.00
      L1  H    11    33       P1 10175  0.85
      L1  C    22    46       P1 10171  0.22

> <Gold.PLP.Chemscore.Internal.Correction>
2.0629

> <Gold.Rescore>
     Score         DG    S(hbond)    S(metal)    S(lipo)     H(rot)  DE(clash)    DE(int)     intcor
     12.17     -16.63       1.74        0.00      67.64       1.00       0.05       4.42       ----

> <Gold.Chemscore.Fitness>
12.1663

> <Gold.Chemscore.DG>
-16.6321

> <Gold.Chemscore.ZeroCoef>
-5.4800

> <Gold.Chemscore.Hbond>
1.7361

> <Gold.Chemscore.Metal>
0.0000

> <Gold.Chemscore.Lipo>
67.6364

> <Gold.Chemscore.Internal_Hbond>
0.0000

> <Gold.Chemscore.DEClash>
0.0480

> <Gold.Chemscore.DEInternal>
4.4178

> <Gold.Chemscore.Rot>
1.0000

> <Gold.Chemscore.Internal.Correction>
   9.000000E+99

> <Gold.Chemscore.Hbonds>
donor molecule, donor type, donor heavy atom, donor atom, acceptor molecule, acceptor atom, score
      L1  H     8    32       P1 10175  0.98
      L1  H    11    33       P1 10175  0.14

> <Gold.Chemscore.Hbond.Weighted>
-5.7986

> <Gold.Chemscore.Metal.Weighted>
-0.0000

> <Gold.Chemscore.Lipo.Weighted>
-7.9135

> <Gold.Chemscore.Internal_Hbond.Weighted>
0.0000

> <Gold.Chemscore.DEClash.Weighted>
0.0480

> <Gold.Chemscore.DEInternal.Weighted>
4.4178

> <Gold.Chemscore.Rot.Weighted>
2.5600

> <Gold.Chemscore.Internal.Correction.Weighted>
   9.000000E+99

> <Gold.Protein.RotatedTorsions>
[ 6907 6896 6895 6894 ] final   10.33 input  -60.11 | X-H torsion
[ 7974 7965 7964 7962 ] final   -4.95 input  175.53 | X-H torsion
[ 8008 7997 7996 7995 ] final   41.93 input   59.86 | X-H torsion
[ 10167 10162 10161 10158 ] final -167.96 input  -65.29 | X-H torsion
[ 10718 10713 10712 10709 ] final  -30.27 input   66.30 | X-H torsion
[ 10763 10752 10751 10750 ] final    8.13 input  -60.55 | X-H torsion
[ 11005 11000 10999 10996 ] final   99.66 input  -57.11 | X-H torsion

> <Gold.Protein.ActiveResidues>
 VAL166  LYS551  ARG553  GLY616  TRP617  ASP618  TYR619  PRO620  LYS621  CYS622 
 ASP623  PHE694  ASN695  SER759  ASP760  ASP761  ALA762  ILE779  LEU786  VAL792 
 PHE793  MET794  SER795  GLU796  ALA797  LYS798  CYS799  TRP800  GLU811  SER814 

> <Gold.Protein.RotatedAtoms>
  151.7366  135.0863  160.0308 H   0  0  0  0  0  0  0  0  0  0  0  0  # atno 6907 bound_to 6896
  152.3507  133.6171  159.5951 H   0  0  0  0  0  0  0  0  0  0  0  0  # atno 6908 bound_to 6896
  150.7538  133.9495  159.3523 H   0  0  0  0  0  0  0  0  0  0  0  0  # atno 6909 bound_to 6896
  146.2362  140.1948  142.8333 H   0  0  0  0  0  0  0  0  0  0  0  0  # atno 7974 bound_to 7965
  155.2779  140.3370  155.4260 H   0  0  0  0  0  0  0  0  0  0  0  0  # atno 8008 bound_to 7997
  156.2103  140.1767  156.7750 H   0  0  0  0  0  0  0  0  0  0  0  0  # atno 8009 bound_to 7997
  154.5677  140.0675  156.8902 H   0  0  0  0  0  0  0  0  0  0  0  0  # atno 8010 bound_to 7997
  139.6016  144.0999  152.1748 H   0  0  0  0  0  0  0  0  0  0  0  0  # atno 10167 bound_to 10162
  156.4019  130.4392  149.7316 H   0  0  0  0  0  0  0  0  0  0  0  0  # atno 10718 bound_to 10713
  153.2285  135.6890  153.7917 H   0  0  0  0  0  0  0  0  0  0  0  0  # atno 10763 bound_to 10752
  153.7090  135.3285  155.3243 H   0  0  0  0  0  0  0  0  0  0  0  0  # atno 10764 bound_to 10752
  154.8303  135.4586  154.1161 H   0  0  0  0  0  0  0  0  0  0  0  0  # atno 10765 bound_to 10752
  139.8770  134.9105  156.4639 H   0  0  0  0  0  0  0  0  0  0  0  0  # atno 11005 bound_to 11000
  144.9828  140.8475  143.5386 LP  0  0  0  0  0  0  0  0  0  0  0  0  # atno 17320 bound_to 7965
  145.1944  139.2284  143.5226 LP  0  0  0  0  0  0  0  0  0  0  0  0  # atno 17321 bound_to 7965
  140.0597  144.5867  150.7272 LP  0  0  0  0  0  0  0  0  0  0  0  0  # atno 17342 bound_to 10162
  140.7254  143.2630  151.4139 LP  0  0  0  0  0  0  0  0  0  0  0  0  # atno 17343 bound_to 10162
  156.4329  130.7824  151.2844 LP  0  0  0  0  0  0  0  0  0  0  0  0  # atno 17370 bound_to 10713
  157.7504  131.0148  150.3480 LP  0  0  0  0  0  0  0  0  0  0  0  0  # atno 17371 bound_to 10713
  140.8844  133.7894  155.9502 LP  0  0  0  0  0  0  0  0  0  0  0  0  # atno 17394 bound_to 11000
  140.8820  134.2600  157.5139 LP  0  0  0  0  0  0  0  0  0  0  0  0  # atno 17395 bound_to 11000

$$$$
