AV-unprocessed.smi:2528|AV-procd|sdf|9956|dock1
  -GOLD-   2272013593D 1   1.00000     0.00000
 Structure written by MMmdl.
 43 45  0  0  0  0  0  0  0  0  1 V2000
  149.9842  136.0466  159.0615 O   0  0  0  0  0  0  0  0  0  0  0  0
  149.6680  137.0977  159.6198 C   0  0  0  0  0  0  0  0  0  0  0  0
  149.8165  138.3052  159.0564 N   0  0  0  0  0  0  0  0  0  0  0  0
  150.3506  138.5417  157.7190 C   0  0  0  0  0  0  0  0  0  0  0  0
  150.8985  139.9701  157.5441 C   0  0  2  0  0  0  0  0  0  0  0  0
  151.6614  140.4846  158.7820 C   0  0  0  0  0  0  0  0  0  0  0  0
  152.0910  141.8683  158.6211 N   0  0  0  0  0  0  0  0  0  0  0  0
  152.7966  142.3472  159.8086 C   0  0  0  0  0  0  0  0  0  0  0  0
  153.2899  143.7949  159.6550 C   0  0  0  0  0  0  0  0  0  0  0  0
  152.1154  144.7260  159.3223 C   0  0  0  0  0  0  0  0  0  0  0  0
  151.3473  144.1898  158.1045 C   0  0  0  0  0  0  0  0  0  0  0  0
  150.9359  142.7180  158.3158 C   0  0  1  0  0  0  0  0  0  0  0  0
  150.1719  142.1861  157.0866 C   0  0  0  0  0  0  0  0  0  0  0  0
  149.7904  140.8319  157.3029 O   0  0  0  0  0  0  0  0  0  0  0  0
  149.1337  137.1954  160.8499 N   0  0  0  0  0  0  0  0  0  0  0  0
  148.8212  136.1463  161.7556 C   0  0  0  0  0  0  0  0  0  0  0  0
  148.8089  136.5152  163.1201 C   0  0  0  0  0  0  0  0  0  0  0  0
  148.5095  135.5461  164.0972 C   0  0  0  0  0  0  0  0  0  0  0  0
  148.2321  134.2307  163.6846 C   0  0  0  0  0  0  0  0  0  0  0  0
  148.2668  133.9465  162.3071 C   0  0  0  0  0  0  0  0  0  0  0  0
  148.5523  134.8739  161.3692 N   0  0  0  0  0  0  0  0  0  0  0  0
  149.5310  139.1178  159.5831 H   0  0  0  0  0  0  0  0  0  0  0  0
  151.1327  137.8114  157.5045 H   0  0  0  0  0  0  0  0  0  0  0  0
  149.5544  138.3588  156.9969 H   0  0  0  0  0  0  0  0  0  0  0  0
  151.5550  140.0001  156.6725 H   0  0  0  0  0  0  0  0  0  0  0  0
  151.0223  140.3964  159.6620 H   0  0  0  0  0  0  0  0  0  0  0  0
  152.5314  139.8533  158.9646 H   0  0  0  0  0  0  0  0  0  0  0  0
  152.1430  142.2795  160.6797 H   0  0  0  0  0  0  0  0  0  0  0  0
  153.6505  141.7002  160.0123 H   0  0  0  0  0  0  0  0  0  0  0  0
  153.7822  144.1240  160.5704 H   0  0  0  0  0  0  0  0  0  0  0  0
  154.0372  143.8460  158.8619 H   0  0  0  0  0  0  0  0  0  0  0  0
  151.4443  144.7893  160.1797 H   0  0  0  0  0  0  0  0  0  0  0  0
  152.4745  145.7374  159.1301 H   0  0  0  0  0  0  0  0  0  0  0  0
  150.4662  144.8067  157.9247 H   0  0  0  0  0  0  0  0  0  0  0  0
  151.9726  144.2743  157.2146 H   0  0  0  0  0  0  0  0  0  0  0  0
  150.2502  142.6853  159.1643 H   0  0  0  0  0  0  0  0  0  0  0  0
  149.2736  142.7779  156.9097 H   0  0  0  0  0  0  0  0  0  0  0  0
  150.7833  142.2567  156.1853 H   0  0  0  0  0  0  0  0  0  0  0  0
  148.9161  138.1267  161.1719 H   0  0  0  0  0  0  0  0  0  0  0  0
  149.0239  137.5308  163.4198 H   0  0  0  0  0  0  0  0  0  0  0  0
  148.4932  135.8081  165.1447 H   0  0  0  0  0  0  0  0  0  0  0  0
  147.9990  133.4598  164.4041 H   0  0  0  0  0  0  0  0  0  0  0  0
  148.0600  132.9492  161.9483 H   0  0  0  0  0  0  0  0  0  0  0  0
  1  2  2  0  0  0  0
  2  3  1  0  0  0  0
  2 15  1  0  0  0  0
  3  4  1  0  0  0  0
  3 22  1  0  0  0  0
  4  5  1  0  0  0  0
  4 23  1  0  0  0  0
  4 24  1  0  0  0  0
  5 14  1  0  0  0  0
  5  6  1  0  0  0  0
  5 25  1  0  0  0  0
  6  7  1  0  0  0  0
  6 26  1  0  0  0  0
  6 27  1  0  0  0  0
  7 12  1  0  0  0  0
  7  8  1  0  0  0  0
  8  9  1  0  0  0  0
  8 28  1  0  0  0  0
  8 29  1  0  0  0  0
  9 10  1  0  0  0  0
  9 30  1  0  0  0  0
  9 31  1  0  0  0  0
 10 11  1  0  0  0  0
 10 32  1  0  0  0  0
 10 33  1  0  0  0  0
 11 12  1  0  0  0  0
 11 34  1  0  0  0  0
 11 35  1  0  0  0  0
 12 13  1  0  0  0  0
 12 36  1  0  0  0  0
 13 14  1  0  0  0  0
 13 37  1  0  0  0  0
 13 38  1  0  0  0  0
 15 16  1  0  0  0  0
 15 39  1  0  0  0  0
 16 21  1  0  0  0  0
 16 17  2  0  0  0  0
 17 18  1  0  0  0  0
 17 40  1  0  0  0  0
 18 19  2  0  0  0  0
 18 41  1  0  0  0  0
 19 20  1  0  0  0  0
 19 42  1  0  0  0  0
 20 21  2  0  0  0  0
 20 43  1  0  0  0  0
M  END
> <s_m_source_file>
AV-unprocessed.smi

> <i_m_source_file_index>
2528

> <i_lp_mmshare_version>
43012

> <i_f3d_flags>
0

> <s_epik_input>
bjFbY0hdW2NIXVtjSF1bY0hdYzFbTkhdQyg9TylbTkhdW0NIMl1bQ0BIXShbQ0gyXTIpT1tDSDJdW0NAQEhdKE4yMylbQ0gyXVtDSDJdW0NIMl1bQ0gyXTM=

> <s_epik_cmdline>
J2VwaWtfcHl0aG9uJywgJy1waCcsICc3LjAnLCAnLXRuJywgJzgnLCAnLW1hJywgJzIwMCcsICctbWV0YWxfYmluZGluZycsICctaW1hZScsICc8aW5maWxlLm1hZT4nLCAnLW9tYWUnLCAnPG91dGZpbGUubWFlPic=

> <r_epik_Ionization_Penalty>
1.14192

> <r_epik_Ionization_Penalty_Charging>
0

> <r_epik_Ionization_Penalty_Neutral>
1.14192

> <r_epik_State_Penalty>
1.20248

> <r_epik_Charging_Adjusted_Penalty>
1.20248

> <i_epik_Tot_Q>
0

> <i_epik_Tot_abs_Q>
0

> <r_epik_Metal_State_Penalty>
1.20248

> <b_epik_Metal_Only>
0

> <s_lp_Force_Field>
OPLS_2005

> <r_lp_Energy>
34.3645

> <b_lp_Chiralities_Consistent>
1

> <s_lp_Variant>
AV-unprocessed.smi:2528-9

> <Gold.Version>
5.8.1

> <Gold.Id.Protein>
6NUR|6NUR_protein|mol2

> <Gold.PLP.Fitness>
46.9976

> <Gold.PLP.PLP>
-44.9623

> <Gold.PLP.part.hbond>
-1.0000

> <Gold.PLP.part.metal>
0.0000

> <Gold.PLP.part.buried>
-5.5049

> <Gold.PLP.part.nonpolar>
-39.8593

> <Gold.PLP.part.repulsive>
0.4238

> <Gold.PLP.ligand.clash>
0.0000

> <Gold.PLP.ligand.torsion>
0.4850

> <Gold.PLP.Chemscore.Hbond>
1.0000

> <Gold.PLP.Chemscore.CHOScore>
0.0000

> <Gold.PLP.Chemscore.Metal>
0.0000

> <Gold.Chemscore.Hbonds>
donor molecule, donor type, donor heavy atom, donor atom, acceptor molecule, acceptor atom, score
      P1  H  6896  6908       L1     1  0.96

> <Gold.PLP.Chemscore.Internal.Correction>
0.0052

> <Gold.Rescore>
     Score         DG    S(hbond)    S(metal)    S(lipo)     H(rot)  DE(clash)    DE(int)     intcor
     17.15     -18.88       0.95        0.00     115.18       1.27       0.12       1.62       ----

> <Gold.Chemscore.Fitness>
17.1456

> <Gold.Chemscore.DG>
-18.8831

> <Gold.Chemscore.ZeroCoef>
-5.4800

> <Gold.Chemscore.Hbond>
0.9514

> <Gold.Chemscore.Metal>
0.0000

> <Gold.Chemscore.Lipo>
115.1771

> <Gold.Chemscore.Internal_Hbond>
0.0000

> <Gold.Chemscore.DEClash>
0.1171

> <Gold.Chemscore.DEInternal>
1.6204

> <Gold.Chemscore.Rot>
1.2696

> <Gold.Chemscore.Internal.Correction>
   9.000000E+99

> <Gold.Chemscore.Hbonds>
donor molecule, donor type, donor heavy atom, donor atom, acceptor molecule, acceptor atom, score
      P1  H  6896  6908       L1     1  0.92

> <Gold.Chemscore.Hbond.Weighted>
-3.1776

> <Gold.Chemscore.Metal.Weighted>
-0.0000

> <Gold.Chemscore.Lipo.Weighted>
-13.4757

> <Gold.Chemscore.Internal_Hbond.Weighted>
0.0000

> <Gold.Chemscore.DEClash.Weighted>
0.1171

> <Gold.Chemscore.DEInternal.Weighted>
1.6204

> <Gold.Chemscore.Rot.Weighted>
3.2502

> <Gold.Chemscore.Internal.Correction.Weighted>
   9.000000E+99

> <Gold.Protein.RotatedTorsions>
[ 6907 6896 6895 6894 ] final  170.52 input  -60.11 | X-H torsion
[ 7974 7965 7964 7962 ] final -157.57 input  175.53 | X-H torsion
[ 8008 7997 7996 7995 ] final   86.28 input   59.86 | X-H torsion
[ 10167 10162 10161 10158 ] final   51.48 input  -65.29 | X-H torsion
[ 10718 10713 10712 10709 ] final  -23.02 input   66.30 | X-H torsion
[ 10763 10752 10751 10750 ] final   77.65 input  -60.55 | X-H torsion
[ 11005 11000 10999 10996 ] final  151.40 input  -57.11 | X-H torsion

> <Gold.Protein.ActiveResidues>
 VAL166  LYS551  ARG553  GLY616  TRP617  ASP618  TYR619  PRO620  LYS621  CYS622 
 ASP623  PHE694  ASN695  SER759  ASP760  ASP761  ALA762  ILE779  LEU786  VAL792 
 PHE793  MET794  SER795  GLU796  ALA797  LYS798  CYS799  TRP800  GLU811  SER814 

> <Gold.Protein.RotatedAtoms>
  151.8148  133.3386  159.3566 H   0  0  0  0  0  0  0  0  0  0  0  0  # atno 6907 bound_to 6896
  150.7314  134.5629  159.5861 H   0  0  0  0  0  0  0  0  0  0  0  0  # atno 6908 bound_to 6896
  152.3049  134.7568  160.0401 H   0  0  0  0  0  0  0  0  0  0  0  0  # atno 6909 bound_to 6896
  144.7542  140.3950  143.6025 H   0  0  0  0  0  0  0  0  0  0  0  0  # atno 7974 bound_to 7965
  155.9608  140.3393  155.6489 H   0  0  0  0  0  0  0  0  0  0  0  0  # atno 8008 bound_to 7997
  155.6801  140.0737  157.2506 H   0  0  0  0  0  0  0  0  0  0  0  0  # atno 8009 bound_to 7997
  154.4143  140.1676  156.1960 H   0  0  0  0  0  0  0  0  0  0  0  0  # atno 8010 bound_to 7997
  140.2615  144.3368  150.6317 H   0  0  0  0  0  0  0  0  0  0  0  0  # atno 10167 bound_to 10162
  156.4967  130.4579  149.6724 H   0  0  0  0  0  0  0  0  0  0  0  0  # atno 10718 bound_to 10713
  153.0814  135.4906  154.8511 H   0  0  0  0  0  0  0  0  0  0  0  0  # atno 10763 bound_to 10752
  154.7156  135.3029  154.9131 H   0  0  0  0  0  0  0  0  0  0  0  0  # atno 10764 bound_to 10752
  153.9811  135.6789  153.4803 H   0  0  0  0  0  0  0  0  0  0  0  0  # atno 10765 bound_to 10752
  140.1215  134.8860  157.2079 H   0  0  0  0  0  0  0  0  0  0  0  0  # atno 11005 bound_to 11000
  145.6836  139.1624  143.2687 LP  0  0  0  0  0  0  0  0  0  0  0  0  # atno 17320 bound_to 7965
  146.1532  140.6895  142.9312 LP  0  0  0  0  0  0  0  0  0  0  0  0  # atno 17321 bound_to 7965
  140.5962  143.2167  151.7159 LP  0  0  0  0  0  0  0  0  0  0  0  0  # atno 17342 bound_to 10162
  139.5015  144.3863  152.0325 LP  0  0  0  0  0  0  0  0  0  0  0  0  # atno 17343 bound_to 10162
  156.3372  130.7363  151.2302 LP  0  0  0  0  0  0  0  0  0  0  0  0  # atno 17370 bound_to 10713
  157.7467  131.0413  150.4641 LP  0  0  0  0  0  0  0  0  0  0  0  0  # atno 17371 bound_to 10713
  140.2959  134.3187  155.7302 LP  0  0  0  0  0  0  0  0  0  0  0  0  # atno 17394 bound_to 11000
  141.2152  133.7562  156.9570 LP  0  0  0  0  0  0  0  0  0  0  0  0  # atno 17395 bound_to 11000

$$$$
