AV-unprocessed.smi:1401|AV-procd|sdf|5692|dock10
  -GOLD-   22720 5323D 1   1.00000     0.00000
 Structure written by MMmdl.
 48 50  0  0  0  0  0  0  0  0  1 V2000
  150.7937  145.0617  160.1740 C   0  0  0  0  0  0  0  0  0  0  0  0
  151.4246  143.7586  159.7623 C   0  0  0  0  0  0  0  0  0  0  0  0
  151.0660  143.2778  158.6175 N   0  0  0  0  0  0  0  0  0  0  0  0
  151.5849  142.0892  158.1415 N   0  0  0  0  0  0  0  0  0  0  0  0
  151.0499  141.6843  156.8330 C   0  0  0  0  0  0  0  0  0  0  0  0
  149.5683  141.2805  156.8714 C   0  0  0  0  0  0  0  0  0  0  0  0
  149.2177  140.2006  157.3496 O   0  0  0  0  0  0  0  0  0  0  0  0
  148.7069  142.1785  156.3686 N   0  0  0  0  0  0  0  0  0  0  0  0
  147.2549  142.0210  156.2946 C   0  0  2  0  0  0  0  0  0  0  0  0
  146.7426  141.5517  157.6680 C   0  0  0  0  0  0  0  0  0  0  0  0
  146.8963  141.0414  155.1495 C   0  0  2  0  0  0  0  0  0  0  0  0
  147.3782  139.5894  155.3990 C   0  0  0  0  0  0  0  0  0  0  0  0
  148.1820  139.2569  154.1300 C   0  0  1  0  0  0  0  0  0  0  0  0
  147.2261  139.1348  152.9297 C   0  0  0  0  0  0  0  0  0  0  0  0
  146.8186  140.5976  152.6735 C   0  0  0  0  0  0  0  0  0  0  0  0
  147.5641  141.3591  153.7868 C   0  0  2  0  0  0  0  0  0  0  0  0
  148.8759  140.5833  153.8541 C   0  0  0  0  0  0  0  0  0  0  0  0
  152.5100  141.3285  158.7953 C   0  0  0  0  0  0  0  0  0  0  0  0
  152.9565  140.2802  158.3267 O   0  0  0  0  0  0  0  0  0  0  0  0
  152.9090  141.8774  160.0931 C   0  0  0  0  0  0  0  0  0  0  0  0
  153.8750  141.1114  160.8125 C   0  0  0  0  0  0  0  0  0  0  0  0
  154.6654  140.5077  161.4052 N   0  0  0  0  0  0  0  0  0  0  0  0
  152.3964  143.0362  160.5774 C   0  0  0  0  0  0  0  0  0  0  0  0
  152.7815  143.6459  161.9182 C   0  0  0  0  0  0  0  0  0  0  0  0
  151.5541  145.7912  160.4540 H   0  0  0  0  0  0  0  0  0  0  0  0
  150.1318  144.9167  161.0282 H   0  0  0  0  0  0  0  0  0  0  0  0
  150.2021  145.4991  159.3682 H   0  0  0  0  0  0  0  0  0  0  0  0
  151.1597  142.4978  156.1134 H   0  0  0  0  0  0  0  0  0  0  0  0
  151.6381  140.8579  156.4295 H   0  0  0  0  0  0  0  0  0  0  0  0
  149.0863  143.0396  156.0026 H   0  0  0  0  0  0  0  0  0  0  0  0
  146.7970  142.9864  156.0734 H   0  0  0  0  0  0  0  0  0  0  0  0
  145.6552  141.4991  157.7007 H   0  0  0  0  0  0  0  0  0  0  0  0
  147.0508  142.2399  158.4559 H   0  0  0  0  0  0  0  0  0  0  0  0
  147.1318  140.5648  157.9206 H   0  0  0  0  0  0  0  0  0  0  0  0
  145.8113  141.0469  155.0313 H   0  0  0  0  0  0  0  0  0  0  0  0
  148.0300  139.5272  156.2716 H   0  0  0  0  0  0  0  0  0  0  0  0
  146.5492  138.8991  155.5585 H   0  0  0  0  0  0  0  0  0  0  0  0
  148.8500  138.4031  154.2466 H   0  0  0  0  0  0  0  0  0  0  0  0
  147.7407  138.7226  152.0609 H   0  0  0  0  0  0  0  0  0  0  0  0
  146.3702  138.4952  153.1479 H   0  0  0  0  0  0  0  0  0  0  0  0
  147.1601  140.9221  151.6897 H   0  0  0  0  0  0  0  0  0  0  0  0
  145.7388  140.7447  152.7153 H   0  0  0  0  0  0  0  0  0  0  0  0
  147.6752  142.4199  153.5668 H   0  0  0  0  0  0  0  0  0  0  0  0
  149.5347  140.9048  154.6624 H   0  0  0  0  0  0  0  0  0  0  0  0
  149.4330  140.5922  152.9156 H   0  0  0  0  0  0  0  0  0  0  0  0
  153.3541  142.9524  162.5334 H   0  0  0  0  0  0  0  0  0  0  0  0
  151.8964  143.9255  162.4902 H   0  0  0  0  0  0  0  0  0  0  0  0
  153.3905  144.5376  161.7663 H   0  0  0  0  0  0  0  0  0  0  0  0
  1  2  1  0  0  0  0
  1 25  1  0  0  0  0
  1 26  1  0  0  0  0
  1 27  1  0  0  0  0
  2 23  1  0  0  0  0
  2  3  2  0  0  0  0
  3  4  1  0  0  0  0
  4  5  1  0  0  0  0
  4 18  1  0  0  0  0
  5  6  1  0  0  0  0
  5 28  1  0  0  0  0
  5 29  1  0  0  0  0
  6  7  2  0  0  0  0
  6  8  1  0  0  0  0
  8  9  1  0  0  0  0
  8 30  1  0  0  0  0
  9 10  1  0  0  0  0
  9 11  1  0  0  0  0
  9 31  1  0  0  0  0
 10 32  1  0  0  0  0
 10 33  1  0  0  0  0
 10 34  1  0  0  0  0
 11 16  1  0  0  0  0
 11 12  1  0  0  0  0
 11 35  1  0  0  0  0
 12 13  1  0  0  0  0
 12 36  1  0  0  0  0
 12 37  1  0  0  0  0
 13 17  1  0  0  0  0
 13 14  1  0  0  0  0
 13 38  1  0  0  0  0
 14 15  1  0  0  0  0
 14 39  1  0  0  0  0
 14 40  1  0  0  0  0
 15 16  1  0  0  0  0
 15 41  1  0  0  0  0
 15 42  1  0  0  0  0
 16 17  1  0  0  0  0
 16 43  1  0  0  0  0
 17 44  1  0  0  0  0
 17 45  1  0  0  0  0
 18 19  2  0  0  0  0
 18 20  1  0  0  0  0
 20 21  1  0  0  0  0
 20 23  2  0  0  0  0
 21 22  3  0  0  0  0
 23 24  1  0  0  0  0
 24 46  1  0  0  0  0
 24 47  1  0  0  0  0
 24 48  1  0  0  0  0
M  END
> <s_m_source_file>
AV-unprocessed.smi

> <i_m_source_file_index>
1401

> <i_lp_mmshare_version>
43012

> <i_f3d_flags>
0

> <s_epik_input>
TiNDYyhjMVtDSDNdKWMoPU8pbihuYzFbQ0gzXSlbQ0gyXUMoPU8pW05IXVtDQEhdKFtDSDNdKVtDQEhdKFtDSDJdW0NASF0yMylbQ0BIXShbQ0gyXTMpW0NIMl1bQ0gyXTI=

> <s_epik_cmdline>
J2VwaWtfcHl0aG9uJywgJy1waCcsICc3LjAnLCAnLXRuJywgJzgnLCAnLW1hJywgJzIwMCcsICctbWV0YWxfYmluZGluZycsICctaW1hZScsICc8aW5maWxlLm1hZT4nLCAnLW9tYWUnLCAnPG91dGZpbGUubWFlPic=

> <r_lp_tautomer_probability>
1

> <r_epik_Ionization_Penalty>
2.16501e-08

> <r_epik_Ionization_Penalty_Charging>
2.29436e-11

> <r_epik_Ionization_Penalty_Neutral>
2.16271e-08

> <r_epik_State_Penalty>
-0

> <r_epik_Charging_Adjusted_Penalty>
2.29436e-11

> <i_epik_Tot_Q>
0

> <i_epik_Tot_abs_Q>
0

> <r_epik_Metal_State_Penalty>
-0

> <b_epik_Metal_Only>
0

> <s_lp_Force_Field>
OPLS_2005

> <r_lp_Energy>
66.5869

> <b_lp_Chiralities_Consistent>
1

> <s_lp_Variant>
AV-unprocessed.smi:1401-5

> <Gold.Version>
5.8.1

> <Gold.Id.Protein>
6NUR|6NUR_protein|mol2

> <Gold.PLP.Fitness>
46.9966

> <Gold.PLP.PLP>
-42.6396

> <Gold.PLP.part.hbond>
-2.0000

> <Gold.PLP.part.metal>
0.0000

> <Gold.PLP.part.buried>
-1.4578

> <Gold.PLP.part.nonpolar>
-38.1568

> <Gold.PLP.part.repulsive>
0.1088

> <Gold.PLP.ligand.clash>
0.5802

> <Gold.PLP.ligand.torsion>
0.4721

> <Gold.PLP.Chemscore.Hbond>
1.9516

> <Gold.PLP.Chemscore.CHOScore>
0.0000

> <Gold.PLP.Chemscore.Metal>
0.0000

> <Gold.Chemscore.Hbonds>
donor molecule, donor type, donor heavy atom, donor atom, acceptor molecule, acceptor atom, score
      L1  H     8    30       P1  8028  0.98
      P1  H  7997  8008       L1    19  0.78

> <Gold.PLP.Chemscore.Internal.Correction>
0.0265

> <Gold.Rescore>
     Score         DG    S(hbond)    S(metal)    S(lipo)     H(rot)  DE(clash)    DE(int)     intcor
     14.28     -20.16       1.91        0.00     106.56       1.63       1.54       4.34       ----

> <Gold.Chemscore.Fitness>
14.2844

> <Gold.Chemscore.DG>
-20.1627

> <Gold.Chemscore.ZeroCoef>
-5.4800

> <Gold.Chemscore.Hbond>
1.9111

> <Gold.Chemscore.Metal>
0.0000

> <Gold.Chemscore.Lipo>
106.5611

> <Gold.Chemscore.Internal_Hbond>
0.0000

> <Gold.Chemscore.DEClash>
1.5366

> <Gold.Chemscore.DEInternal>
4.3416

> <Gold.Chemscore.Rot>
1.6281

> <Gold.Chemscore.Internal.Correction>
   9.000000E+99

> <Gold.Chemscore.Hbonds>
donor molecule, donor type, donor heavy atom, donor atom, acceptor molecule, acceptor atom, score
      L1  H     8    30       P1  8028  0.93
      P1  H  7997  8008       L1    19  0.75

> <Gold.Chemscore.Hbond.Weighted>
-6.3829

> <Gold.Chemscore.Metal.Weighted>
-0.0000

> <Gold.Chemscore.Lipo.Weighted>
-12.4677

> <Gold.Chemscore.Internal_Hbond.Weighted>
0.0000

> <Gold.Chemscore.DEClash.Weighted>
1.5366

> <Gold.Chemscore.DEInternal.Weighted>
4.3416

> <Gold.Chemscore.Rot.Weighted>
4.1678

> <Gold.Chemscore.Internal.Correction.Weighted>
   9.000000E+99

> <Gold.Protein.RotatedTorsions>
[ 6907 6896 6895 6894 ] final  156.10 input  -60.11 | X-H torsion
[ 7974 7965 7964 7962 ] final  -38.87 input  175.53 | X-H torsion
[ 8008 7997 7996 7995 ] final  -81.11 input   59.86 | X-H torsion
[ 10167 10162 10161 10158 ] final  -11.36 input  -65.29 | X-H torsion
[ 10718 10713 10712 10709 ] final  151.00 input   66.30 | X-H torsion
[ 10763 10752 10751 10750 ] final  164.72 input  -60.55 | X-H torsion
[ 11005 11000 10999 10996 ] final   60.14 input  -57.11 | X-H torsion

> <Gold.Protein.ActiveResidues>
 VAL166  LYS551  ARG553  GLY616  TRP617  ASP618  TYR619  PRO620  LYS621  CYS622 
 ASP623  PHE694  ASN695  SER759  ASP760  ASP761  ALA762  ILE779  LEU786  VAL792 
 PHE793  MET794  SER795  GLU796  ALA797  LYS798  CYS799  TRP800  GLU811  SER814 

> <Gold.Protein.RotatedAtoms>
  152.0346  133.3951  159.4310 H   0  0  0  0  0  0  0  0  0  0  0  0  # atno 6907 bound_to 6896
  150.6880  134.3483  159.4907 H   0  0  0  0  0  0  0  0  0  0  0  0  # atno 6908 bound_to 6896
  152.1274  134.9160  160.0611 H   0  0  0  0  0  0  0  0  0  0  0  0  # atno 6909 bound_to 6896
  146.0448  140.6561  142.9070 H   0  0  0  0  0  0  0  0  0  0  0  0  # atno 7974 bound_to 7965
  154.5950  140.0653  156.9291 H   0  0  0  0  0  0  0  0  0  0  0  0  # atno 8008 bound_to 7997
  155.2230  140.3331  155.4295 H   0  0  0  0  0  0  0  0  0  0  0  0  # atno 8009 bound_to 7997
  156.2281  140.1828  156.7296 H   0  0  0  0  0  0  0  0  0  0  0  0  # atno 8010 bound_to 7997
  140.7136  143.5648  150.9157 H   0  0  0  0  0  0  0  0  0  0  0  0  # atno 10167 bound_to 10162
  157.2762  131.0826  151.1564 H   0  0  0  0  0  0  0  0  0  0  0  0  # atno 10718 bound_to 10713
  154.3132  135.2757  155.2556 H   0  0  0  0  0  0  0  0  0  0  0  0  # atno 10763 bound_to 10752
  154.4941  135.5825  153.6485 H   0  0  0  0  0  0  0  0  0  0  0  0  # atno 10764 bound_to 10752
  152.9885  135.6142  154.3311 H   0  0  0  0  0  0  0  0  0  0  0  0  # atno 10765 bound_to 10752
  140.0253  134.6092  155.9582 H   0  0  0  0  0  0  0  0  0  0  0  0  # atno 11005 bound_to 11000
  144.7092  140.3974  143.7094 LP  0  0  0  0  0  0  0  0  0  0  0  0  # atno 17320 bound_to 7965
  145.6824  139.1621  143.2693 LP  0  0  0  0  0  0  0  0  0  0  0  0  # atno 17321 bound_to 7965
  139.9373  143.6423  152.3062 LP  0  0  0  0  0  0  0  0  0  0  0  0  # atno 17342 bound_to 10162
  139.6895  144.7648  151.1464 LP  0  0  0  0  0  0  0  0  0  0  0  0  # atno 17343 bound_to 10162
  157.3016  130.6845  149.6167 LP  0  0  0  0  0  0  0  0  0  0  0  0  # atno 17370 bound_to 10713
  155.9664  130.4390  150.5241 LP  0  0  0  0  0  0  0  0  0  0  0  0  # atno 17371 bound_to 10713
  141.1799  133.6545  156.4976 LP  0  0  0  0  0  0  0  0  0  0  0  0  # atno 17394 bound_to 11000
  140.4318  134.7095  157.4945 LP  0  0  0  0  0  0  0  0  0  0  0  0  # atno 17395 bound_to 11000

$$$$
