AV-unprocessed.smi:2936|AV-procd|sdf|11258|dock1
  -GOLD-   2272016153D 1   1.00000     0.00000
 Structure written by MMmdl.
 24 25  0  0  0  0  0  0  0  0  1 V2000
  153.2172  138.1325  159.0703 O   0  0  0  0  0  0  0  0  0  0  0  0
  152.6922  139.1869  158.7179 C   0  0  0  0  0  0  0  0  0  0  0  0
  151.7861  139.2232  157.7118 N   0  0  0  0  0  0  0  0  0  0  0  0
  151.1353  140.3354  157.2347 N   0  0  0  0  0  0  0  0  0  0  0  0
  151.3938  141.4753  157.7783 C   0  0  0  0  0  0  0  0  0  0  0  0
  152.3417  141.6314  158.8706 C   0  0  0  0  0  0  0  0  0  0  0  0
  152.5775  142.8862  159.4116 N   0  0  0  0  0  0  0  0  0  0  0  0
  152.6005  143.1517  160.8426 C   0  0  0  0  0  0  0  0  0  0  0  0
  151.6089  144.2753  161.1926 C   0  0  0  0  0  0  0  0  0  0  0  0
  151.9031  145.4310  160.4120 O   0  0  0  0  0  0  0  0  0  0  0  0
  151.7925  145.1798  159.0134 C   0  0  0  0  0  0  0  0  0  0  0  0
  152.7904  144.0807  158.6076 C   0  0  0  0  0  0  0  0  0  0  0  0
  152.9634  140.5026  159.3143 C   0  0  0  0  0  0  0  0  0  0  0  0
  154.1081  140.5680  160.6110 Cl  0  0  0  0  0  0  0  0  0  0  0  0
  151.5381  138.3649  157.2411 H   0  0  0  0  0  0  0  0  0  0  0  0
  150.9092  142.3925  157.4424 H   0  0  0  0  0  0  0  0  0  0  0  0
  152.3534  142.2453  161.3963 H   0  0  0  0  0  0  0  0  0  0  0  0
  153.6122  143.4376  161.1325 H   0  0  0  0  0  0  0  0  0  0  0  0
  150.5793  143.9596  161.0201 H   0  0  0  0  0  0  0  0  0  0  0  0
  151.6892  144.5304  162.2494 H   0  0  0  0  0  0  0  0  0  0  0  0
  150.7698  144.8938  158.7642 H   0  0  0  0  0  0  0  0  0  0  0  0
  152.0061  146.0999  158.4694 H   0  0  0  0  0  0  0  0  0  0  0  0
  153.8139  144.4275  158.7534 H   0  0  0  0  0  0  0  0  0  0  0  0
  152.6804  143.8447  157.5486 H   0  0  0  0  0  0  0  0  0  0  0  0
  1  2  2  0  0  0  0
  2 13  1  0  0  0  0
  2  3  1  0  0  0  0
  3 15  1  0  0  0  0
  3  4  1  0  0  0  0
  4  5  2  0  0  0  0
  5  6  1  0  0  0  0
  5 16  1  0  0  0  0
  6  7  1  0  0  0  0
  6 13  2  0  0  0  0
  7 12  1  0  0  0  0
  7  8  1  0  0  0  0
  8  9  1  0  0  0  0
  8 17  1  0  0  0  0
  8 18  1  0  0  0  0
  9 10  1  0  0  0  0
  9 19  1  0  0  0  0
  9 20  1  0  0  0  0
 10 11  1  0  0  0  0
 11 12  1  0  0  0  0
 11 21  1  0  0  0  0
 11 22  1  0  0  0  0
 12 23  1  0  0  0  0
 12 24  1  0  0  0  0
 13 14  1  0  0  0  0
M  END
> <s_m_source_file>
AV-unprocessed.smi

> <i_m_source_file_index>
2936

> <i_lp_mmshare_version>
43012

> <i_f3d_flags>
0

> <s_epik_input>
Tz1jMVtuSF1uW2NIXWMoYzFDbClOMltDSDJdW0NIMl1PW0NIMl1bQ0gyXTI=

> <s_epik_cmdline>
J2VwaWtfcHl0aG9uJywgJy1waCcsICc3LjAnLCAnLXRuJywgJzgnLCAnLW1hJywgJzIwMCcsICctbWV0YWxfYmluZGluZycsICctaW1hZScsICc8aW5maWxlLm1hZT4nLCAnLW9tYWUnLCAnPG91dGZpbGUubWFlPic=

> <r_lp_tautomer_probability>
0.986175

> <r_epik_Ionization_Penalty>
0.0102925

> <r_epik_Ionization_Penalty_Charging>
0.0102925

> <r_epik_Ionization_Penalty_Neutral>
4.87729e-09

> <r_epik_State_Penalty>
1.65855

> <r_epik_Charging_Adjusted_Penalty>
1.66884

> <i_epik_Tot_Q>
0

> <i_epik_Tot_abs_Q>
0

> <r_epik_Metal_State_Penalty>
3.9956

> <b_epik_Metal_Only>
0

> <s_lp_Force_Field>
OPLS_2005

> <r_lp_Energy>
35.1147

> <b_lp_Chiralities_Consistent>
1

> <s_lp_Variant>
AV-unprocessed.smi:2936-2

> <Gold.Version>
5.8.1

> <Gold.Id.Protein>
6NUR|6NUR_protein|mol2

> <Gold.PLP.Fitness>
31.4663

> <Gold.PLP.PLP>
-31.4695

> <Gold.PLP.part.hbond>
0.0000

> <Gold.PLP.part.metal>
0.0000

> <Gold.PLP.part.buried>
-3.9139

> <Gold.PLP.part.nonpolar>
-28.1469

> <Gold.PLP.part.repulsive>
0.2464

> <Gold.PLP.ligand.clash>
0.0000

> <Gold.PLP.ligand.torsion>
0.7799

> <Gold.PLP.Chemscore.Hbond>
0.0000

> <Gold.PLP.Chemscore.CHOScore>
0.0000

> <Gold.PLP.Chemscore.Metal>
0.0000

> <Gold.PLP.Chemscore.Internal.Correction>
1.5566

> <Gold.Rescore>
     Score         DG    S(hbond)    S(metal)    S(lipo)     H(rot)  DE(clash)    DE(int)     intcor
     13.82     -14.78       0.00        0.00      79.52       0.00       0.01       0.96       ----

> <Gold.Chemscore.Fitness>
13.8199

> <Gold.Chemscore.DG>
-14.7836

> <Gold.Chemscore.ZeroCoef>
-5.4800

> <Gold.Chemscore.Hbond>
0.0000

> <Gold.Chemscore.Metal>
0.0000

> <Gold.Chemscore.Lipo>
79.5178

> <Gold.Chemscore.Internal_Hbond>
0.0000

> <Gold.Chemscore.DEClash>
0.0060

> <Gold.Chemscore.DEInternal>
0.9577

> <Gold.Chemscore.Rot>
0.0000

> <Gold.Chemscore.Internal.Correction>
   9.000000E+99

> <Gold.Chemscore.Hbond.Weighted>
-0.0000

> <Gold.Chemscore.Metal.Weighted>
-0.0000

> <Gold.Chemscore.Lipo.Weighted>
-9.3036

> <Gold.Chemscore.Internal_Hbond.Weighted>
0.0000

> <Gold.Chemscore.DEClash.Weighted>
0.0060

> <Gold.Chemscore.DEInternal.Weighted>
0.9577

> <Gold.Chemscore.Rot.Weighted>
0.0000

> <Gold.Chemscore.Internal.Correction.Weighted>
   9.000000E+99

> <Gold.Protein.RotatedTorsions>
[ 6907 6896 6895 6894 ] final   38.97 input  -60.11 | X-H torsion
[ 7974 7965 7964 7962 ] final   22.53 input  175.53 | X-H torsion
[ 8008 7997 7996 7995 ] final  158.05 input   59.86 | X-H torsion
[ 10167 10162 10161 10158 ] final   96.29 input  -65.29 | X-H torsion
[ 10718 10713 10712 10709 ] final  -48.17 input   66.30 | X-H torsion
[ 10763 10752 10751 10750 ] final -163.77 input  -60.55 | X-H torsion
[ 11005 11000 10999 10996 ] final  -14.92 input  -57.11 | X-H torsion

> <Gold.Protein.ActiveResidues>
 VAL166  LYS551  ARG553  GLY616  TRP617  ASP618  TYR619  PRO620  LYS621  CYS622 
 ASP623  PHE694  ASN695  SER759  ASP760  ASP761  ALA762  ILE779  LEU786  VAL792 
 PHE793  MET794  SER795  GLU796  ALA797  LYS798  CYS799  TRP800  GLU811  SER814 

> <Gold.Protein.RotatedAtoms>
  152.1634  134.8893  160.0539 H   0  0  0  0  0  0  0  0  0  0  0  0  # atno 6907 bound_to 6896
  151.9880  133.3776  159.4141 H   0  0  0  0  0  0  0  0  0  0  0  0  # atno 6908 bound_to 6896
  150.6891  134.3889  159.5111 H   0  0  0  0  0  0  0  0  0  0  0  0  # atno 6909 bound_to 6896
  146.2025  139.7873  142.8751 H   0  0  0  0  0  0  0  0  0  0  0  0  # atno 7974 bound_to 7965
  156.2327  140.1869  156.7201 H   0  0  0  0  0  0  0  0  0  0  0  0  # atno 8008 bound_to 7997
  154.6050  140.0630  156.9447 H   0  0  0  0  0  0  0  0  0  0  0  0  # atno 8009 bound_to 7997
  155.2110  140.3300  155.4331 H   0  0  0  0  0  0  0  0  0  0  0  0  # atno 8010 bound_to 7997
  139.7908  144.6853  150.9895 H   0  0  0  0  0  0  0  0  0  0  0  0  # atno 10167 bound_to 10162
  156.2014  130.4156  149.9236 H   0  0  0  0  0  0  0  0  0  0  0  0  # atno 10718 bound_to 10713
  154.7091  135.3003  154.9224 H   0  0  0  0  0  0  0  0  0  0  0  0  # atno 10763 bound_to 10752
  154.0132  135.6692  153.4771 H   0  0  0  0  0  0  0  0  0  0  0  0  # atno 10764 bound_to 10752
  153.0741  135.5044  154.8279 H   0  0  0  0  0  0  0  0  0  0  0  0  # atno 10765 bound_to 10752
  140.7913  133.8285  155.9383 H   0  0  0  0  0  0  0  0  0  0  0  0  # atno 11005 bound_to 11000
  145.3435  141.0293  143.3379 LP  0  0  0  0  0  0  0  0  0  0  0  0  # atno 17320 bound_to 7965
  144.8715  139.5031  143.6765 LP  0  0  0  0  0  0  0  0  0  0  0  0  # atno 17321 bound_to 7965
  140.7820  143.4383  151.0590 LP  0  0  0  0  0  0  0  0  0  0  0  0  # atno 17342 bound_to 10162
  139.8060  143.8018  152.3167 LP  0  0  0  0  0  0  0  0  0  0  0  0  # atno 17343 bound_to 10162
  156.6944  130.8908  151.3592 LP  0  0  0  0  0  0  0  0  0  0  0  0  # atno 17370 bound_to 10713
  157.6988  130.9310  150.0722 LP  0  0  0  0  0  0  0  0  0  0  0  0  # atno 17371 bound_to 10713
  140.9386  134.1930  157.4813 LP  0  0  0  0  0  0  0  0  0  0  0  0  # atno 17394 bound_to 11000
  139.8731  134.9862  156.5316 LP  0  0  0  0  0  0  0  0  0  0  0  0  # atno 17395 bound_to 11000

$$$$
