AV-unprocessed.smi:1680|AV-procd|sdf|6737|dock1
  -GOLD-   22720 7483D 1   1.00000     0.00000
 Structure written by MMmdl.
 38 39  0  0  0  0  0  0  0  0  1 V2000
  152.7236  137.5076  156.6994 C   0  0  0  0  0  0  0  0  0  0  0  0
  152.2477  138.8431  156.1240 C   0  0  0  0  0  0  0  0  0  0  0  0
  152.6455  139.8781  156.6591 O   0  0  0  0  0  0  0  0  0  0  0  0
  151.4124  138.8439  155.0581 N   0  0  0  0  0  0  0  0  0  0  0  0
  150.8142  140.0283  154.4340 C   0  0  0  0  0  0  0  0  0  0  0  0
  149.2855  139.9705  154.6190 C   0  0  0  0  0  0  0  0  0  0  0  0
  148.7487  138.7509  154.0088 N   0  0  0  0  0  0  0  0  0  0  0  0
  147.2933  138.7303  154.1564 C   0  0  0  0  0  0  0  0  0  0  0  0
  146.5630  138.2322  152.8915 C   0  0  0  0  0  0  0  0  0  0  0  0
  145.1163  138.3935  153.0036 N   0  0  0  0  0  0  0  0  0  0  0  0
  144.2498  137.4196  153.3195 C   0  0  0  0  0  0  0  0  0  0  0  0
  144.5898  136.2679  153.5919 O   0  0  0  0  0  0  0  0  0  0  0  0
  142.9829  137.8697  153.2919 N   0  0  0  0  0  0  0  0  0  0  0  0
  141.7855  137.1420  153.5219 C   0  0  0  0  0  0  0  0  0  0  0  0
  141.7565  135.8800  153.9782 N   0  0  0  0  0  0  0  0  0  0  0  0
  140.4583  135.4043  154.1090 N   0  0  0  0  0  0  0  0  0  0  0  0
  139.5605  136.3245  153.7456 C   0  0  0  0  0  0  0  0  0  0  0  0
  140.2130  137.8639  153.2122 S   0  0  0  0  0  0  0  0  0  0  0  0
  149.3691  137.5696  154.6212 C   0  0  0  0  0  0  0  0  0  0  0  0
  150.8980  137.6198  154.4375 C   0  0  0  0  0  0  0  0  0  0  0  0
  153.2834  136.9431  155.9533 H   0  0  0  0  0  0  0  0  0  0  0  0
  151.8773  136.9092  157.0383 H   0  0  0  0  0  0  0  0  0  0  0  0
  153.3800  137.6699  157.5550 H   0  0  0  0  0  0  0  0  0  0  0  0
  151.1897  140.9689  154.8338 H   0  0  0  0  0  0  0  0  0  0  0  0
  151.0645  140.0390  153.3717 H   0  0  0  0  0  0  0  0  0  0  0  0
  149.0298  140.0059  155.6795 H   0  0  0  0  0  0  0  0  0  0  0  0
  148.8319  140.8440  154.1490 H   0  0  0  0  0  0  0  0  0  0  0  0
  147.0195  138.1184  155.0170 H   0  0  0  0  0  0  0  0  0  0  0  0
  146.9408  139.7399  154.3727 H   0  0  0  0  0  0  0  0  0  0  0  0
  146.9480  138.6984  151.9842 H   0  0  0  0  0  0  0  0  0  0  0  0
  146.7578  137.1662  152.7741 H   0  0  0  0  0  0  0  0  0  0  0  0
  144.7465  139.3099  152.7976 H   0  0  0  0  0  0  0  0  0  0  0  0
  142.8586  138.8432  153.0567 H   0  0  0  0  0  0  0  0  0  0  0  0
  138.5062  136.0951  153.7929 H   0  0  0  0  0  0  0  0  0  0  0  0
  149.1181  137.5201  155.6820 H   0  0  0  0  0  0  0  0  0  0  0  0
  148.9912  136.6583  154.1600 H   0  0  0  0  0  0  0  0  0  0  0  0
  151.1515  137.6157  153.3762 H   0  0  0  0  0  0  0  0  0  0  0  0
  151.3438  136.7163  154.8555 H   0  0  0  0  0  0  0  0  0  0  0  0
  1  2  1  0  0  0  0
  1 21  1  0  0  0  0
  1 22  1  0  0  0  0
  1 23  1  0  0  0  0
  2  3  2  0  0  0  0
  2  4  1  0  0  0  0
  4 20  1  0  0  0  0
  4  5  1  0  0  0  0
  5  6  1  0  0  0  0
  5 24  1  0  0  0  0
  5 25  1  0  0  0  0
  6  7  1  0  0  0  0
  6 26  1  0  0  0  0
  6 27  1  0  0  0  0
  7  8  1  0  0  0  0
  7 19  1  0  0  0  0
  8  9  1  0  0  0  0
  8 28  1  0  0  0  0
  8 29  1  0  0  0  0
  9 10  1  0  0  0  0
  9 30  1  0  0  0  0
  9 31  1  0  0  0  0
 10 11  1  0  0  0  0
 10 32  1  0  0  0  0
 11 12  2  0  0  0  0
 11 13  1  0  0  0  0
 13 14  1  0  0  0  0
 13 33  1  0  0  0  0
 14 18  1  0  0  0  0
 14 15  2  0  0  0  0
 15 16  1  0  0  0  0
 16 17  2  0  0  0  0
 17 18  1  0  0  0  0
 17 34  1  0  0  0  0
 19 20  1  0  0  0  0
 19 35  1  0  0  0  0
 19 36  1  0  0  0  0
 20 37  1  0  0  0  0
 20 38  1  0  0  0  0
M  END
> <s_m_source_file>
AV-unprocessed.smi

> <i_m_source_file_index>
1680

> <i_lp_mmshare_version>
43012

> <i_f3d_flags>
0

> <s_epik_input>
W0NIM11DKD1PKU4xW0NIMl1bQ0gyXU4oW0NIMl1bQ0gyXTEpW0NIMl1bQ0gyXVtOSF1DKD1PKVtOSF1jMm5uW2NIXXMy

> <s_epik_cmdline>
J2VwaWtfcHl0aG9uJywgJy1waCcsICc3LjAnLCAnLXRuJywgJzgnLCAnLW1hJywgJzIwMCcsICctbWV0YWxfYmluZGluZycsICctaW1hZScsICc8aW5maWxlLm1hZT4nLCAnLW9tYWUnLCAnPG91dGZpbGUubWFlPic=

> <r_lp_tautomer_probability>
1

> <r_epik_Ionization_Penalty>
0.229992

> <r_epik_Ionization_Penalty_Charging>
0

> <r_epik_Ionization_Penalty_Neutral>
0.229992

> <r_epik_State_Penalty>
0.219013

> <r_epik_Charging_Adjusted_Penalty>
0.219013

> <i_epik_Tot_Q>
0

> <i_epik_Tot_abs_Q>
0

> <r_epik_Metal_State_Penalty>
0.556868

> <b_epik_Metal_Only>
0

> <s_lp_Force_Field>
OPLS_2005

> <r_lp_Energy>
36.5244

> <b_lp_Chiralities_Consistent>
1

> <s_lp_Variant>
AV-unprocessed.smi:1680-1

> <Gold.Version>
5.8.1

> <Gold.Id.Protein>
6NUR|6NUR_protein|mol2

> <Gold.PLP.Fitness>
38.7063

> <Gold.PLP.PLP>
-28.1686

> <Gold.PLP.part.hbond>
-4.5540

> <Gold.PLP.part.metal>
0.0000

> <Gold.PLP.part.buried>
1.0420

> <Gold.PLP.part.nonpolar>
-24.0358

> <Gold.PLP.part.repulsive>
0.5208

> <Gold.PLP.ligand.clash>
0.0000

> <Gold.PLP.ligand.torsion>
0.7432

> <Gold.PLP.Chemscore.Hbond>
3.9920

> <Gold.PLP.Chemscore.CHOScore>
0.0000

> <Gold.PLP.Chemscore.Metal>
0.0000

> <Gold.Chemscore.Hbonds>
donor molecule, donor type, donor heavy atom, donor atom, acceptor molecule, acceptor atom, score
      L1  H    10    32       P1 10175  1.00
      L1  H    13    33       P1 10175  0.98
      P1  H  7997  8008       L1     3  1.00
      P1  H 11000 11005       L1    16  1.00

> <Gold.PLP.Chemscore.Internal.Correction>
0.0482

> <Gold.Rescore>
     Score         DG    S(hbond)    S(metal)    S(lipo)     H(rot)  DE(clash)    DE(int)     intcor
     16.77     -20.25       3.88        0.00      54.83       1.79       1.48       2.00       ----

> <Gold.Chemscore.Fitness>
16.7706

> <Gold.Chemscore.DG>
-20.2545

> <Gold.Chemscore.ZeroCoef>
-5.4800

> <Gold.Chemscore.Hbond>
3.8768

> <Gold.Chemscore.Metal>
0.0000

> <Gold.Chemscore.Lipo>
54.8282

> <Gold.Chemscore.Internal_Hbond>
0.0000

> <Gold.Chemscore.DEClash>
1.4841

> <Gold.Chemscore.DEInternal>
1.9998

> <Gold.Chemscore.Rot>
1.7926

> <Gold.Chemscore.Internal.Correction>
   9.000000E+99

> <Gold.Chemscore.Hbonds>
donor molecule, donor type, donor heavy atom, donor atom, acceptor molecule, acceptor atom, score
      L1  H    10    32       P1 10175  0.98
      L1  H    13    33       P1 10175  0.93
      P1  H  7997  8008       L1     3  0.90
      P1  H 11000 11005       L1    16  0.80

> <Gold.Chemscore.Hbond.Weighted>
-12.9486

> <Gold.Chemscore.Metal.Weighted>
-0.0000

> <Gold.Chemscore.Lipo.Weighted>
-6.4149

> <Gold.Chemscore.Internal_Hbond.Weighted>
0.0000

> <Gold.Chemscore.DEClash.Weighted>
1.4841

> <Gold.Chemscore.DEInternal.Weighted>
1.9998

> <Gold.Chemscore.Rot.Weighted>
4.5890

> <Gold.Chemscore.Internal.Correction.Weighted>
   9.000000E+99

> <Gold.Protein.RotatedTorsions>
[ 6907 6896 6895 6894 ] final   78.22 input  -60.11 | X-H torsion
[ 7974 7965 7964 7962 ] final    1.04 input  175.53 | X-H torsion
[ 8008 7997 7996 7995 ] final  -62.50 input   59.86 | X-H torsion
[ 10167 10162 10161 10158 ] final    2.03 input  -65.29 | X-H torsion
[ 10718 10713 10712 10709 ] final  -81.53 input   66.30 | X-H torsion
[ 10763 10752 10751 10750 ] final  139.18 input  -60.55 | X-H torsion
[ 11005 11000 10999 10996 ] final   45.10 input  -57.11 | X-H torsion

> <Gold.Protein.ActiveResidues>
 VAL166  LYS551  ARG553  GLY616  TRP617  ASP618  TYR619  PRO620  LYS621  CYS622 
 ASP623  PHE694  ASN695  SER759  ASP760  ASP761  ALA762  ILE779  LEU786  VAL792 
 PHE793  MET794  SER795  GLU796  ALA797  LYS798  CYS799  TRP800  GLU811  SER814 

> <Gold.Protein.RotatedAtoms>
  152.5150  134.3697  159.9313 H   0  0  0  0  0  0  0  0  0  0  0  0  # atno 6907 bound_to 6896
  151.3651  133.3869  159.2701 H   0  0  0  0  0  0  0  0  0  0  0  0  # atno 6908 bound_to 6896
  150.9621  134.9027  159.7795 H   0  0  0  0  0  0  0  0  0  0  0  0  # atno 6909 bound_to 6896
  146.2438  140.1047  142.8346 H   0  0  0  0  0  0  0  0  0  0  0  0  # atno 7974 bound_to 7965
  154.4503  140.0995  156.6597 H   0  0  0  0  0  0  0  0  0  0  0  0  # atno 8008 bound_to 7997
  155.5306  140.3481  155.4407 H   0  0  0  0  0  0  0  0  0  0  0  0  # atno 8009 bound_to 7997
  156.0667  140.1339  156.9867 H   0  0  0  0  0  0  0  0  0  0  0  0  # atno 8010 bound_to 7997
  140.6654  143.7192  150.7818 H   0  0  0  0  0  0  0  0  0  0  0  0  # atno 10167 bound_to 10162
  156.0049  130.4606  150.3966 H   0  0  0  0  0  0  0  0  0  0  0  0  # atno 10718 bound_to 10713
  153.9019  135.3021  155.3448 H   0  0  0  0  0  0  0  0  0  0  0  0  # atno 10763 bound_to 10752
  154.7666  135.4907  153.9570 H   0  0  0  0  0  0  0  0  0  0  0  0  # atno 10764 bound_to 10752
  153.1240  135.6789  153.9388 H   0  0  0  0  0  0  0  0  0  0  0  0  # atno 10765 bound_to 10752
  140.1490  134.4485  155.8395 H   0  0  0  0  0  0  0  0  0  0  0  0  # atno 11005 bound_to 11000
  145.0538  140.9037  143.4979 LP  0  0  0  0  0  0  0  0  0  0  0  0  # atno 17320 bound_to 7965
  145.1150  139.2731  143.5618 LP  0  0  0  0  0  0  0  0  0  0  0  0  # atno 17321 bound_to 7965
  140.0868  143.4915  152.2500 LP  0  0  0  0  0  0  0  0  0  0  0  0  # atno 17342 bound_to 10162
  139.5902  144.7547  151.3420 LP  0  0  0  0  0  0  0  0  0  0  0  0  # atno 17343 bound_to 10162
  157.2038  131.0444  151.2636 LP  0  0  0  0  0  0  0  0  0  0  0  0  # atno 17370 bound_to 10713
  157.3951  130.7303  149.6726 LP  0  0  0  0  0  0  0  0  0  0  0  0  # atno 17371 bound_to 10713
  141.2196  133.6864  156.7387 LP  0  0  0  0  0  0  0  0  0  0  0  0  # atno 17394 bound_to 11000
  140.2628  134.8453  157.3774 LP  0  0  0  0  0  0  0  0  0  0  0  0  # atno 17395 bound_to 11000

$$$$
