AV-unprocessed.smi:3328|AV-procd|sdf|12794|dock10
  -GOLD-   2272019143D 1   1.00000     0.00000
 Structure written by MMmdl.
 40 41  0  0  0  0  0  0  0  0  1 V2000
  154.9911  139.7854  161.8877 C   0  0  0  0  0  0  0  0  0  0  0  0
  154.2747  141.0130  161.4038 C   0  0  0  0  0  0  0  0  0  0  0  0
  153.5828  141.9834  162.1824 C   0  0  0  0  0  0  0  0  0  0  0  0
  153.0582  142.9508  161.4495 N   0  0  0  0  0  0  0  0  0  0  0  0
  153.3882  142.6322  160.1797 N   0  0  0  0  0  0  0  0  0  0  0  0
  152.9700  143.4948  159.0850 C   0  0  0  0  0  0  0  0  0  0  0  0
  151.4888  143.9463  159.1666 C   0  0  1  0  0  0  0  0  0  0  0  0
  151.3387  145.4655  159.3466 C   0  0  0  0  0  0  0  0  0  0  0  0
  150.7329  143.5687  157.9777 N   0  0  0  0  0  0  0  0  0  0  0  0
  150.9904  142.1976  157.5599 C   0  0  0  0  0  0  0  0  0  0  0  0
  149.8853  141.7318  156.5967 C   0  0  0  0  0  0  0  0  0  0  0  0
  150.2969  140.5673  155.8131 N   0  0  0  0  0  0  0  0  0  0  0  0
  151.1009  139.5172  156.4156 C   0  0  0  0  0  0  0  0  0  0  0  0
  151.2156  138.4251  155.3421 C   0  0  0  0  0  0  0  0  0  0  0  0
  150.6209  139.0221  154.0615 C   0  0  0  0  0  0  0  0  0  0  0  0
  150.0280  140.3426  154.5219 C   0  0  0  0  0  0  0  0  0  0  0  0
  149.3890  141.0820  153.7748 O   0  0  0  0  0  0  0  0  0  0  0  0
  154.1306  141.4714  160.1248 C   0  0  0  0  0  0  0  0  0  0  0  0
  154.4886  139.3380  162.7458 H   0  0  0  0  0  0  0  0  0  0  0  0
  156.0123  140.0116  162.1945 H   0  0  0  0  0  0  0  0  0  0  0  0
  155.0490  139.0188  161.1147 H   0  0  0  0  0  0  0  0  0  0  0  0
  153.4487  142.0138  163.2535 H   0  0  0  0  0  0  0  0  0  0  0  0
  153.6456  144.3488  159.0342 H   0  0  0  0  0  0  0  0  0  0  0  0
  153.1260  142.9480  158.1544 H   0  0  0  0  0  0  0  0  0  0  0  0
  151.0272  143.4678  160.0316 H   0  0  0  0  0  0  0  0  0  0  0  0
  151.8935  145.8112  160.2191 H   0  0  0  0  0  0  0  0  0  0  0  0
  150.2939  145.7412  159.4943 H   0  0  0  0  0  0  0  0  0  0  0  0
  151.7041  146.0168  158.4795 H   0  0  0  0  0  0  0  0  0  0  0  0
  149.7446  143.6776  158.1547 H   0  0  0  0  0  0  0  0  0  0  0  0
  151.9638  142.1034  157.0808 H   0  0  0  0  0  0  0  0  0  0  0  0
  151.0054  141.5579  158.4429 H   0  0  0  0  0  0  0  0  0  0  0  0
  148.9939  141.4680  157.1678 H   0  0  0  0  0  0  0  0  0  0  0  0
  149.5887  142.5451  155.9326 H   0  0  0  0  0  0  0  0  0  0  0  0
  152.0819  139.9135  156.6805 H   0  0  0  0  0  0  0  0  0  0  0  0
  150.6285  139.1372  157.3225 H   0  0  0  0  0  0  0  0  0  0  0  0
  152.2522  138.1188  155.1967 H   0  0  0  0  0  0  0  0  0  0  0  0
  150.6534  137.5402  155.6420 H   0  0  0  0  0  0  0  0  0  0  0  0
  151.3888  139.2048  153.3092 H   0  0  0  0  0  0  0  0  0  0  0  0
  149.8525  138.3796  153.6302 H   0  0  0  0  0  0  0  0  0  0  0  0
  154.4875  141.0694  159.1879 H   0  0  0  0  0  0  0  0  0  0  0  0
  1  2  1  0  0  0  0
  1 19  1  0  0  0  0
  1 20  1  0  0  0  0
  1 21  1  0  0  0  0
  2 18  2  0  0  0  0
  2  3  1  0  0  0  0
  3  4  2  0  0  0  0
  3 22  1  0  0  0  0
  4  5  1  0  0  0  0
  5  6  1  0  0  0  0
  5 18  1  0  0  0  0
  6  7  1  0  0  0  0
  6 23  1  0  0  0  0
  6 24  1  0  0  0  0
  7  8  1  0  0  0  0
  7  9  1  0  0  0  0
  7 25  1  0  0  0  0
  8 26  1  0  0  0  0
  8 27  1  0  0  0  0
  8 28  1  0  0  0  0
  9 10  1  0  0  0  0
  9 29  1  0  0  0  0
 10 11  1  0  0  0  0
 10 30  1  0  0  0  0
 10 31  1  0  0  0  0
 11 12  1  0  0  0  0
 11 32  1  0  0  0  0
 11 33  1  0  0  0  0
 12 16  1  0  0  0  0
 12 13  1  0  0  0  0
 13 14  1  0  0  0  0
 13 34  1  0  0  0  0
 13 35  1  0  0  0  0
 14 15  1  0  0  0  0
 14 36  1  0  0  0  0
 14 37  1  0  0  0  0
 15 16  1  0  0  0  0
 15 38  1  0  0  0  0
 15 39  1  0  0  0  0
 16 17  2  0  0  0  0
 18 40  1  0  0  0  0
M  END
> <s_m_source_file>
AV-unprocessed.smi

> <i_m_source_file_index>
3328

> <i_lp_mmshare_version>
43012

> <i_f3d_flags>
0

> <s_epik_input>
W0NIM11jMVtjSF1ubihbY0hdMSlbQ0gyXVtDQEhdKFtDSDNdKVtOSF1bQ0gyXVtDSDJdTjJbQ0gyXVtDSDJdW0NIMl1DMj1P

> <s_epik_cmdline>
J2VwaWtfcHl0aG9uJywgJy1waCcsICc3LjAnLCAnLXRuJywgJzgnLCAnLW1hJywgJzIwMCcsICctbWV0YWxfYmluZGluZycsICctaW1hZScsICc8aW5maWxlLm1hZT4nLCAnLW9tYWUnLCAnPG91dGZpbGUubWFlPic=

> <r_lp_tautomer_probability>
1

> <r_epik_Ionization_Penalty>
2.53591

> <r_epik_Ionization_Penalty_Charging>
0

> <r_epik_Ionization_Penalty_Neutral>
2.53591

> <r_epik_State_Penalty>
2.70334

> <r_epik_Charging_Adjusted_Penalty>
2.70334

> <i_epik_Tot_Q>
0

> <i_epik_Tot_abs_Q>
0

> <r_epik_Metal_State_Penalty>
2.70327

> <b_epik_Metal_Only>
0

> <s_lp_Force_Field>
OPLS_2005

> <r_lp_Energy>
23.1303

> <b_lp_Chiralities_Consistent>
1

> <s_lp_Variant>
AV-unprocessed.smi:3328-4

> <Gold.Version>
5.8.1

> <Gold.Id.Protein>
6NUR|6NUR_protein|mol2

> <Gold.PLP.Fitness>
42.5146

> <Gold.PLP.PLP>
-42.4953

> <Gold.PLP.part.hbond>
-2.5731

> <Gold.PLP.part.metal>
0.0000

> <Gold.PLP.part.buried>
-1.0065

> <Gold.PLP.part.nonpolar>
-40.0428

> <Gold.PLP.part.repulsive>
2.1992

> <Gold.PLP.ligand.clash>
0.0000

> <Gold.PLP.ligand.torsion>
1.4675

> <Gold.PLP.Chemscore.Hbond>
0.9600

> <Gold.PLP.Chemscore.CHOScore>
0.0000

> <Gold.PLP.Chemscore.Metal>
0.0000

> <Gold.Chemscore.Hbonds>
donor molecule, donor type, donor heavy atom, donor atom, acceptor molecule, acceptor atom, score
      P1  H  8011  8017       L1    17  0.94

> <Gold.PLP.Chemscore.Internal.Correction>
0.0743

> <Gold.Rescore>
     Score         DG    S(hbond)    S(metal)    S(lipo)     H(rot)  DE(clash)    DE(int)     intcor
     13.84     -15.23       0.72        0.00     104.17       1.89       0.11       1.28       ----

> <Gold.Chemscore.Fitness>
13.8363

> <Gold.Chemscore.DG>
-15.2307

> <Gold.Chemscore.ZeroCoef>
-5.4800

> <Gold.Chemscore.Hbond>
0.7205

> <Gold.Chemscore.Metal>
0.0000

> <Gold.Chemscore.Lipo>
104.1677

> <Gold.Chemscore.Internal_Hbond>
0.0000

> <Gold.Chemscore.DEClash>
0.1134

> <Gold.Chemscore.DEInternal>
1.2811

> <Gold.Chemscore.Rot>
1.8920

> <Gold.Chemscore.Internal.Correction>
   9.000000E+99

> <Gold.Chemscore.Hbonds>
donor molecule, donor type, donor heavy atom, donor atom, acceptor molecule, acceptor atom, score
      P1  H  8011  8017       L1    17  0.87

> <Gold.Chemscore.Hbond.Weighted>
-2.4066

> <Gold.Chemscore.Metal.Weighted>
-0.0000

> <Gold.Chemscore.Lipo.Weighted>
-12.1876

> <Gold.Chemscore.Internal_Hbond.Weighted>
0.0000

> <Gold.Chemscore.DEClash.Weighted>
0.1134

> <Gold.Chemscore.DEInternal.Weighted>
1.2811

> <Gold.Chemscore.Rot.Weighted>
4.8435

> <Gold.Chemscore.Internal.Correction.Weighted>
   9.000000E+99

> <Gold.Protein.RotatedTorsions>
[ 6907 6896 6895 6894 ] final   34.41 input  -60.11 | X-H torsion
[ 7974 7965 7964 7962 ] final -124.44 input  175.53 | X-H torsion
[ 8008 7997 7996 7995 ] final  -94.77 input   59.86 | X-H torsion
[ 10167 10162 10161 10158 ] final -172.18 input  -65.29 | X-H torsion
[ 10718 10713 10712 10709 ] final    1.97 input   66.30 | X-H torsion
[ 10763 10752 10751 10750 ] final   71.09 input  -60.55 | X-H torsion
[ 11005 11000 10999 10996 ] final   54.46 input  -57.11 | X-H torsion

> <Gold.Protein.ActiveResidues>
 VAL166  LYS551  ARG553  GLY616  TRP617  ASP618  TYR619  PRO620  LYS621  CYS622 
 ASP623  PHE694  ASN695  SER759  ASP760  ASP761  ALA762  ILE779  LEU786  VAL792 
 PHE793  MET794  SER795  GLU796  ALA797  LYS798  CYS799  TRP800  GLU811  SER814 

> <Gold.Protein.RotatedAtoms>
  152.1021  134.9334  160.0569 H   0  0  0  0  0  0  0  0  0  0  0  0  # atno 6907 bound_to 6896
  152.0545  133.4029  159.4399 H   0  0  0  0  0  0  0  0  0  0  0  0  # atno 6908 bound_to 6896
  150.6840  134.3191  159.4822 H   0  0  0  0  0  0  0  0  0  0  0  0  # atno 6909 bound_to 6896
  145.0081  140.7881  143.4455 H   0  0  0  0  0  0  0  0  0  0  0  0  # atno 7974 bound_to 7965
  154.7526  140.0486  157.0906 H   0  0  0  0  0  0  0  0  0  0  0  0  # atno 8008 bound_to 7997
  155.0037  140.3128  155.4837 H   0  0  0  0  0  0  0  0  0  0  0  0  # atno 8009 bound_to 7997
  156.2888  140.2196  156.5148 H   0  0  0  0  0  0  0  0  0  0  0  0  # atno 8010 bound_to 7997
  139.5759  144.1533  152.1450 H   0  0  0  0  0  0  0  0  0  0  0  0  # atno 10167 bound_to 10162
  156.8560  130.5570  149.5666 H   0  0  0  0  0  0  0  0  0  0  0  0  # atno 10718 bound_to 10713
  153.0379  135.5150  154.7540 H   0  0  0  0  0  0  0  0  0  0  0  0  # atno 10763 bound_to 10752
  154.6502  135.2924  154.9999 H   0  0  0  0  0  0  0  0  0  0  0  0  # atno 10764 bound_to 10752
  154.0886  135.6653  153.4901 H   0  0  0  0  0  0  0  0  0  0  0  0  # atno 10765 bound_to 10752
  140.0685  134.5503  155.9073 H   0  0  0  0  0  0  0  0  0  0  0  0  # atno 11005 bound_to 11000
  145.2061  139.2228  143.5167 LP  0  0  0  0  0  0  0  0  0  0  0  0  # atno 17320 bound_to 7965
  146.3465  140.1889  142.8589 LP  0  0  0  0  0  0  0  0  0  0  0  0  # atno 17321 bound_to 7965
  140.1076  144.5485  150.6947 LP  0  0  0  0  0  0  0  0  0  0  0  0  # atno 17342 bound_to 10162
  140.7042  143.2456  151.4776 LP  0  0  0  0  0  0  0  0  0  0  0  0  # atno 17343 bound_to 10162
  156.0802  130.5814  150.9549 LP  0  0  0  0  0  0  0  0  0  0  0  0  # atno 17370 bound_to 10713
  157.6277  131.0924  150.8503 LP  0  0  0  0  0  0  0  0  0  0  0  0  # atno 17371 bound_to 10713
  141.2002  133.6611  156.5885 LP  0  0  0  0  0  0  0  0  0  0  0  0  # atno 17394 bound_to 11000
  140.3663  134.7644  157.4568 LP  0  0  0  0  0  0  0  0  0  0  0  0  # atno 17395 bound_to 11000

$$$$
