AV-unprocessed.smi:1268|AV-procd|sdf|5323|dock4
  -GOLD-   22720 4443D 1   1.00000     0.00000
 Structure written by MMmdl.
 40 41  0  0  0  0  0  0  0  0  2 V2000
  144.3333  136.6438  152.0297 O   0  0  0  0  0  0  0  0  0  0  0  0
  145.5471  136.4641  151.9284 C   0  0  0  0  0  0  0  0  0  0  0  0
  146.4586  137.3937  152.2485 N   0  0  0  0  0  0  0  0  0  0  0  0
  146.1532  138.7384  152.7261 C   0  0  0  0  0  0  0  0  0  0  0  0
  147.4258  139.5286  153.0981 C   0  0  2  0  0  0  0  0  0  0  0  0
  148.4413  138.6053  153.4399 O   0  0  0  0  0  0  0  0  0  0  0  0
  147.1950  140.4218  154.3350 C   0  0  0  0  0  0  0  0  0  0  0  0
  146.1659  141.4694  154.1056 N   0  3  0  0  0  0  0  0  0  0  0  0
  146.7536  142.7249  153.5692 C   0  0  0  0  0  0  0  0  0  0  0  0
  145.6603  143.7445  153.2080 C   0  0  0  0  0  0  0  0  0  0  0  0
  144.7618  144.0377  154.4159 C   0  0  0  0  0  0  0  0  0  0  0  0
  144.1880  142.7268  154.9681 C   0  0  0  0  0  0  0  0  0  0  0  0
  145.3112  141.7283  155.2956 C   0  0  0  0  0  0  0  0  0  0  0  0
  146.1332  135.3358  151.4915 N   0  0  0  0  0  0  0  0  0  0  0  0
  145.5109  134.1371  151.0538 C   0  0  0  0  0  0  0  0  0  0  0  0
  144.2234  134.0399  150.7025 N   0  0  0  0  0  0  0  0  0  0  0  0
  143.8834  132.7426  150.3106 C   0  0  0  0  0  0  0  0  0  0  0  0
  144.9310  131.8579  150.3732 C   0  0  0  0  0  0  0  0  0  0  0  0
  146.3953  132.6236  150.9293 S   0  0  0  0  0  0  0  0  0  0  0  0
  147.4345  137.1618  152.1338 H   0  0  0  0  0  0  0  0  0  0  0  0
  145.6454  139.2356  151.8990 H   0  0  0  0  0  0  0  0  0  0  0  0
  145.4346  138.7164  153.5479 H   0  0  0  0  0  0  0  0  0  0  0  0
  147.7485  140.1272  152.2464 H   0  0  0  0  0  0  0  0  0  0  0  0
  149.1784  138.7414  152.8621 H   0  0  0  0  0  0  0  0  0  0  0  0
  146.9037  139.8189  155.1966 H   0  0  0  0  0  0  0  0  0  0  0  0
  148.1441  140.8899  154.6022 H   0  0  0  0  0  0  0  0  0  0  0  0
  147.4381  143.1506  154.3048 H   0  0  0  0  0  0  0  0  0  0  0  0
  147.3420  142.5050  152.6774 H   0  0  0  0  0  0  0  0  0  0  0  0
  146.1153  144.6682  152.8495 H   0  0  0  0  0  0  0  0  0  0  0  0
  145.0559  143.3582  152.3861 H   0  0  0  0  0  0  0  0  0  0  0  0
  145.3380  144.5444  155.1912 H   0  0  0  0  0  0  0  0  0  0  0  0
  143.9553  144.7143  154.1322 H   0  0  0  0  0  0  0  0  0  0  0  0
  143.5948  142.9274  155.8607 H   0  0  0  0  0  0  0  0  0  0  0  0
  143.5079  142.2871  154.2370 H   0  0  0  0  0  0  0  0  0  0  0  0
  144.8630  140.8018  155.6520 H   0  0  0  0  0  0  0  0  0  0  0  0
  145.9268  142.1136  156.1101 H   0  0  0  0  0  0  0  0  0  0  0  0
  147.1418  135.3368  151.4567 H   0  0  0  0  0  0  0  0  0  0  0  0
  142.8694  132.5367  150.0007 H   0  0  0  0  0  0  0  0  0  0  0  0
  144.9299  130.8068  150.1264 H   0  0  0  0  0  0  0  0  0  0  0  0
  145.5621  141.1105  153.3791 H   0  0  0  0  0  0  0  0  0  0  0  0
  1  2  2  0  0  0  0
  2  3  1  0  0  0  0
  2 14  1  0  0  0  0
  3  4  1  0  0  0  0
  3 20  1  0  0  0  0
  4  5  1  0  0  0  0
  4 21  1  0  0  0  0
  4 22  1  0  0  0  0
  5  6  1  0  0  0  0
  5  7  1  0  0  0  0
  5 23  1  0  0  0  0
  6 24  1  0  0  0  0
  7  8  1  0  0  0  0
  7 25  1  0  0  0  0
  7 26  1  0  0  0  0
  8 13  1  0  0  0  0
  8  9  1  0  0  0  0
  8 40  1  0  0  0  0
  9 10  1  0  0  0  0
  9 27  1  0  0  0  0
  9 28  1  0  0  0  0
 10 11  1  0  0  0  0
 10 29  1  0  0  0  0
 10 30  1  0  0  0  0
 11 12  1  0  0  0  0
 11 31  1  0  0  0  0
 11 32  1  0  0  0  0
 12 13  1  0  0  0  0
 12 33  1  0  0  0  0
 12 34  1  0  0  0  0
 13 35  1  0  0  0  0
 13 36  1  0  0  0  0
 14 15  1  0  0  0  0
 14 37  1  0  0  0  0
 15 19  1  0  0  0  0
 15 16  2  0  0  0  0
 16 17  1  0  0  0  0
 17 18  2  0  0  0  0
 17 38  1  0  0  0  0
 18 19  1  0  0  0  0
 18 39  1  0  0  0  0
M  CHG  1   8   1
M  END
> <s_m_source_file>
AV-unprocessed.smi

> <i_m_source_file_index>
1268

> <i_lp_mmshare_version>
43012

> <i_f3d_flags>
0

> <s_epik_input>
czFbY0hdW2NIXW5jMVtOSF1DKD1PKVtOSF1bQ0gyXVtDQEhdKFtPSF0pW0NIMl1OMltDSDJdW0NIMl1bQ0gyXVtDSDJdW0NIMl0y

> <s_epik_cmdline>
J2VwaWtfcHl0aG9uJywgJy1waCcsICc3LjAnLCAnLXRuJywgJzgnLCAnLW1hJywgJzIwMCcsICctbWV0YWxfYmluZGluZycsICctaW1hZScsICc8aW5maWxlLm1hZT4nLCAnLW9tYWUnLCAnPG91dGZpbGUubWFlPic=

> <r_lp_tautomer_probability>
0.999

> <r_epik_Ionization_Penalty>
0.00539631

> <r_epik_Ionization_Penalty_Charging>
0.00525788

> <r_epik_Ionization_Penalty_Neutral>
0.000138432

> <r_epik_State_Penalty>
0.0038355

> <r_epik_Charging_Adjusted_Penalty>
0.00909338

> <i_epik_Tot_Q>
1

> <i_epik_Tot_abs_Q>
1

> <r_epik_Metal_State_Penalty>
0.0500806

> <b_epik_Metal_Only>
0

> <s_lp_Force_Field>
OPLS_2005

> <r_lp_Energy>
16.7111

> <b_lp_Chiralities_Consistent>
1

> <s_lp_Variant>
AV-unprocessed.smi:1268-1

> <Gold.Version>
5.8.1

> <Gold.Id.Protein>
6NUR|6NUR_protein|mol2

> <Gold.PLP.Fitness>
45.7824

> <Gold.PLP.PLP>
-33.2965

> <Gold.PLP.part.hbond>
-4.5580

> <Gold.PLP.part.metal>
0.0000

> <Gold.PLP.part.buried>
-3.5856

> <Gold.PLP.part.nonpolar>
-27.0421

> <Gold.PLP.part.repulsive>
1.6359

> <Gold.PLP.ligand.clash>
0.0000

> <Gold.PLP.ligand.torsion>
0.9999

> <Gold.PLP.Chemscore.Hbond>
4.0663

> <Gold.PLP.Chemscore.CHOScore>
0.7531

> <Gold.PLP.Chemscore.Metal>
0.0000

> <Gold.Chemscore.Hbonds>
donor molecule, donor type, donor heavy atom, donor atom, acceptor molecule, acceptor atom, score
      L1  H     3    20       P1  7948  1.00
      L1  H     6    24       P1  7957  0.47
      L1  H     8    40       P1 10175  1.33
      L1  H    14    37       P1  7948  1.00
      L1  C    17    38       P1 10186  0.55

> <Gold.PLP.Chemscore.Internal.Correction>
0.0274

> <Gold.Rescore>
     Score         DG    S(hbond)    S(metal)    S(lipo)     H(rot)  DE(clash)    DE(int)     intcor
     15.02     -18.40       3.35        0.00      70.36       2.54       1.24       2.15       ----

> <Gold.Chemscore.Fitness>
15.0172

> <Gold.Chemscore.DG>
-18.4039

> <Gold.Chemscore.ZeroCoef>
-5.4800

> <Gold.Chemscore.Hbond>
3.3504

> <Gold.Chemscore.Metal>
0.0000

> <Gold.Chemscore.Lipo>
70.3556

> <Gold.Chemscore.Internal_Hbond>
0.0000

> <Gold.Chemscore.DEClash>
1.2352

> <Gold.Chemscore.DEInternal>
2.1515

> <Gold.Chemscore.Rot>
2.5383

> <Gold.Chemscore.Internal.Correction>
   9.000000E+99

> <Gold.Chemscore.Hbonds>
donor molecule, donor type, donor heavy atom, donor atom, acceptor molecule, acceptor atom, score
      L1  H     3    20       P1  7948  1.00
      L1  H     6    24       P1  7957  0.45
      L1  H     8    40       P1 10175  0.29
      L1  H    14    37       P1  7948  0.87

> <Gold.Chemscore.Hbond.Weighted>
-11.1904

> <Gold.Chemscore.Metal.Weighted>
-0.0000

> <Gold.Chemscore.Lipo.Weighted>
-8.2316

> <Gold.Chemscore.Internal_Hbond.Weighted>
0.0000

> <Gold.Chemscore.DEClash.Weighted>
1.2352

> <Gold.Chemscore.DEInternal.Weighted>
2.1515

> <Gold.Chemscore.Rot.Weighted>
6.4981

> <Gold.Chemscore.Internal.Correction.Weighted>
   9.000000E+99

> <Gold.Protein.RotatedTorsions>
[ 6907 6896 6895 6894 ] final   95.73 input  -60.11 | X-H torsion
[ 7974 7965 7964 7962 ] final -150.92 input  175.53 | X-H torsion
[ 8008 7997 7996 7995 ] final -124.94 input   59.86 | X-H torsion
[ 10167 10162 10161 10158 ] final -125.43 input  -65.29 | X-H torsion
[ 10718 10713 10712 10709 ] final  176.75 input   66.30 | X-H torsion
[ 10763 10752 10751 10750 ] final  -84.73 input  -60.55 | X-H torsion
[ 11005 11000 10999 10996 ] final  138.40 input  -57.11 | X-H torsion

> <Gold.Protein.ActiveResidues>
 VAL166  LYS551  ARG553  GLY616  TRP617  ASP618  TYR619  PRO620  LYS621  CYS622 
 ASP623  PHE694  ASN695  SER759  ASP760  ASP761  ALA762  ILE779  LEU786  VAL792 
 PHE793  MET794  SER795  GLU796  ALA797  LYS798  CYS799  TRP800  GLU811  SER814 

> <Gold.Protein.RotatedAtoms>
  152.5441  134.0995  159.8311 H   0  0  0  0  0  0  0  0  0  0  0  0  # atno 6907 bound_to 6896
  151.1075  133.5190  159.2614 H   0  0  0  0  0  0  0  0  0  0  0  0  # atno 6908 bound_to 6896
  151.1922  135.0416  159.8891 H   0  0  0  0  0  0  0  0  0  0  0  0  # atno 6909 bound_to 6896
  144.7879  140.4867  143.5793 H   0  0  0  0  0  0  0  0  0  0  0  0  # atno 7974 bound_to 7965
  155.2051  140.0417  157.2924 H   0  0  0  0  0  0  0  0  0  0  0  0  # atno 8008 bound_to 7997
  154.6049  140.2462  155.7715 H   0  0  0  0  0  0  0  0  0  0  0  0  # atno 8009 bound_to 7997
  156.2344  140.2927  156.0282 H   0  0  0  0  0  0  0  0  0  0  0  0  # atno 8010 bound_to 7997
  139.9822  143.5730  152.2374 H   0  0  0  0  0  0  0  0  0  0  0  0  # atno 10167 bound_to 10162
  156.9155  130.9923  151.3013 H   0  0  0  0  0  0  0  0  0  0  0  0  # atno 10718 bound_to 10713
  154.6029  135.5510  153.7393 H   0  0  0  0  0  0  0  0  0  0  0  0  # atno 10763 bound_to 10752
  153.0162  135.6371  154.1688 H   0  0  0  0  0  0  0  0  0  0  0  0  # atno 10764 bound_to 10752
  154.1628  135.2896  155.3084 H   0  0  0  0  0  0  0  0  0  0  0  0  # atno 10765 bound_to 10752
  140.0181  134.9409  157.0418 H   0  0  0  0  0  0  0  0  0  0  0  0  # atno 11005 bound_to 11000
  145.5871  139.1493  143.3203 LP  0  0  0  0  0  0  0  0  0  0  0  0  # atno 17320 bound_to 7965
  146.2119  140.5999  142.9055 LP  0  0  0  0  0  0  0  0  0  0  0  0  # atno 17321 bound_to 7965
  139.6401  144.7654  151.2356 LP  0  0  0  0  0  0  0  0  0  0  0  0  # atno 17342 bound_to 10162
  140.7485  143.6331  150.8404 LP  0  0  0  0  0  0  0  0  0  0  0  0  # atno 17343 bound_to 10162
  157.5941  130.8465  149.8703 LP  0  0  0  0  0  0  0  0  0  0  0  0  # atno 17370 bound_to 10713
  156.0516  130.3716  150.1189 LP  0  0  0  0  0  0  0  0  0  0  0  0  # atno 17371 bound_to 10713
  140.4435  134.1657  155.7175 LP  0  0  0  0  0  0  0  0  0  0  0  0  # atno 17394 bound_to 11000
  141.1756  133.8520  157.1431 LP  0  0  0  0  0  0  0  0  0  0  0  0  # atno 17395 bound_to 11000

$$$$
