AV-unprocessed.smi:56|AV-procd|sdf|577|dock4
  -GOLD-   2262016483D 1   1.00000     0.00000
 Structure written by MMmdl.
 23 24  0  0  0  0  0  0  0  0  2 V2000
  146.6852  132.7859  149.7172 O   0  0  0  0  0  0  0  0  0  0  0  0
  145.5877  132.5234  150.5772 C   0  0  1  0  0  0  0  0  0  0  0  0
  145.8434  131.2840  151.4082 C   0  0  0  0  0  0  0  0  0  0  0  0
  145.1911  130.0134  151.3557 C   0  0  0  0  0  0  0  0  0  0  0  0
  145.8173  129.2706  152.3153 C   0  0  0  0  0  0  0  0  0  0  0  0
  146.7728  130.0823  152.8763 N   0  0  0  0  0  0  0  0  0  0  0  0
  146.7991  131.3116  152.3302 N   0  0  0  0  0  0  0  0  0  0  0  0
  145.3014  133.7744  151.4146 C   0  0  0  0  0  0  0  0  0  0  0  0
  144.4975  134.6928  150.4817 C   0  0  0  0  0  0  0  0  0  0  0  0
  143.9628  133.8368  149.4024 N   0  3  0  0  0  0  0  0  0  0  0  0
  144.3228  132.4407  149.7104 C   0  0  0  0  0  0  0  0  0  0  0  0
  147.4049  129.8159  153.6182 H   0  0  0  0  0  0  0  0  0  0  0  0
  147.3475  132.1266  149.8523 H   0  0  0  0  0  0  0  0  0  0  0  0
  144.3870  129.6898  150.7117 H   0  0  0  0  0  0  0  0  0  0  0  0
  145.6664  128.2510  152.6386 H   0  0  0  0  0  0  0  0  0  0  0  0
  144.6696  133.5055  152.2629 H   0  0  0  0  0  0  0  0  0  0  0  0
  146.2002  134.2434  151.8177 H   0  0  0  0  0  0  0  0  0  0  0  0
  143.6913  135.1986  151.0138 H   0  0  0  0  0  0  0  0  0  0  0  0
  145.1385  135.4555  150.0384 H   0  0  0  0  0  0  0  0  0  0  0  0
  142.9613  133.9379  149.3163 H   0  0  0  0  0  0  0  0  0  0  0  0
  144.4450  131.8327  148.8130 H   0  0  0  0  0  0  0  0  0  0  0  0
  143.4926  132.0258  150.2836 H   0  0  0  0  0  0  0  0  0  0  0  0
  144.4071  134.1029  148.5353 H   0  0  0  0  0  0  0  0  0  0  0  0
  1  2  1  0  0  0  0
  1 13  1  0  0  0  0
  2 11  1  0  0  0  0
  2  8  1  0  0  0  0
  2  3  1  0  0  0  0
  3  7  2  0  0  0  0
  3  4  1  0  0  0  0
  4  5  2  0  0  0  0
  4 14  1  0  0  0  0
  5  6  1  0  0  0  0
  5 15  1  0  0  0  0
  6  7  1  0  0  0  0
  6 12  1  0  0  0  0
  8  9  1  0  0  0  0
  8 16  1  0  0  0  0
  8 17  1  0  0  0  0
  9 10  1  0  0  0  0
  9 18  1  0  0  0  0
  9 19  1  0  0  0  0
 10 11  1  0  0  0  0
 10 20  1  0  0  0  0
 10 23  1  0  0  0  0
 11 21  1  0  0  0  0
 11 22  1  0  0  0  0
M  CHG  1  10   1
M  END
> <s_m_source_file>
AV-unprocessed.smi

> <i_m_source_file_index>
56

> <i_lp_mmshare_version>
43012

> <i_f3d_flags>
0

> <s_epik_input>
W0NIMl0xW05IXVtDSDJdW0NIMl1bQ0BAXTEoW09IXSljMltjSF1bY0hdbltuSF0y

> <s_epik_cmdline>
J2VwaWtfcHl0aG9uJywgJy1waCcsICc3LjAnLCAnLXRuJywgJzgnLCAnLW1hJywgJzIwMCcsICctbWV0YWxfYmluZGluZycsICctaW1hZScsICc8aW5maWxlLm1hZT4nLCAnLW9tYWUnLCAnPG91dGZpbGUubWFlPic=

> <r_lp_tautomer_probability>
0.5

> <r_epik_Ionization_Penalty>
0.000592189

> <r_epik_Ionization_Penalty_Charging>
0.00059155

> <r_epik_Ionization_Penalty_Neutral>
6.39784e-07

> <r_epik_State_Penalty>
0.41068

> <r_epik_Charging_Adjusted_Penalty>
0.411271

> <i_epik_Tot_Q>
1

> <i_epik_Tot_abs_Q>
1

> <r_epik_Metal_State_Penalty>
0.410682

> <b_epik_Metal_Only>
0

> <s_lp_Force_Field>
OPLS_2005

> <r_lp_Energy>
24.7564

> <b_lp_Chiralities_Consistent>
1

> <s_lp_Variant>
AV-unprocessed.smi:56-1

> <Gold.Version>
5.8.1

> <Gold.Id.Protein>
6NUR|6NUR_protein|mol2

> <Gold.PLP.Fitness>
33.0128

> <Gold.PLP.PLP>
-22.0301

> <Gold.PLP.part.hbond>
-4.9785

> <Gold.PLP.part.metal>
0.0000

> <Gold.PLP.part.buried>
-2.8739

> <Gold.PLP.part.nonpolar>
-15.0981

> <Gold.PLP.part.repulsive>
0.5177

> <Gold.PLP.ligand.clash>
0.0000

> <Gold.PLP.ligand.torsion>
0.1627

> <Gold.PLP.Chemscore.Hbond>
3.7621

> <Gold.PLP.Chemscore.CHOScore>
0.0000

> <Gold.PLP.Chemscore.Metal>
0.0000

> <Gold.Chemscore.Hbonds>
donor molecule, donor type, donor heavy atom, donor atom, acceptor molecule, acceptor atom, score
      L1  H     1    13       P1 10747  0.84
      L1  H    10    20       P1 10186  2.00
      L1  H    10    23       P1  7921  0.87

> <Gold.PLP.Chemscore.Internal.Correction>
0.0218

> <Gold.Rescore>
     Score         DG    S(hbond)    S(metal)    S(lipo)     H(rot)  DE(clash)    DE(int)     intcor
     16.32     -16.77       2.60        0.00      55.00       1.50       0.23       0.22       ----

> <Gold.Chemscore.Fitness>
16.3199

> <Gold.Chemscore.DG>
-16.7742

> <Gold.Chemscore.ZeroCoef>
-5.4800

> <Gold.Chemscore.Hbond>
2.6032

> <Gold.Chemscore.Metal>
0.0000

> <Gold.Chemscore.Lipo>
55.0047

> <Gold.Chemscore.Internal_Hbond>
0.0000

> <Gold.Chemscore.DEClash>
0.2319

> <Gold.Chemscore.DEInternal>
0.2225

> <Gold.Chemscore.Rot>
1.4985

> <Gold.Chemscore.Internal.Correction>
   9.000000E+99

> <Gold.Chemscore.Hbonds>
donor molecule, donor type, donor heavy atom, donor atom, acceptor molecule, acceptor atom, score
      L1  H     1    13       P1 10747  0.84
      L1  H    10    20       P1 10186  0.94
      L1  H    10    23       P1  7921  0.81

> <Gold.Chemscore.Hbond.Weighted>
-8.6948

> <Gold.Chemscore.Metal.Weighted>
-0.0000

> <Gold.Chemscore.Lipo.Weighted>
-6.4355

> <Gold.Chemscore.Internal_Hbond.Weighted>
0.0000

> <Gold.Chemscore.DEClash.Weighted>
0.2319

> <Gold.Chemscore.DEInternal.Weighted>
0.2225

> <Gold.Chemscore.Rot.Weighted>
3.8362

> <Gold.Chemscore.Internal.Correction.Weighted>
   9.000000E+99

> <Gold.Protein.RotatedTorsions>
[ 6907 6896 6895 6894 ] final   44.73 input  -60.11 | X-H torsion
[ 7974 7965 7964 7962 ] final   -6.22 input  175.53 | X-H torsion
[ 8008 7997 7996 7995 ] final   17.61 input   59.86 | X-H torsion
[ 10167 10162 10161 10158 ] final   34.59 input  -65.29 | X-H torsion
[ 10718 10713 10712 10709 ] final  -36.60 input   66.30 | X-H torsion
[ 10763 10752 10751 10750 ] final   68.56 input  -60.55 | X-H torsion
[ 11005 11000 10999 10996 ] final -112.42 input  -57.11 | X-H torsion

> <Gold.Protein.ActiveResidues>
 VAL166  LYS551  ARG553  GLY616  TRP617  ASP618  TYR619  PRO620  LYS621  CYS622 
 ASP623  PHE694  ASN695  SER759  ASP760  ASP761  ALA762  ILE779  LEU786  VAL792 
 PHE793  MET794  SER795  GLU796  ALA797  LYS798  CYS799  TRP800  GLU811  SER814 

> <Gold.Protein.RotatedAtoms>
  152.2361  134.8275  160.0466 H   0  0  0  0  0  0  0  0  0  0  0  0  # atno 6907 bound_to 6896
  151.9006  133.3532  159.3837 H   0  0  0  0  0  0  0  0  0  0  0  0  # atno 6908 bound_to 6896
  150.7039  134.4758  159.5491 H   0  0  0  0  0  0  0  0  0  0  0  0  # atno 6909 bound_to 6896
  146.2336  140.2139  142.8336 H   0  0  0  0  0  0  0  0  0  0  0  0  # atno 7974 bound_to 7965
  154.8939  140.2991  155.5355 H   0  0  0  0  0  0  0  0  0  0  0  0  # atno 8008 bound_to 7997
  156.3020  140.2419  156.3892 H   0  0  0  0  0  0  0  0  0  0  0  0  # atno 8009 bound_to 7997
  154.8590  140.0406  157.1642 H   0  0  0  0  0  0  0  0  0  0  0  0  # atno 8010 bound_to 7997
  140.4301  144.1337  150.6158 H   0  0  0  0  0  0  0  0  0  0  0  0  # atno 10167 bound_to 10162
  156.3250  130.4271  149.7925 H   0  0  0  0  0  0  0  0  0  0  0  0  # atno 10718 bound_to 10713
  153.0242  135.5243  154.7154 H   0  0  0  0  0  0  0  0  0  0  0  0  # atno 10763 bound_to 10752
  154.6224  135.2890  155.0313 H   0  0  0  0  0  0  0  0  0  0  0  0  # atno 10764 bound_to 10752
  154.1294  135.6595  153.4971 H   0  0  0  0  0  0  0  0  0  0  0  0  # atno 10765 bound_to 10752
  141.0676  133.9433  157.2548 H   0  0  0  0  0  0  0  0  0  0  0  0  # atno 11005 bound_to 11000
  144.9685  140.8346  143.5470 LP  0  0  0  0  0  0  0  0  0  0  0  0  # atno 17320 bound_to 7965
  145.2117  139.2201  143.5139 LP  0  0  0  0  0  0  0  0  0  0  0  0  # atno 17321 bound_to 7965
  140.4437  143.2515  151.9439 LP  0  0  0  0  0  0  0  0  0  0  0  0  # atno 17342 bound_to 10162
  139.4784  144.5629  151.8210 LP  0  0  0  0  0  0  0  0  0  0  0  0  # atno 17343 bound_to 10162
  156.5219  130.8219  151.3206 LP  0  0  0  0  0  0  0  0  0  0  0  0  # atno 17370 bound_to 10713
  157.7419  130.9880  150.2480 LP  0  0  0  0  0  0  0  0  0  0  0  0  # atno 17371 bound_to 10713
  139.9492  135.0178  156.8942 LP  0  0  0  0  0  0  0  0  0  0  0  0  # atno 17394 bound_to 11000
  140.5740  134.0415  155.7440 LP  0  0  0  0  0  0  0  0  0  0  0  0  # atno 17395 bound_to 11000

$$$$
