AV-unprocessed.smi:2918|AV-procd|sdf|11191|dock10
  -GOLD-   2272016 83D 1   1.00000     0.00000
 Structure written by MMmdl.
 41 42  0  0  0  0  0  0  0  0  1 V2000
  150.7934  137.0727  155.2761 C   0  0  0  0  0  0  0  0  0  0  0  0
  151.2012  138.2223  154.3416 C   0  0  0  0  0  0  0  0  0  0  0  0
  152.6178  138.7360  154.6487 C   0  0  0  0  0  0  0  0  0  0  0  0
  150.2197  139.3022  154.3863 N   0  0  0  0  0  0  0  0  0  0  0  0
  150.5956  140.5451  154.7695 N   0  0  0  0  0  0  0  0  0  0  0  0
  149.4897  141.2752  154.7219 C   0  0  0  0  0  0  0  0  0  0  0  0
  148.3483  140.5294  154.3139 C   0  0  0  0  0  0  0  0  0  0  0  0
  148.8654  139.2779  154.1157 C   0  0  0  0  0  0  0  0  0  0  0  0
  148.2204  138.1453  153.7271 N   0  0  0  0  0  0  0  0  0  0  0  0
  147.1663  137.5361  154.2977 C   0  0  0  0  0  0  0  0  0  0  0  0
  146.5804  137.9277  155.3067 O   0  0  0  0  0  0  0  0  0  0  0  0
  146.8258  136.4319  153.6117 N   0  0  0  0  0  0  0  0  0  0  0  0
  145.7294  135.4882  153.8791 C   0  0  0  0  0  0  0  0  0  0  0  0
  146.0345  134.6747  155.1551 C   0  0  0  0  0  0  0  0  0  0  0  0
  144.3659  136.2112  154.0023 C   0  0  0  0  0  0  0  0  0  0  0  0
  143.9278  136.8474  152.6708 C   0  0  0  0  0  0  0  0  0  0  0  0
  143.8662  135.8520  151.6560 O   0  0  0  0  0  0  0  0  0  0  0  0
  145.1242  135.2365  151.4050 C   0  0  0  0  0  0  0  0  0  0  0  0
  145.6297  134.5262  152.6753 C   0  0  0  0  0  0  0  0  0  0  0  0
  151.4899  136.2377  155.1953 H   0  0  0  0  0  0  0  0  0  0  0  0
  149.8002  136.6985  155.0264 H   0  0  0  0  0  0  0  0  0  0  0  0
  150.7775  137.3911  156.3191 H   0  0  0  0  0  0  0  0  0  0  0  0
  151.2167  137.8278  153.3254 H   0  0  0  0  0  0  0  0  0  0  0  0
  153.3543  137.9404  154.5336 H   0  0  0  0  0  0  0  0  0  0  0  0
  152.6981  139.1136  155.6688 H   0  0  0  0  0  0  0  0  0  0  0  0
  152.8971  139.5431  153.9705 H   0  0  0  0  0  0  0  0  0  0  0  0
  149.5472  142.3204  154.9879 H   0  0  0  0  0  0  0  0  0  0  0  0
  147.3318  140.8738  154.1985 H   0  0  0  0  0  0  0  0  0  0  0  0
  148.5828  137.7118  152.8909 H   0  0  0  0  0  0  0  0  0  0  0  0
  147.3872  136.2168  152.8009 H   0  0  0  0  0  0  0  0  0  0  0  0
  145.2791  133.9066  155.3234 H   0  0  0  0  0  0  0  0  0  0  0  0
  146.0524  135.3017  156.0466 H   0  0  0  0  0  0  0  0  0  0  0  0
  147.0002  134.1728  155.0843 H   0  0  0  0  0  0  0  0  0  0  0  0
  143.6037  135.4918  154.3051 H   0  0  0  0  0  0  0  0  0  0  0  0
  144.3835  136.9661  154.7879 H   0  0  0  0  0  0  0  0  0  0  0  0
  142.9398  137.2948  152.7799 H   0  0  0  0  0  0  0  0  0  0  0  0
  144.6054  137.6488  152.3728 H   0  0  0  0  0  0  0  0  0  0  0  0
  145.0034  134.5136  150.5980 H   0  0  0  0  0  0  0  0  0  0  0  0
  145.8415  135.9805  151.0553 H   0  0  0  0  0  0  0  0  0  0  0  0
  146.5948  134.0567  152.4793 H   0  0  0  0  0  0  0  0  0  0  0  0
  144.9410  133.7138  152.9120 H   0  0  0  0  0  0  0  0  0  0  0  0
  1  2  1  0  0  0  0
  1 20  1  0  0  0  0
  1 21  1  0  0  0  0
  1 22  1  0  0  0  0
  2  3  1  0  0  0  0
  2  4  1  0  0  0  0
  2 23  1  0  0  0  0
  3 24  1  0  0  0  0
  3 25  1  0  0  0  0
  3 26  1  0  0  0  0
  4  8  1  0  0  0  0
  4  5  1  0  0  0  0
  5  6  2  0  0  0  0
  6  7  1  0  0  0  0
  6 27  1  0  0  0  0
  7  8  2  0  0  0  0
  7 28  1  0  0  0  0
  8  9  1  0  0  0  0
  9 10  1  0  0  0  0
  9 29  1  0  0  0  0
 10 11  2  0  0  0  0
 10 12  1  0  0  0  0
 12 13  1  0  0  0  0
 12 30  1  0  0  0  0
 13 19  1  0  0  0  0
 13 14  1  0  0  0  0
 13 15  1  0  0  0  0
 14 31  1  0  0  0  0
 14 32  1  0  0  0  0
 14 33  1  0  0  0  0
 15 16  1  0  0  0  0
 15 34  1  0  0  0  0
 15 35  1  0  0  0  0
 16 17  1  0  0  0  0
 16 36  1  0  0  0  0
 16 37  1  0  0  0  0
 17 18  1  0  0  0  0
 18 19  1  0  0  0  0
 18 38  1  0  0  0  0
 18 39  1  0  0  0  0
 19 40  1  0  0  0  0
 19 41  1  0  0  0  0
M  END
> <s_m_source_file>
AV-unprocessed.smi

> <i_m_source_file_index>
2918

> <i_lp_mmshare_version>
43012

> <i_f3d_flags>
0

> <s_epik_input>
W0NIM11bQ0hdKFtDSDNdKW4xbltjSF1bY0hdYzFbTkhdQyg9TylbTkhdQzIoW0NIM10pW0NIMl1bQ0gyXU9bQ0gyXVtDSDJdMg==

> <s_epik_cmdline>
J2VwaWtfcHl0aG9uJywgJy1waCcsICc3LjAnLCAnLXRuJywgJzgnLCAnLW1hJywgJzIwMCcsICctbWV0YWxfYmluZGluZycsICctaW1hZScsICc8aW5maWxlLm1hZT4nLCAnLW9tYWUnLCAnPG91dGZpbGUubWFlPic=

> <r_lp_tautomer_probability>
1

> <r_epik_Ionization_Penalty>
4.13243e-05

> <r_epik_Ionization_Penalty_Charging>
0

> <r_epik_Ionization_Penalty_Neutral>
4.13243e-05

> <r_epik_State_Penalty>
-0

> <r_epik_Charging_Adjusted_Penalty>
0

> <i_epik_Tot_Q>
0

> <i_epik_Tot_abs_Q>
0

> <r_epik_Metal_State_Penalty>
-0

> <b_epik_Metal_Only>
0

> <s_lp_Force_Field>
OPLS_2005

> <r_lp_Energy>
17.4718

> <b_lp_Chiralities_Consistent>
1

> <s_lp_Variant>
AV-unprocessed.smi:2918-1

> <Gold.Version>
5.8.1

> <Gold.Id.Protein>
6NUR|6NUR_protein|mol2

> <Gold.PLP.Fitness>
40.1671

> <Gold.PLP.PLP>
-29.8907

> <Gold.PLP.part.hbond>
-3.0000

> <Gold.PLP.part.metal>
0.0000

> <Gold.PLP.part.buried>
-2.3590

> <Gold.PLP.part.nonpolar>
-23.6777

> <Gold.PLP.part.repulsive>
0.3428

> <Gold.PLP.ligand.clash>
0.0000

> <Gold.PLP.ligand.torsion>
0.6509

> <Gold.PLP.Chemscore.Hbond>
2.9500

> <Gold.PLP.Chemscore.CHOScore>
0.8961

> <Gold.PLP.Chemscore.Metal>
0.0000

> <Gold.Chemscore.Hbonds>
donor molecule, donor type, donor heavy atom, donor atom, acceptor molecule, acceptor atom, score
      L1  H     9    29       P1  7948  1.00
      L1  H    12    30       P1  7948  1.00
      P1  H  7989  7998       L1     5  0.90
      L1  C     6    27       P1  8028  0.90

> <Gold.PLP.Chemscore.Internal.Correction>
0.0399

> <Gold.Rescore>
     Score         DG    S(hbond)    S(metal)    S(lipo)     H(rot)  DE(clash)    DE(int)     intcor
     16.47     -17.09       2.46        0.00      55.04       1.19       0.13       0.49       ----

> <Gold.Chemscore.Fitness>
16.4672

> <Gold.Chemscore.DG>
-17.0943

> <Gold.Chemscore.ZeroCoef>
-5.4800

> <Gold.Chemscore.Hbond>
2.4630

> <Gold.Chemscore.Metal>
0.0000

> <Gold.Chemscore.Lipo>
55.0447

> <Gold.Chemscore.Internal_Hbond>
0.0000

> <Gold.Chemscore.DEClash>
0.1330

> <Gold.Chemscore.DEInternal>
0.4941

> <Gold.Chemscore.Rot>
1.1924

> <Gold.Chemscore.Internal.Correction>
   9.000000E+99

> <Gold.Chemscore.Hbonds>
donor molecule, donor type, donor heavy atom, donor atom, acceptor molecule, acceptor atom, score
      L1  H     9    29       P1  7948  0.97
      L1  H    12    30       P1  7948  0.98
      P1  H  7989  7998       L1     5  0.14

> <Gold.Chemscore.Hbond.Weighted>
-8.2265

> <Gold.Chemscore.Metal.Weighted>
-0.0000

> <Gold.Chemscore.Lipo.Weighted>
-6.4402

> <Gold.Chemscore.Internal_Hbond.Weighted>
0.0000

> <Gold.Chemscore.DEClash.Weighted>
0.1330

> <Gold.Chemscore.DEInternal.Weighted>
0.4941

> <Gold.Chemscore.Rot.Weighted>
3.0524

> <Gold.Chemscore.Internal.Correction.Weighted>
   9.000000E+99

> <Gold.Protein.RotatedTorsions>
[ 6907 6896 6895 6894 ] final  116.28 input  -60.11 | X-H torsion
[ 7974 7965 7964 7962 ] final  107.05 input  175.53 | X-H torsion
[ 8008 7997 7996 7995 ] final -103.94 input   59.86 | X-H torsion
[ 10167 10162 10161 10158 ] final -163.49 input  -65.29 | X-H torsion
[ 10718 10713 10712 10709 ] final   38.74 input   66.30 | X-H torsion
[ 10763 10752 10751 10750 ] final  -55.90 input  -60.55 | X-H torsion
[ 11005 11000 10999 10996 ] final   68.21 input  -57.11 | X-H torsion

> <Gold.Protein.ActiveResidues>
 VAL166  LYS551  ARG553  GLY616  TRP617  ASP618  TYR619  PRO620  LYS621  CYS622 
 ASP623  PHE694  ASN695  SER759  ASP760  ASP761  ALA762  ILE779  LEU786  VAL792 
 PHE793  MET794  SER795  GLU796  ALA797  LYS798  CYS799  TRP800  GLU811  SER814 

> <Gold.Protein.RotatedAtoms>
  152.4688  133.7983  159.6938 H   0  0  0  0  0  0  0  0  0  0  0  0  # atno 6907 bound_to 6896
  150.8666  133.7556  159.2981 H   0  0  0  0  0  0  0  0  0  0  0  0  # atno 6908 bound_to 6896
  151.5104  135.1068  159.9904 H   0  0  0  0  0  0  0  0  0  0  0  0  # atno 6909 bound_to 6896
  145.2986  139.2577  143.3826 H   0  0  0  0  0  0  0  0  0  0  0  0  # atno 7974 bound_to 7965
  154.8781  140.0420  157.1766 H   0  0  0  0  0  0  0  0  0  0  0  0  # atno 8008 bound_to 7997
  154.8668  140.2952  155.5485 H   0  0  0  0  0  0  0  0  0  0  0  0  # atno 8009 bound_to 7997
  156.2999  140.2436  156.3650 H   0  0  0  0  0  0  0  0  0  0  0  0  # atno 8010 bound_to 7997
  139.6317  144.0427  152.2021 H   0  0  0  0  0  0  0  0  0  0  0  0  # atno 10167 bound_to 10162
  157.3623  130.7656  149.7057 H   0  0  0  0  0  0  0  0  0  0  0  0  # atno 10718 bound_to 10713
  154.1981  135.6416  153.5079 H   0  0  0  0  0  0  0  0  0  0  0  0  # atno 10763 bound_to 10752
  153.0018  135.5444  154.6345 H   0  0  0  0  0  0  0  0  0  0  0  0  # atno 10764 bound_to 10752
  154.5750  135.2920  155.0762 H   0  0  0  0  0  0  0  0  0  0  0  0  # atno 10765 bound_to 10752
  139.9725  134.6877  156.0419 H   0  0  0  0  0  0  0  0  0  0  0  0  # atno 11005 bound_to 11000
  146.3160  140.3495  142.8655 LP  0  0  0  0  0  0  0  0  0  0  0  0  # atno 17320 bound_to 7965
  144.9112  140.7760  143.5806 LP  0  0  0  0  0  0  0  0  0  0  0  0  # atno 17321 bound_to 7965
  140.0094  144.6235  150.7660 LP  0  0  0  0  0  0  0  0  0  0  0  0  # atno 17342 bound_to 10162
  140.7443  143.2858  151.3467 LP  0  0  0  0  0  0  0  0  0  0  0  0  # atno 17343 bound_to 10162
  155.9740  130.4110  150.3960 LP  0  0  0  0  0  0  0  0  0  0  0  0  # atno 17370 bound_to 10713
  157.2039  131.0444  151.2636 LP  0  0  0  0  0  0  0  0  0  0  0  0  # atno 17371 bound_to 10713
  141.1404  133.6566  156.3713 LP  0  0  0  0  0  0  0  0  0  0  0  0  # atno 17394 bound_to 11000
  140.5264  134.6255  157.5335 LP  0  0  0  0  0  0  0  0  0  0  0  0  # atno 17395 bound_to 11000

$$$$
