AV-unprocessed.smi:499|AV-procd|sdf|2732|dock4
  -GOLD-   2262023183D 1   1.00000     0.00000
 Structure written by MMmdl.
 36 37  0  0  0  0  0  0  0  0  1 V2000
  151.9842  139.4472  158.4082 C   0  0  0  0  0  0  0  0  0  0  0  0
  151.5004  138.0233  158.0667 C   0  0  1  0  0  0  0  0  0  0  0  0
  152.4528  137.0422  158.6283 C   0  0  0  0  0  0  0  0  0  0  0  0
  153.1981  136.2733  159.0682 N   0  0  0  0  0  0  0  0  0  0  0  0
  150.1612  137.8226  158.6264 N   0  0  0  0  0  0  0  0  0  0  0  0
  149.4479  136.6842  158.6488 C   0  0  0  0  0  0  0  0  0  0  0  0
  149.8527  135.6208  158.1775 O   0  0  0  0  0  0  0  0  0  0  0  0
  148.0585  136.7816  159.2955 C   0  0  0  0  0  0  0  0  0  0  0  0
  147.8101  135.7442  160.3112 N   0  0  0  0  0  0  0  0  0  0  0  0
  147.7850  134.4068  159.8687 C   0  0  0  0  0  0  0  0  0  0  0  0
  147.5855  133.3641  160.6977 C   0  0  0  0  0  0  0  0  0  0  0  0
  147.5102  131.9342  160.1856 C   0  0  0  0  0  0  0  0  0  0  0  0
  147.3064  131.0785  161.1874 F   0  0  0  0  0  0  0  0  0  0  0  0
  146.5216  131.7879  159.3023 F   0  0  0  0  0  0  0  0  0  0  0  0
  148.6542  131.6065  159.5870 F   0  0  0  0  0  0  0  0  0  0  0  0
  147.3587  133.6837  162.0933 C   0  0  0  0  0  0  0  0  0  0  0  0
  147.3745  134.9575  162.5323 C   0  0  0  0  0  0  0  0  0  0  0  0
  147.6180  136.0792  161.6224 C   0  0  0  0  0  0  0  0  0  0  0  0
  147.6465  137.2465  162.0131 O   0  0  0  0  0  0  0  0  0  0  0  0
  151.4580  137.8799  156.5466 C   0  0  0  0  0  0  0  0  0  0  0  0
  152.5803  138.3474  155.6465 C   0  0  0  0  0  0  0  0  0  0  0  0
  151.2459  139.0601  155.6246 C   0  0  0  0  0  0  0  0  0  0  0  0
  152.9616  139.6443  157.9665 H   0  0  0  0  0  0  0  0  0  0  0  0
  152.0838  139.5975  159.4835 H   0  0  0  0  0  0  0  0  0  0  0  0
  151.2949  140.2035  158.0310 H   0  0  0  0  0  0  0  0  0  0  0  0
  149.7312  138.6389  159.0363 H   0  0  0  0  0  0  0  0  0  0  0  0
  147.9368  137.7740  159.7338 H   0  0  0  0  0  0  0  0  0  0  0  0
  147.3099  136.7274  158.5038 H   0  0  0  0  0  0  0  0  0  0  0  0
  147.9429  134.2823  158.8073 H   0  0  0  0  0  0  0  0  0  0  0  0
  147.1783  132.8872  162.8002 H   0  0  0  0  0  0  0  0  0  0  0  0
  147.2051  135.1582  163.5800 H   0  0  0  0  0  0  0  0  0  0  0  0
  150.9689  136.9606  156.2280 H   0  0  0  0  0  0  0  0  0  0  0  0
  153.4222  138.8699  156.0958 H   0  0  0  0  0  0  0  0  0  0  0  0
  152.8285  137.7211  154.7921 H   0  0  0  0  0  0  0  0  0  0  0  0
  150.6094  138.9076  154.7553 H   0  0  0  0  0  0  0  0  0  0  0  0
  151.1997  140.0551  156.0623 H   0  0  0  0  0  0  0  0  0  0  0  0
  1  2  1  0  0  0  0
  1 23  1  0  0  0  0
  1 24  1  0  0  0  0
  1 25  1  0  0  0  0
  2  3  1  0  0  0  0
  2  5  1  0  0  0  0
  2 20  1  0  0  0  0
  3  4  3  0  0  0  0
  5  6  1  0  0  0  0
  5 26  1  0  0  0  0
  6  7  2  0  0  0  0
  6  8  1  0  0  0  0
  8  9  1  0  0  0  0
  8 27  1  0  0  0  0
  8 28  1  0  0  0  0
  9 18  1  0  0  0  0
  9 10  1  0  0  0  0
 10 11  2  0  0  0  0
 10 29  1  0  0  0  0
 11 12  1  0  0  0  0
 11 16  1  0  0  0  0
 12 13  1  0  0  0  0
 12 14  1  0  0  0  0
 12 15  1  0  0  0  0
 16 17  2  0  0  0  0
 16 30  1  0  0  0  0
 17 18  1  0  0  0  0
 17 31  1  0  0  0  0
 18 19  2  0  0  0  0
 20 22  1  0  0  0  0
 20 21  1  0  0  0  0
 20 32  1  0  0  0  0
 21 22  1  0  0  0  0
 21 33  1  0  0  0  0
 21 34  1  0  0  0  0
 22 35  1  0  0  0  0
 22 36  1  0  0  0  0
M  END
> <s_m_source_file>
AV-unprocessed.smi

> <i_m_source_file_index>
499

> <i_lp_mmshare_version>
43012

> <i_f3d_flags>
0

> <s_epik_input>
W0NIMl0xW0NIMl1bQ0hdMVtDQF0oW0NIM10pKEMjTilbTkhdQyg9TylbQ0gyXW4yW2NIXWMoQyhGKShGKUYpW2NIXVtjSF1jMj1P

> <s_epik_cmdline>
J2VwaWtfcHl0aG9uJywgJy1waCcsICc3LjAnLCAnLXRuJywgJzgnLCAnLW1hJywgJzIwMCcsICctbWV0YWxfYmluZGluZycsICctaW1hZScsICc8aW5maWxlLm1hZT4nLCAnLW9tYWUnLCAnPG91dGZpbGUubWFlPic=

> <r_lp_tautomer_probability>
1

> <r_epik_Ionization_Penalty>
4.79953e-07

> <r_epik_Ionization_Penalty_Charging>
1.46911e-08

> <r_epik_Ionization_Penalty_Neutral>
4.65262e-07

> <r_epik_State_Penalty>
-0

> <r_epik_Charging_Adjusted_Penalty>
1.46911e-08

> <i_epik_Tot_Q>
0

> <i_epik_Tot_abs_Q>
0

> <r_epik_Metal_State_Penalty>
-0

> <b_epik_Metal_Only>
0

> <s_lp_Force_Field>
OPLS_2005

> <r_lp_Energy>
24.0499

> <b_lp_Chiralities_Consistent>
1

> <s_lp_Variant>
AV-unprocessed.smi:499-1

> <Gold.Version>
5.8.1

> <Gold.Id.Protein>
6NUR|6NUR_protein|mol2

> <Gold.PLP.Fitness>
45.6560

> <Gold.PLP.PLP>
-35.4275

> <Gold.PLP.part.hbond>
-4.0000

> <Gold.PLP.part.metal>
0.0000

> <Gold.PLP.part.buried>
-4.6895

> <Gold.PLP.part.nonpolar>
-27.6216

> <Gold.PLP.part.repulsive>
0.1614

> <Gold.PLP.ligand.clash>
0.0000

> <Gold.PLP.ligand.torsion>
0.9822

> <Gold.PLP.Chemscore.Hbond>
3.5200

> <Gold.PLP.Chemscore.CHOScore>
0.0000

> <Gold.PLP.Chemscore.Metal>
0.0000

> <Gold.Chemscore.Hbonds>
donor molecule, donor type, donor heavy atom, donor atom, acceptor molecule, acceptor atom, score
      P1  H  6896  6908       L1     7  0.96
      P1  H  6896  6909       L1     4  0.90
      P1  H  6931  6943       L1    19  0.94
      P1  H  6934  6947       L1    19  0.49

> <Gold.PLP.Chemscore.Internal.Correction>
1.6328

> <Gold.Rescore>
     Score         DG    S(hbond)    S(metal)    S(lipo)     H(rot)  DE(clash)    DE(int)     intcor
     16.02     -18.11       3.19        0.00      58.40       1.90       0.00       2.09       ----

> <Gold.Chemscore.Fitness>
16.0170

> <Gold.Chemscore.DG>
-18.1104

> <Gold.Chemscore.ZeroCoef>
-5.4800

> <Gold.Chemscore.Hbond>
3.1944

> <Gold.Chemscore.Metal>
0.0000

> <Gold.Chemscore.Lipo>
58.4012

> <Gold.Chemscore.Internal_Hbond>
0.0000

> <Gold.Chemscore.DEClash>
0.0000

> <Gold.Chemscore.DEInternal>
2.0934

> <Gold.Chemscore.Rot>
1.9030

> <Gold.Chemscore.Internal.Correction>
   9.000000E+99

> <Gold.Chemscore.Hbonds>
donor molecule, donor type, donor heavy atom, donor atom, acceptor molecule, acceptor atom, score
      P1  H  6896  6908       L1     7  0.81
      P1  H  6896  6909       L1     4  0.61
      P1  H  6931  6943       L1    19  0.92
      P1  H  6934  6947       L1    19  0.48

> <Gold.Chemscore.Hbond.Weighted>
-10.6692

> <Gold.Chemscore.Metal.Weighted>
-0.0000

> <Gold.Chemscore.Lipo.Weighted>
-6.8329

> <Gold.Chemscore.Internal_Hbond.Weighted>
0.0000

> <Gold.Chemscore.DEClash.Weighted>
0.0000

> <Gold.Chemscore.DEInternal.Weighted>
2.0934

> <Gold.Chemscore.Rot.Weighted>
4.8718

> <Gold.Chemscore.Internal.Correction.Weighted>
   9.000000E+99

> <Gold.Protein.RotatedTorsions>
[ 6907 6896 6895 6894 ] final  160.82 input  -60.11 | X-H torsion
[ 7974 7965 7964 7962 ] final  -17.32 input  175.53 | X-H torsion
[ 8008 7997 7996 7995 ] final  134.00 input   59.86 | X-H torsion
[ 10167 10162 10161 10158 ] final  -21.03 input  -65.29 | X-H torsion
[ 10718 10713 10712 10709 ] final  176.87 input   66.30 | X-H torsion
[ 10763 10752 10751 10750 ] final   21.77 input  -60.55 | X-H torsion
[ 11005 11000 10999 10996 ] final -124.07 input  -57.11 | X-H torsion

> <Gold.Protein.ActiveResidues>
 VAL166  LYS551  ARG553  GLY616  TRP617  ASP618  TYR619  PRO620  LYS621  CYS622 
 ASP623  PHE694  ASN695  SER759  ASP760  ASP761  ALA762  ILE779  LEU786  VAL792 
 PHE793  MET794  SER795  GLU796  ALA797  LYS798  CYS799  TRP800  GLU811  SER814 

> <Gold.Protein.RotatedAtoms>
  151.9649  133.3707  159.4048 H   0  0  0  0  0  0  0  0  0  0  0  0  # atno 6907 bound_to 6896
  150.6958  134.4202  159.5210 H   0  0  0  0  0  0  0  0  0  0  0  0  # atno 6908 bound_to 6896
  152.1896  134.8683  160.0569 H   0  0  0  0  0  0  0  0  0  0  0  0  # atno 6909 bound_to 6896
  146.1946  140.3762  142.8445 H   0  0  0  0  0  0  0  0  0  0  0  0  # atno 7974 bound_to 7965
  156.2996  140.2507  156.3345 H   0  0  0  0  0  0  0  0  0  0  0  0  # atno 8008 bound_to 7997
  154.9113  140.0403  157.1967 H   0  0  0  0  0  0  0  0  0  0  0  0  # atno 8009 bound_to 7997
  154.8402  140.2889  155.5668 H   0  0  0  0  0  0  0  0  0  0  0  0  # atno 8010 bound_to 7997
  140.7280  143.4666  151.0305 H   0  0  0  0  0  0  0  0  0  0  0  0  # atno 10167 bound_to 10162
  156.9137  130.9918  151.3016 H   0  0  0  0  0  0  0  0  0  0  0  0  # atno 10718 bound_to 10713
  153.0969  135.6662  153.9747 H   0  0  0  0  0  0  0  0  0  0  0  0  # atno 10763 bound_to 10752
  153.9328  135.3002  155.3446 H   0  0  0  0  0  0  0  0  0  0  0  0  # atno 10764 bound_to 10752
  154.7388  135.5089  153.9161 H   0  0  0  0  0  0  0  0  0  0  0  0  # atno 10765 bound_to 10752
  140.9870  134.0593  157.3699 H   0  0  0  0  0  0  0  0  0  0  0  0  # atno 11005 bound_to 11000
  144.8555  140.7064  143.6141 LP  0  0  0  0  0  0  0  0  0  0  0  0  # atno 17320 bound_to 7965
  145.3683  139.1664  143.4345 LP  0  0  0  0  0  0  0  0  0  0  0  0  # atno 17321 bound_to 7965
  139.8355  143.7634  152.3180 LP  0  0  0  0  0  0  0  0  0  0  0  0  # atno 17342 bound_to 10162
  139.7764  144.7459  151.0150 LP  0  0  0  0  0  0  0  0  0  0  0  0  # atno 17343 bound_to 10162
  157.5951  130.8472  149.8717 LP  0  0  0  0  0  0  0  0  0  0  0  0  # atno 17370 bound_to 10713
  156.0524  130.3715  150.1171 LP  0  0  0  0  0  0  0  0  0  0  0  0  # atno 17371 bound_to 10713
  139.8975  135.0150  156.7103 LP  0  0  0  0  0  0  0  0  0  0  0  0  # atno 17394 bound_to 11000
  140.7099  133.9232  155.8078 LP  0  0  0  0  0  0  0  0  0  0  0  0  # atno 17395 bound_to 11000

$$$$
