AV-unprocessed.smi:354|AV-procd|sdf|2404|dock2
  -GOLD-   2262022333D 1   1.00000     0.00000
 Structure written by MMmdl.
 36 38  0  0  0  0  0  0  0  0  1 V2000
  153.8335  138.4325  158.0617 O   0  0  0  0  0  0  0  0  0  0  0  0
  152.5850  138.7559  158.6347 C   0  0  0  0  0  0  0  0  0  0  0  0
  152.3604  140.2337  158.7341 C   0  0  0  0  0  0  0  0  0  0  0  0
  153.0999  141.0069  159.5302 N   0  0  0  0  0  0  0  0  0  0  0  0
  152.5727  142.2641  159.3074 C   0  0  0  0  0  0  0  0  0  0  0  0
  152.9277  143.5184  159.8533 C   0  0  0  0  0  0  0  0  0  0  0  0
  152.2345  144.6855  159.4706 C   0  0  0  0  0  0  0  0  0  0  0  0
  151.1781  144.6153  158.5395 C   0  0  0  0  0  0  0  0  0  0  0  0
  150.8097  143.3757  157.9821 C   0  0  0  0  0  0  0  0  0  0  0  0
  151.5058  142.2139  158.3661 C   0  0  0  0  0  0  0  0  0  0  0  0
  151.4008  140.8708  158.0171 N   0  0  0  0  0  0  0  0  0  0  0  0
  150.4531  140.2979  157.0704 C   0  0  0  0  0  0  0  0  0  0  0  0
  150.6429  140.8257  155.6329 C   0  0  1  0  0  0  0  0  0  0  0  0
  151.7894  140.2462  155.0406 O   0  0  0  0  0  0  0  0  0  0  0  0
  149.3902  140.6164  154.7926 C   0  0  0  0  0  0  0  0  0  0  0  0
  148.6121  141.7322  154.4131 C   0  0  0  0  0  0  0  0  0  0  0  0
  147.4448  141.5593  153.6445 C   0  0  0  0  0  0  0  0  0  0  0  0
  147.0453  140.2684  153.2511 C   0  0  0  0  0  0  0  0  0  0  0  0
  147.8140  139.1508  153.6275 C   0  0  0  0  0  0  0  0  0  0  0  0
  148.9822  139.3206  154.3961 C   0  0  0  0  0  0  0  0  0  0  0  0
  149.7039  138.2308  154.7527 F   0  0  0  0  0  0  0  0  0  0  0  0
  154.3038  137.8756  158.6630 H   0  0  0  0  0  0  0  0  0  0  0  0
  151.7886  138.2969  158.0498 H   0  0  0  0  0  0  0  0  0  0  0  0
  152.5349  138.3159  159.6313 H   0  0  0  0  0  0  0  0  0  0  0  0
  153.7349  143.5822  160.5676 H   0  0  0  0  0  0  0  0  0  0  0  0
  152.5141  145.6390  159.8943 H   0  0  0  0  0  0  0  0  0  0  0  0
  150.6501  145.5133  158.2535 H   0  0  0  0  0  0  0  0  0  0  0  0
  149.9990  143.3171  157.2711 H   0  0  0  0  0  0  0  0  0  0  0  0
  150.5587  139.2129  157.0953 H   0  0  0  0  0  0  0  0  0  0  0  0
  149.4407  140.5057  157.4174 H   0  0  0  0  0  0  0  0  0  0  0  0
  150.8416  141.8966  155.6811 H   0  0  0  0  0  0  0  0  0  0  0  0
  151.9551  139.4145  155.4574 H   0  0  0  0  0  0  0  0  0  0  0  0
  148.9060  142.7279  154.7117 H   0  0  0  0  0  0  0  0  0  0  0  0
  146.8549  142.4177  153.3579 H   0  0  0  0  0  0  0  0  0  0  0  0
  146.1494  140.1348  152.6627 H   0  0  0  0  0  0  0  0  0  0  0  0
  147.5063  138.1598  153.3278 H   0  0  0  0  0  0  0  0  0  0  0  0
  1  2  1  0  0  0  0
  1 22  1  0  0  0  0
  2  3  1  0  0  0  0
  2 23  1  0  0  0  0
  2 24  1  0  0  0  0
  3 11  1  0  0  0  0
  3  4  2  0  0  0  0
  4  5  1  0  0  0  0
  5 10  2  0  0  0  0
  5  6  1  0  0  0  0
  6  7  2  0  0  0  0
  6 25  1  0  0  0  0
  7  8  1  0  0  0  0
  7 26  1  0  0  0  0
  8  9  2  0  0  0  0
  8 27  1  0  0  0  0
  9 10  1  0  0  0  0
  9 28  1  0  0  0  0
 10 11  1  0  0  0  0
 11 12  1  0  0  0  0
 12 13  1  0  0  0  0
 12 29  1  0  0  0  0
 12 30  1  0  0  0  0
 13 14  1  0  0  0  0
 13 15  1  0  0  0  0
 13 31  1  0  0  0  0
 14 32  1  0  0  0  0
 15 20  1  0  0  0  0
 15 16  2  0  0  0  0
 16 17  1  0  0  0  0
 16 33  1  0  0  0  0
 17 18  2  0  0  0  0
 17 34  1  0  0  0  0
 18 19  1  0  0  0  0
 18 35  1  0  0  0  0
 19 20  2  0  0  0  0
 19 36  1  0  0  0  0
 20 21  1  0  0  0  0
M  END
> <s_m_source_file>
AV-unprocessed.smi

> <i_m_source_file_index>
354

> <i_lp_mmshare_version>
43012

> <i_f3d_flags>
0

> <s_epik_input>
W2NIXTFbY0hdW2NIXVtjSF1jKGMxMiluKGMobjIpW0NIMl1bT0hdKVtDSDJdW0NASF0oW09IXSljM1tjSF1bY0hdW2NIXVtjSF1jM0Y=

> <s_epik_cmdline>
J2VwaWtfcHl0aG9uJywgJy1waCcsICc3LjAnLCAnLXRuJywgJzgnLCAnLW1hJywgJzIwMCcsICctbWV0YWxfYmluZGluZycsICctaW1hZScsICc8aW5maWxlLm1hZT4nLCAnLW9tYWUnLCAnPG91dGZpbGUubWFlPic=

> <r_epik_Ionization_Penalty>
0.0634722

> <r_epik_Ionization_Penalty_Charging>
0

> <r_epik_Ionization_Penalty_Neutral>
0.0634722

> <r_epik_State_Penalty>
0.0551572

> <r_epik_Charging_Adjusted_Penalty>
0.0551572

> <i_epik_Tot_Q>
0

> <i_epik_Tot_abs_Q>
0

> <r_epik_Metal_State_Penalty>
5.78034e-05

> <b_epik_Metal_Only>
0

> <s_lp_Force_Field>
OPLS_2005

> <r_lp_Energy>
13.0063

> <b_lp_Chiralities_Consistent>
1

> <s_lp_Variant>
AV-unprocessed.smi:354-2

> <Gold.Version>
5.8.1

> <Gold.Id.Protein>
6NUR|6NUR_protein|mol2

> <Gold.PLP.Fitness>
52.3998

> <Gold.PLP.PLP>
-47.5624

> <Gold.PLP.part.hbond>
-1.9152

> <Gold.PLP.part.metal>
0.0000

> <Gold.PLP.part.buried>
-3.2050

> <Gold.PLP.part.nonpolar>
-41.2750

> <Gold.PLP.part.repulsive>
0.0000

> <Gold.PLP.ligand.clash>
0.0000

> <Gold.PLP.ligand.torsion>
0.3142

> <Gold.PLP.Chemscore.Hbond>
1.8056

> <Gold.PLP.Chemscore.CHOScore>
0.0000

> <Gold.PLP.Chemscore.Metal>
0.0000

> <Gold.Chemscore.Hbonds>
donor molecule, donor type, donor heavy atom, donor atom, acceptor molecule, acceptor atom, score
      P1  H  7989  7998       L1    14  0.86
      P1  H  7997  8008       L1     1  0.99

> <Gold.PLP.Chemscore.Internal.Correction>
0.0489

> <Gold.Rescore>
     Score         DG    S(hbond)    S(metal)    S(lipo)     H(rot)  DE(clash)    DE(int)     intcor
     16.15     -17.51       1.52        0.00     119.55       2.75       0.05       1.31       ----

> <Gold.Chemscore.Fitness>
16.1460

> <Gold.Chemscore.DG>
-17.5117

> <Gold.Chemscore.ZeroCoef>
-5.4800

> <Gold.Chemscore.Hbond>
1.5223

> <Gold.Chemscore.Metal>
0.0000

> <Gold.Chemscore.Lipo>
119.5491

> <Gold.Chemscore.Internal_Hbond>
0.0000

> <Gold.Chemscore.DEClash>
0.0519

> <Gold.Chemscore.DEInternal>
1.3137

> <Gold.Chemscore.Rot>
2.7500

> <Gold.Chemscore.Internal.Correction>
   9.000000E+99

> <Gold.Chemscore.Hbonds>
donor molecule, donor type, donor heavy atom, donor atom, acceptor molecule, acceptor atom, score
      P1  H  7989  7998       L1    14  0.22
      P1  H  7997  8008       L1     1  0.80

> <Gold.Chemscore.Hbond.Weighted>
-5.0844

> <Gold.Chemscore.Metal.Weighted>
-0.0000

> <Gold.Chemscore.Lipo.Weighted>
-13.9872

> <Gold.Chemscore.Internal_Hbond.Weighted>
0.0000

> <Gold.Chemscore.DEClash.Weighted>
0.0519

> <Gold.Chemscore.DEInternal.Weighted>
1.3137

> <Gold.Chemscore.Rot.Weighted>
7.0399

> <Gold.Chemscore.Internal.Correction.Weighted>
   9.000000E+99

> <Gold.Protein.RotatedTorsions>
[ 6907 6896 6895 6894 ] final   49.42 input  -60.11 | X-H torsion
[ 7974 7965 7964 7962 ] final   78.47 input  175.53 | X-H torsion
[ 8008 7997 7996 7995 ] final -100.89 input   59.86 | X-H torsion
[ 10167 10162 10161 10158 ] final   45.56 input  -65.29 | X-H torsion
[ 10718 10713 10712 10709 ] final   55.60 input   66.30 | X-H torsion
[ 10763 10752 10751 10750 ] final   83.32 input  -60.55 | X-H torsion
[ 11005 11000 10999 10996 ] final -134.61 input  -57.11 | X-H torsion

> <Gold.Protein.ActiveResidues>
 VAL166  LYS551  ARG553  GLY616  TRP617  ASP618  TYR619  PRO620  LYS621  CYS622 
 ASP623  PHE694  ASN695  SER759  ASP760  ASP761  ALA762  ILE779  LEU786  VAL792 
 PHE793  MET794  SER795  GLU796  ALA797  LYS798  CYS799  TRP800  GLU811  SER814 

> <Gold.Protein.RotatedAtoms>
  152.2906  134.7726  160.0378 H   0  0  0  0  0  0  0  0  0  0  0  0  # atno 6907 bound_to 6896
  151.8273  133.3398  159.3611 H   0  0  0  0  0  0  0  0  0  0  0  0  # atno 6908 bound_to 6896
  150.7228  134.5445  159.5808 H   0  0  0  0  0  0  0  0  0  0  0  0  # atno 6909 bound_to 6896
  145.6768  139.2512  143.1837 H   0  0  0  0  0  0  0  0  0  0  0  0  # atno 7974 bound_to 7965
  154.8349  140.0438  157.1502 H   0  0  0  0  0  0  0  0  0  0  0  0  # atno 8008 bound_to 7997
  154.9111  140.3013  155.5245 H   0  0  0  0  0  0  0  0  0  0  0  0  # atno 8009 bound_to 7997
  156.2989  140.2358  156.4150 H   0  0  0  0  0  0  0  0  0  0  0  0  # atno 8010 bound_to 7997
  140.3228  144.2684  150.6180 H   0  0  0  0  0  0  0  0  0  0  0  0  # atno 10167 bound_to 10162
  157.5359  130.8663  149.8752 H   0  0  0  0  0  0  0  0  0  0  0  0  # atno 10718 bound_to 10713
  153.1280  135.4695  154.9304 H   0  0  0  0  0  0  0  0  0  0  0  0  # atno 10763 bound_to 10752
  154.7638  135.3139  154.8328 H   0  0  0  0  0  0  0  0  0  0  0  0  # atno 10764 bound_to 10752
  153.8877  135.6888  153.4816 H   0  0  0  0  0  0  0  0  0  0  0  0  # atno 10765 bound_to 10752
  140.8975  134.1733  157.4484 H   0  0  0  0  0  0  0  0  0  0  0  0  # atno 11005 bound_to 11000
  146.0999  140.7556  142.9554 LP  0  0  0  0  0  0  0  0  0  0  0  0  # atno 17320 bound_to 7965
  144.7039  140.3770  143.7134 LP  0  0  0  0  0  0  0  0  0  0  0  0  # atno 17321 bound_to 7965
  140.5468  143.2213  151.7994 LP  0  0  0  0  0  0  0  0  0  0  0  0  # atno 17342 bound_to 10162
  139.4871  144.4529  151.9632 LP  0  0  0  0  0  0  0  0  0  0  0  0  # atno 17343 bound_to 10162
  156.0458  130.3728  150.1322 LP  0  0  0  0  0  0  0  0  0  0  0  0  # atno 17370 bound_to 10713
  156.9504  130.9773  151.3499 LP  0  0  0  0  0  0  0  0  0  0  0  0  # atno 17371 bound_to 10713
  139.8737  134.9884  156.5411 LP  0  0  0  0  0  0  0  0  0  0  0  0  # atno 17394 bound_to 11000
  140.8271  133.8308  155.8950 LP  0  0  0  0  0  0  0  0  0  0  0  0  # atno 17395 bound_to 11000

$$$$
