AV-unprocessed.smi:196|AV-procd|sdf|1531|dock8
  -GOLD-   2262019383D 1   1.00000     0.00000
 Structure written by MMmdl.
 47 50  0  0  0  0  0  0  0  0  1 V2000
  148.9101  139.1402  154.8024 C   0  0  0  0  0  0  0  0  0  0  0  0
  150.3398  138.7121  154.4351 C   0  0  1  0  0  0  0  0  0  0  0  0
  151.2225  139.7390  154.8819 O   0  0  0  0  0  0  0  0  0  0  0  0
  152.4581  139.1576  155.2589 C   0  0  0  0  0  0  0  0  0  0  0  0
  152.0209  137.8744  155.9482 C   0  0  0  0  0  0  0  0  0  0  0  0
  150.8630  137.3960  155.0772 C   0  0  2  0  0  0  0  0  0  0  0  0
  151.4033  136.5977  154.0369 O   0  0  0  0  0  0  0  0  0  0  0  0
  149.8209  136.5385  155.8426 C   0  0  0  0  0  0  0  0  0  0  0  0
  150.1684  135.1266  155.9062 N   0  0  0  0  0  0  0  0  0  0  0  0
  151.2958  134.5818  156.4769 C   0  0  0  0  0  0  0  0  0  0  0  0
  151.3791  133.2813  156.4116 N   0  0  0  0  0  0  0  0  0  0  0  0
  150.2294  132.8977  155.7298 C   0  0  0  0  0  0  0  0  0  0  0  0
  149.6874  131.6448  155.3186 C   0  0  0  0  0  0  0  0  0  0  0  0
  150.2987  130.4513  155.5528 N   0  0  0  0  0  0  0  0  0  0  0  0
  151.5718  130.4439  156.2663 C   0  0  0  0  0  0  0  0  0  0  0  0
  152.4087  129.3453  155.6123 C   0  0  2  0  0  0  0  0  0  0  0  0
  153.1224  129.8665  154.6131 F   0  0  0  0  0  0  0  0  0  0  0  0
  151.3583  128.3956  155.0478 C   0  0  0  0  0  0  0  0  0  0  0  0
  150.2151  129.3263  154.6102 C   0  0  1  0  0  0  0  0  0  0  0  0
  148.8676  128.5774  154.6077 C   0  0  0  0  0  0  0  0  0  0  0  0
  148.7157  127.5243  153.7977 N   0  0  0  0  0  0  0  0  0  0  0  0
  147.9615  128.9546  155.3474 O   0  0  0  0  0  0  0  0  0  0  0  0
  148.4898  131.6691  154.6755 N   0  0  0  0  0  0  0  0  0  0  0  0
  147.8709  132.8279  154.4337 C   0  0  0  0  0  0  0  0  0  0  0  0
  148.2620  134.0631  154.7494 N   0  0  0  0  0  0  0  0  0  0  0  0
  149.4560  134.0498  155.4076 C   0  0  0  0  0  0  0  0  0  0  0  0
  153.1057  128.8652  156.2995 H   0  0  0  0  0  0  0  0  0  0  0  0
  150.4249  129.6836  153.6004 H   0  0  0  0  0  0  0  0  0  0  0  0
  148.1767  138.4024  154.4768 H   0  0  0  0  0  0  0  0  0  0  0  0
  148.6569  140.0845  154.3201 H   0  0  0  0  0  0  0  0  0  0  0  0
  148.7986  139.2838  155.8774 H   0  0  0  0  0  0  0  0  0  0  0  0
  150.4133  138.6614  153.3470 H   0  0  0  0  0  0  0  0  0  0  0  0
  153.0547  138.9457  154.3703 H   0  0  0  0  0  0  0  0  0  0  0  0
  153.0301  139.8159  155.9128 H   0  0  0  0  0  0  0  0  0  0  0  0
  152.8257  137.1458  156.0552 H   0  0  0  0  0  0  0  0  0  0  0  0
  151.6616  138.1217  156.9476 H   0  0  0  0  0  0  0  0  0  0  0  0
  150.7504  136.5078  153.3596 H   0  0  0  0  0  0  0  0  0  0  0  0
  149.7067  136.8971  156.8658 H   0  0  0  0  0  0  0  0  0  0  0  0
  148.8397  136.6245  155.3739 H   0  0  0  0  0  0  0  0  0  0  0  0
  152.0556  135.1839  156.9539 H   0  0  0  0  0  0  0  0  0  0  0  0
  152.0910  131.4032  156.2321 H   0  0  0  0  0  0  0  0  0  0  0  0
  151.3774  130.2023  157.3118 H   0  0  0  0  0  0  0  0  0  0  0  0
  151.7414  127.7852  154.2292 H   0  0  0  0  0  0  0  0  0  0  0  0
  151.0272  127.7194  155.8383 H   0  0  0  0  0  0  0  0  0  0  0  0
  147.8383  127.0250  153.7821 H   0  0  0  0  0  0  0  0  0  0  0  0
  149.4785  127.2351  153.2030 H   0  0  0  0  0  0  0  0  0  0  0  0
  146.9275  132.7542  153.9134 H   0  0  0  0  0  0  0  0  0  0  0  0
  1  2  1  0  0  0  0
  1 29  1  0  0  0  0
  1 30  1  0  0  0  0
  1 31  1  0  0  0  0
  2  6  1  0  0  0  0
  2  3  1  0  0  0  0
  2 32  1  0  0  0  0
  3  4  1  0  0  0  0
  4  5  1  0  0  0  0
  4 33  1  0  0  0  0
  4 34  1  0  0  0  0
  5  6  1  0  0  0  0
  5 35  1  0  0  0  0
  5 36  1  0  0  0  0
  6  7  1  0  0  0  0
  6  8  1  0  0  0  0
  7 37  1  0  0  0  0
  8  9  1  0  0  0  0
  8 38  1  0  0  0  0
  8 39  1  0  0  0  0
  9 26  1  0  0  0  0
  9 10  1  0  0  0  0
 10 11  2  0  0  0  0
 10 40  1  0  0  0  0
 11 12  1  0  0  0  0
 12 26  2  0  0  0  0
 12 13  1  0  0  0  0
 13 14  1  0  0  0  0
 13 23  2  0  0  0  0
 14 19  1  0  0  0  0
 14 15  1  0  0  0  0
 15 16  1  0  0  0  0
 15 41  1  0  0  0  0
 15 42  1  0  0  0  0
 16 27  1  0  0  0  0
 16 17  1  0  0  0  0
 16 18  1  0  0  0  0
 18 19  1  0  0  0  0
 18 43  1  0  0  0  0
 18 44  1  0  0  0  0
 19 28  1  0  0  0  0
 19 20  1  0  0  0  0
 20 21  1  0  0  0  0
 20 22  2  0  0  0  0
 21 45  1  0  0  0  0
 21 46  1  0  0  0  0
 23 24  1  0  0  0  0
 24 25  2  0  0  0  0
 24 47  1  0  0  0  0
 25 26  1  0  0  0  0
M  END
> <s_m_source_file>
AV-unprocessed.smi

> <i_m_source_file_index>
196

> <i_lp_mmshare_version>
43012

> <i_f3d_flags>
0

> <s_epik_input>
W0NIMl0xW0NIMl1PW0NAQEhdKFtDSDNdKVtDQEBdMShbT0hdKVtDSDJdbihbY0hdbjIpYyhjMjMpbltjSF1uYzNONFtDSDJdW0NASF0oRilbQ0gyXVtDQEhdNEMoPU8pW05IMl0=

> <s_epik_cmdline>
J2VwaWtfcHl0aG9uJywgJy1waCcsICc3LjAnLCAnLXRuJywgJzgnLCAnLW1hJywgJzIwMCcsICctbWV0YWxfYmluZGluZycsICctaW1hZScsICc8aW5maWxlLm1hZT4nLCAnLW9tYWUnLCAnPG91dGZpbGUubWFlPic=

> <r_lp_tautomer_probability>
1

> <r_epik_Ionization_Penalty>
0.000857933

> <r_epik_Ionization_Penalty_Charging>
0

> <r_epik_Ionization_Penalty_Neutral>
0.000857933

> <r_epik_State_Penalty>
0.000462053

> <r_epik_Charging_Adjusted_Penalty>
0.000462053

> <i_epik_Tot_Q>
0

> <i_epik_Tot_abs_Q>
0

> <r_epik_Metal_State_Penalty>
-0

> <b_epik_Metal_Only>
0

> <s_lp_Force_Field>
OPLS_2005

> <r_lp_Energy>
43.6884

> <b_lp_Chiralities_Consistent>
1

> <s_lp_Variant>
AV-unprocessed.smi:196-4

> <Gold.Version>
5.8.1

> <Gold.Id.Protein>
6NUR|6NUR_protein|mol2

> <Gold.PLP.Fitness>
55.3414

> <Gold.PLP.PLP>
-44.4596

> <Gold.PLP.part.hbond>
-4.0000

> <Gold.PLP.part.metal>
0.0000

> <Gold.PLP.part.buried>
-6.2292

> <Gold.PLP.part.nonpolar>
-35.4131

> <Gold.PLP.part.repulsive>
1.1287

> <Gold.PLP.ligand.clash>
0.0000

> <Gold.PLP.ligand.torsion>
0.6821

> <Gold.PLP.Chemscore.Hbond>
3.9920

> <Gold.PLP.Chemscore.CHOScore>
0.0000

> <Gold.PLP.Chemscore.Metal>
0.0000

> <Gold.Chemscore.Hbonds>
donor molecule, donor type, donor heavy atom, donor atom, acceptor molecule, acceptor atom, score
      L1  H     7    37       P1  7949  0.31
      P1  H  7989  7998       L1     3  1.00
      P1  H 10752 10763       L1     7  1.00

> <Gold.PLP.Chemscore.Internal.Correction>
0.2699

> <Gold.Rescore>
     Score         DG    S(hbond)    S(metal)    S(lipo)     H(rot)  DE(clash)    DE(int)     intcor
     12.25     -15.53       2.70        0.00      65.54       2.60       0.01       3.27       ----

> <Gold.Chemscore.Fitness>
12.2465

> <Gold.Chemscore.DG>
-15.5254

> <Gold.Chemscore.ZeroCoef>
-5.4800

> <Gold.Chemscore.Hbond>
2.7020

> <Gold.Chemscore.Metal>
0.0000

> <Gold.Chemscore.Lipo>
65.5432

> <Gold.Chemscore.Internal_Hbond>
0.0000

> <Gold.Chemscore.DEClash>
0.0074

> <Gold.Chemscore.DEInternal>
3.2716

> <Gold.Chemscore.Rot>
2.5968

> <Gold.Chemscore.Internal.Correction>
   9.000000E+99

> <Gold.Chemscore.Hbonds>
donor molecule, donor type, donor heavy atom, donor atom, acceptor molecule, acceptor atom, score
      L1  H     7    37       P1  7949  0.03
      P1  H  7989  7998       L1     3  0.33
      P1  H 10752 10763       L1     7  0.99

> <Gold.Chemscore.Hbond.Weighted>
-9.0246

> <Gold.Chemscore.Metal.Weighted>
-0.0000

> <Gold.Chemscore.Lipo.Weighted>
-7.6686

> <Gold.Chemscore.Internal_Hbond.Weighted>
0.0000

> <Gold.Chemscore.DEClash.Weighted>
0.0074

> <Gold.Chemscore.DEInternal.Weighted>
3.2716

> <Gold.Chemscore.Rot.Weighted>
6.6477

> <Gold.Chemscore.Internal.Correction.Weighted>
   9.000000E+99

> <Gold.Protein.RotatedTorsions>
[ 6907 6896 6895 6894 ] final -144.16 input  -60.11 | X-H torsion
[ 7974 7965 7964 7962 ] final  130.84 input  175.53 | X-H torsion
[ 8008 7997 7996 7995 ] final  -44.29 input   59.86 | X-H torsion
[ 10167 10162 10161 10158 ] final   36.77 input  -65.29 | X-H torsion
[ 10718 10713 10712 10709 ] final   80.73 input   66.30 | X-H torsion
[ 10763 10752 10751 10750 ] final   34.71 input  -60.55 | X-H torsion
[ 11005 11000 10999 10996 ] final -117.39 input  -57.11 | X-H torsion

> <Gold.Protein.ActiveResidues>
 VAL166  LYS551  ARG553  GLY616  TRP617  ASP618  TYR619  PRO620  LYS621  CYS622 
 ASP623  PHE694  ASN695  SER759  ASP760  ASP761  ALA762  ILE779  LEU786  VAL792 
 PHE793  MET794  SER795  GLU796  ALA797  LYS798  CYS799  TRP800  GLU811  SER814 

> <Gold.Protein.RotatedAtoms>
  151.1103  133.5178  159.2605 H   0  0  0  0  0  0  0  0  0  0  0  0  # atno 6907 bound_to 6896
  151.1974  135.0428  159.8868 H   0  0  0  0  0  0  0  0  0  0  0  0  # atno 6908 bound_to 6896
  152.5449  134.0936  159.8341 H   0  0  0  0  0  0  0  0  0  0  0  0  # atno 6909 bound_to 6896
  145.0136  139.4197  143.5232 H   0  0  0  0  0  0  0  0  0  0  0  0  # atno 7974 bound_to 7965
  154.3997  140.1426  156.3659 H   0  0  0  0  0  0  0  0  0  0  0  0  # atno 8008 bound_to 7997
  155.8138  140.3472  155.5452 H   0  0  0  0  0  0  0  0  0  0  0  0  # atno 8009 bound_to 7997
  155.8359  140.0919  157.1754 H   0  0  0  0  0  0  0  0  0  0  0  0  # atno 8010 bound_to 7997
  140.4096  144.1611  150.6138 H   0  0  0  0  0  0  0  0  0  0  0  0  # atno 10167 bound_to 10162
  157.6814  130.9972  150.2122 H   0  0  0  0  0  0  0  0  0  0  0  0  # atno 10718 bound_to 10713
  153.0152  135.6353  154.1712 H   0  0  0  0  0  0  0  0  0  0  0  0  # atno 10763 bound_to 10752
  154.1451  135.2832  155.3152 H   0  0  0  0  0  0  0  0  0  0  0  0  # atno 10764 bound_to 10752
  154.6095  135.5561  153.7519 H   0  0  0  0  0  0  0  0  0  0  0  0  # atno 10765 bound_to 10752
  141.0358  133.9912  157.3073 H   0  0  0  0  0  0  0  0  0  0  0  0  # atno 11005 bound_to 11000
  146.3474  139.9594  142.8719 LP  0  0  0  0  0  0  0  0  0  0  0  0  # atno 17320 bound_to 7965
  145.1990  140.9846  143.4167 LP  0  0  0  0  0  0  0  0  0  0  0  0  # atno 17321 bound_to 7965
  140.4652  143.2433  151.9165 LP  0  0  0  0  0  0  0  0  0  0  0  0  # atno 17342 bound_to 10162
  139.4783  144.5427  151.8504 LP  0  0  0  0  0  0  0  0  0  0  0  0  # atno 17343 bound_to 10162
  156.2790  130.3731  149.7954 LP  0  0  0  0  0  0  0  0  0  0  0  0  # atno 17370 bound_to 10713
  156.5648  130.8399  151.3339 LP  0  0  0  0  0  0  0  0  0  0  0  0  # atno 17371 bound_to 10713
  139.9240  135.0201  156.8166 LP  0  0  0  0  0  0  0  0  0  0  0  0  # atno 17394 bound_to 11000
  140.6325  133.9893  155.7668 LP  0  0  0  0  0  0  0  0  0  0  0  0  # atno 17395 bound_to 11000

$$$$
