AV-unprocessed.smi:3101|AV-procd|sdf|11811|dock2
  -GOLD-   2272017183D 1   1.00000     0.00000
 Structure written by MMmdl.
 28 29  0  0  0  0  0  0  0  0  1 V2000
  151.6976  144.2033  157.0554 C   0  0  0  0  0  0  0  0  0  0  0  0
  152.2432  143.4765  158.2949 C   0  0  1  0  0  0  0  0  0  0  0  0
  152.3256  144.3561  159.5260 C   0  0  0  0  0  0  0  0  0  0  0  0
  152.4185  143.3273  160.6474 C   0  0  0  0  0  0  0  0  0  0  0  0
  151.6962  142.1871  160.1920 O   0  0  0  0  0  0  0  0  0  0  0  0
  151.3607  142.3281  158.8108 C   0  0  2  0  0  0  0  0  0  0  0  0
  151.5394  140.9827  158.0902 C   0  0  0  0  0  0  0  0  0  0  0  0
  152.0190  140.0198  158.6894 O   0  0  0  0  0  0  0  0  0  0  0  0
  151.1575  140.9574  156.7994 N   0  0  0  0  0  0  0  0  0  0  0  0
  151.2013  139.8679  155.8907 C   0  0  0  0  0  0  0  0  0  0  0  0
  152.1850  138.8860  156.1559 C   0  0  0  0  0  0  0  0  0  0  0  0
  152.3503  137.7911  155.3810 N   0  0  0  0  0  0  0  0  0  0  0  0
  151.5215  137.6700  154.3221 C   0  0  0  0  0  0  0  0  0  0  0  0
  150.5357  138.6374  154.0428 C   0  0  0  0  0  0  0  0  0  0  0  0
  150.3759  139.7294  154.8216 N   0  0  0  0  0  0  0  0  0  0  0  0
  150.6960  144.5956  157.2332 H   0  0  0  0  0  0  0  0  0  0  0  0
  151.6450  143.5371  156.1944 H   0  0  0  0  0  0  0  0  0  0  0  0
  152.3394  145.0413  156.7835 H   0  0  0  0  0  0  0  0  0  0  0  0
  153.2437  143.0992  158.0745 H   0  0  0  0  0  0  0  0  0  0  0  0
  153.1733  145.0417  159.5080 H   0  0  0  0  0  0  0  0  0  0  0  0
  151.4133  144.9444  159.6360 H   0  0  0  0  0  0  0  0  0  0  0  0
  153.4564  143.0349  160.8102 H   0  0  0  0  0  0  0  0  0  0  0  0
  152.0202  143.7020  161.5905 H   0  0  0  0  0  0  0  0  0  0  0  0
  150.3102  142.6175  158.7567 H   0  0  0  0  0  0  0  0  0  0  0  0
  150.7805  141.8190  156.4317 H   0  0  0  0  0  0  0  0  0  0  0  0
  152.8508  138.9786  157.0017 H   0  0  0  0  0  0  0  0  0  0  0  0
  151.6445  136.7990  153.6956 H   0  0  0  0  0  0  0  0  0  0  0  0
  149.8752  138.5353  153.1946 H   0  0  0  0  0  0  0  0  0  0  0  0
  1  2  1  0  0  0  0
  1 16  1  0  0  0  0
  1 17  1  0  0  0  0
  1 18  1  0  0  0  0
  2  6  1  0  0  0  0
  2  3  1  0  0  0  0
  2 19  1  0  0  0  0
  3  4  1  0  0  0  0
  3 20  1  0  0  0  0
  3 21  1  0  0  0  0
  4  5  1  0  0  0  0
  4 22  1  0  0  0  0
  4 23  1  0  0  0  0
  5  6  1  0  0  0  0
  6  7  1  0  0  0  0
  6 24  1  0  0  0  0
  7  8  2  0  0  0  0
  7  9  1  0  0  0  0
  9 10  1  0  0  0  0
  9 25  1  0  0  0  0
 10 15  1  0  0  0  0
 10 11  2  0  0  0  0
 11 12  1  0  0  0  0
 11 26  1  0  0  0  0
 12 13  2  0  0  0  0
 13 14  1  0  0  0  0
 13 27  1  0  0  0  0
 14 15  2  0  0  0  0
 14 28  1  0  0  0  0
M  END
> <s_m_source_file>
AV-unprocessed.smi

> <i_m_source_file_index>
3101

> <i_lp_mmshare_version>
43012

> <i_f3d_flags>
0

> <s_epik_input>
W0NIM11bQ0BASF0xW0NIMl1bQ0gyXU9bQ0BIXTFDKD1PKVtOSF1jMltjSF1uW2NIXVtjSF1uMg==

> <s_epik_cmdline>
J2VwaWtfcHl0aG9uJywgJy1waCcsICc3LjAnLCAnLXRuJywgJzgnLCAnLW1hJywgJzIwMCcsICctbWV0YWxfYmluZGluZycsICctaW1hZScsICc8aW5maWxlLm1hZT4nLCAnLW9tYWUnLCAnPG91dGZpbGUubWFlPic=

> <r_lp_tautomer_probability>
1

> <r_epik_Ionization_Penalty>
2.83174e-06

> <r_epik_Ionization_Penalty_Charging>
0

> <r_epik_Ionization_Penalty_Neutral>
2.83174e-06

> <r_epik_State_Penalty>
-0

> <r_epik_Charging_Adjusted_Penalty>
0

> <i_epik_Tot_Q>
0

> <i_epik_Tot_abs_Q>
0

> <r_epik_Metal_State_Penalty>
-0

> <b_epik_Metal_Only>
0

> <s_lp_Force_Field>
OPLS_2005

> <r_lp_Energy>
26.5221

> <b_lp_Chiralities_Consistent>
1

> <s_lp_Variant>
AV-unprocessed.smi:3101-4

> <Gold.Version>
5.8.1

> <Gold.Id.Protein>
6NUR|6NUR_protein|mol2

> <Gold.PLP.Fitness>
39.3167

> <Gold.PLP.PLP>
-31.3796

> <Gold.PLP.part.hbond>
-2.6824

> <Gold.PLP.part.metal>
0.0000

> <Gold.PLP.part.buried>
-5.0646

> <Gold.PLP.part.nonpolar>
-25.3943

> <Gold.PLP.part.repulsive>
0.2157

> <Gold.PLP.ligand.clash>
0.0000

> <Gold.PLP.ligand.torsion>
0.2181

> <Gold.PLP.Chemscore.Hbond>
0.5065

> <Gold.PLP.Chemscore.CHOScore>
2.2839

> <Gold.PLP.Chemscore.Metal>
0.0000

> <Gold.Chemscore.Hbonds>
donor molecule, donor type, donor heavy atom, donor atom, acceptor molecule, acceptor atom, score
      P1  H  7989  7998       L1    15  0.26
      P1  H 10752 10765       L1    12  0.02
      L1  C    13    27       P1  7949  1.00
      L1  C    14    28       P1  7948  0.40
      L1  C    14    28       P1  7957  1.00

> <Gold.PLP.Chemscore.Internal.Correction>
0.0022

> <Gold.Rescore>
     Score         DG    S(hbond)    S(metal)    S(lipo)     H(rot)  DE(clash)    DE(int)     intcor
     11.83     -13.49       0.34        0.00      80.81       1.00       0.08       1.59       ----

> <Gold.Chemscore.Fitness>
11.8306

> <Gold.Chemscore.DG>
-13.4935

> <Gold.Chemscore.ZeroCoef>
-5.4800

> <Gold.Chemscore.Hbond>
0.3351

> <Gold.Chemscore.Metal>
0.0000

> <Gold.Chemscore.Lipo>
80.8060

> <Gold.Chemscore.Internal_Hbond>
0.0000

> <Gold.Chemscore.DEClash>
0.0766

> <Gold.Chemscore.DEInternal>
1.5863

> <Gold.Chemscore.Rot>
1.0000

> <Gold.Chemscore.Internal.Correction>
   9.000000E+99

> <Gold.Chemscore.Hbond.Weighted>
-1.1192

> <Gold.Chemscore.Metal.Weighted>
-0.0000

> <Gold.Chemscore.Lipo.Weighted>
-9.4543

> <Gold.Chemscore.Internal_Hbond.Weighted>
0.0000

> <Gold.Chemscore.DEClash.Weighted>
0.0766

> <Gold.Chemscore.DEInternal.Weighted>
1.5863

> <Gold.Chemscore.Rot.Weighted>
2.5600

> <Gold.Chemscore.Internal.Correction.Weighted>
   9.000000E+99

> <Gold.Protein.RotatedTorsions>
[ 6907 6896 6895 6894 ] final  148.61 input  -60.11 | X-H torsion
[ 7974 7965 7964 7962 ] final  119.85 input  175.53 | X-H torsion
[ 8008 7997 7996 7995 ] final  109.73 input   59.86 | X-H torsion
[ 10167 10162 10161 10158 ] final  -60.03 input  -65.29 | X-H torsion
[ 10718 10713 10712 10709 ] final  126.03 input   66.30 | X-H torsion
[ 10763 10752 10751 10750 ] final -164.37 input  -60.55 | X-H torsion
[ 11005 11000 10999 10996 ] final -153.74 input  -57.11 | X-H torsion

> <Gold.Protein.ActiveResidues>
 VAL166  LYS551  ARG553  GLY616  TRP617  ASP618  TYR619  PRO620  LYS621  CYS622 
 ASP623  PHE694  ASN695  SER759  ASP760  ASP761  ALA762  ILE779  LEU786  VAL792 
 PHE793  MET794  SER795  GLU796  ALA797  LYS798  CYS799  TRP800  GLU811  SER814 

> <Gold.Protein.RotatedAtoms>
  152.1392  133.4454  159.4758 H   0  0  0  0  0  0  0  0  0  0  0  0  # atno 6907 bound_to 6896
  150.6884  134.2326  159.4449 H   0  0  0  0  0  0  0  0  0  0  0  0  # atno 6908 bound_to 6896
  152.0215  134.9819  160.0621 H   0  0  0  0  0  0  0  0  0  0  0  0  # atno 6909 bound_to 6896
  145.1381  139.3285  143.4630 H   0  0  0  0  0  0  0  0  0  0  0  0  # atno 7974 bound_to 7965
  156.2001  140.3052  155.9509 H   0  0  0  0  0  0  0  0  0  0  0  0  # atno 8008 bound_to 7997
  155.2974  140.0445  157.3044 H   0  0  0  0  0  0  0  0  0  0  0  0  # atno 8009 bound_to 7997
  154.5560  140.2306  155.8419 H   0  0  0  0  0  0  0  0  0  0  0  0  # atno 8010 bound_to 7997
  140.6097  143.2383  151.5738 H   0  0  0  0  0  0  0  0  0  0  0  0  # atno 10167 bound_to 10162
  157.5453  131.1096  150.8791 H   0  0  0  0  0  0  0  0  0  0  0  0  # atno 10718 bound_to 10713
  154.7035  135.2992  154.9305 H   0  0  0  0  0  0  0  0  0  0  0  0  # atno 10763 bound_to 10752
  154.0230  135.6680  153.4778 H   0  0  0  0  0  0  0  0  0  0  0  0  # atno 10764 bound_to 10752
  153.0699  135.5067  154.8192 H   0  0  0  0  0  0  0  0  0  0  0  0  # atno 10765 bound_to 10752
  140.7049  134.3896  157.5205 H   0  0  0  0  0  0  0  0  0  0  0  0  # atno 11005 bound_to 11000
  146.3508  140.1408  142.8594 LP  0  0  0  0  0  0  0  0  0  0  0  0  # atno 17320 bound_to 7965
  145.0562  140.9054  143.4966 LP  0  0  0  0  0  0  0  0  0  0  0  0  # atno 17321 bound_to 7965
  139.5352  144.2802  152.1235 LP  0  0  0  0  0  0  0  0  0  0  0  0  # atno 17342 bound_to 10162
  140.1999  144.4668  150.6437 LP  0  0  0  0  0  0  0  0  0  0  0  0  # atno 17343 bound_to 10162
  156.9332  130.5357  149.5279 LP  0  0  0  0  0  0  0  0  0  0  0  0  # atno 17370 bound_to 10713
  156.0531  130.5597  150.9032 LP  0  0  0  0  0  0  0  0  0  0  0  0  # atno 17371 bound_to 10713
  139.8887  134.8850  156.2461 LP  0  0  0  0  0  0  0  0  0  0  0  0  # atno 17394 bound_to 11000
  141.0133  133.7083  156.1147 LP  0  0  0  0  0  0  0  0  0  0  0  0  # atno 17395 bound_to 11000

$$$$
