AV-unprocessed.smi:342|AV-procd|sdf|2387|dock6
  -GOLD-   2262022313D 1   1.00000     0.00000
 Structure written by MMmdl.
 42 44  0  0  0  0  0  0  0  0  2 V2000
  149.8190  140.8487  153.5394 O   0  0  0  0  0  0  0  0  0  0  0  0
  149.1518  141.2971  154.7030 C   0  0  1  0  0  0  0  0  0  0  0  0
  147.6657  141.5188  154.3595 C   0  0  0  0  0  0  0  0  0  0  0  0
  146.9814  142.4115  155.3296 N   0  3  0  0  0  0  0  0  0  0  0  0
  145.6319  142.8200  154.8714 C   0  0  0  0  0  0  0  0  0  0  0  0
  144.9929  143.7912  155.8783 C   0  0  0  0  0  0  0  0  0  0  0  0
  144.9372  143.1785  157.1604 O   0  0  0  0  0  0  0  0  0  0  0  0
  146.2322  142.8584  157.6538 C   0  0  0  0  0  0  0  0  0  0  0  0
  146.9150  141.8584  156.7054 C   0  0  0  0  0  0  0  0  0  0  0  0
  149.3235  140.2622  155.8347 C   0  0  0  0  0  0  0  0  0  0  0  0
  150.5452  140.4569  156.6057 N   0  0  0  0  0  0  0  0  0  0  0  0
  151.6848  139.7160  156.5813 C   0  0  0  0  0  0  0  0  0  0  0  0
  151.8571  138.5302  155.6713 C   0  0  0  0  0  0  0  0  0  0  0  0
  153.0984  138.0480  155.7463 F   0  0  0  0  0  0  0  0  0  0  0  0
  151.0217  137.5461  156.0017 F   0  0  0  0  0  0  0  0  0  0  0  0
  151.6288  138.8777  154.4050 F   0  0  0  0  0  0  0  0  0  0  0  0
  152.6574  140.1315  157.3958 N   0  0  0  0  0  0  0  0  0  0  0  0
  152.1035  141.2434  157.9976 C   0  0  0  0  0  0  0  0  0  0  0  0
  152.6383  142.1282  158.9611 C   0  0  0  0  0  0  0  0  0  0  0  0
  151.8749  143.2163  159.4322 C   0  0  0  0  0  0  0  0  0  0  0  0
  150.5695  143.4352  158.9469 C   0  0  0  0  0  0  0  0  0  0  0  0
  150.0182  142.5650  157.9869 C   0  0  0  0  0  0  0  0  0  0  0  0
  150.7833  141.4784  157.5215 C   0  0  0  0  0  0  0  0  0  0  0  0
  149.2361  140.2797  153.0586 H   0  0  0  0  0  0  0  0  0  0  0  0
  149.6123  142.2342  155.0098 H   0  0  0  0  0  0  0  0  0  0  0  0
  147.6031  141.9482  153.3580 H   0  0  0  0  0  0  0  0  0  0  0  0
  147.1352  140.5663  154.3144 H   0  0  0  0  0  0  0  0  0  0  0  0
  145.7008  143.3006  153.8947 H   0  0  0  0  0  0  0  0  0  0  0  0
  145.0021  141.9367  154.7520 H   0  0  0  0  0  0  0  0  0  0  0  0
  145.5554  144.7249  155.9311 H   0  0  0  0  0  0  0  0  0  0  0  0
  143.9808  144.0467  155.5640 H   0  0  0  0  0  0  0  0  0  0  0  0
  146.8294  143.7657  157.7600 H   0  0  0  0  0  0  0  0  0  0  0  0
  146.1332  142.4241  158.6488 H   0  0  0  0  0  0  0  0  0  0  0  0
  146.3602  140.9187  156.6966 H   0  0  0  0  0  0  0  0  0  0  0  0
  147.9138  141.6351  157.0787 H   0  0  0  0  0  0  0  0  0  0  0  0
  148.4695  140.3001  156.5103 H   0  0  0  0  0  0  0  0  0  0  0  0
  149.3321  139.2515  155.4244 H   0  0  0  0  0  0  0  0  0  0  0  0
  153.6384  141.9708  159.3371 H   0  0  0  0  0  0  0  0  0  0  0  0
  152.2939  143.8871  160.1679 H   0  0  0  0  0  0  0  0  0  0  0  0
  149.9919  144.2720  159.3118 H   0  0  0  0  0  0  0  0  0  0  0  0
  149.0187  142.7321  157.6143 H   0  0  0  0  0  0  0  0  0  0  0  0
  147.5324  143.2574  155.3736 H   0  0  0  0  0  0  0  0  0  0  0  0
  1  2  1  0  0  0  0
  1 24  1  0  0  0  0
  2  3  1  0  0  0  0
  2 10  1  0  0  0  0
  2 25  1  0  0  0  0
  3  4  1  0  0  0  0
  3 26  1  0  0  0  0
  3 27  1  0  0  0  0
  4  9  1  0  0  0  0
  4  5  1  0  0  0  0
  4 42  1  0  0  0  0
  5  6  1  0  0  0  0
  5 28  1  0  0  0  0
  5 29  1  0  0  0  0
  6  7  1  0  0  0  0
  6 30  1  0  0  0  0
  6 31  1  0  0  0  0
  7  8  1  0  0  0  0
  8  9  1  0  0  0  0
  8 32  1  0  0  0  0
  8 33  1  0  0  0  0
  9 34  1  0  0  0  0
  9 35  1  0  0  0  0
 10 11  1  0  0  0  0
 10 36  1  0  0  0  0
 10 37  1  0  0  0  0
 11 23  1  0  0  0  0
 11 12  1  0  0  0  0
 12 13  1  0  0  0  0
 12 17  2  0  0  0  0
 13 14  1  0  0  0  0
 13 15  1  0  0  0  0
 13 16  1  0  0  0  0
 17 18  1  0  0  0  0
 18 23  2  0  0  0  0
 18 19  1  0  0  0  0
 19 20  2  0  0  0  0
 19 38  1  0  0  0  0
 20 21  1  0  0  0  0
 20 39  1  0  0  0  0
 21 22  2  0  0  0  0
 21 40  1  0  0  0  0
 22 23  1  0  0  0  0
 22 41  1  0  0  0  0
M  CHG  1   4   1
M  END
> <s_m_source_file>
AV-unprocessed.smi

> <i_m_source_file_index>
342

> <i_lp_mmshare_version>
43012

> <i_f3d_flags>
0

> <s_epik_input>
W2NIXTFbY0hdW2NIXVtjSF1jKGMxMiluKGMobjIpQyhGKShGKUYpW0NIMl1bQ0BIXShbT0hdKVtDSDJdTjNbQ0gyXVtDSDJdT1tDSDJdW0NIMl0z

> <s_epik_cmdline>
J2VwaWtfcHl0aG9uJywgJy1waCcsICc3LjAnLCAnLXRuJywgJzgnLCAnLW1hJywgJzIwMCcsICctbWV0YWxfYmluZGluZycsICctaW1hZScsICc8aW5maWxlLm1hZT4nLCAnLW9tYWUnLCAnPG91dGZpbGUubWFlPic=

> <r_epik_Ionization_Penalty>
0.608409

> <r_epik_Ionization_Penalty_Charging>
0.608065

> <r_epik_Ionization_Penalty_Neutral>
0.000344684

> <r_epik_State_Penalty>
0.623026

> <r_epik_Charging_Adjusted_Penalty>
1.23109

> <i_epik_Tot_Q>
1

> <i_epik_Tot_abs_Q>
1

> <r_epik_Metal_State_Penalty>
0.623013

> <b_epik_Metal_Only>
0

> <s_lp_Force_Field>
OPLS_2005

> <r_lp_Energy>
25.6933

> <b_lp_Chiralities_Consistent>
1

> <s_lp_Variant>
AV-unprocessed.smi:342-4

> <Gold.Version>
5.8.1

> <Gold.Id.Protein>
6NUR|6NUR_protein|mol2

> <Gold.PLP.Fitness>
52.5226

> <Gold.PLP.PLP>
-39.7723

> <Gold.PLP.part.hbond>
-4.3431

> <Gold.PLP.part.metal>
0.0000

> <Gold.PLP.part.buried>
-3.3056

> <Gold.PLP.part.nonpolar>
-32.0121

> <Gold.PLP.part.repulsive>
0.1582

> <Gold.PLP.ligand.clash>
0.0000

> <Gold.PLP.ligand.torsion>
0.7374

> <Gold.PLP.Chemscore.Hbond>
4.7200

> <Gold.PLP.Chemscore.CHOScore>
0.0000

> <Gold.PLP.Chemscore.Metal>
0.0000

> <Gold.Chemscore.Hbonds>
donor molecule, donor type, donor heavy atom, donor atom, acceptor molecule, acceptor atom, score
      L1  H     1    24       P1  7957  0.34
      L1  H     4    42       P1  8028  1.80
      P1  H  7989  7998       L1     1  0.35
      P1  H  7997  8010       L1    17  1.00
      P1  H  8011  8017       L1     1  0.95

> <Gold.PLP.Chemscore.Internal.Correction>
0.0650

> <Gold.Rescore>
     Score         DG    S(hbond)    S(metal)    S(lipo)     H(rot)  DE(clash)    DE(int)     intcor
     14.64     -16.44       1.98        0.00      87.80       2.32       0.02       1.77       ----

> <Gold.Chemscore.Fitness>
14.6426

> <Gold.Chemscore.DG>
-16.4402

> <Gold.Chemscore.ZeroCoef>
-5.4800

> <Gold.Chemscore.Hbond>
1.9847

> <Gold.Chemscore.Metal>
0.0000

> <Gold.Chemscore.Lipo>
87.7966

> <Gold.Chemscore.Internal_Hbond>
0.0000

> <Gold.Chemscore.DEClash>
0.0248

> <Gold.Chemscore.DEInternal>
1.7728

> <Gold.Chemscore.Rot>
2.3206

> <Gold.Chemscore.Internal.Correction>
   9.000000E+99

> <Gold.Chemscore.Hbonds>
donor molecule, donor type, donor heavy atom, donor atom, acceptor molecule, acceptor atom, score
      L1  H     1    24       P1  7957  0.34
      L1  H     4    42       P1  8028  0.17
      P1  H  7989  7998       L1     1  0.33
      P1  H  7997  8010       L1    17  0.89
      P1  H  8011  8017       L1     1  0.10

> <Gold.Chemscore.Hbond.Weighted>
-6.6288

> <Gold.Chemscore.Metal.Weighted>
-0.0000

> <Gold.Chemscore.Lipo.Weighted>
-10.2722

> <Gold.Chemscore.Internal_Hbond.Weighted>
0.0000

> <Gold.Chemscore.DEClash.Weighted>
0.0248

> <Gold.Chemscore.DEInternal.Weighted>
1.7728

> <Gold.Chemscore.Rot.Weighted>
5.9407

> <Gold.Chemscore.Internal.Correction.Weighted>
   9.000000E+99

> <Gold.Protein.RotatedTorsions>
[ 6907 6896 6895 6894 ] final  151.58 input  -60.11 | X-H torsion
[ 7974 7965 7964 7962 ] final -105.82 input  175.53 | X-H torsion
[ 8008 7997 7996 7995 ] final   58.10 input   59.86 | X-H torsion
[ 10167 10162 10161 10158 ] final   71.92 input  -65.29 | X-H torsion
[ 10718 10713 10712 10709 ] final    9.75 input   66.30 | X-H torsion
[ 10763 10752 10751 10750 ] final -123.10 input  -60.55 | X-H torsion
[ 11005 11000 10999 10996 ] final  127.68 input  -57.11 | X-H torsion

> <Gold.Protein.ActiveResidues>
 VAL166  LYS551  ARG553  GLY616  TRP617  ASP618  TYR619  PRO620  LYS621  CYS622 
 ASP623  PHE694  ASN695  SER759  ASP760  ASP761  ALA762  ILE779  LEU786  VAL792 
 PHE793  MET794  SER795  GLU796  ALA797  LYS798  CYS799  TRP800  GLU811  SER814 

> <Gold.Protein.RotatedAtoms>
  152.0987  133.4238  159.4576 H   0  0  0  0  0  0  0  0  0  0  0  0  # atno 6907 bound_to 6896
  150.6863  134.2786  159.4627 H   0  0  0  0  0  0  0  0  0  0  0  0  # atno 6908 bound_to 6896
  152.0644  134.9573  160.0625 H   0  0  0  0  0  0  0  0  0  0  0  0  # atno 6909 bound_to 6896
  145.2257  140.9151  143.3234 H   0  0  0  0  0  0  0  0  0  0  0  0  # atno 7974 bound_to 7965
  155.5446  140.3485  155.4454 H   0  0  0  0  0  0  0  0  0  0  0  0  # atno 8008 bound_to 7997
  156.0627  140.1344  156.9948 H   0  0  0  0  0  0  0  0  0  0  0  0  # atno 8009 bound_to 7997
  154.4488  140.0982  156.6525 H   0  0  0  0  0  0  0  0  0  0  0  0  # atno 8010 bound_to 7997
  140.0409  144.5390  150.7435 H   0  0  0  0  0  0  0  0  0  0  0  0  # atno 10167 bound_to 10162
  156.9709  130.5968  149.5669 H   0  0  0  0  0  0  0  0  0  0  0  0  # atno 10718 bound_to 10713
  154.8702  135.4110  154.2889 H   0  0  0  0  0  0  0  0  0  0  0  0  # atno 10763 bound_to 10752
  153.3768  135.7010  153.6601 H   0  0  0  0  0  0  0  0  0  0  0  0  # atno 10764 bound_to 10752
  153.5440  135.3642  155.2702 H   0  0  0  0  0  0  0  0  0  0  0  0  # atno 10765 bound_to 10752
  139.9520  134.9620  156.8891 H   0  0  0  0  0  0  0  0  0  0  0  0  # atno 11005 bound_to 11000
  144.9724  139.3867  143.6302 LP  0  0  0  0  0  0  0  0  0  0  0  0  # atno 17320 bound_to 7965
  146.3365  139.8827  142.8821 LP  0  0  0  0  0  0  0  0  0  0  0  0  # atno 17321 bound_to 7965
  140.7261  143.2637  151.4116 LP  0  0  0  0  0  0  0  0  0  0  0  0  # atno 17342 bound_to 10162
  139.6015  144.1286  152.2203 LP  0  0  0  0  0  0  0  0  0  0  0  0  # atno 17343 bound_to 10162
  156.0283  130.5376  150.8467 LP  0  0  0  0  0  0  0  0  0  0  0  0  # atno 17370 bound_to 10713
  157.5593  131.0945  150.9582 LP  0  0  0  0  0  0  0  0  0  0  0  0  # atno 17371 bound_to 10713
  140.5696  134.0456  155.7426 LP  0  0  0  0  0  0  0  0  0  0  0  0  # atno 17394 bound_to 11000
  141.1185  133.9500  157.2776 LP  0  0  0  0  0  0  0  0  0  0  0  0  # atno 17395 bound_to 11000

$$$$
