AV-unprocessed.smi:2906|AV-procd|sdf|11164|dock4
  -GOLD-   2272016 53D 1   1.00000     0.00000
 Structure written by MMmdl.
 39 40  0  0  0  0  0  0  0  0  2 V2000
  149.9639  145.2717  160.1357 C   0  0  0  0  0  0  0  0  0  0  0  0
  151.4813  145.0779  159.9812 C   0  0  0  0  0  0  0  0  0  0  0  0
  151.8661  143.8721  159.1074 C   0  0  0  0  0  0  0  0  0  0  0  0
  151.5341  143.8440  157.9209 O   0  0  0  0  0  0  0  0  0  0  0  0
  152.5680  142.8701  159.6771 N   0  0  0  0  0  0  0  0  0  0  0  0
  153.0108  141.6840  158.9491 C   0  0  0  0  0  0  0  0  0  0  0  0
  153.9479  140.9345  159.8952 C   0  0  0  0  0  0  0  0  0  0  0  0
  153.5362  141.3935  161.2937 C   0  0  1  0  0  0  0  0  0  0  0  0
  154.6525  141.3952  162.2350 N   0  0  0  0  0  0  0  0  0  0  0  0
  155.3480  140.3165  162.6227 C   0  0  0  0  0  0  0  0  0  0  0  0
  155.0534  139.2040  162.1793 O   0  0  0  0  0  0  0  0  0  0  0  0
  156.3439  140.5931  163.4957 N   0  5  0  0  0  0  0  0  0  0  0  0
  156.0679  141.2261  164.6477 C   0  0  0  0  0  0  0  0  0  0  0  0
  155.8648  142.5459  164.7255 N   0  0  0  0  0  0  0  0  0  0  0  0
  155.5901  142.9947  166.0201 C   0  0  0  0  0  0  0  0  0  0  0  0
  155.3338  144.4498  166.2701 C   0  0  0  0  0  0  0  0  0  0  0  0
  155.3039  144.7868  167.7651 C   0  0  0  0  0  0  0  0  0  0  0  0
  155.6001  141.9885  166.9510 C   0  0  0  0  0  0  0  0  0  0  0  0
  155.9510  140.4457  166.2266 S   0  0  0  0  0  0  0  0  0  0  0  0
  152.9850  142.8075  161.0773 C   0  0  0  0  0  0  0  0  0  0  0  0
  149.7489  146.1442  160.7528 H   0  0  0  0  0  0  0  0  0  0  0  0
  149.4986  144.4090  160.6144 H   0  0  0  0  0  0  0  0  0  0  0  0
  149.4805  145.4246  159.1702 H   0  0  0  0  0  0  0  0  0  0  0  0
  151.9126  145.9806  159.5473 H   0  0  0  0  0  0  0  0  0  0  0  0
  151.9257  144.9544  160.9691 H   0  0  0  0  0  0  0  0  0  0  0  0
  152.1414  141.0710  158.7081 H   0  0  0  0  0  0  0  0  0  0  0  0
  153.5143  141.9407  158.0159 H   0  0  0  0  0  0  0  0  0  0  0  0
  153.8906  139.8521  159.7741 H   0  0  0  0  0  0  0  0  0  0  0  0
  154.9768  141.2348  159.6895 H   0  0  0  0  0  0  0  0  0  0  0  0
  152.7298  140.7557  161.6613 H   0  0  0  0  0  0  0  0  0  0  0  0
  154.9251  142.2867  162.6222 H   0  0  0  0  0  0  0  0  0  0  0  0
  156.1006  145.0520  165.7815 H   0  0  0  0  0  0  0  0  0  0  0  0
  154.3875  144.7461  165.8164 H   0  0  0  0  0  0  0  0  0  0  0  0
  155.1134  145.8488  167.9207 H   0  0  0  0  0  0  0  0  0  0  0  0
  156.2541  144.5457  168.2424 H   0  0  0  0  0  0  0  0  0  0  0  0
  154.5204  144.2283  168.2782 H   0  0  0  0  0  0  0  0  0  0  0  0
  155.4257  142.0599  168.0138 H   0  0  0  0  0  0  0  0  0  0  0  0
  153.7567  143.5613  161.2439 H   0  0  0  0  0  0  0  0  0  0  0  0
  152.1611  143.0094  161.7628 H   0  0  0  0  0  0  0  0  0  0  0  0
  1  2  1  0  0  0  0
  1 21  1  0  0  0  0
  1 22  1  0  0  0  0
  1 23  1  0  0  0  0
  2  3  1  0  0  0  0
  2 24  1  0  0  0  0
  2 25  1  0  0  0  0
  3  4  2  0  0  0  0
  3  5  1  0  0  0  0
  5 20  1  0  0  0  0
  5  6  1  0  0  0  0
  6  7  1  0  0  0  0
  6 26  1  0  0  0  0
  6 27  1  0  0  0  0
  7  8  1  0  0  0  0
  7 28  1  0  0  0  0
  7 29  1  0  0  0  0
  8  9  1  0  0  0  0
  8 20  1  0  0  0  0
  8 30  1  0  0  0  0
  9 10  1  0  0  0  0
  9 31  1  0  0  0  0
 10 11  2  0  0  0  0
 10 12  1  0  0  0  0
 12 13  1  0  0  0  0
 13 19  1  0  0  0  0
 13 14  2  0  0  0  0
 14 15  1  0  0  0  0
 15 16  1  0  0  0  0
 15 18  2  0  0  0  0
 16 17  1  0  0  0  0
 16 32  1  0  0  0  0
 16 33  1  0  0  0  0
 17 34  1  0  0  0  0
 17 35  1  0  0  0  0
 17 36  1  0  0  0  0
 18 19  1  0  0  0  0
 18 37  1  0  0  0  0
 20 38  1  0  0  0  0
 20 39  1  0  0  0  0
M  CHG  1  12  -1
M  END
> <s_m_source_file>
AV-unprocessed.smi

> <i_m_source_file_index>
2906

> <i_lp_mmshare_version>
43012

> <i_f3d_flags>
0

> <s_epik_input>
W0NIM11bQ0gyXUMoPU8pTjFbQ0gyXVtDSDJdW0NASF0oW0NIMl0xKVtOSF1DKD1PKVtOSF1jMm5jKFtjSF1zMilbQ0gyXVtDSDNd

> <s_epik_cmdline>
J2VwaWtfcHl0aG9uJywgJy1waCcsICc3LjAnLCAnLXRuJywgJzgnLCAnLW1hJywgJzIwMCcsICctbWV0YWxfYmluZGluZycsICctaW1hZScsICc8aW5maWxlLm1hZT4nLCAnLW9tYWUnLCAnPG91dGZpbGUubWFlPic=

> <r_lp_tautomer_probability>
1

> <r_epik_Ionization_Penalty>
7.20119

> <r_epik_Ionization_Penalty_Charging>
5.87168

> <r_epik_Ionization_Penalty_Neutral>
1.32951

> <r_epik_State_Penalty>
5.87165

> <r_epik_Charging_Adjusted_Penalty>
11.7433

> <i_epik_Tot_Q>
-1

> <i_epik_Tot_abs_Q>
1

> <r_epik_Metal_State_Penalty>
1.83511

> <b_epik_Metal_Only>
1

> <s_lp_Force_Field>
OPLS_2005

> <r_lp_Energy>
20.3379

> <b_lp_Chiralities_Consistent>
1

> <s_lp_Variant>
AV-unprocessed.smi:2906-3

> <Gold.Version>
5.8.1

> <Gold.Id.Protein>
6NUR|6NUR_protein|mol2

> <Gold.PLP.Fitness>
46.3938

> <Gold.PLP.PLP>
-49.0270

> <Gold.PLP.part.hbond>
-3.0000

> <Gold.PLP.part.metal>
0.0000

> <Gold.PLP.part.buried>
-5.2969

> <Gold.PLP.part.nonpolar>
-39.7803

> <Gold.PLP.part.repulsive>
0.1120

> <Gold.PLP.ligand.clash>
0.0000

> <Gold.PLP.ligand.torsion>
1.3418

> <Gold.PLP.Chemscore.Hbond>
0.0000

> <Gold.PLP.Chemscore.CHOScore>
0.0000

> <Gold.PLP.Chemscore.Metal>
0.0000

> <Gold.PLP.Chemscore.Internal.Correction>
0.0504

> <Gold.Rescore>
     Score         DG    S(hbond)    S(metal)    S(lipo)     H(rot)  DE(clash)    DE(int)     intcor
      9.74     -12.45       0.00        0.00      89.92       1.39       0.44       2.27       ----

> <Gold.Chemscore.Fitness>
9.7417

> <Gold.Chemscore.DG>
-12.4530

> <Gold.Chemscore.ZeroCoef>
-5.4800

> <Gold.Chemscore.Hbond>
0.0000

> <Gold.Chemscore.Metal>
0.0000

> <Gold.Chemscore.Lipo>
89.9152

> <Gold.Chemscore.Internal_Hbond>
0.0000

> <Gold.Chemscore.DEClash>
0.4433

> <Gold.Chemscore.DEInternal>
2.2679

> <Gold.Chemscore.Rot>
1.3856

> <Gold.Chemscore.Internal.Correction>
   9.000000E+99

> <Gold.Chemscore.Hbond.Weighted>
-0.0000

> <Gold.Chemscore.Metal.Weighted>
-0.0000

> <Gold.Chemscore.Lipo.Weighted>
-10.5201

> <Gold.Chemscore.Internal_Hbond.Weighted>
0.0000

> <Gold.Chemscore.DEClash.Weighted>
0.4433

> <Gold.Chemscore.DEInternal.Weighted>
2.2679

> <Gold.Chemscore.Rot.Weighted>
3.5471

> <Gold.Chemscore.Internal.Correction.Weighted>
   9.000000E+99

> <Gold.Protein.RotatedTorsions>
[ 6907 6896 6895 6894 ] final  134.53 input  -60.11 | X-H torsion
[ 7974 7965 7964 7962 ] final    1.74 input  175.53 | X-H torsion
[ 8008 7997 7996 7995 ] final  -65.57 input   59.86 | X-H torsion
[ 10167 10162 10161 10158 ] final  141.63 input  -65.29 | X-H torsion
[ 10718 10713 10712 10709 ] final   15.95 input   66.30 | X-H torsion
[ 10763 10752 10751 10750 ] final  -34.71 input  -60.55 | X-H torsion
[ 11005 11000 10999 10996 ] final  171.55 input  -57.11 | X-H torsion

> <Gold.Protein.ActiveResidues>
 VAL166  LYS551  ARG553  GLY616  TRP617  ASP618  TYR619  PRO620  LYS621  CYS622 
 ASP623  PHE694  ASN695  SER759  ASP760  ASP761  ALA762  ILE779  LEU786  VAL792 
 PHE793  MET794  SER795  GLU796  ALA797  LYS798  CYS799  TRP800  GLU811  SER814 

> <Gold.Protein.RotatedAtoms>
  152.3103  133.5745  159.5675 H   0  0  0  0  0  0  0  0  0  0  0  0  # atno 6907 bound_to 6896
  150.7319  134.0162  159.3695 H   0  0  0  0  0  0  0  0  0  0  0  0  # atno 6908 bound_to 6896
  151.8056  135.0696  160.0457 H   0  0  0  0  0  0  0  0  0  0  0  0  # atno 6909 bound_to 6896
  146.2441  140.0941  142.8350 H   0  0  0  0  0  0  0  0  0  0  0  0  # atno 7974 bound_to 7965
  154.4680  140.0930  156.7071 H   0  0  0  0  0  0  0  0  0  0  0  0  # atno 8008 bound_to 7997
  155.4803  140.3467  155.4320 H   0  0  0  0  0  0  0  0  0  0  0  0  # atno 8009 bound_to 7997
  156.0990  140.1417  156.9481 H   0  0  0  0  0  0  0  0  0  0  0  0  # atno 8010 bound_to 7997
  139.5015  144.6159  151.6165 H   0  0  0  0  0  0  0  0  0  0  0  0  # atno 10167 bound_to 10162
  157.0608  130.6308  149.5786 H   0  0  0  0  0  0  0  0  0  0  0  0  # atno 10718 bound_to 10713
  153.8511  135.6849  153.4792 H   0  0  0  0  0  0  0  0  0  0  0  0  # atno 10763 bound_to 10752
  153.1396  135.4663  154.9474 H   0  0  0  0  0  0  0  0  0  0  0  0  # atno 10764 bound_to 10752
  154.7802  135.3266  154.7955 H   0  0  0  0  0  0  0  0  0  0  0  0  # atno 10765 bound_to 10752
  140.3203  134.7443  157.4058 H   0  0  0  0  0  0  0  0  0  0  0  0  # atno 11005 bound_to 11000
  145.0625  140.9098  143.4930 LP  0  0  0  0  0  0  0  0  0  0  0  0  # atno 17320 bound_to 7965
  145.1059  139.2790  143.5662 LP  0  0  0  0  0  0  0  0  0  0  0  0  # atno 17321 bound_to 7965
  140.5846  143.9885  150.6288 LP  0  0  0  0  0  0  0  0  0  0  0  0  # atno 17342 bound_to 10162
  140.3046  143.3238  152.0938 LP  0  0  0  0  0  0  0  0  0  0  0  0  # atno 17343 bound_to 10162
  155.9979  130.5052  150.7551 LP  0  0  0  0  0  0  0  0  0  0  0  0  # atno 17370 bound_to 10713
  157.4956  131.0914  151.0375 LP  0  0  0  0  0  0  0  0  0  0  0  0  # atno 17371 bound_to 10713
  140.0948  134.5552  155.8409 LP  0  0  0  0  0  0  0  0  0  0  0  0  # atno 17394 bound_to 11000
  141.2088  133.6677  156.6396 LP  0  0  0  0  0  0  0  0  0  0  0  0  # atno 17395 bound_to 11000

$$$$
