AV-unprocessed.smi:625|AV-procd|sdf|3107|dock6
  -GOLD-   22720 0 33D 1   1.00000     0.00000
 Structure written by MMmdl.
 49 51  0  0  0  0  0  0  0  0  1 V2000
  146.0192  137.7114  150.2945 C   0  0  0  0  0  0  0  0  0  0  0  0
  146.3752  138.2864  151.5830 N   0  0  0  0  0  0  0  0  0  0  0  0
  145.9098  137.8516  152.7657 C   0  0  0  0  0  0  0  0  0  0  0  0
  145.1225  136.9069  152.8430 O   0  0  0  0  0  0  0  0  0  0  0  0
  146.4241  138.5998  153.9156 C   0  0  0  0  0  0  0  0  0  0  0  0
  145.9928  138.3524  155.2837 C   0  0  0  0  0  0  0  0  0  0  0  0
  146.4932  139.0789  156.3022 C   0  0  0  0  0  0  0  0  0  0  0  0
  147.4837  140.1364  156.0828 C   0  0  0  0  0  0  0  0  0  0  0  0
  147.9411  140.8058  157.0100 O   0  0  0  0  0  0  0  0  0  0  0  0
  147.8664  140.3322  154.7838 N   0  0  0  0  0  0  0  0  0  0  0  0
  148.8520  141.3712  154.4419 C   0  0  0  0  0  0  0  0  0  0  0  0
  150.0975  141.3129  155.3354 C   0  0  0  0  0  0  0  0  0  0  0  0
  150.9359  140.4248  155.1774 O   0  0  0  0  0  0  0  0  0  0  0  0
  150.1959  142.2693  156.2714 N   0  0  0  0  0  0  0  0  0  0  0  0
  151.3258  142.4706  157.1757 C   0  0  2  0  0  0  0  0  0  0  0  0
  151.2790  141.4053  158.2820 C   0  0  0  0  0  0  0  0  0  0  0  0
  151.2853  143.9082  157.7459 C   0  0  1  0  0  0  0  0  0  0  0  0
  150.2693  144.1266  158.8895 C   0  0  0  0  0  0  0  0  0  0  0  0
  151.1099  144.8330  159.9700 C   0  0  1  0  0  0  0  0  0  0  0  0
  152.0518  143.8067  160.6256 C   0  0  0  0  0  0  0  0  0  0  0  0
  153.0964  143.5554  159.5233 C   0  0  0  0  0  0  0  0  0  0  0  0
  152.5980  144.4492  158.3688 C   0  0  2  0  0  0  0  0  0  0  0  0
  152.0806  145.6615  159.1361 C   0  0  0  0  0  0  0  0  0  0  0  0
  147.3371  139.5720  153.7225 C   0  0  0  0  0  0  0  0  0  0  0  0
  146.5225  138.2541  149.4945 H   0  0  0  0  0  0  0  0  0  0  0  0
  144.9437  137.7735  150.1246 H   0  0  0  0  0  0  0  0  0  0  0  0
  146.3215  136.6649  150.2398 H   0  0  0  0  0  0  0  0  0  0  0  0
  147.0188  139.0642  151.5788 H   0  0  0  0  0  0  0  0  0  0  0  0
  145.2664  137.5873  155.5147 H   0  0  0  0  0  0  0  0  0  0  0  0
  146.1570  138.8779  157.3088 H   0  0  0  0  0  0  0  0  0  0  0  0
  149.1399  141.2770  153.3927 H   0  0  0  0  0  0  0  0  0  0  0  0
  148.4173  142.3676  154.5307 H   0  0  0  0  0  0  0  0  0  0  0  0
  149.4488  142.9461  156.3284 H   0  0  0  0  0  0  0  0  0  0  0  0
  152.2657  142.3379  156.6385 H   0  0  0  0  0  0  0  0  0  0  0  0
  152.1229  141.5047  158.9648 H   0  0  0  0  0  0  0  0  0  0  0  0
  151.3188  140.4007  157.8595 H   0  0  0  0  0  0  0  0  0  0  0  0
  150.3642  141.4821  158.8708 H   0  0  0  0  0  0  0  0  0  0  0  0
  151.0202  144.5796  156.9269 H   0  0  0  0  0  0  0  0  0  0  0  0
  149.4482  144.7613  158.5542 H   0  0  0  0  0  0  0  0  0  0  0  0
  149.8364  143.1970  159.2611 H   0  0  0  0  0  0  0  0  0  0  0  0
  150.5148  145.3997  160.6867 H   0  0  0  0  0  0  0  0  0  0  0  0
  152.5263  144.2247  161.5145 H   0  0  0  0  0  0  0  0  0  0  0  0
  151.5313  142.8952  160.9214 H   0  0  0  0  0  0  0  0  0  0  0  0
  154.0828  143.8809  159.8559 H   0  0  0  0  0  0  0  0  0  0  0  0
  153.1790  142.5034  159.2541 H   0  0  0  0  0  0  0  0  0  0  0  0
  153.3697  144.6782  157.6329 H   0  0  0  0  0  0  0  0  0  0  0  0
  151.5864  146.4002  158.5028 H   0  0  0  0  0  0  0  0  0  0  0  0
  152.8486  146.1586  159.7317 H   0  0  0  0  0  0  0  0  0  0  0  0
  147.7189  139.8417  152.7476 H   0  0  0  0  0  0  0  0  0  0  0  0
  1  2  1  0  0  0  0
  1 25  1  0  0  0  0
  1 26  1  0  0  0  0
  1 27  1  0  0  0  0
  2  3  1  0  0  0  0
  2 28  1  0  0  0  0
  3  4  2  0  0  0  0
  3  5  1  0  0  0  0
  5 24  2  0  0  0  0
  5  6  1  0  0  0  0
  6  7  2  0  0  0  0
  6 29  1  0  0  0  0
  7  8  1  0  0  0  0
  7 30  1  0  0  0  0
  8  9  2  0  0  0  0
  8 10  1  0  0  0  0
 10 11  1  0  0  0  0
 10 24  1  0  0  0  0
 11 12  1  0  0  0  0
 11 31  1  0  0  0  0
 11 32  1  0  0  0  0
 12 13  2  0  0  0  0
 12 14  1  0  0  0  0
 14 15  1  0  0  0  0
 14 33  1  0  0  0  0
 15 16  1  0  0  0  0
 15 17  1  0  0  0  0
 15 34  1  0  0  0  0
 16 35  1  0  0  0  0
 16 36  1  0  0  0  0
 16 37  1  0  0  0  0
 17 22  1  0  0  0  0
 17 18  1  0  0  0  0
 17 38  1  0  0  0  0
 18 19  1  0  0  0  0
 18 39  1  0  0  0  0
 18 40  1  0  0  0  0
 19 23  1  0  0  0  0
 19 20  1  0  0  0  0
 19 41  1  0  0  0  0
 20 21  1  0  0  0  0
 20 42  1  0  0  0  0
 20 43  1  0  0  0  0
 21 22  1  0  0  0  0
 21 44  1  0  0  0  0
 21 45  1  0  0  0  0
 22 23  1  0  0  0  0
 22 46  1  0  0  0  0
 23 47  1  0  0  0  0
 23 48  1  0  0  0  0
 24 49  1  0  0  0  0
M  END
> <s_m_source_file>
AV-unprocessed.smi

> <i_m_source_file_index>
625

> <i_lp_mmshare_version>
43012

> <i_f3d_flags>
0

> <s_epik_input>
W0NIM11bTkhdQyg9TyljMVtjSF1bY0hdYyg9TyluKFtjSF0xKVtDSDJdQyg9TylbTkhdW0NASF0oW0NIM10pW0NASF0oW0NIMl1bQ0BIXTIzKVtDQEhdKFtDSDJdMylbQ0gyXVtDSDJdMg==

> <s_epik_cmdline>
J2VwaWtfcHl0aG9uJywgJy1waCcsICc3LjAnLCAnLXRuJywgJzgnLCAnLW1hJywgJzIwMCcsICctbWV0YWxfYmluZGluZycsICctaW1hZScsICc8aW5maWxlLm1hZT4nLCAnLW9tYWUnLCAnPG91dGZpbGUubWFlPic=

> <r_lp_tautomer_probability>
1

> <r_epik_Ionization_Penalty>
3.7129e-07

> <r_epik_Ionization_Penalty_Charging>
5.04114e-08

> <r_epik_Ionization_Penalty_Neutral>
3.20879e-07

> <r_epik_State_Penalty>
-0

> <r_epik_Charging_Adjusted_Penalty>
5.04114e-08

> <i_epik_Tot_Q>
0

> <i_epik_Tot_abs_Q>
0

> <r_epik_Metal_State_Penalty>
-0

> <b_epik_Metal_Only>
0

> <s_lp_Force_Field>
OPLS_2005

> <r_lp_Energy>
63.4891

> <b_lp_Chiralities_Consistent>
1

> <s_lp_Variant>
AV-unprocessed.smi:625-7

> <Gold.Version>
5.8.1

> <Gold.Id.Protein>
6NUR|6NUR_protein|mol2

> <Gold.PLP.Fitness>
48.5354

> <Gold.PLP.PLP>
-44.2378

> <Gold.PLP.part.hbond>
-3.1784

> <Gold.PLP.part.metal>
0.0000

> <Gold.PLP.part.buried>
2.1486

> <Gold.PLP.part.nonpolar>
-42.6885

> <Gold.PLP.part.repulsive>
0.4695

> <Gold.PLP.ligand.clash>
2.6917

> <Gold.PLP.ligand.torsion>
0.8315

> <Gold.PLP.Chemscore.Hbond>
1.8640

> <Gold.PLP.Chemscore.CHOScore>
1.0000

> <Gold.PLP.Chemscore.Metal>
0.0000

> <Gold.Chemscore.Hbonds>
donor molecule, donor type, donor heavy atom, donor atom, acceptor molecule, acceptor atom, score
      L1  H    14    33       P1  8028  0.85
      P1  H  7989  7998       L1    13  1.00
      L1  C    24    49       P1  7957  1.00

> <Gold.PLP.Chemscore.Internal.Correction>
0.0604

> <Gold.Rescore>
     Score         DG    S(hbond)    S(metal)    S(lipo)     H(rot)  DE(clash)    DE(int)     intcor
     15.97     -21.53       1.47        0.00     131.69       1.67       3.04       2.52       ----

> <Gold.Chemscore.Fitness>
15.9698

> <Gold.Chemscore.DG>
-21.5326

> <Gold.Chemscore.ZeroCoef>
-5.4800

> <Gold.Chemscore.Hbond>
1.4736

> <Gold.Chemscore.Metal>
0.0000

> <Gold.Chemscore.Lipo>
131.6949

> <Gold.Chemscore.Internal_Hbond>
0.0000

> <Gold.Chemscore.DEClash>
3.0410

> <Gold.Chemscore.DEInternal>
2.5219

> <Gold.Chemscore.Rot>
1.6709

> <Gold.Chemscore.Internal.Correction>
   9.000000E+99

> <Gold.Chemscore.Hbonds>
donor molecule, donor type, donor heavy atom, donor atom, acceptor molecule, acceptor atom, score
      L1  H    14    33       P1  8028  0.83
      P1  H  7989  7998       L1    13  0.29

> <Gold.Chemscore.Hbond.Weighted>
-4.9217

> <Gold.Chemscore.Metal.Weighted>
-0.0000

> <Gold.Chemscore.Lipo.Weighted>
-15.4083

> <Gold.Chemscore.Internal_Hbond.Weighted>
0.0000

> <Gold.Chemscore.DEClash.Weighted>
3.0410

> <Gold.Chemscore.DEInternal.Weighted>
2.5219

> <Gold.Chemscore.Rot.Weighted>
4.2774

> <Gold.Chemscore.Internal.Correction.Weighted>
   9.000000E+99

> <Gold.Protein.RotatedTorsions>
[ 6907 6896 6895 6894 ] final -156.05 input  -60.11 | X-H torsion
[ 7974 7965 7964 7962 ] final   66.60 input  175.53 | X-H torsion
[ 8008 7997 7996 7995 ] final   48.16 input   59.86 | X-H torsion
[ 10167 10162 10161 10158 ] final -154.93 input  -65.29 | X-H torsion
[ 10718 10713 10712 10709 ] final  -32.09 input   66.30 | X-H torsion
[ 10763 10752 10751 10750 ] final  141.65 input  -60.55 | X-H torsion
[ 11005 11000 10999 10996 ] final    9.85 input  -57.11 | X-H torsion

> <Gold.Protein.ActiveResidues>
 VAL166  LYS551  ARG553  GLY616  TRP617  ASP618  TYR619  PRO620  LYS621  CYS622 
 ASP623  PHE694  ASN695  SER759  ASP760  ASP761  ALA762  ILE779  LEU786  VAL792 
 PHE793  MET794  SER795  GLU796  ALA797  LYS798  CYS799  TRP800  GLU811  SER814 

> <Gold.Protein.RotatedAtoms>
  151.2818  133.4206  159.2627 H   0  0  0  0  0  0  0  0  0  0  0  0  # atno 6907 bound_to 6896
  151.0354  134.9570  159.8144 H   0  0  0  0  0  0  0  0  0  0  0  0  # atno 6908 bound_to 6896
  152.5354  134.2777  159.9048 H   0  0  0  0  0  0  0  0  0  0  0  0  # atno 6909 bound_to 6896
  145.8246  139.3104  143.1023 H   0  0  0  0  0  0  0  0  0  0  0  0  # atno 7974 bound_to 7965
  155.3810  140.3428  155.4247 H   0  0  0  0  0  0  0  0  0  0  0  0  # atno 8008 bound_to 7997
  156.1610  140.1601  156.8645 H   0  0  0  0  0  0  0  0  0  0  0  0  # atno 8009 bound_to 7997
  154.5140  140.0783  156.8027 H   0  0  0  0  0  0  0  0  0  0  0  0  # atno 8010 bound_to 7997
  139.6973  143.9321  152.2413 H   0  0  0  0  0  0  0  0  0  0  0  0  # atno 10167 bound_to 10162
  156.3792  130.4353  149.7482 H   0  0  0  0  0  0  0  0  0  0  0  0  # atno 10718 bound_to 10713
  153.9427  135.2978  155.3442 H   0  0  0  0  0  0  0  0  0  0  0  0  # atno 10763 bound_to 10752
  154.7468  135.4999  153.9222 H   0  0  0  0  0  0  0  0  0  0  0  0  # atno 10764 bound_to 10752
  153.1034  135.6740  153.9738 H   0  0  0  0  0  0  0  0  0  0  0  0  # atno 10765 bound_to 10752
  140.5210  134.0559  155.7845 H   0  0  0  0  0  0  0  0  0  0  0  0  # atno 11005 bound_to 11000
  145.9637  140.8815  143.0197 LP  0  0  0  0  0  0  0  0  0  0  0  0  # atno 17320 bound_to 7965
  144.6744  140.1849  143.7402 LP  0  0  0  0  0  0  0  0  0  0  0  0  # atno 17321 bound_to 7965
  139.9154  144.6831  150.8518 LP  0  0  0  0  0  0  0  0  0  0  0  0  # atno 17342 bound_to 10162
  140.7700  143.3413  151.2202 LP  0  0  0  0  0  0  0  0  0  0  0  0  # atno 17343 bound_to 10162
  156.4579  130.7938  151.2959 LP  0  0  0  0  0  0  0  0  0  0  0  0  # atno 17370 bound_to 10713
  157.7491  131.0075  150.3191 LP  0  0  0  0  0  0  0  0  0  0  0  0  # atno 17371 bound_to 10713
  141.1334  133.9263  157.2487 LP  0  0  0  0  0  0  0  0  0  0  0  0  # atno 17394 bound_to 11000
  139.9606  135.0155  156.9249 LP  0  0  0  0  0  0  0  0  0  0  0  0  # atno 17395 bound_to 11000

$$$$
