AV-unprocessed.smi:2510|AV-procd|sdf|9876|dock7
  -GOLD-   2272013513D 1   1.00000     0.00000
 Structure written by MMmdl.
 48 49  0  0  0  0  0  0  0  0  1 V2000
  146.9610  141.9559  153.8510 C   0  0  0  0  0  0  0  0  0  0  0  0
  148.4360  141.7754  154.2557 C   0  0  0  0  0  0  0  0  0  0  0  0
  148.7657  140.5959  155.2152 C   0  0  0  0  0  0  0  0  0  0  0  0
  147.8045  140.6377  156.4234 C   0  0  0  0  0  0  0  0  0  0  0  0
  147.8527  141.9398  157.2400 C   0  0  0  0  0  0  0  0  0  0  0  0
  148.9817  139.1873  154.5927 C   0  0  1  0  0  0  0  0  0  0  0  0
  148.2978  138.9420  153.3289 N   0  0  0  0  0  0  0  0  0  0  0  0
  146.9801  138.7223  153.2082 C   0  0  0  0  0  0  0  0  0  0  0  0
  146.1972  138.7544  154.1572 O   0  0  0  0  0  0  0  0  0  0  0  0
  146.4664  138.4228  151.7999 C   0  0  0  0  0  0  0  0  0  0  0  0
  145.8563  137.0470  151.7548 C   0  0  0  0  0  0  0  0  0  0  0  0
  145.5050  136.2765  150.6059 C   0  0  0  0  0  0  0  0  0  0  0  0
  144.9994  135.1150  151.1182 C   0  0  0  0  0  0  0  0  0  0  0  0
  144.4609  133.8939  150.4539 C   0  0  0  0  0  0  0  0  0  0  0  0
  145.0631  135.2394  152.4867 N   0  0  0  0  0  0  0  0  0  0  0  0
  145.5813  136.4146  152.8875 N   0  0  0  0  0  0  0  0  0  0  0  0
  150.4644  139.5171  154.3963 C   0  0  2  0  0  0  0  0  0  0  0  0
  151.4996  138.4010  154.4609 C   0  0  0  0  0  0  0  0  0  0  0  0
  150.2791  140.5017  155.5657 C   0  0  2  0  0  0  0  0  0  0  0  0
  150.5002  139.8895  156.8327 O   0  0  0  0  0  0  0  0  0  0  0  0
  151.8740  139.7383  157.1463 C   0  0  0  0  0  0  0  0  0  0  0  0
  144.7611  134.5401  153.1501 H   0  0  0  0  0  0  0  0  0  0  0  0
  146.8709  142.7343  153.0932 H   0  0  0  0  0  0  0  0  0  0  0  0
  146.3421  142.2640  154.6931 H   0  0  0  0  0  0  0  0  0  0  0  0
  146.5311  141.0479  153.4335 H   0  0  0  0  0  0  0  0  0  0  0  0
  149.0108  141.6792  153.3351 H   0  0  0  0  0  0  0  0  0  0  0  0
  148.7843  142.7118  154.6916 H   0  0  0  0  0  0  0  0  0  0  0  0
  146.7797  140.4390  156.1117 H   0  0  0  0  0  0  0  0  0  0  0  0
  148.0335  139.8160  157.1025 H   0  0  0  0  0  0  0  0  0  0  0  0
  147.2044  141.8681  158.1133 H   0  0  0  0  0  0  0  0  0  0  0  0
  147.5168  142.7975  156.6582 H   0  0  0  0  0  0  0  0  0  0  0  0
  148.8611  142.1497  157.5966 H   0  0  0  0  0  0  0  0  0  0  0  0
  148.8546  138.3843  155.3232 H   0  0  0  0  0  0  0  0  0  0  0  0
  148.8680  138.9049  152.4965 H   0  0  0  0  0  0  0  0  0  0  0  0
  145.7390  139.1840  151.5139 H   0  0  0  0  0  0  0  0  0  0  0  0
  147.2878  138.4983  151.0862 H   0  0  0  0  0  0  0  0  0  0  0  0
  145.6141  136.5373  149.5637 H   0  0  0  0  0  0  0  0  0  0  0  0
  144.4661  134.0052  149.3692 H   0  0  0  0  0  0  0  0  0  0  0  0
  143.4344  133.7021  150.7676 H   0  0  0  0  0  0  0  0  0  0  0  0
  145.0614  133.0195  150.7058 H   0  0  0  0  0  0  0  0  0  0  0  0
  150.6022  140.0895  153.4773 H   0  0  0  0  0  0  0  0  0  0  0  0
  151.3893  137.8007  155.3643 H   0  0  0  0  0  0  0  0  0  0  0  0
  152.5133  138.8009  154.4479 H   0  0  0  0  0  0  0  0  0  0  0  0
  151.4019  137.7285  153.6087 H   0  0  0  0  0  0  0  0  0  0  0  0
  150.8051  141.4504  155.4439 H   0  0  0  0  0  0  0  0  0  0  0  0
  151.9759  139.2300  158.1048 H   0  0  0  0  0  0  0  0  0  0  0  0
  152.3636  140.7095  157.2280 H   0  0  0  0  0  0  0  0  0  0  0  0
  152.3960  139.1472  156.3939 H   0  0  0  0  0  0  0  0  0  0  0  0
  1  2  1  0  0  0  0
  1 23  1  0  0  0  0
  1 24  1  0  0  0  0
  1 25  1  0  0  0  0
  2  3  1  0  0  0  0
  2 26  1  0  0  0  0
  2 27  1  0  0  0  0
  3 19  1  0  0  0  0
  3  4  1  0  0  0  0
  3  6  1  0  0  0  0
  4  5  1  0  0  0  0
  4 28  1  0  0  0  0
  4 29  1  0  0  0  0
  5 30  1  0  0  0  0
  5 31  1  0  0  0  0
  5 32  1  0  0  0  0
  6  7  1  0  0  0  0
  6 17  1  0  0  0  0
  6 33  1  0  0  0  0
  7  8  1  0  0  0  0
  7 34  1  0  0  0  0
  8  9  2  0  0  0  0
  8 10  1  0  0  0  0
 10 11  1  0  0  0  0
 10 35  1  0  0  0  0
 10 36  1  0  0  0  0
 11 16  2  0  0  0  0
 11 12  1  0  0  0  0
 12 13  2  0  0  0  0
 12 37  1  0  0  0  0
 13 14  1  0  0  0  0
 13 15  1  0  0  0  0
 14 38  1  0  0  0  0
 14 39  1  0  0  0  0
 14 40  1  0  0  0  0
 15 22  1  0  0  0  0
 15 16  1  0  0  0  0
 17 18  1  0  0  0  0
 17 19  1  0  0  0  0
 17 41  1  0  0  0  0
 18 42  1  0  0  0  0
 18 43  1  0  0  0  0
 18 44  1  0  0  0  0
 19 20  1  0  0  0  0
 19 45  1  0  0  0  0
 20 21  1  0  0  0  0
 21 46  1  0  0  0  0
 21 47  1  0  0  0  0
 21 48  1  0  0  0  0
M  END
> <s_m_source_file>
AV-unprocessed.smi

> <i_m_source_file_index>
2510

> <i_lp_mmshare_version>
43012

> <i_f3d_flags>
0

> <s_epik_input>
W0NIM11PW0NAQEhdMVtDQEhdKFtDSDNdKVtDQEBIXShDMShbQ0gyXVtDSDNdKVtDSDJdW0NIM10pW05IXUMoPU8pW0NIMl1jMltjSF1jKFtDSDNdKVtuSF1uMg==

> <s_epik_cmdline>
J2VwaWtfcHl0aG9uJywgJy1waCcsICc3LjAnLCAnLXRuJywgJzgnLCAnLW1hJywgJzIwMCcsICctbWV0YWxfYmluZGluZycsICctaW1hZScsICc8aW5maWxlLm1hZT4nLCAnLW9tYWUnLCAnPG91dGZpbGUubWFlPic=

> <r_lp_tautomer_probability>
0.5

> <r_epik_Ionization_Penalty>
9.73156e-05

> <r_epik_Ionization_Penalty_Charging>
0

> <r_epik_Ionization_Penalty_Neutral>
9.73156e-05

> <r_epik_State_Penalty>
0.41068

> <r_epik_Charging_Adjusted_Penalty>
0.41068

> <i_epik_Tot_Q>
0

> <i_epik_Tot_abs_Q>
0

> <r_epik_Metal_State_Penalty>
0.410699

> <b_epik_Metal_Only>
0

> <s_lp_Force_Field>
OPLS_2005

> <r_lp_Energy>
28.6218

> <b_lp_Chiralities_Consistent>
1

> <s_lp_Variant>
AV-unprocessed.smi:2510-7

> <Gold.Version>
5.8.1

> <Gold.Id.Protein>
6NUR|6NUR_protein|mol2

> <Gold.PLP.Fitness>
38.4982

> <Gold.PLP.PLP>
-36.4676

> <Gold.PLP.part.hbond>
-1.7354

> <Gold.PLP.part.metal>
0.0000

> <Gold.PLP.part.buried>
0.7475

> <Gold.PLP.part.nonpolar>
-35.8139

> <Gold.PLP.part.repulsive>
0.3281

> <Gold.PLP.ligand.clash>
0.0000

> <Gold.PLP.ligand.torsion>
0.5811

> <Gold.PLP.Chemscore.Hbond>
0.8320

> <Gold.PLP.Chemscore.CHOScore>
0.0000

> <Gold.PLP.Chemscore.Metal>
0.0000

> <Gold.Chemscore.Hbonds>
donor molecule, donor type, donor heavy atom, donor atom, acceptor molecule, acceptor atom, score
      L1  H     7    34       P1  7957  0.83

> <Gold.PLP.Chemscore.Internal.Correction>
0.6969

> <Gold.Rescore>
     Score         DG    S(hbond)    S(metal)    S(lipo)     H(rot)  DE(clash)    DE(int)     intcor
     11.94     -14.75       0.87        0.00      93.89       1.81       0.79       2.02       ----

> <Gold.Chemscore.Fitness>
11.9382

> <Gold.Chemscore.DG>
-14.7497

> <Gold.Chemscore.ZeroCoef>
-5.4800

> <Gold.Chemscore.Hbond>
0.8739

> <Gold.Chemscore.Metal>
0.0000

> <Gold.Chemscore.Lipo>
93.8885

> <Gold.Chemscore.Internal_Hbond>
0.0000

> <Gold.Chemscore.DEClash>
0.7885

> <Gold.Chemscore.DEInternal>
2.0230

> <Gold.Chemscore.Rot>
1.8102

> <Gold.Chemscore.Internal.Correction>
   9.000000E+99

> <Gold.Chemscore.Hbonds>
donor molecule, donor type, donor heavy atom, donor atom, acceptor molecule, acceptor atom, score
      L1  H     7    34       P1  7957  0.82

> <Gold.Chemscore.Hbond.Weighted>
-2.9189

> <Gold.Chemscore.Metal.Weighted>
-0.0000

> <Gold.Chemscore.Lipo.Weighted>
-10.9850

> <Gold.Chemscore.Internal_Hbond.Weighted>
0.0000

> <Gold.Chemscore.DEClash.Weighted>
0.7885

> <Gold.Chemscore.DEInternal.Weighted>
2.0230

> <Gold.Chemscore.Rot.Weighted>
4.6341

> <Gold.Chemscore.Internal.Correction.Weighted>
   9.000000E+99

> <Gold.Protein.RotatedTorsions>
[ 6907 6896 6895 6894 ] final  -93.23 input  -60.11 | X-H torsion
[ 7974 7965 7964 7962 ] final  -12.15 input  175.53 | X-H torsion
[ 8008 7997 7996 7995 ] final   -1.16 input   59.86 | X-H torsion
[ 10167 10162 10161 10158 ] final   14.48 input  -65.29 | X-H torsion
[ 10718 10713 10712 10709 ] final  171.60 input   66.30 | X-H torsion
[ 10763 10752 10751 10750 ] final   61.04 input  -60.55 | X-H torsion
[ 11005 11000 10999 10996 ] final   20.36 input  -57.11 | X-H torsion

> <Gold.Protein.ActiveResidues>
 VAL166  LYS551  ARG553  GLY616  TRP617  ASP618  TYR619  PRO620  LYS621  CYS622 
 ASP623  PHE694  ASN695  SER759  ASP760  ASP761  ALA762  ILE779  LEU786  VAL792 
 PHE793  MET794  SER795  GLU796  ALA797  LYS798  CYS799  TRP800  GLU811  SER814 

> <Gold.Protein.RotatedAtoms>
  150.6919  134.1999  159.4317 H   0  0  0  0  0  0  0  0  0  0  0  0  # atno 6907 bound_to 6896
  151.9966  134.9948  160.0573 H   0  0  0  0  0  0  0  0  0  0  0  0  # atno 6908 bound_to 6896
  152.1618  133.4551  159.4901 H   0  0  0  0  0  0  0  0  0  0  0  0  # atno 6909 bound_to 6896
  146.2162  140.3015  142.8375 H   0  0  0  0  0  0  0  0  0  0  0  0  # atno 7974 bound_to 7965
  154.6499  140.2566  155.7225 H   0  0  0  0  0  0  0  0  0  0  0  0  # atno 8008 bound_to 7997
  156.2570  140.2870  156.0849 H   0  0  0  0  0  0  0  0  0  0  0  0  # atno 8009 bound_to 7997
  155.1467  140.0381  157.2801 H   0  0  0  0  0  0  0  0  0  0  0  0  # atno 8010 bound_to 7997
  140.5933  143.8752  150.6894 H   0  0  0  0  0  0  0  0  0  0  0  0  # atno 10167 bound_to 10162
  156.9912  131.0148  151.2856 H   0  0  0  0  0  0  0  0  0  0  0  0  # atno 10718 bound_to 10713
  152.9938  135.5515  154.5970 H   0  0  0  0  0  0  0  0  0  0  0  0  # atno 10763 bound_to 10752
  154.5319  135.2814  155.1174 H   0  0  0  0  0  0  0  0  0  0  0  0  # atno 10764 bound_to 10752
  154.2486  135.6403  153.5285 H   0  0  0  0  0  0  0  0  0  0  0  0  # atno 10765 bound_to 10752
  140.4034  134.1694  155.7664 H   0  0  0  0  0  0  0  0  0  0  0  0  # atno 11005 bound_to 11000
  144.9054  140.7693  143.5841 LP  0  0  0  0  0  0  0  0  0  0  0  0  # atno 17320 bound_to 7965
  145.2943  139.1872  143.4724 LP  0  0  0  0  0  0  0  0  0  0  0  0  # atno 17321 bound_to 7965
  140.2280  143.3757  152.1588 LP  0  0  0  0  0  0  0  0  0  0  0  0  # atno 17342 bound_to 10162
  139.5241  144.7080  151.5294 LP  0  0  0  0  0  0  0  0  0  0  0  0  # atno 17343 bound_to 10162
  157.5457  130.8149  149.8083 LP  0  0  0  0  0  0  0  0  0  0  0  0  # atno 17370 bound_to 10713
  156.0206  130.3797  150.1973 LP  0  0  0  0  0  0  0  0  0  0  0  0  # atno 17371 bound_to 10713
  141.1848  133.8336  157.1127 LP  0  0  0  0  0  0  0  0  0  0  0  0  # atno 17394 bound_to 11000
  140.0319  134.9897  157.0797 LP  0  0  0  0  0  0  0  0  0  0  0  0  # atno 17395 bound_to 11000

$$$$
