AV-unprocessed.smi:2708|AV-procd|sdf|10458|dock8
  -GOLD-   2272014493D 1   1.00000     0.00000
 Structure written by MMmdl.
 35 35  0  0  0  0  0  0  0  0  2 V2000
  151.3480  140.9070  157.9150 C   0  0  0  0  0  0  0  0  0  0  0  0
  151.0245  139.7457  156.9600 C   0  0  2  0  0  0  0  0  0  0  0  0
  151.5487  138.4857  157.4783 N   0  0  0  0  0  0  0  0  0  0  0  0
  152.7842  138.2849  157.9634 C   0  0  0  0  0  0  0  0  0  0  0  0
  153.6418  139.1656  158.0293 O   0  0  0  0  0  0  0  0  0  0  0  0
  153.1013  136.8699  158.4495 C   0  0  0  0  0  0  0  0  0  0  0  0
  153.6291  136.9096  159.8544 C   0  0  0  0  0  0  0  0  0  0  0  0
  153.7337  138.0127  160.6641 C   0  0  0  0  0  0  0  0  0  0  0  0
  154.3907  137.6113  162.2251 S   0  0  0  0  0  0  0  0  0  0  0  0
  154.5136  135.9226  161.7177 C   0  0  0  0  0  0  0  0  0  0  0  0
  155.0385  134.7964  162.5757 C   0  0  0  0  0  0  0  0  0  0  0  0
  154.8655  133.4535  161.8397 C   0  0  0  0  0  0  0  0  0  0  0  0
  154.2932  134.7764  163.9243 C   0  0  0  0  0  0  0  0  0  0  0  0
  156.5426  134.9738  162.8762 C   0  0  0  0  0  0  0  0  0  0  0  0
  154.0821  135.7361  160.4650 N   0  0  0  0  0  0  0  0  0  0  0  0
  151.5173  139.9721  155.5276 C   0  0  0  0  0  0  0  0  0  0  0  0
  150.6578  140.2600  154.6650 O   0  0  0  0  0  0  0  0  0  0  0  0
  152.7445  139.8554  155.3168 O   0  5  0  0  0  0  0  0  0  0  0  0
  149.9373  139.6603  156.9047 H   0  0  0  0  0  0  0  0  0  0  0  0
  150.9637  141.8515  157.5280 H   0  0  0  0  0  0  0  0  0  0  0  0
  152.4235  141.0183  158.0563 H   0  0  0  0  0  0  0  0  0  0  0  0
  150.8987  140.7487  158.8958 H   0  0  0  0  0  0  0  0  0  0  0  0
  150.9086  137.7046  157.4699 H   0  0  0  0  0  0  0  0  0  0  0  0
  152.2008  136.2568  158.3904 H   0  0  0  0  0  0  0  0  0  0  0  0
  153.8285  136.4134  157.7768 H   0  0  0  0  0  0  0  0  0  0  0  0
  153.4564  139.0321  160.4397 H   0  0  0  0  0  0  0  0  0  0  0  0
  155.2511  132.6225  162.4313 H   0  0  0  0  0  0  0  0  0  0  0  0
  155.3944  133.4533  160.8858 H   0  0  0  0  0  0  0  0  0  0  0  0
  153.8155  133.2435  161.6328 H   0  0  0  0  0  0  0  0  0  0  0  0
  153.2237  134.6127  163.7875 H   0  0  0  0  0  0  0  0  0  0  0  0
  154.4151  135.7195  164.4588 H   0  0  0  0  0  0  0  0  0  0  0  0
  154.6624  133.9801  164.5718 H   0  0  0  0  0  0  0  0  0  0  0  0
  156.9208  134.1595  163.4955 H   0  0  0  0  0  0  0  0  0  0  0  0
  156.7393  135.9028  163.4128 H   0  0  0  0  0  0  0  0  0  0  0  0
  157.1377  134.9841  161.9621 H   0  0  0  0  0  0  0  0  0  0  0  0
  1  2  1  0  0  0  0
  1 20  1  0  0  0  0
  1 21  1  0  0  0  0
  1 22  1  0  0  0  0
  2 19  1  0  0  0  0
  2  3  1  0  0  0  0
  2 16  1  0  0  0  0
  3  4  1  0  0  0  0
  3 23  1  0  0  0  0
  4  5  2  0  0  0  0
  4  6  1  0  0  0  0
  6  7  1  0  0  0  0
  6 24  1  0  0  0  0
  6 25  1  0  0  0  0
  7 15  1  0  0  0  0
  7  8  2  0  0  0  0
  8  9  1  0  0  0  0
  8 26  1  0  0  0  0
  9 10  1  0  0  0  0
 10 11  1  0  0  0  0
 10 15  2  0  0  0  0
 11 12  1  0  0  0  0
 11 13  1  0  0  0  0
 11 14  1  0  0  0  0
 12 27  1  0  0  0  0
 12 28  1  0  0  0  0
 12 29  1  0  0  0  0
 13 30  1  0  0  0  0
 13 31  1  0  0  0  0
 13 32  1  0  0  0  0
 14 33  1  0  0  0  0
 14 34  1  0  0  0  0
 14 35  1  0  0  0  0
 16 17  2  0  0  0  0
 16 18  1  0  0  0  0
M  CHG  1  18  -1
M  END
> <s_m_source_file>
AV-unprocessed.smi

> <i_m_source_file_index>
2708

> <i_lp_mmshare_version>
43012

> <i_f3d_flags>
0

> <s_epik_input>
Tz1DKFtPSF0pW0NASF0oW0NIM10pW05IXUMoPU8pW0NIMl1jMVtjSF1zYyhuMSlDKFtDSDNdKShbQ0gzXSlbQ0gzXQ==

> <s_epik_cmdline>
J2VwaWtfcHl0aG9uJywgJy1waCcsICc3LjAnLCAnLXRuJywgJzgnLCAnLW1hJywgJzIwMCcsICctbWV0YWxfYmluZGluZycsICctaW1hZScsICc8aW5maWxlLm1hZT4nLCAnLW9tYWUnLCAnPG91dGZpbGUubWFlPic=

> <r_lp_tautomer_probability>
1

> <r_epik_Ionization_Penalty>
0.000214174

> <r_epik_Ionization_Penalty_Charging>
0.000167453

> <r_epik_Ionization_Penalty_Neutral>
4.67216e-05

> <r_epik_State_Penalty>
-0

> <r_epik_Charging_Adjusted_Penalty>
0.000167453

> <i_epik_Tot_Q>
-1

> <i_epik_Tot_abs_Q>
1

> <r_epik_Metal_State_Penalty>
-0

> <b_epik_Metal_Only>
0

> <s_lp_Force_Field>
OPLS_2005

> <r_lp_Energy>
-5.26793

> <b_lp_Chiralities_Consistent>
1

> <s_lp_Variant>
AV-unprocessed.smi:2708-1

> <Gold.Version>
5.8.1

> <Gold.Id.Protein>
6NUR|6NUR_protein|mol2

> <Gold.PLP.Fitness>
37.6466

> <Gold.PLP.PLP>
-25.6532

> <Gold.PLP.part.hbond>
-4.8734

> <Gold.PLP.part.metal>
0.0000

> <Gold.PLP.part.buried>
-2.1272

> <Gold.PLP.part.nonpolar>
-18.2940

> <Gold.PLP.part.repulsive>
0.1166

> <Gold.PLP.ligand.clash>
0.0000

> <Gold.PLP.ligand.torsion>
0.6612

> <Gold.PLP.Chemscore.Hbond>
4.4135

> <Gold.PLP.Chemscore.CHOScore>
0.0000

> <Gold.PLP.Chemscore.Metal>
0.0000

> <Gold.Chemscore.Hbonds>
donor molecule, donor type, donor heavy atom, donor atom, acceptor molecule, acceptor atom, score
      P1  H  6896  6909       L1    15  0.85
      P1  H  7989  7998       L1    17  1.00
      P1  H  7997  8008       L1     5  0.64
      P1  H  7997  8009       L1    18  2.00

> <Gold.PLP.Chemscore.Internal.Correction>
0.0752

> <Gold.Rescore>
     Score         DG    S(hbond)    S(metal)    S(lipo)     H(rot)  DE(clash)    DE(int)     intcor
     12.91     -16.67       2.75        0.00      66.42       2.25       0.00       3.76       ----

> <Gold.Chemscore.Fitness>
12.9067

> <Gold.Chemscore.DG>
-16.6661

> <Gold.Chemscore.ZeroCoef>
-5.4800

> <Gold.Chemscore.Hbond>
2.7452

> <Gold.Chemscore.Metal>
0.0000

> <Gold.Chemscore.Lipo>
66.4238

> <Gold.Chemscore.Internal_Hbond>
0.0000

> <Gold.Chemscore.DEClash>
0.0015

> <Gold.Chemscore.DEInternal>
3.7580

> <Gold.Chemscore.Rot>
2.2478

> <Gold.Chemscore.Internal.Correction>
   9.000000E+99

> <Gold.Chemscore.Hbonds>
donor molecule, donor type, donor heavy atom, donor atom, acceptor molecule, acceptor atom, score
      P1  H  6896  6909       L1    15  0.14
      P1  H  7989  7998       L1    17  0.25
      P1  H  7997  8008       L1     5  0.64
      P1  H  7997  8009       L1    18  0.95

> <Gold.Chemscore.Hbond.Weighted>
-9.1690

> <Gold.Chemscore.Metal.Weighted>
-0.0000

> <Gold.Chemscore.Lipo.Weighted>
-7.7716

> <Gold.Chemscore.Internal_Hbond.Weighted>
0.0000

> <Gold.Chemscore.DEClash.Weighted>
0.0015

> <Gold.Chemscore.DEInternal.Weighted>
3.7580

> <Gold.Chemscore.Rot.Weighted>
5.7544

> <Gold.Chemscore.Internal.Correction.Weighted>
   9.000000E+99

> <Gold.Protein.RotatedTorsions>
[ 6907 6896 6895 6894 ] final -174.29 input  -60.11 | X-H torsion
[ 7974 7965 7964 7962 ] final  -41.43 input  175.53 | X-H torsion
[ 8008 7997 7996 7995 ] final -123.75 input   59.86 | X-H torsion
[ 10167 10162 10161 10158 ] final -165.08 input  -65.29 | X-H torsion
[ 10718 10713 10712 10709 ] final -110.57 input   66.30 | X-H torsion
[ 10763 10752 10751 10750 ] final  -75.40 input  -60.55 | X-H torsion
[ 11005 11000 10999 10996 ] final -104.89 input  -57.11 | X-H torsion

> <Gold.Protein.ActiveResidues>
 VAL166  LYS551  ARG553  GLY616  TRP617  ASP618  TYR619  PRO620  LYS621  CYS622 
 ASP623  PHE694  ASN695  SER759  ASP760  ASP761  ALA762  ILE779  LEU786  VAL792 
 PHE793  MET794  SER795  GLU796  ALA797  LYS798  CYS799  TRP800  GLU811  SER814 

> <Gold.Protein.RotatedAtoms>
  151.5700  133.3391  159.2987 H   0  0  0  0  0  0  0  0  0  0  0  0  # atno 6907 bound_to 6896
  150.8373  134.7654  159.6914 H   0  0  0  0  0  0  0  0  0  0  0  0  # atno 6908 bound_to 6896
  152.4447  134.5526  159.9923 H   0  0  0  0  0  0  0  0  0  0  0  0  # atno 6909 bound_to 6896
  146.0211  140.6848  142.9178 H   0  0  0  0  0  0  0  0  0  0  0  0  # atno 7974 bound_to 7965
  155.1857  140.0412  157.2890 H   0  0  0  0  0  0  0  0  0  0  0  0  # atno 8008 bound_to 7997
  154.6173  140.2492  155.7565 H   0  0  0  0  0  0  0  0  0  0  0  0  # atno 8009 bound_to 7997
  156.2414  140.2902  156.0464 H   0  0  0  0  0  0  0  0  0  0  0  0  # atno 8010 bound_to 7997
  139.6206  144.0632  152.1929 H   0  0  0  0  0  0  0  0  0  0  0  0  # atno 10167 bound_to 10162
  156.0598  130.5822  150.8255 H   0  0  0  0  0  0  0  0  0  0  0  0  # atno 10718 bound_to 10713
  154.4861  135.5832  153.6424 H   0  0  0  0  0  0  0  0  0  0  0  0  # atno 10763 bound_to 10752
  152.9855  135.6101  154.3185 H   0  0  0  0  0  0  0  0  0  0  0  0  # atno 10764 bound_to 10752
  154.3080  135.2845  155.2559 H   0  0  0  0  0  0  0  0  0  0  0  0  # atno 10765 bound_to 10752
  141.1079  133.8761  157.1666 H   0  0  0  0  0  0  0  0  0  0  0  0  # atno 11005 bound_to 11000
  144.6990  140.3568  143.7171 LP  0  0  0  0  0  0  0  0  0  0  0  0  # atno 17320 bound_to 7965
  145.7191  139.1705  143.2495 LP  0  0  0  0  0  0  0  0  0  0  0  0  # atno 17321 bound_to 7965
  140.0273  144.6108  150.7517 LP  0  0  0  0  0  0  0  0  0  0  0  0  # atno 17342 bound_to 10162
  140.7379  143.2772  151.3707 LP  0  0  0  0  0  0  0  0  0  0  0  0  # atno 17343 bound_to 10162
  157.5597  131.0945  150.9576 LP  0  0  0  0  0  0  0  0  0  0  0  0  # atno 17370 bound_to 10713
  156.9817  130.5529  149.5297 LP  0  0  0  0  0  0  0  0  0  0  0  0  # atno 17371 bound_to 10713
  139.9958  135.0047  157.0080 LP  0  0  0  0  0  0  0  0  0  0  0  0  # atno 17394 bound_to 11000
  140.4853  134.1248  155.7223 LP  0  0  0  0  0  0  0  0  0  0  0  0  # atno 17395 bound_to 11000

$$$$
