AV-unprocessed.smi:3232|AV-procd|sdf|12344|dock1
  -GOLD-   2272018203D 1   1.00000     0.00000
 Structure written by MMmdl.
 40 41  0  0  0  0  0  0  0  0  2 V2000
  146.5063  128.9437  152.1078 C   0  0  0  0  0  0  0  0  0  0  0  0
  146.8452  130.4294  152.2844 C   0  0  0  0  0  0  0  0  0  0  0  0
  146.2015  131.2711  151.2457 N   0  3  1  0  0  0  0  0  0  0  0  0
  144.7267  131.1571  151.1537 C   0  0  0  0  0  0  0  0  0  0  0  0
  144.2134  132.5106  150.6427 C   0  0  0  0  0  0  0  0  0  0  0  0
  145.4739  133.3075  150.3116 C   0  0  0  0  0  0  0  0  0  0  0  0
  146.5378  132.7163  151.2450 C   0  0  1  0  0  0  0  0  0  0  0  0
  146.5347  133.3418  152.6648 C   0  0  0  0  0  0  0  0  0  0  0  0
  147.8652  133.7684  153.0877 N   0  0  0  0  0  0  0  0  0  0  0  0
  148.6467  133.1222  153.9691 C   0  0  0  0  0  0  0  0  0  0  0  0
  148.2910  132.0971  154.5521 O   0  0  0  0  0  0  0  0  0  0  0  0
  150.0295  133.7415  154.2367 C   0  0  1  0  0  0  0  0  0  0  0  0
  149.9673  135.2547  154.5286 C   0  0  0  0  0  0  0  0  0  0  0  0
  150.7232  133.0148  155.2938 N   0  0  0  0  0  0  0  0  0  0  0  0
  151.1998  133.4474  156.4631 C   0  0  0  0  0  0  0  0  0  0  0  0
  151.8177  132.5135  157.1718 N   0  0  0  0  0  0  0  0  0  0  0  0
  151.6812  131.4537  156.3207 C   0  0  0  0  0  0  0  0  0  0  0  0
  151.0421  131.7016  155.1776 N   0  0  0  0  0  0  0  0  0  0  0  0
  147.0272  128.3386  152.8502 H   0  0  0  0  0  0  0  0  0  0  0  0
  146.8031  128.5855  151.1216 H   0  0  0  0  0  0  0  0  0  0  0  0
  145.4383  128.7581  152.2260 H   0  0  0  0  0  0  0  0  0  0  0  0
  146.5516  130.7624  153.2807 H   0  0  0  0  0  0  0  0  0  0  0  0
  147.9270  130.5494  152.2131 H   0  0  0  0  0  0  0  0  0  0  0  0
  144.4612  130.3438  150.4776 H   0  0  0  0  0  0  0  0  0  0  0  0
  144.2885  130.9378  152.1286 H   0  0  0  0  0  0  0  0  0  0  0  0
  143.5534  132.4086  149.7806 H   0  0  0  0  0  0  0  0  0  0  0  0
  143.6525  133.0153  151.4305 H   0  0  0  0  0  0  0  0  0  0  0  0
  145.7576  133.1150  149.2758 H   0  0  0  0  0  0  0  0  0  0  0  0
  145.3333  134.3834  150.4073 H   0  0  0  0  0  0  0  0  0  0  0  0
  147.5296  132.8479  150.8100 H   0  0  0  0  0  0  0  0  0  0  0  0
  145.8202  134.1646  152.7239 H   0  0  0  0  0  0  0  0  0  0  0  0
  146.2071  132.6069  153.3999 H   0  0  0  0  0  0  0  0  0  0  0  0
  148.2328  134.6050  152.6578 H   0  0  0  0  0  0  0  0  0  0  0  0
  150.6129  133.6132  153.3235 H   0  0  0  0  0  0  0  0  0  0  0  0
  149.4974  135.7966  153.7070 H   0  0  0  0  0  0  0  0  0  0  0  0
  150.9686  135.6662  154.6582 H   0  0  0  0  0  0  0  0  0  0  0  0
  149.4017  135.4734  155.4353 H   0  0  0  0  0  0  0  0  0  0  0  0
  151.0969  134.4680  156.8012 H   0  0  0  0  0  0  0  0  0  0  0  0
  152.0699  130.4718  156.5476 H   0  0  0  0  0  0  0  0  0  0  0  0
  146.5481  130.9334  150.3591 H   0  0  0  0  0  0  0  0  0  0  0  0
  1  2  1  0  0  0  0
  1 19  1  0  0  0  0
  1 20  1  0  0  0  0
  1 21  1  0  0  0  0
  2  3  1  0  0  0  0
  2 22  1  0  0  0  0
  2 23  1  0  0  0  0
  3  7  1  0  0  0  0
  3  4  1  0  0  0  0
  3 40  1  0  0  0  0
  4  5  1  0  0  0  0
  4 24  1  0  0  0  0
  4 25  1  0  0  0  0
  5  6  1  0  0  0  0
  5 26  1  0  0  0  0
  5 27  1  0  0  0  0
  6  7  1  0  0  0  0
  6 28  1  0  0  0  0
  6 29  1  0  0  0  0
  7  8  1  0  0  0  0
  7 30  1  0  0  0  0
  8  9  1  0  0  0  0
  8 31  1  0  0  0  0
  8 32  1  0  0  0  0
  9 10  1  0  0  0  0
  9 33  1  0  0  0  0
 10 11  2  0  0  0  0
 10 12  1  0  0  0  0
 12 13  1  0  0  0  0
 12 14  1  0  0  0  0
 12 34  1  0  0  0  0
 13 35  1  0  0  0  0
 13 36  1  0  0  0  0
 13 37  1  0  0  0  0
 14 18  1  0  0  0  0
 14 15  1  0  0  0  0
 15 16  2  0  0  0  0
 15 38  1  0  0  0  0
 16 17  1  0  0  0  0
 17 18  2  0  0  0  0
 17 39  1  0  0  0  0
M  CHG  1   3   1
M  END
> <s_m_source_file>
AV-unprocessed.smi

> <i_m_source_file_index>
3232

> <i_lp_mmshare_version>
43012

> <i_f3d_flags>
0

> <s_epik_input>
W0NIM11bQ0gyXU4xW0NIMl1bQ0gyXVtDSDJdW0NASF0xW0NIMl1bTkhdQyg9TylbQ0BIXShbQ0gzXSluMltjSF1uW2NIXW4y

> <s_epik_cmdline>
J2VwaWtfcHl0aG9uJywgJy1waCcsICc3LjAnLCAnLXRuJywgJzgnLCAnLW1hJywgJzIwMCcsICctbWV0YWxfYmluZGluZycsICctaW1hZScsICc8aW5maWxlLm1hZT4nLCAnLW9tYWUnLCAnPG91dGZpbGUubWFlPic=

> <r_lp_tautomer_probability>
1

> <r_epik_Ionization_Penalty>
0.00177695

> <r_epik_Ionization_Penalty_Charging>
0.00176881

> <r_epik_Ionization_Penalty_Neutral>
8.13528e-06

> <r_epik_State_Penalty>
0.00119827

> <r_epik_Charging_Adjusted_Penalty>
0.00296709

> <i_epik_Tot_Q>
1

> <i_epik_Tot_abs_Q>
1

> <r_epik_Metal_State_Penalty>
-0

> <b_epik_Metal_Only>
0

> <s_lp_Force_Field>
OPLS_2005

> <r_lp_Energy>
36.9304

> <b_lp_Chiralities_Consistent>
1

> <s_lp_Variant>
AV-unprocessed.smi:3232-6

> <Gold.Version>
5.8.1

> <Gold.Id.Protein>
6NUR|6NUR_protein|mol2

> <Gold.PLP.Fitness>
35.2746

> <Gold.PLP.PLP>
-31.1095

> <Gold.PLP.part.hbond>
-2.5518

> <Gold.PLP.part.metal>
0.0000

> <Gold.PLP.part.buried>
-2.1823

> <Gold.PLP.part.nonpolar>
-26.2303

> <Gold.PLP.part.repulsive>
0.0489

> <Gold.PLP.ligand.clash>
0.0000

> <Gold.PLP.ligand.torsion>
1.0076

> <Gold.PLP.Chemscore.Hbond>
2.0000

> <Gold.PLP.Chemscore.CHOScore>
0.0000

> <Gold.PLP.Chemscore.Metal>
0.0000

> <Gold.Chemscore.Hbonds>
donor molecule, donor type, donor heavy atom, donor atom, acceptor molecule, acceptor atom, score
      L1  H     3    40       P1 10747  0.01
      L1  H     9    33       P1  7948  1.00
      P1  H  6896  6909       L1    16  0.50

> <Gold.PLP.Chemscore.Internal.Correction>
0.1803

> <Gold.Rescore>
     Score         DG    S(hbond)    S(metal)    S(lipo)     H(rot)  DE(clash)    DE(int)     intcor
      9.77     -12.33       1.71        0.00      64.11       2.49       0.20       2.36       ----

> <Gold.Chemscore.Fitness>
9.7667

> <Gold.Chemscore.DG>
-12.3289

> <Gold.Chemscore.ZeroCoef>
-5.4800

> <Gold.Chemscore.Hbond>
1.7120

> <Gold.Chemscore.Metal>
0.0000

> <Gold.Chemscore.Lipo>
64.1085

> <Gold.Chemscore.Internal_Hbond>
0.0000

> <Gold.Chemscore.DEClash>
0.1978

> <Gold.Chemscore.DEInternal>
2.3644

> <Gold.Chemscore.Rot>
2.4882

> <Gold.Chemscore.Internal.Correction>
   9.000000E+99

> <Gold.Chemscore.Hbonds>
donor molecule, donor type, donor heavy atom, donor atom, acceptor molecule, acceptor atom, score
      L1  H     3    40       P1 10747  0.02
      L1  H     9    33       P1  7948  0.40
      P1  H  6896  6909       L1    16  0.12

> <Gold.Chemscore.Hbond.Weighted>
-5.7180

> <Gold.Chemscore.Metal.Weighted>
-0.0000

> <Gold.Chemscore.Lipo.Weighted>
-7.5007

> <Gold.Chemscore.Internal_Hbond.Weighted>
0.0000

> <Gold.Chemscore.DEClash.Weighted>
0.1978

> <Gold.Chemscore.DEInternal.Weighted>
2.3644

> <Gold.Chemscore.Rot.Weighted>
6.3697

> <Gold.Chemscore.Internal.Correction.Weighted>
   9.000000E+99

> <Gold.Protein.RotatedTorsions>
[ 6907 6896 6895 6894 ] final  -52.05 input  -60.11 | X-H torsion
[ 7974 7965 7964 7962 ] final  142.08 input  175.53 | X-H torsion
[ 8008 7997 7996 7995 ] final   56.80 input   59.86 | X-H torsion
[ 10167 10162 10161 10158 ] final  147.35 input  -65.29 | X-H torsion
[ 10718 10713 10712 10709 ] final  129.86 input   66.30 | X-H torsion
[ 10763 10752 10751 10750 ] final  -39.47 input  -60.55 | X-H torsion
[ 11005 11000 10999 10996 ] final  -51.96 input  -57.11 | X-H torsion

> <Gold.Protein.ActiveResidues>
 VAL166  LYS551  ARG553  GLY616  TRP617  ASP618  TYR619  PRO620  LYS621  CYS622 
 ASP623  PHE694  ASN695  SER759  ASP760  ASP761  ALA762  ILE779  LEU786  VAL792 
 PHE793  MET794  SER795  GLU796  ALA797  LYS798  CYS799  TRP800  GLU811  SER814 

> <Gold.Protein.RotatedAtoms>
  150.8554  134.7891  159.7041 H   0  0  0  0  0  0  0  0  0  0  0  0  # atno 6907 bound_to 6896
  152.4607  134.5187  159.9786 H   0  0  0  0  0  0  0  0  0  0  0  0  # atno 6908 bound_to 6896
  151.5300  133.3412  159.2952 H   0  0  0  0  0  0  0  0  0  0  0  0  # atno 6909 bound_to 6896
  144.9039  139.5385  143.5740 H   0  0  0  0  0  0  0  0  0  0  0  0  # atno 7974 bound_to 7965
  155.5234  140.3480  155.4411 H   0  0  0  0  0  0  0  0  0  0  0  0  # atno 8008 bound_to 7997
  156.0768  140.1376  156.9788 H   0  0  0  0  0  0  0  0  0  0  0  0  # atno 8009 bound_to 7997
  154.4558  140.0954  156.6727 H   0  0  0  0  0  0  0  0  0  0  0  0  # atno 8010 bound_to 7997
  139.4891  144.5762  151.6961 H   0  0  0  0  0  0  0  0  0  0  0  0  # atno 10167 bound_to 10162
  157.5115  131.1097  150.9285 H   0  0  0  0  0  0  0  0  0  0  0  0  # atno 10718 bound_to 10713
  153.9300  135.6773  153.4746 H   0  0  0  0  0  0  0  0  0  0  0  0  # atno 10763 bound_to 10752
  153.0984  135.4840  154.8819 H   0  0  0  0  0  0  0  0  0  0  0  0  # atno 10764 bound_to 10752
  154.7433  135.3166  154.8647 H   0  0  0  0  0  0  0  0  0  0  0  0  # atno 10765 bound_to 10752
  141.0899  133.6635  156.3953 H   0  0  0  0  0  0  0  0  0  0  0  0  # atno 11005 bound_to 11000
  146.3123  139.7792  142.9010 LP  0  0  0  0  0  0  0  0  0  0  0  0  # atno 17320 bound_to 7965
  145.3569  141.0318  143.3307 LP  0  0  0  0  0  0  0  0  0  0  0  0  # atno 17321 bound_to 7965
  140.5359  144.0657  150.6070 LP  0  0  0  0  0  0  0  0  0  0  0  0  # atno 17342 bound_to 10162
  140.3663  143.2880  152.0328 LP  0  0  0  0  0  0  0  0  0  0  0  0  # atno 17343 bound_to 10162
  156.9924  130.5568  149.5304 LP  0  0  0  0  0  0  0  0  0  0  0  0  # atno 17370 bound_to 10713
  156.0292  130.5385  150.8490 LP  0  0  0  0  0  0  0  0  0  0  0  0  # atno 17371 bound_to 10713
  140.5277  134.6243  157.5339 LP  0  0  0  0  0  0  0  0  0  0  0  0  # atno 17394 bound_to 11000
  139.9723  134.7273  156.0018 LP  0  0  0  0  0  0  0  0  0  0  0  0  # atno 17395 bound_to 11000

$$$$
