AV-unprocessed.smi:2188|AV-procd|sdf|8880|dock6
  -GOLD-   2272012 83D 1   1.00000     0.00000
 Structure written by MMmdl.
 39 41  0  0  0  0  0  0  0  0  1 V2000
  154.6932  140.7820  162.2734 O   0  0  0  0  0  0  0  0  0  0  0  0
  154.1112  140.2941  161.3030 C   0  0  0  0  0  0  0  0  0  0  0  0
  154.1861  138.9792  161.0195 N   0  0  0  0  0  0  0  0  0  0  0  0
  154.8995  137.9714  161.7998 C   0  0  0  0  0  0  0  0  0  0  0  0
  154.1271  137.5698  163.0705 C   0  0  0  0  0  0  0  0  0  0  0  0
  154.0194  136.0676  163.2661 C   0  0  0  0  0  0  0  0  0  0  0  0
  153.3764  135.5249  164.3981 C   0  0  0  0  0  0  0  0  0  0  0  0
  153.3217  134.1253  164.5413 C   0  0  0  0  0  0  0  0  0  0  0  0
  153.9112  133.3258  163.5415 C   0  0  0  0  0  0  0  0  0  0  0  0
  154.5261  133.8339  162.4520 N   0  0  0  0  0  0  0  0  0  0  0  0
  154.5771  135.1771  162.3242 C   0  0  0  0  0  0  0  0  0  0  0  0
  153.2759  141.0486  160.3540 C   0  0  0  0  0  0  0  0  0  0  0  0
  153.3638  142.4044  160.3370 C   0  0  0  0  0  0  0  0  0  0  0  0
  152.5669  143.2045  159.4403 C   0  0  0  0  0  0  0  0  0  0  0  0
  151.7467  142.5722  158.5941 C   0  0  0  0  0  0  0  0  0  0  0  0
  151.6294  141.1843  158.5367 N   0  0  0  0  0  0  0  0  0  0  0  0
  150.7583  140.6388  157.5003 C   0  0  0  0  0  0  0  0  0  0  0  0
  149.9851  139.4434  158.0277 C   0  0  0  0  0  0  0  0  0  0  0  0
  151.2410  138.1799  158.4395 S   0  0  0  0  0  0  0  0  0  0  0  0
  150.5739  137.0936  159.1731 O   0  0  0  0  0  0  0  0  0  0  0  0
  151.9951  137.8684  157.2150 O   0  0  0  0  0  0  0  0  0  0  0  0
  152.2168  139.0561  159.4808 N   0  0  0  0  0  0  0  0  0  0  0  0
  152.3583  140.3506  159.4316 C   0  0  0  0  0  0  0  0  0  0  0  0
  153.6913  138.6494  160.2037 H   0  0  0  0  0  0  0  0  0  0  0  0
  155.0397  137.0945  161.1676 H   0  0  0  0  0  0  0  0  0  0  0  0
  155.9008  138.3174  162.0616 H   0  0  0  0  0  0  0  0  0  0  0  0
  154.6054  138.0099  163.9466 H   0  0  0  0  0  0  0  0  0  0  0  0
  153.1209  137.9890  163.0342 H   0  0  0  0  0  0  0  0  0  0  0  0
  152.9411  136.1679  165.1491 H   0  0  0  0  0  0  0  0  0  0  0  0
  152.8421  133.6748  165.3974 H   0  0  0  0  0  0  0  0  0  0  0  0
  153.8879  132.2489  163.6194 H   0  0  0  0  0  0  0  0  0  0  0  0
  155.0820  135.5530  161.4464 H   0  0  0  0  0  0  0  0  0  0  0  0
  154.0454  142.9287  160.9917 H   0  0  0  0  0  0  0  0  0  0  0  0
  152.6299  144.2826  159.4521 H   0  0  0  0  0  0  0  0  0  0  0  0
  151.1260  143.1168  157.8972 H   0  0  0  0  0  0  0  0  0  0  0  0
  150.0471  141.3926  157.1608 H   0  0  0  0  0  0  0  0  0  0  0  0
  151.3581  140.3630  156.6324 H   0  0  0  0  0  0  0  0  0  0  0  0
  149.4082  139.6872  158.9204 H   0  0  0  0  0  0  0  0  0  0  0  0
  149.3090  139.0344  157.2772 H   0  0  0  0  0  0  0  0  0  0  0  0
  1  2  2  0  0  0  0
  2  3  1  0  0  0  0
  2 12  1  0  0  0  0
  3  4  1  0  0  0  0
  3 24  1  0  0  0  0
  4  5  1  0  0  0  0
  4 25  1  0  0  0  0
  4 26  1  0  0  0  0
  5  6  1  0  0  0  0
  5 27  1  0  0  0  0
  5 28  1  0  0  0  0
  6 11  1  0  0  0  0
  6  7  2  0  0  0  0
  7  8  1  0  0  0  0
  7 29  1  0  0  0  0
  8  9  2  0  0  0  0
  8 30  1  0  0  0  0
  9 10  1  0  0  0  0
  9 31  1  0  0  0  0
 10 11  2  0  0  0  0
 11 32  1  0  0  0  0
 12 23  1  0  0  0  0
 12 13  2  0  0  0  0
 13 14  1  0  0  0  0
 13 33  1  0  0  0  0
 14 15  2  0  0  0  0
 14 34  1  0  0  0  0
 15 16  1  0  0  0  0
 15 35  1  0  0  0  0
 16 23  1  0  0  0  0
 16 17  1  0  0  0  0
 17 18  1  0  0  0  0
 17 36  1  0  0  0  0
 17 37  1  0  0  0  0
 18 19  1  0  0  0  0
 18 38  1  0  0  0  0
 18 39  1  0  0  0  0
 19 20  2  0  0  0  0
 19 21  2  0  0  0  0
 19 22  1  0  0  0  0
 22 23  2  0  0  0  0
M  END
> <s_m_source_file>
AV-unprocessed.smi

> <i_m_source_file_index>
2188

> <i_lp_mmshare_version>
43012

> <i_f3d_flags>
0

> <s_epik_input>
W0NIMl0xW0NIMl1TKD1PKSg9TylOPUMoTjEyKUMoPVtDSF1bQ0hdPVtDSF0yKUMoPU8pW05IXVtDSDJdW0NIMl1jM1tjSF1bY0hdW2NIXW5bY0hdMw==

> <s_epik_cmdline>
J2VwaWtfcHl0aG9uJywgJy1waCcsICc3LjAnLCAnLXRuJywgJzgnLCAnLW1hJywgJzIwMCcsICctbWV0YWxfYmluZGluZycsICctaW1hZScsICc8aW5maWxlLm1hZT4nLCAnLW9tYWUnLCAnPG91dGZpbGUubWFlPic=

> <r_epik_Ionization_Penalty>
0.00945125

> <r_epik_Ionization_Penalty_Charging>
8.06468e-09

> <r_epik_Ionization_Penalty_Neutral>
0.00945124

> <r_epik_State_Penalty>
0.0071398

> <r_epik_Charging_Adjusted_Penalty>
0.0071398

> <i_epik_Tot_Q>
0

> <i_epik_Tot_abs_Q>
0

> <r_epik_Metal_State_Penalty>
0.0479458

> <b_epik_Metal_Only>
0

> <s_lp_Force_Field>
OPLS_2005

> <r_lp_Energy>
29.0495

> <b_lp_Chiralities_Consistent>
1

> <s_lp_Variant>
AV-unprocessed.smi:2188-1

> <Gold.Version>
5.8.1

> <Gold.Id.Protein>
6NUR|6NUR_protein|mol2

> <Gold.PLP.Fitness>
44.8364

> <Gold.PLP.PLP>
-42.6907

> <Gold.PLP.part.hbond>
-2.0000

> <Gold.PLP.part.metal>
0.0000

> <Gold.PLP.part.buried>
-5.8405

> <Gold.PLP.part.nonpolar>
-35.3539

> <Gold.PLP.part.repulsive>
0.0076

> <Gold.PLP.ligand.clash>
0.0000

> <Gold.PLP.ligand.torsion>
0.5584

> <Gold.PLP.Chemscore.Hbond>
1.0000

> <Gold.PLP.Chemscore.CHOScore>
0.0000

> <Gold.PLP.Chemscore.Metal>
0.0000

> <Gold.Chemscore.Hbonds>
donor molecule, donor type, donor heavy atom, donor atom, acceptor molecule, acceptor atom, score
      P1  H  6896  6908       L1    20  0.52

> <Gold.PLP.Chemscore.Internal.Correction>
0.2625

> <Gold.Rescore>
     Score         DG    S(hbond)    S(metal)    S(lipo)     H(rot)  DE(clash)    DE(int)     intcor
     14.51     -16.85       1.00        0.00     100.87       1.47       0.04       2.30       ----

> <Gold.Chemscore.Fitness>
14.5127

> <Gold.Chemscore.DG>
-16.8507

> <Gold.Chemscore.ZeroCoef>
-5.4800

> <Gold.Chemscore.Hbond>
0.9961

> <Gold.Chemscore.Metal>
0.0000

> <Gold.Chemscore.Lipo>
100.8671

> <Gold.Chemscore.Internal_Hbond>
0.0000

> <Gold.Chemscore.DEClash>
0.0360

> <Gold.Chemscore.DEInternal>
2.3020

> <Gold.Chemscore.Rot>
1.4679

> <Gold.Chemscore.Internal.Correction>
   9.000000E+99

> <Gold.Chemscore.Hbonds>
donor molecule, donor type, donor heavy atom, donor atom, acceptor molecule, acceptor atom, score
      P1  H  6896  6908       L1    20  0.52

> <Gold.Chemscore.Hbond.Weighted>
-3.3270

> <Gold.Chemscore.Metal.Weighted>
-0.0000

> <Gold.Chemscore.Lipo.Weighted>
-11.8015

> <Gold.Chemscore.Internal_Hbond.Weighted>
0.0000

> <Gold.Chemscore.DEClash.Weighted>
0.0360

> <Gold.Chemscore.DEInternal.Weighted>
2.3020

> <Gold.Chemscore.Rot.Weighted>
3.7578

> <Gold.Chemscore.Internal.Correction.Weighted>
   9.000000E+99

> <Gold.Protein.RotatedTorsions>
[ 6907 6896 6895 6894 ] final -132.81 input  -60.11 | X-H torsion
[ 7974 7965 7964 7962 ] final -160.93 input  175.53 | X-H torsion
[ 8008 7997 7996 7995 ] final  -80.70 input   59.86 | X-H torsion
[ 10167 10162 10161 10158 ] final  -72.28 input  -65.29 | X-H torsion
[ 10718 10713 10712 10709 ] final  -93.53 input   66.30 | X-H torsion
[ 10763 10752 10751 10750 ] final   76.39 input  -60.55 | X-H torsion
[ 11005 11000 10999 10996 ] final  -76.77 input  -57.11 | X-H torsion

> <Gold.Protein.ActiveResidues>
 VAL166  LYS551  ARG553  GLY616  TRP617  ASP618  TYR619  PRO620  LYS621  CYS622 
 ASP623  PHE694  ASN695  SER759  ASP760  ASP761  ALA762  ILE779  LEU786  VAL792 
 PHE793  MET794  SER795  GLU796  ALA797  LYS798  CYS799  TRP800  GLU811  SER814 

> <Gold.Protein.RotatedAtoms>
  150.9667  133.6388  159.2744 H   0  0  0  0  0  0  0  0  0  0  0  0  # atno 6907 bound_to 6896
  151.3691  135.0918  159.9469 H   0  0  0  0  0  0  0  0  0  0  0  0  # atno 6908 bound_to 6896
  152.5168  133.9224  159.7595 H   0  0  0  0  0  0  0  0  0  0  0  0  # atno 6909 bound_to 6896
  144.7409  140.3470  143.6123 H   0  0  0  0  0  0  0  0  0  0  0  0  # atno 7974 bound_to 7965
  154.5909  140.0659  156.9237 H   0  0  0  0  0  0  0  0  0  0  0  0  # atno 8008 bound_to 7997
  155.2297  140.3336  155.4286 H   0  0  0  0  0  0  0  0  0  0  0  0  # atno 8009 bound_to 7997
  156.2255  140.1817  156.7358 H   0  0  0  0  0  0  0  0  0  0  0  0  # atno 8010 bound_to 7997
  140.5205  143.2332  151.7438 H   0  0  0  0  0  0  0  0  0  0  0  0  # atno 10167 bound_to 10162
  156.0014  130.5031  150.5791 H   0  0  0  0  0  0  0  0  0  0  0  0  # atno 10718 bound_to 10713
  153.0722  135.4953  154.8329 H   0  0  0  0  0  0  0  0  0  0  0  0  # atno 10763 bound_to 10752
  154.7038  135.3007  154.9303 H   0  0  0  0  0  0  0  0  0  0  0  0  # atno 10764 bound_to 10752
  154.0018  135.6765  153.4812 H   0  0  0  0  0  0  0  0  0  0  0  0  # atno 10765 bound_to 10752
  141.1656  133.6996  156.7719 H   0  0  0  0  0  0  0  0  0  0  0  0  # atno 11005 bound_to 11000
  145.7315  139.1737  143.2427 LP  0  0  0  0  0  0  0  0  0  0  0  0  # atno 17320 bound_to 7965
  146.1202  140.7318  142.9461 LP  0  0  0  0  0  0  0  0  0  0  0  0  # atno 17321 bound_to 7965
  139.4922  144.4262  151.9923 LP  0  0  0  0  0  0  0  0  0  0  0  0  # atno 17342 bound_to 10162
  140.3358  144.3262  150.5977 LP  0  0  0  0  0  0  0  0  0  0  0  0  # atno 17343 bound_to 10162
  157.3674  131.0760  151.1586 LP  0  0  0  0  0  0  0  0  0  0  0  0  # atno 17370 bound_to 10713
  157.2351  130.6543  149.5866 LP  0  0  0  0  0  0  0  0  0  0  0  0  # atno 17371 bound_to 10713
  140.2458  134.8579  157.3619 LP  0  0  0  0  0  0  0  0  0  0  0  0  # atno 17394 bound_to 11000
  140.1751  134.4560  155.7807 LP  0  0  0  0  0  0  0  0  0  0  0  0  # atno 17395 bound_to 11000

$$$$
