AV-unprocessed.smi:21|AV-procd|sdf|134|dock5
  -GOLD-   2262015323D 1   1.00000     0.00000
 Structure written by MMmdl.
 62 65  0  0  0  0  0  0  0  0  2 V2000
  143.6710  132.8115  148.4539 C   0  0  0  0  0  0  0  0  0  0  0  0
  144.5538  132.2426  149.4077 O   0  0  0  0  0  0  0  0  0  0  0  0
  144.0741  132.3164  150.7428 C   0  0  2  0  0  0  0  0  0  0  0  0
  143.7289  133.7679  151.0983 C   0  0  0  0  0  0  0  0  0  0  0  0
  144.5709  134.1237  152.3351 C   0  0  1  0  0  0  0  0  0  0  0  0
  143.8249  135.0052  153.3614 C   0  0  0  0  0  0  0  0  0  0  0  0
  144.7288  135.6406  154.3240 N   0  0  0  0  0  0  0  0  0  0  0  0
  144.5575  135.3375  155.7401 C   0  0  0  0  0  0  0  0  0  0  0  0
  145.5159  136.6873  153.9348 C   0  0  0  0  0  0  0  0  0  0  0  0
  145.3809  137.1538  152.6632 N   0  0  0  0  0  0  0  0  0  0  0  0
  146.1182  138.1752  152.2212 C   0  0  0  0  0  0  0  0  0  0  0  0
  147.0419  138.8778  152.8750 N   0  0  0  0  0  0  0  0  0  0  0  0
  147.1893  138.4270  154.1523 C   0  0  0  0  0  0  0  0  0  0  0  0
  146.4807  137.3480  154.7596 C   0  0  0  0  0  0  0  0  0  0  0  0
  146.9164  137.1997  156.0737 N   0  0  0  0  0  0  0  0  0  0  0  0
  147.8205  138.1263  156.2304 C   0  0  0  0  0  0  0  0  0  0  0  0
  148.0390  138.9173  155.1275 N   0  0  0  0  0  0  0  0  0  0  0  0
  148.9745  140.0232  155.0180 C   0  0  0  0  0  0  0  0  0  0  0  0
  150.1120  139.9537  156.0706 C   0  0  1  0  0  0  0  0  0  0  0  0
  151.3700  139.2613  155.4966 C   0  0  0  0  0  0  0  0  0  0  0  0
  151.9381  140.0172  154.4476 O   0  0  0  0  0  0  0  0  0  0  0  0
  150.4488  141.3291  156.7098 C   0  0  1  0  0  0  0  0  0  0  0  0
  149.3122  142.0396  157.4345 C   0  0  0  0  0  0  0  0  0  0  0  0
  150.0690  142.9328  158.4066 C   0  0  0  0  0  0  0  0  0  0  0  0
  151.1212  142.0922  158.8507 O   0  0  0  0  0  0  0  0  0  0  0  0
  151.5884  141.3258  157.7447 C   0  0  0  0  0  0  0  0  0  0  0  0
  144.9803  132.8240  152.9075 N   0  3  2  0  0  0  0  0  0  0  0  0
  146.1676  132.8790  153.7893 C   0  0  0  0  0  0  0  0  0  0  0  0
  145.1390  131.9035  151.7661 C   0  0  0  0  0  0  0  0  0  0  0  0
  143.1772  131.7055  150.8624 H   0  0  0  0  0  0  0  0  0  0  0  0
  145.4766  134.6292  151.9947 H   0  0  0  0  0  0  0  0  0  0  0  0
  144.1136  132.7395  147.4606 H   0  0  0  0  0  0  0  0  0  0  0  0
  143.4905  133.8663  148.6637 H   0  0  0  0  0  0  0  0  0  0  0  0
  142.7134  132.2903  148.4313 H   0  0  0  0  0  0  0  0  0  0  0  0
  143.9317  134.4568  150.2773 H   0  0  0  0  0  0  0  0  0  0  0  0
  142.6624  133.8357  151.3158 H   0  0  0  0  0  0  0  0  0  0  0  0
  143.2595  135.7762  152.8366 H   0  0  0  0  0  0  0  0  0  0  0  0
  143.0739  134.4263  153.8985 H   0  0  0  0  0  0  0  0  0  0  0  0
  145.5226  135.1684  156.2180 H   0  0  0  0  0  0  0  0  0  0  0  0
  143.9635  134.4343  155.8807 H   0  0  0  0  0  0  0  0  0  0  0  0
  144.0464  136.1539  156.2511 H   0  0  0  0  0  0  0  0  0  0  0  0
  145.9429  138.4722  151.1977 H   0  0  0  0  0  0  0  0  0  0  0  0
  148.3479  138.2644  157.1630 H   0  0  0  0  0  0  0  0  0  0  0  0
  149.3841  140.0181  154.0081 H   0  0  0  0  0  0  0  0  0  0  0  0
  148.4007  140.9443  155.1110 H   0  0  0  0  0  0  0  0  0  0  0  0
  149.7513  139.3230  156.8848 H   0  0  0  0  0  0  0  0  0  0  0  0
  152.1384  139.1471  156.2607 H   0  0  0  0  0  0  0  0  0  0  0  0
  151.1321  138.2610  155.1342 H   0  0  0  0  0  0  0  0  0  0  0  0
  152.8660  139.8402  154.4171 H   0  0  0  0  0  0  0  0  0  0  0  0
  150.7784  141.9992  155.9146 H   0  0  0  0  0  0  0  0  0  0  0  0
  148.6641  142.6015  156.7612 H   0  0  0  0  0  0  0  0  0  0  0  0
  148.6927  141.3450  157.9997 H   0  0  0  0  0  0  0  0  0  0  0  0
  150.4841  143.8042  157.8972 H   0  0  0  0  0  0  0  0  0  0  0  0
  149.4495  143.2770  159.2351 H   0  0  0  0  0  0  0  0  0  0  0  0
  151.8725  140.3297  158.0818 H   0  0  0  0  0  0  0  0  0  0  0  0
  152.4824  141.7927  157.3292 H   0  0  0  0  0  0  0  0  0  0  0  0
  147.0382  133.2645  153.2570 H   0  0  0  0  0  0  0  0  0  0  0  0
  146.4091  131.8824  154.1603 H   0  0  0  0  0  0  0  0  0  0  0  0
  145.9860  133.5187  154.6526 H   0  0  0  0  0  0  0  0  0  0  0  0
  145.0454  130.8606  152.0704 H   0  0  0  0  0  0  0  0  0  0  0  0
  146.1332  132.0396  151.3362 H   0  0  0  0  0  0  0  0  0  0  0  0
  144.2001  132.4842  153.4515 H   0  0  0  0  0  0  0  0  0  0  0  0
  1  2  1  0  0  0  0
  1 32  1  0  0  0  0
  1 33  1  0  0  0  0
  1 34  1  0  0  0  0
  2  3  1  0  0  0  0
  3 30  1  0  0  0  0
  3 29  1  0  0  0  0
  3  4  1  0  0  0  0
  4  5  1  0  0  0  0
  4 35  1  0  0  0  0
  4 36  1  0  0  0  0
  5 31  1  0  0  0  0
  5  6  1  0  0  0  0
  5 27  1  0  0  0  0
  6  7  1  0  0  0  0
  6 37  1  0  0  0  0
  6 38  1  0  0  0  0
  7  8  1  0  0  0  0
  7  9  1  0  0  0  0
  8 39  1  0  0  0  0
  8 40  1  0  0  0  0
  8 41  1  0  0  0  0
  9 14  1  0  0  0  0
  9 10  2  0  0  0  0
 10 11  1  0  0  0  0
 11 12  2  0  0  0  0
 11 42  1  0  0  0  0
 12 13  1  0  0  0  0
 13 17  1  0  0  0  0
 13 14  2  0  0  0  0
 14 15  1  0  0  0  0
 15 16  2  0  0  0  0
 16 17  1  0  0  0  0
 16 43  1  0  0  0  0
 17 18  1  0  0  0  0
 18 19  1  0  0  0  0
 18 44  1  0  0  0  0
 18 45  1  0  0  0  0
 19 20  1  0  0  0  0
 19 22  1  0  0  0  0
 19 46  1  0  0  0  0
 20 21  1  0  0  0  0
 20 47  1  0  0  0  0
 20 48  1  0  0  0  0
 21 49  1  0  0  0  0
 22 26  1  0  0  0  0
 22 23  1  0  0  0  0
 22 50  1  0  0  0  0
 23 24  1  0  0  0  0
 23 51  1  0  0  0  0
 23 52  1  0  0  0  0
 24 25  1  0  0  0  0
 24 53  1  0  0  0  0
 24 54  1  0  0  0  0
 25 26  1  0  0  0  0
 26 55  1  0  0  0  0
 26 56  1  0  0  0  0
 27 28  1  0  0  0  0
 27 29  1  0  0  0  0
 27 62  1  0  0  0  0
 28 57  1  0  0  0  0
 28 58  1  0  0  0  0
 28 59  1  0  0  0  0
 29 60  1  0  0  0  0
 29 61  1  0  0  0  0
M  CHG  1  27   1
M  END
> <s_m_source_file>
AV-unprocessed.smi

> <i_m_source_file_index>
21

> <i_lp_mmshare_version>
43012

> <i_f3d_flags>
0

> <s_epik_input>
W0NIM11PW0NASF0xW0NIMl1bQ0BIXShOKFtDSDNdKVtDSDJdMSlbQ0gyXU4oW0NIM10pYyhuW2NIXW4yKWMoYzIzKW5bY0hdbjNbQ0gyXVtDQEhdKFtDSDJdW09IXSlbQ0BASF00W0NIMl1bQ0gyXU9bQ0gyXTQ=

> <s_epik_cmdline>
J2VwaWtfcHl0aG9uJywgJy1waCcsICc3LjAnLCAnLXRuJywgJzgnLCAnLW1hJywgJzIwMCcsICctbWV0YWxfYmluZGluZycsICctaW1hZScsICc8aW5maWxlLm1hZT4nLCAnLW9tYWUnLCAnPG91dGZpbGUubWFlPic=

> <r_lp_tautomer_probability>
1

> <r_epik_Ionization_Penalty>
0.0157465

> <r_epik_Ionization_Penalty_Charging>
0.015354

> <r_epik_Ionization_Penalty_Neutral>
0.000392529

> <r_epik_State_Penalty>
0.0120612

> <r_epik_Charging_Adjusted_Penalty>
0.0274152

> <i_epik_Tot_Q>
1

> <i_epik_Tot_abs_Q>
1

> <r_epik_Metal_State_Penalty>
0.0121253

> <b_epik_Metal_Only>
0

> <s_lp_Force_Field>
OPLS_2005

> <r_lp_Energy>
60.5183

> <b_lp_Chiralities_Consistent>
1

> <s_lp_Variant>
AV-unprocessed.smi:21-14

> <Gold.Version>
5.8.1

> <Gold.Id.Protein>
6NUR|6NUR_protein|mol2

> <Gold.PLP.Fitness>
44.3664

> <Gold.PLP.PLP>
-34.5257

> <Gold.PLP.part.hbond>
-2.2521

> <Gold.PLP.part.metal>
0.0000

> <Gold.PLP.part.buried>
-7.6666

> <Gold.PLP.part.nonpolar>
-25.3793

> <Gold.PLP.part.repulsive>
0.6610

> <Gold.PLP.ligand.clash>
0.0000

> <Gold.PLP.ligand.torsion>
1.1840

> <Gold.PLP.Chemscore.Hbond>
2.9440

> <Gold.PLP.Chemscore.CHOScore>
0.9304

> <Gold.PLP.Chemscore.Metal>
0.0000

> <Gold.Chemscore.Hbonds>
donor molecule, donor type, donor heavy atom, donor atom, acceptor molecule, acceptor atom, score
      L1  H    27    62       P1 10957  1.39
      P1  H  7989  7998       L1    21  0.36
      L1  C    11    42       P1 10171  1.00

> <Gold.PLP.Chemscore.Internal.Correction>
0.5856

> <Gold.Rescore>
     Score         DG    S(hbond)    S(metal)    S(lipo)     H(rot)  DE(clash)    DE(int)     intcor
     11.30     -13.33       1.72        0.00      85.31       3.08       0.09       1.94       ----

> <Gold.Chemscore.Fitness>
11.2975

> <Gold.Chemscore.DG>
-13.3287

> <Gold.Chemscore.ZeroCoef>
-5.4800

> <Gold.Chemscore.Hbond>
1.7190

> <Gold.Chemscore.Metal>
0.0000

> <Gold.Chemscore.Lipo>
85.3117

> <Gold.Chemscore.Internal_Hbond>
0.0000

> <Gold.Chemscore.DEClash>
0.0936

> <Gold.Chemscore.DEInternal>
1.9375

> <Gold.Chemscore.Rot>
3.0758

> <Gold.Chemscore.Internal.Correction>
   9.000000E+99

> <Gold.Chemscore.Hbonds>
donor molecule, donor type, donor heavy atom, donor atom, acceptor molecule, acceptor atom, score
      L1  H    27    62       P1 10957  0.16
      P1  H  7989  7998       L1    21  0.22

> <Gold.Chemscore.Hbond.Weighted>
-5.7414

> <Gold.Chemscore.Metal.Weighted>
-0.0000

> <Gold.Chemscore.Lipo.Weighted>
-9.9815

> <Gold.Chemscore.Internal_Hbond.Weighted>
0.0000

> <Gold.Chemscore.DEClash.Weighted>
0.0936

> <Gold.Chemscore.DEInternal.Weighted>
1.9375

> <Gold.Chemscore.Rot.Weighted>
7.8741

> <Gold.Chemscore.Internal.Correction.Weighted>
   9.000000E+99

> <Gold.Protein.RotatedTorsions>
[ 6907 6896 6895 6894 ] final  -93.88 input  -60.11 | X-H torsion
[ 7974 7965 7964 7962 ] final  -85.21 input  175.53 | X-H torsion
[ 8008 7997 7996 7995 ] final  164.99 input   59.86 | X-H torsion
[ 10167 10162 10161 10158 ] final  129.47 input  -65.29 | X-H torsion
[ 10718 10713 10712 10709 ] final   71.38 input   66.30 | X-H torsion
[ 10763 10752 10751 10750 ] final   70.51 input  -60.55 | X-H torsion
[ 11005 11000 10999 10996 ] final  -48.48 input  -57.11 | X-H torsion

> <Gold.Protein.ActiveResidues>
 VAL166  LYS551  ARG553  GLY616  TRP617  ASP618  TYR619  PRO620  LYS621  CYS622 
 ASP623  PHE694  ASN695  SER759  ASP760  ASP761  ALA762  ILE779  LEU786  VAL792 
 PHE793  MET794  SER795  GLU796  ALA797  LYS798  CYS799  TRP800  GLU811  SER814 

> <Gold.Protein.RotatedAtoms>
  150.6931  134.1898  159.4280 H   0  0  0  0  0  0  0  0  0  0  0  0  # atno 6907 bound_to 6896
  151.9870  134.9997  160.0569 H   0  0  0  0  0  0  0  0  0  0  0  0  # atno 6908 bound_to 6896
  152.1703  133.4604  159.4942 H   0  0  0  0  0  0  0  0  0  0  0  0  # atno 6909 bound_to 6896
  145.4964  140.9550  143.1784 H   0  0  0  0  0  0  0  0  0  0  0  0  # atno 7974 bound_to 7965
  156.1836  140.1682  156.8227 H   0  0  0  0  0  0  0  0  0  0  0  0  # atno 8008 bound_to 7997
  154.5388  140.0741  156.8507 H   0  0  0  0  0  0  0  0  0  0  0  0  # atno 8009 bound_to 7997
  155.3256  140.3376  155.4242 H   0  0  0  0  0  0  0  0  0  0  0  0  # atno 8010 bound_to 7997
  139.5476  144.6787  151.4423 H   0  0  0  0  0  0  0  0  0  0  0  0  # atno 10167 bound_to 10162
  157.6448  130.9525  150.0781 H   0  0  0  0  0  0  0  0  0  0  0  0  # atno 10718 bound_to 10713
  153.0346  135.5171  154.7452 H   0  0  0  0  0  0  0  0  0  0  0  0  # atno 10763 bound_to 10752
  154.6440  135.2916  155.0071 H   0  0  0  0  0  0  0  0  0  0  0  0  # atno 10764 bound_to 10752
  154.0979  135.6640  153.4916 H   0  0  0  0  0  0  0  0  0  0  0  0  # atno 10765 bound_to 10752
  141.0703  133.6681  156.3448 H   0  0  0  0  0  0  0  0  0  0  0  0  # atno 11005 bound_to 11000
  144.7805  139.6537  143.7156 LP  0  0  0  0  0  0  0  0  0  0  0  0  # atno 17320 bound_to 7965
  146.2253  139.5711  142.9591 LP  0  0  0  0  0  0  0  0  0  0  0  0  # atno 17321 bound_to 7965
  140.6729  143.8253  150.7022 LP  0  0  0  0  0  0  0  0  0  0  0  0  # atno 17342 bound_to 10162
  140.1683  143.4216  152.2019 LP  0  0  0  0  0  0  0  0  0  0  0  0  # atno 17343 bound_to 10162
  156.1765  130.3648  149.9093 LP  0  0  0  0  0  0  0  0  0  0  0  0  # atno 17370 bound_to 10713
  156.7056  130.8950  151.3604 LP  0  0  0  0  0  0  0  0  0  0  0  0  # atno 17371 bound_to 10713
  140.5686  134.5862  157.5452 LP  0  0  0  0  0  0  0  0  0  0  0  0  # atno 17394 bound_to 11000
  139.9517  134.7605  156.0433 LP  0  0  0  0  0  0  0  0  0  0  0  0  # atno 17395 bound_to 11000

$$$$
