AV-unprocessed.smi:109|AV-procd|sdf|1052|dock2
  -GOLD-   2262018103D 1   1.00000     0.00000
 Structure written by MMmdl.
 58 61  0  0  0  0  0  0  0  0  1 V2000
  152.1501  139.5274  154.5943 O   0  0  0  0  0  0  0  0  0  0  0  0
  152.1200  139.9206  155.9492 C   0  0  0  0  0  0  0  0  0  0  0  0
  150.6850  140.2937  156.3542 C   0  0  0  0  0  0  0  0  0  0  0  0
  150.4456  141.8196  156.3806 C   0  0  1  0  0  0  0  0  0  0  0  0
  149.0355  142.1054  156.1159 N   0  0  0  0  0  0  0  0  0  0  0  0
  148.0765  141.1670  156.2798 C   0  0  0  0  0  0  0  0  0  0  0  0
  147.2851  141.1486  157.3839 N   0  0  0  0  0  0  0  0  0  0  0  0
  146.3371  140.2159  157.5107 C   0  0  0  0  0  0  0  0  0  0  0  0
  146.0174  139.2320  156.6678 N   0  0  0  0  0  0  0  0  0  0  0  0
  146.8098  139.2423  155.5571 C   0  0  0  0  0  0  0  0  0  0  0  0
  147.8565  140.1702  155.2942 C   0  0  0  0  0  0  0  0  0  0  0  0
  148.4510  139.8767  154.0744 N   0  0  0  0  0  0  0  0  0  0  0  0
  147.7901  138.8360  153.6440 C   0  0  0  0  0  0  0  0  0  0  0  0
  146.7836  138.3883  154.4709 N   0  0  0  0  0  0  0  0  0  0  0  0
  145.8611  137.2315  154.2254 C   0  0  2  0  0  0  0  0  0  0  0  0
  146.6087  136.1148  153.8437 O   0  0  0  0  0  0  0  0  0  0  0  0
  146.1963  135.6546  152.5594 C   0  0  1  0  0  0  0  0  0  0  0  0
  146.4154  134.1376  152.4240 C   0  0  0  0  0  0  0  0  0  0  0  0
  147.7882  133.8264  152.5329 O   0  0  0  0  0  0  0  0  0  0  0  0
  144.7585  136.1704  152.4010 C   0  0  1  0  0  0  0  0  0  0  0  0
  143.8247  135.3032  153.0179 O   0  0  0  0  0  0  0  0  0  0  0  0
  144.8072  137.5030  153.1316 C   0  0  2  0  0  0  0  0  0  0  0  0
  145.1547  138.5490  152.2417 O   0  0  0  0  0  0  0  0  0  0  0  0
  150.9097  142.5140  157.6902 C   0  0  0  0  0  0  0  0  0  0  0  0
  151.3317  143.9829  157.4704 C   0  0  0  0  0  0  0  0  0  0  0  0
  151.6832  144.6710  158.7997 C   0  0  0  0  0  0  0  0  0  0  0  0
  152.7783  143.8998  159.5532 C   0  0  0  0  0  0  0  0  0  0  0  0
  152.3740  142.4337  159.7735 C   0  0  0  0  0  0  0  0  0  0  0  0
  152.0202  141.7468  158.4440 C   0  0  0  0  0  0  0  0  0  0  0  0
  145.4099  137.0292  155.1976 H   0  0  0  0  0  0  0  0  0  0  0  0
  146.8205  136.1626  151.8235 H   0  0  0  0  0  0  0  0  0  0  0  0
  144.4769  136.2776  151.3525 H   0  0  0  0  0  0  0  0  0  0  0  0
  143.8546  137.7613  153.5962 H   0  0  0  0  0  0  0  0  0  0  0  0
  153.0135  139.1978  154.3969 H   0  0  0  0  0  0  0  0  0  0  0  0
  152.4925  139.1009  156.5642 H   0  0  0  0  0  0  0  0  0  0  0  0
  152.7971  140.7644  156.0845 H   0  0  0  0  0  0  0  0  0  0  0  0
  149.9794  139.8141  155.6745 H   0  0  0  0  0  0  0  0  0  0  0  0
  150.4940  139.8702  157.3397 H   0  0  0  0  0  0  0  0  0  0  0  0
  151.0397  142.2335  155.5652 H   0  0  0  0  0  0  0  0  0  0  0  0
  148.8385  143.0283  155.7560 H   0  0  0  0  0  0  0  0  0  0  0  0
  145.7485  140.2658  158.4147 H   0  0  0  0  0  0  0  0  0  0  0  0
  148.0193  138.3631  152.7001 H   0  0  0  0  0  0  0  0  0  0  0  0
  145.8830  133.6157  153.2197 H   0  0  0  0  0  0  0  0  0  0  0  0
  146.0251  133.7571  151.4800 H   0  0  0  0  0  0  0  0  0  0  0  0
  148.2894  134.5893  152.2880 H   0  0  0  0  0  0  0  0  0  0  0  0
  143.1621  135.0799  152.3818 H   0  0  0  0  0  0  0  0  0  0  0  0
  144.4677  138.6346  151.5985 H   0  0  0  0  0  0  0  0  0  0  0  0
  150.0433  142.5487  158.3528 H   0  0  0  0  0  0  0  0  0  0  0  0
  152.1947  144.0391  156.8073 H   0  0  0  0  0  0  0  0  0  0  0  0
  150.5277  144.5316  156.9789 H   0  0  0  0  0  0  0  0  0  0  0  0
  152.0111  145.6940  158.6127 H   0  0  0  0  0  0  0  0  0  0  0  0
  150.7905  144.7414  159.4224 H   0  0  0  0  0  0  0  0  0  0  0  0
  153.7091  143.9406  158.9860 H   0  0  0  0  0  0  0  0  0  0  0  0
  152.9783  144.3789  160.5120 H   0  0  0  0  0  0  0  0  0  0  0  0
  153.1847  141.8951  160.2653 H   0  0  0  0  0  0  0  0  0  0  0  0
  151.5184  142.3871  160.4484 H   0  0  0  0  0  0  0  0  0  0  0  0
  151.7065  140.7212  158.6404 H   0  0  0  0  0  0  0  0  0  0  0  0
  152.9185  141.6833  157.8295 H   0  0  0  0  0  0  0  0  0  0  0  0
  1  2  1  0  0  0  0
  1 34  1  0  0  0  0
  2  3  1  0  0  0  0
  2 35  1  0  0  0  0
  2 36  1  0  0  0  0
  3  4  1  0  0  0  0
  3 37  1  0  0  0  0
  3 38  1  0  0  0  0
  4  5  1  0  0  0  0
  4 24  1  0  0  0  0
  4 39  1  0  0  0  0
  5  6  1  0  0  0  0
  5 40  1  0  0  0  0
  6 11  1  0  0  0  0
  6  7  2  0  0  0  0
  7  8  1  0  0  0  0
  8  9  2  0  0  0  0
  8 41  1  0  0  0  0
  9 10  1  0  0  0  0
 10 14  1  0  0  0  0
 10 11  2  0  0  0  0
 11 12  1  0  0  0  0
 12 13  2  0  0  0  0
 13 14  1  0  0  0  0
 13 42  1  0  0  0  0
 14 15  1  0  0  0  0
 15 30  1  0  0  0  0
 15 22  1  0  0  0  0
 15 16  1  0  0  0  0
 16 17  1  0  0  0  0
 17 31  1  0  0  0  0
 17 18  1  0  0  0  0
 17 20  1  0  0  0  0
 18 19  1  0  0  0  0
 18 43  1  0  0  0  0
 18 44  1  0  0  0  0
 19 45  1  0  0  0  0
 20 32  1  0  0  0  0
 20 21  1  0  0  0  0
 20 22  1  0  0  0  0
 21 46  1  0  0  0  0
 22 33  1  0  0  0  0
 22 23  1  0  0  0  0
 23 47  1  0  0  0  0
 24 29  1  0  0  0  0
 24 25  1  0  0  0  0
 24 48  1  0  0  0  0
 25 26  1  0  0  0  0
 25 49  1  0  0  0  0
 25 50  1  0  0  0  0
 26 27  1  0  0  0  0
 26 51  1  0  0  0  0
 26 52  1  0  0  0  0
 27 28  1  0  0  0  0
 27 53  1  0  0  0  0
 27 54  1  0  0  0  0
 28 29  1  0  0  0  0
 28 55  1  0  0  0  0
 28 56  1  0  0  0  0
 29 57  1  0  0  0  0
 29 58  1  0  0  0  0
M  END
> <s_m_source_file>
AV-unprocessed.smi

> <i_m_source_file_index>
109

> <i_lp_mmshare_version>
43012

> <i_f3d_flags>
0

> <s_epik_input>
W0NIMl0xW0NIMl1bQ0gyXVtDSDJdW0NIMl1bQ0hdMVtDQEhdKFtDSDJdW0NIMl1bT0hdKVtOSF1jKG5bY0hdbjIpYyhjMjMpbltjSF1uM1tDQEBIXTRPW0NASF0oW0NIMl1bT0hdKVtDQEBIXShbT0hdKVtDQEhdNFtPSF0=

> <s_epik_cmdline>
J2VwaWtfcHl0aG9uJywgJy1waCcsICc3LjAnLCAnLXRuJywgJzgnLCAnLW1hJywgJzIwMCcsICctbWV0YWxfYmluZGluZycsICctaW1hZScsICc8aW5maWxlLm1hZT4nLCAnLW9tYWUnLCAnPG91dGZpbGUubWFlPic=

> <r_lp_tautomer_probability>
1

> <r_epik_Ionization_Penalty>
0.000793976

> <r_epik_Ionization_Penalty_Charging>
0

> <r_epik_Ionization_Penalty_Neutral>
0.000793976

> <r_epik_State_Penalty>
-0

> <r_epik_Charging_Adjusted_Penalty>
0

> <i_epik_Tot_Q>
0

> <i_epik_Tot_abs_Q>
0

> <r_epik_Metal_State_Penalty>
-0

> <b_epik_Metal_Only>
0

> <s_epik_Chemistry_Notes>
This compound contains an acetal/aminal-like group ( X-CH(R)-Y where X, Y are N, S, or O) that may be acid/base labile, releasing an aldehyde.

> <s_lp_Force_Field>
OPLS_2005

> <r_lp_Energy>
55.7279

> <b_lp_Chiralities_Consistent>
1

> <s_lp_Variant>
AV-unprocessed.smi:109-22

> <Gold.Version>
5.8.1

> <Gold.Id.Protein>
6NUR|6NUR_protein|mol2

> <Gold.PLP.Fitness>
51.0292

> <Gold.PLP.PLP>
-40.1522

> <Gold.PLP.part.hbond>
-4.6826

> <Gold.PLP.part.metal>
0.0000

> <Gold.PLP.part.buried>
-1.8576

> <Gold.PLP.part.nonpolar>
-34.1569

> <Gold.PLP.part.repulsive>
1.3585

> <Gold.PLP.ligand.clash>
0.0313

> <Gold.PLP.ligand.torsion>
2.5095

> <Gold.PLP.Chemscore.Hbond>
3.7930

> <Gold.PLP.Chemscore.CHOScore>
1.3466

> <Gold.PLP.Chemscore.Metal>
0.0000

> <Gold.Chemscore.Hbonds>
donor molecule, donor type, donor heavy atom, donor atom, acceptor molecule, acceptor atom, score
      L1  H     5    40       P1  8028  1.00
      L1  H    19    45       P1  7948  0.80
      L1  H    23    47       P1 10171  1.00
      P1  H  7989  7998       L1     1  0.82
      L1  C    13    42       P1  7948  1.00
      L1  C    13    42       P1  7957  0.27

> <Gold.PLP.Chemscore.Internal.Correction>
0.5086

> <Gold.Rescore>
     Score         DG    S(hbond)    S(metal)    S(lipo)     H(rot)  DE(clash)    DE(int)     intcor
      8.59     -13.23       3.18        0.00      94.96       5.47       0.18       4.47       ----

> <Gold.Chemscore.Fitness>
8.5851

> <Gold.Chemscore.DG>
-13.2324

> <Gold.Chemscore.ZeroCoef>
-5.4800

> <Gold.Chemscore.Hbond>
3.1843

> <Gold.Chemscore.Metal>
0.0000

> <Gold.Chemscore.Lipo>
94.9593

> <Gold.Chemscore.Internal_Hbond>
0.0000

> <Gold.Chemscore.DEClash>
0.1791

> <Gold.Chemscore.DEInternal>
4.4683

> <Gold.Chemscore.Rot>
5.4662

> <Gold.Chemscore.Internal.Correction>
   9.000000E+99

> <Gold.Chemscore.Hbonds>
donor molecule, donor type, donor heavy atom, donor atom, acceptor molecule, acceptor atom, score
      L1  H     5    40       P1  8028  0.99
      L1  H    19    45       P1  7948  0.12
      L1  H    23    47       P1 10171  0.96
      P1  H  7989  7998       L1     1  0.55

> <Gold.Chemscore.Hbond.Weighted>
-10.6357

> <Gold.Chemscore.Metal.Weighted>
-0.0000

> <Gold.Chemscore.Lipo.Weighted>
-11.1102

> <Gold.Chemscore.Internal_Hbond.Weighted>
0.0000

> <Gold.Chemscore.DEClash.Weighted>
0.1791

> <Gold.Chemscore.DEInternal.Weighted>
4.4683

> <Gold.Chemscore.Rot.Weighted>
13.9935

> <Gold.Chemscore.Internal.Correction.Weighted>
   9.000000E+99

> <Gold.Protein.RotatedTorsions>
[ 6907 6896 6895 6894 ] final -113.22 input  -60.11 | X-H torsion
[ 7974 7965 7964 7962 ] final  117.88 input  175.53 | X-H torsion
[ 8008 7997 7996 7995 ] final   37.70 input   59.86 | X-H torsion
[ 10167 10162 10161 10158 ] final  124.84 input  -65.29 | X-H torsion
[ 10718 10713 10712 10709 ] final  -68.94 input   66.30 | X-H torsion
[ 10763 10752 10751 10750 ] final   16.78 input  -60.55 | X-H torsion
[ 11005 11000 10999 10996 ] final  142.43 input  -57.11 | X-H torsion

> <Gold.Protein.ActiveResidues>
 VAL166  LYS551  ARG553  GLY616  TRP617  ASP618  TYR619  PRO620  LYS621  CYS622 
 ASP623  PHE694  ASN695  SER759  ASP760  ASP761  ALA762  ILE779  LEU786  VAL792 
 PHE793  MET794  SER795  GLU796  ALA797  LYS798  CYS799  TRP800  GLU811  SER814 

> <Gold.Protein.RotatedAtoms>
  150.7813  133.8977  159.3331 H   0  0  0  0  0  0  0  0  0  0  0  0  # atno 6907 bound_to 6896
  151.6839  135.0955  160.0230 H   0  0  0  0  0  0  0  0  0  0  0  0  # atno 6908 bound_to 6896
  152.3865  133.6580  159.6238 H   0  0  0  0  0  0  0  0  0  0  0  0  # atno 6909 bound_to 6896
  145.1620  139.3149  143.4512 H   0  0  0  0  0  0  0  0  0  0  0  0  # atno 7974 bound_to 7965
  155.2080  140.3321  155.4333 H   0  0  0  0  0  0  0  0  0  0  0  0  # atno 8008 bound_to 7997
  156.2381  140.1882  156.7112 H   0  0  0  0  0  0  0  0  0  0  0  0  # atno 8009 bound_to 7997
  154.6097  140.0611  156.9463 H   0  0  0  0  0  0  0  0  0  0  0  0  # atno 8010 bound_to 7997
  139.5719  144.6943  151.3756 H   0  0  0  0  0  0  0  0  0  0  0  0  # atno 10167 bound_to 10162
  156.0480  130.4303  150.2075 H   0  0  0  0  0  0  0  0  0  0  0  0  # atno 10718 bound_to 10713
  153.1399  135.6757  153.9044 H   0  0  0  0  0  0  0  0  0  0  0  0  # atno 10763 bound_to 10752
  153.8504  135.3094  155.3433 H   0  0  0  0  0  0  0  0  0  0  0  0  # atno 10764 bound_to 10752
  154.7778  135.4905  153.9865 H   0  0  0  0  0  0  0  0  0  0  0  0  # atno 10765 bound_to 10752
  140.0476  134.9272  157.0959 H   0  0  0  0  0  0  0  0  0  0  0  0  # atno 11005 bound_to 11000
  146.3481  140.1734  142.8589 LP  0  0  0  0  0  0  0  0  0  0  0  0  # atno 17320 bound_to 7965
  145.0321  140.8879  143.5103 LP  0  0  0  0  0  0  0  0  0  0  0  0  # atno 17321 bound_to 7965
  140.7003  143.7648  150.7392 LP  0  0  0  0  0  0  0  0  0  0  0  0  # atno 17342 bound_to 10162
  140.1157  143.4658  152.2344 LP  0  0  0  0  0  0  0  0  0  0  0  0  # atno 17343 bound_to 10162
  157.0162  130.9965  151.3352 LP  0  0  0  0  0  0  0  0  0  0  0  0  # atno 17370 bound_to 10713
  157.5376  130.8099  149.7990 LP  0  0  0  0  0  0  0  0  0  0  0  0  # atno 17371 bound_to 10713
  140.3968  134.2125  155.7164 LP  0  0  0  0  0  0  0  0  0  0  0  0  # atno 17394 bound_to 11000
  141.1915  133.8194  157.0878 LP  0  0  0  0  0  0  0  0  0  0  0  0  # atno 17395 bound_to 11000

$$$$
