AV-unprocessed.smi:2078|AV-procd|sdf|8466|dock4
  -GOLD-   2272011163D 1   1.00000     0.00000
 Structure written by MMmdl.
 42 43  0  0  0  0  0  0  0  0  2 V2000
  153.2915  137.6436  157.2354 C   0  0  0  0  0  0  0  0  0  0  0  0
  152.4278  138.2772  156.1992 C   0  0  0  0  0  0  0  0  0  0  0  0
  151.2526  137.9013  155.6119 C   0  0  0  0  0  0  0  0  0  0  0  0
  150.9895  138.9680  154.7118 C   0  0  0  0  0  0  0  0  0  0  0  0
  149.8324  138.9600  153.8919 N   0  0  0  0  0  0  0  0  0  0  0  0
  148.5909  138.5738  154.2322 C   0  0  0  0  0  0  0  0  0  0  0  0
  148.2550  138.1551  155.3405 O   0  0  0  0  0  0  0  0  0  0  0  0
  147.7403  138.6972  153.2029 N   0  0  0  0  0  0  0  0  0  0  0  0
  146.3185  138.3766  153.2537 C   0  0  0  0  0  0  0  0  0  0  0  0
  146.0649  137.0296  153.9584 C   0  0  0  0  0  0  0  0  0  0  0  0
  145.7826  135.9321  152.9991 N   0  3  2  0  0  0  0  0  0  0  0  0
  144.7032  136.2883  152.0420 C   0  0  0  0  0  0  0  0  0  0  0  0
  144.5240  135.1968  150.9746 C   0  0  0  0  0  0  0  0  0  0  0  0
  144.2529  133.8330  151.6217 C   0  0  0  0  0  0  0  0  0  0  0  0
  145.3631  133.4910  152.6295 C   0  0  2  0  0  0  0  0  0  0  0  0
  145.1032  132.1413  153.3134 C   0  0  0  0  0  0  0  0  0  0  0  0
  145.5155  134.6266  153.6613 C   0  0  0  0  0  0  0  0  0  0  0  0
  151.9191  139.9102  154.7469 N   0  0  0  0  0  0  0  0  0  0  0  0
  152.8463  139.4718  155.6996 O   0  0  0  0  0  0  0  0  0  0  0  0
  152.7296  136.9102  157.8141 H   0  0  0  0  0  0  0  0  0  0  0  0
  153.6820  138.3910  157.9265 H   0  0  0  0  0  0  0  0  0  0  0  0
  154.1374  137.1343  156.7730 H   0  0  0  0  0  0  0  0  0  0  0  0
  150.6775  137.0065  155.7984 H   0  0  0  0  0  0  0  0  0  0  0  0
  149.9650  139.2855  152.9459 H   0  0  0  0  0  0  0  0  0  0  0  0
  148.0990  139.0500  152.3272 H   0  0  0  0  0  0  0  0  0  0  0  0
  145.7744  139.1790  153.7548 H   0  0  0  0  0  0  0  0  0  0  0  0
  145.9589  138.3530  152.2258 H   0  0  0  0  0  0  0  0  0  0  0  0
  146.9087  136.7583  154.5947 H   0  0  0  0  0  0  0  0  0  0  0  0
  145.2066  137.1465  154.6216 H   0  0  0  0  0  0  0  0  0  0  0  0
  143.7694  136.4428  152.5851 H   0  0  0  0  0  0  0  0  0  0  0  0
  144.9433  137.2309  151.5482 H   0  0  0  0  0  0  0  0  0  0  0  0
  143.7040  135.4605  150.3061 H   0  0  0  0  0  0  0  0  0  0  0  0
  145.4204  135.1379  150.3558 H   0  0  0  0  0  0  0  0  0  0  0  0
  143.2849  133.8519  152.1250 H   0  0  0  0  0  0  0  0  0  0  0  0
  144.1893  133.0632  150.8516 H   0  0  0  0  0  0  0  0  0  0  0  0
  146.3029  133.4055  152.0816 H   0  0  0  0  0  0  0  0  0  0  0  0
  144.1708  132.1558  153.8788 H   0  0  0  0  0  0  0  0  0  0  0  0
  145.9075  131.8890  154.0050 H   0  0  0  0  0  0  0  0  0  0  0  0
  145.0354  131.3366  152.5806 H   0  0  0  0  0  0  0  0  0  0  0  0
  146.3306  134.3775  154.3398 H   0  0  0  0  0  0  0  0  0  0  0  0
  144.6134  134.7066  154.2705 H   0  0  0  0  0  0  0  0  0  0  0  0
  146.6195  135.8171  152.4451 H   0  0  0  0  0  0  0  0  0  0  0  0
  1  2  1  0  0  0  0
  1 20  1  0  0  0  0
  1 21  1  0  0  0  0
  1 22  1  0  0  0  0
  2 19  1  0  0  0  0
  2  3  2  0  0  0  0
  3  4  1  0  0  0  0
  3 23  1  0  0  0  0
  4  5  1  0  0  0  0
  4 18  2  0  0  0  0
  5  6  1  0  0  0  0
  5 24  1  0  0  0  0
  6  7  2  0  0  0  0
  6  8  1  0  0  0  0
  8  9  1  0  0  0  0
  8 25  1  0  0  0  0
  9 10  1  0  0  0  0
  9 26  1  0  0  0  0
  9 27  1  0  0  0  0
 10 11  1  0  0  0  0
 10 28  1  0  0  0  0
 10 29  1  0  0  0  0
 11 17  1  0  0  0  0
 11 12  1  0  0  0  0
 11 42  1  0  0  0  0
 12 13  1  0  0  0  0
 12 30  1  0  0  0  0
 12 31  1  0  0  0  0
 13 14  1  0  0  0  0
 13 32  1  0  0  0  0
 13 33  1  0  0  0  0
 14 15  1  0  0  0  0
 14 34  1  0  0  0  0
 14 35  1  0  0  0  0
 15 16  1  0  0  0  0
 15 17  1  0  0  0  0
 15 36  1  0  0  0  0
 16 37  1  0  0  0  0
 16 38  1  0  0  0  0
 16 39  1  0  0  0  0
 17 40  1  0  0  0  0
 17 41  1  0  0  0  0
 18 19  1  0  0  0  0
M  CHG  1  11   1
M  END
> <s_m_source_file>
AV-unprocessed.smi

> <i_m_source_file_index>
2078

> <i_lp_mmshare_version>
43012

> <i_f3d_flags>
0

> <s_epik_input>
W0NIM11jMVtjSF1jKG5vMSlbTkhdQyg9TylbTkhdW0NIMl1bQ0gyXU4yW0NIMl1bQ0gyXVtDSDJdW0NAQEhdKFtDSDNdKVtDSDJdMg==

> <s_epik_cmdline>
J2VwaWtfcHl0aG9uJywgJy1waCcsICc3LjAnLCAnLXRuJywgJzgnLCAnLW1hJywgJzIwMCcsICctbWV0YWxfYmluZGluZycsICctaW1hZScsICc8aW5maWxlLm1hZT4nLCAnLW9tYWUnLCAnPG91dGZpbGUubWFlPic=

> <r_epik_Ionization_Penalty>
0.00216453

> <r_epik_Ionization_Penalty_Charging>
0.00212879

> <r_epik_Ionization_Penalty_Neutral>
3.57418e-05

> <r_epik_State_Penalty>
0.00146033

> <r_epik_Charging_Adjusted_Penalty>
0.00358912

> <i_epik_Tot_Q>
1

> <i_epik_Tot_abs_Q>
1

> <r_epik_Metal_State_Penalty>
0.0215827

> <b_epik_Metal_Only>
0

> <s_lp_Force_Field>
OPLS_2005

> <r_lp_Energy>
12.7075

> <b_lp_Chiralities_Consistent>
1

> <s_lp_Variant>
AV-unprocessed.smi:2078-4

> <Gold.Version>
5.8.1

> <Gold.Id.Protein>
6NUR|6NUR_protein|mol2

> <Gold.PLP.Fitness>
44.8631

> <Gold.PLP.PLP>
-29.2958

> <Gold.PLP.part.hbond>
-5.8371

> <Gold.PLP.part.metal>
0.0000

> <Gold.PLP.part.buried>
-2.0946

> <Gold.PLP.part.nonpolar>
-21.5180

> <Gold.PLP.part.repulsive>
0.2857

> <Gold.PLP.ligand.clash>
0.0000

> <Gold.PLP.ligand.torsion>
0.7267

> <Gold.PLP.Chemscore.Hbond>
5.6681

> <Gold.PLP.Chemscore.CHOScore>
0.0000

> <Gold.PLP.Chemscore.Metal>
0.0000

> <Gold.Chemscore.Hbonds>
donor molecule, donor type, donor heavy atom, donor atom, acceptor molecule, acceptor atom, score
      L1  H     5    24       P1  7957  1.00
      L1  H     8    25       P1  7957  0.75
      L1  H    11    42       P1  7948  0.03
      P1  H  7989  7998       L1    18  0.91
      P1  H  7997  8010       L1    19  1.00

> <Gold.PLP.Chemscore.Internal.Correction>
0.0164

> <Gold.Rescore>
     Score         DG    S(hbond)    S(metal)    S(lipo)     H(rot)  DE(clash)    DE(int)     intcor
     17.62     -21.46       3.93        0.00      58.77       1.57       0.77       3.08       ----

> <Gold.Chemscore.Fitness>
17.6152

> <Gold.Chemscore.DG>
-21.4617

> <Gold.Chemscore.ZeroCoef>
-5.4800

> <Gold.Chemscore.Hbond>
3.9294

> <Gold.Chemscore.Metal>
0.0000

> <Gold.Chemscore.Lipo>
58.7694

> <Gold.Chemscore.Internal_Hbond>
0.0000

> <Gold.Chemscore.DEClash>
0.7708

> <Gold.Chemscore.DEInternal>
3.0757

> <Gold.Chemscore.Rot>
1.5697

> <Gold.Chemscore.Internal.Correction>
   9.000000E+99

> <Gold.Chemscore.Hbonds>
donor molecule, donor type, donor heavy atom, donor atom, acceptor molecule, acceptor atom, score
      L1  H     5    24       P1  7957  0.95
      L1  H     8    25       P1  7957  0.72
      L1  H    11    42       P1  7948  0.07
      P1  H  7989  7998       L1    18  0.53
      P1  H  7997  8010       L1    19  0.99

> <Gold.Chemscore.Hbond.Weighted>
-13.1242

> <Gold.Chemscore.Metal.Weighted>
-0.0000

> <Gold.Chemscore.Lipo.Weighted>
-6.8760

> <Gold.Chemscore.Internal_Hbond.Weighted>
0.0000

> <Gold.Chemscore.DEClash.Weighted>
0.7708

> <Gold.Chemscore.DEInternal.Weighted>
3.0757

> <Gold.Chemscore.Rot.Weighted>
4.0185

> <Gold.Chemscore.Internal.Correction.Weighted>
   9.000000E+99

> <Gold.Protein.RotatedTorsions>
[ 6907 6896 6895 6894 ] final   42.23 input  -60.11 | X-H torsion
[ 7974 7965 7964 7962 ] final  -19.34 input  175.53 | X-H torsion
[ 8008 7997 7996 7995 ] final   94.59 input   59.86 | X-H torsion
[ 10167 10162 10161 10158 ] final   50.34 input  -65.29 | X-H torsion
[ 10718 10713 10712 10709 ] final  -32.08 input   66.30 | X-H torsion
[ 10763 10752 10751 10750 ] final -174.92 input  -60.55 | X-H torsion
[ 11005 11000 10999 10996 ] final -175.03 input  -57.11 | X-H torsion

> <Gold.Protein.ActiveResidues>
 VAL166  LYS551  ARG553  GLY616  TRP617  ASP618  TYR619  PRO620  LYS621  CYS622 
 ASP623  PHE694  ASN695  SER759  ASP760  ASP761  ALA762  ILE779  LEU786  VAL792 
 PHE793  MET794  SER795  GLU796  ALA797  LYS798  CYS799  TRP800  GLU811  SER814 

> <Gold.Protein.RotatedAtoms>
  152.2053  134.8551  160.0503 H   0  0  0  0  0  0  0  0  0  0  0  0  # atno 6907 bound_to 6896
  151.9389  133.3627  159.3966 H   0  0  0  0  0  0  0  0  0  0  0  0  # atno 6908 bound_to 6896
  150.6964  134.4384  159.5325 H   0  0  0  0  0  0  0  0  0  0  0  0  # atno 6909 bound_to 6896
  146.1846  140.4048  142.8481 H   0  0  0  0  0  0  0  0  0  0  0  0  # atno 7974 bound_to 7965
  156.0596  140.3298  155.7446 H   0  0  0  0  0  0  0  0  0  0  0  0  # atno 8008 bound_to 7997
  155.5475  140.0607  157.2874 H   0  0  0  0  0  0  0  0  0  0  0  0  # atno 8009 bound_to 7997
  154.4475  140.1900  156.0641 H   0  0  0  0  0  0  0  0  0  0  0  0  # atno 8010 bound_to 7997
  140.2735  144.3238  150.6283 H   0  0  0  0  0  0  0  0  0  0  0  0  # atno 10167 bound_to 10162
  156.3793  130.4353  149.7482 H   0  0  0  0  0  0  0  0  0  0  0  0  # atno 10718 bound_to 10713
  154.5905  135.2844  155.0640 H   0  0  0  0  0  0  0  0  0  0  0  0  # atno 10763 bound_to 10752
  154.1942  135.6435  153.5072 H   0  0  0  0  0  0  0  0  0  0  0  0  # atno 10764 bound_to 10752
  153.0120  135.5453  154.6590 H   0  0  0  0  0  0  0  0  0  0  0  0  # atno 10765 bound_to 10752
  140.4679  134.6193  157.4870 H   0  0  0  0  0  0  0  0  0  0  0  0  # atno 11005 bound_to 11000
  144.8375  140.6805  143.6251 LP  0  0  0  0  0  0  0  0  0  0  0  0  # atno 17320 bound_to 7965
  145.3975  139.1604  143.4195 LP  0  0  0  0  0  0  0  0  0  0  0  0  # atno 17321 bound_to 7965
  140.5870  143.2169  151.7323 LP  0  0  0  0  0  0  0  0  0  0  0  0  # atno 17342 bound_to 10162
  139.4982  144.3995  152.0196 LP  0  0  0  0  0  0  0  0  0  0  0  0  # atno 17343 bound_to 10162
  156.4578  130.7937  151.2958 LP  0  0  0  0  0  0  0  0  0  0  0  0  # atno 17370 bound_to 10713
  157.7491  131.0075  150.3193 LP  0  0  0  0  0  0  0  0  0  0  0  0  # atno 17371 bound_to 10713
  139.9904  134.6995  155.9700 LP  0  0  0  0  0  0  0  0  0  0  0  0  # atno 17394 bound_to 11000
  141.1591  133.6540  156.4258 LP  0  0  0  0  0  0  0  0  0  0  0  0  # atno 17395 bound_to 11000

$$$$
