AV-unprocessed.smi:754|AV-procd|sdf|3610|dock6
  -GOLD-   22720 1 03D 1   1.00000     0.00000
 Structure written by MMmdl.
 37 38  0  0  0  0  0  0  0  0  1 V2000
  145.5717  135.1816  151.9433 C   0  0  0  0  0  0  0  0  0  0  0  0
  144.5800  135.8822  152.8745 C   0  0  0  0  0  0  0  0  0  0  0  0
  145.2692  136.3205  154.0331 O   0  0  0  0  0  0  0  0  0  0  0  0
  146.4208  137.0926  153.7309 C   0  0  1  0  0  0  0  0  0  0  0  0
  146.1523  138.3309  152.8707 C   0  0  0  0  0  0  0  0  0  0  0  0
  147.1205  139.0894  153.7845 C   0  0  2  0  0  0  0  0  0  0  0  0
  148.4811  139.0545  153.2499 N   0  0  0  0  0  0  0  0  0  0  0  0
  149.3587  140.0658  153.3260 C   0  0  0  0  0  0  0  0  0  0  0  0
  149.0816  141.1754  153.7799 O   0  0  0  0  0  0  0  0  0  0  0  0
  150.7789  139.7659  152.8491 C   0  0  0  0  0  0  0  0  0  0  0  0
  151.6528  139.5311  153.9834 N   0  0  0  0  0  0  0  0  0  0  0  0
  151.6277  138.5904  154.9299 C   0  0  0  0  0  0  0  0  0  0  0  0
  152.6418  138.7173  155.7718 N   0  0  0  0  0  0  0  0  0  0  0  0
  153.3191  139.8228  155.2847 N   0  0  0  0  0  0  0  0  0  0  0  0
  152.7379  140.3091  154.2227 N   0  0  0  0  0  0  0  0  0  0  0  0
  146.8556  138.0241  154.8882 C   0  0  0  0  0  0  0  0  0  0  0  0
  145.7537  138.4168  155.8814 C   0  0  0  0  0  0  0  0  0  0  0  0
  148.0434  137.5356  155.7273 C   0  0  0  0  0  0  0  0  0  0  0  0
  145.0743  134.8268  151.0407 H   0  0  0  0  0  0  0  0  0  0  0  0
  146.0285  134.3219  152.4340 H   0  0  0  0  0  0  0  0  0  0  0  0
  146.3706  135.8591  151.6408 H   0  0  0  0  0  0  0  0  0  0  0  0
  144.1260  136.7321  152.3630 H   0  0  0  0  0  0  0  0  0  0  0  0
  143.7784  135.1942  153.1466 H   0  0  0  0  0  0  0  0  0  0  0  0
  147.2510  136.4916  153.3525 H   0  0  0  0  0  0  0  0  0  0  0  0
  146.4633  138.2387  151.8292 H   0  0  0  0  0  0  0  0  0  0  0  0
  145.1255  138.6913  152.9501 H   0  0  0  0  0  0  0  0  0  0  0  0
  146.7655  140.0900  154.0381 H   0  0  0  0  0  0  0  0  0  0  0  0
  148.7965  138.1784  152.8584 H   0  0  0  0  0  0  0  0  0  0  0  0
  150.7815  138.8916  152.1964 H   0  0  0  0  0  0  0  0  0  0  0  0
  151.1689  140.6056  152.2722 H   0  0  0  0  0  0  0  0  0  0  0  0
  150.8801  137.8135  154.9941 H   0  0  0  0  0  0  0  0  0  0  0  0
  146.0794  139.2256  156.5361 H   0  0  0  0  0  0  0  0  0  0  0  0
  145.4653  137.5774  156.5149 H   0  0  0  0  0  0  0  0  0  0  0  0
  144.8510  138.7593  155.3746 H   0  0  0  0  0  0  0  0  0  0  0  0
  148.4747  138.3450  156.3172 H   0  0  0  0  0  0  0  0  0  0  0  0
  148.8412  137.1248  155.1080 H   0  0  0  0  0  0  0  0  0  0  0  0
  147.7479  136.7454  156.4182 H   0  0  0  0  0  0  0  0  0  0  0  0
  1  2  1  0  0  0  0
  1 19  1  0  0  0  0
  1 20  1  0  0  0  0
  1 21  1  0  0  0  0
  2  3  1  0  0  0  0
  2 22  1  0  0  0  0
  2 23  1  0  0  0  0
  3  4  1  0  0  0  0
  4 16  1  0  0  0  0
  4  5  1  0  0  0  0
  4 24  1  0  0  0  0
  5  6  1  0  0  0  0
  5 25  1  0  0  0  0
  5 26  1  0  0  0  0
  6  7  1  0  0  0  0
  6 16  1  0  0  0  0
  6 27  1  0  0  0  0
  7  8  1  0  0  0  0
  7 28  1  0  0  0  0
  8  9  2  0  0  0  0
  8 10  1  0  0  0  0
 10 11  1  0  0  0  0
 10 29  1  0  0  0  0
 10 30  1  0  0  0  0
 11 15  1  0  0  0  0
 11 12  1  0  0  0  0
 12 13  2  0  0  0  0
 12 31  1  0  0  0  0
 13 14  1  0  0  0  0
 14 15  2  0  0  0  0
 16 17  1  0  0  0  0
 16 18  1  0  0  0  0
 17 32  1  0  0  0  0
 17 33  1  0  0  0  0
 17 34  1  0  0  0  0
 18 35  1  0  0  0  0
 18 36  1  0  0  0  0
 18 37  1  0  0  0  0
M  END
> <s_m_source_file>
AV-unprocessed.smi

> <i_m_source_file_index>
754

> <i_lp_mmshare_version>
43012

> <i_f3d_flags>
0

> <s_epik_input>
W0NIM11bQ0gyXU9bQ0BASF0oQzEoW0NIM10pW0NIM10pW0NIMl1bQ0BIXTFbTkhdQyg9TylbQ0gyXW4yW2NIXW5ubjI=

> <s_epik_cmdline>
J2VwaWtfcHl0aG9uJywgJy1waCcsICc3LjAnLCAnLXRuJywgJzgnLCAnLW1hJywgJzIwMCcsICctbWV0YWxfYmluZGluZycsICctaW1hZScsICc8aW5maWxlLm1hZT4nLCAnLW9tYWUnLCAnPG91dGZpbGUubWFlPic=

> <r_lp_tautomer_probability>
1

> <r_epik_Ionization_Penalty>
8.28422e-07

> <r_epik_Ionization_Penalty_Charging>
0

> <r_epik_Ionization_Penalty_Neutral>
8.28422e-07

> <r_epik_State_Penalty>
-0

> <r_epik_Charging_Adjusted_Penalty>
0

> <i_epik_Tot_Q>
0

> <i_epik_Tot_abs_Q>
0

> <r_epik_Metal_State_Penalty>
-0

> <b_epik_Metal_Only>
0

> <s_lp_Force_Field>
OPLS_2005

> <r_lp_Energy>
21.5247

> <b_lp_Chiralities_Consistent>
1

> <s_lp_Variant>
AV-unprocessed.smi:754-4

> <Gold.Version>
5.8.1

> <Gold.Id.Protein>
6NUR|6NUR_protein|mol2

> <Gold.PLP.Fitness>
36.2380

> <Gold.PLP.PLP>
-24.9966

> <Gold.PLP.part.hbond>
-4.7016

> <Gold.PLP.part.metal>
0.0000

> <Gold.PLP.part.buried>
-3.2953

> <Gold.PLP.part.nonpolar>
-17.8578

> <Gold.PLP.part.repulsive>
0.2192

> <Gold.PLP.ligand.clash>
0.0000

> <Gold.PLP.ligand.torsion>
0.5490

> <Gold.PLP.Chemscore.Hbond>
3.0000

> <Gold.PLP.Chemscore.CHOScore>
1.0000

> <Gold.PLP.Chemscore.Metal>
0.0000

> <Gold.Chemscore.Hbonds>
donor molecule, donor type, donor heavy atom, donor atom, acceptor molecule, acceptor atom, score
      L1  H     7    28       P1  7948  0.67
      P1  H  7997  8009       L1    14  0.50
      P1  H  8011  8017       L1     9  0.89

> <Gold.PLP.Chemscore.Internal.Correction>
0.3394

> <Gold.Rescore>
     Score         DG    S(hbond)    S(metal)    S(lipo)     H(rot)  DE(clash)    DE(int)     intcor
     11.82     -12.84       2.72        0.00      39.25       2.46       0.09       0.93       ----

> <Gold.Chemscore.Fitness>
11.8216

> <Gold.Chemscore.DG>
-12.8391

> <Gold.Chemscore.ZeroCoef>
-5.4800

> <Gold.Chemscore.Hbond>
2.7151

> <Gold.Chemscore.Metal>
0.0000

> <Gold.Chemscore.Lipo>
39.2493

> <Gold.Chemscore.Internal_Hbond>
0.0000

> <Gold.Chemscore.DEClash>
0.0893

> <Gold.Chemscore.DEInternal>
0.9282

> <Gold.Chemscore.Rot>
2.4616

> <Gold.Chemscore.Internal.Correction>
   9.000000E+99

> <Gold.Chemscore.Hbonds>
donor molecule, donor type, donor heavy atom, donor atom, acceptor molecule, acceptor atom, score
      L1  H     7    28       P1  7948  0.67
      P1  H  7997  8009       L1    14  0.49
      P1  H  8011  8017       L1     9  0.28

> <Gold.Chemscore.Hbond.Weighted>
-9.0685

> <Gold.Chemscore.Metal.Weighted>
-0.0000

> <Gold.Chemscore.Lipo.Weighted>
-4.5922

> <Gold.Chemscore.Internal_Hbond.Weighted>
0.0000

> <Gold.Chemscore.DEClash.Weighted>
0.0893

> <Gold.Chemscore.DEInternal.Weighted>
0.9282

> <Gold.Chemscore.Rot.Weighted>
6.3016

> <Gold.Chemscore.Internal.Correction.Weighted>
   9.000000E+99

> <Gold.Protein.RotatedTorsions>
[ 6907 6896 6895 6894 ] final  129.41 input  -60.11 | X-H torsion
[ 7974 7965 7964 7962 ] final -106.36 input  175.53 | X-H torsion
[ 8008 7997 7996 7995 ] final -139.33 input   59.86 | X-H torsion
[ 10167 10162 10161 10158 ] final   83.14 input  -65.29 | X-H torsion
[ 10718 10713 10712 10709 ] final   70.46 input   66.30 | X-H torsion
[ 10763 10752 10751 10750 ] final  -66.07 input  -60.55 | X-H torsion
[ 11005 11000 10999 10996 ] final  119.24 input  -57.11 | X-H torsion

> <Gold.Protein.ActiveResidues>
 VAL166  LYS551  ARG553  GLY616  TRP617  ASP618  TYR619  PRO620  LYS621  CYS622 
 ASP623  PHE694  ASN695  SER759  ASP760  ASP761  ALA762  ILE779  LEU786  VAL792 
 PHE793  MET794  SER795  GLU796  ALA797  LYS798  CYS799  TRP800  GLU811  SER814 

> <Gold.Protein.RotatedAtoms>
  152.3627  133.6317  159.6026 H   0  0  0  0  0  0  0  0  0  0  0  0  # atno 6907 bound_to 6896
  150.7612  133.9398  159.3461 H   0  0  0  0  0  0  0  0  0  0  0  0  # atno 6908 bound_to 6896
  151.7233  135.0891  160.0339 H   0  0  0  0  0  0  0  0  0  0  0  0  # atno 6909 bound_to 6896
  145.2189  140.9126  143.3271 H   0  0  0  0  0  0  0  0  0  0  0  0  # atno 7974 bound_to 7965
  155.4431  140.0533  157.3008 H   0  0  0  0  0  0  0  0  0  0  0  0  # atno 8008 bound_to 7997
  154.4809  140.2081  155.9722 H   0  0  0  0  0  0  0  0  0  0  0  0  # atno 8009 bound_to 7997
  156.1205  140.3189  155.8206 H   0  0  0  0  0  0  0  0  0  0  0  0  # atno 8010 bound_to 7997
  139.9215  144.6210  150.8436 H   0  0  0  0  0  0  0  0  0  0  0  0  # atno 10167 bound_to 10162
  157.6401  130.9478  150.0655 H   0  0  0  0  0  0  0  0  0  0  0  0  # atno 10718 bound_to 10713
  154.3544  135.6129  153.5659 H   0  0  0  0  0  0  0  0  0  0  0  0  # atno 10763 bound_to 10752
  152.9796  135.5800  154.4705 H   0  0  0  0  0  0  0  0  0  0  0  0  # atno 10764 bound_to 10752
  154.4432  135.2851  155.1810 H   0  0  0  0  0  0  0  0  0  0  0  0  # atno 10765 bound_to 10752
  139.9139  134.9627  156.7626 H   0  0  0  0  0  0  0  0  0  0  0  0  # atno 11005 bound_to 11000
  144.9785  139.3808  143.6274 LP  0  0  0  0  0  0  0  0  0  0  0  0  # atno 17320 bound_to 7965
  146.3380  139.8914  142.8808 LP  0  0  0  0  0  0  0  0  0  0  0  0  # atno 17321 bound_to 7965
  140.7661  143.3294  151.2444 LP  0  0  0  0  0  0  0  0  0  0  0  0  # atno 17342 bound_to 10162
  139.6858  143.9776  152.2833 LP  0  0  0  0  0  0  0  0  0  0  0  0  # atno 17343 bound_to 10162
  156.1674  130.3645  149.9212 LP  0  0  0  0  0  0  0  0  0  0  0  0  # atno 17370 bound_to 10713
  156.7196  130.9001  151.3617 LP  0  0  0  0  0  0  0  0  0  0  0  0  # atno 17371 bound_to 10713
  140.6685  133.9580  155.7843 LP  0  0  0  0  0  0  0  0  0  0  0  0  # atno 17394 bound_to 11000
  141.0594  134.0369  157.3679 LP  0  0  0  0  0  0  0  0  0  0  0  0  # atno 17395 bound_to 11000

$$$$
