AV-unprocessed.smi:1401|AV-procd|sdf|5690|dock4
  -GOLD-   22720 5313D 1   1.00000     0.00000
 Structure written by MMmdl.
 48 50  0  0  0  0  0  0  0  0  1 V2000
  146.3991  138.1952  155.4192 C   0  0  0  0  0  0  0  0  0  0  0  0
  147.8349  137.7767  155.2523 C   0  0  0  0  0  0  0  0  0  0  0  0
  148.6940  138.7198  155.0447 N   0  0  0  0  0  0  0  0  0  0  0  0
  150.0366  138.4444  154.8706 N   0  0  0  0  0  0  0  0  0  0  0  0
  150.8658  139.6333  154.6249 C   0  0  0  0  0  0  0  0  0  0  0  0
  151.9074  139.8847  155.7246 C   0  0  0  0  0  0  0  0  0  0  0  0
  153.1016  139.6562  155.5267 O   0  0  0  0  0  0  0  0  0  0  0  0
  151.4340  140.3783  156.8790 N   0  0  0  0  0  0  0  0  0  0  0  0
  152.2380  140.7213  158.0501 C   0  0  2  0  0  0  0  0  0  0  0  0
  152.4882  139.4501  158.8821 C   0  0  0  0  0  0  0  0  0  0  0  0
  151.5288  141.8272  158.8694 C   0  0  1  0  0  0  0  0  0  0  0  0
  152.2834  142.2216  160.1626 C   0  0  0  0  0  0  0  0  0  0  0  0
  152.4296  143.7485  160.0384 C   0  0  2  0  0  0  0  0  0  0  0  0
  151.0501  144.4139  160.1929 C   0  0  0  0  0  0  0  0  0  0  0  0
  150.3515  144.0523  158.8689 C   0  0  0  0  0  0  0  0  0  0  0  0
  151.4104  143.1957  158.1483 C   0  0  1  0  0  0  0  0  0  0  0  0
  152.6978  143.9091  158.5482 C   0  0  0  0  0  0  0  0  0  0  0  0
  150.5837  137.1951  154.9022 C   0  0  0  0  0  0  0  0  0  0  0  0
  151.7884  136.9954  154.7391 O   0  0  0  0  0  0  0  0  0  0  0  0
  149.6056  136.1322  155.1441 C   0  0  0  0  0  0  0  0  0  0  0  0
  150.1367  134.8081  155.1876 C   0  0  0  0  0  0  0  0  0  0  0  0
  150.5844  133.7409  155.2126 N   0  0  0  0  0  0  0  0  0  0  0  0
  148.2846  136.3898  155.3147 C   0  0  0  0  0  0  0  0  0  0  0  0
  147.2284  135.3225  155.5670 C   0  0  0  0  0  0  0  0  0  0  0  0
  146.0353  137.9386  156.4144 H   0  0  0  0  0  0  0  0  0  0  0  0
  145.7627  137.6985  154.6866 H   0  0  0  0  0  0  0  0  0  0  0  0
  146.2707  139.2708  155.2879 H   0  0  0  0  0  0  0  0  0  0  0  0
  151.3965  139.5326  153.6763 H   0  0  0  0  0  0  0  0  0  0  0  0
  150.2320  140.5151  154.5113 H   0  0  0  0  0  0  0  0  0  0  0  0
  150.4394  140.5369  156.9512 H   0  0  0  0  0  0  0  0  0  0  0  0
  153.2017  141.1077  157.7132 H   0  0  0  0  0  0  0  0  0  0  0  0
  153.1180  139.6534  159.7479 H   0  0  0  0  0  0  0  0  0  0  0  0
  152.9927  138.6848  158.2915 H   0  0  0  0  0  0  0  0  0  0  0  0
  151.5527  139.0240  159.2462 H   0  0  0  0  0  0  0  0  0  0  0  0
  150.5300  141.4679  159.1230 H   0  0  0  0  0  0  0  0  0  0  0  0
  151.7438  141.9272  161.0635 H   0  0  0  0  0  0  0  0  0  0  0  0
  153.2716  141.7620  160.2062 H   0  0  0  0  0  0  0  0  0  0  0  0
  153.1943  144.1692  160.6921 H   0  0  0  0  0  0  0  0  0  0  0  0
  150.5088  144.0439  161.0644 H   0  0  0  0  0  0  0  0  0  0  0  0
  151.1471  145.4958  160.2922 H   0  0  0  0  0  0  0  0  0  0  0  0
  149.4135  143.5177  159.0233 H   0  0  0  0  0  0  0  0  0  0  0  0
  150.1292  144.9539  158.2965 H   0  0  0  0  0  0  0  0  0  0  0  0
  151.2402  143.1336  157.0735 H   0  0  0  0  0  0  0  0  0  0  0  0
  152.7336  144.9509  158.2248 H   0  0  0  0  0  0  0  0  0  0  0  0
  153.6026  143.4004  158.2115 H   0  0  0  0  0  0  0  0  0  0  0  0
  147.6568  134.3224  155.6256 H   0  0  0  0  0  0  0  0  0  0  0  0
  146.4917  135.3169  154.7632 H   0  0  0  0  0  0  0  0  0  0  0  0
  146.7098  135.5110  156.5074 H   0  0  0  0  0  0  0  0  0  0  0  0
  1  2  1  0  0  0  0
  1 25  1  0  0  0  0
  1 26  1  0  0  0  0
  1 27  1  0  0  0  0
  2 23  1  0  0  0  0
  2  3  2  0  0  0  0
  3  4  1  0  0  0  0
  4  5  1  0  0  0  0
  4 18  1  0  0  0  0
  5  6  1  0  0  0  0
  5 28  1  0  0  0  0
  5 29  1  0  0  0  0
  6  7  2  0  0  0  0
  6  8  1  0  0  0  0
  8  9  1  0  0  0  0
  8 30  1  0  0  0  0
  9 10  1  0  0  0  0
  9 11  1  0  0  0  0
  9 31  1  0  0  0  0
 10 32  1  0  0  0  0
 10 33  1  0  0  0  0
 10 34  1  0  0  0  0
 11 16  1  0  0  0  0
 11 12  1  0  0  0  0
 11 35  1  0  0  0  0
 12 13  1  0  0  0  0
 12 36  1  0  0  0  0
 12 37  1  0  0  0  0
 13 17  1  0  0  0  0
 13 14  1  0  0  0  0
 13 38  1  0  0  0  0
 14 15  1  0  0  0  0
 14 39  1  0  0  0  0
 14 40  1  0  0  0  0
 15 16  1  0  0  0  0
 15 41  1  0  0  0  0
 15 42  1  0  0  0  0
 16 17  1  0  0  0  0
 16 43  1  0  0  0  0
 17 44  1  0  0  0  0
 17 45  1  0  0  0  0
 18 19  2  0  0  0  0
 18 20  1  0  0  0  0
 20 21  1  0  0  0  0
 20 23  2  0  0  0  0
 21 22  3  0  0  0  0
 23 24  1  0  0  0  0
 24 46  1  0  0  0  0
 24 47  1  0  0  0  0
 24 48  1  0  0  0  0
M  END
> <s_m_source_file>
AV-unprocessed.smi

> <i_m_source_file_index>
1401

> <i_lp_mmshare_version>
43012

> <i_f3d_flags>
0

> <s_epik_input>
TiNDYyhjMVtDSDNdKWMoPU8pbihuYzFbQ0gzXSlbQ0gyXUMoPU8pW05IXVtDQEhdKFtDSDNdKVtDQEhdKFtDSDJdW0NASF0yMylbQ0BIXShbQ0gyXTMpW0NIMl1bQ0gyXTI=

> <s_epik_cmdline>
J2VwaWtfcHl0aG9uJywgJy1waCcsICc3LjAnLCAnLXRuJywgJzgnLCAnLW1hJywgJzIwMCcsICctbWV0YWxfYmluZGluZycsICctaW1hZScsICc8aW5maWxlLm1hZT4nLCAnLW9tYWUnLCAnPG91dGZpbGUubWFlPic=

> <r_lp_tautomer_probability>
1

> <r_epik_Ionization_Penalty>
2.16501e-08

> <r_epik_Ionization_Penalty_Charging>
2.29436e-11

> <r_epik_Ionization_Penalty_Neutral>
2.16271e-08

> <r_epik_State_Penalty>
-0

> <r_epik_Charging_Adjusted_Penalty>
2.29436e-11

> <i_epik_Tot_Q>
0

> <i_epik_Tot_abs_Q>
0

> <r_epik_Metal_State_Penalty>
-0

> <b_epik_Metal_Only>
0

> <s_lp_Force_Field>
OPLS_2005

> <r_lp_Energy>
65.9265

> <b_lp_Chiralities_Consistent>
1

> <s_lp_Variant>
AV-unprocessed.smi:1401-3

> <Gold.Version>
5.8.1

> <Gold.Id.Protein>
6NUR|6NUR_protein|mol2

> <Gold.PLP.Fitness>
45.2587

> <Gold.PLP.PLP>
-40.3622

> <Gold.PLP.part.hbond>
-1.9639

> <Gold.PLP.part.metal>
0.0000

> <Gold.PLP.part.buried>
-4.7105

> <Gold.PLP.part.nonpolar>
-33.8944

> <Gold.PLP.part.repulsive>
0.3089

> <Gold.PLP.ligand.clash>
0.0000

> <Gold.PLP.ligand.torsion>
0.5630

> <Gold.PLP.Chemscore.Hbond>
2.0000

> <Gold.PLP.Chemscore.CHOScore>
0.0000

> <Gold.PLP.Chemscore.Metal>
0.0000

> <Gold.Chemscore.Hbonds>
donor molecule, donor type, donor heavy atom, donor atom, acceptor molecule, acceptor atom, score
      P1  H  7997  8008       L1     7  0.98
      P1  H 10752 10763       L1    19  0.98

> <Gold.PLP.Chemscore.Internal.Correction>
0.0225

> <Gold.Rescore>
     Score         DG    S(hbond)    S(metal)    S(lipo)     H(rot)  DE(clash)    DE(int)     intcor
     19.39     -19.97       1.94        0.00     104.17       1.63       0.06       0.52       ----

> <Gold.Chemscore.Fitness>
19.3875

> <Gold.Chemscore.DG>
-19.9726

> <Gold.Chemscore.ZeroCoef>
-5.4800

> <Gold.Chemscore.Hbond>
1.9379

> <Gold.Chemscore.Metal>
0.0000

> <Gold.Chemscore.Lipo>
104.1702

> <Gold.Chemscore.Internal_Hbond>
0.0000

> <Gold.Chemscore.DEClash>
0.0622

> <Gold.Chemscore.DEInternal>
0.5230

> <Gold.Chemscore.Rot>
1.6281

> <Gold.Chemscore.Internal.Correction>
   9.000000E+99

> <Gold.Chemscore.Hbonds>
donor molecule, donor type, donor heavy atom, donor atom, acceptor molecule, acceptor atom, score
      P1  H  7997  8008       L1     7  0.91
      P1  H 10752 10763       L1    19  0.93

> <Gold.Chemscore.Hbond.Weighted>
-6.4726

> <Gold.Chemscore.Metal.Weighted>
-0.0000

> <Gold.Chemscore.Lipo.Weighted>
-12.1879

> <Gold.Chemscore.Internal_Hbond.Weighted>
0.0000

> <Gold.Chemscore.DEClash.Weighted>
0.0622

> <Gold.Chemscore.DEInternal.Weighted>
0.5230

> <Gold.Chemscore.Rot.Weighted>
4.1678

> <Gold.Chemscore.Internal.Correction.Weighted>
   9.000000E+99

> <Gold.Protein.RotatedTorsions>
[ 6907 6896 6895 6894 ] final  169.83 input  -60.11 | X-H torsion
[ 7974 7965 7964 7962 ] final   33.93 input  175.53 | X-H torsion
[ 8008 7997 7996 7995 ] final  -10.90 input   59.86 | X-H torsion
[ 10167 10162 10161 10158 ] final   31.63 input  -65.29 | X-H torsion
[ 10718 10713 10712 10709 ] final   87.12 input   66.30 | X-H torsion
[ 10763 10752 10751 10750 ] final   65.35 input  -60.55 | X-H torsion
[ 11005 11000 10999 10996 ] final -106.18 input  -57.11 | X-H torsion

> <Gold.Protein.ActiveResidues>
 VAL166  LYS551  ARG553  GLY616  TRP617  ASP618  TYR619  PRO620  LYS621  CYS622 
 ASP623  PHE694  ASN695  SER759  ASP760  ASP761  ALA762  ILE779  LEU786  VAL792 
 PHE793  MET794  SER795  GLU796  ALA797  LYS798  CYS799  TRP800  GLU811  SER814 

> <Gold.Protein.RotatedAtoms>
  151.8257  133.3401  159.3597 H   0  0  0  0  0  0  0  0  0  0  0  0  # atno 6907 bound_to 6896
  150.7280  134.5531  159.5814 H   0  0  0  0  0  0  0  0  0  0  0  0  # atno 6908 bound_to 6896
  152.2973  134.7653  160.0416 H   0  0  0  0  0  0  0  0  0  0  0  0  # atno 6909 bound_to 6896
  146.1387  139.6334  142.9177 H   0  0  0  0  0  0  0  0  0  0  0  0  # atno 7974 bound_to 7965
  154.5512  140.2316  155.8481 H   0  0  0  0  0  0  0  0  0  0  0  0  # atno 8008 bound_to 7997
  156.1949  140.3068  155.9367 H   0  0  0  0  0  0  0  0  0  0  0  0  # atno 8009 bound_to 7997
  155.3066  140.0433  157.3023 H   0  0  0  0  0  0  0  0  0  0  0  0  # atno 8010 bound_to 7997
  140.4571  144.0962  150.6204 H   0  0  0  0  0  0  0  0  0  0  0  0  # atno 10167 bound_to 10162
  157.6937  131.0243  150.3076 H   0  0  0  0  0  0  0  0  0  0  0  0  # atno 10718 bound_to 10713
  153.0093  135.5360  154.6653 H   0  0  0  0  0  0  0  0  0  0  0  0  # atno 10763 bound_to 10752
  154.5851  135.2853  155.0695 H   0  0  0  0  0  0  0  0  0  0  0  0  # atno 10764 bound_to 10752
  154.1809  135.6516  153.5086 H   0  0  0  0  0  0  0  0  0  0  0  0  # atno 10765 bound_to 10752
  141.1017  133.8871  157.1825 H   0  0  0  0  0  0  0  0  0  0  0  0  # atno 11005 bound_to 11000
  145.5096  141.0436  143.2495 LP  0  0  0  0  0  0  0  0  0  0  0  0  # atno 17320 bound_to 7965
  144.7769  139.6611  143.7171 LP  0  0  0  0  0  0  0  0  0  0  0  0  # atno 17321 bound_to 7965
  140.4138  143.2644  151.9800 LP  0  0  0  0  0  0  0  0  0  0  0  0  # atno 17342 bound_to 10162
  139.4802  144.5892  151.7801 LP  0  0  0  0  0  0  0  0  0  0  0  0  # atno 17343 bound_to 10162
  156.3582  130.3842  149.7273 LP  0  0  0  0  0  0  0  0  0  0  0  0  # atno 17370 bound_to 10713
  156.4728  130.8004  151.3022 LP  0  0  0  0  0  0  0  0  0  0  0  0  # atno 17371 bound_to 10713
  139.9871  135.0078  156.9888 LP  0  0  0  0  0  0  0  0  0  0  0  0  # atno 17394 bound_to 11000
  140.5005  134.1102  155.7249 LP  0  0  0  0  0  0  0  0  0  0  0  0  # atno 17395 bound_to 11000

$$$$
