AV-unprocessed.smi:1749|AV-procd|sdf|7046|dock8
  -GOLD-   22720 8263D 1   1.00000     0.00000
 Structure written by MMmdl.
 32 33  0  0  0  0  0  0  0  0  1 V2000
  153.1734  141.5328  160.6703 C   0  0  0  0  0  0  0  0  0  0  0  0
  152.9049  142.7184  159.7327 C   0  0  2  0  0  0  0  0  0  0  0  0
  152.4899  143.9761  160.5201 C   0  0  0  0  0  0  0  0  0  0  0  0
  152.2173  145.1633  159.5834 C   0  0  0  0  0  0  0  0  0  0  0  0
  151.1578  144.8088  158.5288 C   0  0  0  0  0  0  0  0  0  0  0  0
  151.5593  143.5549  157.7309 C   0  0  2  0  0  0  0  0  0  0  0  0
  150.4890  143.1998  156.8039 N   0  0  0  0  0  0  0  0  0  0  0  0
  150.3108  142.0076  156.2105 C   0  0  0  0  0  0  0  0  0  0  0  0
  151.0723  141.0567  156.3789 O   0  0  0  0  0  0  0  0  0  0  0  0
  149.2358  141.8960  155.4005 N   0  0  0  0  0  0  0  0  0  0  0  0
  148.7397  140.8093  154.6217 C   0  0  0  0  0  0  0  0  0  0  0  0
  147.6530  140.8663  153.8341 N   0  0  0  0  0  0  0  0  0  0  0  0
  147.4003  139.6567  153.2013 N   0  0  0  0  0  0  0  0  0  0  0  0
  148.3027  138.7311  153.5367 C   0  0  0  0  0  0  0  0  0  0  0  0
  149.5492  139.2483  154.6584 S   0  0  0  0  0  0  0  0  0  0  0  0
  151.8410  142.3692  158.6735 C   0  0  0  0  0  0  0  0  0  0  0  0
  152.2775  141.2577  161.2281 H   0  0  0  0  0  0  0  0  0  0  0  0
  153.9547  141.7721  161.3922 H   0  0  0  0  0  0  0  0  0  0  0  0
  153.4992  140.6555  160.1110 H   0  0  0  0  0  0  0  0  0  0  0  0
  153.8367  142.9412  159.2106 H   0  0  0  0  0  0  0  0  0  0  0  0
  151.5954  143.7655  161.1080 H   0  0  0  0  0  0  0  0  0  0  0  0
  153.2705  144.2452  161.2326 H   0  0  0  0  0  0  0  0  0  0  0  0
  151.8889  146.0262  160.1636 H   0  0  0  0  0  0  0  0  0  0  0  0
  153.1429  145.4583  159.0876 H   0  0  0  0  0  0  0  0  0  0  0  0
  150.1995  144.6423  159.0234 H   0  0  0  0  0  0  0  0  0  0  0  0
  151.0147  145.6530  157.8530 H   0  0  0  0  0  0  0  0  0  0  0  0
  152.4765  143.7814  157.1844 H   0  0  0  0  0  0  0  0  0  0  0  0
  149.8126  143.9228  156.6030 H   0  0  0  0  0  0  0  0  0  0  0  0
  148.6979  142.7458  155.3115 H   0  0  0  0  0  0  0  0  0  0  0  0
  148.2337  137.7367  153.1212 H   0  0  0  0  0  0  0  0  0  0  0  0
  152.1705  141.5081  158.0903 H   0  0  0  0  0  0  0  0  0  0  0  0
  150.9174  142.0682  159.1708 H   0  0  0  0  0  0  0  0  0  0  0  0
  1  2  1  0  0  0  0
  1 17  1  0  0  0  0
  1 18  1  0  0  0  0
  1 19  1  0  0  0  0
  2 16  1  0  0  0  0
  2  3  1  0  0  0  0
  2 20  1  0  0  0  0
  3  4  1  0  0  0  0
  3 21  1  0  0  0  0
  3 22  1  0  0  0  0
  4  5  1  0  0  0  0
  4 23  1  0  0  0  0
  4 24  1  0  0  0  0
  5  6  1  0  0  0  0
  5 25  1  0  0  0  0
  5 26  1  0  0  0  0
  6  7  1  0  0  0  0
  6 16  1  0  0  0  0
  6 27  1  0  0  0  0
  7  8  1  0  0  0  0
  7 28  1  0  0  0  0
  8  9  2  0  0  0  0
  8 10  1  0  0  0  0
 10 11  1  0  0  0  0
 10 29  1  0  0  0  0
 11 15  1  0  0  0  0
 11 12  2  0  0  0  0
 12 13  1  0  0  0  0
 13 14  2  0  0  0  0
 14 15  1  0  0  0  0
 14 30  1  0  0  0  0
 16 31  1  0  0  0  0
 16 32  1  0  0  0  0
M  END
> <s_m_source_file>
AV-unprocessed.smi

> <i_m_source_file_index>
1749

> <i_lp_mmshare_version>
43012

> <i_f3d_flags>
0

> <s_epik_input>
W0NIM11bQ0BASF0xW0NIMl1bQ0gyXVtDSDJdW0NASF0oW0NIMl0xKVtOSF1DKD1PKVtOSF1jMm5uW2NIXXMy

> <s_epik_cmdline>
J2VwaWtfcHl0aG9uJywgJy1waCcsICc3LjAnLCAnLXRuJywgJzgnLCAnLW1hJywgJzIwMCcsICctbWV0YWxfYmluZGluZycsICctaW1hZScsICc8aW5maWxlLm1hZT4nLCAnLW9tYWUnLCAnPG91dGZpbGUubWFlPic=

> <r_lp_tautomer_probability>
1

> <r_epik_Ionization_Penalty>
0.000318591

> <r_epik_Ionization_Penalty_Charging>
0

> <r_epik_Ionization_Penalty_Neutral>
0.000318591

> <r_epik_State_Penalty>
-0

> <r_epik_Charging_Adjusted_Penalty>
0

> <i_epik_Tot_Q>
0

> <i_epik_Tot_abs_Q>
0

> <r_epik_Metal_State_Penalty>
0.169791

> <b_epik_Metal_Only>
0

> <s_lp_Force_Field>
OPLS_2005

> <r_lp_Energy>
11.6734

> <b_lp_Chiralities_Consistent>
1

> <s_lp_Variant>
AV-unprocessed.smi:1749-3

> <Gold.Version>
5.8.1

> <Gold.Id.Protein>
6NUR|6NUR_protein|mol2

> <Gold.PLP.Fitness>
41.6573

> <Gold.PLP.PLP>
-33.7598

> <Gold.PLP.part.hbond>
-1.8321

> <Gold.PLP.part.metal>
0.0000

> <Gold.PLP.part.buried>
-2.8562

> <Gold.PLP.part.nonpolar>
-29.7773

> <Gold.PLP.part.repulsive>
1.2773

> <Gold.PLP.ligand.clash>
0.0000

> <Gold.PLP.ligand.torsion>
0.2763

> <Gold.PLP.Chemscore.Hbond>
1.8160

> <Gold.PLP.Chemscore.CHOScore>
1.0000

> <Gold.PLP.Chemscore.Metal>
0.0000

> <Gold.Chemscore.Hbonds>
donor molecule, donor type, donor heavy atom, donor atom, acceptor molecule, acceptor atom, score
      L1  H     7    28       P1  8028  1.00
      L1  H    10    29       P1  8028  0.82
      L1  C    14    30       P1  7948  1.00

> <Gold.PLP.Chemscore.Internal.Correction>
0.0021

> <Gold.Rescore>
     Score         DG    S(hbond)    S(metal)    S(lipo)     H(rot)  DE(clash)    DE(int)     intcor
     16.92     -19.94       1.82        0.00      93.57       1.00       0.07       2.94       ----

> <Gold.Chemscore.Fitness>
16.9190

> <Gold.Chemscore.DG>
-19.9354

> <Gold.Chemscore.ZeroCoef>
-5.4800

> <Gold.Chemscore.Hbond>
1.8166

> <Gold.Chemscore.Metal>
0.0000

> <Gold.Chemscore.Lipo>
93.5715

> <Gold.Chemscore.Internal_Hbond>
0.0000

> <Gold.Chemscore.DEClash>
0.0736

> <Gold.Chemscore.DEInternal>
2.9428

> <Gold.Chemscore.Rot>
1.0000

> <Gold.Chemscore.Internal.Correction>
   9.000000E+99

> <Gold.Chemscore.Hbonds>
donor molecule, donor type, donor heavy atom, donor atom, acceptor molecule, acceptor atom, score
      L1  H     7    28       P1  8028  0.91
      L1  H    10    29       P1  8028  0.76

> <Gold.Chemscore.Hbond.Weighted>
-6.0675

> <Gold.Chemscore.Metal.Weighted>
-0.0000

> <Gold.Chemscore.Lipo.Weighted>
-10.9479

> <Gold.Chemscore.Internal_Hbond.Weighted>
0.0000

> <Gold.Chemscore.DEClash.Weighted>
0.0736

> <Gold.Chemscore.DEInternal.Weighted>
2.9428

> <Gold.Chemscore.Rot.Weighted>
2.5600

> <Gold.Chemscore.Internal.Correction.Weighted>
   9.000000E+99

> <Gold.Protein.RotatedTorsions>
[ 6907 6896 6895 6894 ] final   31.46 input  -60.11 | X-H torsion
[ 7974 7965 7964 7962 ] final  -21.29 input  175.53 | X-H torsion
[ 8008 7997 7996 7995 ] final   68.71 input   59.86 | X-H torsion
[ 10167 10162 10161 10158 ] final   73.08 input  -65.29 | X-H torsion
[ 10718 10713 10712 10709 ] final  141.03 input   66.30 | X-H torsion
[ 10763 10752 10751 10750 ] final -112.58 input  -60.55 | X-H torsion
[ 11005 11000 10999 10996 ] final   31.40 input  -57.11 | X-H torsion

> <Gold.Protein.ActiveResidues>
 VAL166  LYS551  ARG553  GLY616  TRP617  ASP618  TYR619  PRO620  LYS621  CYS622 
 ASP623  PHE694  ASN695  SER759  ASP760  ASP761  ALA762  ILE779  LEU786  VAL792 
 PHE793  MET794  SER795  GLU796  ALA797  LYS798  CYS799  TRP800  GLU811  SER814 

> <Gold.Protein.RotatedAtoms>
  152.0606  134.9596  160.0574 H   0  0  0  0  0  0  0  0  0  0  0  0  # atno 6907 bound_to 6896
  152.0961  133.4221  159.4574 H   0  0  0  0  0  0  0  0  0  0  0  0  # atno 6908 bound_to 6896
  150.6838  134.2734  159.4641 H   0  0  0  0  0  0  0  0  0  0  0  0  # atno 6909 bound_to 6896
  146.1741  140.4321  142.8520 H   0  0  0  0  0  0  0  0  0  0  0  0  # atno 7974 bound_to 7965
  155.7125  140.3494  155.4980 H   0  0  0  0  0  0  0  0  0  0  0  0  # atno 8008 bound_to 7997
  155.9343  140.1090  157.1129 H   0  0  0  0  0  0  0  0  0  0  0  0  # atno 8009 bound_to 7997
  154.4091  140.1225  156.4830 H   0  0  0  0  0  0  0  0  0  0  0  0  # atno 8010 bound_to 7997
  140.0284  144.5485  150.7526 H   0  0  0  0  0  0  0  0  0  0  0  0  # atno 10167 bound_to 10162
  157.3966  131.1011  151.0594 H   0  0  0  0  0  0  0  0  0  0  0  0  # atno 10718 bound_to 10713
  154.8356  135.4485  154.1216 H   0  0  0  0  0  0  0  0  0  0  0  0  # atno 10763 bound_to 10752
  153.2451  135.6920  153.7747 H   0  0  0  0  0  0  0  0  0  0  0  0  # atno 10764 bound_to 10752
  153.7080  135.3361  155.3216 H   0  0  0  0  0  0  0  0  0  0  0  0  # atno 10765 bound_to 10752
  140.2842  134.2938  155.7792 H   0  0  0  0  0  0  0  0  0  0  0  0  # atno 11005 bound_to 11000
  144.8208  140.6546  143.6354 LP  0  0  0  0  0  0  0  0  0  0  0  0  # atno 17320 bound_to 7965
  145.4261  139.1556  143.4048 LP  0  0  0  0  0  0  0  0  0  0  0  0  # atno 17321 bound_to 7965
  140.7313  143.2692  151.3942 LP  0  0  0  0  0  0  0  0  0  0  0  0  # atno 17342 bound_to 10162
  139.6093  144.1132  152.2282 LP  0  0  0  0  0  0  0  0  0  0  0  0  # atno 17343 bound_to 10162
  157.1608  130.6225  149.5610 LP  0  0  0  0  0  0  0  0  0  0  0  0  # atno 17370 bound_to 10713
  155.9812  130.4818  150.6814 LP  0  0  0  0  0  0  0  0  0  0  0  0  # atno 17371 bound_to 10713
  141.2157  133.7544  156.9527 LP  0  0  0  0  0  0  0  0  0  0  0  0  # atno 17394 bound_to 11000
  140.1255  134.9390  157.2263 LP  0  0  0  0  0  0  0  0  0  0  0  0  # atno 17395 bound_to 11000

$$$$
