AV-unprocessed.smi:3328|AV-procd|sdf|12791|dock9
  -GOLD-   2272019143D 1   1.00000     0.00000
 Structure written by MMmdl.
 41 42  0  0  0  0  0  0  0  0  2 V2000
  155.0098  141.1868  162.1522 C   0  0  0  0  0  0  0  0  0  0  0  0
  153.8445  141.6016  161.3014 C   0  0  0  0  0  0  0  0  0  0  0  0
  152.8816  142.6149  161.5720 C   0  0  0  0  0  0  0  0  0  0  0  0
  151.9710  142.7261  160.6186 N   0  0  0  0  0  0  0  0  0  0  0  0
  152.3206  141.7923  159.7083 N   0  0  0  0  0  0  0  0  0  0  0  0
  151.5120  141.6107  158.5164 C   0  0  0  0  0  0  0  0  0  0  0  0
  151.2892  142.9242  157.7352 C   0  0  2  0  0  0  0  0  0  0  0  0
  152.3507  143.9657  158.1141 C   0  0  0  0  0  0  0  0  0  0  0  0
  149.9406  143.4788  157.9937 N   0  3  0  0  0  0  0  0  0  0  0  0
  148.9028  142.4750  158.3093 C   0  0  0  0  0  0  0  0  0  0  0  0
  148.7916  141.4319  157.1878 C   0  0  0  0  0  0  0  0  0  0  0  0
  147.8507  141.8501  156.1523 N   0  0  0  0  0  0  0  0  0  0  0  0
  146.5493  142.3924  156.5045 C   0  0  0  0  0  0  0  0  0  0  0  0
  145.9283  142.8404  155.1731 C   0  0  0  0  0  0  0  0  0  0  0  0
  146.8018  142.2246  154.0742 C   0  0  0  0  0  0  0  0  0  0  0  0
  148.0213  141.7260  154.8304 C   0  0  0  0  0  0  0  0  0  0  0  0
  149.0161  141.2708  154.2678 O   0  0  0  0  0  0  0  0  0  0  0  0
  153.4514  141.1032  160.0917 C   0  0  0  0  0  0  0  0  0  0  0  0
  154.9522  141.6131  163.1540 H   0  0  0  0  0  0  0  0  0  0  0  0
  155.9572  141.5087  161.7194 H   0  0  0  0  0  0  0  0  0  0  0  0
  155.0590  140.1039  162.2674 H   0  0  0  0  0  0  0  0  0  0  0  0
  152.8142  143.2644  162.4324 H   0  0  0  0  0  0  0  0  0  0  0  0
  151.9835  140.8604  157.8790 H   0  0  0  0  0  0  0  0  0  0  0  0
  150.5528  141.1932  158.8254 H   0  0  0  0  0  0  0  0  0  0  0  0
  151.3966  142.7264  156.6670 H   0  0  0  0  0  0  0  0  0  0  0  0
  153.3554  143.5961  157.9055 H   0  0  0  0  0  0  0  0  0  0  0  0
  152.3028  144.2155  159.1747 H   0  0  0  0  0  0  0  0  0  0  0  0
  152.2170  144.8879  157.5475 H   0  0  0  0  0  0  0  0  0  0  0  0
  150.0121  144.1286  158.7641 H   0  0  0  0  0  0  0  0  0  0  0  0
  149.1510  141.9914  159.2548 H   0  0  0  0  0  0  0  0  0  0  0  0
  147.9426  142.9696  158.4508 H   0  0  0  0  0  0  0  0  0  0  0  0
  149.7696  141.2650  156.7327 H   0  0  0  0  0  0  0  0  0  0  0  0
  148.4757  140.4726  157.6004 H   0  0  0  0  0  0  0  0  0  0  0  0
  145.9478  141.6128  156.9738 H   0  0  0  0  0  0  0  0  0  0  0  0
  146.6422  143.2225  157.2063 H   0  0  0  0  0  0  0  0  0  0  0  0
  144.8875  142.5256  155.0894 H   0  0  0  0  0  0  0  0  0  0  0  0
  145.9476  143.9284  155.0966 H   0  0  0  0  0  0  0  0  0  0  0  0
  146.3030  141.3828  153.5932 H   0  0  0  0  0  0  0  0  0  0  0  0
  147.0769  142.9523  153.3102 H   0  0  0  0  0  0  0  0  0  0  0  0
  153.8730  140.3167  159.4831 H   0  0  0  0  0  0  0  0  0  0  0  0
  149.6388  143.9853  157.1736 H   0  0  0  0  0  0  0  0  0  0  0  0
  1  2  1  0  0  0  0
  1 19  1  0  0  0  0
  1 20  1  0  0  0  0
  1 21  1  0  0  0  0
  2 18  2  0  0  0  0
  2  3  1  0  0  0  0
  3  4  2  0  0  0  0
  3 22  1  0  0  0  0
  4  5  1  0  0  0  0
  5  6  1  0  0  0  0
  5 18  1  0  0  0  0
  6  7  1  0  0  0  0
  6 23  1  0  0  0  0
  6 24  1  0  0  0  0
  7  8  1  0  0  0  0
  7  9  1  0  0  0  0
  7 25  1  0  0  0  0
  8 26  1  0  0  0  0
  8 27  1  0  0  0  0
  8 28  1  0  0  0  0
  9 10  1  0  0  0  0
  9 29  1  0  0  0  0
  9 41  1  0  0  0  0
 10 11  1  0  0  0  0
 10 30  1  0  0  0  0
 10 31  1  0  0  0  0
 11 12  1  0  0  0  0
 11 32  1  0  0  0  0
 11 33  1  0  0  0  0
 12 16  1  0  0  0  0
 12 13  1  0  0  0  0
 13 14  1  0  0  0  0
 13 34  1  0  0  0  0
 13 35  1  0  0  0  0
 14 15  1  0  0  0  0
 14 36  1  0  0  0  0
 14 37  1  0  0  0  0
 15 16  1  0  0  0  0
 15 38  1  0  0  0  0
 15 39  1  0  0  0  0
 16 17  2  0  0  0  0
 18 40  1  0  0  0  0
M  CHG  1   9   1
M  END
> <s_m_source_file>
AV-unprocessed.smi

> <i_m_source_file_index>
3328

> <i_lp_mmshare_version>
43012

> <i_f3d_flags>
0

> <s_epik_input>
W0NIM11jMVtjSF1ubihbY0hdMSlbQ0gyXVtDQEhdKFtDSDNdKVtOSF1bQ0gyXVtDSDJdTjJbQ0gyXVtDSDJdW0NIMl1DMj1P

> <s_epik_cmdline>
J2VwaWtfcHl0aG9uJywgJy1waCcsICc3LjAnLCAnLXRuJywgJzgnLCAnLW1hJywgJzIwMCcsICctbWV0YWxfYmluZGluZycsICctaW1hZScsICc8aW5maWxlLm1hZT4nLCAnLW9tYWUnLCAnPG91dGZpbGUubWFlPic=

> <r_lp_tautomer_probability>
1

> <r_epik_Ionization_Penalty>
0.00826719

> <r_epik_Ionization_Penalty_Charging>
0.00825899

> <r_epik_Ionization_Penalty_Neutral>
8.19932e-06

> <r_epik_State_Penalty>
0.00621436

> <r_epik_Charging_Adjusted_Penalty>
0.0144734

> <i_epik_Tot_Q>
1

> <i_epik_Tot_abs_Q>
1

> <r_epik_Metal_State_Penalty>
0.00621509

> <b_epik_Metal_Only>
0

> <s_lp_Force_Field>
OPLS_2005

> <r_lp_Energy>
18.6505

> <b_lp_Chiralities_Consistent>
1

> <s_lp_Variant>
AV-unprocessed.smi:3328-1

> <Gold.Version>
5.8.1

> <Gold.Id.Protein>
6NUR|6NUR_protein|mol2

> <Gold.PLP.Fitness>
47.3193

> <Gold.PLP.PLP>
-41.4652

> <Gold.PLP.part.hbond>
-4.2707

> <Gold.PLP.part.metal>
0.0000

> <Gold.PLP.part.buried>
-0.7326

> <Gold.PLP.part.nonpolar>
-35.3193

> <Gold.PLP.part.repulsive>
0.2942

> <Gold.PLP.ligand.clash>
0.0000

> <Gold.PLP.ligand.torsion>
1.3718

> <Gold.PLP.Chemscore.Hbond>
2.8397

> <Gold.PLP.Chemscore.CHOScore>
0.0000

> <Gold.PLP.Chemscore.Metal>
0.0000

> <Gold.Chemscore.Hbonds>
donor molecule, donor type, donor heavy atom, donor atom, acceptor molecule, acceptor atom, score
      L1  H     9    41       P1  8028  2.00
      P1  H  8011  8017       L1    17  0.09

> <Gold.PLP.Chemscore.Internal.Correction>
0.0787

> <Gold.Rescore>
     Score         DG    S(hbond)    S(metal)    S(lipo)     H(rot)  DE(clash)    DE(int)     intcor
     12.73     -16.06       1.71        0.00      84.69       1.97       0.48       2.85       ----

> <Gold.Chemscore.Fitness>
12.7334

> <Gold.Chemscore.DG>
-16.0600

> <Gold.Chemscore.ZeroCoef>
-5.4800

> <Gold.Chemscore.Hbond>
1.7120

> <Gold.Chemscore.Metal>
0.0000

> <Gold.Chemscore.Lipo>
84.6895

> <Gold.Chemscore.Internal_Hbond>
0.0000

> <Gold.Chemscore.DEClash>
0.4804

> <Gold.Chemscore.DEInternal>
2.8461

> <Gold.Chemscore.Rot>
1.9714

> <Gold.Chemscore.Internal.Correction>
   9.000000E+99

> <Gold.Chemscore.Hbonds>
donor molecule, donor type, donor heavy atom, donor atom, acceptor molecule, acceptor atom, score
      L1  H     9    41       P1  8028  0.65
      P1  H  8011  8017       L1    17  0.11

> <Gold.Chemscore.Hbond.Weighted>
-5.7181

> <Gold.Chemscore.Metal.Weighted>
-0.0000

> <Gold.Chemscore.Lipo.Weighted>
-9.9087

> <Gold.Chemscore.Internal_Hbond.Weighted>
0.0000

> <Gold.Chemscore.DEClash.Weighted>
0.4804

> <Gold.Chemscore.DEInternal.Weighted>
2.8461

> <Gold.Chemscore.Rot.Weighted>
5.0468

> <Gold.Chemscore.Internal.Correction.Weighted>
   9.000000E+99

> <Gold.Protein.RotatedTorsions>
[ 6907 6896 6895 6894 ] final   24.88 input  -60.11 | X-H torsion
[ 7974 7965 7964 7962 ] final  -95.04 input  175.53 | X-H torsion
[ 8008 7997 7996 7995 ] final   -9.55 input   59.86 | X-H torsion
[ 10167 10162 10161 10158 ] final  -77.55 input  -65.29 | X-H torsion
[ 10718 10713 10712 10709 ] final  -41.37 input   66.30 | X-H torsion
[ 10763 10752 10751 10750 ] final   67.82 input  -60.55 | X-H torsion
[ 11005 11000 10999 10996 ] final  120.66 input  -57.11 | X-H torsion

> <Gold.Protein.ActiveResidues>
 VAL166  LYS551  ARG553  GLY616  TRP617  ASP618  TYR619  PRO620  LYS621  CYS622 
 ASP623  PHE694  ASN695  SER759  ASP760  ASP761  ALA762  ILE779  LEU786  VAL792 
 PHE793  MET794  SER795  GLU796  ALA797  LYS798  CYS799  TRP800  GLU811  SER814 

> <Gold.Protein.RotatedAtoms>
  151.9641  135.0109  160.0549 H   0  0  0  0  0  0  0  0  0  0  0  0  # atno 6907 bound_to 6896
  152.1842  133.4724  159.4982 H   0  0  0  0  0  0  0  0  0  0  0  0  # atno 6908 bound_to 6896
  150.6923  134.1712  159.4256 H   0  0  0  0  0  0  0  0  0  0  0  0  # atno 6909 bound_to 6896
  145.3653  140.9498  143.2477 H   0  0  0  0  0  0  0  0  0  0  0  0  # atno 7974 bound_to 7965
  154.5636  140.2352  155.8297 H   0  0  0  0  0  0  0  0  0  0  0  0  # atno 8008 bound_to 7997
  156.2050  140.3042  155.9566 H   0  0  0  0  0  0  0  0  0  0  0  0  # atno 8009 bound_to 7997
  155.2842  140.0424  157.3008 H   0  0  0  0  0  0  0  0  0  0  0  0  # atno 8010 bound_to 7997
  140.4760  143.2414  151.8131 H   0  0  0  0  0  0  0  0  0  0  0  0  # atno 10167 bound_to 10162
  156.2711  130.4207  149.8437 H   0  0  0  0  0  0  0  0  0  0  0  0  # atno 10718 bound_to 10713
  153.0205  135.5270  154.7039 H   0  0  0  0  0  0  0  0  0  0  0  0  # atno 10763 bound_to 10752
  154.6140  135.2881  155.0403 H   0  0  0  0  0  0  0  0  0  0  0  0  # atno 10764 bound_to 10752
  154.1414  135.6577  153.4995 H   0  0  0  0  0  0  0  0  0  0  0  0  # atno 10765 bound_to 10752
  139.9194  134.9635  156.7840 H   0  0  0  0  0  0  0  0  0  0  0  0  # atno 11005 bound_to 11000
  144.8616  139.5169  143.6809 LP  0  0  0  0  0  0  0  0  0  0  0  0  # atno 17320 bound_to 7965
  146.2909  139.7137  142.9161 LP  0  0  0  0  0  0  0  0  0  0  0  0  # atno 17321 bound_to 7965
  139.4826  144.4832  151.9280 LP  0  0  0  0  0  0  0  0  0  0  0  0  # atno 17342 bound_to 10162
  140.3917  144.2607  150.5899 LP  0  0  0  0  0  0  0  0  0  0  0  0  # atno 17343 bound_to 10162
  156.5919  130.8510  151.3410 LP  0  0  0  0  0  0  0  0  0  0  0  0  # atno 17370 bound_to 10713
  157.7284  130.9656  150.1740 LP  0  0  0  0  0  0  0  0  0  0  0  0  # atno 17371 bound_to 10713
  140.6521  133.9722  155.7760 LP  0  0  0  0  0  0  0  0  0  0  0  0  # atno 17394 bound_to 11000
  141.0701  134.0218  157.3538 LP  0  0  0  0  0  0  0  0  0  0  0  0  # atno 17395 bound_to 11000

$$$$
