AV-unprocessed.smi:1|AV-procd|sdf|10|dock5
  -GOLD-   2262015103D 1   1.00000     0.00000
 Structure written by MMmdl.
 57 62  0  0  0  0  0  0  0  0  1 V2000
  153.1023  139.6916  157.4256 O   0  0  0  0  0  0  0  0  0  0  0  0
  152.2955  139.8816  158.3397 C   0  0  0  0  0  0  0  0  0  0  0  0
  151.4065  138.9849  158.9169 N   0  0  0  0  0  0  0  0  0  0  0  0
  150.8240  138.0830  158.1866 C   0  0  0  0  0  0  0  0  0  0  0  0
  150.8842  137.7870  156.8188 N   0  0  0  0  0  0  0  0  0  0  0  0
  150.1843  136.7598  156.1674 C   0  0  0  0  0  0  0  0  0  0  0  0
  149.3720  135.9211  156.7534 N   0  0  0  0  0  0  0  0  0  0  0  0
  149.2890  136.1613  158.1176 C   0  0  0  0  0  0  0  0  0  0  0  0
  149.9164  137.1340  158.8650 C   0  0  0  0  0  0  0  0  0  0  0  0
  149.5810  137.0164  160.2076 N   0  0  0  0  0  0  0  0  0  0  0  0
  148.7660  135.9658  160.2123 C   0  0  0  0  0  0  0  0  0  0  0  0
  148.5351  135.4009  159.0071 N   0  0  0  0  0  0  0  0  0  0  0  0
  147.6760  134.2200  158.6462 C   0  0  1  0  0  0  0  0  0  0  0  0
  147.7701  134.0546  157.2617 O   0  0  0  0  0  0  0  0  0  0  0  0
  148.6331  132.9664  156.9321 C   0  0  1  0  0  0  0  0  0  0  0  0
  149.6628  133.3352  155.8516 C   0  0  0  0  0  0  0  0  0  0  0  0
  149.1854  133.0698  154.5381 O   0  0  0  0  0  0  0  0  0  0  0  0
  148.5196  131.9249  154.2637 C   0  0  0  0  0  0  0  0  0  0  0  0
  148.6147  130.8975  154.9377 O   0  0  0  0  0  0  0  0  0  0  0  0
  147.6476  132.0327  153.0598 C   0  0  0  0  0  0  0  0  0  0  0  0
  146.8194  130.9422  152.7060 C   0  0  0  0  0  0  0  0  0  0  0  0
  145.9732  131.0189  151.5832 C   0  0  0  0  0  0  0  0  0  0  0  0
  145.9418  132.1895  150.8033 C   0  0  0  0  0  0  0  0  0  0  0  0
  146.7612  133.2809  151.1447 C   0  0  0  0  0  0  0  0  0  0  0  0
  147.6127  133.2038  152.2640 C   0  0  0  0  0  0  0  0  0  0  0  0
  149.2110  132.4264  158.2473 C   0  0  2  0  0  0  0  0  0  0  0  0
  149.2169  131.0080  158.2864 O   0  0  0  0  0  0  0  0  0  0  0  0
  147.7604  130.4838  158.9227 S   0  0  0  0  0  0  0  0  0  0  0  0
  146.9451  129.9343  157.8287 O   0  0  0  0  0  0  0  0  0  0  0  0
  148.0426  129.7329  160.1555 O   0  0  0  0  0  0  0  0  0  0  0  0
  147.1340  131.9728  159.3465 O   0  0  0  0  0  0  0  0  0  0  0  0
  148.1841  132.9186  159.2726 C   0  0  2  0  0  0  0  0  0  0  0  0
  152.2461  141.2400  158.9588 C   0  0  0  0  0  0  0  0  0  0  0  0
  153.1346  141.5746  160.0025 C   0  0  0  0  0  0  0  0  0  0  0  0
  153.0948  142.8594  160.5787 C   0  0  0  0  0  0  0  0  0  0  0  0
  152.1708  143.8139  160.1105 C   0  0  0  0  0  0  0  0  0  0  0  0
  151.2841  143.4831  159.0672 C   0  0  0  0  0  0  0  0  0  0  0  0
  151.3209  142.1978  158.4923 C   0  0  0  0  0  0  0  0  0  0  0  0
  150.3711  136.7077  155.0940 H   0  0  0  0  0  0  0  0  0  0  0  0
  148.3367  135.6056  161.1344 H   0  0  0  0  0  0  0  0  0  0  0  0
  146.6744  134.5088  158.9665 H   0  0  0  0  0  0  0  0  0  0  0  0
  147.9768  132.2053  156.5090 H   0  0  0  0  0  0  0  0  0  0  0  0
  149.8784  134.4016  155.9168 H   0  0  0  0  0  0  0  0  0  0  0  0
  150.6091  132.8271  156.0419 H   0  0  0  0  0  0  0  0  0  0  0  0
  146.8193  130.0369  153.2957 H   0  0  0  0  0  0  0  0  0  0  0  0
  145.3411  130.1818  151.3258 H   0  0  0  0  0  0  0  0  0  0  0  0
  145.2883  132.2515  149.9456 H   0  0  0  0  0  0  0  0  0  0  0  0
  146.7352  134.1812  150.5484 H   0  0  0  0  0  0  0  0  0  0  0  0
  148.2230  134.0621  152.5029 H   0  0  0  0  0  0  0  0  0  0  0  0
  150.2002  132.8353  158.4546 H   0  0  0  0  0  0  0  0  0  0  0  0
  148.5817  133.0596  160.2772 H   0  0  0  0  0  0  0  0  0  0  0  0
  153.8489  140.8489  160.3644 H   0  0  0  0  0  0  0  0  0  0  0  0
  153.7744  143.1133  161.3787 H   0  0  0  0  0  0  0  0  0  0  0  0
  152.1424  144.7993  160.5517 H   0  0  0  0  0  0  0  0  0  0  0  0
  150.5760  144.2152  158.7079 H   0  0  0  0  0  0  0  0  0  0  0  0
  150.6381  141.9519  157.6922 H   0  0  0  0  0  0  0  0  0  0  0  0
  151.4841  138.3675  156.2507 H   0  0  0  0  0  0  0  0  0  0  0  0
  1  2  2  0  0  0  0
  2  3  1  0  0  0  0
  2 33  1  0  0  0  0
  3  4  2  0  0  0  0
  4  9  1  0  0  0  0
  4  5  1  0  0  0  0
  5  6  1  0  0  0  0
  5 57  1  0  0  0  0
  6  7  2  0  0  0  0
  6 39  1  0  0  0  0
  7  8  1  0  0  0  0
  8 12  1  0  0  0  0
  8  9  2  0  0  0  0
  9 10  1  0  0  0  0
 10 11  2  0  0  0  0
 11 12  1  0  0  0  0
 11 40  1  0  0  0  0
 12 13  1  0  0  0  0
 13 32  1  0  0  0  0
 13 14  1  0  0  0  0
 13 41  1  0  0  0  0
 14 15  1  0  0  0  0
 15 16  1  0  0  0  0
 15 26  1  0  0  0  0
 15 42  1  0  0  0  0
 16 17  1  0  0  0  0
 16 43  1  0  0  0  0
 16 44  1  0  0  0  0
 17 18  1  0  0  0  0
 18 19  2  0  0  0  0
 18 20  1  0  0  0  0
 20 25  1  0  0  0  0
 20 21  2  0  0  0  0
 21 22  1  0  0  0  0
 21 45  1  0  0  0  0
 22 23  2  0  0  0  0
 22 46  1  0  0  0  0
 23 24  1  0  0  0  0
 23 47  1  0  0  0  0
 24 25  2  0  0  0  0
 24 48  1  0  0  0  0
 25 49  1  0  0  0  0
 26 32  1  0  0  0  0
 26 27  1  0  0  0  0
 26 50  1  0  0  0  0
 27 28  1  0  0  0  0
 28 29  2  0  0  0  0
 28 30  2  0  0  0  0
 28 31  1  0  0  0  0
 31 32  1  0  0  0  0
 32 51  1  0  0  0  0
 33 38  1  0  0  0  0
 33 34  2  0  0  0  0
 34 35  1  0  0  0  0
 34 52  1  0  0  0  0
 35 36  2  0  0  0  0
 35 53  1  0  0  0  0
 36 37  1  0  0  0  0
 36 54  1  0  0  0  0
 37 38  2  0  0  0  0
 37 55  1  0  0  0  0
 38 56  1  0  0  0  0
M  END
> <s_m_source_file>
AV-unprocessed.smi

> <i_m_source_file_index>
1

> <i_lp_mmshare_version>
43012

> <i_f3d_flags>
0

> <s_epik_input>
W2NIXTFbY0hdW2NIXVtjSF1bY0hdYzFDKD1PKVtOSF1jKG5bY0hdbjIpYyhjMjMpbltjSF1uM1tDQEBIXShbQ0BIXShbQ0BIXTQ1KU9TKE81KSg9Tyk9TylPW0NASF00W0NIMl1PQyg9TyljNltjSF1bY0hdW2NIXVtjSF1bY0hdNg==

> <s_epik_cmdline>
J2VwaWtfcHl0aG9uJywgJy1waCcsICc3LjAnLCAnLXRuJywgJzgnLCAnLW1hJywgJzIwMCcsICctbWV0YWxfYmluZGluZycsICctaW1hZScsICc8aW5maWxlLm1hZT4nLCAnLW9tYWUnLCAnPG91dGZpbGUubWFlPic=

> <r_epik_Ionization_Penalty>
0.122545

> <r_epik_Ionization_Penalty_Charging>
0.122545

> <r_epik_Ionization_Penalty_Neutral>
7.8935e-16

> <r_epik_State_Penalty>
2.69178

> <r_epik_Charging_Adjusted_Penalty>
2.81433

> <i_epik_Tot_Q>
0

> <i_epik_Tot_abs_Q>
0

> <r_epik_Metal_State_Penalty>
3.02665

> <b_epik_Metal_Only>
0

> <s_epik_Chemistry_Notes>
This compound has an ester and may undergo hydrolysis at high or low pH. This compound contains an acetal/aminal-like group ( X-CH(R)-Y where X, Y are N, S, or O) that may be acid/base labile, releasing an aldehyde.

> <s_lp_Force_Field>
OPLS_2005

> <r_lp_Energy>
55.0636

> <b_lp_Chiralities_Consistent>
1

> <s_lp_Variant>
AV-unprocessed.smi:1-10

> <Gold.Version>
5.8.1

> <Gold.Id.Protein>
6NUR|6NUR_protein|mol2

> <Gold.PLP.Fitness>
49.1855

> <Gold.PLP.PLP>
-49.6941

> <Gold.PLP.part.hbond>
-2.0000

> <Gold.PLP.part.metal>
0.0000

> <Gold.PLP.part.buried>
-7.4787

> <Gold.PLP.part.nonpolar>
-41.1403

> <Gold.PLP.part.repulsive>
0.1158

> <Gold.PLP.ligand.clash>
0.0000

> <Gold.PLP.ligand.torsion>
2.5891

> <Gold.PLP.Chemscore.Hbond>
1.4640

> <Gold.PLP.Chemscore.CHOScore>
0.0000

> <Gold.PLP.Chemscore.Metal>
0.0000

> <Gold.Chemscore.Hbonds>
donor molecule, donor type, donor heavy atom, donor atom, acceptor molecule, acceptor atom, score
      P1  H  6931  6943       L1    10  0.32
      P1  H  7997  8009       L1     1  0.98

> <Gold.PLP.Chemscore.Internal.Correction>
0.2775

> <Gold.Rescore>
     Score         DG    S(hbond)    S(metal)    S(lipo)     H(rot)  DE(clash)    DE(int)     intcor
     12.94     -18.68       1.45        0.00     118.04       2.13       0.07       5.68       ----

> <Gold.Chemscore.Fitness>
12.9360

> <Gold.Chemscore.DG>
-18.6831

> <Gold.Chemscore.ZeroCoef>
-5.4800

> <Gold.Chemscore.Hbond>
1.4533

> <Gold.Chemscore.Metal>
0.0000

> <Gold.Chemscore.Lipo>
118.0371

> <Gold.Chemscore.Internal_Hbond>
0.0000

> <Gold.Chemscore.DEClash>
0.0666

> <Gold.Chemscore.DEInternal>
5.6806

> <Gold.Chemscore.Rot>
2.1333

> <Gold.Chemscore.Internal.Correction>
   9.000000E+99

> <Gold.Chemscore.Hbonds>
donor molecule, donor type, donor heavy atom, donor atom, acceptor molecule, acceptor atom, score
      P1  H  6931  6943       L1    10  0.21
      P1  H  7997  8009       L1     1  0.91

> <Gold.Chemscore.Hbond.Weighted>
-4.8542

> <Gold.Chemscore.Metal.Weighted>
-0.0000

> <Gold.Chemscore.Lipo.Weighted>
-13.8103

> <Gold.Chemscore.Internal_Hbond.Weighted>
0.0000

> <Gold.Chemscore.DEClash.Weighted>
0.0666

> <Gold.Chemscore.DEInternal.Weighted>
5.6806

> <Gold.Chemscore.Rot.Weighted>
5.4614

> <Gold.Chemscore.Internal.Correction.Weighted>
   9.000000E+99

> <Gold.Protein.RotatedTorsions>
[ 6907 6896 6895 6894 ] final  -37.69 input  -60.11 | X-H torsion
[ 7974 7965 7964 7962 ] final   22.88 input  175.53 | X-H torsion
[ 8008 7997 7996 7995 ] final  173.38 input   59.86 | X-H torsion
[ 10167 10162 10161 10158 ] final  -32.77 input  -65.29 | X-H torsion
[ 10718 10713 10712 10709 ] final   29.45 input   66.30 | X-H torsion
[ 10763 10752 10751 10750 ] final  -34.31 input  -60.55 | X-H torsion
[ 11005 11000 10999 10996 ] final -125.02 input  -57.11 | X-H torsion

> <Gold.Protein.ActiveResidues>
 VAL166  LYS551  ARG553  GLY616  TRP617  ASP618  TYR619  PRO620  LYS621  CYS622 
 ASP623  PHE694  ASN695  SER759  ASP760  ASP761  ALA762  ILE779  LEU786  VAL792 
 PHE793  MET794  SER795  GLU796  ALA797  LYS798  CYS799  TRP800  GLU811  SER814 

> <Gold.Protein.RotatedAtoms>
  151.0116  134.9401  159.8009 H   0  0  0  0  0  0  0  0  0  0  0  0  # atno 6907 bound_to 6896
  152.5304  134.3021  159.9092 H   0  0  0  0  0  0  0  0  0  0  0  0  # atno 6908 bound_to 6896
  151.3027  133.4073  159.2675 H   0  0  0  0  0  0  0  0  0  0  0  0  # atno 6909 bound_to 6896
  146.2009  139.7823  142.8762 H   0  0  0  0  0  0  0  0  0  0  0  0  # atno 7974 bound_to 7965
  156.1081  140.1461  156.9377 H   0  0  0  0  0  0  0  0  0  0  0  0  # atno 8008 bound_to 7997
  154.4748  140.0898  156.7278 H   0  0  0  0  0  0  0  0  0  0  0  0  # atno 8009 bound_to 7997
  155.4644  140.3439  155.4319 H   0  0  0  0  0  0  0  0  0  0  0  0  # atno 8010 bound_to 7997
  140.7216  143.3669  151.1852 H   0  0  0  0  0  0  0  0  0  0  0  0  # atno 10167 bound_to 10162
  157.2467  130.7095  149.6385 H   0  0  0  0  0  0  0  0  0  0  0  0  # atno 10718 bound_to 10713
  153.8446  135.6854  153.4799 H   0  0  0  0  0  0  0  0  0  0  0  0  # atno 10763 bound_to 10752
  153.1433  135.4648  154.9527 H   0  0  0  0  0  0  0  0  0  0  0  0  # atno 10764 bound_to 10752
  154.7830  135.3275  154.7896 H   0  0  0  0  0  0  0  0  0  0  0  0  # atno 10765 bound_to 10752
  140.9795  134.0693  157.3781 H   0  0  0  0  0  0  0  0  0  0  0  0  # atno 11005 bound_to 11000
  145.3486  141.0303  143.3351 LP  0  0  0  0  0  0  0  0  0  0  0  0  # atno 17320 bound_to 7965
  144.8682  139.5077  143.6780 LP  0  0  0  0  0  0  0  0  0  0  0  0  # atno 17321 bound_to 7965
  139.7233  143.9188  152.2993 LP  0  0  0  0  0  0  0  0  0  0  0  0  # atno 17342 bound_to 10162
  139.8953  144.6943  150.8725 LP  0  0  0  0  0  0  0  0  0  0  0  0  # atno 17343 bound_to 10162
  155.9668  130.4441  150.5446 LP  0  0  0  0  0  0  0  0  0  0  0  0  # atno 17370 bound_to 10713
  157.3321  131.0701  151.1852 LP  0  0  0  0  0  0  0  0  0  0  0  0  # atno 17371 bound_to 10713
  139.8944  135.0136  156.6950 LP  0  0  0  0  0  0  0  0  0  0  0  0  # atno 17394 bound_to 11000
  140.7208  133.9142  155.8145 LP  0  0  0  0  0  0  0  0  0  0  0  0  # atno 17395 bound_to 11000

$$$$
