AV-unprocessed.smi:2014|AV-procd|sdf|8161|dock7
  -GOLD-   2272010403D 1   1.00000     0.00000
 Structure written by MMmdl.
 46 48  0  0  0  0  0  0  0  0  1 V2000
  152.2434  144.7058  159.5988 C   0  0  0  0  0  0  0  0  0  0  0  0
  152.0164  143.1967  159.4312 C   0  0  2  0  0  0  0  0  0  0  0  0
  153.2427  142.3879  159.8956 C   0  0  0  0  0  0  0  0  0  0  0  0
  153.0228  140.8761  159.7267 C   0  0  0  0  0  0  0  0  0  0  0  0
  152.6549  140.5173  158.2727 C   0  0  1  0  0  0  0  0  0  0  0  0
  152.3735  139.0902  158.1531 N   0  0  0  0  0  0  0  0  0  0  0  0
  152.8696  138.2779  157.2075 C   0  0  0  0  0  0  0  0  0  0  0  0
  153.6193  138.6662  156.3101 O   0  0  0  0  0  0  0  0  0  0  0  0
  152.4436  136.8049  157.3026 C   0  0  0  0  0  0  0  0  0  0  0  0
  150.9776  136.6185  157.3747 N   0  0  0  0  0  0  0  0  0  0  0  0
  150.3141  136.9394  158.5867 C   0  0  0  0  0  0  0  0  0  0  0  0
  150.9359  137.3903  159.5504 O   0  0  0  0  0  0  0  0  0  0  0  0
  148.8756  136.6842  158.6031 C   0  0  0  0  0  0  0  0  0  0  0  0
  148.1796  136.9595  159.8161 C   0  0  0  0  0  0  0  0  0  0  0  0
  147.6249  137.2054  160.8017 N   0  0  0  0  0  0  0  0  0  0  0  0
  148.2431  136.2020  157.5137 C   0  0  0  0  0  0  0  0  0  0  0  0
  148.9001  135.9357  156.3322 N   0  0  0  0  0  0  0  0  0  0  0  0
  148.2375  135.2819  155.2390 C   0  0  0  0  0  0  0  0  0  0  0  0
  147.5196  133.9638  155.4559 C   0  0  0  0  0  0  0  0  0  0  0  0
  148.8204  133.9973  154.6916 C   0  0  0  0  0  0  0  0  0  0  0  0
  150.3018  136.0857  156.2503 C   0  0  0  0  0  0  0  0  0  0  0  0
  150.9209  135.7539  155.2362 O   0  0  0  0  0  0  0  0  0  0  0  0
  151.4307  141.3267  157.8069 C   0  0  0  0  0  0  0  0  0  0  0  0
  151.6575  142.8378  157.9764 C   0  0  0  0  0  0  0  0  0  0  0  0
  153.0821  145.0509  158.9929 H   0  0  0  0  0  0  0  0  0  0  0  0
  152.4581  144.9570  160.6380 H   0  0  0  0  0  0  0  0  0  0  0  0
  151.3603  145.2714  159.2993 H   0  0  0  0  0  0  0  0  0  0  0  0
  151.1715  142.9199  160.0637 H   0  0  0  0  0  0  0  0  0  0  0  0
  154.1220  142.6908  159.3254 H   0  0  0  0  0  0  0  0  0  0  0  0
  153.4622  142.6092  160.9407 H   0  0  0  0  0  0  0  0  0  0  0  0
  153.9241  140.3422  160.0304 H   0  0  0  0  0  0  0  0  0  0  0  0
  152.2296  140.5491  160.4010 H   0  0  0  0  0  0  0  0  0  0  0  0
  153.4948  140.7705  157.6227 H   0  0  0  0  0  0  0  0  0  0  0  0
  151.7628  138.6877  158.8493 H   0  0  0  0  0  0  0  0  0  0  0  0
  152.8559  136.2639  156.4492 H   0  0  0  0  0  0  0  0  0  0  0  0
  152.9438  136.3591  158.1635 H   0  0  0  0  0  0  0  0  0  0  0  0
  147.1791  136.0207  157.5650 H   0  0  0  0  0  0  0  0  0  0  0  0
  147.7897  135.9484  154.5039 H   0  0  0  0  0  0  0  0  0  0  0  0
  147.5403  133.5220  156.4505 H   0  0  0  0  0  0  0  0  0  0  0  0
  146.6067  133.7919  154.8896 H   0  0  0  0  0  0  0  0  0  0  0  0
  148.7748  133.8444  153.6153 H   0  0  0  0  0  0  0  0  0  0  0  0
  149.6970  133.5808  155.1841 H   0  0  0  0  0  0  0  0  0  0  0  0
  151.2107  141.1042  156.7619 H   0  0  0  0  0  0  0  0  0  0  0  0
  150.5501  141.0285  158.3782 H   0  0  0  0  0  0  0  0  0  0  0  0
  150.7609  143.3770  157.6688 H   0  0  0  0  0  0  0  0  0  0  0  0
  152.4564  143.1617  157.3078 H   0  0  0  0  0  0  0  0  0  0  0  0
  1  2  1  0  0  0  0
  1 25  1  0  0  0  0
  1 26  1  0  0  0  0
  1 27  1  0  0  0  0
  2 24  1  0  0  0  0
  2  3  1  0  0  0  0
  2 28  1  0  0  0  0
  3  4  1  0  0  0  0
  3 29  1  0  0  0  0
  3 30  1  0  0  0  0
  4  5  1  0  0  0  0
  4 31  1  0  0  0  0
  4 32  1  0  0  0  0
  5  6  1  0  0  0  0
  5 23  1  0  0  0  0
  5 33  1  0  0  0  0
  6  7  1  0  0  0  0
  6 34  1  0  0  0  0
  7  8  2  0  0  0  0
  7  9  1  0  0  0  0
  9 10  1  0  0  0  0
  9 35  1  0  0  0  0
  9 36  1  0  0  0  0
 10 21  1  0  0  0  0
 10 11  1  0  0  0  0
 11 12  2  0  0  0  0
 11 13  1  0  0  0  0
 13 14  1  0  0  0  0
 13 16  2  0  0  0  0
 14 15  3  0  0  0  0
 16 17  1  0  0  0  0
 16 37  1  0  0  0  0
 17 18  1  0  0  0  0
 17 21  1  0  0  0  0
 18 20  1  0  0  0  0
 18 19  1  0  0  0  0
 18 38  1  0  0  0  0
 19 20  1  0  0  0  0
 19 39  1  0  0  0  0
 19 40  1  0  0  0  0
 20 41  1  0  0  0  0
 20 42  1  0  0  0  0
 21 22  2  0  0  0  0
 23 24  1  0  0  0  0
 23 43  1  0  0  0  0
 23 44  1  0  0  0  0
 24 45  1  0  0  0  0
 24 46  1  0  0  0  0
M  END
> <s_m_source_file>
AV-unprocessed.smi

> <i_m_source_file_index>
2014

> <i_lp_mmshare_version>
43012

> <i_f3d_flags>
0

> <s_epik_input>
W0NIM11bQ0BASF0xW0NIMl1bQ0gyXVtDQEhdKFtDSDJdW0NIMl0xKVtOSF1DKD1PKVtDSDJdbjJjKD1PKWMoQyNOKVtjSF1uKGMyPU8pW0NIXTNbQ0gyXVtDSDJdMw==

> <s_epik_cmdline>
J2VwaWtfcHl0aG9uJywgJy1waCcsICc3LjAnLCAnLXRuJywgJzgnLCAnLW1hJywgJzIwMCcsICctbWV0YWxfYmluZGluZycsICctaW1hZScsICc8aW5maWxlLm1hZT4nLCAnLW9tYWUnLCAnPG91dGZpbGUubWFlPic=

> <r_lp_tautomer_probability>
1

> <r_epik_Ionization_Penalty>
1.91358e-08

> <r_epik_Ionization_Penalty_Charging>
8.89021e-11

> <r_epik_Ionization_Penalty_Neutral>
1.90469e-08

> <r_epik_State_Penalty>
-0

> <r_epik_Charging_Adjusted_Penalty>
8.89021e-11

> <i_epik_Tot_Q>
0

> <i_epik_Tot_abs_Q>
0

> <r_epik_Metal_State_Penalty>
-0

> <b_epik_Metal_Only>
0

> <s_lp_Force_Field>
OPLS_2005

> <r_lp_Energy>
34.0792

> <b_lp_Chiralities_Consistent>
1

> <s_lp_Variant>
AV-unprocessed.smi:2014-1

> <Gold.Version>
5.8.1

> <Gold.Id.Protein>
6NUR|6NUR_protein|mol2

> <Gold.PLP.Fitness>
45.7189

> <Gold.PLP.PLP>
-35.4062

> <Gold.PLP.part.hbond>
-3.7861

> <Gold.PLP.part.metal>
0.0000

> <Gold.PLP.part.buried>
-5.2282

> <Gold.PLP.part.nonpolar>
-27.1330

> <Gold.PLP.part.repulsive>
0.1951

> <Gold.PLP.ligand.clash>
0.0000

> <Gold.PLP.ligand.torsion>
0.4673

> <Gold.PLP.Chemscore.Hbond>
3.6794

> <Gold.PLP.Chemscore.CHOScore>
0.0000

> <Gold.PLP.Chemscore.Metal>
0.0000

> <Gold.Chemscore.Hbonds>
donor molecule, donor type, donor heavy atom, donor atom, acceptor molecule, acceptor atom, score
      P1  H  6896  6908       L1    12  0.06
      P1  H  6931  6943       L1    15  0.74
      P1  H  6934  6947       L1    15  0.96
      P1  H  7997  8009       L1     8  0.82
      P1  H 10752 10763       L1    22  0.78

> <Gold.PLP.Chemscore.Internal.Correction>
0.2093

> <Gold.Rescore>
     Score         DG    S(hbond)    S(metal)    S(lipo)     H(rot)  DE(clash)    DE(int)     intcor
     16.99     -20.87       2.91        0.00      85.74       1.70       0.01       3.87       ----

> <Gold.Chemscore.Fitness>
16.9929

> <Gold.Chemscore.DG>
-20.8693

> <Gold.Chemscore.ZeroCoef>
-5.4800

> <Gold.Chemscore.Hbond>
2.9099

> <Gold.Chemscore.Metal>
0.0000

> <Gold.Chemscore.Lipo>
85.7429

> <Gold.Chemscore.Internal_Hbond>
0.0000

> <Gold.Chemscore.DEClash>
0.0073

> <Gold.Chemscore.DEInternal>
3.8690

> <Gold.Chemscore.Rot>
1.7038

> <Gold.Chemscore.Internal.Correction>
   9.000000E+99

> <Gold.Chemscore.Hbonds>
donor molecule, donor type, donor heavy atom, donor atom, acceptor molecule, acceptor atom, score
      P1  H  6931  6943       L1    15  0.28
      P1  H  6934  6947       L1    15  0.76
      P1  H  7997  8009       L1     8  0.77
      P1  H 10752 10763       L1    22  0.76

> <Gold.Chemscore.Hbond.Weighted>
-9.7191

> <Gold.Chemscore.Metal.Weighted>
-0.0000

> <Gold.Chemscore.Lipo.Weighted>
-10.0319

> <Gold.Chemscore.Internal_Hbond.Weighted>
0.0000

> <Gold.Chemscore.DEClash.Weighted>
0.0073

> <Gold.Chemscore.DEInternal.Weighted>
3.8690

> <Gold.Chemscore.Rot.Weighted>
4.3618

> <Gold.Chemscore.Internal.Correction.Weighted>
   9.000000E+99

> <Gold.Protein.RotatedTorsions>
[ 6907 6896 6895 6894 ] final -119.02 input  -60.11 | X-H torsion
[ 7974 7965 7964 7962 ] final  124.28 input  175.53 | X-H torsion
[ 8008 7997 7996 7995 ] final -172.09 input   59.86 | X-H torsion
[ 10167 10162 10161 10158 ] final   73.09 input  -65.29 | X-H torsion
[ 10718 10713 10712 10709 ] final  126.97 input   66.30 | X-H torsion
[ 10763 10752 10751 10750 ] final   71.97 input  -60.55 | X-H torsion
[ 11005 11000 10999 10996 ] final   11.75 input  -57.11 | X-H torsion

> <Gold.Protein.ActiveResidues>
 VAL166  LYS551  ARG553  GLY616  TRP617  ASP618  TYR619  PRO620  LYS621  CYS622 
 ASP623  PHE694  ASN695  SER759  ASP760  ASP761  ALA762  ILE779  LEU786  VAL792 
 PHE793  MET794  SER795  GLU796  ALA797  LYS798  CYS799  TRP800  GLU811  SER814 

> <Gold.Protein.RotatedAtoms>
  150.8270  133.8156  159.3114 H   0  0  0  0  0  0  0  0  0  0  0  0  # atno 6907 bound_to 6896
  151.5897  135.1052  160.0045 H   0  0  0  0  0  0  0  0  0  0  0  0  # atno 6908 bound_to 6896
  152.4354  133.7309  159.6643 H   0  0  0  0  0  0  0  0  0  0  0  0  # atno 6909 bound_to 6896
  145.0862  139.3620  143.4884 H   0  0  0  0  0  0  0  0  0  0  0  0  # atno 7974 bound_to 7965
  155.9401  140.1107  157.1062 H   0  0  0  0  0  0  0  0  0  0  0  0  # atno 8008 bound_to 7997
  154.4087  140.1220  156.4982 H   0  0  0  0  0  0  0  0  0  0  0  0  # atno 8009 bound_to 7997
  155.6972  140.3472  155.4920 H   0  0  0  0  0  0  0  0  0  0  0  0  # atno 8010 bound_to 7997
  140.0283  144.5486  150.7527 H   0  0  0  0  0  0  0  0  0  0  0  0  # atno 10167 bound_to 10162
  157.5373  131.1097  150.8915 H   0  0  0  0  0  0  0  0  0  0  0  0  # atno 10718 bound_to 10713
  153.0430  135.5117  154.7673 H   0  0  0  0  0  0  0  0  0  0  0  0  # atno 10763 bound_to 10752
  154.6595  135.2936  154.9886 H   0  0  0  0  0  0  0  0  0  0  0  0  # atno 10764 bound_to 10752
  154.0742  135.6673  153.4881 H   0  0  0  0  0  0  0  0  0  0  0  0  # atno 10765 bound_to 10752
  140.4997  134.0758  155.7790 H   0  0  0  0  0  0  0  0  0  0  0  0  # atno 11005 bound_to 11000
  146.3531  140.0676  142.8625 LP  0  0  0  0  0  0  0  0  0  0  0  0  # atno 17320 bound_to 7965
  145.1119  140.9410  143.4651 LP  0  0  0  0  0  0  0  0  0  0  0  0  # atno 17321 bound_to 7965
  140.7313  143.2693  151.3941 LP  0  0  0  0  0  0  0  0  0  0  0  0  # atno 17342 bound_to 10162
  139.6093  144.1131  152.2282 LP  0  0  0  0  0  0  0  0  0  0  0  0  # atno 17343 bound_to 10162
  156.9478  130.5408  149.5281 LP  0  0  0  0  0  0  0  0  0  0  0  0  # atno 17370 bound_to 10713
  156.0469  130.5544  150.8901 LP  0  0  0  0  0  0  0  0  0  0  0  0  # atno 17371 bound_to 10713
  141.1442  133.9085  157.2255 LP  0  0  0  0  0  0  0  0  0  0  0  0  # atno 17394 bound_to 11000
  139.9721  135.0125  156.9537 LP  0  0  0  0  0  0  0  0  0  0  0  0  # atno 17395 bound_to 11000

$$$$
