AV-unprocessed.smi:1033|AV-procd|sdf|4491|dock1
  -GOLD-   22720 2473D 1   1.00000     0.00000
 Structure written by MMmdl.
 56 58  0  0  0  0  0  0  0  0  2 V2000
  153.2292  141.3990  159.0049 C   0  0  0  0  0  0  0  0  0  0  0  0
  152.1905  141.3581  157.8977 C   0  0  0  0  0  0  0  0  0  0  0  0
  152.1274  140.2244  157.0567 C   0  0  0  0  0  0  0  0  0  0  0  0
  151.1763  140.1464  156.0162 C   0  0  0  0  0  0  0  0  0  0  0  0
  150.9433  139.1497  155.0842 N   0  0  0  0  0  0  0  0  0  0  0  0
  149.9333  139.6633  154.3886 C   0  0  0  0  0  0  0  0  0  0  0  0
  149.4893  140.8812  154.7542 N   0  0  0  0  0  0  0  0  0  0  0  0
  148.4156  141.6377  154.1364 C   0  0  0  0  0  0  0  0  0  0  0  0
  147.0712  140.8850  154.1704 C   0  0  1  0  0  0  0  0  0  0  0  0
  146.0566  141.7949  153.7960 O   0  0  0  0  0  0  0  0  0  0  0  0
  147.0223  139.6654  153.2233 C   0  0  0  0  0  0  0  0  0  0  0  0
  145.7713  138.8793  153.3682 N   0  3  0  0  0  0  0  0  0  0  0  0
  145.3749  138.6481  154.7838 C   0  0  0  0  0  0  0  0  0  0  0  0
  144.0440  137.8726  154.8422 C   0  0  0  0  0  0  0  0  0  0  0  0
  144.0957  136.5883  154.1432 N   0  0  0  0  0  0  0  0  0  0  0  0
  144.9274  135.5612  154.7843 C   0  0  0  0  0  0  0  0  0  0  0  0
  144.4847  135.1192  156.1972 C   0  0  2  0  0  0  0  0  0  0  0  0
  145.2584  133.9007  156.7297 C   0  0  0  0  0  0  0  0  0  0  0  0
  143.1284  134.7290  156.1332 O   0  0  0  0  0  0  0  0  0  0  0  0
  144.4823  136.8374  152.7542 C   0  0  0  0  0  0  0  0  0  0  0  0
  145.8201  137.5961  152.6201 C   0  0  0  0  0  0  0  0  0  0  0  0
  150.2821  141.2425  155.8387 C   0  0  0  0  0  0  0  0  0  0  0  0
  150.3349  142.3761  156.6692 C   0  0  0  0  0  0  0  0  0  0  0  0
  151.2913  142.4373  157.7042 C   0  0  0  0  0  0  0  0  0  0  0  0
  151.3396  143.6645  158.5976 C   0  0  0  0  0  0  0  0  0  0  0  0
  153.8647  140.5132  158.9884 H   0  0  0  0  0  0  0  0  0  0  0  0
  152.7447  141.4453  159.9805 H   0  0  0  0  0  0  0  0  0  0  0  0
  153.8722  142.2725  158.8953 H   0  0  0  0  0  0  0  0  0  0  0  0
  152.8118  139.4017  157.2047 H   0  0  0  0  0  0  0  0  0  0  0  0
  149.4945  139.1266  153.5601 H   0  0  0  0  0  0  0  0  0  0  0  0
  148.3285  142.5911  154.6596 H   0  0  0  0  0  0  0  0  0  0  0  0
  148.6994  141.8718  153.1094 H   0  0  0  0  0  0  0  0  0  0  0  0
  146.8799  140.5766  155.1976 H   0  0  0  0  0  0  0  0  0  0  0  0
  145.3326  141.3097  153.4293 H   0  0  0  0  0  0  0  0  0  0  0  0
  147.1196  140.0213  152.1963 H   0  0  0  0  0  0  0  0  0  0  0  0
  147.8684  138.9985  153.3923 H   0  0  0  0  0  0  0  0  0  0  0  0
  146.1624  138.1078  155.3107 H   0  0  0  0  0  0  0  0  0  0  0  0
  145.2502  139.5982  155.3014 H   0  0  0  0  0  0  0  0  0  0  0  0
  143.7243  137.7326  155.8731 H   0  0  0  0  0  0  0  0  0  0  0  0
  143.2652  138.4875  154.3887 H   0  0  0  0  0  0  0  0  0  0  0  0
  144.9003  134.6816  154.1388 H   0  0  0  0  0  0  0  0  0  0  0  0
  145.9752  135.8600  154.8066 H   0  0  0  0  0  0  0  0  0  0  0  0
  144.5543  135.9515  156.8989 H   0  0  0  0  0  0  0  0  0  0  0  0
  146.3227  134.1006  156.8372 H   0  0  0  0  0  0  0  0  0  0  0  0
  145.1539  133.0435  156.0636 H   0  0  0  0  0  0  0  0  0  0  0  0
  144.8876  133.6019  157.7108 H   0  0  0  0  0  0  0  0  0  0  0  0
  143.0888  133.8108  155.9119 H   0  0  0  0  0  0  0  0  0  0  0  0
  144.5346  135.8947  152.2081 H   0  0  0  0  0  0  0  0  0  0  0  0
  143.6982  137.4177  152.2660 H   0  0  0  0  0  0  0  0  0  0  0  0
  146.0116  137.7982  151.5657 H   0  0  0  0  0  0  0  0  0  0  0  0
  146.6523  136.9887  152.9781 H   0  0  0  0  0  0  0  0  0  0  0  0
  149.6452  143.1921  156.5123 H   0  0  0  0  0  0  0  0  0  0  0  0
  150.5578  144.3782  158.3367 H   0  0  0  0  0  0  0  0  0  0  0  0
  152.3010  144.1696  158.5006 H   0  0  0  0  0  0  0  0  0  0  0  0
  151.1995  143.3833  159.6416 H   0  0  0  0  0  0  0  0  0  0  0  0
  145.0370  139.4264  152.9414 H   0  0  0  0  0  0  0  0  0  0  0  0
  1  2  1  0  0  0  0
  1 26  1  0  0  0  0
  1 27  1  0  0  0  0
  1 28  1  0  0  0  0
  2 24  1  0  0  0  0
  2  3  2  0  0  0  0
  3  4  1  0  0  0  0
  3 29  1  0  0  0  0
  4 22  2  0  0  0  0
  4  5  1  0  0  0  0
  5  6  2  0  0  0  0
  6  7  1  0  0  0  0
  6 30  1  0  0  0  0
  7  8  1  0  0  0  0
  7 22  1  0  0  0  0
  8  9  1  0  0  0  0
  8 31  1  0  0  0  0
  8 32  1  0  0  0  0
  9 10  1  0  0  0  0
  9 11  1  0  0  0  0
  9 33  1  0  0  0  0
 10 34  1  0  0  0  0
 11 12  1  0  0  0  0
 11 35  1  0  0  0  0
 11 36  1  0  0  0  0
 12 21  1  0  0  0  0
 12 13  1  0  0  0  0
 12 56  1  0  0  0  0
 13 14  1  0  0  0  0
 13 37  1  0  0  0  0
 13 38  1  0  0  0  0
 14 15  1  0  0  0  0
 14 39  1  0  0  0  0
 14 40  1  0  0  0  0
 15 16  1  0  0  0  0
 15 20  1  0  0  0  0
 16 17  1  0  0  0  0
 16 41  1  0  0  0  0
 16 42  1  0  0  0  0
 17 18  1  0  0  0  0
 17 19  1  0  0  0  0
 17 43  1  0  0  0  0
 18 44  1  0  0  0  0
 18 45  1  0  0  0  0
 18 46  1  0  0  0  0
 19 47  1  0  0  0  0
 20 21  1  0  0  0  0
 20 48  1  0  0  0  0
 20 49  1  0  0  0  0
 21 50  1  0  0  0  0
 21 51  1  0  0  0  0
 22 23  1  0  0  0  0
 23 24  2  0  0  0  0
 23 52  1  0  0  0  0
 24 25  1  0  0  0  0
 25 53  1  0  0  0  0
 25 54  1  0  0  0  0
 25 55  1  0  0  0  0
M  CHG  1  12   1
M  END
> <s_m_source_file>
AV-unprocessed.smi

> <i_m_source_file_index>
1033

> <i_lp_mmshare_version>
43012

> <i_f3d_flags>
0

> <s_epik_input>
W0NIM11jKFtjSF0xKWMoW0NIM10pW2NIXWMoYzEyKW4oW2NIXW4yKVtDSDJdW0NASF0oW09IXSlbQ0gyXU4zW0NIMl1bQ0gyXU4oW0NIMl1bQ0gyXTMpW0NIMl1bQ0BIXShbQ0gzXSlbT0hd

> <s_epik_cmdline>
J2VwaWtfcHl0aG9uJywgJy1waCcsICc3LjAnLCAnLXRuJywgJzgnLCAnLW1hJywgJzIwMCcsICctbWV0YWxfYmluZGluZycsICctaW1hZScsICc8aW5maWxlLm1hZT4nLCAnLW9tYWUnLCAnPG91dGZpbGUubWFlPic=

> <r_epik_Ionization_Penalty>
0.131893

> <r_epik_Ionization_Penalty_Charging>
0.00208556

> <r_epik_Ionization_Penalty_Neutral>
0.129808

> <r_epik_State_Penalty>
0.452125

> <r_epik_Charging_Adjusted_Penalty>
0.454211

> <i_epik_Tot_Q>
1

> <i_epik_Tot_abs_Q>
1

> <r_epik_Metal_State_Penalty>
0.376389

> <b_epik_Metal_Only>
0

> <s_lp_Force_Field>
OPLS_2005

> <r_lp_Energy>
35.7629

> <b_lp_Chiralities_Consistent>
1

> <s_lp_Variant>
AV-unprocessed.smi:1033-2

> <Gold.Version>
5.8.1

> <Gold.Id.Protein>
6NUR|6NUR_protein|mol2

> <Gold.PLP.Fitness>
53.1746

> <Gold.PLP.PLP>
-38.6353

> <Gold.PLP.part.hbond>
-3.9562

> <Gold.PLP.part.metal>
0.0000

> <Gold.PLP.part.buried>
-3.5165

> <Gold.PLP.part.nonpolar>
-32.3492

> <Gold.PLP.part.repulsive>
0.1263

> <Gold.PLP.ligand.clash>
0.0000

> <Gold.PLP.ligand.torsion>
0.1998

> <Gold.PLP.Chemscore.Hbond>
3.9913

> <Gold.PLP.Chemscore.CHOScore>
0.9328

> <Gold.PLP.Chemscore.Metal>
0.0000

> <Gold.Chemscore.Hbonds>
donor molecule, donor type, donor heavy atom, donor atom, acceptor molecule, acceptor atom, score
      L1  H    10    34       P1 10175  0.88
      L1  H    12    56       P1 10175  2.00
      L1  H    19    47       P1 10957  0.19
      L1  C     6    30       P1  7957  0.76

> <Gold.PLP.Chemscore.Internal.Correction>
0.1667

> <Gold.Rescore>
     Score         DG    S(hbond)    S(metal)    S(lipo)     H(rot)  DE(clash)    DE(int)     intcor
     17.36     -17.70       2.71        0.00      94.17       3.07       0.06       0.28       ----

> <Gold.Chemscore.Fitness>
17.3598

> <Gold.Chemscore.DG>
-17.6952

> <Gold.Chemscore.ZeroCoef>
-5.4800

> <Gold.Chemscore.Hbond>
2.7078

> <Gold.Chemscore.Metal>
0.0000

> <Gold.Chemscore.Lipo>
94.1664

> <Gold.Chemscore.Internal_Hbond>
0.0000

> <Gold.Chemscore.DEClash>
0.0553

> <Gold.Chemscore.DEInternal>
0.2801

> <Gold.Chemscore.Rot>
3.0650

> <Gold.Chemscore.Internal.Correction>
   9.000000E+99

> <Gold.Chemscore.Hbonds>
donor molecule, donor type, donor heavy atom, donor atom, acceptor molecule, acceptor atom, score
      L1  H    10    34       P1 10175  0.19
      L1  H    12    56       P1 10175  1.00
      L1  H    19    47       P1 10957  0.19

> <Gold.Chemscore.Hbond.Weighted>
-9.0442

> <Gold.Chemscore.Metal.Weighted>
-0.0000

> <Gold.Chemscore.Lipo.Weighted>
-11.0175

> <Gold.Chemscore.Internal_Hbond.Weighted>
0.0000

> <Gold.Chemscore.DEClash.Weighted>
0.0553

> <Gold.Chemscore.DEInternal.Weighted>
0.2801

> <Gold.Chemscore.Rot.Weighted>
7.8465

> <Gold.Chemscore.Internal.Correction.Weighted>
   9.000000E+99

> <Gold.Protein.RotatedTorsions>
[ 6907 6896 6895 6894 ] final    0.70 input  -60.11 | X-H torsion
[ 7974 7965 7964 7962 ] final  145.04 input  175.53 | X-H torsion
[ 8008 7997 7996 7995 ] final  -15.64 input   59.86 | X-H torsion
[ 10167 10162 10161 10158 ] final -102.19 input  -65.29 | X-H torsion
[ 10718 10713 10712 10709 ] final   70.87 input   66.30 | X-H torsion
[ 10763 10752 10751 10750 ] final  166.23 input  -60.55 | X-H torsion
[ 11005 11000 10999 10996 ] final   14.61 input  -57.11 | X-H torsion

> <Gold.Protein.ActiveResidues>
 VAL166  LYS551  ARG553  GLY616  TRP617  ASP618  TYR619  PRO620  LYS621  CYS622 
 ASP623  PHE694  ASN695  SER759  ASP760  ASP761  ALA762  ILE779  LEU786  VAL792 
 PHE793  MET794  SER795  GLU796  ALA797  LYS798  CYS799  TRP800  GLU811  SER814 

> <Gold.Protein.RotatedAtoms>
  151.5807  135.1058  160.0016 H   0  0  0  0  0  0  0  0  0  0  0  0  # atno 6907 bound_to 6896
  152.4355  133.7349  159.6619 H   0  0  0  0  0  0  0  0  0  0  0  0  # atno 6908 bound_to 6896
  150.8253  133.8113  159.3144 H   0  0  0  0  0  0  0  0  0  0  0  0  # atno 6909 bound_to 6896
  144.8786  139.5734  143.5853 H   0  0  0  0  0  0  0  0  0  0  0  0  # atno 7974 bound_to 7965
  154.5114  140.2191  155.9149 H   0  0  0  0  0  0  0  0  0  0  0  0  # atno 8008 bound_to 7997
  156.1557  140.3152  155.8688 H   0  0  0  0  0  0  0  0  0  0  0  0  # atno 8009 bound_to 7997
  155.3852  140.0475  157.3033 H   0  0  0  0  0  0  0  0  0  0  0  0  # atno 8010 bound_to 7997
  140.2333  143.3591  152.0867 H   0  0  0  0  0  0  0  0  0  0  0  0  # atno 10167 bound_to 10162
  157.6422  130.9499  150.0710 H   0  0  0  0  0  0  0  0  0  0  0  0  # atno 10718 bound_to 10713
  154.3358  135.2754  155.2448 H   0  0  0  0  0  0  0  0  0  0  0  0  # atno 10763 bound_to 10752
  154.4740  135.5875  153.6345 H   0  0  0  0  0  0  0  0  0  0  0  0  # atno 10764 bound_to 10752
  152.9862  135.6095  154.3555 H   0  0  0  0  0  0  0  0  0  0  0  0  # atno 10765 bound_to 10752
  140.4676  134.1064  155.7727 H   0  0  0  0  0  0  0  0  0  0  0  0  # atno 11005 bound_to 11000
  146.2979  139.7335  142.9113 LP  0  0  0  0  0  0  0  0  0  0  0  0  # atno 17320 bound_to 7965
  145.3997  141.0383  143.3077 LP  0  0  0  0  0  0  0  0  0  0  0  0  # atno 17321 bound_to 7965
  139.5102  144.6881  151.5834 LP  0  0  0  0  0  0  0  0  0  0  0  0  # atno 17342 bound_to 10162
  140.6169  143.9332  150.6495 LP  0  0  0  0  0  0  0  0  0  0  0  0  # atno 17343 bound_to 10162
  156.1714  130.3646  149.9160 LP  0  0  0  0  0  0  0  0  0  0  0  0  # atno 17370 bound_to 10713
  156.7134  130.8979  151.3611 LP  0  0  0  0  0  0  0  0  0  0  0  0  # atno 17371 bound_to 10713
  141.1592  133.8825  157.1894 LP  0  0  0  0  0  0  0  0  0  0  0  0  # atno 17394 bound_to 11000
  139.9905  135.0066  156.9965 LP  0  0  0  0  0  0  0  0  0  0  0  0  # atno 17395 bound_to 11000

$$$$
