AV-unprocessed.smi:3231|AV-procd|sdf|12333|dock8
  -GOLD-   2272018183D 1   1.00000     0.00000
 Structure written by MMmdl.
 41 42  0  0  0  0  0  0  0  0  2 V2000
  149.1507  138.6107  153.4424 O   0  0  0  0  0  0  0  0  0  0  0  0
  149.7712  138.4127  154.6971 C   0  0  2  0  0  0  0  0  0  0  0  0
  150.5398  139.7014  155.0336 C   0  0  0  0  0  0  0  0  0  0  0  0
  149.6311  140.7696  155.4360 N   0  0  0  0  0  0  0  0  0  0  0  0
  150.3081  141.9217  156.0241 C   0  0  0  0  0  0  0  0  0  0  0  0
  150.8997  141.5858  157.4023 C   0  0  0  0  0  0  0  0  0  0  0  0
  151.4381  142.7585  158.0690 N   0  0  0  0  0  0  0  0  0  0  0  0
  150.7939  143.9374  158.3800 C   0  0  0  0  0  0  0  0  0  0  0  0
  151.6994  144.7409  159.0116 C   0  0  0  0  0  0  0  0  0  0  0  0
  152.8862  143.9565  159.0389 C   0  0  0  0  0  0  0  0  0  0  0  0
  152.7262  142.7695  158.4767 N   0  0  0  0  0  0  0  0  0  0  0  0
  150.7007  137.1828  154.5981 C   0  0  0  0  0  0  0  0  0  0  0  0
  149.9624  135.9153  154.3662 N   0  3  0  0  0  0  0  0  0  0  0  0
  150.8490  134.7284  154.4187 C   0  0  0  0  0  0  0  0  0  0  0  0
  150.0535  133.4464  154.1203 C   0  0  0  0  0  0  0  0  0  0  0  0
  148.9775  133.3263  155.0419 O   0  0  0  0  0  0  0  0  0  0  0  0
  148.0689  134.4158  154.9430 C   0  0  0  0  0  0  0  0  0  0  0  0
  148.7991  135.7296  155.2694 C   0  0  0  0  0  0  0  0  0  0  0  0
  149.1979  137.8079  152.9469 H   0  0  0  0  0  0  0  0  0  0  0  0
  148.9898  138.2650  155.4424 H   0  0  0  0  0  0  0  0  0  0  0  0
  151.2725  139.5100  155.8189 H   0  0  0  0  0  0  0  0  0  0  0  0
  151.1026  140.0221  154.1556 H   0  0  0  0  0  0  0  0  0  0  0  0
  149.0815  141.0735  154.6380 H   0  0  0  0  0  0  0  0  0  0  0  0
  151.1059  142.2571  155.3606 H   0  0  0  0  0  0  0  0  0  0  0  0
  149.6139  142.7573  156.1218 H   0  0  0  0  0  0  0  0  0  0  0  0
  150.1492  141.1172  158.0411 H   0  0  0  0  0  0  0  0  0  0  0  0
  151.7076  140.8619  157.2896 H   0  0  0  0  0  0  0  0  0  0  0  0
  149.7560  144.1029  158.1316 H   0  0  0  0  0  0  0  0  0  0  0  0
  151.5386  145.7370  159.3957 H   0  0  0  0  0  0  0  0  0  0  0  0
  153.8519  144.2122  159.4495 H   0  0  0  0  0  0  0  0  0  0  0  0
  151.4106  137.3498  153.7865 H   0  0  0  0  0  0  0  0  0  0  0  0
  151.3004  137.0766  155.5034 H   0  0  0  0  0  0  0  0  0  0  0  0
  151.6549  134.8354  153.6915 H   0  0  0  0  0  0  0  0  0  0  0  0
  151.3121  134.6605  155.4043 H   0  0  0  0  0  0  0  0  0  0  0  0
  149.6739  133.4517  153.0971 H   0  0  0  0  0  0  0  0  0  0  0  0
  150.6988  132.5731  154.2158 H   0  0  0  0  0  0  0  0  0  0  0  0
  147.6300  134.4505  153.9445 H   0  0  0  0  0  0  0  0  0  0  0  0
  147.2503  134.2568  155.6449 H   0  0  0  0  0  0  0  0  0  0  0  0
  149.1388  135.7163  156.3062 H   0  0  0  0  0  0  0  0  0  0  0  0
  148.1013  136.5602  155.1738 H   0  0  0  0  0  0  0  0  0  0  0  0
  149.6049  135.9578  153.4227 H   0  0  0  0  0  0  0  0  0  0  0  0
  1  2  1  0  0  0  0
  1 19  1  0  0  0  0
  2  3  1  0  0  0  0
  2 12  1  0  0  0  0
  2 20  1  0  0  0  0
  3  4  1  0  0  0  0
  3 21  1  0  0  0  0
  3 22  1  0  0  0  0
  4  5  1  0  0  0  0
  4 23  1  0  0  0  0
  5  6  1  0  0  0  0
  5 24  1  0  0  0  0
  5 25  1  0  0  0  0
  6  7  1  0  0  0  0
  6 26  1  0  0  0  0
  6 27  1  0  0  0  0
  7 11  1  0  0  0  0
  7  8  1  0  0  0  0
  8  9  2  0  0  0  0
  8 28  1  0  0  0  0
  9 10  1  0  0  0  0
  9 29  1  0  0  0  0
 10 11  2  0  0  0  0
 10 30  1  0  0  0  0
 12 13  1  0  0  0  0
 12 31  1  0  0  0  0
 12 32  1  0  0  0  0
 13 18  1  0  0  0  0
 13 14  1  0  0  0  0
 13 41  1  0  0  0  0
 14 15  1  0  0  0  0
 14 33  1  0  0  0  0
 14 34  1  0  0  0  0
 15 16  1  0  0  0  0
 15 35  1  0  0  0  0
 15 36  1  0  0  0  0
 16 17  1  0  0  0  0
 17 18  1  0  0  0  0
 17 37  1  0  0  0  0
 17 38  1  0  0  0  0
 18 39  1  0  0  0  0
 18 40  1  0  0  0  0
M  CHG  1  13   1
M  END
> <s_m_source_file>
AV-unprocessed.smi

> <i_m_source_file_index>
3231

> <i_lp_mmshare_version>
43012

> <i_f3d_flags>
0

> <s_epik_input>
W0NIMl0xW0NIMl1PW0NIMl1bQ0gyXU4xW0NIMl1bQ0BIXShbT0hdKVtDSDJdW05IXVtDSDJdW0NIMl1uMltjSF1bY0hdW2NIXW4y

> <s_epik_cmdline>
J2VwaWtfcHl0aG9uJywgJy1waCcsICc3LjAnLCAnLXRuJywgJzgnLCAnLW1hJywgJzIwMCcsICctbWV0YWxfYmluZGluZycsICctaW1hZScsICc8aW5maWxlLm1hZT4nLCAnLW9tYWUnLCAnPG91dGZpbGUubWFlPic=

> <r_epik_Ionization_Penalty>
0.33973

> <r_epik_Ionization_Penalty_Charging>
0.202493

> <r_epik_Ionization_Penalty_Neutral>
0.137237

> <r_epik_State_Penalty>
0.943915

> <r_epik_Charging_Adjusted_Penalty>
1.14641

> <i_epik_Tot_Q>
1

> <i_epik_Tot_abs_Q>
1

> <r_epik_Metal_State_Penalty>
0.94313

> <b_epik_Metal_Only>
0

> <s_lp_Force_Field>
OPLS_2005

> <r_lp_Energy>
21.8008

> <b_lp_Chiralities_Consistent>
1

> <s_lp_Variant>
AV-unprocessed.smi:3231-3

> <Gold.Version>
5.8.1

> <Gold.Id.Protein>
6NUR|6NUR_protein|mol2

> <Gold.PLP.Fitness>
47.4849

> <Gold.PLP.PLP>
-35.5333

> <Gold.PLP.part.hbond>
-3.1886

> <Gold.PLP.part.metal>
0.0000

> <Gold.PLP.part.buried>
-3.7226

> <Gold.PLP.part.nonpolar>
-27.9030

> <Gold.PLP.part.repulsive>
0.0815

> <Gold.PLP.ligand.clash>
0.0000

> <Gold.PLP.ligand.torsion>
0.2390

> <Gold.PLP.Chemscore.Hbond>
3.0000

> <Gold.PLP.Chemscore.CHOScore>
1.1018

> <Gold.PLP.Chemscore.Metal>
0.0000

> <Gold.Chemscore.Hbonds>
donor molecule, donor type, donor heavy atom, donor atom, acceptor molecule, acceptor atom, score
      L1  H     1    19       P1  7948  1.00
      L1  H    13    41       P1  7948  1.90
      L1  C     8    28       P1  8028  0.47
      L1  C     8    28       P1  8029  0.28

> <Gold.PLP.Chemscore.Internal.Correction>
0.1243

> <Gold.Rescore>
     Score         DG    S(hbond)    S(metal)    S(lipo)     H(rot)  DE(clash)    DE(int)     intcor
     14.33     -14.61       1.92        0.00      85.38       2.84       0.02       0.26       ----

> <Gold.Chemscore.Fitness>
14.3286

> <Gold.Chemscore.DG>
-14.6101

> <Gold.Chemscore.ZeroCoef>
-5.4800

> <Gold.Chemscore.Hbond>
1.9193

> <Gold.Chemscore.Metal>
0.0000

> <Gold.Chemscore.Lipo>
85.3777

> <Gold.Chemscore.Internal_Hbond>
0.0000

> <Gold.Chemscore.DEClash>
0.0235

> <Gold.Chemscore.DEInternal>
0.2580

> <Gold.Chemscore.Rot>
2.8397

> <Gold.Chemscore.Internal.Correction>
   9.000000E+99

> <Gold.Chemscore.Hbonds>
donor molecule, donor type, donor heavy atom, donor atom, acceptor molecule, acceptor atom, score
      L1  H     1    19       P1  7948  0.98
      L1  H    13    41       P1  7948  0.22

> <Gold.Chemscore.Hbond.Weighted>
-6.4105

> <Gold.Chemscore.Metal.Weighted>
-0.0000

> <Gold.Chemscore.Lipo.Weighted>
-9.9892

> <Gold.Chemscore.Internal_Hbond.Weighted>
0.0000

> <Gold.Chemscore.DEClash.Weighted>
0.0235

> <Gold.Chemscore.DEInternal.Weighted>
0.2580

> <Gold.Chemscore.Rot.Weighted>
7.2696

> <Gold.Chemscore.Internal.Correction.Weighted>
   9.000000E+99

> <Gold.Protein.RotatedTorsions>
[ 6907 6896 6895 6894 ] final   98.88 input  -60.11 | X-H torsion
[ 7974 7965 7964 7962 ] final  100.11 input  175.53 | X-H torsion
[ 8008 7997 7996 7995 ] final  159.75 input   59.86 | X-H torsion
[ 10167 10162 10161 10158 ] final  166.04 input  -65.29 | X-H torsion
[ 10718 10713 10712 10709 ] final   98.07 input   66.30 | X-H torsion
[ 10763 10752 10751 10750 ] final  -33.24 input  -60.55 | X-H torsion
[ 11005 11000 10999 10996 ] final   23.12 input  -57.11 | X-H torsion

> <Gold.Protein.ActiveResidues>
 VAL166  LYS551  ARG553  GLY616  TRP617  ASP618  TYR619  PRO620  LYS621  CYS622 
 ASP623  PHE694  ASN695  SER759  ASP760  ASP761  ALA762  ILE779  LEU786  VAL792 
 PHE793  MET794  SER795  GLU796  ALA797  LYS798  CYS799  TRP800  GLU811  SER814 

> <Gold.Protein.RotatedAtoms>
  152.5402  134.0513  159.8110 H   0  0  0  0  0  0  0  0  0  0  0  0  # atno 6907 bound_to 6896
  151.0654  133.5502  159.2638 H   0  0  0  0  0  0  0  0  0  0  0  0  # atno 6908 bound_to 6896
  151.2385  135.0588  159.9070 H   0  0  0  0  0  0  0  0  0  0  0  0  # atno 6909 bound_to 6896
  145.3900  139.2364  143.3357 H   0  0  0  0  0  0  0  0  0  0  0  0  # atno 7974 bound_to 7965
  156.2218  140.1823  156.7458 H   0  0  0  0  0  0  0  0  0  0  0  0  # atno 8008 bound_to 7997
  154.5878  140.0655  156.9224 H   0  0  0  0  0  0  0  0  0  0  0  0  # atno 8009 bound_to 7997
  155.2389  140.3320  155.4297 H   0  0  0  0  0  0  0  0  0  0  0  0  # atno 8010 bound_to 7997
  139.4917  144.4069  151.9344 H   0  0  0  0  0  0  0  0  0  0  0  0  # atno 10167 bound_to 10162
  157.6902  131.0629  150.4740 H   0  0  0  0  0  0  0  0  0  0  0  0  # atno 10718 bound_to 10713
  153.8270  135.6869  153.4819 H   0  0  0  0  0  0  0  0  0  0  0  0  # atno 10763 bound_to 10752
  153.1534  135.4609  154.9668 H   0  0  0  0  0  0  0  0  0  0  0  0  # atno 10764 bound_to 10752
  154.7903  135.3299  154.7737 H   0  0  0  0  0  0  0  0  0  0  0  0  # atno 10765 bound_to 10752
  140.3731  134.2001  155.7666 H   0  0  0  0  0  0  0  0  0  0  0  0  # atno 11005 bound_to 11000
  146.2802  140.4581  142.8779 LP  0  0  0  0  0  0  0  0  0  0  0  0  # atno 17320 bound_to 7965
  144.8447  140.6911  143.6207 LP  0  0  0  0  0  0  0  0  0  0  0  0  # atno 17321 bound_to 7965
  140.3510  144.3089  150.5949 LP  0  0  0  0  0  0  0  0  0  0  0  0  # atno 17342 bound_to 10162
  140.5485  143.2210  151.7966 LP  0  0  0  0  0  0  0  0  0  0  0  0  # atno 17343 bound_to 10162
  156.5076  130.4132  149.6318 LP  0  0  0  0  0  0  0  0  0  0  0  0  # atno 17370 bound_to 10713
  156.3270  130.7311  151.2234 LP  0  0  0  0  0  0  0  0  0  0  0  0  # atno 17371 bound_to 10713
  141.1948  133.8120  157.0742 LP  0  0  0  0  0  0  0  0  0  0  0  0  # atno 17394 bound_to 11000
  140.0536  134.9792  157.1181 LP  0  0  0  0  0  0  0  0  0  0  0  0  # atno 17395 bound_to 11000

$$$$
