AV-unprocessed.smi:2896|AV-procd|sdf|11137|dock1
  -GOLD-   2272016 13D 1   1.00000     0.00000
 Structure written by MMmdl.
 50 51  0  0  0  0  0  0  0  0  2 V2000
  149.5229  134.2259  154.4179 C   0  0  0  0  0  0  0  0  0  0  0  0
  148.1018  133.6509  154.5815 C   0  0  1  0  0  0  0  0  0  0  0  0
  147.8274  133.2241  156.0401 C   0  0  0  0  0  0  0  0  0  0  0  0
  147.5335  134.3643  156.9013 N   0  0  0  0  0  0  0  0  0  0  0  0
  148.1783  134.6608  158.0433 C   0  0  0  0  0  0  0  0  0  0  0  0
  149.0681  133.9420  158.5011 O   0  0  0  0  0  0  0  0  0  0  0  0
  147.7626  135.9629  158.7725 C   0  0  0  0  0  0  0  0  0  0  0  0
  148.9657  136.9332  158.7123 C   0  0  0  0  0  0  0  0  0  0  0  0
  146.5838  136.6448  158.0352 C   0  0  0  0  0  0  0  0  0  0  0  0
  147.3261  135.6170  160.2117 C   0  0  0  0  0  0  0  0  0  0  0  0
  147.9215  136.2726  161.3168 C   0  0  0  0  0  0  0  0  0  0  0  0
  147.5009  135.9579  162.6220 C   0  0  0  0  0  0  0  0  0  0  0  0
  146.4944  134.9884  162.7838 C   0  0  0  0  0  0  0  0  0  0  0  0
  145.9136  134.3490  161.7481 N   0  0  0  0  0  0  0  0  0  0  0  0
  146.3234  134.6573  160.4990 C   0  0  0  0  0  0  0  0  0  0  0  0
  147.0311  134.6578  154.1077 C   0  0  0  0  0  0  0  0  0  0  0  0
  146.7009  134.5191  152.6659 N   0  3  0  0  0  0  0  0  0  0  0  0
  146.5755  133.1103  152.2156 C   0  0  0  0  0  0  0  0  0  0  0  0
  146.2766  133.0530  150.7080 C   0  0  0  0  0  0  0  0  0  0  0  0
  145.0956  133.7932  150.4263 O   0  0  0  0  0  0  0  0  0  0  0  0
  145.2331  135.1655  150.7721 C   0  0  0  0  0  0  0  0  0  0  0  0
  145.4965  135.2932  152.2822 C   0  0  0  0  0  0  0  0  0  0  0  0
  149.6591  135.1218  155.0242 H   0  0  0  0  0  0  0  0  0  0  0  0
  149.7287  134.4921  153.3812 H   0  0  0  0  0  0  0  0  0  0  0  0
  150.2850  133.5067  154.7167 H   0  0  0  0  0  0  0  0  0  0  0  0
  148.0315  132.7539  153.9670 H   0  0  0  0  0  0  0  0  0  0  0  0
  146.9770  132.5422  156.0773 H   0  0  0  0  0  0  0  0  0  0  0  0
  148.6779  132.6726  156.4449 H   0  0  0  0  0  0  0  0  0  0  0  0
  146.8103  134.9978  156.5914 H   0  0  0  0  0  0  0  0  0  0  0  0
  149.8535  136.5177  159.1911 H   0  0  0  0  0  0  0  0  0  0  0  0
  148.7373  137.8821  159.1991 H   0  0  0  0  0  0  0  0  0  0  0  0
  149.2398  137.1627  157.6815 H   0  0  0  0  0  0  0  0  0  0  0  0
  145.7233  135.9844  157.9250 H   0  0  0  0  0  0  0  0  0  0  0  0
  146.8677  136.9698  157.0330 H   0  0  0  0  0  0  0  0  0  0  0  0
  146.2469  137.5304  158.5751 H   0  0  0  0  0  0  0  0  0  0  0  0
  148.6859  137.0216  161.1713 H   0  0  0  0  0  0  0  0  0  0  0  0
  147.9387  136.4485  163.4787 H   0  0  0  0  0  0  0  0  0  0  0  0
  146.1458  134.7209  163.7703 H   0  0  0  0  0  0  0  0  0  0  0  0
  145.8163  134.1120  159.7183 H   0  0  0  0  0  0  0  0  0  0  0  0
  146.1163  134.5537  154.6936 H   0  0  0  0  0  0  0  0  0  0  0  0
  147.4006  135.6661  154.3020 H   0  0  0  0  0  0  0  0  0  0  0  0
  147.4923  132.5580  152.4182 H   0  0  0  0  0  0  0  0  0  0  0  0
  145.7765  132.6168  152.7712 H   0  0  0  0  0  0  0  0  0  0  0  0
  147.1141  133.4456  150.1291 H   0  0  0  0  0  0  0  0  0  0  0  0
  146.1291  132.0196  150.3940 H   0  0  0  0  0  0  0  0  0  0  0  0
  146.0403  135.6200  150.1954 H   0  0  0  0  0  0  0  0  0  0  0  0
  144.3159  135.6907  150.5046 H   0  0  0  0  0  0  0  0  0  0  0  0
  144.6339  134.9328  152.8451 H   0  0  0  0  0  0  0  0  0  0  0  0
  145.6330  136.3437  152.5408 H   0  0  0  0  0  0  0  0  0  0  0  0
  147.4710  134.9266  152.1548 H   0  0  0  0  0  0  0  0  0  0  0  0
  1  2  1  0  0  0  0
  1 23  1  0  0  0  0
  1 24  1  0  0  0  0
  1 25  1  0  0  0  0
  2  3  1  0  0  0  0
  2 16  1  0  0  0  0
  2 26  1  0  0  0  0
  3  4  1  0  0  0  0
  3 27  1  0  0  0  0
  3 28  1  0  0  0  0
  4  5  1  0  0  0  0
  4 29  1  0  0  0  0
  5  6  2  0  0  0  0
  5  7  1  0  0  0  0
  7  8  1  0  0  0  0
  7  9  1  0  0  0  0
  7 10  1  0  0  0  0
  8 30  1  0  0  0  0
  8 31  1  0  0  0  0
  8 32  1  0  0  0  0
  9 33  1  0  0  0  0
  9 34  1  0  0  0  0
  9 35  1  0  0  0  0
 10 15  1  0  0  0  0
 10 11  2  0  0  0  0
 11 12  1  0  0  0  0
 11 36  1  0  0  0  0
 12 13  2  0  0  0  0
 12 37  1  0  0  0  0
 13 14  1  0  0  0  0
 13 38  1  0  0  0  0
 14 15  2  0  0  0  0
 15 39  1  0  0  0  0
 16 17  1  0  0  0  0
 16 40  1  0  0  0  0
 16 41  1  0  0  0  0
 17 22  1  0  0  0  0
 17 18  1  0  0  0  0
 17 50  1  0  0  0  0
 18 19  1  0  0  0  0
 18 42  1  0  0  0  0
 18 43  1  0  0  0  0
 19 20  1  0  0  0  0
 19 44  1  0  0  0  0
 19 45  1  0  0  0  0
 20 21  1  0  0  0  0
 21 22  1  0  0  0  0
 21 46  1  0  0  0  0
 21 47  1  0  0  0  0
 22 48  1  0  0  0  0
 22 49  1  0  0  0  0
M  CHG  1  17   1
M  END
> <s_m_source_file>
AV-unprocessed.smi

> <i_m_source_file_index>
2896

> <i_lp_mmshare_version>
43012

> <i_f3d_flags>
0

> <s_epik_input>
W0NIMl0xW0NIMl1PW0NIMl1bQ0gyXU4xW0NIMl1bQ0BIXShbQ0gzXSlbQ0gyXVtOSF1DKD1PKUMoW0NIM10pKFtDSDNdKWMyW2NIXVtjSF1bY0hdbltjSF0y

> <s_epik_cmdline>
J2VwaWtfcHl0aG9uJywgJy1waCcsICc3LjAnLCAnLXRuJywgJzgnLCAnLW1hJywgJzIwMCcsICctbWV0YWxfYmluZGluZycsICctaW1hZScsICc8aW5maWxlLm1hZT4nLCAnLW9tYWUnLCAnPG91dGZpbGUubWFlPic=

> <r_epik_Ionization_Penalty>
0.378644

> <r_epik_Ionization_Penalty_Charging>
0.372108

> <r_epik_Ionization_Penalty_Neutral>
0.0065361

> <r_epik_State_Penalty>
0.380038

> <r_epik_Charging_Adjusted_Penalty>
0.752147

> <i_epik_Tot_Q>
1

> <i_epik_Tot_abs_Q>
1

> <r_epik_Metal_State_Penalty>
0.375202

> <b_epik_Metal_Only>
0

> <s_lp_Force_Field>
OPLS_2005

> <r_lp_Energy>
23.8301

> <b_lp_Chiralities_Consistent>
1

> <s_lp_Variant>
AV-unprocessed.smi:2896-2

> <Gold.Version>
5.8.1

> <Gold.Id.Protein>
6NUR|6NUR_protein|mol2

> <Gold.PLP.Fitness>
40.0091

> <Gold.PLP.PLP>
-33.0609

> <Gold.PLP.part.hbond>
-2.0000

> <Gold.PLP.part.metal>
0.0000

> <Gold.PLP.part.buried>
-3.9589

> <Gold.PLP.part.nonpolar>
-27.3828

> <Gold.PLP.part.repulsive>
0.5558

> <Gold.PLP.ligand.clash>
1.1493

> <Gold.PLP.ligand.torsion>
0.8135

> <Gold.PLP.Chemscore.Hbond>
3.0000

> <Gold.PLP.Chemscore.CHOScore>
0.0000

> <Gold.PLP.Chemscore.Metal>
0.0000

> <Gold.Chemscore.Hbonds>
donor molecule, donor type, donor heavy atom, donor atom, acceptor molecule, acceptor atom, score
      L1  H    17    50       P1  7948  2.00
      P1  H  6896  6907       L1     6  1.00

> <Gold.PLP.Chemscore.Internal.Correction>
0.7244

> <Gold.Rescore>
     Score         DG    S(hbond)    S(metal)    S(lipo)     H(rot)  DE(clash)    DE(int)     intcor
     16.52     -17.40       2.00        0.00      83.81       1.78       0.07       0.81       ----

> <Gold.Chemscore.Fitness>
16.5197

> <Gold.Chemscore.DG>
-17.4024

> <Gold.Chemscore.ZeroCoef>
-5.4800

> <Gold.Chemscore.Hbond>
1.9958

> <Gold.Chemscore.Metal>
0.0000

> <Gold.Chemscore.Lipo>
83.8114

> <Gold.Chemscore.Internal_Hbond>
0.0000

> <Gold.Chemscore.DEClash>
0.0708

> <Gold.Chemscore.DEInternal>
0.8119

> <Gold.Chemscore.Rot>
1.7771

> <Gold.Chemscore.Internal.Correction>
   9.000000E+99

> <Gold.Chemscore.Hbonds>
donor molecule, donor type, donor heavy atom, donor atom, acceptor molecule, acceptor atom, score
      L1  H    17    50       P1  7948  0.90
      P1  H  6896  6907       L1     6  0.99

> <Gold.Chemscore.Hbond.Weighted>
-6.6658

> <Gold.Chemscore.Metal.Weighted>
-0.0000

> <Gold.Chemscore.Lipo.Weighted>
-9.8059

> <Gold.Chemscore.Internal_Hbond.Weighted>
0.0000

> <Gold.Chemscore.DEClash.Weighted>
0.0708

> <Gold.Chemscore.DEInternal.Weighted>
0.8119

> <Gold.Chemscore.Rot.Weighted>
4.5494

> <Gold.Chemscore.Internal.Correction.Weighted>
   9.000000E+99

> <Gold.Protein.RotatedTorsions>
[ 6907 6896 6895 6894 ] final -115.10 input  -60.11 | X-H torsion
[ 7974 7965 7964 7962 ] final  168.66 input  175.53 | X-H torsion
[ 8008 7997 7996 7995 ] final -119.42 input   59.86 | X-H torsion
[ 10167 10162 10161 10158 ] final  -78.01 input  -65.29 | X-H torsion
[ 10718 10713 10712 10709 ] final  108.98 input   66.30 | X-H torsion
[ 10763 10752 10751 10750 ] final   42.28 input  -60.55 | X-H torsion
[ 11005 11000 10999 10996 ] final  173.14 input  -57.11 | X-H torsion

> <Gold.Protein.ActiveResidues>
 VAL166  LYS551  ARG553  GLY616  TRP617  ASP618  TYR619  PRO620  LYS621  CYS622 
 ASP623  PHE694  ASN695  SER759  ASP760  ASP761  ALA762  ILE779  LEU786  VAL792 
 PHE793  MET794  SER795  GLU796  ALA797  LYS798  CYS799  TRP800  GLU811  SER814 

> <Gold.Protein.RotatedAtoms>
  150.7952  133.8706  159.3257 H   0  0  0  0  0  0  0  0  0  0  0  0  # atno 6907 bound_to 6896
  151.6533  135.0997  160.0174 H   0  0  0  0  0  0  0  0  0  0  0  0  # atno 6908 bound_to 6896
  152.4033  133.6811  159.6370 H   0  0  0  0  0  0  0  0  0  0  0  0  # atno 6909 bound_to 6896
  144.7381  139.8940  143.6405 H   0  0  0  0  0  0  0  0  0  0  0  0  # atno 7974 bound_to 7965
  155.1154  140.0398  157.2735 H   0  0  0  0  0  0  0  0  0  0  0  0  # atno 8008 bound_to 7997
  154.6653  140.2600  155.7039 H   0  0  0  0  0  0  0  0  0  0  0  0  # atno 8009 bound_to 7997
  156.2636  140.2808  156.1142 H   0  0  0  0  0  0  0  0  0  0  0  0  # atno 8010 bound_to 7997
  140.4720  143.2424  151.8190 H   0  0  0  0  0  0  0  0  0  0  0  0  # atno 10167 bound_to 10162
  157.6562  131.0904  150.6385 H   0  0  0  0  0  0  0  0  0  0  0  0  # atno 10718 bound_to 10713
  152.9887  135.6136  154.2923 H   0  0  0  0  0  0  0  0  0  0  0  0  # atno 10763 bound_to 10752
  154.2648  135.2781  155.2765 H   0  0  0  0  0  0  0  0  0  0  0  0  # atno 10764 bound_to 10752
  154.5174  135.5824  153.6710 H   0  0  0  0  0  0  0  0  0  0  0  0  # atno 10765 bound_to 10752
  140.3373  134.7306  157.4177 H   0  0  0  0  0  0  0  0  0  0  0  0  # atno 11005 bound_to 11000
  146.1121  139.4127  143.0281 LP  0  0  0  0  0  0  0  0  0  0  0  0  # atno 17320 bound_to 7965
  145.7428  141.0002  143.1292 LP  0  0  0  0  0  0  0  0  0  0  0  0  # atno 17321 bound_to 7965
  139.4820  144.4880  151.9222 LP  0  0  0  0  0  0  0  0  0  0  0  0  # atno 17342 bound_to 10162
  140.3965  144.2548  150.5896 LP  0  0  0  0  0  0  0  0  0  0  0  0  # atno 17343 bound_to 10162
  156.6692  130.4534  149.5662 LP  0  0  0  0  0  0  0  0  0  0  0  0  # atno 17370 bound_to 10713
  156.2010  130.6620  151.1167 LP  0  0  0  0  0  0  0  0  0  0  0  0  # atno 17371 bound_to 10713
  140.0810  134.5731  155.8540 LP  0  0  0  0  0  0  0  0  0  0  0  0  # atno 17394 bound_to 11000
  141.2048  133.6642  156.6141 LP  0  0  0  0  0  0  0  0  0  0  0  0  # atno 17395 bound_to 11000

$$$$
