AV-unprocessed.smi:655|AV-procd|sdf|3215|dock10
  -GOLD-   22720 0153D 1   1.00000     0.00000
 Structure written by MMmdl.
 35 36  0  0  0  0  0  0  0  0  1 V2000
  151.7801  145.3007  159.5684 C   0  0  0  0  0  0  0  0  0  0  0  0
  151.3840  143.8307  159.3711 C   0  0  2  0  0  0  0  0  0  0  0  0
  152.5173  143.0249  158.7121 C   0  0  0  0  0  0  0  0  0  0  0  0
  152.1276  141.5486  158.5095 C   0  0  0  0  0  0  0  0  0  0  0  0
  150.8167  141.3797  157.7034 C   0  0  2  0  0  0  0  0  0  0  0  0
  150.3972  140.0355  157.8482 O   0  0  0  0  0  0  0  0  0  0  0  0
  150.9347  141.6702  156.1766 C   0  0  0  0  0  0  0  0  0  0  0  0
  149.8038  141.2564  155.3671 N   0  0  0  0  0  0  0  0  0  0  0  0
  148.5914  141.9296  155.4164 C   0  0  0  0  0  0  0  0  0  0  0  0
  147.5137  141.5868  154.6706 C   0  0  0  0  0  0  0  0  0  0  0  0
  146.0390  142.4772  154.7975 Cl  0  0  0  0  0  0  0  0  0  0  0  0
  147.5934  140.4555  153.7487 C   0  0  0  0  0  0  0  0  0  0  0  0
  146.6803  140.0569  153.0285 O   0  0  0  0  0  0  0  0  0  0  0  0
  148.8334  139.8117  153.7211 N   0  0  0  0  0  0  0  0  0  0  0  0
  149.9492  140.1601  154.4826 C   0  0  0  0  0  0  0  0  0  0  0  0
  150.9894  139.5163  154.3567 O   0  0  0  0  0  0  0  0  0  0  0  0
  149.6960  142.2272  158.3521 C   0  0  0  0  0  0  0  0  0  0  0  0
  150.0917  143.7011  158.5456 C   0  0  0  0  0  0  0  0  0  0  0  0
  148.9314  139.0278  153.0921 H   0  0  0  0  0  0  0  0  0  0  0  0
  151.9757  145.7904  158.6140 H   0  0  0  0  0  0  0  0  0  0  0  0
  152.6806  145.3857  160.1773 H   0  0  0  0  0  0  0  0  0  0  0  0
  150.9890  145.8572  160.0716 H   0  0  0  0  0  0  0  0  0  0  0  0
  151.1979  143.4053  160.3584 H   0  0  0  0  0  0  0  0  0  0  0  0
  152.7730  143.4824  157.7583 H   0  0  0  0  0  0  0  0  0  0  0  0
  153.4170  143.0796  159.3258 H   0  0  0  0  0  0  0  0  0  0  0  0
  152.9475  141.0027  158.0435 H   0  0  0  0  0  0  0  0  0  0  0  0
  152.0017  141.0982  159.4956 H   0  0  0  0  0  0  0  0  0  0  0  0
  150.3377  139.8383  158.7703 H   0  0  0  0  0  0  0  0  0  0  0  0
  151.0263  142.7436  155.9995 H   0  0  0  0  0  0  0  0  0  0  0  0
  151.8389  141.2407  155.7437 H   0  0  0  0  0  0  0  0  0  0  0  0
  148.4974  142.7730  156.0858 H   0  0  0  0  0  0  0  0  0  0  0  0
  148.7816  142.1648  157.7607 H   0  0  0  0  0  0  0  0  0  0  0  0
  149.4463  141.8145  159.3311 H   0  0  0  0  0  0  0  0  0  0  0  0
  149.2797  144.2294  159.0463 H   0  0  0  0  0  0  0  0  0  0  0  0
  150.2160  144.1858  157.5769 H   0  0  0  0  0  0  0  0  0  0  0  0
  1  2  1  0  0  0  0
  1 20  1  0  0  0  0
  1 21  1  0  0  0  0
  1 22  1  0  0  0  0
  2 18  1  0  0  0  0
  2  3  1  0  0  0  0
  2 23  1  0  0  0  0
  3  4  1  0  0  0  0
  3 24  1  0  0  0  0
  3 25  1  0  0  0  0
  4  5  1  0  0  0  0
  4 26  1  0  0  0  0
  4 27  1  0  0  0  0
  5  6  1  0  0  0  0
  5  7  1  0  0  0  0
  5 17  1  0  0  0  0
  6 28  1  0  0  0  0
  7  8  1  0  0  0  0
  7 29  1  0  0  0  0
  7 30  1  0  0  0  0
  8 15  1  0  0  0  0
  8  9  1  0  0  0  0
  9 10  2  0  0  0  0
  9 31  1  0  0  0  0
 10 11  1  0  0  0  0
 10 12  1  0  0  0  0
 12 13  2  0  0  0  0
 12 14  1  0  0  0  0
 14 19  1  0  0  0  0
 14 15  1  0  0  0  0
 15 16  2  0  0  0  0
 17 18  1  0  0  0  0
 17 32  1  0  0  0  0
 17 33  1  0  0  0  0
 18 34  1  0  0  0  0
 18 35  1  0  0  0  0
M  END
> <s_m_source_file>
AV-unprocessed.smi

> <i_m_source_file_index>
655

> <i_lp_mmshare_version>
43012

> <i_f3d_flags>
0

> <s_epik_input>
W0NIMl0xW0NIMl1bQ0BIXShbQ0gzXSlbQ0gyXVtDSDJdW0NAQF0xKFtPSF0pW0NIMl1uMltjSF1jKENsKWMoPU8pW25IXWMyPU8=

> <s_epik_cmdline>
J2VwaWtfcHl0aG9uJywgJy1waCcsICc3LjAnLCAnLXRuJywgJzgnLCAnLW1hJywgJzIwMCcsICctbWV0YWxfYmluZGluZycsICctaW1hZScsICc8aW5maWxlLm1hZT4nLCAnLW9tYWUnLCAnPG91dGZpbGUubWFlPic=

> <r_lp_tautomer_probability>
0.999537

> <r_epik_Ionization_Penalty>
0.0114762

> <r_epik_Ionization_Penalty_Charging>
0.0114753

> <r_epik_Ionization_Penalty_Neutral>
8.25878e-07

> <r_epik_State_Penalty>
0.00883314

> <r_epik_Charging_Adjusted_Penalty>
0.0203085

> <i_epik_Tot_Q>
0

> <i_epik_Tot_abs_Q>
0

> <r_epik_Metal_State_Penalty>
1.64347

> <b_epik_Metal_Only>
0

> <s_lp_Force_Field>
OPLS_2005

> <r_lp_Energy>
18.8489

> <b_lp_Chiralities_Consistent>
1

> <s_lp_Variant>
AV-unprocessed.smi:655-2

> <Gold.Version>
5.8.1

> <Gold.Id.Protein>
6NUR|6NUR_protein|mol2

> <Gold.PLP.Fitness>
39.1341

> <Gold.PLP.PLP>
-35.8116

> <Gold.PLP.part.hbond>
-2.0000

> <Gold.PLP.part.metal>
0.0000

> <Gold.PLP.part.buried>
-1.2580

> <Gold.PLP.part.nonpolar>
-33.0277

> <Gold.PLP.part.repulsive>
0.4851

> <Gold.PLP.ligand.clash>
0.0000

> <Gold.PLP.ligand.torsion>
0.1995

> <Gold.PLP.Chemscore.Hbond>
0.2625

> <Gold.PLP.Chemscore.CHOScore>
0.9739

> <Gold.PLP.Chemscore.Metal>
0.0000

> <Gold.Chemscore.Hbonds>
donor molecule, donor type, donor heavy atom, donor atom, acceptor molecule, acceptor atom, score
      L1  H    14    19       P1  7957  0.02
      P1  H  7989  7998       L1    16  0.40
      L1  C     9    31       P1  8028  0.92

> <Gold.PLP.Chemscore.Internal.Correction>
0.0122

> <Gold.Rescore>
     Score         DG    S(hbond)    S(metal)    S(lipo)     H(rot)  DE(clash)    DE(int)     intcor
     10.77     -11.07       0.00        0.00      88.11       1.84       0.14       0.17       ----

> <Gold.Chemscore.Fitness>
10.7703

> <Gold.Chemscore.DG>
-11.0723

> <Gold.Chemscore.ZeroCoef>
-5.4800

> <Gold.Chemscore.Hbond>
0.0000

> <Gold.Chemscore.Metal>
0.0000

> <Gold.Chemscore.Lipo>
88.1087

> <Gold.Chemscore.Internal_Hbond>
0.0000

> <Gold.Chemscore.DEClash>
0.1351

> <Gold.Chemscore.DEInternal>
0.1668

> <Gold.Chemscore.Rot>
1.8424

> <Gold.Chemscore.Internal.Correction>
   9.000000E+99

> <Gold.Chemscore.Hbonds>
donor molecule, donor type, donor heavy atom, donor atom, acceptor molecule, acceptor atom, score
      L1  H    14    19       P1  7957  0.04
      P1  H  7989  7998       L1    16  0.01

> <Gold.Chemscore.Hbond.Weighted>
-0.0000

> <Gold.Chemscore.Metal.Weighted>
-0.0000

> <Gold.Chemscore.Lipo.Weighted>
-10.3087

> <Gold.Chemscore.Internal_Hbond.Weighted>
0.0000

> <Gold.Chemscore.DEClash.Weighted>
0.1351

> <Gold.Chemscore.DEInternal.Weighted>
0.1668

> <Gold.Chemscore.Rot.Weighted>
4.7164

> <Gold.Chemscore.Internal.Correction.Weighted>
   9.000000E+99

> <Gold.Protein.RotatedTorsions>
[ 6907 6896 6895 6894 ] final   80.40 input  -60.11 | X-H torsion
[ 7974 7965 7964 7962 ] final   20.91 input  175.53 | X-H torsion
[ 8008 7997 7996 7995 ] final  164.01 input   59.86 | X-H torsion
[ 10167 10162 10161 10158 ] final  178.44 input  -65.29 | X-H torsion
[ 10718 10713 10712 10709 ] final   73.00 input   66.30 | X-H torsion
[ 10763 10752 10751 10750 ] final -124.80 input  -60.55 | X-H torsion
[ 11005 11000 10999 10996 ] final    6.66 input  -57.11 | X-H torsion

> <Gold.Protein.ActiveResidues>
 VAL166  LYS551  ARG553  GLY616  TRP617  ASP618  TYR619  PRO620  LYS621  CYS622 
 ASP623  PHE694  ASN695  SER759  ASP760  ASP761  ALA762  ILE779  LEU786  VAL792 
 PHE793  MET794  SER795  GLU796  ALA797  LYS798  CYS799  TRP800  GLU811  SER814 

> <Gold.Protein.RotatedAtoms>
  152.5233  134.3364  159.9201 H   0  0  0  0  0  0  0  0  0  0  0  0  # atno 6907 bound_to 6896
  151.3313  133.3993  159.2670 H   0  0  0  0  0  0  0  0  0  0  0  0  # atno 6908 bound_to 6896
  150.9878  134.9237  159.7939 H   0  0  0  0  0  0  0  0  0  0  0  0  # atno 6909 bound_to 6896
  146.2093  139.8102  142.8702 H   0  0  0  0  0  0  0  0  0  0  0  0  # atno 7974 bound_to 7965
  156.1913  140.1708  156.8086 H   0  0  0  0  0  0  0  0  0  0  0  0  # atno 8008 bound_to 7997
  154.5475  140.0724  156.8644 H   0  0  0  0  0  0  0  0  0  0  0  0  # atno 8009 bound_to 7997
  155.3094  140.3366  155.4247 H   0  0  0  0  0  0  0  0  0  0  0  0  # atno 8010 bound_to 7997
  139.5294  144.2679  152.0652 H   0  0  0  0  0  0  0  0  0  0  0  0  # atno 10167 bound_to 10162
  157.6528  130.9607  150.1008 H   0  0  0  0  0  0  0  0  0  0  0  0  # atno 10718 bound_to 10713
  154.8728  135.4051  154.3165 H   0  0  0  0  0  0  0  0  0  0  0  0  # atno 10763 bound_to 10752
  153.4000  135.7017  153.6438 H   0  0  0  0  0  0  0  0  0  0  0  0  # atno 10764 bound_to 10752
  153.5185  135.3692  155.2591 H   0  0  0  0  0  0  0  0  0  0  0  0  # atno 10765 bound_to 10752
  140.5569  134.0229  155.7957 H   0  0  0  0  0  0  0  0  0  0  0  0  # atno 11005 bound_to 11000
  145.3204  141.0242  143.3504 LP  0  0  0  0  0  0  0  0  0  0  0  0  # atno 17320 bound_to 7965
  144.8871  139.4824  143.6695 LP  0  0  0  0  0  0  0  0  0  0  0  0  # atno 17321 bound_to 7965
  140.2140  144.4534  150.6372 LP  0  0  0  0  0  0  0  0  0  0  0  0  # atno 17342 bound_to 10162
  140.6462  143.2214  151.6181 LP  0  0  0  0  0  0  0  0  0  0  0  0  # atno 17343 bound_to 10162
  156.1931  130.3656  149.8884 LP  0  0  0  0  0  0  0  0  0  0  0  0  # atno 17370 bound_to 10713
  156.6807  130.8857  151.3575 LP  0  0  0  0  0  0  0  0  0  0  0  0  # atno 17371 bound_to 10713
  141.1138  133.9574  157.2861 LP  0  0  0  0  0  0  0  0  0  0  0  0  # atno 17394 bound_to 11000
  139.9427  135.0189  156.8757 LP  0  0  0  0  0  0  0  0  0  0  0  0  # atno 17395 bound_to 11000

$$$$
