AV-unprocessed.smi:1725|AV-procd|sdf|6956|dock9
  -GOLD-   22720 8173D 1   1.00000     0.00000
 Structure written by MMmdl.
 35 36  0  0  0  0  0  0  0  0  2 V2000
  147.6531  136.5473  163.1011 C   0  0  0  0  0  0  0  0  0  0  0  0
  147.6041  135.7561  161.7864 C   0  0  1  0  0  0  0  0  0  0  0  0
  146.2994  135.1946  161.6738 O   0  0  0  0  0  0  0  0  0  0  0  0
  146.0629  134.0346  162.4658 C   0  0  0  0  0  0  0  0  0  0  0  0
  144.5858  133.6877  162.5005 C   0  0  0  0  0  0  0  0  0  0  0  0
  143.6019  134.4066  161.6008 C   0  0  0  0  0  0  0  0  0  0  0  0
  143.5662  134.6432  163.0865 C   0  0  0  0  0  0  0  0  0  0  0  0
  147.8988  136.6624  160.5805 C   0  0  0  0  0  0  0  0  0  0  0  0
  147.1139  137.5681  160.2989 O   0  0  0  0  0  0  0  0  0  0  0  0
  149.0322  136.3802  159.9089 N   0  0  0  0  0  0  0  0  0  0  0  0
  149.5457  136.9725  158.7431 C   0  0  0  0  0  0  0  0  0  0  0  0
  149.8043  138.3020  158.6007 C   0  0  0  0  0  0  0  0  0  0  0  0
  150.3183  138.8662  157.3586 C   0  0  0  0  0  0  0  0  0  0  0  0
  150.6218  140.3383  157.1473 C   0  0  0  0  0  0  0  0  0  0  0  0
  149.5172  141.0650  157.3137 F   0  0  0  0  0  0  0  0  0  0  0  0
  151.5263  140.7543  158.0335 F   0  0  0  0  0  0  0  0  0  0  0  0
  151.0962  140.5676  155.9227 F   0  0  0  0  0  0  0  0  0  0  0  0
  150.4917  137.9092  156.3790 C   0  0  0  0  0  0  0  0  0  0  0  0
  150.2528  136.5805  156.4353 N   0  5  0  0  0  0  0  0  0  0  0  0
  149.7706  136.0630  157.6005 C   0  0  0  0  0  0  0  0  0  0  0  0
  149.5211  134.8626  157.7184 O   0  0  0  0  0  0  0  0  0  0  0  0
  148.6301  137.0092  163.2475 H   0  0  0  0  0  0  0  0  0  0  0  0
  147.4682  135.8923  163.9525 H   0  0  0  0  0  0  0  0  0  0  0  0
  146.9013  137.3372  163.1240 H   0  0  0  0  0  0  0  0  0  0  0  0
  148.3406  134.9517  161.8410 H   0  0  0  0  0  0  0  0  0  0  0  0
  146.6048  133.1725  162.0761 H   0  0  0  0  0  0  0  0  0  0  0  0
  146.4061  134.2060  163.4867 H   0  0  0  0  0  0  0  0  0  0  0  0
  144.3924  132.6290  162.6628 H   0  0  0  0  0  0  0  0  0  0  0  0
  143.9773  135.2123  160.9727 H   0  0  0  0  0  0  0  0  0  0  0  0
  142.7973  133.8170  161.1664 H   0  0  0  0  0  0  0  0  0  0  0  0
  142.7358  134.2119  163.6417 H   0  0  0  0  0  0  0  0  0  0  0  0
  143.9146  135.6082  163.4495 H   0  0  0  0  0  0  0  0  0  0  0  0
  149.6237  135.6657  160.3080 H   0  0  0  0  0  0  0  0  0  0  0  0
  149.6114  138.9881  159.4091 H   0  0  0  0  0  0  0  0  0  0  0  0
  150.8784  138.2688  155.4015 H   0  0  0  0  0  0  0  0  0  0  0  0
  1  2  1  0  0  0  0
  1 22  1  0  0  0  0
  1 23  1  0  0  0  0
  1 24  1  0  0  0  0
  2  3  1  0  0  0  0
  2  8  1  0  0  0  0
  2 25  1  0  0  0  0
  3  4  1  0  0  0  0
  4  5  1  0  0  0  0
  4 26  1  0  0  0  0
  4 27  1  0  0  0  0
  5  7  1  0  0  0  0
  5  6  1  0  0  0  0
  5 28  1  0  0  0  0
  6  7  1  0  0  0  0
  6 29  1  0  0  0  0
  6 30  1  0  0  0  0
  7 31  1  0  0  0  0
  7 32  1  0  0  0  0
  8  9  2  0  0  0  0
  8 10  1  0  0  0  0
 10 11  1  0  0  0  0
 10 33  1  0  0  0  0
 11 20  1  0  0  0  0
 11 12  2  0  0  0  0
 12 13  1  0  0  0  0
 12 34  1  0  0  0  0
 13 14  1  0  0  0  0
 13 18  2  0  0  0  0
 14 15  1  0  0  0  0
 14 16  1  0  0  0  0
 14 17  1  0  0  0  0
 18 19  1  0  0  0  0
 18 35  1  0  0  0  0
 19 20  1  0  0  0  0
 20 21  2  0  0  0  0
M  CHG  1  19  -1
M  END
> <s_m_source_file>
AV-unprocessed.smi

> <i_m_source_file_index>
1725

> <i_lp_mmshare_version>
43012

> <i_f3d_flags>
0

> <s_epik_input>
W0NIMl0xW0NIMl1bQ0hdMVtDSDJdT1tDQEBIXShbQ0gzXSlDKD1PKVtOSF1jMltjSF1jKEMoRikoRilGKVtjSF1bbkhdYzI9Tw==

> <s_epik_cmdline>
J2VwaWtfcHl0aG9uJywgJy1waCcsICc3LjAnLCAnLXRuJywgJzgnLCAnLW1hJywgJzIwMCcsICctbWV0YWxfYmluZGluZycsICctaW1hZScsICc8aW5maWxlLm1hZT4nLCAnLW9tYWUnLCAnPG91dGZpbGUubWFlPic=

> <r_lp_tautomer_probability>
0.999

> <r_epik_Ionization_Penalty>
2.64397

> <r_epik_Ionization_Penalty_Charging>
0.0618254

> <r_epik_Ionization_Penalty_Neutral>
2.58215

> <r_epik_State_Penalty>
2.58023

> <r_epik_Charging_Adjusted_Penalty>
2.64205

> <i_epik_Tot_Q>
-1

> <i_epik_Tot_abs_Q>
1

> <r_epik_Metal_State_Penalty>
0.429101

> <b_epik_Metal_Only>
1

> <s_lp_Force_Field>
OPLS_2005

> <r_lp_Energy>
29.0368

> <b_lp_Chiralities_Consistent>
1

> <s_lp_Variant>
AV-unprocessed.smi:1725-4

> <Gold.Version>
5.8.1

> <Gold.Id.Protein>
6NUR|6NUR_protein|mol2

> <Gold.PLP.Fitness>
39.4397

> <Gold.PLP.PLP>
-35.1223

> <Gold.PLP.part.hbond>
-2.0508

> <Gold.PLP.part.metal>
0.0000

> <Gold.PLP.part.buried>
-5.4873

> <Gold.PLP.part.nonpolar>
-28.2168

> <Gold.PLP.part.repulsive>
0.2260

> <Gold.PLP.ligand.clash>
0.0000

> <Gold.PLP.ligand.torsion>
1.1563

> <Gold.PLP.Chemscore.Hbond>
2.0000

> <Gold.PLP.Chemscore.CHOScore>
0.0000

> <Gold.PLP.Chemscore.Metal>
0.0000

> <Gold.Chemscore.Hbonds>
donor molecule, donor type, donor heavy atom, donor atom, acceptor molecule, acceptor atom, score
      P1  H  6896  6907       L1    21  0.78
      P1  H  6934  6947       L1     9  1.00

> <Gold.PLP.Chemscore.Internal.Correction>
0.6299

> <Gold.Rescore>
     Score         DG    S(hbond)    S(metal)    S(lipo)     H(rot)  DE(clash)    DE(int)     intcor
     13.75     -15.18       1.84        0.00      68.98       1.76       0.07       1.35       ----

> <Gold.Chemscore.Fitness>
13.7516

> <Gold.Chemscore.DG>
-15.1803

> <Gold.Chemscore.ZeroCoef>
-5.4800

> <Gold.Chemscore.Hbond>
1.8370

> <Gold.Chemscore.Metal>
0.0000

> <Gold.Chemscore.Lipo>
68.9846

> <Gold.Chemscore.Internal_Hbond>
0.0000

> <Gold.Chemscore.DEClash>
0.0742

> <Gold.Chemscore.DEInternal>
1.3546

> <Gold.Chemscore.Rot>
1.7604

> <Gold.Chemscore.Internal.Correction>
   9.000000E+99

> <Gold.Chemscore.Hbonds>
donor molecule, donor type, donor heavy atom, donor atom, acceptor molecule, acceptor atom, score
      P1  H  6896  6907       L1    21  0.45
      P1  H  6934  6947       L1     9  0.97

> <Gold.Chemscore.Hbond.Weighted>
-6.1357

> <Gold.Chemscore.Metal.Weighted>
-0.0000

> <Gold.Chemscore.Lipo.Weighted>
-8.0712

> <Gold.Chemscore.Internal_Hbond.Weighted>
0.0000

> <Gold.Chemscore.DEClash.Weighted>
0.0742

> <Gold.Chemscore.DEInternal.Weighted>
1.3546

> <Gold.Chemscore.Rot.Weighted>
4.5065

> <Gold.Chemscore.Internal.Correction.Weighted>
   9.000000E+99

> <Gold.Protein.RotatedTorsions>
[ 6907 6896 6895 6894 ] final  -98.08 input  -60.11 | X-H torsion
[ 7974 7965 7964 7962 ] final -134.34 input  175.53 | X-H torsion
[ 8008 7997 7996 7995 ] final  -47.94 input   59.86 | X-H torsion
[ 10167 10162 10161 10158 ] final  169.88 input  -65.29 | X-H torsion
[ 10718 10713 10712 10709 ] final  153.52 input   66.30 | X-H torsion
[ 10763 10752 10751 10750 ] final  -62.43 input  -60.55 | X-H torsion
[ 11005 11000 10999 10996 ] final   74.72 input  -57.11 | X-H torsion

> <Gold.Protein.ActiveResidues>
 VAL166  LYS551  ARG553  GLY616  TRP617  ASP618  TYR619  PRO620  LYS621  CYS622 
 ASP623  PHE694  ASN695  SER759  ASP760  ASP761  ALA762  ILE779  LEU786  VAL792 
 PHE793  MET794  SER795  GLU796  ALA797  LYS798  CYS799  TRP800  GLU811  SER814 

> <Gold.Protein.RotatedAtoms>
  150.7036  134.1249  159.4048 H   0  0  0  0  0  0  0  0  0  0  0  0  # atno 6907 bound_to 6896
  151.9235  135.0285  160.0533 H   0  0  0  0  0  0  0  0  0  0  0  0  # atno 6908 bound_to 6896
  152.2236  133.4967  159.5213 H   0  0  0  0  0  0  0  0  0  0  0  0  # atno 6909 bound_to 6896
  144.9112  140.6897  143.5024 H   0  0  0  0  0  0  0  0  0  0  0  0  # atno 7974 bound_to 7965
  154.4022  140.1334  156.4257 H   0  0  0  0  0  0  0  0  0  0  0  0  # atno 8008 bound_to 7997
  155.7599  140.3486  155.5173 H   0  0  0  0  0  0  0  0  0  0  0  0  # atno 8009 bound_to 7997
  155.8868  140.0996  157.1437 H   0  0  0  0  0  0  0  0  0  0  0  0  # atno 8010 bound_to 7997
  139.5003  144.3658  151.9777 H   0  0  0  0  0  0  0  0  0  0  0  0  # atno 10167 bound_to 10162
  157.2437  131.0764  151.1776 H   0  0  0  0  0  0  0  0  0  0  0  0  # atno 10718 bound_to 10713
  154.2998  135.6237  153.5420 H   0  0  0  0  0  0  0  0  0  0  0  0  # atno 10763 bound_to 10752
  152.9842  135.5675  154.5297 H   0  0  0  0  0  0  0  0  0  0  0  0  # atno 10764 bound_to 10752
  154.4925  135.2868  155.1462 H   0  0  0  0  0  0  0  0  0  0  0  0  # atno 10765 bound_to 10752
  139.9377  134.7457  156.1183 H   0  0  0  0  0  0  0  0  0  0  0  0  # atno 11005 bound_to 11000
  145.3452  139.1721  143.4464 LP  0  0  0  0  0  0  0  0  0  0  0  0  # atno 17320 bound_to 7965
  146.3159  140.3498  142.8655 LP  0  0  0  0  0  0  0  0  0  0  0  0  # atno 17321 bound_to 7965
  140.3094  144.3555  150.6038 LP  0  0  0  0  0  0  0  0  0  0  0  0  # atno 17342 bound_to 10162
  140.5811  143.2173  151.7427 LP  0  0  0  0  0  0  0  0  0  0  0  0  # atno 17343 bound_to 10162
  157.3352  130.7005  149.6348 LP  0  0  0  0  0  0  0  0  0  0  0  0  # atno 17370 bound_to 10713
  155.9669  130.4296  150.4839 LP  0  0  0  0  0  0  0  0  0  0  0  0  # atno 17371 bound_to 10713
  141.0999  133.6681  156.2729 LP  0  0  0  0  0  0  0  0  0  0  0  0  # atno 17394 bound_to 11000
  140.6032  134.5534  157.5521 LP  0  0  0  0  0  0  0  0  0  0  0  0  # atno 17395 bound_to 11000

$$$$
