AV-unprocessed.smi:816|AV-procd|sdf|3826|dock7
  -GOLD-   22720 1263D 1   1.00000     0.00000
 Structure written by MMmdl.
 40 41  0  0  0  0  0  0  0  0  1 V2000
  151.1642  143.4086  157.6796 C   0  0  0  0  0  0  0  0  0  0  0  0
  151.7065  142.1358  158.2717 C   0  0  0  0  0  0  0  0  0  0  0  0
  151.0942  141.0424  157.9555 N   0  0  0  0  0  0  0  0  0  0  0  0
  151.5090  139.8187  158.4435 N   0  0  0  0  0  0  0  0  0  0  0  0
  150.6900  138.6876  157.9934 C   0  0  0  0  0  0  0  0  0  0  0  0
  150.2617  137.7870  159.1742 C   0  0  2  0  0  0  0  0  0  0  0  0
  151.0116  136.5895  159.1358 O   0  0  0  0  0  0  0  0  0  0  0  0
  148.7792  137.3913  159.0988 C   0  0  0  0  0  0  0  0  0  0  0  0
  148.2836  137.2269  160.4213 O   0  0  0  0  0  0  0  0  0  0  0  0
  147.8088  135.9876  160.7925 C   0  0  0  0  0  0  0  0  0  0  0  0
  147.3494  135.1437  159.7607 C   0  0  0  0  0  0  0  0  0  0  0  0
  146.8508  133.8581  160.0474 C   0  0  0  0  0  0  0  0  0  0  0  0
  146.8051  133.4011  161.3791 C   0  0  0  0  0  0  0  0  0  0  0  0
  146.2919  132.0749  161.6794 C   0  0  0  0  0  0  0  0  0  0  0  0
  145.8832  131.0191  161.9186 N   0  0  0  0  0  0  0  0  0  0  0  0
  147.2586  134.2361  162.4194 C   0  0  0  0  0  0  0  0  0  0  0  0
  147.7570  135.5215  162.1306 C   0  0  0  0  0  0  0  0  0  0  0  0
  152.5590  139.6365  159.2931 C   0  0  0  0  0  0  0  0  0  0  0  0
  152.8785  138.5274  159.7236 O   0  0  0  0  0  0  0  0  0  0  0  0
  153.2536  140.8781  159.6415 C   0  0  0  0  0  0  0  0  0  0  0  0
  154.3677  140.7318  160.5220 C   0  0  0  0  0  0  0  0  0  0  0  0
  155.2630  140.6265  161.2483 N   0  0  0  0  0  0  0  0  0  0  0  0
  152.8625  142.0852  159.1612 C   0  0  0  0  0  0  0  0  0  0  0  0
  153.5471  143.4035  159.4951 C   0  0  0  0  0  0  0  0  0  0  0  0
  151.8893  143.8578  157.0012 H   0  0  0  0  0  0  0  0  0  0  0  0
  150.9349  144.1341  158.4601 H   0  0  0  0  0  0  0  0  0  0  0  0
  150.2467  143.2359  157.1150 H   0  0  0  0  0  0  0  0  0  0  0  0
  149.8023  139.0929  157.5037 H   0  0  0  0  0  0  0  0  0  0  0  0
  151.1887  138.1107  157.2120 H   0  0  0  0  0  0  0  0  0  0  0  0
  150.4461  138.2815  160.1292 H   0  0  0  0  0  0  0  0  0  0  0  0
  151.5337  136.5873  158.3475 H   0  0  0  0  0  0  0  0  0  0  0  0
  148.2140  138.1556  158.5621 H   0  0  0  0  0  0  0  0  0  0  0  0
  148.6755  136.4489  158.5578 H   0  0  0  0  0  0  0  0  0  0  0  0
  147.3811  135.4853  158.7363 H   0  0  0  0  0  0  0  0  0  0  0  0
  146.5056  133.2281  159.2401 H   0  0  0  0  0  0  0  0  0  0  0  0
  147.2274  133.8967  163.4450 H   0  0  0  0  0  0  0  0  0  0  0  0
  148.0931  136.1315  162.9551 H   0  0  0  0  0  0  0  0  0  0  0  0
  154.4411  143.2623  160.1019 H   0  0  0  0  0  0  0  0  0  0  0  0
  152.8708  144.0532  160.0515 H   0  0  0  0  0  0  0  0  0  0  0  0
  153.8513  143.9210  158.5848 H   0  0  0  0  0  0  0  0  0  0  0  0
  1  2  1  0  0  0  0
  1 25  1  0  0  0  0
  1 26  1  0  0  0  0
  1 27  1  0  0  0  0
  2 23  1  0  0  0  0
  2  3  2  0  0  0  0
  3  4  1  0  0  0  0
  4  5  1  0  0  0  0
  4 18  1  0  0  0  0
  5  6  1  0  0  0  0
  5 28  1  0  0  0  0
  5 29  1  0  0  0  0
  6  7  1  0  0  0  0
  6  8  1  0  0  0  0
  6 30  1  0  0  0  0
  7 31  1  0  0  0  0
  8  9  1  0  0  0  0
  8 32  1  0  0  0  0
  8 33  1  0  0  0  0
  9 10  1  0  0  0  0
 10 17  1  0  0  0  0
 10 11  2  0  0  0  0
 11 12  1  0  0  0  0
 11 34  1  0  0  0  0
 12 13  2  0  0  0  0
 12 35  1  0  0  0  0
 13 14  1  0  0  0  0
 13 16  1  0  0  0  0
 14 15  3  0  0  0  0
 16 17  2  0  0  0  0
 16 36  1  0  0  0  0
 17 37  1  0  0  0  0
 18 19  2  0  0  0  0
 18 20  1  0  0  0  0
 20 21  1  0  0  0  0
 20 23  2  0  0  0  0
 21 22  3  0  0  0  0
 23 24  1  0  0  0  0
 24 38  1  0  0  0  0
 24 39  1  0  0  0  0
 24 40  1  0  0  0  0
M  END
> <s_m_source_file>
AV-unprocessed.smi

> <i_m_source_file_index>
816

> <i_lp_mmshare_version>
43012

> <i_f3d_flags>
0

> <s_epik_input>
TiNDYyhjMVtDSDNdKWMoPU8pbihuYzFbQ0gzXSlbQ0gyXVtDQEhdKFtPSF0pW0NIMl1PYzJbY0hdW2NIXWMoQyNOKVtjSF1bY0hdMg==

> <s_epik_cmdline>
J2VwaWtfcHl0aG9uJywgJy1waCcsICc3LjAnLCAnLXRuJywgJzgnLCAnLW1hJywgJzIwMCcsICctbWV0YWxfYmluZGluZycsICctaW1hZScsICc8aW5maWxlLm1hZT4nLCAnLW9tYWUnLCAnPG91dGZpbGUubWFlPic=

> <r_lp_tautomer_probability>
1

> <r_epik_Ionization_Penalty>
1.1732e-07

> <r_epik_Ionization_Penalty_Charging>
1.4567e-10

> <r_epik_Ionization_Penalty_Neutral>
1.17174e-07

> <r_epik_State_Penalty>
-0

> <r_epik_Charging_Adjusted_Penalty>
1.4567e-10

> <i_epik_Tot_Q>
0

> <i_epik_Tot_abs_Q>
0

> <r_epik_Metal_State_Penalty>
-0

> <b_epik_Metal_Only>
0

> <s_lp_Force_Field>
OPLS_2005

> <r_lp_Energy>
30.0039

> <b_lp_Chiralities_Consistent>
1

> <s_lp_Variant>
AV-unprocessed.smi:816-1

> <Gold.Version>
5.8.1

> <Gold.Id.Protein>
6NUR|6NUR_protein|mol2

> <Gold.PLP.Fitness>
45.7223

> <Gold.PLP.PLP>
-43.1056

> <Gold.PLP.part.hbond>
-4.0000

> <Gold.PLP.part.metal>
0.0000

> <Gold.PLP.part.buried>
-5.4718

> <Gold.PLP.part.nonpolar>
-34.3558

> <Gold.PLP.part.repulsive>
0.0838

> <Gold.PLP.ligand.clash>
0.1849

> <Gold.PLP.ligand.torsion>
1.8756

> <Gold.PLP.Chemscore.Hbond>
2.1784

> <Gold.PLP.Chemscore.CHOScore>
0.0000

> <Gold.PLP.Chemscore.Metal>
0.0000

> <Gold.Chemscore.Hbonds>
donor molecule, donor type, donor heavy atom, donor atom, acceptor molecule, acceptor atom, score
      P1  H  6896  6908       L1     7  1.00
      P1  H  6931  6943       L1     9  0.70
      P1  H  6934  6947       L1     9  0.43

> <Gold.PLP.Chemscore.Internal.Correction>
0.0176

> <Gold.Rescore>
     Score         DG    S(hbond)    S(metal)    S(lipo)     H(rot)  DE(clash)    DE(int)     intcor
     11.59     -16.21       1.67        0.00     101.41       2.62       0.03       4.59       ----

> <Gold.Chemscore.Fitness>
11.5857

> <Gold.Chemscore.DG>
-16.2050

> <Gold.Chemscore.ZeroCoef>
-5.4800

> <Gold.Chemscore.Hbond>
1.6685

> <Gold.Chemscore.Metal>
0.0000

> <Gold.Chemscore.Lipo>
101.4107

> <Gold.Chemscore.Internal_Hbond>
0.0000

> <Gold.Chemscore.DEClash>
0.0275

> <Gold.Chemscore.DEInternal>
4.5919

> <Gold.Chemscore.Rot>
2.6222

> <Gold.Chemscore.Internal.Correction>
   9.000000E+99

> <Gold.Chemscore.Hbonds>
donor molecule, donor type, donor heavy atom, donor atom, acceptor molecule, acceptor atom, score
      P1  H  6896  6908       L1     7  0.53
      P1  H  6931  6943       L1     9  0.60
      P1  H  6934  6947       L1     9  0.25

> <Gold.Chemscore.Hbond.Weighted>
-5.5727

> <Gold.Chemscore.Metal.Weighted>
-0.0000

> <Gold.Chemscore.Lipo.Weighted>
-11.8650

> <Gold.Chemscore.Internal_Hbond.Weighted>
0.0000

> <Gold.Chemscore.DEClash.Weighted>
0.0275

> <Gold.Chemscore.DEInternal.Weighted>
4.5919

> <Gold.Chemscore.Rot.Weighted>
6.7127

> <Gold.Chemscore.Internal.Correction.Weighted>
   9.000000E+99

> <Gold.Protein.RotatedTorsions>
[ 6907 6896 6895 6894 ] final -133.45 input  -60.11 | X-H torsion
[ 7974 7965 7964 7962 ] final   53.32 input  175.53 | X-H torsion
[ 8008 7997 7996 7995 ] final  -95.60 input   59.86 | X-H torsion
[ 10167 10162 10161 10158 ] final  103.14 input  -65.29 | X-H torsion
[ 10718 10713 10712 10709 ] final -109.10 input   66.30 | X-H torsion
[ 10763 10752 10751 10750 ] final  129.25 input  -60.55 | X-H torsion
[ 11005 11000 10999 10996 ] final   79.37 input  -57.11 | X-H torsion

> <Gold.Protein.ActiveResidues>
 VAL166  LYS551  ARG553  GLY616  TRP617  ASP618  TYR619  PRO620  LYS621  CYS622 
 ASP623  PHE694  ASN695  SER759  ASP760  ASP761  ALA762  ILE779  LEU786  VAL792 
 PHE793  MET794  SER795  GLU796  ALA797  LYS798  CYS799  TRP800  GLU811  SER814 

> <Gold.Protein.RotatedAtoms>
  150.9742  133.6312  159.2732 H   0  0  0  0  0  0  0  0  0  0  0  0  # atno 6907 bound_to 6896
  151.3591  135.0899  159.9438 H   0  0  0  0  0  0  0  0  0  0  0  0  # atno 6908 bound_to 6896
  152.5193  133.9319  159.7639 H   0  0  0  0  0  0  0  0  0  0  0  0  # atno 6909 bound_to 6896
  145.9723  139.4161  143.0182 H   0  0  0  0  0  0  0  0  0  0  0  0  # atno 7974 bound_to 7965
  154.7634  140.0478  157.0992 H   0  0  0  0  0  0  0  0  0  0  0  0  # atno 8008 bound_to 7997
  154.9909  140.3113  155.4887 H   0  0  0  0  0  0  0  0  0  0  0  0  # atno 8009 bound_to 7997
  156.2908  140.2219  156.5014 H   0  0  0  0  0  0  0  0  0  0  0  0  # atno 8010 bound_to 7997
  139.7289  144.7041  151.0754 H   0  0  0  0  0  0  0  0  0  0  0  0  # atno 10167 bound_to 10162
  156.0519  130.5747  150.8053 H   0  0  0  0  0  0  0  0  0  0  0  0  # atno 10718 bound_to 10713
  153.7388  135.3227  155.3300 H   0  0  0  0  0  0  0  0  0  0  0  0  # atno 10763 bound_to 10752
  154.8302  135.4539  154.1048 H   0  0  0  0  0  0  0  0  0  0  0  0  # atno 10764 bound_to 10752
  153.2216  135.6949  153.8075 H   0  0  0  0  0  0  0  0  0  0  0  0  # atno 10765 bound_to 10752
  139.9175  134.7837  156.1770 H   0  0  0  0  0  0  0  0  0  0  0  0  # atno 11005 bound_to 11000
  145.7888  140.9824  143.1060 LP  0  0  0  0  0  0  0  0  0  0  0  0  # atno 17320 bound_to 7965
  144.6840  139.9656  143.7481 LP  0  0  0  0  0  0  0  0  0  0  0  0  # atno 17321 bound_to 7965
  140.7767  143.5069  150.9701 LP  0  0  0  0  0  0  0  0  0  0  0  0  # atno 17342 bound_to 10162
  139.8757  143.7136  152.3162 LP  0  0  0  0  0  0  0  0  0  0  0  0  # atno 17343 bound_to 10162
  157.5454  131.0942  150.9770 LP  0  0  0  0  0  0  0  0  0  0  0  0  # atno 17370 bound_to 10713
  157.0042  130.5612  149.5314 LP  0  0  0  0  0  0  0  0  0  0  0  0  # atno 17371 bound_to 10713
  141.0666  133.6816  156.2056 LP  0  0  0  0  0  0  0  0  0  0  0  0  # atno 17394 bound_to 11000
  140.6576  134.5002  157.5581 LP  0  0  0  0  0  0  0  0  0  0  0  0  # atno 17395 bound_to 11000

$$$$
