AV-unprocessed.smi:2789|AV-procd|sdf|10763|dock3
  -GOLD-   2272015193D 1   1.00000     0.00000
 Structure written by MMmdl.
 35 36  0  0  0  0  0  0  0  0  1 V2000
  151.8748  145.7640  160.4644 C   0  0  0  0  0  0  0  0  0  0  0  0
  152.2593  144.6684  159.6481 O   0  0  0  0  0  0  0  0  0  0  0  0
  153.0766  143.7188  160.3223 C   0  0  1  0  0  0  0  0  0  0  0  0
  152.4289  143.2760  161.6328 C   0  0  0  0  0  0  0  0  0  0  0  0
  153.1615  141.9816  161.9777 C   0  0  0  0  0  0  0  0  0  0  0  0
  153.4414  141.3071  160.6291 C   0  0  0  0  0  0  0  0  0  0  0  0
  153.3162  142.4050  159.5498 C   0  0  1  0  0  0  0  0  0  0  0  0
  152.2096  142.1226  158.6366 N   0  0  0  0  0  0  0  0  0  0  0  0
  152.2304  141.2063  157.6592 C   0  0  0  0  0  0  0  0  0  0  0  0
  153.1951  140.4741  157.4379 O   0  0  0  0  0  0  0  0  0  0  0  0
  151.0754  141.2065  156.9716 N   0  0  0  0  0  0  0  0  0  0  0  0
  150.7140  140.4280  155.9173 C   0  0  0  0  0  0  0  0  0  0  0  0
  151.1883  139.1970  155.5542 C   0  0  0  0  0  0  0  0  0  0  0  0
  150.4254  138.9051  154.3875 C   0  0  0  0  0  0  0  0  0  0  0  0
  149.5670  139.8673  154.0729 N   0  0  0  0  0  0  0  0  0  0  0  0
  149.7425  140.8147  155.0200 N   0  0  0  0  0  0  0  0  0  0  0  0
  148.9523  142.0300  154.9864 C   0  0  0  0  0  0  0  0  0  0  0  0
  151.2586  146.4512  159.8850 H   0  0  0  0  0  0  0  0  0  0  0  0
  152.7402  146.3181  160.8290 H   0  0  0  0  0  0  0  0  0  0  0  0
  151.2887  145.4297  161.3212 H   0  0  0  0  0  0  0  0  0  0  0  0
  154.0398  144.1705  160.5691 H   0  0  0  0  0  0  0  0  0  0  0  0
  152.5100  144.0280  162.4180 H   0  0  0  0  0  0  0  0  0  0  0  0
  151.3696  143.0680  161.4744 H   0  0  0  0  0  0  0  0  0  0  0  0
  154.1053  142.2186  162.4704 H   0  0  0  0  0  0  0  0  0  0  0  0
  152.5886  141.3455  162.6529 H   0  0  0  0  0  0  0  0  0  0  0  0
  154.4339  140.8554  160.6218 H   0  0  0  0  0  0  0  0  0  0  0  0
  152.7263  140.5002  160.4607 H   0  0  0  0  0  0  0  0  0  0  0  0
  154.2398  142.4894  158.9742 H   0  0  0  0  0  0  0  0  0  0  0  0
  151.3783  142.6847  158.7483 H   0  0  0  0  0  0  0  0  0  0  0  0
  150.3830  141.8787  157.2674 H   0  0  0  0  0  0  0  0  0  0  0  0
  151.9470  138.5917  156.0270 H   0  0  0  0  0  0  0  0  0  0  0  0
  150.4679  138.0253  153.7627 H   0  0  0  0  0  0  0  0  0  0  0  0
  148.3248  142.0829  155.8762 H   0  0  0  0  0  0  0  0  0  0  0  0
  148.3146  142.0501  154.1015 H   0  0  0  0  0  0  0  0  0  0  0  0
  149.6135  142.8966  154.9639 H   0  0  0  0  0  0  0  0  0  0  0  0
  1  2  1  0  0  0  0
  1 18  1  0  0  0  0
  1 19  1  0  0  0  0
  1 20  1  0  0  0  0
  2  3  1  0  0  0  0
  3  7  1  0  0  0  0
  3  4  1  0  0  0  0
  3 21  1  0  0  0  0
  4  5  1  0  0  0  0
  4 22  1  0  0  0  0
  4 23  1  0  0  0  0
  5  6  1  0  0  0  0
  5 24  1  0  0  0  0
  5 25  1  0  0  0  0
  6  7  1  0  0  0  0
  6 26  1  0  0  0  0
  6 27  1  0  0  0  0
  7  8  1  0  0  0  0
  7 28  1  0  0  0  0
  8  9  1  0  0  0  0
  8 29  1  0  0  0  0
  9 10  2  0  0  0  0
  9 11  1  0  0  0  0
 11 12  1  0  0  0  0
 11 30  1  0  0  0  0
 12 16  1  0  0  0  0
 12 13  2  0  0  0  0
 13 14  1  0  0  0  0
 13 31  1  0  0  0  0
 14 15  2  0  0  0  0
 14 32  1  0  0  0  0
 15 16  1  0  0  0  0
 16 17  1  0  0  0  0
 17 33  1  0  0  0  0
 17 34  1  0  0  0  0
 17 35  1  0  0  0  0
M  END
> <s_m_source_file>
AV-unprocessed.smi

> <i_m_source_file_index>
2789

> <i_lp_mmshare_version>
43012

> <i_f3d_flags>
0

> <s_epik_input>
W0NIM11PW0NAQEhdMVtDSDJdW0NIMl1bQ0gyXVtDQEhdMVtOSF1DKD1PKVtOSF1jMltjSF1bY0hdbm4yW0NIM10=

> <s_epik_cmdline>
J2VwaWtfcHl0aG9uJywgJy1waCcsICc3LjAnLCAnLXRuJywgJzgnLCAnLW1hJywgJzIwMCcsICctbWV0YWxfYmluZGluZycsICctaW1hZScsICc8aW5maWxlLm1hZT4nLCAnLW9tYWUnLCAnPG91dGZpbGUubWFlPic=

> <r_lp_tautomer_probability>
1

> <r_epik_Ionization_Penalty>
4.40608e-05

> <r_epik_Ionization_Penalty_Charging>
0

> <r_epik_Ionization_Penalty_Neutral>
4.40608e-05

> <r_epik_State_Penalty>
-0

> <r_epik_Charging_Adjusted_Penalty>
0

> <i_epik_Tot_Q>
0

> <i_epik_Tot_abs_Q>
0

> <r_epik_Metal_State_Penalty>
-0

> <b_epik_Metal_Only>
0

> <s_lp_Force_Field>
OPLS_2005

> <r_lp_Energy>
22.0425

> <b_lp_Chiralities_Consistent>
1

> <s_lp_Variant>
AV-unprocessed.smi:2789-2

> <Gold.Version>
5.8.1

> <Gold.Id.Protein>
6NUR|6NUR_protein|mol2

> <Gold.PLP.Fitness>
41.7405

> <Gold.PLP.PLP>
-36.2006

> <Gold.PLP.part.hbond>
-0.9616

> <Gold.PLP.part.metal>
0.0000

> <Gold.PLP.part.buried>
-4.8185

> <Gold.PLP.part.nonpolar>
-31.6448

> <Gold.PLP.part.repulsive>
1.6735

> <Gold.PLP.ligand.clash>
0.0000

> <Gold.PLP.ligand.torsion>
0.3389

> <Gold.PLP.Chemscore.Hbond>
1.0000

> <Gold.PLP.Chemscore.CHOScore>
1.0695

> <Gold.PLP.Chemscore.Metal>
0.0000

> <Gold.Chemscore.Hbonds>
donor molecule, donor type, donor heavy atom, donor atom, acceptor molecule, acceptor atom, score
      P1  H  7997  8009       L1    10  0.59

> <Gold.PLP.Chemscore.Internal.Correction>
0.0091

> <Gold.Rescore>
     Score         DG    S(hbond)    S(metal)    S(lipo)     H(rot)  DE(clash)    DE(int)     intcor
     14.55     -15.82       0.99        0.00      87.86       1.27       0.01       1.26       ----

> <Gold.Chemscore.Fitness>
14.5528

> <Gold.Chemscore.DG>
-15.8229

> <Gold.Chemscore.ZeroCoef>
-5.4800

> <Gold.Chemscore.Hbond>
0.9933

> <Gold.Chemscore.Metal>
0.0000

> <Gold.Chemscore.Lipo>
87.8601

> <Gold.Chemscore.Internal_Hbond>
0.0000

> <Gold.Chemscore.DEClash>
0.0126

> <Gold.Chemscore.DEInternal>
1.2575

> <Gold.Chemscore.Rot>
1.2712

> <Gold.Chemscore.Internal.Correction>
   9.000000E+99

> <Gold.Chemscore.Hbonds>
donor molecule, donor type, donor heavy atom, donor atom, acceptor molecule, acceptor atom, score
      P1  H  7997  8009       L1    10  0.59

> <Gold.Chemscore.Hbond.Weighted>
-3.3177

> <Gold.Chemscore.Metal.Weighted>
-0.0000

> <Gold.Chemscore.Lipo.Weighted>
-10.2796

> <Gold.Chemscore.Internal_Hbond.Weighted>
0.0000

> <Gold.Chemscore.DEClash.Weighted>
0.0126

> <Gold.Chemscore.DEInternal.Weighted>
1.2575

> <Gold.Chemscore.Rot.Weighted>
3.2544

> <Gold.Chemscore.Internal.Correction.Weighted>
   9.000000E+99

> <Gold.Protein.RotatedTorsions>
[ 6907 6896 6895 6894 ] final  -84.51 input  -60.11 | X-H torsion
[ 7974 7965 7964 7962 ] final  116.86 input  175.53 | X-H torsion
[ 8008 7997 7996 7995 ] final  158.59 input   59.86 | X-H torsion
[ 10167 10162 10161 10158 ] final   41.97 input  -65.29 | X-H torsion
[ 10718 10713 10712 10709 ] final  -23.45 input   66.30 | X-H torsion
[ 10763 10752 10751 10750 ] final   76.61 input  -60.55 | X-H torsion
[ 11005 11000 10999 10996 ] final  -65.79 input  -57.11 | X-H torsion

> <Gold.Protein.ActiveResidues>
 VAL166  LYS551  ARG553  GLY616  TRP617  ASP618  TYR619  PRO620  LYS621  CYS622 
 ASP623  PHE694  ASN695  SER759  ASP760  ASP761  ALA762  ILE779  LEU786  VAL792 
 PHE793  MET794  SER795  GLU796  ALA797  LYS798  CYS799  TRP800  GLU811  SER814 

> <Gold.Protein.RotatedAtoms>
  150.6876  134.3348  159.4842 H   0  0  0  0  0  0  0  0  0  0  0  0  # atno 6907 bound_to 6896
  152.1208  134.9204  160.0572 H   0  0  0  0  0  0  0  0  0  0  0  0  # atno 6908 bound_to 6896
  152.0411  133.3943  159.4374 H   0  0  0  0  0  0  0  0  0  0  0  0  # atno 6909 bound_to 6896
  145.1745  139.3083  143.4450 H   0  0  0  0  0  0  0  0  0  0  0  0  # atno 7974 bound_to 7965
  156.2293  140.1854  156.7283 H   0  0  0  0  0  0  0  0  0  0  0  0  # atno 8008 bound_to 7997
  154.5995  140.0638  156.9377 H   0  0  0  0  0  0  0  0  0  0  0  0  # atno 8009 bound_to 7997
  155.2198  140.3306  155.4319 H   0  0  0  0  0  0  0  0  0  0  0  0  # atno 8010 bound_to 7997
  140.3590  144.2253  150.6139 H   0  0  0  0  0  0  0  0  0  0  0  0  # atno 10167 bound_to 10162
  156.4908  130.4566  149.6756 H   0  0  0  0  0  0  0  0  0  0  0  0  # atno 10718 bound_to 10713
  153.0738  135.4945  154.8360 H   0  0  0  0  0  0  0  0  0  0  0  0  # atno 10763 bound_to 10752
  154.7059  135.3010  154.9274 H   0  0  0  0  0  0  0  0  0  0  0  0  # atno 10764 bound_to 10752
  153.9983  135.6769  153.4810 H   0  0  0  0  0  0  0  0  0  0  0  0  # atno 10765 bound_to 10752
  141.1464  133.6688  156.6040 H   0  0  0  0  0  0  0  0  0  0  0  0  # atno 11005 bound_to 11000
  146.3463  140.1902  142.8589 LP  0  0  0  0  0  0  0  0  0  0  0  0  # atno 17320 bound_to 7965
  145.0199  140.8785  143.5173 LP  0  0  0  0  0  0  0  0  0  0  0  0  # atno 17321 bound_to 7965
  140.5145  143.2281  151.8484 LP  0  0  0  0  0  0  0  0  0  0  0  0  # atno 17342 bound_to 10162
  139.4816  144.4910  151.9185 LP  0  0  0  0  0  0  0  0  0  0  0  0  # atno 17343 bound_to 10162
  156.3428  130.7391  151.2339 LP  0  0  0  0  0  0  0  0  0  0  0  0  # atno 17370 bound_to 10713
  157.7474  131.0399  150.4571 LP  0  0  0  0  0  0  0  0  0  0  0  0  # atno 17371 bound_to 10713
  140.3666  134.7642  157.4570 LP  0  0  0  0  0  0  0  0  0  0  0  0  # atno 17394 bound_to 11000
  140.0743  134.5819  155.8608 LP  0  0  0  0  0  0  0  0  0  0  0  0  # atno 17395 bound_to 11000

$$$$
