AV-unprocessed.smi:198|AV-procd|sdf|1552|dock8
  -GOLD-   2262019423D 1   1.00000     0.00000
 Structure written by MMmdl.
 59 63  0  0  0  0  0  0  0  0  2 V2000
  154.8882  140.2673  162.0372 C   0  0  0  0  0  0  0  0  0  0  0  0
  154.2972  140.5965  160.7224 N   0  3  1  0  0  0  0  0  0  0  0  0
  153.5895  139.4430  160.1155 C   0  0  0  0  0  0  0  0  0  0  0  0
  153.0842  139.7823  158.7037 C   0  0  0  0  0  0  0  0  0  0  0  0
  152.1630  141.0254  158.7246 C   0  0  1  0  0  0  0  0  0  0  0  0
  152.9523  142.1935  159.3648 C   0  0  1  0  0  0  0  0  0  0  0  0
  152.1103  143.4795  159.3815 C   0  0  0  0  0  0  0  0  0  0  0  0
  151.6521  143.8196  157.9581 C   0  0  0  0  0  0  0  0  0  0  0  0
  150.8884  142.6400  157.3399 C   0  0  0  0  0  0  0  0  0  0  0  0
  151.6740  141.4065  157.3898 N   0  0  0  0  0  0  0  0  0  0  0  0
  151.0679  140.4435  156.6549 C   0  0  0  0  0  0  0  0  0  0  0  0
  151.0129  140.5464  155.3003 N   0  0  0  0  0  0  0  0  0  0  0  0
  150.4215  139.5871  154.5820 C   0  0  0  0  0  0  0  0  0  0  0  0
  149.8407  138.4636  155.0084 N   0  0  0  0  0  0  0  0  0  0  0  0
  149.9075  138.3501  156.3668 C   0  0  0  0  0  0  0  0  0  0  0  0
  150.5030  139.2879  157.2560 C   0  0  0  0  0  0  0  0  0  0  0  0
  150.3870  138.8463  158.5669 N   0  0  0  0  0  0  0  0  0  0  0  0
  149.7546  137.7095  158.4608 C   0  0  0  0  0  0  0  0  0  0  0  0
  149.4263  137.3331  157.1765 N   0  0  0  0  0  0  0  0  0  0  0  0
  148.7252  136.1394  156.7933 C   0  0  0  0  0  0  0  0  0  0  0  0
  149.4273  134.7816  156.7206 C   0  0  0  0  0  0  0  0  0  0  0  0
  148.4955  134.3734  155.5554 C   0  0  0  0  0  0  0  0  0  0  0  0
  149.1980  133.6125  154.4174 C   0  0  0  0  0  0  0  0  0  0  0  0
  148.4697  133.6756  153.2083 O   0  0  0  0  0  0  0  0  0  0  0  0
  147.2492  133.5821  156.0065 C   0  0  0  0  0  0  0  0  0  0  0  0
  147.5700  132.2772  156.4428 O   0  0  0  0  0  0  0  0  0  0  0  0
  148.3081  135.8942  155.3432 C   0  0  0  0  0  0  0  0  0  0  0  0
  153.4439  141.8088  160.7727 C   0  0  0  0  0  0  0  0  0  0  0  0
  154.1138  140.0153  162.7628 H   0  0  0  0  0  0  0  0  0  0  0  0
  155.4593  141.1114  162.4253 H   0  0  0  0  0  0  0  0  0  0  0  0
  155.5676  139.4187  161.9521 H   0  0  0  0  0  0  0  0  0  0  0  0
  154.2643  138.5877  160.0640 H   0  0  0  0  0  0  0  0  0  0  0  0
  152.7533  139.1498  160.7524 H   0  0  0  0  0  0  0  0  0  0  0  0
  153.9336  139.9610  158.0428 H   0  0  0  0  0  0  0  0  0  0  0  0
  152.5656  138.9107  158.3051 H   0  0  0  0  0  0  0  0  0  0  0  0
  151.2954  140.8104  159.3512 H   0  0  0  0  0  0  0  0  0  0  0  0
  153.8322  142.3887  158.7488 H   0  0  0  0  0  0  0  0  0  0  0  0
  151.2419  143.3513  160.0290 H   0  0  0  0  0  0  0  0  0  0  0  0
  152.6894  144.3074  159.7918 H   0  0  0  0  0  0  0  0  0  0  0  0
  151.0215  144.7089  157.9686 H   0  0  0  0  0  0  0  0  0  0  0  0
  152.5179  144.0595  157.3395 H   0  0  0  0  0  0  0  0  0  0  0  0
  149.9492  142.4882  157.8744 H   0  0  0  0  0  0  0  0  0  0  0  0
  150.6290  142.8809  156.3077 H   0  0  0  0  0  0  0  0  0  0  0  0
  150.4115  139.7412  153.5129 H   0  0  0  0  0  0  0  0  0  0  0  0
  149.5070  137.1115  159.3260 H   0  0  0  0  0  0  0  0  0  0  0  0
  147.8520  136.0711  157.4446 H   0  0  0  0  0  0  0  0  0  0  0  0
  150.4746  134.8589  156.4255 H   0  0  0  0  0  0  0  0  0  0  0  0
  149.3266  134.1766  157.6223 H   0  0  0  0  0  0  0  0  0  0  0  0
  150.1842  134.0349  154.2221 H   0  0  0  0  0  0  0  0  0  0  0  0
  149.3596  132.5667  154.6802 H   0  0  0  0  0  0  0  0  0  0  0  0
  148.4856  134.5661  152.8926 H   0  0  0  0  0  0  0  0  0  0  0  0
  146.7248  134.0998  156.8103 H   0  0  0  0  0  0  0  0  0  0  0  0
  146.5302  133.4848  155.1928 H   0  0  0  0  0  0  0  0  0  0  0  0
  148.1908  132.3406  157.1522 H   0  0  0  0  0  0  0  0  0  0  0  0
  147.2901  136.2066  155.1098 H   0  0  0  0  0  0  0  0  0  0  0  0
  149.0136  136.3088  154.6215 H   0  0  0  0  0  0  0  0  0  0  0  0
  152.5965  141.6354  161.4383 H   0  0  0  0  0  0  0  0  0  0  0  0
  154.0182  142.6333  161.1973 H   0  0  0  0  0  0  0  0  0  0  0  0
  155.0688  140.8147  160.1080 H   0  0  0  0  0  0  0  0  0  0  0  0
  1  2  1  0  0  0  0
  1 29  1  0  0  0  0
  1 30  1  0  0  0  0
  1 31  1  0  0  0  0
  2 28  1  0  0  0  0
  2  3  1  0  0  0  0
  2 59  1  0  0  0  0
  3  4  1  0  0  0  0
  3 32  1  0  0  0  0
  3 33  1  0  0  0  0
  4  5  1  0  0  0  0
  4 34  1  0  0  0  0
  4 35  1  0  0  0  0
  5 10  1  0  0  0  0
  5  6  1  0  0  0  0
  5 36  1  0  0  0  0
  6  7  1  0  0  0  0
  6 28  1  0  0  0  0
  6 37  1  0  0  0  0
  7  8  1  0  0  0  0
  7 38  1  0  0  0  0
  7 39  1  0  0  0  0
  8  9  1  0  0  0  0
  8 40  1  0  0  0  0
  8 41  1  0  0  0  0
  9 10  1  0  0  0  0
  9 42  1  0  0  0  0
  9 43  1  0  0  0  0
 10 11  1  0  0  0  0
 11 16  1  0  0  0  0
 11 12  2  0  0  0  0
 12 13  1  0  0  0  0
 13 14  2  0  0  0  0
 13 44  1  0  0  0  0
 14 15  1  0  0  0  0
 15 19  1  0  0  0  0
 15 16  2  0  0  0  0
 16 17  1  0  0  0  0
 17 18  2  0  0  0  0
 18 19  1  0  0  0  0
 18 45  1  0  0  0  0
 19 20  1  0  0  0  0
 20 27  1  0  0  0  0
 20 21  1  0  0  0  0
 20 46  1  0  0  0  0
 21 22  1  0  0  0  0
 21 47  1  0  0  0  0
 21 48  1  0  0  0  0
 22 23  1  0  0  0  0
 22 25  1  0  0  0  0
 22 27  1  0  0  0  0
 23 24  1  0  0  0  0
 23 49  1  0  0  0  0
 23 50  1  0  0  0  0
 24 51  1  0  0  0  0
 25 26  1  0  0  0  0
 25 52  1  0  0  0  0
 25 53  1  0  0  0  0
 26 54  1  0  0  0  0
 27 55  1  0  0  0  0
 27 56  1  0  0  0  0
 28 57  1  0  0  0  0
 28 58  1  0  0  0  0
M  CHG  1   2   1
M  END
> <s_m_source_file>
AV-unprocessed.smi

> <i_m_source_file_index>
198

> <i_lp_mmshare_version>
43012

> <i_f3d_flags>
0

> <s_epik_input>
W0NIMl0xW0NIMl1OKFtDSDNdKVtDSDJdW0NAQEhdKFtDQEhdMTIpW0NIMl1bQ0gyXVtDSDJdTjJjKG5bY0hdbjMpYyhjMzQpbltjSF1uNFtDSF0oW0NIMl01KVtDSDJdQzUoW0NIMl1bT0hdKVtDSDJdW09IXQ==

> <s_epik_cmdline>
J2VwaWtfcHl0aG9uJywgJy1waCcsICc3LjAnLCAnLXRuJywgJzgnLCAnLW1hJywgJzIwMCcsICctbWV0YWxfYmluZGluZycsICctaW1hZScsICc8aW5maWxlLm1hZT4nLCAnLW9tYWUnLCAnPG91dGZpbGUubWFlPic=

> <r_lp_tautomer_probability>
1

> <r_epik_Ionization_Penalty>
0.00239938

> <r_epik_Ionization_Penalty_Charging>
0.00138697

> <r_epik_Ionization_Penalty_Neutral>
0.00101241

> <r_epik_State_Penalty>
-0

> <r_epik_Charging_Adjusted_Penalty>
0.00138697

> <i_epik_Tot_Q>
1

> <i_epik_Tot_abs_Q>
1

> <r_epik_Metal_State_Penalty>
-0

> <b_epik_Metal_Only>
0

> <s_lp_Force_Field>
OPLS_2005

> <r_lp_Energy>
56.2866

> <b_lp_Chiralities_Consistent>
1

> <s_lp_Variant>
AV-unprocessed.smi:198-1

> <Gold.Version>
5.8.1

> <Gold.Id.Protein>
6NUR|6NUR_protein|mol2

> <Gold.PLP.Fitness>
44.6542

> <Gold.PLP.PLP>
-39.7608

> <Gold.PLP.part.hbond>
-2.0000

> <Gold.PLP.part.metal>
0.0000

> <Gold.PLP.part.buried>
-3.1192

> <Gold.PLP.part.nonpolar>
-33.8565

> <Gold.PLP.part.repulsive>
0.2136

> <Gold.PLP.ligand.clash>
0.0000

> <Gold.PLP.ligand.torsion>
0.8770

> <Gold.PLP.Chemscore.Hbond>
1.0000

> <Gold.PLP.Chemscore.CHOScore>
1.0000

> <Gold.PLP.Chemscore.Metal>
0.0000

> <Gold.Chemscore.Hbonds>
donor molecule, donor type, donor heavy atom, donor atom, acceptor molecule, acceptor atom, score
      L1  H    24    51       P1  7948  1.00
      L1  C    13    44       P1  7957  1.00

> <Gold.PLP.Chemscore.Internal.Correction>
0.6473

> <Gold.Rescore>
     Score         DG    S(hbond)    S(metal)    S(lipo)     H(rot)  DE(clash)    DE(int)     intcor
      6.41     -11.93       0.86        0.00      97.96       3.08       0.01       5.51       ----

> <Gold.Chemscore.Fitness>
6.4105

> <Gold.Chemscore.DG>
-11.9339

> <Gold.Chemscore.ZeroCoef>
-5.4800

> <Gold.Chemscore.Hbond>
0.8601

> <Gold.Chemscore.Metal>
0.0000

> <Gold.Chemscore.Lipo>
97.9589

> <Gold.Chemscore.Internal_Hbond>
0.0000

> <Gold.Chemscore.DEClash>
0.0144

> <Gold.Chemscore.DEInternal>
5.5089

> <Gold.Chemscore.Rot>
3.0781

> <Gold.Chemscore.Internal.Correction>
   9.000000E+99

> <Gold.Chemscore.Hbonds>
donor molecule, donor type, donor heavy atom, donor atom, acceptor molecule, acceptor atom, score
      L1  H    24    51       P1  7948  0.25

> <Gold.Chemscore.Hbond.Weighted>
-2.8727

> <Gold.Chemscore.Metal.Weighted>
-0.0000

> <Gold.Chemscore.Lipo.Weighted>
-11.4612

> <Gold.Chemscore.Internal_Hbond.Weighted>
0.0000

> <Gold.Chemscore.DEClash.Weighted>
0.0144

> <Gold.Chemscore.DEInternal.Weighted>
5.5089

> <Gold.Chemscore.Rot.Weighted>
7.8800

> <Gold.Chemscore.Internal.Correction.Weighted>
   9.000000E+99

> <Gold.Protein.RotatedTorsions>
[ 6907 6896 6895 6894 ] final   32.10 input  -60.11 | X-H torsion
[ 7974 7965 7964 7962 ] final    7.45 input  175.53 | X-H torsion
[ 8008 7997 7996 7995 ] final  -83.57 input   59.86 | X-H torsion
[ 10167 10162 10161 10158 ] final  134.84 input  -65.29 | X-H torsion
[ 10718 10713 10712 10709 ] final  -18.58 input   66.30 | X-H torsion
[ 10763 10752 10751 10750 ] final -132.12 input  -60.55 | X-H torsion
[ 11005 11000 10999 10996 ] final   71.75 input  -57.11 | X-H torsion

> <Gold.Protein.ActiveResidues>
 VAL166  LYS551  ARG553  GLY616  TRP617  ASP618  TYR619  PRO620  LYS621  CYS622 
 ASP623  PHE694  ASN695  SER759  ASP760  ASP761  ALA762  ILE779  LEU786  VAL792 
 PHE793  MET794  SER795  GLU796  ALA797  LYS798  CYS799  TRP800  GLU811  SER814 

> <Gold.Protein.RotatedAtoms>
  152.0697  134.9542  160.0574 H   0  0  0  0  0  0  0  0  0  0  0  0  # atno 6907 bound_to 6896
  152.0873  133.4177  159.4536 H   0  0  0  0  0  0  0  0  0  0  0  0  # atno 6908 bound_to 6896
  150.6836  134.2833  159.4679 H   0  0  0  0  0  0  0  0  0  0  0  0  # atno 6909 bound_to 6896
  146.2426  140.0081  142.8409 H   0  0  0  0  0  0  0  0  0  0  0  0  # atno 7974 bound_to 7965
  154.6205  140.0617  156.9609 H   0  0  0  0  0  0  0  0  0  0  0  0  # atno 8008 bound_to 7997
  155.1825  140.3300  155.4354 H   0  0  0  0  0  0  0  0  0  0  0  0  # atno 8009 bound_to 7997
  156.2429  140.1895  156.6921 H   0  0  0  0  0  0  0  0  0  0  0  0  # atno 8010 bound_to 7997
  139.5240  144.6547  151.5198 H   0  0  0  0  0  0  0  0  0  0  0  0  # atno 10167 bound_to 10162
  156.5576  130.4717  149.6422 H   0  0  0  0  0  0  0  0  0  0  0  0  # atno 10718 bound_to 10713
  154.8746  135.3808  154.4357 H   0  0  0  0  0  0  0  0  0  0  0  0  # atno 10763 bound_to 10752
  153.5047  135.7030  153.5818 H   0  0  0  0  0  0  0  0  0  0  0  0  # atno 10764 bound_to 10752
  153.4134  135.3919  155.2031 H   0  0  0  0  0  0  0  0  0  0  0  0  # atno 10765 bound_to 10752
  139.9527  134.7199  156.0825 H   0  0  0  0  0  0  0  0  0  0  0  0  # atno 11005 bound_to 11000
  145.1353  140.9541  143.4520 LP  0  0  0  0  0  0  0  0  0  0  0  0  # atno 17320 bound_to 7965
  145.0348  139.3310  143.6006 LP  0  0  0  0  0  0  0  0  0  0  0  0  # atno 17321 bound_to 7965
  140.6367  143.8970  150.6654 LP  0  0  0  0  0  0  0  0  0  0  0  0  # atno 17342 bound_to 10162
  140.2291  143.3749  152.1580 LP  0  0  0  0  0  0  0  0  0  0  0  0  # atno 17343 bound_to 10162
  156.2828  130.7080  151.1909 LP  0  0  0  0  0  0  0  0  0  0  0  0  # atno 17370 bound_to 10713
  157.7375  131.0551  150.5351 LP  0  0  0  0  0  0  0  0  0  0  0  0  # atno 17371 bound_to 10713
  141.1193  133.6618  156.3173 LP  0  0  0  0  0  0  0  0  0  0  0  0  # atno 17394 bound_to 11000
  140.5682  134.5867  157.5451 LP  0  0  0  0  0  0  0  0  0  0  0  0  # atno 17395 bound_to 11000

$$$$
