AV-unprocessed.smi:160|AV-procd|sdf|1353|dock2
  -GOLD-   2262019 53D 1   1.00000     0.00000
 Structure written by MMmdl.
 29 30  0  0  0  0  0  0  0  0  1 V2000
  151.7500  137.7802  155.6526 N   0  0  0  0  0  0  0  0  0  0  0  0
  152.1626  138.8655  156.3159 C   0  0  0  0  0  0  0  0  0  0  0  0
  153.2441  138.9092  156.9003 O   0  0  0  0  0  0  0  0  0  0  0  0
  151.2268  140.0426  156.3100 C   0  0  0  0  0  0  0  0  0  0  0  0
  151.5549  141.2085  156.9416 N   0  0  0  0  0  0  0  0  0  0  0  0
  150.4620  141.9087  156.6677 C   0  0  0  0  0  0  0  0  0  0  0  0
  149.5560  141.2485  155.9393 N   0  0  0  0  0  0  0  0  0  0  0  0
  148.2163  141.7018  155.4385 C   0  0  2  0  0  0  0  0  0  0  0  0
  147.2382  140.8528  155.9604 O   0  0  0  0  0  0  0  0  0  0  0  0
  146.8107  139.9370  154.9578 C   0  0  1  0  0  0  0  0  0  0  0  0
  145.4393  139.3309  155.3035 C   0  0  0  0  0  0  0  0  0  0  0  0
  144.9639  138.5574  154.2224 O   0  0  0  0  0  0  0  0  0  0  0  0
  146.8564  140.7927  153.6840 C   0  0  1  0  0  0  0  0  0  0  0  0
  145.6968  141.5982  153.5698 O   0  0  0  0  0  0  0  0  0  0  0  0
  148.0884  141.6667  153.8954 C   0  0  2  0  0  0  0  0  0  0  0  0
  149.2051  141.1073  153.2254 O   0  0  0  0  0  0  0  0  0  0  0  0
  150.0443  140.0063  155.6935 N   0  0  0  0  0  0  0  0  0  0  0  0
  148.0967  142.7020  155.8566 H   0  0  0  0  0  0  0  0  0  0  0  0
  147.5521  139.1424  154.8578 H   0  0  0  0  0  0  0  0  0  0  0  0
  146.9264  140.1777  152.7856 H   0  0  0  0  0  0  0  0  0  0  0  0
  147.9402  142.6803  153.5203 H   0  0  0  0  0  0  0  0  0  0  0  0
  152.3337  136.9573  155.6203 H   0  0  0  0  0  0  0  0  0  0  0  0
  150.8536  137.7922  155.1874 H   0  0  0  0  0  0  0  0  0  0  0  0
  150.3201  142.9258  157.0020 H   0  0  0  0  0  0  0  0  0  0  0  0
  145.4877  138.7247  156.2089 H   0  0  0  0  0  0  0  0  0  0  0  0
  144.7119  140.1239  155.4795 H   0  0  0  0  0  0  0  0  0  0  0  0
  144.5121  139.1281  153.6197 H   0  0  0  0  0  0  0  0  0  0  0  0
  144.9674  141.0441  153.3373 H   0  0  0  0  0  0  0  0  0  0  0  0
  148.8913  140.5088  152.5649 H   0  0  0  0  0  0  0  0  0  0  0  0
  1  2  1  0  0  0  0
  1 22  1  0  0  0  0
  1 23  1  0  0  0  0
  2  3  2  0  0  0  0
  2  4  1  0  0  0  0
  4 17  2  0  0  0  0
  4  5  1  0  0  0  0
  5  6  2  0  0  0  0
  6  7  1  0  0  0  0
  6 24  1  0  0  0  0
  7  8  1  0  0  0  0
  7 17  1  0  0  0  0
  8 18  1  0  0  0  0
  8 15  1  0  0  0  0
  8  9  1  0  0  0  0
  9 10  1  0  0  0  0
 10 19  1  0  0  0  0
 10 11  1  0  0  0  0
 10 13  1  0  0  0  0
 11 12  1  0  0  0  0
 11 25  1  0  0  0  0
 11 26  1  0  0  0  0
 12 27  1  0  0  0  0
 13 20  1  0  0  0  0
 13 14  1  0  0  0  0
 13 15  1  0  0  0  0
 14 28  1  0  0  0  0
 15 21  1  0  0  0  0
 15 16  1  0  0  0  0
 16 29  1  0  0  0  0
M  END
> <s_m_source_file>
AV-unprocessed.smi

> <i_m_source_file_index>
160

> <i_lp_mmshare_version>
43012

> <i_f3d_flags>
0

> <s_epik_input>
W05IMl1DKD1PKWMxbltjSF1uKG4xKVtDQEBIXTJPW0NASF0oW0NIMl1bT0hdKVtDQEBIXShbT0hdKVtDQEhdMltPSF0=

> <s_epik_cmdline>
J2VwaWtfcHl0aG9uJywgJy1waCcsICc3LjAnLCAnLXRuJywgJzgnLCAnLW1hJywgJzIwMCcsICctbWV0YWxfYmluZGluZycsICctaW1hZScsICc8aW5maWxlLm1hZT4nLCAnLW9tYWUnLCAnPG91dGZpbGUubWFlPic=

> <r_lp_tautomer_probability>
1

> <r_epik_Ionization_Penalty>
1.06932e-05

> <r_epik_Ionization_Penalty_Charging>
0

> <r_epik_Ionization_Penalty_Neutral>
1.06932e-05

> <r_epik_State_Penalty>
-0

> <r_epik_Charging_Adjusted_Penalty>
0

> <i_epik_Tot_Q>
0

> <i_epik_Tot_abs_Q>
0

> <r_epik_Metal_State_Penalty>
0.0142097

> <b_epik_Metal_Only>
0

> <s_epik_Chemistry_Notes>
This compound contains an acetal/aminal-like group ( X-CH(R)-Y where X, Y are N, S, or O) that may be acid/base labile, releasing an aldehyde.

> <s_lp_Force_Field>
OPLS_2005

> <r_lp_Energy>
42.6693

> <b_lp_Chiralities_Consistent>
1

> <s_lp_Variant>
AV-unprocessed.smi:160-11

> <Gold.Version>
5.8.1

> <Gold.Id.Protein>
6NUR|6NUR_protein|mol2

> <Gold.PLP.Fitness>
35.5360

> <Gold.PLP.PLP>
-20.4453

> <Gold.PLP.part.hbond>
-5.3773

> <Gold.PLP.part.metal>
0.0000

> <Gold.PLP.part.buried>
0.8659

> <Gold.PLP.part.nonpolar>
-15.5793

> <Gold.PLP.part.repulsive>
0.2210

> <Gold.PLP.ligand.clash>
0.0000

> <Gold.PLP.ligand.torsion>
0.0175

> <Gold.PLP.Chemscore.Hbond>
4.6400

> <Gold.PLP.Chemscore.CHOScore>
0.4006

> <Gold.PLP.Chemscore.Metal>
0.0000

> <Gold.Chemscore.Hbonds>
donor molecule, donor type, donor heavy atom, donor atom, acceptor molecule, acceptor atom, score
      L1  H    12    27       P1 10175  1.00
      L1  H    14    28       P1 10175  1.00
      L1  H    16    29       P1  7957  0.59
      P1  H  7989  7998       L1    16  0.01
      P1  H  7997  8010       L1     3  1.00
      P1  H  8011  8017       L1    16  1.00
      L1  C     6    24       P1  8028  0.61

> <Gold.PLP.Chemscore.Internal.Correction>
0.0038

> <Gold.Rescore>
     Score         DG    S(hbond)    S(metal)    S(lipo)     H(rot)  DE(clash)    DE(int)     intcor
      7.02      -8.37       3.36        0.00      17.48       4.06       0.04       1.31       ----

> <Gold.Chemscore.Fitness>
7.0158

> <Gold.Chemscore.DG>
-8.3703

> <Gold.Chemscore.ZeroCoef>
-5.4800

> <Gold.Chemscore.Hbond>
3.3648

> <Gold.Chemscore.Metal>
0.0000

> <Gold.Chemscore.Lipo>
17.4841

> <Gold.Chemscore.Internal_Hbond>
0.0000

> <Gold.Chemscore.DEClash>
0.0434

> <Gold.Chemscore.DEInternal>
1.3111

> <Gold.Chemscore.Rot>
4.0600

> <Gold.Chemscore.Internal.Correction>
   9.000000E+99

> <Gold.Chemscore.Hbonds>
donor molecule, donor type, donor heavy atom, donor atom, acceptor molecule, acceptor atom, score
      L1  H    12    27       P1 10175  0.99
      L1  H    14    28       P1 10175  0.44
      L1  H    16    29       P1  7957  0.58
      P1  H  7989  7998       L1    16  0.01
      P1  H  7997  8010       L1     3  0.99
      P1  H  8011  8017       L1    16  0.16

> <Gold.Chemscore.Hbond.Weighted>
-11.2383

> <Gold.Chemscore.Metal.Weighted>
-0.0000

> <Gold.Chemscore.Lipo.Weighted>
-2.0456

> <Gold.Chemscore.Internal_Hbond.Weighted>
0.0000

> <Gold.Chemscore.DEClash.Weighted>
0.0434

> <Gold.Chemscore.DEInternal.Weighted>
1.3111

> <Gold.Chemscore.Rot.Weighted>
10.3936

> <Gold.Chemscore.Internal.Correction.Weighted>
   9.000000E+99

> <Gold.Protein.RotatedTorsions>
[ 6907 6896 6895 6894 ] final   81.54 input  -60.11 | X-H torsion
[ 7974 7965 7964 7962 ] final  -83.91 input  175.53 | X-H torsion
[ 8008 7997 7996 7995 ] final   57.82 input   59.86 | X-H torsion
[ 10167 10162 10161 10158 ] final  144.68 input  -65.29 | X-H torsion
[ 10718 10713 10712 10709 ] final  122.95 input   66.30 | X-H torsion
[ 10763 10752 10751 10750 ] final   64.51 input  -60.55 | X-H torsion
[ 11005 11000 10999 10996 ] final   -5.21 input  -57.11 | X-H torsion

> <Gold.Protein.ActiveResidues>
 VAL166  LYS551  ARG553  GLY616  TRP617  ASP618  TYR619  PRO620  LYS621  CYS622 
 ASP623  PHE694  ASN695  SER759  ASP760  ASP761  ALA762  ILE779  LEU786  VAL792 
 PHE793  MET794  SER795  GLU796  ALA797  LYS798  CYS799  TRP800  GLU811  SER814 

> <Gold.Protein.RotatedAtoms>
  152.5271  134.3189  159.9140 H   0  0  0  0  0  0  0  0  0  0  0  0  # atno 6907 bound_to 6896
  151.3138  133.4063  159.2656 H   0  0  0  0  0  0  0  0  0  0  0  0  # atno 6908 bound_to 6896
  151.0016  134.9343  159.8014 H   0  0  0  0  0  0  0  0  0  0  0  0  # atno 6909 bound_to 6896
  145.5136  140.9538  143.1693 H   0  0  0  0  0  0  0  0  0  0  0  0  # atno 7974 bound_to 7965
  155.5399  140.3484  155.4444 H   0  0  0  0  0  0  0  0  0  0  0  0  # atno 8008 bound_to 7997
  156.0658  140.1351  156.9913 H   0  0  0  0  0  0  0  0  0  0  0  0  # atno 8009 bound_to 7997
  154.4503  140.0976  156.6570 H   0  0  0  0  0  0  0  0  0  0  0  0  # atno 8010 bound_to 7997
  139.4942  144.5955  151.6592 H   0  0  0  0  0  0  0  0  0  0  0  0  # atno 10167 bound_to 10162
  157.5703  131.1083  150.8379 H   0  0  0  0  0  0  0  0  0  0  0  0  # atno 10718 bound_to 10713
  153.0059  135.5390  154.6522 H   0  0  0  0  0  0  0  0  0  0  0  0  # atno 10763 bound_to 10752
  154.5751  135.2845  155.0791 H   0  0  0  0  0  0  0  0  0  0  0  0  # atno 10764 bound_to 10752
  154.1941  135.6495  153.5121 H   0  0  0  0  0  0  0  0  0  0  0  0  # atno 10765 bound_to 10752
  140.6887  133.9090  155.8603 H   0  0  0  0  0  0  0  0  0  0  0  0  # atno 11005 bound_to 11000
  144.7714  139.6727  143.7193 LP  0  0  0  0  0  0  0  0  0  0  0  0  # atno 17320 bound_to 7965
  146.2151  139.5534  142.9656 LP  0  0  0  0  0  0  0  0  0  0  0  0  # atno 17321 bound_to 7965
  140.5592  144.0298  150.6161 LP  0  0  0  0  0  0  0  0  0  0  0  0  # atno 17342 bound_to 10162
  140.3378  143.3038  152.0620 LP  0  0  0  0  0  0  0  0  0  0  0  0  # atno 17343 bound_to 10162
  156.8853  130.5193  149.5289 LP  0  0  0  0  0  0  0  0  0  0  0  0  # atno 17370 bound_to 10713
  156.0749  130.5773  150.9454 LP  0  0  0  0  0  0  0  0  0  0  0  0  # atno 17371 bound_to 10713
  141.0259  134.0824  157.4069 LP  0  0  0  0  0  0  0  0  0  0  0  0  # atno 17394 bound_to 11000
  139.8930  135.0128  156.6874 LP  0  0  0  0  0  0  0  0  0  0  0  0  # atno 17395 bound_to 11000

$$$$
