AV-unprocessed.smi:1584|AV-procd|sdf|6368|dock7
  -GOLD-   22720 6593D 1   1.00000     0.00000
 Structure written by MMmdl.
 39 40  0  0  0  0  0  0  0  0  1 V2000
  154.5228  141.2855  159.8217 C   0  0  0  0  0  0  0  0  0  0  0  0
  153.0150  141.2734  160.1120 C   0  0  1  0  0  0  0  0  0  0  0  0
  152.5774  142.5171  160.9096 C   0  0  0  0  0  0  0  0  0  0  0  0
  151.8868  143.4885  160.0794 N   0  0  0  0  0  0  0  0  0  0  0  0
  152.2314  144.7999  159.8270 C   0  0  0  0  0  0  0  0  0  0  0  0
  151.2917  145.3106  158.9783 C   0  0  0  0  0  0  0  0  0  0  0  0
  150.4000  144.2222  158.7676 C   0  0  0  0  0  0  0  0  0  0  0  0
  150.7585  143.1330  159.4282 N   0  0  0  0  0  0  0  0  0  0  0  0
  152.2732  141.2037  158.8545 N   0  0  0  0  0  0  0  0  0  0  0  0
  152.4531  140.2907  157.8879 C   0  0  0  0  0  0  0  0  0  0  0  0
  153.3204  139.4177  157.9324 O   0  0  0  0  0  0  0  0  0  0  0  0
  151.4991  140.3761  156.6894 C   0  0  1  0  0  0  0  0  0  0  0  0
  151.6468  139.1491  155.7817 C   0  0  0  0  0  0  0  0  0  0  0  0
  150.7344  139.2911  154.5564 C   0  0  0  0  0  0  0  0  0  0  0  0
  149.3606  139.6958  154.8881 N   0  0  0  0  0  0  0  0  0  0  0  0
  148.3784  139.4754  153.8254 C   0  0  0  0  0  0  0  0  0  0  0  0
  148.9953  140.3009  156.0444 C   0  0  0  0  0  0  0  0  0  0  0  0
  147.8431  140.6804  156.2555 O   0  0  0  0  0  0  0  0  0  0  0  0
  150.0360  140.4991  157.1593 C   0  0  0  0  0  0  0  0  0  0  0  0
  155.0990  141.3197  160.7465 H   0  0  0  0  0  0  0  0  0  0  0  0
  154.8050  142.1509  159.2211 H   0  0  0  0  0  0  0  0  0  0  0  0
  154.8257  140.3892  159.2794 H   0  0  0  0  0  0  0  0  0  0  0  0
  152.7988  140.3926  160.7198 H   0  0  0  0  0  0  0  0  0  0  0  0
  151.9106  142.2286  161.7235 H   0  0  0  0  0  0  0  0  0  0  0  0
  153.4393  143.0014  161.3708 H   0  0  0  0  0  0  0  0  0  0  0  0
  153.1094  145.2532  160.2629 H   0  0  0  0  0  0  0  0  0  0  0  0
  151.2483  146.3091  158.5694 H   0  0  0  0  0  0  0  0  0  0  0  0
  149.5095  144.1909  158.1575 H   0  0  0  0  0  0  0  0  0  0  0  0
  151.5403  141.8859  158.7248 H   0  0  0  0  0  0  0  0  0  0  0  0
  151.7520  141.2653  156.1084 H   0  0  0  0  0  0  0  0  0  0  0  0
  152.6817  139.0264  155.4590 H   0  0  0  0  0  0  0  0  0  0  0  0
  151.3808  138.2420  156.3275 H   0  0  0  0  0  0  0  0  0  0  0  0
  151.1492  140.0387  153.8791 H   0  0  0  0  0  0  0  0  0  0  0  0
  150.7253  138.3466  154.0103 H   0  0  0  0  0  0  0  0  0  0  0  0
  147.8885  140.4108  153.5501 H   0  0  0  0  0  0  0  0  0  0  0  0
  147.6123  138.7717  154.1537 H   0  0  0  0  0  0  0  0  0  0  0  0
  148.8336  139.0715  152.9204 H   0  0  0  0  0  0  0  0  0  0  0  0
  149.8196  139.7590  157.9314 H   0  0  0  0  0  0  0  0  0  0  0  0
  149.8776  141.4763  157.6179 H   0  0  0  0  0  0  0  0  0  0  0  0
  1  2  1  0  0  0  0
  1 20  1  0  0  0  0
  1 21  1  0  0  0  0
  1 22  1  0  0  0  0
  2  3  1  0  0  0  0
  2  9  1  0  0  0  0
  2 23  1  0  0  0  0
  3  4  1  0  0  0  0
  3 24  1  0  0  0  0
  3 25  1  0  0  0  0
  4  8  1  0  0  0  0
  4  5  1  0  0  0  0
  5  6  2  0  0  0  0
  5 26  1  0  0  0  0
  6  7  1  0  0  0  0
  6 27  1  0  0  0  0
  7  8  2  0  0  0  0
  7 28  1  0  0  0  0
  9 10  1  0  0  0  0
  9 29  1  0  0  0  0
 10 11  2  0  0  0  0
 10 12  1  0  0  0  0
 12 19  1  0  0  0  0
 12 13  1  0  0  0  0
 12 30  1  0  0  0  0
 13 14  1  0  0  0  0
 13 31  1  0  0  0  0
 13 32  1  0  0  0  0
 14 15  1  0  0  0  0
 14 33  1  0  0  0  0
 14 34  1  0  0  0  0
 15 16  1  0  0  0  0
 15 17  1  0  0  0  0
 16 35  1  0  0  0  0
 16 36  1  0  0  0  0
 16 37  1  0  0  0  0
 17 18  2  0  0  0  0
 17 19  1  0  0  0  0
 19 38  1  0  0  0  0
 19 39  1  0  0  0  0
M  END
> <s_m_source_file>
AV-unprocessed.smi

> <i_m_source_file_index>
1584

> <i_lp_mmshare_version>
43012

> <i_f3d_flags>
0

> <s_epik_input>
bjFbY0hdW2NIXVtjSF1uMVtDSDJdW0NAQEhdKFtDSDNdKVtOSF1DKD1PKVtDQEBIXTJbQ0gyXVtDSDJdTihbQ0gzXSlDKD1PKVtDSDJdMg==

> <s_epik_cmdline>
J2VwaWtfcHl0aG9uJywgJy1waCcsICc3LjAnLCAnLXRuJywgJzgnLCAnLW1hJywgJzIwMCcsICctbWV0YWxfYmluZGluZycsICctaW1hZScsICc8aW5maWxlLm1hZT4nLCAnLW9tYWUnLCAnPG91dGZpbGUubWFlPic=

> <r_lp_tautomer_probability>
1

> <r_epik_Ionization_Penalty>
0.000299422

> <r_epik_Ionization_Penalty_Charging>
0

> <r_epik_Ionization_Penalty_Neutral>
0.000299422

> <r_epik_State_Penalty>
-0

> <r_epik_Charging_Adjusted_Penalty>
0

> <i_epik_Tot_Q>
0

> <i_epik_Tot_abs_Q>
0

> <r_epik_Metal_State_Penalty>
-0

> <b_epik_Metal_Only>
0

> <s_lp_Force_Field>
OPLS_2005

> <r_lp_Energy>
13.2703

> <b_lp_Chiralities_Consistent>
1

> <s_lp_Variant>
AV-unprocessed.smi:1584-4

> <Gold.Version>
5.8.1

> <Gold.Id.Protein>
6NUR|6NUR_protein|mol2

> <Gold.PLP.Fitness>
43.0691

> <Gold.PLP.PLP>
-38.2563

> <Gold.PLP.part.hbond>
-1.3658

> <Gold.PLP.part.metal>
0.0000

> <Gold.PLP.part.buried>
-1.5189

> <Gold.PLP.part.nonpolar>
-33.9939

> <Gold.PLP.part.repulsive>
0.1992

> <Gold.PLP.ligand.clash>
0.0000

> <Gold.PLP.ligand.torsion>
0.8523

> <Gold.PLP.Chemscore.Hbond>
1.0000

> <Gold.PLP.Chemscore.CHOScore>
1.1645

> <Gold.PLP.Chemscore.Metal>
0.0000

> <Gold.Chemscore.Hbonds>
donor molecule, donor type, donor heavy atom, donor atom, acceptor molecule, acceptor atom, score
      P1  H  7997  8010       L1    11  1.00
      L1  C     7    28       P1  8028  0.47
      L1  C     7    28       P1  8029  0.69

> <Gold.PLP.Chemscore.Internal.Correction>
0.0240

> <Gold.Rescore>
     Score         DG    S(hbond)    S(metal)    S(lipo)     H(rot)  DE(clash)    DE(int)     intcor
     12.47     -14.97       0.87        0.00      92.78       1.67       0.37       2.13       ----

> <Gold.Chemscore.Fitness>
12.4697

> <Gold.Chemscore.DG>
-14.9666

> <Gold.Chemscore.ZeroCoef>
-5.4800

> <Gold.Chemscore.Hbond>
0.8729

> <Gold.Chemscore.Metal>
0.0000

> <Gold.Chemscore.Lipo>
92.7798

> <Gold.Chemscore.Internal_Hbond>
0.0000

> <Gold.Chemscore.DEClash>
0.3710

> <Gold.Chemscore.DEInternal>
2.1258

> <Gold.Chemscore.Rot>
1.6734

> <Gold.Chemscore.Internal.Correction>
   9.000000E+99

> <Gold.Chemscore.Hbonds>
donor molecule, donor type, donor heavy atom, donor atom, acceptor molecule, acceptor atom, score
      P1  H  7997  8010       L1    11  0.45

> <Gold.Chemscore.Hbond.Weighted>
-2.9153

> <Gold.Chemscore.Metal.Weighted>
-0.0000

> <Gold.Chemscore.Lipo.Weighted>
-10.8552

> <Gold.Chemscore.Internal_Hbond.Weighted>
0.0000

> <Gold.Chemscore.DEClash.Weighted>
0.3710

> <Gold.Chemscore.DEInternal.Weighted>
2.1258

> <Gold.Chemscore.Rot.Weighted>
4.2840

> <Gold.Chemscore.Internal.Correction.Weighted>
   9.000000E+99

> <Gold.Protein.RotatedTorsions>
[ 6907 6896 6895 6894 ] final  -94.84 input  -60.11 | X-H torsion
[ 7974 7965 7964 7962 ] final   39.09 input  175.53 | X-H torsion
[ 8008 7997 7996 7995 ] final   38.01 input   59.86 | X-H torsion
[ 10167 10162 10161 10158 ] final -127.75 input  -65.29 | X-H torsion
[ 10718 10713 10712 10709 ] final  154.14 input   66.30 | X-H torsion
[ 10763 10752 10751 10750 ] final  157.32 input  -60.55 | X-H torsion
[ 11005 11000 10999 10996 ] final -163.41 input  -57.11 | X-H torsion

> <Gold.Protein.ActiveResidues>
 VAL166  LYS551  ARG553  GLY616  TRP617  ASP618  TYR619  PRO620  LYS621  CYS622 
 ASP623  PHE694  ASN695  SER759  ASP760  ASP761  ALA762  ILE779  LEU786  VAL792 
 PHE793  MET794  SER795  GLU796  ALA797  LYS798  CYS799  TRP800  GLU811  SER814 

> <Gold.Protein.RotatedAtoms>
  150.6950  134.1749  159.4226 H   0  0  0  0  0  0  0  0  0  0  0  0  # atno 6907 bound_to 6896
  151.9726  135.0067  160.0563 H   0  0  0  0  0  0  0  0  0  0  0  0  # atno 6908 bound_to 6896
  152.1828  133.4684  159.5004 H   0  0  0  0  0  0  0  0  0  0  0  0  # atno 6909 bound_to 6896
  146.1011  139.5694  142.9413 H   0  0  0  0  0  0  0  0  0  0  0  0  # atno 7974 bound_to 7965
  155.2131  140.3325  155.4326 H   0  0  0  0  0  0  0  0  0  0  0  0  # atno 8008 bound_to 7997
  156.2362  140.1873  156.7160 H   0  0  0  0  0  0  0  0  0  0  0  0  # atno 8009 bound_to 7997
  154.6064  140.0615  156.9423 H   0  0  0  0  0  0  0  0  0  0  0  0  # atno 8010 bound_to 7997
  139.9575  143.5987  152.2456 H   0  0  0  0  0  0  0  0  0  0  0  0  # atno 10167 bound_to 10162
  157.2355  131.0748  151.1826 H   0  0  0  0  0  0  0  0  0  0  0  0  # atno 10718 bound_to 10713
  154.1984  135.2791  155.2999 H   0  0  0  0  0  0  0  0  0  0  0  0  # atno 10763 bound_to 10752
  154.5874  135.5570  153.7248 H   0  0  0  0  0  0  0  0  0  0  0  0  # atno 10764 bound_to 10752
  153.0094  135.6360  154.2122 H   0  0  0  0  0  0  0  0  0  0  0  0  # atno 10765 bound_to 10752
  140.5984  134.4972  157.5202 H   0  0  0  0  0  0  0  0  0  0  0  0  # atno 11005 bound_to 11000
  145.5852  141.0377  143.2100 LP  0  0  0  0  0  0  0  0  0  0  0  0  # atno 17320 bound_to 7965
  144.7434  139.7387  143.7302 LP  0  0  0  0  0  0  0  0  0  0  0  0  # atno 17321 bound_to 7965
  139.6580  144.7662  151.2018 LP  0  0  0  0  0  0  0  0  0  0  0  0  # atno 17342 bound_to 10162
  140.7563  143.6055  150.8657 LP  0  0  0  0  0  0  0  0  0  0  0  0  # atno 17343 bound_to 10162
  157.3433  130.7045  149.6395 LP  0  0  0  0  0  0  0  0  0  0  0  0  # atno 17370 bound_to 10713
  155.9673  130.4273  150.4739 LP  0  0  0  0  0  0  0  0  0  0  0  0  # atno 17371 bound_to 10713
  139.9243  134.8087  156.1116 LP  0  0  0  0  0  0  0  0  0  0  0  0  # atno 17394 bound_to 11000
  141.0888  133.6723  156.2495 LP  0  0  0  0  0  0  0  0  0  0  0  0  # atno 17395 bound_to 11000

$$$$
