AV-unprocessed.smi:437|AV-procd|sdf|2562|dock6
  -GOLD-   2262022533D 1   1.00000     0.00000
 Structure written by MMmdl.
 48 49  0  0  0  0  0  0  0  0  1 V2000
  153.9573  136.8905  164.3938 C   0  0  0  0  0  0  0  0  0  0  0  0
  154.1354  135.9620  163.2227 C   0  0  0  0  0  0  0  0  0  0  0  0
  154.3308  136.5132  162.0702 N   0  0  0  0  0  0  0  0  0  0  0  0
  154.4996  135.7537  160.9285 N   0  0  0  0  0  0  0  0  0  0  0  0
  154.7010  136.5471  159.7069 C   0  0  0  0  0  0  0  0  0  0  0  0
  155.2545  137.9546  159.9792 C   0  0  0  0  0  0  0  0  0  0  0  0
  156.4625  138.1817  159.8695 O   0  0  0  0  0  0  0  0  0  0  0  0
  154.3256  138.8696  160.3225 N   0  0  0  0  0  0  0  0  0  0  0  0
  154.5210  140.1701  160.6128 C   0  0  0  0  0  0  0  0  0  0  0  0
  155.5926  140.6806  160.9464 O   0  0  0  0  0  0  0  0  0  0  0  0
  153.3803  140.8647  160.4899 N   0  0  0  0  0  0  0  0  0  0  0  0
  153.2738  142.3223  160.4596 C   0  0  1  0  0  0  0  0  0  0  0  0
  152.7965  142.7868  159.0665 C   0  0  0  0  0  0  0  0  0  0  0  0
  152.6125  144.3100  159.0088 C   0  0  0  0  0  0  0  0  0  0  0  0
  151.6477  144.7890  160.1015 C   0  0  0  0  0  0  0  0  0  0  0  0
  152.1255  144.3431  161.4915 C   0  0  0  0  0  0  0  0  0  0  0  0
  152.3148  142.8146  161.5727 C   0  0  2  0  0  0  0  0  0  0  0  0
  152.7828  142.4035  162.9803 C   0  0  0  0  0  0  0  0  0  0  0  0
  154.4845  134.3901  160.8936 C   0  0  0  0  0  0  0  0  0  0  0  0
  154.6402  133.7525  159.8509 O   0  0  0  0  0  0  0  0  0  0  0  0
  154.2648  133.7721  162.2031 C   0  0  0  0  0  0  0  0  0  0  0  0
  154.2360  132.3451  162.2109 C   0  0  0  0  0  0  0  0  0  0  0  0
  154.1924  131.1884  162.2221 N   0  0  0  0  0  0  0  0  0  0  0  0
  154.0988  134.5071  163.3313 C   0  0  0  0  0  0  0  0  0  0  0  0
  153.8686  133.9137  164.7145 C   0  0  0  0  0  0  0  0  0  0  0  0
  154.7816  136.7840  165.0993 H   0  0  0  0  0  0  0  0  0  0  0  0
  153.0285  136.6750  164.9225 H   0  0  0  0  0  0  0  0  0  0  0  0
  153.9220  137.9359  164.0826 H   0  0  0  0  0  0  0  0  0  0  0  0
  155.3948  136.0335  159.0388 H   0  0  0  0  0  0  0  0  0  0  0  0
  153.7660  136.6271  159.1490 H   0  0  0  0  0  0  0  0  0  0  0  0
  153.3722  138.5410  160.3642 H   0  0  0  0  0  0  0  0  0  0  0  0
  152.5154  140.3490  160.4203 H   0  0  0  0  0  0  0  0  0  0  0  0
  154.2602  142.7505  160.6498 H   0  0  0  0  0  0  0  0  0  0  0  0
  153.5102  142.4809  158.3006 H   0  0  0  0  0  0  0  0  0  0  0  0
  151.8522  142.2999  158.8181 H   0  0  0  0  0  0  0  0  0  0  0  0
  153.5789  144.8005  159.1316 H   0  0  0  0  0  0  0  0  0  0  0  0
  152.2384  144.6030  158.0273 H   0  0  0  0  0  0  0  0  0  0  0  0
  151.5595  145.8752  160.0694 H   0  0  0  0  0  0  0  0  0  0  0  0
  150.6502  144.3912  159.9109 H   0  0  0  0  0  0  0  0  0  0  0  0
  153.0653  144.8435  161.7288 H   0  0  0  0  0  0  0  0  0  0  0  0
  151.4056  144.6699  162.2427 H   0  0  0  0  0  0  0  0  0  0  0  0
  151.3395  142.3542  161.4057 H   0  0  0  0  0  0  0  0  0  0  0  0
  153.7722  142.8055  163.2006 H   0  0  0  0  0  0  0  0  0  0  0  0
  152.8322  141.3199  163.0894 H   0  0  0  0  0  0  0  0  0  0  0  0
  152.0975  142.7729  163.7437 H   0  0  0  0  0  0  0  0  0  0  0  0
  153.9673  132.8285  164.7185 H   0  0  0  0  0  0  0  0  0  0  0  0
  152.8669  134.1567  165.0702 H   0  0  0  0  0  0  0  0  0  0  0  0
  154.5922  134.3070  165.4291 H   0  0  0  0  0  0  0  0  0  0  0  0
  1  2  1  0  0  0  0
  1 26  1  0  0  0  0
  1 27  1  0  0  0  0
  1 28  1  0  0  0  0
  2 24  1  0  0  0  0
  2  3  2  0  0  0  0
  3  4  1  0  0  0  0
  4  5  1  0  0  0  0
  4 19  1  0  0  0  0
  5  6  1  0  0  0  0
  5 29  1  0  0  0  0
  5 30  1  0  0  0  0
  6  7  2  0  0  0  0
  6  8  1  0  0  0  0
  8  9  1  0  0  0  0
  8 31  1  0  0  0  0
  9 10  2  0  0  0  0
  9 11  1  0  0  0  0
 11 12  1  0  0  0  0
 11 32  1  0  0  0  0
 12 17  1  0  0  0  0
 12 13  1  0  0  0  0
 12 33  1  0  0  0  0
 13 14  1  0  0  0  0
 13 34  1  0  0  0  0
 13 35  1  0  0  0  0
 14 15  1  0  0  0  0
 14 36  1  0  0  0  0
 14 37  1  0  0  0  0
 15 16  1  0  0  0  0
 15 38  1  0  0  0  0
 15 39  1  0  0  0  0
 16 17  1  0  0  0  0
 16 40  1  0  0  0  0
 16 41  1  0  0  0  0
 17 18  1  0  0  0  0
 17 42  1  0  0  0  0
 18 43  1  0  0  0  0
 18 44  1  0  0  0  0
 18 45  1  0  0  0  0
 19 20  2  0  0  0  0
 19 21  1  0  0  0  0
 21 22  1  0  0  0  0
 21 24  2  0  0  0  0
 22 23  3  0  0  0  0
 24 25  1  0  0  0  0
 25 46  1  0  0  0  0
 25 47  1  0  0  0  0
 25 48  1  0  0  0  0
M  END
> <s_m_source_file>
AV-unprocessed.smi

> <i_m_source_file_index>
437

> <i_lp_mmshare_version>
43012

> <i_f3d_flags>
0

> <s_epik_input>
TiNDYyhjMVtDSDNdKWMoPU8pbihuYzFbQ0gzXSlbQ0gyXUMoPU8pW05IXUMoPU8pW05IXVtDQEBIXTJbQ0gyXVtDSDJdW0NIMl1bQ0gyXVtDQEhdMltDSDNd

> <s_epik_cmdline>
J2VwaWtfcHl0aG9uJywgJy1waCcsICc3LjAnLCAnLXRuJywgJzgnLCAnLW1hJywgJzIwMCcsICctbWV0YWxfYmluZGluZycsICctaW1hZScsICc8aW5maWxlLm1hZT4nLCAnLW9tYWUnLCAnPG91dGZpbGUubWFlPic=

> <r_lp_tautomer_probability>
1

> <r_epik_Ionization_Penalty>
3.27035e-05

> <r_epik_Ionization_Penalty_Charging>
1.6965e-11

> <r_epik_Ionization_Penalty_Neutral>
3.27035e-05

> <r_epik_State_Penalty>
-0

> <r_epik_Charging_Adjusted_Penalty>
1.6965e-11

> <i_epik_Tot_Q>
0

> <i_epik_Tot_abs_Q>
0

> <r_epik_Metal_State_Penalty>
-0

> <b_epik_Metal_Only>
0

> <s_lp_Force_Field>
OPLS_2005

> <r_lp_Energy>
26.7465

> <b_lp_Chiralities_Consistent>
1

> <s_lp_Variant>
AV-unprocessed.smi:437-4

> <Gold.Version>
5.8.1

> <Gold.Id.Protein>
6NUR|6NUR_protein|mol2

> <Gold.PLP.Fitness>
48.2019

> <Gold.PLP.PLP>
-49.6151

> <Gold.PLP.part.hbond>
-1.6630

> <Gold.PLP.part.metal>
0.0000

> <Gold.PLP.part.buried>
-5.5105

> <Gold.PLP.part.nonpolar>
-42.9700

> <Gold.PLP.part.repulsive>
0.1589

> <Gold.PLP.ligand.clash>
0.0000

> <Gold.PLP.ligand.torsion>
0.8086

> <Gold.PLP.Chemscore.Hbond>
0.0601

> <Gold.PLP.Chemscore.CHOScore>
0.0000

> <Gold.PLP.Chemscore.Metal>
0.0000

> <Gold.PLP.Chemscore.Internal.Correction>
0.0237

> <Gold.Rescore>
     Score         DG    S(hbond)    S(metal)    S(lipo)     H(rot)  DE(clash)    DE(int)     intcor
     14.03     -16.16       0.00        0.00     125.54       1.57       0.08       2.05       ----

> <Gold.Chemscore.Fitness>
14.0317

> <Gold.Chemscore.DG>
-16.1599

> <Gold.Chemscore.ZeroCoef>
-5.4800

> <Gold.Chemscore.Hbond>
0.0000

> <Gold.Chemscore.Metal>
0.0000

> <Gold.Chemscore.Lipo>
125.5361

> <Gold.Chemscore.Internal_Hbond>
0.0000

> <Gold.Chemscore.DEClash>
0.0782

> <Gold.Chemscore.DEInternal>
2.0500

> <Gold.Chemscore.Rot>
1.5656

> <Gold.Chemscore.Internal.Correction>
   9.000000E+99

> <Gold.Chemscore.Hbond.Weighted>
-0.0000

> <Gold.Chemscore.Metal.Weighted>
-0.0000

> <Gold.Chemscore.Lipo.Weighted>
-14.6877

> <Gold.Chemscore.Internal_Hbond.Weighted>
0.0000

> <Gold.Chemscore.DEClash.Weighted>
0.0782

> <Gold.Chemscore.DEInternal.Weighted>
2.0500

> <Gold.Chemscore.Rot.Weighted>
4.0079

> <Gold.Chemscore.Internal.Correction.Weighted>
   9.000000E+99

> <Gold.Protein.RotatedTorsions>
[ 6907 6896 6895 6894 ] final  -38.64 input  -60.11 | X-H torsion
[ 7974 7965 7964 7962 ] final -101.15 input  175.53 | X-H torsion
[ 8008 7997 7996 7995 ] final  139.83 input   59.86 | X-H torsion
[ 10167 10162 10161 10158 ] final -116.44 input  -65.29 | X-H torsion
[ 10718 10713 10712 10709 ] final   48.95 input   66.30 | X-H torsion
[ 10763 10752 10751 10750 ] final  171.94 input  -60.55 | X-H torsion
[ 11005 11000 10999 10996 ] final   91.13 input  -57.11 | X-H torsion

> <Gold.Protein.ActiveResidues>
 VAL166  LYS551  ARG553  GLY616  TRP617  ASP618  TYR619  PRO620  LYS621  CYS622 
 ASP623  PHE694  ASN695  SER759  ASP760  ASP761  ALA762  ILE779  LEU786  VAL792 
 PHE793  MET794  SER795  GLU796  ALA797  LYS798  CYS799  TRP800  GLU811  SER814 

> <Gold.Protein.RotatedAtoms>
  151.0000  134.9314  159.7948 H   0  0  0  0  0  0  0  0  0  0  0  0  # atno 6907 bound_to 6896
  152.5275  134.3167  159.9143 H   0  0  0  0  0  0  0  0  0  0  0  0  # atno 6908 bound_to 6896
  151.3172  133.4013  159.2686 H   0  0  0  0  0  0  0  0  0  0  0  0  # atno 6909 bound_to 6896
  145.2853  140.9338  143.2909 H   0  0  0  0  0  0  0  0  0  0  0  0  # atno 7974 bound_to 7965
  156.2986  140.2357  156.4302 H   0  0  0  0  0  0  0  0  0  0  0  0  # atno 8008 bound_to 7997
  154.8277  140.0434  157.1475 H   0  0  0  0  0  0  0  0  0  0  0  0  # atno 8009 bound_to 7997
  154.9243  140.3008  155.5204 H   0  0  0  0  0  0  0  0  0  0  0  0  # atno 8010 bound_to 7997
  140.0791  143.4804  152.1936 H   0  0  0  0  0  0  0  0  0  0  0  0  # atno 10167 bound_to 10162
  157.4738  130.8272  149.8017 H   0  0  0  0  0  0  0  0  0  0  0  0  # atno 10718 bound_to 10713
  154.4190  135.2757  155.1987 H   0  0  0  0  0  0  0  0  0  0  0  0  # atno 10763 bound_to 10752
  154.3941  135.6059  153.5863 H   0  0  0  0  0  0  0  0  0  0  0  0  # atno 10764 bound_to 10752
  152.9832  135.5910  154.4483 H   0  0  0  0  0  0  0  0  0  0  0  0  # atno 10765 bound_to 10752
  139.8844  134.8656  156.3384 H   0  0  0  0  0  0  0  0  0  0  0  0  # atno 11005 bound_to 11000
  144.9219  139.4402  143.6537 LP  0  0  0  0  0  0  0  0  0  0  0  0  # atno 17320 bound_to 7965
  146.3203  139.8083  142.8951 LP  0  0  0  0  0  0  0  0  0  0  0  0  # atno 17321 bound_to 7965
  139.5790  144.7501  151.3689 LP  0  0  0  0  0  0  0  0  0  0  0  0  # atno 17342 bound_to 10162
  140.7087  143.7448  150.7527 LP  0  0  0  0  0  0  0  0  0  0  0  0  # atno 17343 bound_to 10162
  156.0086  130.3843  150.2341 LP  0  0  0  0  0  0  0  0  0  0  0  0  # atno 17370 bound_to 10713
  157.0525  131.0067  151.3249 LP  0  0  0  0  0  0  0  0  0  0  0  0  # atno 17371 bound_to 10713
  140.9675  133.7348  156.0488 LP  0  0  0  0  0  0  0  0  0  0  0  0  # atno 17394 bound_to 11000
  140.7912  134.3615  157.5464 LP  0  0  0  0  0  0  0  0  0  0  0  0  # atno 17395 bound_to 11000

$$$$
