AV-unprocessed.smi:2812|AV-procd|sdf|10834|dock5
  -GOLD-   2272015273D 1   1.00000     0.00000
 Structure written by MMmdl.
 55 56  0  0  0  0  0  0  0  0  2 V2000
  144.5790  134.6081  150.5744 C   0  0  0  0  0  0  0  0  0  0  0  0
  145.0945  133.2379  150.9885 C   0  0  0  0  0  0  0  0  0  0  0  0
  144.4083  132.0597  150.4992 C   0  0  0  0  0  0  0  0  0  0  0  0
  144.8242  130.8446  150.8827 C   0  0  0  0  0  0  0  0  0  0  0  0
  145.9134  130.6786  151.7508 N   0  0  0  0  0  0  0  0  0  0  0  0
  146.2914  129.3109  152.1155 C   0  0  0  0  0  0  0  0  0  0  0  0
  146.6130  131.7369  152.2512 C   0  0  0  0  0  0  0  0  0  0  0  0
  147.5644  131.5703  153.0183 O   0  0  0  0  0  0  0  0  0  0  0  0
  146.1618  133.0739  151.8186 C   0  0  0  0  0  0  0  0  0  0  0  0
  146.8832  134.1584  152.3310 N   0  0  0  0  0  0  0  0  0  0  0  0
  146.4884  134.9130  153.3689 C   0  0  0  0  0  0  0  0  0  0  0  0
  145.4603  134.7231  154.0202 O   0  0  0  0  0  0  0  0  0  0  0  0
  147.3540  135.9048  153.6180 N   0  0  0  0  0  0  0  0  0  0  0  0
  147.2181  136.8715  154.7032 C   0  0  0  0  0  0  0  0  0  0  0  0
  148.5659  137.5568  155.0756 C   0  0  1  0  0  0  0  0  0  0  0  0
  149.6012  136.4587  155.4392 C   0  0  0  0  0  0  0  0  0  0  0  0
  151.0031  137.0131  155.6964 C   0  0  0  0  0  0  0  0  0  0  0  0
  151.4554  137.8120  154.4771 C   0  0  0  0  0  0  0  0  0  0  0  0
  150.4567  138.9393  154.2009 C   0  0  0  0  0  0  0  0  0  0  0  0
  149.0737  138.4342  153.9699 N   0  3  2  0  0  0  0  0  0  0  0  0
  148.1716  139.5652  153.6076 C   0  0  0  0  0  0  0  0  0  0  0  0
  148.0853  140.6080  154.7395 C   0  0  0  0  0  0  0  0  0  0  0  0
  147.1827  140.1050  155.8756 C   0  0  0  0  0  0  0  0  0  0  0  0
  147.5943  141.9724  154.2276 C   0  0  0  0  0  0  0  0  0  0  0  0
  143.5615  134.5409  150.1888 H   0  0  0  0  0  0  0  0  0  0  0  0
  145.2064  135.0316  149.7902 H   0  0  0  0  0  0  0  0  0  0  0  0
  144.5655  135.2966  151.4198 H   0  0  0  0  0  0  0  0  0  0  0  0
  143.5673  132.1544  149.8280 H   0  0  0  0  0  0  0  0  0  0  0  0
  144.3521  129.9323  150.5491 H   0  0  0  0  0  0  0  0  0  0  0  0
  147.3170  129.1020  151.8074 H   0  0  0  0  0  0  0  0  0  0  0  0
  145.6530  128.5590  151.6507 H   0  0  0  0  0  0  0  0  0  0  0  0
  146.2250  129.1697  153.1953 H   0  0  0  0  0  0  0  0  0  0  0  0
  147.6817  134.4615  151.7927 H   0  0  0  0  0  0  0  0  0  0  0  0
  148.1678  135.9896  153.0262 H   0  0  0  0  0  0  0  0  0  0  0  0
  146.4975  137.6259  154.3865 H   0  0  0  0  0  0  0  0  0  0  0  0
  146.7539  136.3525  155.5393 H   0  0  0  0  0  0  0  0  0  0  0  0
  148.4207  138.1952  155.9486 H   0  0  0  0  0  0  0  0  0  0  0  0
  149.2798  135.9108  156.3254 H   0  0  0  0  0  0  0  0  0  0  0  0
  149.6552  135.7266  154.6320 H   0  0  0  0  0  0  0  0  0  0  0  0
  150.9982  137.6484  156.5833 H   0  0  0  0  0  0  0  0  0  0  0  0
  151.7006  136.1987  155.8948 H   0  0  0  0  0  0  0  0  0  0  0  0
  152.4484  138.2276  154.6507 H   0  0  0  0  0  0  0  0  0  0  0  0
  151.5367  137.1595  153.6065 H   0  0  0  0  0  0  0  0  0  0  0  0
  150.4551  139.6342  155.0425 H   0  0  0  0  0  0  0  0  0  0  0  0
  150.7873  139.5034  153.3279 H   0  0  0  0  0  0  0  0  0  0  0  0
  148.4622  140.0587  152.6832 H   0  0  0  0  0  0  0  0  0  0  0  0
  147.1742  139.1795  153.3896 H   0  0  0  0  0  0  0  0  0  0  0  0
  149.0829  140.7462  155.1584 H   0  0  0  0  0  0  0  0  0  0  0  0
  146.1623  139.9395  155.5280 H   0  0  0  0  0  0  0  0  0  0  0  0
  147.1423  140.8242  156.6942 H   0  0  0  0  0  0  0  0  0  0  0  0
  147.5516  139.1641  156.2855 H   0  0  0  0  0  0  0  0  0  0  0  0
  146.6040  141.8942  153.7778 H   0  0  0  0  0  0  0  0  0  0  0  0
  148.2691  142.3852  153.4776 H   0  0  0  0  0  0  0  0  0  0  0  0
  147.5327  142.6968  155.0402 H   0  0  0  0  0  0  0  0  0  0  0  0
  149.1195  137.8388  153.1555 H   0  0  0  0  0  0  0  0  0  0  0  0
  1  2  1  0  0  0  0
  1 25  1  0  0  0  0
  1 26  1  0  0  0  0
  1 27  1  0  0  0  0
  2  9  2  0  0  0  0
  2  3  1  0  0  0  0
  3  4  2  0  0  0  0
  3 28  1  0  0  0  0
  4  5  1  0  0  0  0
  4 29  1  0  0  0  0
  5  6  1  0  0  0  0
  5  7  1  0  0  0  0
  6 30  1  0  0  0  0
  6 31  1  0  0  0  0
  6 32  1  0  0  0  0
  7  8  2  0  0  0  0
  7  9  1  0  0  0  0
  9 10  1  0  0  0  0
 10 11  1  0  0  0  0
 10 33  1  0  0  0  0
 11 12  2  0  0  0  0
 11 13  1  0  0  0  0
 13 14  1  0  0  0  0
 13 34  1  0  0  0  0
 14 15  1  0  0  0  0
 14 35  1  0  0  0  0
 14 36  1  0  0  0  0
 15 20  1  0  0  0  0
 15 16  1  0  0  0  0
 15 37  1  0  0  0  0
 16 17  1  0  0  0  0
 16 38  1  0  0  0  0
 16 39  1  0  0  0  0
 17 18  1  0  0  0  0
 17 40  1  0  0  0  0
 17 41  1  0  0  0  0
 18 19  1  0  0  0  0
 18 42  1  0  0  0  0
 18 43  1  0  0  0  0
 19 20  1  0  0  0  0
 19 44  1  0  0  0  0
 19 45  1  0  0  0  0
 20 21  1  0  0  0  0
 20 55  1  0  0  0  0
 21 22  1  0  0  0  0
 21 46  1  0  0  0  0
 21 47  1  0  0  0  0
 22 23  1  0  0  0  0
 22 24  1  0  0  0  0
 22 48  1  0  0  0  0
 23 49  1  0  0  0  0
 23 50  1  0  0  0  0
 23 51  1  0  0  0  0
 24 52  1  0  0  0  0
 24 53  1  0  0  0  0
 24 54  1  0  0  0  0
M  CHG  1  20   1
M  END
> <s_m_source_file>
AV-unprocessed.smi

> <i_m_source_file_index>
2812

> <i_lp_mmshare_version>
43012

> <i_f3d_flags>
0

> <s_epik_input>
W0NIM11jMVtjSF1bY0hdbihbQ0gzXSljKD1PKWMxW05IXUMoPU8pW05IXVtDSDJdW0NAQEhdMltDSDJdW0NIMl1bQ0gyXVtDSDJdTjJbQ0gyXVtDSF0oW0NIM10pW0NIM10=

> <s_epik_cmdline>
J2VwaWtfcHl0aG9uJywgJy1waCcsICc3LjAnLCAnLXRuJywgJzgnLCAnLW1hJywgJzIwMCcsICctbWV0YWxfYmluZGluZycsICctaW1hZScsICc8aW5maWxlLm1hZT4nLCAnLW9tYWUnLCAnPG91dGZpbGUubWFlPic=

> <r_lp_tautomer_probability>
1

> <r_epik_Ionization_Penalty>
0.0010902

> <r_epik_Ionization_Penalty_Charging>
0.00107091

> <r_epik_Ionization_Penalty_Neutral>
1.92854e-05

> <r_epik_State_Penalty>
0.000697184

> <r_epik_Charging_Adjusted_Penalty>
0.0017681

> <i_epik_Tot_Q>
1

> <i_epik_Tot_abs_Q>
1

> <r_epik_Metal_State_Penalty>
-0

> <b_epik_Metal_Only>
0

> <s_lp_Force_Field>
OPLS_2005

> <r_lp_Energy>
40.1667

> <b_lp_Chiralities_Consistent>
1

> <s_lp_Variant>
AV-unprocessed.smi:2812-2

> <Gold.Version>
5.8.1

> <Gold.Id.Protein>
6NUR|6NUR_protein|mol2

> <Gold.PLP.Fitness>
46.6771

> <Gold.PLP.PLP>
-38.0176

> <Gold.PLP.part.hbond>
-2.8676

> <Gold.PLP.part.metal>
0.0000

> <Gold.PLP.part.buried>
-3.7905

> <Gold.PLP.part.nonpolar>
-32.4147

> <Gold.PLP.part.repulsive>
0.2092

> <Gold.PLP.ligand.clash>
0.0000

> <Gold.PLP.ligand.torsion>
1.0665

> <Gold.PLP.Chemscore.Hbond>
3.2882

> <Gold.PLP.Chemscore.CHOScore>
0.0000

> <Gold.PLP.Chemscore.Metal>
0.0000

> <Gold.Chemscore.Hbonds>
donor molecule, donor type, donor heavy atom, donor atom, acceptor molecule, acceptor atom, score
      L1  H    10    33       P1  7948  0.54
      L1  H    13    34       P1  7948  0.73
      L1  H    20    55       P1  7948  1.95

> <Gold.PLP.Chemscore.Internal.Correction>
0.9280

> <Gold.Rescore>
     Score         DG    S(hbond)    S(metal)    S(lipo)     H(rot)  DE(clash)    DE(int)     intcor
     17.48     -19.67       1.97        0.00      98.19       1.52       1.03       1.16       ----

> <Gold.Chemscore.Fitness>
17.4849

> <Gold.Chemscore.DG>
-19.6712

> <Gold.Chemscore.ZeroCoef>
-5.4800

> <Gold.Chemscore.Hbond>
1.9712

> <Gold.Chemscore.Metal>
0.0000

> <Gold.Chemscore.Lipo>
98.1860

> <Gold.Chemscore.Internal_Hbond>
0.0000

> <Gold.Chemscore.DEClash>
1.0301

> <Gold.Chemscore.DEInternal>
1.1563

> <Gold.Chemscore.Rot>
1.5157

> <Gold.Chemscore.Internal.Correction>
   9.000000E+99

> <Gold.Chemscore.Hbonds>
donor molecule, donor type, donor heavy atom, donor atom, acceptor molecule, acceptor atom, score
      L1  H    10    33       P1  7948  0.14
      L1  H    13    34       P1  7948  0.72
      L1  H    20    55       P1  7948  0.91

> <Gold.Chemscore.Hbond.Weighted>
-6.5837

> <Gold.Chemscore.Metal.Weighted>
-0.0000

> <Gold.Chemscore.Lipo.Weighted>
-11.4878

> <Gold.Chemscore.Internal_Hbond.Weighted>
0.0000

> <Gold.Chemscore.DEClash.Weighted>
1.0301

> <Gold.Chemscore.DEInternal.Weighted>
1.1563

> <Gold.Chemscore.Rot.Weighted>
3.8803

> <Gold.Chemscore.Internal.Correction.Weighted>
   9.000000E+99

> <Gold.Protein.RotatedTorsions>
[ 6907 6896 6895 6894 ] final -139.88 input  -60.11 | X-H torsion
[ 7974 7965 7964 7962 ] final  162.36 input  175.53 | X-H torsion
[ 8008 7997 7996 7995 ] final  -90.74 input   59.86 | X-H torsion
[ 10167 10162 10161 10158 ] final  -19.39 input  -65.29 | X-H torsion
[ 10718 10713 10712 10709 ] final   96.52 input   66.30 | X-H torsion
[ 10763 10752 10751 10750 ] final   20.54 input  -60.55 | X-H torsion
[ 11005 11000 10999 10996 ] final  157.55 input  -57.11 | X-H torsion

> <Gold.Protein.ActiveResidues>
 VAL166  LYS551  ARG553  GLY616  TRP617  ASP618  TYR619  PRO620  LYS621  CYS622 
 ASP623  PHE694  ASN695  SER759  ASP760  ASP761  ALA762  ILE779  LEU786  VAL792 
 PHE793  MET794  SER795  GLU796  ALA797  LYS798  CYS799  TRP800  GLU811  SER814 

> <Gold.Protein.RotatedAtoms>
  151.0535  133.5604  159.2640 H   0  0  0  0  0  0  0  0  0  0  0  0  # atno 6907 bound_to 6896
  151.2606  135.0652  159.9106 H   0  0  0  0  0  0  0  0  0  0  0  0  # atno 6908 bound_to 6896
  152.5386  134.0281  159.8066 H   0  0  0  0  0  0  0  0  0  0  0  0  # atno 6909 bound_to 6896
  144.7640  139.8028  143.6322 H   0  0  0  0  0  0  0  0  0  0  0  0  # atno 7974 bound_to 7965
  154.7022  140.0527  157.0469 H   0  0  0  0  0  0  0  0  0  0  0  0  # atno 8008 bound_to 7997
  155.0669  140.3195  155.4624 H   0  0  0  0  0  0  0  0  0  0  0  0  # atno 8009 bound_to 7997
  156.2763  140.2089  156.5797 H   0  0  0  0  0  0  0  0  0  0  0  0  # atno 8010 bound_to 7997
  140.7268  143.4823  151.0101 H   0  0  0  0  0  0  0  0  0  0  0  0  # atno 10167 bound_to 10162
  157.6926  131.0580  150.4504 H   0  0  0  0  0  0  0  0  0  0  0  0  # atno 10718 bound_to 10713
  153.1069  135.6687  153.9570 H   0  0  0  0  0  0  0  0  0  0  0  0  # atno 10763 bound_to 10752
  153.9125  135.3023  155.3450 H   0  0  0  0  0  0  0  0  0  0  0  0  # atno 10764 bound_to 10752
  154.7490  135.5044  153.9331 H   0  0  0  0  0  0  0  0  0  0  0  0  # atno 10765 bound_to 10752
  140.1780  134.8496  157.2770 H   0  0  0  0  0  0  0  0  0  0  0  0  # atno 11005 bound_to 11000
  146.1731  139.4890  142.9914 LP  0  0  0  0  0  0  0  0  0  0  0  0  # atno 17320 bound_to 7965
  145.6527  141.0259  143.1751 LP  0  0  0  0  0  0  0  0  0  0  0  0  # atno 17321 bound_to 7965
  139.8523  143.7423  152.3177 LP  0  0  0  0  0  0  0  0  0  0  0  0  # atno 17342 bound_to 10162
  139.7609  144.7507  151.0365 LP  0  0  0  0  0  0  0  0  0  0  0  0  # atno 17343 bound_to 10162
  156.4855  130.4083  149.6436 LP  0  0  0  0  0  0  0  0  0  0  0  0  # atno 17370 bound_to 10713
  156.3466  130.7410  151.2363 LP  0  0  0  0  0  0  0  0  0  0  0  0  # atno 17371 bound_to 10713
  140.2300  134.3921  155.7526 LP  0  0  0  0  0  0  0  0  0  0  0  0  # atno 17394 bound_to 11000
  141.2221  133.7210  156.8625 LP  0  0  0  0  0  0  0  0  0  0  0  0  # atno 17395 bound_to 11000

$$$$
