AV-unprocessed.smi:3298|AV-procd|sdf|12644|dock2
  -GOLD-   2272018573D 1   1.00000     0.00000
 Structure written by MMmdl.
 36 37  0  0  0  0  0  0  0  0  2 V2000
  151.6237  137.8884  154.3613 C   0  0  0  0  0  0  0  0  0  0  0  0
  150.5247  138.9300  154.3718 C   0  0  0  0  0  0  0  0  0  0  0  0
  150.6168  140.1149  155.1329 C   0  0  0  0  0  0  0  0  0  0  0  0
  149.5511  141.0416  155.1120 C   0  0  0  0  0  0  0  0  0  0  0  0
  149.6849  142.2266  155.8832 N   0  0  0  0  0  0  0  0  0  0  0  0
  150.5264  142.4518  156.9066 C   0  0  0  0  0  0  0  0  0  0  0  0
  151.3414  141.6395  157.3446 O   0  0  0  0  0  0  0  0  0  0  0  0
  150.3919  143.6961  157.3861 N   0  0  0  0  0  0  0  0  0  0  0  0
  151.2020  144.2654  158.4574 C   0  0  2  0  0  0  0  0  0  0  0  0
  152.6527  144.2973  158.0620 C   0  0  0  0  0  0  0  0  0  0  0  0
  153.4340  143.6450  158.9194 C   0  0  0  0  0  0  0  0  0  0  0  0
  152.6658  143.0316  160.0623 C   0  0  2  0  0  0  0  0  0  0  0  0
  152.9018  141.5169  160.1938 C   0  0  0  0  0  0  0  0  0  0  0  0
  154.2542  141.2481  160.4986 O   0  0  0  0  0  0  0  0  0  0  0  0
  151.1928  143.3915  159.7398 C   0  0  0  0  0  0  0  0  0  0  0  0
  148.4262  140.7656  154.2950 C   0  0  0  0  0  0  0  0  0  0  0  0
  148.3912  139.5682  153.5526 C   0  0  0  0  0  0  0  0  0  0  0  0
  149.4260  138.7034  153.6186 N   0  3  0  0  0  0  0  0  0  0  0  0
  150.8827  145.2857  158.6771 H   0  0  0  0  0  0  0  0  0  0  0  0
  152.9701  143.5328  160.9822 H   0  0  0  0  0  0  0  0  0  0  0  0
  152.3216  138.0477  155.1840 H   0  0  0  0  0  0  0  0  0  0  0  0
  152.1805  137.9361  153.4253 H   0  0  0  0  0  0  0  0  0  0  0  0
  151.2048  136.8867  154.4627 H   0  0  0  0  0  0  0  0  0  0  0  0
  151.4934  140.3054  155.7354 H   0  0  0  0  0  0  0  0  0  0  0  0
  149.1423  143.0179  155.5692 H   0  0  0  0  0  0  0  0  0  0  0  0
  149.6991  144.3007  156.9694 H   0  0  0  0  0  0  0  0  0  0  0  0
  152.9977  144.8168  157.1799 H   0  0  0  0  0  0  0  0  0  0  0  0
  154.5071  143.5549  158.8347 H   0  0  0  0  0  0  0  0  0  0  0  0
  152.2807  141.1056  160.9897 H   0  0  0  0  0  0  0  0  0  0  0  0
  152.6317  140.9996  159.2724 H   0  0  0  0  0  0  0  0  0  0  0  0
  154.4157  141.4971  161.3959 H   0  0  0  0  0  0  0  0  0  0  0  0
  150.7383  143.9335  160.5699 H   0  0  0  0  0  0  0  0  0  0  0  0
  150.5969  142.4884  159.5975 H   0  0  0  0  0  0  0  0  0  0  0  0
  147.5990  141.4551  154.2172 H   0  0  0  0  0  0  0  0  0  0  0  0
  147.5731  139.2810  152.9086 H   0  0  0  0  0  0  0  0  0  0  0  0
  149.3776  137.8427  153.0727 H   0  0  0  0  0  0  0  0  0  0  0  0
  1  2  1  0  0  0  0
  1 21  1  0  0  0  0
  1 22  1  0  0  0  0
  1 23  1  0  0  0  0
  2 18  1  0  0  0  0
  2  3  2  0  0  0  0
  3  4  1  0  0  0  0
  3 24  1  0  0  0  0
  4  5  1  0  0  0  0
  4 16  2  0  0  0  0
  5  6  1  0  0  0  0
  5 25  1  0  0  0  0
  6  7  2  0  0  0  0
  6  8  1  0  0  0  0
  8  9  1  0  0  0  0
  8 26  1  0  0  0  0
  9 19  1  0  0  0  0
  9 15  1  0  0  0  0
  9 10  1  0  0  0  0
 10 11  2  0  0  0  0
 10 27  1  0  0  0  0
 11 12  1  0  0  0  0
 11 28  1  0  0  0  0
 12 20  1  0  0  0  0
 12 13  1  0  0  0  0
 12 15  1  0  0  0  0
 13 14  1  0  0  0  0
 13 29  1  0  0  0  0
 13 30  1  0  0  0  0
 14 31  1  0  0  0  0
 15 32  1  0  0  0  0
 15 33  1  0  0  0  0
 16 17  1  0  0  0  0
 16 34  1  0  0  0  0
 17 18  2  0  0  0  0
 17 35  1  0  0  0  0
 18 36  1  0  0  0  0
M  CHG  1  18   1
M  END
> <s_m_source_file>
AV-unprocessed.smi

> <i_m_source_file_index>
3298

> <i_lp_mmshare_version>
43012

> <i_f3d_flags>
0

> <s_epik_input>
W0NIM11jMVtjSF1jKFtjSF1bY0hdbjEpW05IXUMoPU8pW05IXVtDQEBIXTJbQ0hdPVtDSF1bQ0BASF0oW0NIMl0yKVtDSDJdW09IXQ==

> <s_epik_cmdline>
J2VwaWtfcHl0aG9uJywgJy1waCcsICc3LjAnLCAnLXRuJywgJzgnLCAnLW1hJywgJzIwMCcsICctbWV0YWxfYmluZGluZycsICctaW1hZScsICc8aW5maWxlLm1hZT4nLCAnLW9tYWUnLCAnPG91dGZpbGUubWFlPic=

> <r_epik_Ionization_Penalty>
0.443901

> <r_epik_Ionization_Penalty_Charging>
0.443881

> <r_epik_Ionization_Penalty_Neutral>
1.94967e-05

> <r_epik_State_Penalty>
0.446172

> <r_epik_Charging_Adjusted_Penalty>
0.890053

> <i_epik_Tot_Q>
1

> <i_epik_Tot_abs_Q>
1

> <r_epik_Metal_State_Penalty>
0.675842

> <b_epik_Metal_Only>
0

> <s_lp_Force_Field>
OPLS_2005

> <r_lp_Energy>
26.7826

> <b_lp_Chiralities_Consistent>
1

> <s_lp_Variant>
AV-unprocessed.smi:3298-5

> <Gold.Version>
5.8.1

> <Gold.Id.Protein>
6NUR|6NUR_protein|mol2

> <Gold.PLP.Fitness>
52.1763

> <Gold.PLP.PLP>
-40.4864

> <Gold.PLP.part.hbond>
-3.8453

> <Gold.PLP.part.metal>
0.0000

> <Gold.PLP.part.buried>
-1.1093

> <Gold.PLP.part.nonpolar>
-36.6483

> <Gold.PLP.part.repulsive>
0.2382

> <Gold.PLP.ligand.clash>
0.0000

> <Gold.PLP.ligand.torsion>
0.0924

> <Gold.PLP.Chemscore.Hbond>
3.9520

> <Gold.PLP.Chemscore.CHOScore>
0.0000

> <Gold.PLP.Chemscore.Metal>
0.0000

> <Gold.Chemscore.Hbonds>
donor molecule, donor type, donor heavy atom, donor atom, acceptor molecule, acceptor atom, score
      L1  H     5    25       P1  8028  0.96
      L1  H     8    26       P1  8028  0.99
      L1  H    18    36       P1  7948  2.00

> <Gold.PLP.Chemscore.Internal.Correction>
0.0186

> <Gold.Rescore>
     Score         DG    S(hbond)    S(metal)    S(lipo)     H(rot)  DE(clash)    DE(int)     intcor
     19.15     -22.90       2.66        0.00     112.43       1.81       0.98       2.76       ----

> <Gold.Chemscore.Fitness>
19.1540

> <Gold.Chemscore.DG>
-22.8962

> <Gold.Chemscore.ZeroCoef>
-5.4800

> <Gold.Chemscore.Hbond>
2.6603

> <Gold.Chemscore.Metal>
0.0000

> <Gold.Chemscore.Lipo>
112.4302

> <Gold.Chemscore.Internal_Hbond>
0.0000

> <Gold.Chemscore.DEClash>
0.9822

> <Gold.Chemscore.DEInternal>
2.7599

> <Gold.Chemscore.Rot>
1.8061

> <Gold.Chemscore.Internal.Correction>
   9.000000E+99

> <Gold.Chemscore.Hbonds>
donor molecule, donor type, donor heavy atom, donor atom, acceptor molecule, acceptor atom, score
      L1  H     5    25       P1  8028  0.92
      L1  H     8    26       P1  8028  0.50
      L1  H    18    36       P1  7948  0.88

> <Gold.Chemscore.Hbond.Weighted>
-8.8855

> <Gold.Chemscore.Metal.Weighted>
-0.0000

> <Gold.Chemscore.Lipo.Weighted>
-13.1543

> <Gold.Chemscore.Internal_Hbond.Weighted>
0.0000

> <Gold.Chemscore.DEClash.Weighted>
0.9822

> <Gold.Chemscore.DEInternal.Weighted>
2.7599

> <Gold.Chemscore.Rot.Weighted>
4.6237

> <Gold.Chemscore.Internal.Correction.Weighted>
   9.000000E+99

> <Gold.Protein.RotatedTorsions>
[ 6907 6896 6895 6894 ] final  -32.61 input  -60.11 | X-H torsion
[ 7974 7965 7964 7962 ] final  -81.03 input  175.53 | X-H torsion
[ 8008 7997 7996 7995 ] final -134.57 input   59.86 | X-H torsion
[ 10167 10162 10161 10158 ] final   -9.39 input  -65.29 | X-H torsion
[ 10718 10713 10712 10709 ] final   83.55 input   66.30 | X-H torsion
[ 10763 10752 10751 10750 ] final -142.96 input  -60.55 | X-H torsion
[ 11005 11000 10999 10996 ] final -107.45 input  -57.11 | X-H torsion

> <Gold.Protein.ActiveResidues>
 VAL166  LYS551  ARG553  GLY616  TRP617  ASP618  TYR619  PRO620  LYS621  CYS622 
 ASP623  PHE694  ASN695  SER759  ASP760  ASP761  ALA762  ILE779  LEU786  VAL792 
 PHE793  MET794  SER795  GLU796  ALA797  LYS798  CYS799  TRP800  GLU811  SER814 

> <Gold.Protein.RotatedAtoms>
  151.0764  134.9831  159.8334 H   0  0  0  0  0  0  0  0  0  0  0  0  # atno 6907 bound_to 6896
  152.5414  134.2235  159.8807 H   0  0  0  0  0  0  0  0  0  0  0  0  # atno 6908 bound_to 6896
  151.2263  133.4431  159.2636 H   0  0  0  0  0  0  0  0  0  0  0  0  # atno 6909 bound_to 6896
  145.5521  140.9495  143.1493 H   0  0  0  0  0  0  0  0  0  0  0  0  # atno 7974 bound_to 7965
  155.3642  140.0484  157.3046 H   0  0  0  0  0  0  0  0  0  0  0  0  # atno 8008 bound_to 7997
  154.5162  140.2209  155.9024 H   0  0  0  0  0  0  0  0  0  0  0  0  # atno 8009 bound_to 7997
  156.1639  140.3110  155.8861 H   0  0  0  0  0  0  0  0  0  0  0  0  # atno 8010 bound_to 7997
  140.7086  143.5863  150.8939 H   0  0  0  0  0  0  0  0  0  0  0  0  # atno 10167 bound_to 10162
  157.6881  131.0096  150.2541 H   0  0  0  0  0  0  0  0  0  0  0  0  # atno 10718 bound_to 10713
  154.8489  135.3481  154.6112 H   0  0  0  0  0  0  0  0  0  0  0  0  # atno 10763 bound_to 10752
  153.6720  135.6984  153.5149 H   0  0  0  0  0  0  0  0  0  0  0  0  # atno 10764 bound_to 10752
  153.2735  135.4285  155.0967 H   0  0  0  0  0  0  0  0  0  0  0  0  # atno 10765 bound_to 10752
  141.0953  133.8982  157.1978 H   0  0  0  0  0  0  0  0  0  0  0  0  # atno 11005 bound_to 11000
  144.7524  139.7159  143.7267 LP  0  0  0  0  0  0  0  0  0  0  0  0  # atno 17320 bound_to 7965
  146.1910  139.5150  142.9805 LP  0  0  0  0  0  0  0  0  0  0  0  0  # atno 17321 bound_to 7965
  139.9589  143.6186  152.3008 LP  0  0  0  0  0  0  0  0  0  0  0  0  # atno 17342 bound_to 10162
  139.6732  144.7660  151.1745 LP  0  0  0  0  0  0  0  0  0  0  0  0  # atno 17343 bound_to 10162
  156.3132  130.3775  149.7642 LP  0  0  0  0  0  0  0  0  0  0  0  0  # atno 17370 bound_to 10713
  156.5236  130.8226  151.3212 LP  0  0  0  0  0  0  0  0  0  0  0  0  # atno 17371 bound_to 10713
  139.9788  135.0105  156.9699 LP  0  0  0  0  0  0  0  0  0  0  0  0  # atno 17394 bound_to 11000
  140.5155  134.0960  155.7280 LP  0  0  0  0  0  0  0  0  0  0  0  0  # atno 17395 bound_to 11000

$$$$
