AV-unprocessed.smi:2000|AV-procd|sdf|8100|dock6
  -GOLD-   2272010323D 1   1.00000     0.00000
 Structure written by MMmdl.
 43 44  0  0  0  0  0  0  0  0  1 V2000
  145.6422  142.1484  156.7203 C   0  0  0  0  0  0  0  0  0  0  0  0
  146.8049  142.7335  157.5371 C   0  0  2  0  0  0  0  0  0  0  0  0
  148.0651  141.8659  157.4192 C   0  0  0  0  0  0  0  0  0  0  0  0
  148.1320  140.7821  157.9989 O   0  0  0  0  0  0  0  0  0  0  0  0
  149.0576  142.3536  156.6577 N   0  0  0  0  0  0  0  0  0  0  0  0
  150.3329  141.6855  156.4163 C   0  0  0  0  0  0  0  0  0  0  0  0
  151.2833  141.7146  157.6138 C   0  0  0  0  0  0  0  0  0  0  0  0
  151.4902  142.9251  158.3132 C   0  0  0  0  0  0  0  0  0  0  0  0
  152.3836  142.9553  159.3982 C   0  0  0  0  0  0  0  0  0  0  0  0
  153.0538  141.7680  159.7404 C   0  0  0  0  0  0  0  0  0  0  0  0
  152.8808  140.6071  159.0770 N   0  0  0  0  0  0  0  0  0  0  0  0
  152.0172  140.5706  158.0324 C   0  0  0  0  0  0  0  0  0  0  0  0
  151.8521  139.3348  157.3821 N   0  0  0  0  0  0  0  0  0  0  0  0
  152.4529  138.2255  158.1114 C   0  0  0  0  0  0  0  0  0  0  0  0
  152.0389  136.8906  157.4690 C   0  0  0  0  0  0  0  0  0  0  0  0
  152.3946  136.8918  156.0887 O   0  0  0  0  0  0  0  0  0  0  0  0
  151.7488  137.9382  155.3684 C   0  0  0  0  0  0  0  0  0  0  0  0
  152.1600  139.2990  155.9562 C   0  0  0  0  0  0  0  0  0  0  0  0
  146.3004  142.9018  159.3143 S   0  0  0  0  0  0  0  0  0  0  0  0
  145.0332  144.2372  159.2666 C   0  0  0  0  0  0  0  0  0  0  0  0
  145.6342  141.6528  159.7139 O   0  0  0  0  0  0  0  0  0  0  0  0
  147.4473  143.3873  160.0975 O   0  0  0  0  0  0  0  0  0  0  0  0
  145.9146  142.0303  155.6710 H   0  0  0  0  0  0  0  0  0  0  0  0
  144.7712  142.8030  156.7616 H   0  0  0  0  0  0  0  0  0  0  0  0
  145.3371  141.1723  157.0995 H   0  0  0  0  0  0  0  0  0  0  0  0
  147.0205  143.7379  157.1710 H   0  0  0  0  0  0  0  0  0  0  0  0
  148.9203  143.2477  156.2093 H   0  0  0  0  0  0  0  0  0  0  0  0
  150.1425  140.6718  156.0640 H   0  0  0  0  0  0  0  0  0  0  0  0
  150.8259  142.1980  155.5903 H   0  0  0  0  0  0  0  0  0  0  0  0
  150.9732  143.8278  158.0230 H   0  0  0  0  0  0  0  0  0  0  0  0
  152.5539  143.8669  159.9513 H   0  0  0  0  0  0  0  0  0  0  0  0
  153.7496  141.7505  160.5660 H   0  0  0  0  0  0  0  0  0  0  0  0
  153.5388  138.3289  158.0931 H   0  0  0  0  0  0  0  0  0  0  0  0
  152.1484  138.2470  159.1574 H   0  0  0  0  0  0  0  0  0  0  0  0
  152.5430  136.0616  157.9658 H   0  0  0  0  0  0  0  0  0  0  0  0
  150.9660  136.7237  157.5788 H   0  0  0  0  0  0  0  0  0  0  0  0
  152.0380  137.8788  154.3191 H   0  0  0  0  0  0  0  0  0  0  0  0
  150.6662  137.8073  155.4092 H   0  0  0  0  0  0  0  0  0  0  0  0
  151.6343  140.1054  155.4436 H   0  0  0  0  0  0  0  0  0  0  0  0
  153.2287  139.4556  155.8020 H   0  0  0  0  0  0  0  0  0  0  0  0
  144.5698  144.3279  160.2488 H   0  0  0  0  0  0  0  0  0  0  0  0
  144.2698  143.9951  158.5277 H   0  0  0  0  0  0  0  0  0  0  0  0
  145.5073  145.1842  159.0116 H   0  0  0  0  0  0  0  0  0  0  0  0
  1  2  1  0  0  0  0
  1 23  1  0  0  0  0
  1 24  1  0  0  0  0
  1 25  1  0  0  0  0
  2  3  1  0  0  0  0
  2 19  1  0  0  0  0
  2 26  1  0  0  0  0
  3  4  2  0  0  0  0
  3  5  1  0  0  0  0
  5  6  1  0  0  0  0
  5 27  1  0  0  0  0
  6  7  1  0  0  0  0
  6 28  1  0  0  0  0
  6 29  1  0  0  0  0
  7 12  1  0  0  0  0
  7  8  2  0  0  0  0
  8  9  1  0  0  0  0
  8 30  1  0  0  0  0
  9 10  2  0  0  0  0
  9 31  1  0  0  0  0
 10 11  1  0  0  0  0
 10 32  1  0  0  0  0
 11 12  2  0  0  0  0
 12 13  1  0  0  0  0
 13 18  1  0  0  0  0
 13 14  1  0  0  0  0
 14 15  1  0  0  0  0
 14 33  1  0  0  0  0
 14 34  1  0  0  0  0
 15 16  1  0  0  0  0
 15 35  1  0  0  0  0
 15 36  1  0  0  0  0
 16 17  1  0  0  0  0
 17 18  1  0  0  0  0
 17 37  1  0  0  0  0
 17 38  1  0  0  0  0
 18 39  1  0  0  0  0
 18 40  1  0  0  0  0
 19 20  1  0  0  0  0
 19 21  2  0  0  0  0
 19 22  2  0  0  0  0
 20 41  1  0  0  0  0
 20 42  1  0  0  0  0
 20 43  1  0  0  0  0
M  END
> <s_m_source_file>
AV-unprocessed.smi

> <i_m_source_file_index>
2000

> <i_lp_mmshare_version>
43012

> <i_f3d_flags>
0

> <s_epik_input>
W0NIM11TKD1PKSg9TylbQ0BIXShbQ0gzXSlDKD1PKVtOSF1bQ0gyXWMxW2NIXVtjSF1bY0hdbmMxTjJbQ0gyXVtDSDJdT1tDSDJdW0NIMl0y

> <s_epik_cmdline>
J2VwaWtfcHl0aG9uJywgJy1waCcsICc3LjAnLCAnLXRuJywgJzgnLCAnLW1hJywgJzIwMCcsICctbWV0YWxfYmluZGluZycsICctaW1hZScsICc8aW5maWxlLm1hZT4nLCAnLW9tYWUnLCAnPG91dGZpbGUubWFlPic=

> <r_lp_tautomer_probability>
1

> <r_epik_Ionization_Penalty>
0.00349769

> <r_epik_Ionization_Penalty_Charging>
0

> <r_epik_Ionization_Penalty_Neutral>
0.00349769

> <r_epik_State_Penalty>
0.00248024

> <r_epik_Charging_Adjusted_Penalty>
0.00248024

> <i_epik_Tot_Q>
0

> <i_epik_Tot_abs_Q>
0

> <r_epik_Metal_State_Penalty>
-0

> <b_epik_Metal_Only>
0

> <s_lp_Force_Field>
OPLS_2005

> <r_lp_Energy>
16.3383

> <b_lp_Chiralities_Consistent>
1

> <s_lp_Variant>
AV-unprocessed.smi:2000-1

> <Gold.Version>
5.8.1

> <Gold.Id.Protein>
6NUR|6NUR_protein|mol2

> <Gold.PLP.Fitness>
43.3098

> <Gold.PLP.PLP>
-33.0676

> <Gold.PLP.part.hbond>
-4.5833

> <Gold.PLP.part.metal>
0.0000

> <Gold.PLP.part.buried>
-6.0277

> <Gold.PLP.part.nonpolar>
-23.3825

> <Gold.PLP.part.repulsive>
0.1050

> <Gold.PLP.ligand.clash>
0.0000

> <Gold.PLP.ligand.torsion>
0.9913

> <Gold.PLP.Chemscore.Hbond>
3.9600

> <Gold.PLP.Chemscore.CHOScore>
0.0000

> <Gold.PLP.Chemscore.Metal>
0.0000

> <Gold.Chemscore.Hbonds>
donor molecule, donor type, donor heavy atom, donor atom, acceptor molecule, acceptor atom, score
      L1  H     5    27       P1  8028  1.00
      P1  H  6933  6944       L1    22  1.00
      P1  H  6934  6946       L1    21  1.00
      P1  H 10752 10764       L1    16  0.96

> <Gold.PLP.Chemscore.Internal.Correction>
0.3449

> <Gold.Rescore>
     Score         DG    S(hbond)    S(metal)    S(lipo)     H(rot)  DE(clash)    DE(int)     intcor
     19.82     -20.81       3.62        0.00      73.10       2.08       0.00       0.99       ----

> <Gold.Chemscore.Fitness>
19.8174

> <Gold.Chemscore.DG>
-20.8112

> <Gold.Chemscore.ZeroCoef>
-5.4800

> <Gold.Chemscore.Hbond>
3.6210

> <Gold.Chemscore.Metal>
0.0000

> <Gold.Chemscore.Lipo>
73.0988

> <Gold.Chemscore.Internal_Hbond>
0.0000

> <Gold.Chemscore.DEClash>
0.0000

> <Gold.Chemscore.DEInternal>
0.9938

> <Gold.Chemscore.Rot>
2.0764

> <Gold.Chemscore.Internal.Correction>
   9.000000E+99

> <Gold.Chemscore.Hbonds>
donor molecule, donor type, donor heavy atom, donor atom, acceptor molecule, acceptor atom, score
      L1  H     5    27       P1  8028  0.96
      P1  H  6933  6944       L1    22  0.95
      P1  H  6934  6946       L1    21  0.39
      P1  H 10752 10764       L1    16  0.87

> <Gold.Chemscore.Hbond.Weighted>
-12.0942

> <Gold.Chemscore.Metal.Weighted>
-0.0000

> <Gold.Chemscore.Lipo.Weighted>
-8.5526

> <Gold.Chemscore.Internal_Hbond.Weighted>
0.0000

> <Gold.Chemscore.DEClash.Weighted>
0.0000

> <Gold.Chemscore.DEInternal.Weighted>
0.9938

> <Gold.Chemscore.Rot.Weighted>
5.3155

> <Gold.Chemscore.Internal.Correction.Weighted>
   9.000000E+99

> <Gold.Protein.RotatedTorsions>
[ 6907 6896 6895 6894 ] final  -29.98 input  -60.11 | X-H torsion
[ 7974 7965 7964 7962 ] final -173.22 input  175.53 | X-H torsion
[ 8008 7997 7996 7995 ] final  -83.03 input   59.86 | X-H torsion
[ 10167 10162 10161 10158 ] final   33.48 input  -65.29 | X-H torsion
[ 10718 10713 10712 10709 ] final    7.03 input   66.30 | X-H torsion
[ 10763 10752 10751 10750 ] final  -27.50 input  -60.55 | X-H torsion
[ 11005 11000 10999 10996 ] final  -26.34 input  -57.11 | X-H torsion

> <Gold.Protein.ActiveResidues>
 VAL166  LYS551  ARG553  GLY616  TRP617  ASP618  TYR619  PRO620  LYS621  CYS622 
 ASP623  PHE694  ASN695  SER759  ASP760  ASP761  ALA762  ILE779  LEU786  VAL792 
 PHE793  MET794  SER795  GLU796  ALA797  LYS798  CYS799  TRP800  GLU811  SER814 

> <Gold.Protein.RotatedAtoms>
  151.1118  135.0031  159.8497 H   0  0  0  0  0  0  0  0  0  0  0  0  # atno 6907 bound_to 6896
  152.5443  134.1827  159.8652 H   0  0  0  0  0  0  0  0  0  0  0  0  # atno 6908 bound_to 6896
  151.1878  133.4641  159.2627 H   0  0  0  0  0  0  0  0  0  0  0  0  # atno 6909 bound_to 6896
  144.7139  140.1655  143.6372 H   0  0  0  0  0  0  0  0  0  0  0  0  # atno 7974 bound_to 7965
  154.6148  140.0624  156.9540 H   0  0  0  0  0  0  0  0  0  0  0  0  # atno 8008 bound_to 7997
  155.1913  140.3307  155.4340 H   0  0  0  0  0  0  0  0  0  0  0  0  # atno 8009 bound_to 7997
  156.2398  140.1880  156.7003 H   0  0  0  0  0  0  0  0  0  0  0  0  # atno 8010 bound_to 7997
  140.4403  144.1197  150.6173 H   0  0  0  0  0  0  0  0  0  0  0  0  # atno 10167 bound_to 10162
  156.9310  130.5826  149.5649 H   0  0  0  0  0  0  0  0  0  0  0  0  # atno 10718 bound_to 10713
  153.7331  135.6937  153.4984 H   0  0  0  0  0  0  0  0  0  0  0  0  # atno 10763 bound_to 10752
  153.2122  135.4399  155.0391 H   0  0  0  0  0  0  0  0  0  0  0  0  # atno 10764 bound_to 10752
  154.8246  135.3439  154.6860 H   0  0  0  0  0  0  0  0  0  0  0  0  # atno 10765 bound_to 10752
  140.9021  133.7517  156.0557 H   0  0  0  0  0  0  0  0  0  0  0  0  # atno 11005 bound_to 11000
  145.8991  139.2420  143.1504 LP  0  0  0  0  0  0  0  0  0  0  0  0  # atno 17320 bound_to 7965
  145.9828  140.8668  143.0106 LP  0  0  0  0  0  0  0  0  0  0  0  0  # atno 17321 bound_to 7965
  140.4326  143.2561  151.9576 LP  0  0  0  0  0  0  0  0  0  0  0  0  # atno 17342 bound_to 10162
  139.4789  144.5730  151.8058 LP  0  0  0  0  0  0  0  0  0  0  0  0  # atno 17343 bound_to 10162
  156.0447  130.5525  150.8853 LP  0  0  0  0  0  0  0  0  0  0  0  0  # atno 17370 bound_to 10713
  157.5847  131.0946  150.9215 LP  0  0  0  0  0  0  0  0  0  0  0  0  # atno 17371 bound_to 10713
  140.8217  134.3281  157.5379 LP  0  0  0  0  0  0  0  0  0  0  0  0  # atno 17394 bound_to 11000
  139.8744  134.9313  156.3525 LP  0  0  0  0  0  0  0  0  0  0  0  0  # atno 17395 bound_to 11000

$$$$
