AV-unprocessed.smi:1681|AV-procd|sdf|6741|dock8
  -GOLD-   22720 7493D 1   1.00000     0.00000
 Structure written by MMmdl.
 40 41  0  0  0  0  0  0  0  0  1 V2000
  148.1557  141.1736  156.8989 C   0  0  0  0  0  0  0  0  0  0  0  0
  147.5593  139.8200  156.5059 C   0  0  0  0  0  0  0  0  0  0  0  0
  146.8780  139.2244  157.3407 O   0  0  0  0  0  0  0  0  0  0  0  0
  147.7941  139.3267  155.2660 N   0  0  0  0  0  0  0  0  0  0  0  0
  148.5253  140.0231  154.1996 C   0  0  0  0  0  0  0  0  0  0  0  0
  147.5240  140.4459  153.1099 C   0  0  0  0  0  0  0  0  0  0  0  0
  146.7407  139.2294  152.5801 C   0  0  0  0  0  0  0  0  0  0  0  0
  146.1203  138.4020  153.7307 C   0  0  1  0  0  0  0  0  0  0  0  0
  145.4582  137.1229  153.2006 C   0  0  0  0  0  0  0  0  0  0  0  0
  144.2734  136.8990  153.4494 O   0  0  0  0  0  0  0  0  0  0  0  0
  146.2470  136.3107  152.4756 N   0  0  0  0  0  0  0  0  0  0  0  0
  145.8949  135.0752  151.8780 C   0  0  0  0  0  0  0  0  0  0  0  0
  146.7292  133.9901  151.4865 C   0  0  0  0  0  0  0  0  0  0  0  0
  146.0147  133.0089  150.9557 N   0  0  0  0  0  0  0  0  0  0  0  0
  144.7300  133.4434  150.9987 N   0  0  0  0  0  0  0  0  0  0  0  0
  143.6667  132.5993  150.4833 C   0  0  0  0  0  0  0  0  0  0  0  0
  143.7279  132.4992  148.9580 C   0  0  0  0  0  0  0  0  0  0  0  0
  142.6379  132.8647  148.2780 N   0  0  0  0  0  0  0  0  0  0  0  0
  144.7475  132.0986  148.4008 O   0  0  0  0  0  0  0  0  0  0  0  0
  144.6241  134.7011  151.5599 C   0  0  0  0  0  0  0  0  0  0  0  0
  147.2003  138.0720  154.7861 C   0  0  0  0  0  0  0  0  0  0  0  0
  147.8096  141.9598  156.2271 H   0  0  0  0  0  0  0  0  0  0  0  0
  149.2452  141.1378  156.8737 H   0  0  0  0  0  0  0  0  0  0  0  0
  147.8558  141.4462  157.9114 H   0  0  0  0  0  0  0  0  0  0  0  0
  149.0848  140.8908  154.5460 H   0  0  0  0  0  0  0  0  0  0  0  0
  149.2706  139.3472  153.7777 H   0  0  0  0  0  0  0  0  0  0  0  0
  146.8283  141.1796  153.5195 H   0  0  0  0  0  0  0  0  0  0  0  0
  148.0466  140.9389  152.2898 H   0  0  0  0  0  0  0  0  0  0  0  0
  145.9639  139.5628  151.8911 H   0  0  0  0  0  0  0  0  0  0  0  0
  147.4200  138.6047  151.9978 H   0  0  0  0  0  0  0  0  0  0  0  0
  145.3541  139.0125  154.2126 H   0  0  0  0  0  0  0  0  0  0  0  0
  147.2028  136.6083  152.3427 H   0  0  0  0  0  0  0  0  0  0  0  0
  147.7999  133.8745  151.5619 H   0  0  0  0  0  0  0  0  0  0  0  0
  143.7367  131.6048  150.9273 H   0  0  0  0  0  0  0  0  0  0  0  0
  142.7085  133.0205  150.7904 H   0  0  0  0  0  0  0  0  0  0  0  0
  142.6363  132.8212  147.2688 H   0  0  0  0  0  0  0  0  0  0  0  0
  141.8214  133.1897  148.7754 H   0  0  0  0  0  0  0  0  0  0  0  0
  143.6766  135.2067  151.6755 H   0  0  0  0  0  0  0  0  0  0  0  0
  147.9862  137.4512  154.3523 H   0  0  0  0  0  0  0  0  0  0  0  0
  146.7702  137.4783  155.5945 H   0  0  0  0  0  0  0  0  0  0  0  0
  1  2  1  0  0  0  0
  1 22  1  0  0  0  0
  1 23  1  0  0  0  0
  1 24  1  0  0  0  0
  2  3  2  0  0  0  0
  2  4  1  0  0  0  0
  4 21  1  0  0  0  0
  4  5  1  0  0  0  0
  5  6  1  0  0  0  0
  5 25  1  0  0  0  0
  5 26  1  0  0  0  0
  6  7  1  0  0  0  0
  6 27  1  0  0  0  0
  6 28  1  0  0  0  0
  7  8  1  0  0  0  0
  7 29  1  0  0  0  0
  7 30  1  0  0  0  0
  8  9  1  0  0  0  0
  8 21  1  0  0  0  0
  8 31  1  0  0  0  0
  9 10  2  0  0  0  0
  9 11  1  0  0  0  0
 11 12  1  0  0  0  0
 11 32  1  0  0  0  0
 12 20  2  0  0  0  0
 12 13  1  0  0  0  0
 13 14  2  0  0  0  0
 13 33  1  0  0  0  0
 14 15  1  0  0  0  0
 15 16  1  0  0  0  0
 15 20  1  0  0  0  0
 16 17  1  0  0  0  0
 16 34  1  0  0  0  0
 16 35  1  0  0  0  0
 17 18  1  0  0  0  0
 17 19  2  0  0  0  0
 18 36  1  0  0  0  0
 18 37  1  0  0  0  0
 20 38  1  0  0  0  0
 21 39  1  0  0  0  0
 21 40  1  0  0  0  0
M  END
> <s_m_source_file>
AV-unprocessed.smi

> <i_m_source_file_index>
1681

> <i_lp_mmshare_version>
43012

> <i_f3d_flags>
0

> <s_epik_input>
W0NIM11DKD1PKU4xW0NIMl1bQ0gyXVtDSDJdW0NASF0oW0NIMl0xKUMoPU8pW05IXWMyW2NIXW5uKFtjSF0yKVtDSDJdQyg9TylbTkgyXQ==

> <s_epik_cmdline>
J2VwaWtfcHl0aG9uJywgJy1waCcsICc3LjAnLCAnLXRuJywgJzgnLCAnLW1hJywgJzIwMCcsICctbWV0YWxfYmluZGluZycsICctaW1hZScsICc8aW5maWxlLm1hZT4nLCAnLW9tYWUnLCAnPG91dGZpbGUubWFlPic=

> <r_lp_tautomer_probability>
1

> <r_epik_Ionization_Penalty>
6.05275e-06

> <r_epik_Ionization_Penalty_Charging>
0

> <r_epik_Ionization_Penalty_Neutral>
6.05275e-06

> <r_epik_State_Penalty>
-0

> <r_epik_Charging_Adjusted_Penalty>
0

> <i_epik_Tot_Q>
0

> <i_epik_Tot_abs_Q>
0

> <r_epik_Metal_State_Penalty>
-0

> <b_epik_Metal_Only>
0

> <s_lp_Force_Field>
OPLS_2005

> <r_lp_Energy>
29.0931

> <b_lp_Chiralities_Consistent>
1

> <s_lp_Variant>
AV-unprocessed.smi:1681-1

> <Gold.Version>
5.8.1

> <Gold.Id.Protein>
6NUR|6NUR_protein|mol2

> <Gold.PLP.Fitness>
39.8834

> <Gold.PLP.PLP>
-30.7171

> <Gold.PLP.part.hbond>
-4.9993

> <Gold.PLP.part.metal>
0.0000

> <Gold.PLP.part.buried>
-2.5613

> <Gold.PLP.part.nonpolar>
-23.8757

> <Gold.PLP.part.repulsive>
0.8774

> <Gold.PLP.ligand.clash>
0.0000

> <Gold.PLP.ligand.torsion>
0.2958

> <Gold.PLP.Chemscore.Hbond>
2.9920

> <Gold.PLP.Chemscore.CHOScore>
0.2521

> <Gold.PLP.Chemscore.Metal>
0.0000

> <Gold.Chemscore.Hbonds>
donor molecule, donor type, donor heavy atom, donor atom, acceptor molecule, acceptor atom, score
      L1  H    11    32       P1  7948  0.99
      L1  H    18    36       P1 10195  1.00
      L1  H    18    37       P1 10186  1.00
      L1  C    13    33       P1  7948  0.25

> <Gold.PLP.Chemscore.Internal.Correction>
0.0257

> <Gold.Rescore>
     Score         DG    S(hbond)    S(metal)    S(lipo)     H(rot)  DE(clash)    DE(int)     intcor
     14.14     -16.39       2.90        0.00      53.29       1.96       0.61       1.64       ----

> <Gold.Chemscore.Fitness>
14.1400

> <Gold.Chemscore.DG>
-16.3945

> <Gold.Chemscore.ZeroCoef>
-5.4800

> <Gold.Chemscore.Hbond>
2.9046

> <Gold.Chemscore.Metal>
0.0000

> <Gold.Chemscore.Lipo>
53.2934

> <Gold.Chemscore.Internal_Hbond>
0.0000

> <Gold.Chemscore.DEClash>
0.6123

> <Gold.Chemscore.DEInternal>
1.6422

> <Gold.Chemscore.Rot>
1.9617

> <Gold.Chemscore.Internal.Correction>
   9.000000E+99

> <Gold.Chemscore.Hbonds>
donor molecule, donor type, donor heavy atom, donor atom, acceptor molecule, acceptor atom, score
      L1  H    11    32       P1  7948  0.94
      L1  H    18    36       P1 10195  0.94
      L1  H    18    37       P1 10186  0.94

> <Gold.Chemscore.Hbond.Weighted>
-9.7013

> <Gold.Chemscore.Metal.Weighted>
-0.0000

> <Gold.Chemscore.Lipo.Weighted>
-6.2353

> <Gold.Chemscore.Internal_Hbond.Weighted>
0.0000

> <Gold.Chemscore.DEClash.Weighted>
0.6123

> <Gold.Chemscore.DEInternal.Weighted>
1.6422

> <Gold.Chemscore.Rot.Weighted>
5.0220

> <Gold.Chemscore.Internal.Correction.Weighted>
   9.000000E+99

> <Gold.Protein.RotatedTorsions>
[ 6907 6896 6895 6894 ] final   77.65 input  -60.11 | X-H torsion
[ 7974 7965 7964 7962 ] final -149.04 input  175.53 | X-H torsion
[ 8008 7997 7996 7995 ] final  147.43 input   59.86 | X-H torsion
[ 10167 10162 10161 10158 ] final -123.49 input  -65.29 | X-H torsion
[ 10718 10713 10712 10709 ] final -174.07 input   66.30 | X-H torsion
[ 10763 10752 10751 10750 ] final   29.82 input  -60.55 | X-H torsion
[ 11005 11000 10999 10996 ] final   10.99 input  -57.11 | X-H torsion

> <Gold.Protein.ActiveResidues>
 VAL166  LYS551  ARG553  GLY616  TRP617  ASP618  TYR619  PRO620  LYS621  CYS622 
 ASP623  PHE694  ASN695  SER759  ASP760  ASP761  ALA762  ILE779  LEU786  VAL792 
 PHE793  MET794  SER795  GLU796  ALA797  LYS798  CYS799  TRP800  GLU811  SER814 

> <Gold.Protein.RotatedAtoms>
  152.5126  134.3784  159.9342 H   0  0  0  0  0  0  0  0  0  0  0  0  # atno 6907 bound_to 6896
  151.3741  133.3838  159.2710 H   0  0  0  0  0  0  0  0  0  0  0  0  # atno 6908 bound_to 6896
  150.9555  134.8970  159.7757 H   0  0  0  0  0  0  0  0  0  0  0  0  # atno 6909 bound_to 6896
  144.7992  140.5118  143.5719 H   0  0  0  0  0  0  0  0  0  0  0  0  # atno 7974 bound_to 7965
  156.2825  140.2156  156.5537 H   0  0  0  0  0  0  0  0  0  0  0  0  # atno 8008 bound_to 7997
  154.7270  140.0498  157.0714 H   0  0  0  0  0  0  0  0  0  0  0  0  # atno 8009 bound_to 7997
  155.0403  140.3145  155.4730 H   0  0  0  0  0  0  0  0  0  0  0  0  # atno 8010 bound_to 7997
  140.0030  143.5521  152.2295 H   0  0  0  0  0  0  0  0  0  0  0  0  # atno 10167 bound_to 10162
  156.7796  130.9478  151.3120 H   0  0  0  0  0  0  0  0  0  0  0  0  # atno 10718 bound_to 10713
  153.0408  135.6479  154.0950 H   0  0  0  0  0  0  0  0  0  0  0  0  # atno 10763 bound_to 10752
  154.0656  135.2884  155.3318 H   0  0  0  0  0  0  0  0  0  0  0  0  # atno 10764 bound_to 10752
  154.6628  135.5385  153.8104 H   0  0  0  0  0  0  0  0  0  0  0  0  # atno 10765 bound_to 10752
  140.5082  134.0678  155.7811 H   0  0  0  0  0  0  0  0  0  0  0  0  # atno 11005 bound_to 11000
  145.5596  139.1479  143.3349 LP  0  0  0  0  0  0  0  0  0  0  0  0  # atno 17320 bound_to 7965
  146.2269  140.5732  142.8992 LP  0  0  0  0  0  0  0  0  0  0  0  0  # atno 17321 bound_to 7965
  139.6258  144.7637  151.2641 LP  0  0  0  0  0  0  0  0  0  0  0  0  # atno 17342 bound_to 10162
  140.7411  143.6566  150.8201 LP  0  0  0  0  0  0  0  0  0  0  0  0  # atno 17343 bound_to 10162
  157.6652  130.9002  149.9917 LP  0  0  0  0  0  0  0  0  0  0  0  0  # atno 17370 bound_to 10713
  156.1226  130.3645  149.9862 LP  0  0  0  0  0  0  0  0  0  0  0  0  # atno 17371 bound_to 10713
  141.1399  133.9156  157.2349 LP  0  0  0  0  0  0  0  0  0  0  0  0  # atno 17394 bound_to 11000
  139.9674  135.0138  156.9422 LP  0  0  0  0  0  0  0  0  0  0  0  0  # atno 17395 bound_to 11000

$$$$
