AV-unprocessed.smi:2955|AV-procd|sdf|11302|dock2
  -GOLD-   2272016203D 1   1.00000     0.00000
 Structure written by MMmdl.
 45 47  0  0  0  0  0  0  0  0  1 V2000
  143.9435  144.1071  156.1793 C   0  0  0  0  0  0  0  0  0  0  0  0
  145.1350  143.4234  155.5404 C   0  0  0  0  0  0  0  0  0  0  0  0
  145.3346  143.5011  154.1477 C   0  0  0  0  0  0  0  0  0  0  0  0
  146.4454  142.8676  153.5612 C   0  0  0  0  0  0  0  0  0  0  0  0
  147.3571  142.1578  154.3650 C   0  0  0  0  0  0  0  0  0  0  0  0
  147.1742  142.0711  155.7604 C   0  0  0  0  0  0  0  0  0  0  0  0
  148.1158  141.3589  156.4722 O   0  0  0  0  0  0  0  0  0  0  0  0
  149.1927  140.7671  155.7578 C   0  0  0  0  0  0  0  0  0  0  0  0
  150.4067  141.7062  155.7650 C   0  0  0  0  0  0  0  0  0  0  0  0
  151.2303  141.5405  156.9556 N   0  0  0  0  0  0  0  0  0  0  0  0
  151.8439  140.4232  157.4308 C   0  0  0  0  0  0  0  0  0  0  0  0
  151.7652  139.0831  156.7429 C   0  0  1  0  0  0  0  0  0  0  0  0
  152.2792  139.1402  155.2971 C   0  0  0  0  0  0  0  0  0  0  0  0
  152.5396  138.1217  157.5206 N   0  0  0  0  0  0  0  0  0  0  0  0
  152.6566  136.8244  157.2109 C   0  0  0  0  0  0  0  0  0  0  0  0
  152.1161  136.3151  156.2325 O   0  0  0  0  0  0  0  0  0  0  0  0
  152.5039  140.5776  158.5821 N   0  0  0  0  0  0  0  0  0  0  0  0
  152.3326  141.9179  158.8604 C   0  0  0  0  0  0  0  0  0  0  0  0
  152.8042  142.6994  159.9394 C   0  0  0  0  0  0  0  0  0  0  0  0
  152.4976  144.0740  160.0124 C   0  0  0  0  0  0  0  0  0  0  0  0
  151.7174  144.6849  159.0097 C   0  0  0  0  0  0  0  0  0  0  0  0
  151.2362  143.9231  157.9275 C   0  0  0  0  0  0  0  0  0  0  0  0
  151.5442  142.5509  157.8598 C   0  0  0  0  0  0  0  0  0  0  0  0
  146.0509  142.7121  156.3430 C   0  0  0  0  0  0  0  0  0  0  0  0
  143.1794  144.3440  155.4383 H   0  0  0  0  0  0  0  0  0  0  0  0
  144.2561  145.0352  156.6586 H   0  0  0  0  0  0  0  0  0  0  0  0
  143.4924  143.4647  156.9362 H   0  0  0  0  0  0  0  0  0  0  0  0
  144.6388  144.0458  153.5262 H   0  0  0  0  0  0  0  0  0  0  0  0
  146.5988  142.9266  152.4937 H   0  0  0  0  0  0  0  0  0  0  0  0
  148.2050  141.6737  153.9037 H   0  0  0  0  0  0  0  0  0  0  0  0
  149.4684  139.8136  156.2115 H   0  0  0  0  0  0  0  0  0  0  0  0
  148.8947  140.5754  154.7259 H   0  0  0  0  0  0  0  0  0  0  0  0
  151.0263  141.5014  154.8916 H   0  0  0  0  0  0  0  0  0  0  0  0
  150.1004  142.7466  155.6642 H   0  0  0  0  0  0  0  0  0  0  0  0
  150.7336  138.7393  156.6930 H   0  0  0  0  0  0  0  0  0  0  0  0
  151.7235  139.8757  154.7160 H   0  0  0  0  0  0  0  0  0  0  0  0
  152.1688  138.1746  154.8030 H   0  0  0  0  0  0  0  0  0  0  0  0
  153.3334  139.4165  155.2557 H   0  0  0  0  0  0  0  0  0  0  0  0
  152.9952  138.4606  158.3556 H   0  0  0  0  0  0  0  0  0  0  0  0
  153.2873  136.2837  157.9341 H   0  0  0  0  0  0  0  0  0  0  0  0
  153.4036  142.2407  160.7120 H   0  0  0  0  0  0  0  0  0  0  0  0
  152.8633  144.6620  160.8414 H   0  0  0  0  0  0  0  0  0  0  0  0
  151.4876  145.7385  159.0721 H   0  0  0  0  0  0  0  0  0  0  0  0
  150.6385  144.3890  157.1583 H   0  0  0  0  0  0  0  0  0  0  0  0
  145.8715  142.6733  157.4067 H   0  0  0  0  0  0  0  0  0  0  0  0
  1  2  1  0  0  0  0
  1 25  1  0  0  0  0
  1 26  1  0  0  0  0
  1 27  1  0  0  0  0
  2 24  1  0  0  0  0
  2  3  2  0  0  0  0
  3  4  1  0  0  0  0
  3 28  1  0  0  0  0
  4  5  2  0  0  0  0
  4 29  1  0  0  0  0
  5  6  1  0  0  0  0
  5 30  1  0  0  0  0
  6  7  1  0  0  0  0
  6 24  2  0  0  0  0
  7  8  1  0  0  0  0
  8  9  1  0  0  0  0
  8 31  1  0  0  0  0
  8 32  1  0  0  0  0
  9 10  1  0  0  0  0
  9 33  1  0  0  0  0
  9 34  1  0  0  0  0
 10 23  1  0  0  0  0
 10 11  1  0  0  0  0
 11 12  1  0  0  0  0
 11 17  2  0  0  0  0
 12 13  1  0  0  0  0
 12 14  1  0  0  0  0
 12 35  1  0  0  0  0
 13 36  1  0  0  0  0
 13 37  1  0  0  0  0
 13 38  1  0  0  0  0
 14 15  1  0  0  0  0
 14 39  1  0  0  0  0
 15 16  2  0  0  0  0
 15 40  1  0  0  0  0
 17 18  1  0  0  0  0
 18 23  2  0  0  0  0
 18 19  1  0  0  0  0
 19 20  2  0  0  0  0
 19 41  1  0  0  0  0
 20 21  1  0  0  0  0
 20 42  1  0  0  0  0
 21 22  2  0  0  0  0
 21 43  1  0  0  0  0
 22 23  1  0  0  0  0
 22 44  1  0  0  0  0
 24 45  1  0  0  0  0
M  END
> <s_m_source_file>
AV-unprocessed.smi

> <i_m_source_file_index>
2955

> <i_lp_mmshare_version>
43012

> <i_f3d_flags>
0

> <s_epik_input>
W0NIM11jMVtjSF1bY0hdW2NIXWMoW2NIXTEpT1tDSDJdW0NIMl1uKGMobjIpW0NASF0oW0NIM10pW05IXVtDSF09TyljKGMyMylbY0hdW2NIXVtjSF1bY0hdMw==

> <s_epik_cmdline>
J2VwaWtfcHl0aG9uJywgJy1waCcsICc3LjAnLCAnLXRuJywgJzgnLCAnLW1hJywgJzIwMCcsICctbWV0YWxfYmluZGluZycsICctaW1hZScsICc8aW5maWxlLm1hZT4nLCAnLW9tYWUnLCAnPG91dGZpbGUubWFlPic=

> <r_lp_tautomer_probability>
1

> <r_epik_Ionization_Penalty>
0.0917757

> <r_epik_Ionization_Penalty_Charging>
0

> <r_epik_Ionization_Penalty_Neutral>
0.0917757

> <r_epik_State_Penalty>
0.0820948

> <r_epik_Charging_Adjusted_Penalty>
0.0820948

> <i_epik_Tot_Q>
0

> <i_epik_Tot_abs_Q>
0

> <r_epik_Metal_State_Penalty>
0.0709956

> <b_epik_Metal_Only>
0

> <s_lp_Force_Field>
OPLS_2005

> <r_lp_Energy>
12.9149

> <b_lp_Chiralities_Consistent>
1

> <s_lp_Variant>
AV-unprocessed.smi:2955-2

> <Gold.Version>
5.8.1

> <Gold.Id.Protein>
6NUR|6NUR_protein|mol2

> <Gold.PLP.Fitness>
48.2709

> <Gold.PLP.PLP>
-48.0911

> <Gold.PLP.part.hbond>
-1.0000

> <Gold.PLP.part.metal>
0.0000

> <Gold.PLP.part.buried>
-6.6511

> <Gold.PLP.part.nonpolar>
-40.8241

> <Gold.PLP.part.repulsive>
0.1943

> <Gold.PLP.ligand.clash>
2.1110

> <Gold.PLP.ligand.torsion>
0.4014

> <Gold.PLP.Chemscore.Hbond>
1.0000

> <Gold.PLP.Chemscore.CHOScore>
0.0000

> <Gold.PLP.Chemscore.Metal>
0.0000

> <Gold.Chemscore.Hbonds>
donor molecule, donor type, donor heavy atom, donor atom, acceptor molecule, acceptor atom, score
      P1  H 10752 10764       L1    16  1.00

> <Gold.PLP.Chemscore.Internal.Correction>
0.0935

> <Gold.Rescore>
     Score         DG    S(hbond)    S(metal)    S(lipo)     H(rot)  DE(clash)    DE(int)     intcor
     16.13     -17.90       1.00        0.00     127.13       2.26       0.22       1.55       ----

> <Gold.Chemscore.Fitness>
16.1258

> <Gold.Chemscore.DG>
-17.8985

> <Gold.Chemscore.ZeroCoef>
-5.4800

> <Gold.Chemscore.Hbond>
0.9986

> <Gold.Chemscore.Metal>
0.0000

> <Gold.Chemscore.Lipo>
127.1272

> <Gold.Chemscore.Internal_Hbond>
0.0000

> <Gold.Chemscore.DEClash>
0.2191

> <Gold.Chemscore.DEInternal>
1.5537

> <Gold.Chemscore.Rot>
2.2619

> <Gold.Chemscore.Internal.Correction>
   9.000000E+99

> <Gold.Chemscore.Hbonds>
donor molecule, donor type, donor heavy atom, donor atom, acceptor molecule, acceptor atom, score
      P1  H 10752 10764       L1    16  0.67

> <Gold.Chemscore.Hbond.Weighted>
-3.3352

> <Gold.Chemscore.Metal.Weighted>
-0.0000

> <Gold.Chemscore.Lipo.Weighted>
-14.8739

> <Gold.Chemscore.Internal_Hbond.Weighted>
0.0000

> <Gold.Chemscore.DEClash.Weighted>
0.2191

> <Gold.Chemscore.DEInternal.Weighted>
1.5537

> <Gold.Chemscore.Rot.Weighted>
5.7906

> <Gold.Chemscore.Internal.Correction.Weighted>
   9.000000E+99

> <Gold.Protein.RotatedTorsions>
[ 6907 6896 6895 6894 ] final -158.30 input  -60.11 | X-H torsion
[ 7974 7965 7964 7962 ] final  -57.21 input  175.53 | X-H torsion
[ 8008 7997 7996 7995 ] final   72.87 input   59.86 | X-H torsion
[ 10167 10162 10161 10158 ] final  159.05 input  -65.29 | X-H torsion
[ 10718 10713 10712 10709 ] final   45.43 input   66.30 | X-H torsion
[ 10763 10752 10751 10750 ] final  -10.24 input  -60.55 | X-H torsion
[ 11005 11000 10999 10996 ] final -158.53 input  -57.11 | X-H torsion

> <Gold.Protein.ActiveResidues>
 VAL166  LYS551  ARG553  GLY616  TRP617  ASP618  TYR619  PRO620  LYS621  CYS622 
 ASP623  PHE694  ASN695  SER759  ASP760  ASP761  ALA762  ILE779  LEU786  VAL792 
 PHE793  MET794  SER795  GLU796  ALA797  LYS798  CYS799  TRP800  GLU811  SER814 

> <Gold.Protein.RotatedAtoms>
  151.3161  133.4059  159.2650 H   0  0  0  0  0  0  0  0  0  0  0  0  # atno 6907 bound_to 6896
  151.0073  134.9370  159.7998 H   0  0  0  0  0  0  0  0  0  0  0  0  # atno 6908 bound_to 6896
  152.5291  134.3126  159.9171 H   0  0  0  0  0  0  0  0  0  0  0  0  # atno 6909 bound_to 6896
  145.8536  140.8335  142.9973 H   0  0  0  0  0  0  0  0  0  0  0  0  # atno 7974 bound_to 7965
  155.7752  140.3483  155.5268 H   0  0  0  0  0  0  0  0  0  0  0  0  # atno 8008 bound_to 7997
  155.8783  140.0998  157.1524 H   0  0  0  0  0  0  0  0  0  0  0  0  # atno 8009 bound_to 7997
  154.4022  140.1327  156.4151 H   0  0  0  0  0  0  0  0  0  0  0  0  # atno 8010 bound_to 7997
  139.4830  144.4767  151.8502 H   0  0  0  0  0  0  0  0  0  0  0  0  # atno 10167 bound_to 10162
  157.4375  130.8061  149.7662 H   0  0  0  0  0  0  0  0  0  0  0  0  # atno 10718 bound_to 10713
  153.4663  135.7016  153.6020 H   0  0  0  0  0  0  0  0  0  0  0  0  # atno 10763 bound_to 10752
  153.4293  135.3806  155.2160 H   0  0  0  0  0  0  0  0  0  0  0  0  # atno 10764 bound_to 10752
  154.8726  135.3947  154.4095 H   0  0  0  0  0  0  0  0  0  0  0  0  # atno 10765 bound_to 10752
  140.6525  134.4435  157.5235 H   0  0  0  0  0  0  0  0  0  0  0  0  # atno 11005 bound_to 11000
  144.6728  140.0991  143.7461 LP  0  0  0  0  0  0  0  0  0  0  0  0  # atno 17320 bound_to 7965
  145.9329  139.2618  143.1314 LP  0  0  0  0  0  0  0  0  0  0  0  0  # atno 17321 bound_to 7965
  140.4239  144.2206  150.5887 LP  0  0  0  0  0  0  0  0  0  0  0  0  # atno 17342 bound_to 10162
  140.4846  143.2367  151.8906 LP  0  0  0  0  0  0  0  0  0  0  0  0  # atno 17343 bound_to 10162
  155.9936  130.3923  150.2894 LP  0  0  0  0  0  0  0  0  0  0  0  0  # atno 17370 bound_to 10713
  157.1056  131.0207  151.3068 LP  0  0  0  0  0  0  0  0  0  0  0  0  # atno 17371 bound_to 10713
  139.9041  134.8490  156.1777 LP  0  0  0  0  0  0  0  0  0  0  0  0  # atno 17394 bound_to 11000
  141.0526  133.6881  156.1800 LP  0  0  0  0  0  0  0  0  0  0  0  0  # atno 17395 bound_to 11000

$$$$
