AV-unprocessed.smi:35|AV-procd|sdf|249|dock8
  -GOLD-   2262016 13D 1   1.00000     0.00000
 Structure written by MMmdl.
 29 30  0  0  0  0  0  0  0  0  1 V2000
  152.6564  139.9689  157.6942 O   0  0  0  0  0  0  0  0  0  0  0  0
  151.7763  140.1347  156.8524 C   0  0  0  0  0  0  0  0  0  0  0  0
  151.5268  139.1531  155.8887 N   0  0  0  0  0  0  0  0  0  0  0  0
  150.5579  139.2270  154.8853 C   0  0  0  0  0  0  0  0  0  0  0  0
  150.4187  138.2909  154.0995 O   0  0  0  0  0  0  0  0  0  0  0  0
  149.7694  140.3991  154.8372 N   0  0  0  0  0  0  0  0  0  0  0  0
  148.7024  140.5486  153.7774 C   0  0  2  0  0  0  0  0  0  0  0  0
  147.9420  141.6797  154.0807 O   0  0  0  0  0  0  0  0  0  0  0  0
  146.5564  141.3726  153.9852 C   0  0  2  0  0  0  0  0  0  0  0  0
  145.7685  142.3236  154.8995 C   0  0  0  0  0  0  0  0  0  0  0  0
  144.4285  141.8977  155.0239 O   0  0  0  0  0  0  0  0  0  0  0  0
  146.4918  139.8947  154.3797 C   0  0  1  0  0  0  0  0  0  0  0  0
  145.3179  139.2489  153.9229 O   0  0  0  0  0  0  0  0  0  0  0  0
  147.7702  139.3245  153.7700 C   0  0  1  0  0  0  0  0  0  0  0  0
  147.5776  138.8413  152.4523 O   0  0  0  0  0  0  0  0  0  0  0  0
  149.9757  141.3975  155.7792 C   0  0  0  0  0  0  0  0  0  0  0  0
  150.9166  141.3084  156.7478 C   0  0  0  0  0  0  0  0  0  0  0  0
  151.0503  142.8413  157.9952 Br  0  0  0  0  0  0  0  0  0  0  0  0
  152.0932  138.3179  155.9230 H   0  0  0  0  0  0  0  0  0  0  0  0
  149.2048  140.7239  152.8247 H   0  0  0  0  0  0  0  0  0  0  0  0
  146.2592  141.5019  152.9426 H   0  0  0  0  0  0  0  0  0  0  0  0
  146.2273  142.3890  155.8865 H   0  0  0  0  0  0  0  0  0  0  0  0
  145.7679  143.3292  154.4782 H   0  0  0  0  0  0  0  0  0  0  0  0
  144.1957  141.4076  154.2498 H   0  0  0  0  0  0  0  0  0  0  0  0
  146.5417  139.8023  155.4653 H   0  0  0  0  0  0  0  0  0  0  0  0
  144.7807  139.8862  153.4768 H   0  0  0  0  0  0  0  0  0  0  0  0
  148.1805  138.5148  154.3753 H   0  0  0  0  0  0  0  0  0  0  0  0
  148.0912  139.3704  151.8614 H   0  0  0  0  0  0  0  0  0  0  0  0
  149.3641  142.2869  155.7472 H   0  0  0  0  0  0  0  0  0  0  0  0
  1  2  2  0  0  0  0
  2 17  1  0  0  0  0
  2  3  1  0  0  0  0
  3 19  1  0  0  0  0
  3  4  1  0  0  0  0
  4  5  2  0  0  0  0
  4  6  1  0  0  0  0
  6  7  1  0  0  0  0
  6 16  1  0  0  0  0
  7 14  1  0  0  0  0
  7  8  1  0  0  0  0
  7 20  1  0  0  0  0
  8  9  1  0  0  0  0
  9 10  1  0  0  0  0
  9 12  1  0  0  0  0
  9 21  1  0  0  0  0
 10 11  1  0  0  0  0
 10 22  1  0  0  0  0
 10 23  1  0  0  0  0
 11 24  1  0  0  0  0
 12 13  1  0  0  0  0
 12 14  1  0  0  0  0
 12 25  1  0  0  0  0
 13 26  1  0  0  0  0
 14 15  1  0  0  0  0
 14 27  1  0  0  0  0
 15 28  1  0  0  0  0
 16 17  2  0  0  0  0
 16 29  1  0  0  0  0
 17 18  1  0  0  0  0
M  END
> <s_m_source_file>
AV-unprocessed.smi

> <i_m_source_file_index>
35

> <i_lp_mmshare_version>
43012

> <i_f3d_flags>
0

> <s_epik_input>
Tz1jMVtuSF1jKD1PKW4oW2NIXWMxQnIpW0NAQEhdMk9bQ0BASF0oW0NIMl1bT0hdKVtDQEBIXShbT0hdKVtDQEhdMltPSF0=

> <s_epik_cmdline>
J2VwaWtfcHl0aG9uJywgJy1waCcsICc3LjAnLCAnLXRuJywgJzgnLCAnLW1hJywgJzIwMCcsICctbWV0YWxfYmluZGluZycsICctaW1hZScsICc8aW5maWxlLm1hZT4nLCAnLW9tYWUnLCAnPG91dGZpbGUubWFlPic=

> <r_lp_tautomer_probability>
0.999537

> <r_epik_Ionization_Penalty>
0.10812

> <r_epik_Ionization_Penalty_Charging>
0.108119

> <r_epik_Ionization_Penalty_Neutral>
4.93006e-07

> <r_epik_State_Penalty>
0.0979238

> <r_epik_Charging_Adjusted_Penalty>
0.206043

> <i_epik_Tot_Q>
0

> <i_epik_Tot_abs_Q>
0

> <r_epik_Metal_State_Penalty>
3.07911

> <b_epik_Metal_Only>
0

> <s_epik_Chemistry_Notes>
This compound contains an acetal/aminal-like group ( X-CH(R)-Y where X, Y are N, S, or O) that may be acid/base labile, releasing an aldehyde.

> <s_lp_Force_Field>
OPLS_2005

> <r_lp_Energy>
30.5202

> <b_lp_Chiralities_Consistent>
1

> <s_lp_Variant>
AV-unprocessed.smi:35-3

> <Gold.Version>
5.8.1

> <Gold.Id.Protein>
6NUR|6NUR_protein|mol2

> <Gold.PLP.Fitness>
44.2812

> <Gold.PLP.PLP>
-29.6391

> <Gold.PLP.part.hbond>
-5.2867

> <Gold.PLP.part.metal>
0.0000

> <Gold.PLP.part.buried>
-0.2567

> <Gold.PLP.part.nonpolar>
-25.5439

> <Gold.PLP.part.repulsive>
0.5428

> <Gold.PLP.ligand.clash>
0.0000

> <Gold.PLP.ligand.torsion>
0.1697

> <Gold.PLP.Chemscore.Hbond>
3.9913

> <Gold.PLP.Chemscore.CHOScore>
1.0000

> <Gold.PLP.Chemscore.Metal>
0.0000

> <Gold.Chemscore.Hbonds>
donor molecule, donor type, donor heavy atom, donor atom, acceptor molecule, acceptor atom, score
      L1  H    11    24       P1 10175  0.99
      L1  H    13    26       P1 10175  1.00
      L1  H    15    28       P1  7957  1.00
      P1  H  7997  8010       L1     1  1.00
      L1  C    16    29       P1  8028  1.00

> <Gold.PLP.Chemscore.Internal.Correction>
0.0077

> <Gold.Rescore>
     Score         DG    S(hbond)    S(metal)    S(lipo)     H(rot)  DE(clash)    DE(int)     intcor
     10.40     -13.47       3.70        0.00      42.97       3.67       1.49       1.57       ----

> <Gold.Chemscore.Fitness>
10.4048

> <Gold.Chemscore.DG>
-13.4680

> <Gold.Chemscore.ZeroCoef>
-5.4800

> <Gold.Chemscore.Hbond>
3.6995

> <Gold.Chemscore.Metal>
0.0000

> <Gold.Chemscore.Lipo>
42.9658

> <Gold.Chemscore.Internal_Hbond>
0.0000

> <Gold.Chemscore.DEClash>
1.4903

> <Gold.Chemscore.DEInternal>
1.5729

> <Gold.Chemscore.Rot>
3.6701

> <Gold.Chemscore.Internal.Correction>
   9.000000E+99

> <Gold.Chemscore.Hbonds>
donor molecule, donor type, donor heavy atom, donor atom, acceptor molecule, acceptor atom, score
      L1  H    11    24       P1 10175  0.37
      L1  H    13    26       P1 10175  0.98
      L1  H    15    28       P1  7957  0.99
      P1  H  7997  8010       L1     1  0.52

> <Gold.Chemscore.Hbond.Weighted>
-12.3564

> <Gold.Chemscore.Metal.Weighted>
-0.0000

> <Gold.Chemscore.Lipo.Weighted>
-5.0270

> <Gold.Chemscore.Internal_Hbond.Weighted>
0.0000

> <Gold.Chemscore.DEClash.Weighted>
1.4903

> <Gold.Chemscore.DEInternal.Weighted>
1.5729

> <Gold.Chemscore.Rot.Weighted>
9.3955

> <Gold.Chemscore.Internal.Correction.Weighted>
   9.000000E+99

> <Gold.Protein.RotatedTorsions>
[ 6907 6896 6895 6894 ] final   79.92 input  -60.11 | X-H torsion
[ 7974 7965 7964 7962 ] final  -26.44 input  175.53 | X-H torsion
[ 8008 7997 7996 7995 ] final   56.77 input   59.86 | X-H torsion
[ 10167 10162 10161 10158 ] final  133.60 input  -65.29 | X-H torsion
[ 10718 10713 10712 10709 ] final  178.57 input   66.30 | X-H torsion
[ 10763 10752 10751 10750 ] final -167.64 input  -60.55 | X-H torsion
[ 11005 11000 10999 10996 ] final -102.47 input  -57.11 | X-H torsion

> <Gold.Protein.ActiveResidues>
 VAL166  LYS551  ARG553  GLY616  TRP617  ASP618  TYR619  PRO620  LYS621  CYS622 
 ASP623  PHE694  ASN695  SER759  ASP760  ASP761  ALA762  ILE779  LEU786  VAL792 
 PHE793  MET794  SER795  GLU796  ALA797  LYS798  CYS799  TRP800  GLU811  SER814 

> <Gold.Protein.RotatedAtoms>
  152.5216  134.3437  159.9225 H   0  0  0  0  0  0  0  0  0  0  0  0  # atno 6907 bound_to 6896
  151.3387  133.3965  159.2677 H   0  0  0  0  0  0  0  0  0  0  0  0  # atno 6908 bound_to 6896
  150.9821  134.9192  159.7908 H   0  0  0  0  0  0  0  0  0  0  0  0  # atno 6909 bound_to 6896
  146.1425  140.5020  142.8646 H   0  0  0  0  0  0  0  0  0  0  0  0  # atno 7974 bound_to 7965
  155.5228  140.3480  155.4410 H   0  0  0  0  0  0  0  0  0  0  0  0  # atno 8008 bound_to 7997
  156.0772  140.1377  156.9784 H   0  0  0  0  0  0  0  0  0  0  0  0  # atno 8009 bound_to 7997
  154.4560  140.0953  156.6733 H   0  0  0  0  0  0  0  0  0  0  0  0  # atno 8010 bound_to 7997
  139.5290  144.6608  151.5019 H   0  0  0  0  0  0  0  0  0  0  0  0  # atno 10167 bound_to 10162
  156.8885  130.9839  151.3052 H   0  0  0  0  0  0  0  0  0  0  0  0  # atno 10718 bound_to 10713
  154.6711  135.2939  154.9741 H   0  0  0  0  0  0  0  0  0  0  0  0  # atno 10763 bound_to 10752
  154.0768  135.6610  153.4836 H   0  0  0  0  0  0  0  0  0  0  0  0  # atno 10764 bound_to 10752
  153.0487  135.5188  154.7707 H   0  0  0  0  0  0  0  0  0  0  0  0  # atno 10765 bound_to 10752
  141.1188  133.8561  157.1363 H   0  0  0  0  0  0  0  0  0  0  0  0  # atno 11005 bound_to 11000
  144.7809  140.5837  143.6606 LP  0  0  0  0  0  0  0  0  0  0  0  0  # atno 17320 bound_to 7965
  145.5013  139.1483  143.3655 LP  0  0  0  0  0  0  0  0  0  0  0  0  # atno 17321 bound_to 7965
  140.6455  143.8803  150.6733 LP  0  0  0  0  0  0  0  0  0  0  0  0  # atno 17342 bound_to 10162
  140.2151  143.3853  152.1687 LP  0  0  0  0  0  0  0  0  0  0  0  0  # atno 17343 bound_to 10162
  157.6098  130.8574  149.8933 LP  0  0  0  0  0  0  0  0  0  0  0  0  # atno 17370 bound_to 10713
  156.0641  130.3695  150.0918 LP  0  0  0  0  0  0  0  0  0  0  0  0  # atno 17371 bound_to 10713
  140.0129  134.9980  157.0432 LP  0  0  0  0  0  0  0  0  0  0  0  0  # atno 17394 bound_to 11000
  140.4569  134.1524  155.7187 LP  0  0  0  0  0  0  0  0  0  0  0  0  # atno 17395 bound_to 11000

$$$$
