AV-unprocessed.smi:1787|AV-procd|sdf|7208|dock10
  -GOLD-   22720 8453D 1   1.00000     0.00000
 Structure written by MMmdl.
 45 47  0  0  0  0  0  0  0  0  2 V2000
  150.5581  134.3877  155.6927 O   0  0  0  0  0  0  0  0  0  0  0  0
  150.0312  134.7459  154.6407 C   0  0  0  0  0  0  0  0  0  0  0  0
  149.4204  133.9034  153.7961 N   0  0  0  0  0  0  0  0  0  0  0  0
  149.2811  132.4589  153.9822 C   0  0  0  0  0  0  0  0  0  0  0  0
  147.8058  131.9532  153.8727 C   0  0  1  0  0  0  0  0  0  0  0  0
  147.3855  131.9722  152.4221 N   0  3  0  0  0  0  0  0  0  0  0  0
  146.1744  131.1559  152.1264 C   0  0  0  0  0  0  0  0  0  0  0  0
  145.9308  131.0645  150.6130 C   0  0  0  0  0  0  0  0  0  0  0  0
  145.7737  132.3737  150.0878 O   0  0  0  0  0  0  0  0  0  0  0  0
  146.9505  133.1485  150.2621 C   0  0  0  0  0  0  0  0  0  0  0  0
  147.2743  133.3023  151.7593 C   0  0  0  0  0  0  0  0  0  0  0  0
  147.6852  130.5467  154.5079 C   0  0  0  0  0  0  0  0  0  0  0  0
  147.8107  130.6806  156.0326 C   0  0  0  0  0  0  0  0  0  0  0  0
  147.1910  132.3147  156.5059 S   0  0  0  0  0  0  0  0  0  0  0  0
  146.8955  132.8122  154.7915 C   0  0  0  0  0  0  0  0  0  0  0  0
  149.9905  136.0057  154.1742 N   0  0  0  0  0  0  0  0  0  0  0  0
  150.4949  137.1979  154.7620 C   0  0  0  0  0  0  0  0  0  0  0  0
  151.1395  137.2681  156.0215 C   0  0  0  0  0  0  0  0  0  0  0  0
  151.5798  138.5208  156.4906 C   0  0  0  0  0  0  0  0  0  0  0  0
  151.3551  139.6574  155.6899 C   0  0  0  0  0  0  0  0  0  0  0  0
  150.7331  139.6069  154.4934 N   0  0  0  0  0  0  0  0  0  0  0  0
  150.3155  138.4028  154.0496 C   0  0  0  0  0  0  0  0  0  0  0  0
  149.0397  134.2884  152.9442 H   0  0  0  0  0  0  0  0  0  0  0  0
  149.8964  131.9868  153.2169 H   0  0  0  0  0  0  0  0  0  0  0  0
  149.7448  132.1577  154.9222 H   0  0  0  0  0  0  0  0  0  0  0  0
  146.2754  130.1469  152.5223 H   0  0  0  0  0  0  0  0  0  0  0  0
  145.2977  131.5994  152.6000 H   0  0  0  0  0  0  0  0  0  0  0  0
  146.7510  130.5465  150.1131 H   0  0  0  0  0  0  0  0  0  0  0  0
  145.0238  130.4938  150.4128 H   0  0  0  0  0  0  0  0  0  0  0  0
  147.7840  132.6845  149.7320 H   0  0  0  0  0  0  0  0  0  0  0  0
  146.7959  134.1285  149.8104 H   0  0  0  0  0  0  0  0  0  0  0  0
  146.5087  133.9042  152.2500 H   0  0  0  0  0  0  0  0  0  0  0  0
  148.2139  133.8491  151.8126 H   0  0  0  0  0  0  0  0  0  0  0  0
  146.7081  130.1204  154.2788 H   0  0  0  0  0  0  0  0  0  0  0  0
  148.4291  129.8477  154.1242 H   0  0  0  0  0  0  0  0  0  0  0  0
  147.2643  129.8937  156.5529 H   0  0  0  0  0  0  0  0  0  0  0  0
  148.8555  130.6113  156.3366 H   0  0  0  0  0  0  0  0  0  0  0  0
  147.0203  133.8857  154.6570 H   0  0  0  0  0  0  0  0  0  0  0  0
  145.8402  132.5889  154.6504 H   0  0  0  0  0  0  0  0  0  0  0  0
  149.5757  136.1245  153.2616 H   0  0  0  0  0  0  0  0  0  0  0  0
  151.2970  136.4003  156.6420 H   0  0  0  0  0  0  0  0  0  0  0  0
  152.0762  138.6091  157.4455 H   0  0  0  0  0  0  0  0  0  0  0  0
  151.6795  140.6327  156.0209 H   0  0  0  0  0  0  0  0  0  0  0  0
  149.8209  138.4021  153.0891 H   0  0  0  0  0  0  0  0  0  0  0  0
  148.1449  131.5152  151.9376 H   0  0  0  0  0  0  0  0  0  0  0  0
  1  2  2  0  0  0  0
  2  3  1  0  0  0  0
  2 16  1  0  0  0  0
  3  4  1  0  0  0  0
  3 23  1  0  0  0  0
  4  5  1  0  0  0  0
  4 24  1  0  0  0  0
  4 25  1  0  0  0  0
  5 15  1  0  0  0  0
  5  6  1  0  0  0  0
  5 12  1  0  0  0  0
  6 11  1  0  0  0  0
  6  7  1  0  0  0  0
  6 45  1  0  0  0  0
  7  8  1  0  0  0  0
  7 26  1  0  0  0  0
  7 27  1  0  0  0  0
  8  9  1  0  0  0  0
  8 28  1  0  0  0  0
  8 29  1  0  0  0  0
  9 10  1  0  0  0  0
 10 11  1  0  0  0  0
 10 30  1  0  0  0  0
 10 31  1  0  0  0  0
 11 32  1  0  0  0  0
 11 33  1  0  0  0  0
 12 13  1  0  0  0  0
 12 34  1  0  0  0  0
 12 35  1  0  0  0  0
 13 14  1  0  0  0  0
 13 36  1  0  0  0  0
 13 37  1  0  0  0  0
 14 15  1  0  0  0  0
 15 38  1  0  0  0  0
 15 39  1  0  0  0  0
 16 17  1  0  0  0  0
 16 40  1  0  0  0  0
 17 22  1  0  0  0  0
 17 18  2  0  0  0  0
 18 19  1  0  0  0  0
 18 41  1  0  0  0  0
 19 20  2  0  0  0  0
 19 42  1  0  0  0  0
 20 21  1  0  0  0  0
 20 43  1  0  0  0  0
 21 22  2  0  0  0  0
 22 44  1  0  0  0  0
M  CHG  1   6   1
M  END
> <s_m_source_file>
AV-unprocessed.smi

> <i_m_source_file_index>
1787

> <i_lp_mmshare_version>
43012

> <i_f3d_flags>
0

> <s_epik_input>
W2NIXTFuW2NIXVtjSF1bY0hdYzFbTkhdQyg9TylbTkhdW0NIMl1bQ0BdMihbQ0gyXVtDSDJdU1tDSDJdMilOM1tDSDJdW0NIMl1PW0NIMl1bQ0gyXTM=

> <s_epik_cmdline>
J2VwaWtfcHl0aG9uJywgJy1waCcsICc3LjAnLCAnLXRuJywgJzgnLCAnLW1hJywgJzIwMCcsICctbWV0YWxfYmluZGluZycsICctaW1hZScsICc8aW5maWxlLm1hZT4nLCAnLW9tYWUnLCAnPG91dGZpbGUubWFlPic=

> <r_epik_Ionization_Penalty>
2.03633

> <r_epik_Ionization_Penalty_Charging>
2.03219

> <r_epik_Ionization_Penalty_Neutral>
0.00414252

> <r_epik_State_Penalty>
2.16328

> <r_epik_Charging_Adjusted_Penalty>
4.19546

> <i_epik_Tot_Q>
1

> <i_epik_Tot_abs_Q>
1

> <r_epik_Metal_State_Penalty>
2.16381

> <b_epik_Metal_Only>
0

> <s_lp_Force_Field>
OPLS_2005

> <r_lp_Energy>
45.3922

> <b_lp_Chiralities_Consistent>
1

> <s_lp_Variant>
AV-unprocessed.smi:1787-3

> <Gold.Version>
5.8.1

> <Gold.Id.Protein>
6NUR|6NUR_protein|mol2

> <Gold.PLP.Fitness>
44.2507

> <Gold.PLP.PLP>
-31.2969

> <Gold.PLP.part.hbond>
-4.6798

> <Gold.PLP.part.metal>
0.0000

> <Gold.PLP.part.buried>
-3.7758

> <Gold.PLP.part.nonpolar>
-24.1009

> <Gold.PLP.part.repulsive>
0.3745

> <Gold.PLP.ligand.clash>
0.0000

> <Gold.PLP.ligand.torsion>
0.4116

> <Gold.PLP.Chemscore.Hbond>
2.9136

> <Gold.PLP.Chemscore.CHOScore>
1.6382

> <Gold.PLP.Chemscore.Metal>
0.0000

> <Gold.Chemscore.Hbonds>
donor molecule, donor type, donor heavy atom, donor atom, acceptor molecule, acceptor atom, score
      L1  H     3    23       P1  7948  0.16
      L1  H     6    45       P1 10747  1.00
      L1  H    16    40       P1  7948  0.91
      P1  H  7989  7998       L1    21  1.00
      L1  C    22    44       P1  7948  0.75
      L1  C    22    44       P1  7957  1.00

> <Gold.PLP.Chemscore.Internal.Correction>
0.1217

> <Gold.Rescore>
     Score         DG    S(hbond)    S(metal)    S(lipo)     H(rot)  DE(clash)    DE(int)     intcor
     15.29     -17.10       1.91        0.00      77.15       1.49       0.08       1.73       ----

> <Gold.Chemscore.Fitness>
15.2893

> <Gold.Chemscore.DG>
-17.0980

> <Gold.Chemscore.ZeroCoef>
-5.4800

> <Gold.Chemscore.Hbond>
1.9149

> <Gold.Chemscore.Metal>
0.0000

> <Gold.Chemscore.Lipo>
77.1488

> <Gold.Chemscore.Internal_Hbond>
0.0000

> <Gold.Chemscore.DEClash>
0.0767

> <Gold.Chemscore.DEInternal>
1.7319

> <Gold.Chemscore.Rot>
1.4860

> <Gold.Chemscore.Internal.Correction>
   9.000000E+99

> <Gold.Chemscore.Hbonds>
donor molecule, donor type, donor heavy atom, donor atom, acceptor molecule, acceptor atom, score
      L1  H     6    45       P1 10747  0.95
      L1  H    16    40       P1  7948  0.23
      P1  H  7989  7998       L1    21  0.45

> <Gold.Chemscore.Hbond.Weighted>
-6.3958

> <Gold.Chemscore.Metal.Weighted>
-0.0000

> <Gold.Chemscore.Lipo.Weighted>
-9.0264

> <Gold.Chemscore.Internal_Hbond.Weighted>
0.0000

> <Gold.Chemscore.DEClash.Weighted>
0.0767

> <Gold.Chemscore.DEInternal.Weighted>
1.7319

> <Gold.Chemscore.Rot.Weighted>
3.8042

> <Gold.Chemscore.Internal.Correction.Weighted>
   9.000000E+99

> <Gold.Protein.RotatedTorsions>
[ 6907 6896 6895 6894 ] final  -43.89 input  -60.11 | X-H torsion
[ 7974 7965 7964 7962 ] final  166.17 input  175.53 | X-H torsion
[ 8008 7997 7996 7995 ] final   15.33 input   59.86 | X-H torsion
[ 10167 10162 10161 10158 ] final -138.16 input  -65.29 | X-H torsion
[ 10718 10713 10712 10709 ] final  115.20 input   66.30 | X-H torsion
[ 10763 10752 10751 10750 ] final  -56.04 input  -60.55 | X-H torsion
[ 11005 11000 10999 10996 ] final  -17.22 input  -57.11 | X-H torsion

> <Gold.Protein.ActiveResidues>
 VAL166  LYS551  ARG553  GLY616  TRP617  ASP618  TYR619  PRO620  LYS621  CYS622 
 ASP623  PHE694  ASN695  SER759  ASP760  ASP761  ALA762  ILE779  LEU786  VAL792 
 PHE793  MET794  SER795  GLU796  ALA797  LYS798  CYS799  TRP800  GLU811  SER814 

> <Gold.Protein.RotatedAtoms>
  150.9389  134.8800  159.7599 H   0  0  0  0  0  0  0  0  0  0  0  0  # atno 6907 bound_to 6896
  152.5071  134.3970  159.9413 H   0  0  0  0  0  0  0  0  0  0  0  0  # atno 6908 bound_to 6896
  151.3992  133.3723  159.2765 H   0  0  0  0  0  0  0  0  0  0  0  0  # atno 6909 bound_to 6896
  144.7473  139.8577  143.6378 H   0  0  0  0  0  0  0  0  0  0  0  0  # atno 7974 bound_to 7965
  154.8611  140.2944  155.5538 H   0  0  0  0  0  0  0  0  0  0  0  0  # atno 8008 bound_to 7997
  156.3019  140.2478  156.3518 H   0  0  0  0  0  0  0  0  0  0  0  0  # atno 8009 bound_to 7997
  154.8917  140.0394  157.1832 H   0  0  0  0  0  0  0  0  0  0  0  0  # atno 8010 bound_to 7997
  139.8506  143.7204  152.2658 H   0  0  0  0  0  0  0  0  0  0  0  0  # atno 10167 bound_to 10162
  157.6236  131.1009  150.7295 H   0  0  0  0  0  0  0  0  0  0  0  0  # atno 10718 bound_to 10713
  154.2004  135.6412  153.5085 H   0  0  0  0  0  0  0  0  0  0  0  0  # atno 10763 bound_to 10752
  153.0013  135.5450  154.6321 H   0  0  0  0  0  0  0  0  0  0  0  0  # atno 10764 bound_to 10752
  154.5733  135.2918  155.0779 H   0  0  0  0  0  0  0  0  0  0  0  0  # atno 10765 bound_to 10752
  140.8147  133.8114  155.9598 H   0  0  0  0  0  0  0  0  0  0  0  0  # atno 11005 bound_to 11000
  146.1371  139.4419  143.0132 LP  0  0  0  0  0  0  0  0  0  0  0  0  # atno 17320 bound_to 7965
  145.7075  141.0116  143.1471 LP  0  0  0  0  0  0  0  0  0  0  0  0  # atno 17321 bound_to 7965
  139.7469  144.7544  151.0565 LP  0  0  0  0  0  0  0  0  0  0  0  0  # atno 17342 bound_to 10162
  140.7788  143.4905  150.9899 LP  0  0  0  0  0  0  0  0  0  0  0  0  # atno 17343 bound_to 10162
  156.7647  130.4810  149.5430 LP  0  0  0  0  0  0  0  0  0  0  0  0  # atno 17370 bound_to 10713
  156.1396  130.6235  151.0448 LP  0  0  0  0  0  0  0  0  0  0  0  0  # atno 17371 bound_to 10713
  140.9162  134.2199  157.4955 LP  0  0  0  0  0  0  0  0  0  0  0  0  # atno 17394 bound_to 11000
  139.8712  134.9772  156.4949 LP  0  0  0  0  0  0  0  0  0  0  0  0  # atno 17395 bound_to 11000

$$$$
