AV-unprocessed.smi:242|AV-procd|sdf|1846|dock4
  -GOLD-   2262020463D 1   1.00000     0.00000
 Structure written by MMmdl.
 58 61  0  0  0  0  0  0  0  0  2 V2000
  152.8161  144.5371  158.3226 C   0  0  0  0  0  0  0  0  0  0  0  0
  151.5722  143.8250  158.8865 C   0  0  0  0  0  0  0  0  0  0  0  0
  150.8791  144.7395  159.9151 C   0  0  0  0  0  0  0  0  0  0  0  0
  151.9338  142.5032  159.4722 N   0  3  2  0  0  0  0  0  0  0  0  0
  152.9663  142.5469  160.5395 C   0  0  0  0  0  0  0  0  0  0  0  0
  153.9243  141.3751  160.2883 C   0  0  0  0  0  0  0  0  0  0  0  0
  153.1552  140.4564  159.3408 C   0  0  2  0  0  0  0  0  0  0  0  0
  154.0118  139.5628  158.5585 N   0  0  0  0  0  0  0  0  0  0  0  0
  154.6826  138.4958  159.2923 C   0  0  0  0  0  0  0  0  0  0  0  0
  153.4412  139.0911  157.4275 C   0  0  0  0  0  0  0  0  0  0  0  0
  153.8672  139.5368  156.2164 N   0  0  0  0  0  0  0  0  0  0  0  0
  153.2956  139.0743  155.0997 C   0  0  0  0  0  0  0  0  0  0  0  0
  152.3075  138.1851  154.9740 N   0  0  0  0  0  0  0  0  0  0  0  0
  151.8823  137.7381  156.1908 C   0  0  0  0  0  0  0  0  0  0  0  0
  152.3960  138.1324  157.4570 C   0  0  0  0  0  0  0  0  0  0  0  0
  151.7335  137.4597  158.4750 N   0  0  0  0  0  0  0  0  0  0  0  0
  150.8675  136.7129  157.8451 C   0  0  0  0  0  0  0  0  0  0  0  0
  150.8778  136.8289  156.4725 N   0  0  0  0  0  0  0  0  0  0  0  0
  150.0142  136.1313  155.5322 C   0  0  0  0  0  0  0  0  0  0  0  0
  150.7538  135.0910  154.6536 C   0  0  0  0  0  0  0  0  0  0  0  0
  151.7470  135.7774  153.9117 O   0  0  0  0  0  0  0  0  0  0  0  0
  151.4508  134.0389  155.5393 C   0  0  0  0  0  0  0  0  0  0  0  0
  152.0536  132.8902  154.7114 C   0  0  0  0  0  0  0  0  0  0  0  0
  151.0481  132.2968  153.8990 O   0  0  0  0  0  0  0  0  0  0  0  0
  150.5073  133.2022  152.9445 C   0  0  0  0  0  0  0  0  0  0  0  0
  149.8129  134.3747  153.6594 C   0  0  0  0  0  0  0  0  0  0  0  0
  152.3707  141.4729  158.5053 C   0  0  0  0  0  0  0  0  0  0  0  0
  152.5529  145.5077  157.9011 H   0  0  0  0  0  0  0  0  0  0  0  0
  153.2932  143.9656  157.5267 H   0  0  0  0  0  0  0  0  0  0  0  0
  153.5604  144.7075  159.1012 H   0  0  0  0  0  0  0  0  0  0  0  0
  150.8730  143.6521  158.0666 H   0  0  0  0  0  0  0  0  0  0  0  0
  150.6675  145.7187  159.4847 H   0  0  0  0  0  0  0  0  0  0  0  0
  151.5046  144.8952  160.7948 H   0  0  0  0  0  0  0  0  0  0  0  0
  149.9248  144.3320  160.2491 H   0  0  0  0  0  0  0  0  0  0  0  0
  153.5223  143.4853  160.5407 H   0  0  0  0  0  0  0  0  0  0  0  0
  152.4736  142.4510  161.5074 H   0  0  0  0  0  0  0  0  0  0  0  0
  154.8267  141.7452  159.7985 H   0  0  0  0  0  0  0  0  0  0  0  0
  154.2272  140.8760  161.2092 H   0  0  0  0  0  0  0  0  0  0  0  0
  152.4529  139.8597  159.9258 H   0  0  0  0  0  0  0  0  0  0  0  0
  155.1831  137.8001  158.6167 H   0  0  0  0  0  0  0  0  0  0  0  0
  153.9705  137.9331  159.8969 H   0  0  0  0  0  0  0  0  0  0  0  0
  155.4412  138.9109  159.9556 H   0  0  0  0  0  0  0  0  0  0  0  0
  153.6823  139.4762  154.1749 H   0  0  0  0  0  0  0  0  0  0  0  0
  150.1836  136.0605  158.3685 H   0  0  0  0  0  0  0  0  0  0  0  0
  149.2115  135.6516  156.0940 H   0  0  0  0  0  0  0  0  0  0  0  0
  149.5351  136.8800  154.8997 H   0  0  0  0  0  0  0  0  0  0  0  0
  151.3298  136.2256  153.1921 H   0  0  0  0  0  0  0  0  0  0  0  0
  152.2243  134.5053  156.1508 H   0  0  0  0  0  0  0  0  0  0  0  0
  150.7259  133.6161  156.2364 H   0  0  0  0  0  0  0  0  0  0  0  0
  152.8793  133.2420  154.0911 H   0  0  0  0  0  0  0  0  0  0  0  0
  152.4618  132.1279  155.3750 H   0  0  0  0  0  0  0  0  0  0  0  0
  151.2937  133.5588  152.2777 H   0  0  0  0  0  0  0  0  0  0  0  0
  149.7880  132.6679  152.3238 H   0  0  0  0  0  0  0  0  0  0  0  0
  148.9474  133.9884  154.1993 H   0  0  0  0  0  0  0  0  0  0  0  0
  149.4253  135.0733  152.9170 H   0  0  0  0  0  0  0  0  0  0  0  0
  151.5213  141.0203  157.9920 H   0  0  0  0  0  0  0  0  0  0  0  0
  153.0230  141.9258  157.7559 H   0  0  0  0  0  0  0  0  0  0  0  0
  151.1001  142.1346  159.9072 H   0  0  0  0  0  0  0  0  0  0  0  0
  1  2  1  0  0  0  0
  1 28  1  0  0  0  0
  1 29  1  0  0  0  0
  1 30  1  0  0  0  0
  2  3  1  0  0  0  0
  2  4  1  0  0  0  0
  2 31  1  0  0  0  0
  3 32  1  0  0  0  0
  3 33  1  0  0  0  0
  3 34  1  0  0  0  0
  4 27  1  0  0  0  0
  4  5  1  0  0  0  0
  4 58  1  0  0  0  0
  5  6  1  0  0  0  0
  5 35  1  0  0  0  0
  5 36  1  0  0  0  0
  6  7  1  0  0  0  0
  6 37  1  0  0  0  0
  6 38  1  0  0  0  0
  7  8  1  0  0  0  0
  7 27  1  0  0  0  0
  7 39  1  0  0  0  0
  8  9  1  0  0  0  0
  8 10  1  0  0  0  0
  9 40  1  0  0  0  0
  9 41  1  0  0  0  0
  9 42  1  0  0  0  0
 10 15  1  0  0  0  0
 10 11  2  0  0  0  0
 11 12  1  0  0  0  0
 12 13  2  0  0  0  0
 12 43  1  0  0  0  0
 13 14  1  0  0  0  0
 14 18  1  0  0  0  0
 14 15  2  0  0  0  0
 15 16  1  0  0  0  0
 16 17  2  0  0  0  0
 17 18  1  0  0  0  0
 17 44  1  0  0  0  0
 18 19  1  0  0  0  0
 19 20  1  0  0  0  0
 19 45  1  0  0  0  0
 19 46  1  0  0  0  0
 20 26  1  0  0  0  0
 20 21  1  0  0  0  0
 20 22  1  0  0  0  0
 21 47  1  0  0  0  0
 22 23  1  0  0  0  0
 22 48  1  0  0  0  0
 22 49  1  0  0  0  0
 23 24  1  0  0  0  0
 23 50  1  0  0  0  0
 23 51  1  0  0  0  0
 24 25  1  0  0  0  0
 25 26  1  0  0  0  0
 25 52  1  0  0  0  0
 25 53  1  0  0  0  0
 26 54  1  0  0  0  0
 26 55  1  0  0  0  0
 27 56  1  0  0  0  0
 27 57  1  0  0  0  0
M  CHG  1   4   1
M  END
> <s_m_source_file>
AV-unprocessed.smi

> <i_m_source_file_index>
242

> <i_lp_mmshare_version>
43012

> <i_f3d_flags>
0

> <s_epik_input>
W0NIM11bQ0hdKFtDSDNdKU4xW0NIMl1bQ0gyXVtDQEhdKFtDSDJdMSlOKFtDSDNdKWMobltjSF1uMiljKGMyMyluW2NIXW4zW0NIMl1DNChbT0hdKVtDSDJdW0NIMl1PW0NIMl1bQ0gyXTQ=

> <s_epik_cmdline>
J2VwaWtfcHl0aG9uJywgJy1waCcsICc3LjAnLCAnLXRuJywgJzgnLCAnLW1hJywgJzIwMCcsICctbWV0YWxfYmluZGluZycsICctaW1hZScsICc8aW5maWxlLm1hZT4nLCAnLW9tYWUnLCAnPG91dGZpbGUubWFlPic=

> <r_lp_tautomer_probability>
1

> <r_epik_Ionization_Penalty>
0.000825961

> <r_epik_Ionization_Penalty_Charging>
0.00034898

> <r_epik_Ionization_Penalty_Neutral>
0.000476981

> <r_epik_State_Penalty>
-0

> <r_epik_Charging_Adjusted_Penalty>
0.00034898

> <i_epik_Tot_Q>
1

> <i_epik_Tot_abs_Q>
1

> <r_epik_Metal_State_Penalty>
-0

> <b_epik_Metal_Only>
0

> <s_lp_Force_Field>
OPLS_2005

> <r_lp_Energy>
47.5475

> <b_lp_Chiralities_Consistent>
1

> <s_lp_Variant>
AV-unprocessed.smi:242-3

> <Gold.Version>
5.8.1

> <Gold.Id.Protein>
6NUR|6NUR_protein|mol2

> <Gold.PLP.Fitness>
50.6012

> <Gold.PLP.PLP>
-44.8425

> <Gold.PLP.part.hbond>
-4.0000

> <Gold.PLP.part.metal>
0.0000

> <Gold.PLP.part.buried>
-5.6908

> <Gold.PLP.part.nonpolar>
-35.1478

> <Gold.PLP.part.repulsive>
0.1741

> <Gold.PLP.ligand.clash>
0.0000

> <Gold.PLP.ligand.torsion>
0.4638

> <Gold.PLP.Chemscore.Hbond>
2.1112

> <Gold.PLP.Chemscore.CHOScore>
0.0000

> <Gold.PLP.Chemscore.Metal>
0.0000

> <Gold.Chemscore.Hbonds>
donor molecule, donor type, donor heavy atom, donor atom, acceptor molecule, acceptor atom, score
      L1  H    21    47       P1  7949  0.72
      P1  H  7997  8010       L1    11  0.01
      P1  H 10752 10764       L1    21  0.34

> <Gold.PLP.Chemscore.Internal.Correction>
0.3527

> <Gold.Rescore>
     Score         DG    S(hbond)    S(metal)    S(lipo)     H(rot)  DE(clash)    DE(int)     intcor
     13.90     -14.65       1.07        0.00     102.62       2.50       0.23       0.52       ----

> <Gold.Chemscore.Fitness>
13.9048

> <Gold.Chemscore.DG>
-14.6526

> <Gold.Chemscore.ZeroCoef>
-5.4800

> <Gold.Chemscore.Hbond>
1.0675

> <Gold.Chemscore.Metal>
0.0000

> <Gold.Chemscore.Lipo>
102.6159

> <Gold.Chemscore.Internal_Hbond>
0.0000

> <Gold.Chemscore.DEClash>
0.2284

> <Gold.Chemscore.DEInternal>
0.5194

> <Gold.Chemscore.Rot>
2.4996

> <Gold.Chemscore.Internal.Correction>
   9.000000E+99

> <Gold.Chemscore.Hbonds>
donor molecule, donor type, donor heavy atom, donor atom, acceptor molecule, acceptor atom, score
      L1  H    21    47       P1  7949  0.50
      P1  H 10752 10764       L1    21  0.28

> <Gold.Chemscore.Hbond.Weighted>
-3.5654

> <Gold.Chemscore.Metal.Weighted>
-0.0000

> <Gold.Chemscore.Lipo.Weighted>
-12.0061

> <Gold.Chemscore.Internal_Hbond.Weighted>
0.0000

> <Gold.Chemscore.DEClash.Weighted>
0.2284

> <Gold.Chemscore.DEInternal.Weighted>
0.5194

> <Gold.Chemscore.Rot.Weighted>
6.3990

> <Gold.Chemscore.Internal.Correction.Weighted>
   9.000000E+99

> <Gold.Protein.RotatedTorsions>
[ 6907 6896 6895 6894 ] final -165.54 input  -60.11 | X-H torsion
[ 7974 7965 7964 7962 ] final   -5.46 input  175.53 | X-H torsion
[ 8008 7997 7996 7995 ] final  126.27 input   59.86 | X-H torsion
[ 10167 10162 10161 10158 ] final  -64.07 input  -65.29 | X-H torsion
[ 10718 10713 10712 10709 ] final   44.62 input   66.30 | X-H torsion
[ 10763 10752 10751 10750 ] final  -70.44 input  -60.55 | X-H torsion
[ 11005 11000 10999 10996 ] final   87.72 input  -57.11 | X-H torsion

> <Gold.Protein.ActiveResidues>
 VAL166  LYS551  ARG553  GLY616  TRP617  ASP618  TYR619  PRO620  LYS621  CYS622 
 ASP623  PHE694  ASN695  SER759  ASP760  ASP761  ALA762  ILE779  LEU786  VAL792 
 PHE793  MET794  SER795  GLU796  ALA797  LYS798  CYS799  TRP800  GLU811  SER814 

> <Gold.Protein.RotatedAtoms>
  151.4293  133.3675  159.2766 H   0  0  0  0  0  0  0  0  0  0  0  0  # atno 6907 bound_to 6896
  150.9237  134.8655  159.7516 H   0  0  0  0  0  0  0  0  0  0  0  0  # atno 6908 bound_to 6896
  152.4994  134.4232  159.9539 H   0  0  0  0  0  0  0  0  0  0  0  0  # atno 6909 bound_to 6896
  146.2352  140.2025  142.8334 H   0  0  0  0  0  0  0  0  0  0  0  0  # atno 7974 bound_to 7965
  156.2859  140.2696  156.2085 H   0  0  0  0  0  0  0  0  0  0  0  0  # atno 8008 bound_to 7997
  155.0289  140.0386  157.2484 H   0  0  0  0  0  0  0  0  0  0  0  0  # atno 8009 bound_to 7997
  154.7372  140.2718  155.6410 H   0  0  0  0  0  0  0  0  0  0  0  0  # atno 8010 bound_to 7997
  140.5826  143.2329  151.6309 H   0  0  0  0  0  0  0  0  0  0  0  0  # atno 10167 bound_to 10162
  157.4288  130.8012  149.7583 H   0  0  0  0  0  0  0  0  0  0  0  0  # atno 10718 bound_to 10713
  154.4176  135.5994  153.5990 H   0  0  0  0  0  0  0  0  0  0  0  0  # atno 10763 bound_to 10752
  152.9792  135.5944  154.3994 H   0  0  0  0  0  0  0  0  0  0  0  0  # atno 10764 bound_to 10752
  154.3815  135.2841  155.2187 H   0  0  0  0  0  0  0  0  0  0  0  0  # atno 10765 bound_to 10752
  139.8913  134.8440  156.2899 H   0  0  0  0  0  0  0  0  0  0  0  0  # atno 11005 bound_to 11000
  144.9771  140.8424  143.5420 LP  0  0  0  0  0  0  0  0  0  0  0  0  # atno 17320 bound_to 7965
  145.2014  139.2250  143.5191 LP  0  0  0  0  0  0  0  0  0  0  0  0  # atno 17321 bound_to 7965
  139.5179  144.3302  152.0833 LP  0  0  0  0  0  0  0  0  0  0  0  0  # atno 17342 bound_to 10162
  140.2454  144.4225  150.6243 LP  0  0  0  0  0  0  0  0  0  0  0  0  # atno 17343 bound_to 10162
  155.9906  130.3943  150.3022 LP  0  0  0  0  0  0  0  0  0  0  0  0  # atno 17370 bound_to 10713
  157.1177  131.0238  151.3022 LP  0  0  0  0  0  0  0  0  0  0  0  0  # atno 17371 bound_to 10713
  140.9983  133.7167  156.0920 LP  0  0  0  0  0  0  0  0  0  0  0  0  # atno 17394 bound_to 11000
  140.7532  134.4021  157.5538 LP  0  0  0  0  0  0  0  0  0  0  0  0  # atno 17395 bound_to 11000

$$$$
