AV-unprocessed.smi:72|AV-procd|sdf|750|dock2
  -GOLD-   2262017 83D 1   1.00000     0.00000
 Structure written by MMmdl.
 29 30  0  0  0  0  0  0  0  0  1 V2000
  145.9144  142.3998  156.5125 N   0  0  0  0  0  0  0  0  0  0  0  0
  147.0979  141.8469  156.0701 C   0  0  0  0  0  0  0  0  0  0  0  0
  147.8653  141.1673  157.0264 N   0  0  0  0  0  0  0  0  0  0  0  0
  148.9806  140.6523  156.6152 C   0  0  0  0  0  0  0  0  0  0  0  0
  149.4082  140.7857  155.2339 N   0  0  0  0  0  0  0  0  0  0  0  0
  150.7114  140.1807  154.7548 C   0  0  1  0  0  0  0  0  0  0  0  0
  151.4699  139.8146  155.8643 O   0  0  0  0  0  0  0  0  0  0  0  0
  152.2721  138.6976  155.5153 C   0  0  1  0  0  0  0  0  0  0  0  0
  152.7302  137.9666  156.7863 C   0  0  0  0  0  0  0  0  0  0  0  0
  153.4513  138.8501  157.6179 O   0  0  0  0  0  0  0  0  0  0  0  0
  151.3295  137.8674  154.6367 C   0  0  2  0  0  0  0  0  0  0  0  0
  152.0747  137.0629  153.7441 O   0  0  0  0  0  0  0  0  0  0  0  0
  150.5288  138.9214  153.8762 C   0  0  1  0  0  0  0  0  0  0  0  0
  149.1843  138.5070  153.7125 O   0  0  0  0  0  0  0  0  0  0  0  0
  148.5705  141.4700  154.3117 C   0  0  0  0  0  0  0  0  0  0  0  0
  148.8957  141.5624  153.1281 O   0  0  0  0  0  0  0  0  0  0  0  0
  147.3791  142.0116  154.8090 N   0  0  0  0  0  0  0  0  0  0  0  0
  151.2563  140.9728  154.2390 H   0  0  0  0  0  0  0  0  0  0  0  0
  153.1247  139.0422  154.9256 H   0  0  0  0  0  0  0  0  0  0  0  0
  150.6766  137.2522  155.2589 H   0  0  0  0  0  0  0  0  0  0  0  0
  150.9649  139.1341  152.8988 H   0  0  0  0  0  0  0  0  0  0  0  0
  145.2810  142.9096  155.9142 H   0  0  0  0  0  0  0  0  0  0  0  0
  145.5940  142.3368  157.4679 H   0  0  0  0  0  0  0  0  0  0  0  0
  149.6560  140.0908  157.2623 H   0  0  0  0  0  0  0  0  0  0  0  0
  151.8844  137.5394  157.3259 H   0  0  0  0  0  0  0  0  0  0  0  0
  153.3975  137.1445  156.5264 H   0  0  0  0  0  0  0  0  0  0  0  0
  152.9277  139.0340  158.3830 H   0  0  0  0  0  0  0  0  0  0  0  0
  151.5475  136.8983  152.9773 H   0  0  0  0  0  0  0  0  0  0  0  0
  149.1592  137.8202  153.0638 H   0  0  0  0  0  0  0  0  0  0  0  0
  1  2  1  0  0  0  0
  1 22  1  0  0  0  0
  1 23  1  0  0  0  0
  2 17  2  0  0  0  0
  2  3  1  0  0  0  0
  3  4  2  0  0  0  0
  4  5  1  0  0  0  0
  4 24  1  0  0  0  0
  5  6  1  0  0  0  0
  5 15  1  0  0  0  0
  6 18  1  0  0  0  0
  6 13  1  0  0  0  0
  6  7  1  0  0  0  0
  7  8  1  0  0  0  0
  8 19  1  0  0  0  0
  8  9  1  0  0  0  0
  8 11  1  0  0  0  0
  9 10  1  0  0  0  0
  9 25  1  0  0  0  0
  9 26  1  0  0  0  0
 10 27  1  0  0  0  0
 11 20  1  0  0  0  0
 11 12  1  0  0  0  0
 11 13  1  0  0  0  0
 12 28  1  0  0  0  0
 13 21  1  0  0  0  0
 13 14  1  0  0  0  0
 14 29  1  0  0  0  0
 15 16  2  0  0  0  0
 15 17  1  0  0  0  0
M  END
> <s_m_source_file>
AV-unprocessed.smi

> <i_m_source_file_index>
72

> <i_lp_mmshare_version>
43012

> <i_f3d_flags>
0

> <s_epik_input>
W05IMl1jMW5bY0hdbihjKD1PKW4xKVtDQEBIXTJPW0NASF0oW0NIMl1bT0hdKVtDQEBIXShbT0hdKVtDQEhdMltPSF0=

> <s_epik_cmdline>
J2VwaWtfcHl0aG9uJywgJy1waCcsICc3LjAnLCAnLXRuJywgJzgnLCAnLW1hJywgJzIwMCcsICctbWV0YWxfYmluZGluZycsICctaW1hZScsICc8aW5maWxlLm1hZT4nLCAnLW9tYWUnLCAnPG91dGZpbGUubWFlPic=

> <r_lp_tautomer_probability>
4.77166e-05

> <r_epik_Ionization_Penalty>
1.3546

> <r_epik_Ionization_Penalty_Charging>
1.46833e-10

> <r_epik_Ionization_Penalty_Neutral>
1.3546

> <r_epik_State_Penalty>
3.51908

> <r_epik_Charging_Adjusted_Penalty>
3.51908

> <i_epik_Tot_Q>
0

> <i_epik_Tot_abs_Q>
0

> <r_epik_Metal_State_Penalty>
3.44088

> <b_epik_Metal_Only>
1

> <s_epik_Chemistry_Notes>
This compound contains an acetal/aminal-like group ( X-CH(R)-Y where X, Y are N, S, or O) that may be acid/base labile, releasing an aldehyde.

> <s_lp_Force_Field>
OPLS_2005

> <r_lp_Energy>
31.5358

> <b_lp_Chiralities_Consistent>
1

> <s_lp_Variant>
AV-unprocessed.smi:72-88

> <Gold.Version>
5.8.1

> <Gold.Id.Protein>
6NUR|6NUR_protein|mol2

> <Gold.PLP.Fitness>
36.8220

> <Gold.PLP.PLP>
-22.8068

> <Gold.PLP.part.hbond>
-5.0935

> <Gold.PLP.part.metal>
0.0000

> <Gold.PLP.part.buried>
-3.6189

> <Gold.PLP.part.nonpolar>
-15.5940

> <Gold.PLP.part.repulsive>
1.5764

> <Gold.PLP.ligand.clash>
0.0000

> <Gold.PLP.ligand.torsion>
0.2984

> <Gold.PLP.Chemscore.Hbond>
4.7913

> <Gold.PLP.Chemscore.CHOScore>
0.0000

> <Gold.PLP.Chemscore.Metal>
0.0000

> <Gold.Chemscore.Hbonds>
donor molecule, donor type, donor heavy atom, donor atom, acceptor molecule, acceptor atom, score
      L1  H    12    28       P1  7949  1.00
      L1  H    14    29       P1  7948  1.00
      P1  H  7997  8010       L1    10  1.00
      P1  H  8011  8017       L1    16  0.74
      P1  H 10752 10763       L1    12  1.00

> <Gold.PLP.Chemscore.Internal.Correction>
0.2382

> <Gold.Rescore>
     Score         DG    S(hbond)    S(metal)    S(lipo)     H(rot)  DE(clash)    DE(int)     intcor
     11.31     -13.30       4.47        0.00      28.24       4.06       1.61       0.39       ----

> <Gold.Chemscore.Fitness>
11.3062

> <Gold.Chemscore.DG>
-13.3045

> <Gold.Chemscore.ZeroCoef>
-5.4800

> <Gold.Chemscore.Hbond>
4.4654

> <Gold.Chemscore.Metal>
0.0000

> <Gold.Chemscore.Lipo>
28.2368

> <Gold.Chemscore.Internal_Hbond>
0.0000

> <Gold.Chemscore.DEClash>
1.6055

> <Gold.Chemscore.DEInternal>
0.3929

> <Gold.Chemscore.Rot>
4.0600

> <Gold.Chemscore.Internal.Correction>
   9.000000E+99

> <Gold.Chemscore.Hbonds>
donor molecule, donor type, donor heavy atom, donor atom, acceptor molecule, acceptor atom, score
      L1  H    12    28       P1  7949  0.91
      L1  H    14    29       P1  7948  0.97
      P1  H  7997  8010       L1    10  0.95
      P1  H  8011  8017       L1    16  0.71
      P1  H 10752 10763       L1    12  0.59

> <Gold.Chemscore.Hbond.Weighted>
-14.9144

> <Gold.Chemscore.Metal.Weighted>
-0.0000

> <Gold.Chemscore.Lipo.Weighted>
-3.3037

> <Gold.Chemscore.Internal_Hbond.Weighted>
0.0000

> <Gold.Chemscore.DEClash.Weighted>
1.6055

> <Gold.Chemscore.DEInternal.Weighted>
0.3929

> <Gold.Chemscore.Rot.Weighted>
10.3936

> <Gold.Chemscore.Internal.Correction.Weighted>
   9.000000E+99

> <Gold.Protein.RotatedTorsions>
[ 6907 6896 6895 6894 ] final -122.96 input  -60.11 | X-H torsion
[ 7974 7965 7964 7962 ] final  -29.11 input  175.53 | X-H torsion
[ 8008 7997 7996 7995 ] final   25.07 input   59.86 | X-H torsion
[ 10167 10162 10161 10158 ] final   88.55 input  -65.29 | X-H torsion
[ 10718 10713 10712 10709 ] final   34.70 input   66.30 | X-H torsion
[ 10763 10752 10751 10750 ] final   21.74 input  -60.55 | X-H torsion
[ 11005 11000 10999 10996 ] final  117.67 input  -57.11 | X-H torsion

> <Gold.Protein.ActiveResidues>
 VAL166  LYS551  ARG553  GLY616  TRP617  ASP618  TYR619  PRO620  LYS621  CYS622 
 ASP623  PHE694  ASN695  SER759  ASP760  ASP761  ALA762  ILE779  LEU786  VAL792 
 PHE793  MET794  SER795  GLU796  ALA797  LYS798  CYS799  TRP800  GLU811  SER814 

> <Gold.Protein.RotatedAtoms>
  150.8625  133.7622  159.2987 H   0  0  0  0  0  0  0  0  0  0  0  0  # atno 6907 bound_to 6896
  151.5260  135.1066  159.9900 H   0  0  0  0  0  0  0  0  0  0  0  0  # atno 6908 bound_to 6896
  152.4637  133.7832  159.6918 H   0  0  0  0  0  0  0  0  0  0  0  0  # atno 6909 bound_to 6896
  146.1240  140.5370  142.8723 H   0  0  0  0  0  0  0  0  0  0  0  0  # atno 7974 bound_to 7965
  155.0061  140.3131  155.4848 H   0  0  0  0  0  0  0  0  0  0  0  0  # atno 8008 bound_to 7997
  156.2917  140.2223  156.5114 H   0  0  0  0  0  0  0  0  0  0  0  0  # atno 8009 bound_to 7997
  154.7576  140.0461  157.0934 H   0  0  0  0  0  0  0  0  0  0  0  0  # atno 8010 bound_to 7997
  139.8661  144.6518  150.9002 H   0  0  0  0  0  0  0  0  0  0  0  0  # atno 10167 bound_to 10162
  157.3136  130.7412  149.6740 H   0  0  0  0  0  0  0  0  0  0  0  0  # atno 10718 bound_to 10713
  153.0970  135.6662  153.9743 H   0  0  0  0  0  0  0  0  0  0  0  0  # atno 10763 bound_to 10752
  153.9324  135.3002  155.3446 H   0  0  0  0  0  0  0  0  0  0  0  0  # atno 10764 bound_to 10752
  154.7390  135.5088  153.9164 H   0  0  0  0  0  0  0  0  0  0  0  0  # atno 10765 bound_to 10752
  139.9082  134.9612  156.7386 H   0  0  0  0  0  0  0  0  0  0  0  0  # atno 11005 bound_to 11000
  144.7624  140.5453  143.6726 LP  0  0  0  0  0  0  0  0  0  0  0  0  # atno 17320 bound_to 7965
  145.5405  139.1475  143.3449 LP  0  0  0  0  0  0  0  0  0  0  0  0  # atno 17321 bound_to 7965
  140.7768  143.3703  151.1662 LP  0  0  0  0  0  0  0  0  0  0  0  0  # atno 17342 bound_to 10162
  139.7327  143.9047  152.3025 LP  0  0  0  0  0  0  0  0  0  0  0  0  # atno 17343 bound_to 10162
  155.9680  130.4244  150.4606 LP  0  0  0  0  0  0  0  0  0  0  0  0  # atno 17370 bound_to 10713
  157.2609  131.0567  151.2321 LP  0  0  0  0  0  0  0  0  0  0  0  0  # atno 17371 bound_to 10713
  140.6868  133.9426  155.7942 LP  0  0  0  0  0  0  0  0  0  0  0  0  # atno 17394 bound_to 11000
  141.0471  134.0539  157.3831 LP  0  0  0  0  0  0  0  0  0  0  0  0  # atno 17395 bound_to 11000

$$$$
