AV-unprocessed.smi:1313|AV-procd|sdf|5450|dock9
  -GOLD-   22720 5 23D 1   1.00000     0.00000
 Structure written by MMmdl.
 37 38  0  0  0  0  0  0  0  0  1 V2000
  146.4562  137.6913  152.6212 C   0  0  0  0  0  0  0  0  0  0  0  0
  147.2761  138.8313  153.1870 C   0  0  0  0  0  0  0  0  0  0  0  0
  146.7786  139.9696  153.5434 N   0  0  0  0  0  0  0  0  0  0  0  0
  147.6379  140.9484  154.0619 C   0  0  0  0  0  0  0  0  0  0  0  0
  146.9740  142.2532  154.4674 C   0  0  0  0  0  0  0  0  0  0  0  0
  148.9791  140.7271  154.1927 C   0  0  0  0  0  0  0  0  0  0  0  0
  149.9394  141.7670  154.7666 C   0  0  0  0  0  0  0  0  0  0  0  0
  150.4146  141.4910  156.1941 C   0  0  0  0  0  0  0  0  0  0  0  0
  150.6922  140.3422  156.5377 O   0  0  0  0  0  0  0  0  0  0  0  0
  150.4949  142.5479  157.0170 N   0  0  0  0  0  0  0  0  0  0  0  0
  150.8900  142.4900  158.4216 C   0  0  0  0  0  0  0  0  0  0  0  0
  150.9362  143.9024  159.0353 C   0  0  0  0  0  0  0  0  0  0  0  0
  152.2620  143.9906  159.7929 C   0  0  0  0  0  0  0  0  0  0  0  0
  153.1986  143.0658  159.0220 C   0  0  0  0  0  0  0  0  0  0  0  0
  152.3056  141.9017  158.5912 C   0  0  0  0  0  0  0  0  0  0  0  0
  149.5371  139.4255  153.7767 C   0  0  0  0  0  0  0  0  0  0  0  0
  150.7266  139.1206  153.8492 O   0  0  0  0  0  0  0  0  0  0  0  0
  148.6353  138.5420  153.2935 N   0  0  0  0  0  0  0  0  0  0  0  0
  148.9675  137.6352  152.9994 H   0  0  0  0  0  0  0  0  0  0  0  0
  145.6871  137.3933  153.3344 H   0  0  0  0  0  0  0  0  0  0  0  0
  147.0745  136.8195  152.4019 H   0  0  0  0  0  0  0  0  0  0  0  0
  145.9663  138.0032  151.6986 H   0  0  0  0  0  0  0  0  0  0  0  0
  147.3982  143.0912  153.9142 H   0  0  0  0  0  0  0  0  0  0  0  0
  147.1067  142.4363  155.5335 H   0  0  0  0  0  0  0  0  0  0  0  0
  145.9025  142.2316  154.2652 H   0  0  0  0  0  0  0  0  0  0  0  0
  150.8192  141.8683  154.1301 H   0  0  0  0  0  0  0  0  0  0  0  0
  149.4618  142.7465  154.7273 H   0  0  0  0  0  0  0  0  0  0  0  0
  150.2473  143.4555  156.6501 H   0  0  0  0  0  0  0  0  0  0  0  0
  150.1746  141.8792  158.9757 H   0  0  0  0  0  0  0  0  0  0  0  0
  150.9259  144.6627  158.2526 H   0  0  0  0  0  0  0  0  0  0  0  0
  150.0821  144.0980  159.6843 H   0  0  0  0  0  0  0  0  0  0  0  0
  152.6399  145.0110  159.8610 H   0  0  0  0  0  0  0  0  0  0  0  0
  152.1304  143.6149  160.8084 H   0  0  0  0  0  0  0  0  0  0  0  0
  153.5812  143.5819  158.1404 H   0  0  0  0  0  0  0  0  0  0  0  0
  154.0534  142.7410  159.6160 H   0  0  0  0  0  0  0  0  0  0  0  0
  152.2880  141.1508  159.3820 H   0  0  0  0  0  0  0  0  0  0  0  0
  152.6840  141.4097  157.6941 H   0  0  0  0  0  0  0  0  0  0  0  0
  1  2  1  0  0  0  0
  1 20  1  0  0  0  0
  1 21  1  0  0  0  0
  1 22  1  0  0  0  0
  2 18  1  0  0  0  0
  2  3  2  0  0  0  0
  3  4  1  0  0  0  0
  4  5  1  0  0  0  0
  4  6  2  0  0  0  0
  5 23  1  0  0  0  0
  5 24  1  0  0  0  0
  5 25  1  0  0  0  0
  6  7  1  0  0  0  0
  6 16  1  0  0  0  0
  7  8  1  0  0  0  0
  7 26  1  0  0  0  0
  7 27  1  0  0  0  0
  8  9  2  0  0  0  0
  8 10  1  0  0  0  0
 10 11  1  0  0  0  0
 10 28  1  0  0  0  0
 11 15  1  0  0  0  0
 11 12  1  0  0  0  0
 11 29  1  0  0  0  0
 12 13  1  0  0  0  0
 12 30  1  0  0  0  0
 12 31  1  0  0  0  0
 13 14  1  0  0  0  0
 13 32  1  0  0  0  0
 13 33  1  0  0  0  0
 14 15  1  0  0  0  0
 14 34  1  0  0  0  0
 14 35  1  0  0  0  0
 15 36  1  0  0  0  0
 15 37  1  0  0  0  0
 16 17  2  0  0  0  0
 16 18  1  0  0  0  0
 18 19  1  0  0  0  0
M  END
> <s_m_source_file>
AV-unprocessed.smi

> <i_m_source_file_index>
1313

> <i_lp_mmshare_version>
43012

> <i_f3d_flags>
0

> <s_epik_input>
W0NIM11jMW5jKFtDSDNdKWMoYyg9TylbbkhdMSlbQ0gyXUMoPU8pW05IXVtDSF0yW0NIMl1bQ0gyXVtDSDJdW0NIMl0y

> <s_epik_cmdline>
J2VwaWtfcHl0aG9uJywgJy1waCcsICc3LjAnLCAnLXRuJywgJzgnLCAnLW1hJywgJzIwMCcsICctbWV0YWxfYmluZGluZycsICctaW1hZScsICc8aW5maWxlLm1hZT4nLCAnLW9tYWUnLCAnPG91dGZpbGUubWFlPic=

> <r_lp_tautomer_probability>
0.839158

> <r_epik_Ionization_Penalty>
0.000387683

> <r_epik_Ionization_Penalty_Charging>
0.000355009

> <r_epik_Ionization_Penalty_Neutral>
3.26746e-05

> <r_epik_State_Penalty>
0.046959

> <r_epik_Charging_Adjusted_Penalty>
0.047314

> <i_epik_Tot_Q>
0

> <i_epik_Tot_abs_Q>
0

> <r_epik_Metal_State_Penalty>
0.222879

> <b_epik_Metal_Only>
0

> <s_lp_Force_Field>
OPLS_2005

> <r_lp_Energy>
20.1617

> <b_lp_Chiralities_Consistent>
1

> <s_lp_Variant>
AV-unprocessed.smi:1313-1

> <Gold.Version>
5.8.1

> <Gold.Id.Protein>
6NUR|6NUR_protein|mol2

> <Gold.PLP.Fitness>
40.9093

> <Gold.PLP.PLP>
-33.0263

> <Gold.PLP.part.hbond>
-4.0000

> <Gold.PLP.part.metal>
0.0000

> <Gold.PLP.part.buried>
2.6184

> <Gold.PLP.part.nonpolar>
-31.3146

> <Gold.PLP.part.repulsive>
0.4386

> <Gold.PLP.ligand.clash>
0.0000

> <Gold.PLP.ligand.torsion>
0.4637

> <Gold.PLP.Chemscore.Hbond>
2.9360

> <Gold.PLP.Chemscore.CHOScore>
0.0000

> <Gold.PLP.Chemscore.Metal>
0.0000

> <Gold.Chemscore.Hbonds>
donor molecule, donor type, donor heavy atom, donor atom, acceptor molecule, acceptor atom, score
      L1  H    10    28       P1  8028  0.83
      L1  H    18    19       P1  7948  1.00
      P1  H  7989  7998       L1    17  1.00

> <Gold.PLP.Chemscore.Internal.Correction>
0.0024

> <Gold.Rescore>
     Score         DG    S(hbond)    S(metal)    S(lipo)     H(rot)  DE(clash)    DE(int)     intcor
     18.17     -19.81       2.41        0.00      86.61       1.51       1.03       0.60       ----

> <Gold.Chemscore.Fitness>
18.1742

> <Gold.Chemscore.DG>
-19.8062

> <Gold.Chemscore.ZeroCoef>
-5.4800

> <Gold.Chemscore.Hbond>
2.4150

> <Gold.Chemscore.Metal>
0.0000

> <Gold.Chemscore.Lipo>
86.6053

> <Gold.Chemscore.Internal_Hbond>
0.0000

> <Gold.Chemscore.DEClash>
1.0284

> <Gold.Chemscore.DEInternal>
0.6036

> <Gold.Chemscore.Rot>
1.5128

> <Gold.Chemscore.Internal.Correction>
   9.000000E+99

> <Gold.Chemscore.Hbonds>
donor molecule, donor type, donor heavy atom, donor atom, acceptor molecule, acceptor atom, score
      L1  H    10    28       P1  8028  0.78
      L1  H    18    19       P1  7948  0.96
      P1  H  7989  7998       L1    17  0.32

> <Gold.Chemscore.Hbond.Weighted>
-8.0661

> <Gold.Chemscore.Metal.Weighted>
-0.0000

> <Gold.Chemscore.Lipo.Weighted>
-10.1328

> <Gold.Chemscore.Internal_Hbond.Weighted>
0.0000

> <Gold.Chemscore.DEClash.Weighted>
1.0284

> <Gold.Chemscore.DEInternal.Weighted>
0.6036

> <Gold.Chemscore.Rot.Weighted>
3.8727

> <Gold.Chemscore.Internal.Correction.Weighted>
   9.000000E+99

> <Gold.Protein.RotatedTorsions>
[ 6907 6896 6895 6894 ] final  144.41 input  -60.11 | X-H torsion
[ 7974 7965 7964 7962 ] final  -62.22 input  175.53 | X-H torsion
[ 8008 7997 7996 7995 ] final  -57.87 input   59.86 | X-H torsion
[ 10167 10162 10161 10158 ] final  -13.46 input  -65.29 | X-H torsion
[ 10718 10713 10712 10709 ] final   68.74 input   66.30 | X-H torsion
[ 10763 10752 10751 10750 ] final  111.79 input  -60.55 | X-H torsion
[ 11005 11000 10999 10996 ] final  -84.15 input  -57.11 | X-H torsion

> <Gold.Protein.ActiveResidues>
 VAL166  LYS551  ARG553  GLY616  TRP617  ASP618  TYR619  PRO620  LYS621  CYS622 
 ASP623  PHE694  ASN695  SER759  ASP760  ASP761  ALA762  ILE779  LEU786  VAL792 
 PHE793  MET794  SER795  GLU796  ALA797  LYS798  CYS799  TRP800  GLU811  SER814 

> <Gold.Protein.RotatedAtoms>
  152.1941  133.4794  159.5023 H   0  0  0  0  0  0  0  0  0  0  0  0  # atno 6907 bound_to 6896
  150.6956  134.1675  159.4208 H   0  0  0  0  0  0  0  0  0  0  0  0  # atno 6908 bound_to 6896
  151.9591  135.0132  160.0597 H   0  0  0  0  0  0  0  0  0  0  0  0  # atno 6909 bound_to 6896
  145.7940  140.8693  143.0266 H   0  0  0  0  0  0  0  0  0  0  0  0  # atno 7974 bound_to 7965
  154.4285  140.1097  156.5866 H   0  0  0  0  0  0  0  0  0  0  0  0  # atno 8008 bound_to 7997
  155.6056  140.3493  155.4588 H   0  0  0  0  0  0  0  0  0  0  0  0  # atno 8009 bound_to 7997
  156.0139  140.1225  157.0415 H   0  0  0  0  0  0  0  0  0  0  0  0  # atno 8010 bound_to 7997
  140.7182  143.5424  150.9394 H   0  0  0  0  0  0  0  0  0  0  0  0  # atno 10167 bound_to 10162
  157.6306  130.9389  150.0418 H   0  0  0  0  0  0  0  0  0  0  0  0  # atno 10718 bound_to 10713
  153.4684  135.3706  155.2377 H   0  0  0  0  0  0  0  0  0  0  0  0  # atno 10763 bound_to 10752
  154.8757  135.3925  154.3841 H   0  0  0  0  0  0  0  0  0  0  0  0  # atno 10764 bound_to 10752
  153.4426  135.7084  153.6224 H   0  0  0  0  0  0  0  0  0  0  0  0  # atno 10765 bound_to 10752
  141.1653  133.7331  156.8825 H   0  0  0  0  0  0  0  0  0  0  0  0  # atno 11005 bound_to 11000
  144.6778  140.0164  143.7484 LP  0  0  0  0  0  0  0  0  0  0  0  0  # atno 17320 bound_to 7965
  145.9947  139.3043  143.0964 LP  0  0  0  0  0  0  0  0  0  0  0  0  # atno 17321 bound_to 7965
  139.9146  143.6678  152.3108 LP  0  0  0  0  0  0  0  0  0  0  0  0  # atno 17342 bound_to 10162
  139.7074  144.7626  151.1170 LP  0  0  0  0  0  0  0  0  0  0  0  0  # atno 17343 bound_to 10162
  156.1508  130.3642  149.9442 LP  0  0  0  0  0  0  0  0  0  0  0  0  # atno 17370 bound_to 10713
  156.7462  130.9098  151.3635 LP  0  0  0  0  0  0  0  0  0  0  0  0  # atno 17371 bound_to 10713
  140.1705  134.9103  157.2827 LP  0  0  0  0  0  0  0  0  0  0  0  0  # atno 17394 bound_to 11000
  140.2508  134.3685  155.7443 LP  0  0  0  0  0  0  0  0  0  0  0  0  # atno 17395 bound_to 11000

$$$$
