AV-unprocessed.smi:193|AV-procd|sdf|1507|dock5
  -GOLD-   2262019343D 1   1.00000     0.00000
 Structure written by MMmdl.
 62 66  0  0  0  0  0  0  0  0  2 V2000
  147.1553  142.0196  157.6760 C   0  0  0  0  0  0  0  0  0  0  0  0
  148.6877  141.9008  157.6480 C   0  0  1  0  0  0  0  0  0  0  0  0
  149.1099  140.9813  156.4830 C   0  0  0  0  0  0  0  0  0  0  0  0
  150.4326  140.3728  156.6419 N   0  0  0  0  0  0  0  0  0  0  0  0
  150.7290  139.2839  155.8850 C   0  0  0  0  0  0  0  0  0  0  0  0
  151.7123  139.3783  154.9507 N   0  0  0  0  0  0  0  0  0  0  0  0
  152.0387  138.3211  154.2017 C   0  0  0  0  0  0  0  0  0  0  0  0
  151.5171  137.0936  154.2199 N   0  0  0  0  0  0  0  0  0  0  0  0
  150.5206  136.9935  155.1452 C   0  0  0  0  0  0  0  0  0  0  0  0
  150.0643  138.0292  156.0093 C   0  0  0  0  0  0  0  0  0  0  0  0
  149.0229  137.5564  156.8003 N   0  0  0  0  0  0  0  0  0  0  0  0
  148.8829  136.3112  156.4357 C   0  0  0  0  0  0  0  0  0  0  0  0
  149.7487  135.8872  155.4536 N   0  0  0  0  0  0  0  0  0  0  0  0
  149.8185  134.5563  154.8694 C   0  0  0  0  0  0  0  0  0  0  0  0
  148.5210  134.1236  154.1429 C   0  0  0  0  0  0  0  0  0  0  0  0
  148.0497  135.2389  153.4054 O   0  0  0  0  0  0  0  0  0  0  0  0
  148.8128  132.9757  153.1555 C   0  0  0  0  0  0  0  0  0  0  0  0
  147.5264  132.4019  152.5357 C   0  0  0  0  0  0  0  0  0  0  0  0
  146.6358  131.9847  153.5629 O   0  0  0  0  0  0  0  0  0  0  0  0
  146.2074  133.0600  154.3896 C   0  0  0  0  0  0  0  0  0  0  0  0
  147.4115  133.6791  155.1214 C   0  0  0  0  0  0  0  0  0  0  0  0
  151.5411  141.0682  157.2955 C   0  0  0  0  0  0  0  0  0  0  0  0
  151.6051  142.5647  156.9624 C   0  0  0  0  0  0  0  0  0  0  0  0
  150.7513  143.3561  157.8802 N   0  3  1  0  0  0  0  0  0  0  0  0
  151.2268  144.7534  158.0133 C   0  0  2  0  0  0  0  0  0  0  0  0
  152.6794  144.8703  158.4184 C   0  0  0  0  0  0  0  0  0  0  0  0
  151.5932  145.1812  159.4240 C   0  0  2  0  0  0  0  0  0  0  0  0
  151.4111  144.2972  160.6446 C   0  0  0  0  0  0  0  0  0  0  0  0
  149.3113  143.3086  157.5267 C   0  0  0  0  0  0  0  0  0  0  0  0
  146.7748  142.4627  156.7551 H   0  0  0  0  0  0  0  0  0  0  0  0
  146.8207  142.6405  158.5075 H   0  0  0  0  0  0  0  0  0  0  0  0
  146.6862  141.0422  157.7939 H   0  0  0  0  0  0  0  0  0  0  0  0
  148.9851  141.4502  158.5963 H   0  0  0  0  0  0  0  0  0  0  0  0
  148.3874  140.1672  156.4057 H   0  0  0  0  0  0  0  0  0  0  0  0
  149.0628  141.5213  155.5364 H   0  0  0  0  0  0  0  0  0  0  0  0
  152.8326  138.4811  153.4868 H   0  0  0  0  0  0  0  0  0  0  0  0
  148.1434  135.6605  156.8795 H   0  0  0  0  0  0  0  0  0  0  0  0
  150.6658  134.5289  154.1826 H   0  0  0  0  0  0  0  0  0  0  0  0
  150.0532  133.8490  155.6659 H   0  0  0  0  0  0  0  0  0  0  0  0
  148.7153  135.4907  152.7839 H   0  0  0  0  0  0  0  0  0  0  0  0
  149.4914  133.3088  152.3692 H   0  0  0  0  0  0  0  0  0  0  0  0
  149.3278  132.1709  153.6816 H   0  0  0  0  0  0  0  0  0  0  0  0
  147.0386  133.1337  151.8899 H   0  0  0  0  0  0  0  0  0  0  0  0
  147.7667  131.5417  151.9107 H   0  0  0  0  0  0  0  0  0  0  0  0
  145.6843  133.8076  153.7915 H   0  0  0  0  0  0  0  0  0  0  0  0
  145.4885  132.6785  155.1148 H   0  0  0  0  0  0  0  0  0  0  0  0
  147.8173  132.9363  155.8092 H   0  0  0  0  0  0  0  0  0  0  0  0
  147.0753  134.5145  155.7368 H   0  0  0  0  0  0  0  0  0  0  0  0
  151.4932  140.9079  158.3732 H   0  0  0  0  0  0  0  0  0  0  0  0
  152.4857  140.6336  156.9674 H   0  0  0  0  0  0  0  0  0  0  0  0
  152.6405  142.8779  157.1008 H   0  0  0  0  0  0  0  0  0  0  0  0
  151.3686  142.7660  155.9163 H   0  0  0  0  0  0  0  0  0  0  0  0
  150.8029  145.4682  157.3097 H   0  0  0  0  0  0  0  0  0  0  0  0
  153.2506  143.9539  158.5576 H   0  0  0  0  0  0  0  0  0  0  0  0
  153.2451  145.7117  158.0233 H   0  0  0  0  0  0  0  0  0  0  0  0
  151.4381  146.2365  159.6395 H   0  0  0  0  0  0  0  0  0  0  0  0
  151.6549  143.2576  160.4245 H   0  0  0  0  0  0  0  0  0  0  0  0
  150.3810  144.3493  160.9971 H   0  0  0  0  0  0  0  0  0  0  0  0
  152.0656  144.6369  161.4475 H   0  0  0  0  0  0  0  0  0  0  0  0
  149.1601  143.7129  156.5244 H   0  0  0  0  0  0  0  0  0  0  0  0
  148.7835  143.9815  158.2032 H   0  0  0  0  0  0  0  0  0  0  0  0
  150.8473  142.9422  158.7965 H   0  0  0  0  0  0  0  0  0  0  0  0
  1  2  1  0  0  0  0
  1 30  1  0  0  0  0
  1 31  1  0  0  0  0
  1 32  1  0  0  0  0
  2 29  1  0  0  0  0
  2  3  1  0  0  0  0
  2 33  1  0  0  0  0
  3  4  1  0  0  0  0
  3 34  1  0  0  0  0
  3 35  1  0  0  0  0
  4  5  1  0  0  0  0
  4 22  1  0  0  0  0
  5 10  1  0  0  0  0
  5  6  2  0  0  0  0
  6  7  1  0  0  0  0
  7  8  2  0  0  0  0
  7 36  1  0  0  0  0
  8  9  1  0  0  0  0
  9 13  1  0  0  0  0
  9 10  2  0  0  0  0
 10 11  1  0  0  0  0
 11 12  2  0  0  0  0
 12 13  1  0  0  0  0
 12 37  1  0  0  0  0
 13 14  1  0  0  0  0
 14 15  1  0  0  0  0
 14 38  1  0  0  0  0
 14 39  1  0  0  0  0
 15 21  1  0  0  0  0
 15 16  1  0  0  0  0
 15 17  1  0  0  0  0
 16 40  1  0  0  0  0
 17 18  1  0  0  0  0
 17 41  1  0  0  0  0
 17 42  1  0  0  0  0
 18 19  1  0  0  0  0
 18 43  1  0  0  0  0
 18 44  1  0  0  0  0
 19 20  1  0  0  0  0
 20 21  1  0  0  0  0
 20 45  1  0  0  0  0
 20 46  1  0  0  0  0
 21 47  1  0  0  0  0
 21 48  1  0  0  0  0
 22 23  1  0  0  0  0
 22 49  1  0  0  0  0
 22 50  1  0  0  0  0
 23 24  1  0  0  0  0
 23 51  1  0  0  0  0
 23 52  1  0  0  0  0
 24 25  1  0  0  0  0
 24 29  1  0  0  0  0
 24 62  1  0  0  0  0
 25 27  1  0  0  0  0
 25 26  1  0  0  0  0
 25 53  1  0  0  0  0
 26 27  1  0  0  0  0
 26 54  1  0  0  0  0
 26 55  1  0  0  0  0
 27 28  1  0  0  0  0
 27 56  1  0  0  0  0
 28 57  1  0  0  0  0
 28 58  1  0  0  0  0
 28 59  1  0  0  0  0
 29 60  1  0  0  0  0
 29 61  1  0  0  0  0
M  CHG  1  24   1
M  END
> <s_m_source_file>
AV-unprocessed.smi

> <i_m_source_file_index>
193

> <i_lp_mmshare_version>
43012

> <i_f3d_flags>
0

> <s_epik_input>
W0NIM11bQ0BASF0xW0NIMl1bQ0BIXTFOKFtDSDJdMilbQ0gyXVtDSDJdTihbQ0gyXVtDQEhdMltDSDNdKWMobltjSF1uMyljKGMzNCluW2NIXW40W0NIMl1DNShbT0hdKVtDSDJdW0NIMl1PW0NIMl1bQ0gyXTU=

> <s_epik_cmdline>
J2VwaWtfcHl0aG9uJywgJy1waCcsICc3LjAnLCAnLXRuJywgJzgnLCAnLW1hJywgJzIwMCcsICctbWV0YWxfYmluZGluZycsICctaW1hZScsICc8aW5maWxlLm1hZT4nLCAnLW9tYWUnLCAnPG91dGZpbGUubWFlPic=

> <r_lp_tautomer_probability>
1

> <r_epik_Ionization_Penalty>
0.0540825

> <r_epik_Ionization_Penalty_Charging>
0.0538476

> <r_epik_Ionization_Penalty_Neutral>
0.000234891

> <r_epik_State_Penalty>
0.0200719

> <r_epik_Charging_Adjusted_Penalty>
0.0739194

> <i_epik_Tot_Q>
1

> <i_epik_Tot_abs_Q>
1

> <r_epik_Metal_State_Penalty>
0.0199414

> <b_epik_Metal_Only>
0

> <s_lp_Force_Field>
OPLS_2005

> <r_lp_Energy>
56.3109

> <b_lp_Chiralities_Consistent>
1

> <s_lp_Variant>
AV-unprocessed.smi:193-12

> <Gold.Version>
5.8.1

> <Gold.Id.Protein>
6NUR|6NUR_protein|mol2

> <Gold.PLP.Fitness>
45.2390

> <Gold.PLP.PLP>
-39.4806

> <Gold.PLP.part.hbond>
-2.6014

> <Gold.PLP.part.metal>
0.0000

> <Gold.PLP.part.buried>
-4.3057

> <Gold.PLP.part.nonpolar>
-32.3857

> <Gold.PLP.part.repulsive>
1.4737

> <Gold.PLP.ligand.clash>
0.0000

> <Gold.PLP.ligand.torsion>
2.0465

> <Gold.PLP.Chemscore.Hbond>
2.8288

> <Gold.PLP.Chemscore.CHOScore>
0.0000

> <Gold.PLP.Chemscore.Metal>
0.0000

> <Gold.Chemscore.Hbonds>
donor molecule, donor type, donor heavy atom, donor atom, acceptor molecule, acceptor atom, score
      L1  H    16    40       P1  7948  0.10
      P1  H  7989  7998       L1     6  0.89
      P1  H 10752 10765       L1     8  1.00

> <Gold.PLP.Chemscore.Internal.Correction>
1.3651

> <Gold.Rescore>
     Score         DG    S(hbond)    S(metal)    S(lipo)     H(rot)  DE(clash)    DE(int)     intcor
     15.25     -17.63       1.57        0.00     101.32       1.93       0.36       2.01       ----

> <Gold.Chemscore.Fitness>
15.2521

> <Gold.Chemscore.DG>
-17.6285

> <Gold.Chemscore.ZeroCoef>
-5.4800

> <Gold.Chemscore.Hbond>
1.5666

> <Gold.Chemscore.Metal>
0.0000

> <Gold.Chemscore.Lipo>
101.3193

> <Gold.Chemscore.Internal_Hbond>
0.0000

> <Gold.Chemscore.DEClash>
0.3634

> <Gold.Chemscore.DEInternal>
2.0129

> <Gold.Chemscore.Rot>
1.9290

> <Gold.Chemscore.Internal.Correction>
   9.000000E+99

> <Gold.Chemscore.Hbonds>
donor molecule, donor type, donor heavy atom, donor atom, acceptor molecule, acceptor atom, score
      L1  H    16    40       P1  7948  0.10
      P1  H  7989  7998       L1     6  0.22
      P1  H 10752 10765       L1     8  0.72

> <Gold.Chemscore.Hbond.Weighted>
-5.2324

> <Gold.Chemscore.Metal.Weighted>
-0.0000

> <Gold.Chemscore.Lipo.Weighted>
-11.8544

> <Gold.Chemscore.Internal_Hbond.Weighted>
0.0000

> <Gold.Chemscore.DEClash.Weighted>
0.3634

> <Gold.Chemscore.DEInternal.Weighted>
2.0129

> <Gold.Chemscore.Rot.Weighted>
4.9383

> <Gold.Chemscore.Internal.Correction.Weighted>
   9.000000E+99

> <Gold.Protein.RotatedTorsions>
[ 6907 6896 6895 6894 ] final -167.43 input  -60.11 | X-H torsion
[ 7974 7965 7964 7962 ] final   11.77 input  175.53 | X-H torsion
[ 8008 7997 7996 7995 ] final  -86.84 input   59.86 | X-H torsion
[ 10167 10162 10161 10158 ] final  -20.41 input  -65.29 | X-H torsion
[ 10718 10713 10712 10709 ] final -145.35 input   66.30 | X-H torsion
[ 10763 10752 10751 10750 ] final  162.49 input  -60.55 | X-H torsion
[ 11005 11000 10999 10996 ] final  -12.98 input  -57.11 | X-H torsion

> <Gold.Protein.ActiveResidues>
 VAL166  LYS551  ARG553  GLY616  TRP617  ASP618  TYR619  PRO620  LYS621  CYS622 
 ASP623  PHE694  ASN695  SER759  ASP760  ASP761  ALA762  ILE779  LEU786  VAL792 
 PHE793  MET794  SER795  GLU796  ALA797  LYS798  CYS799  TRP800  GLU811  SER814 

> <Gold.Protein.RotatedAtoms>
  151.4594  133.3596  159.2806 H   0  0  0  0  0  0  0  0  0  0  0  0  # atno 6907 bound_to 6896
  150.9036  134.8451  159.7387 H   0  0  0  0  0  0  0  0  0  0  0  0  # atno 6908 bound_to 6896
  152.4893  134.4517  159.9628 H   0  0  0  0  0  0  0  0  0  0  0  0  # atno 6909 bound_to 6896
  146.2364  139.9435  142.8480 H   0  0  0  0  0  0  0  0  0  0  0  0  # atno 7974 bound_to 7965
  154.6564  140.0573  157.0013 H   0  0  0  0  0  0  0  0  0  0  0  0  # atno 8008 bound_to 7997
  155.1294  140.3255  155.4459 H   0  0  0  0  0  0  0  0  0  0  0  0  # atno 8009 bound_to 7997
  156.2599  140.1983  156.6413 H   0  0  0  0  0  0  0  0  0  0  0  0  # atno 8010 bound_to 7997
  140.7276  143.4725  151.0227 H   0  0  0  0  0  0  0  0  0  0  0  0  # atno 10167 bound_to 10162
  156.3814  130.7839  151.2031 H   0  0  0  0  0  0  0  0  0  0  0  0  # atno 10718 bound_to 10713
  154.2792  135.2763  155.2704 H   0  0  0  0  0  0  0  0  0  0  0  0  # atno 10763 bound_to 10752
  154.5233  135.5750  153.6702 H   0  0  0  0  0  0  0  0  0  0  0  0  # atno 10764 bound_to 10752
  152.9932  135.6210  154.2950 H   0  0  0  0  0  0  0  0  0  0  0  0  # atno 10765 bound_to 10752
  140.7714  133.8435  155.9210 H   0  0  0  0  0  0  0  0  0  0  0  0  # atno 11005 bound_to 11000
  145.1929  140.9820  143.4200 LP  0  0  0  0  0  0  0  0  0  0  0  0  # atno 17320 bound_to 7965
  144.9841  139.3754  143.6247 LP  0  0  0  0  0  0  0  0  0  0  0  0  # atno 17321 bound_to 7965
  139.8418  143.7553  152.3180 LP  0  0  0  0  0  0  0  0  0  0  0  0  # atno 17342 bound_to 10162
  139.7705  144.7478  151.0232 LP  0  0  0  0  0  0  0  0  0  0  0  0  # atno 17343 bound_to 10162
  157.7492  131.0343  150.4311 LP  0  0  0  0  0  0  0  0  0  0  0  0  # atno 17370 bound_to 10713
  156.4555  130.4021  149.6609 LP  0  0  0  0  0  0  0  0  0  0  0  0  # atno 17371 bound_to 10713
  140.9570  134.1705  157.4684 LP  0  0  0  0  0  0  0  0  0  0  0  0  # atno 17394 bound_to 11000
  139.8755  134.9931  156.5626 LP  0  0  0  0  0  0  0  0  0  0  0  0  # atno 17395 bound_to 11000

$$$$
