AV-unprocessed.smi:2083|AV-procd|sdf|8512|dock10
  -GOLD-   2272011223D 1   1.00000     0.00000
 Structure written by MMmdl.
 44 45  0  0  0  0  0  0  0  0  3 V2000
  151.8215  145.2500  160.0213 C   0  0  0  0  0  0  0  0  0  0  0  0
  151.4465  144.0384  159.2381 C   0  0  0  0  0  0  0  0  0  0  0  0
  151.6922  143.6539  157.9503 C   0  0  0  0  0  0  0  0  0  0  0  0
  151.0474  142.3915  157.8631 C   0  0  0  0  0  0  0  0  0  0  0  0
  151.0759  141.6462  156.6548 N   0  0  0  0  0  0  0  0  0  0  0  0
  150.7671  140.3519  156.4560 C   0  0  0  0  0  0  0  0  0  0  0  0
  150.3869  139.6473  157.3989 O   0  0  0  0  0  0  0  0  0  0  0  0
  150.9325  139.9751  155.1576 N   0  5  0  0  0  0  0  0  0  0  0  0
  150.1615  138.9273  154.4861 C   0  0  0  0  0  0  0  0  0  0  0  0
  149.0335  139.5347  153.6058 C   0  0  2  0  0  0  0  0  0  0  0  0
  148.4795  140.8858  154.1244 C   0  0  0  0  0  0  0  0  0  0  0  0
  147.9593  138.5229  153.3560 N   0  3  2  0  0  0  0  0  0  0  0  0
  146.9692  138.9590  152.3351 C   0  0  0  0  0  0  0  0  0  0  0  0
  146.0535  137.7945  151.9246 C   0  0  0  0  0  0  0  0  0  0  0  0
  145.3537  137.1819  153.1446 C   0  0  0  0  0  0  0  0  0  0  0  0
  146.3897  136.7658  154.2025 C   0  0  2  0  0  0  0  0  0  0  0  0
  145.7142  136.1701  155.4457 C   0  0  0  0  0  0  0  0  0  0  0  0
  147.2835  137.9672  154.5667 C   0  0  0  0  0  0  0  0  0  0  0  0
  150.4618  142.0374  158.9975 N   0  0  0  0  0  0  0  0  0  0  0  0
  150.7146  143.0907  159.8843 O   0  0  0  0  0  0  0  0  0  0  0  0
  151.7090  146.1506  159.4175 H   0  0  0  0  0  0  0  0  0  0  0  0
  152.8591  145.1899  160.3497 H   0  0  0  0  0  0  0  0  0  0  0  0
  151.1924  145.3563  160.9053 H   0  0  0  0  0  0  0  0  0  0  0  0
  152.2442  144.1909  157.1933 H   0  0  0  0  0  0  0  0  0  0  0  0
  151.3694  142.1567  155.8351 H   0  0  0  0  0  0  0  0  0  0  0  0
  150.8002  138.3033  153.8589 H   0  0  0  0  0  0  0  0  0  0  0  0
  149.7172  138.2408  155.2069 H   0  0  0  0  0  0  0  0  0  0  0  0
  149.4923  139.7418  152.6379 H   0  0  0  0  0  0  0  0  0  0  0  0
  149.2511  141.6575  154.1479 H   0  0  0  0  0  0  0  0  0  0  0  0
  148.0632  140.8147  155.1307 H   0  0  0  0  0  0  0  0  0  0  0  0
  147.6912  141.2578  153.4697 H   0  0  0  0  0  0  0  0  0  0  0  0
  146.3778  139.7877  152.7272 H   0  0  0  0  0  0  0  0  0  0  0  0
  147.4826  139.3274  151.4461 H   0  0  0  0  0  0  0  0  0  0  0  0
  145.3112  138.1400  151.2046 H   0  0  0  0  0  0  0  0  0  0  0  0
  146.6424  137.0287  151.4175 H   0  0  0  0  0  0  0  0  0  0  0  0
  144.6574  137.9064  153.5694 H   0  0  0  0  0  0  0  0  0  0  0  0
  144.7590  136.3209  152.8373 H   0  0  0  0  0  0  0  0  0  0  0  0
  147.0249  135.9909  153.7702 H   0  0  0  0  0  0  0  0  0  0  0  0
  145.0626  136.8975  155.9308 H   0  0  0  0  0  0  0  0  0  0  0  0
  146.4546  135.8462  156.1777 H   0  0  0  0  0  0  0  0  0  0  0  0
  145.1083  135.3017  155.1852 H   0  0  0  0  0  0  0  0  0  0  0  0
  148.0246  137.6496  155.3008 H   0  0  0  0  0  0  0  0  0  0  0  0
  146.6791  138.7404  155.0431 H   0  0  0  0  0  0  0  0  0  0  0  0
  148.4460  137.7468  152.9303 H   0  0  0  0  0  0  0  0  0  0  0  0
  1  2  1  0  0  0  0
  1 21  1  0  0  0  0
  1 22  1  0  0  0  0
  1 23  1  0  0  0  0
  2 20  1  0  0  0  0
  2  3  2  0  0  0  0
  3  4  1  0  0  0  0
  3 24  1  0  0  0  0
  4  5  1  0  0  0  0
  4 19  2  0  0  0  0
  5  6  1  0  0  0  0
  5 25  1  0  0  0  0
  6  7  2  0  0  0  0
  6  8  1  0  0  0  0
  8  9  1  0  0  0  0
  9 10  1  0  0  0  0
  9 26  1  0  0  0  0
  9 27  1  0  0  0  0
 10 11  1  0  0  0  0
 10 12  1  0  0  0  0
 10 28  1  0  0  0  0
 11 29  1  0  0  0  0
 11 30  1  0  0  0  0
 11 31  1  0  0  0  0
 12 18  1  0  0  0  0
 12 13  1  0  0  0  0
 12 44  1  0  0  0  0
 13 14  1  0  0  0  0
 13 32  1  0  0  0  0
 13 33  1  0  0  0  0
 14 15  1  0  0  0  0
 14 34  1  0  0  0  0
 14 35  1  0  0  0  0
 15 16  1  0  0  0  0
 15 36  1  0  0  0  0
 15 37  1  0  0  0  0
 16 17  1  0  0  0  0
 16 18  1  0  0  0  0
 16 38  1  0  0  0  0
 17 39  1  0  0  0  0
 17 40  1  0  0  0  0
 17 41  1  0  0  0  0
 18 42  1  0  0  0  0
 18 43  1  0  0  0  0
 19 20  1  0  0  0  0
M  CHG  1   8  -1
M  CHG  1  12   1
M  END
> <s_m_source_file>
AV-unprocessed.smi

> <i_m_source_file_index>
2083

> <i_lp_mmshare_version>
43012

> <i_f3d_flags>
0

> <s_epik_input>
W0NIM11jMVtjSF1jKG5vMSlbTkhdQyg9TylbTkhdW0NIMl1bQ0BIXShbQ0gzXSlOMltDSDJdW0NIMl1bQ0gyXVtDQEBIXShbQ0gzXSlbQ0gyXTI=

> <s_epik_cmdline>
J2VwaWtfcHl0aG9uJywgJy1waCcsICc3LjAnLCAnLXRuJywgJzgnLCAnLW1hJywgJzIwMCcsICctbWV0YWxfYmluZGluZycsICctaW1hZScsICc8aW5maWxlLm1hZT4nLCAnLW9tYWUnLCAnPG91dGZpbGUubWFlPic=

> <r_epik_Ionization_Penalty>
6.76934

> <r_epik_Ionization_Penalty_Charging>
6.76934

> <r_epik_Ionization_Penalty_Neutral>
5.77849e-06

> <r_epik_State_Penalty>
6.79457

> <r_epik_Charging_Adjusted_Penalty>
13.5639

> <i_epik_Tot_Q>
0

> <i_epik_Tot_abs_Q>
2

> <r_epik_Metal_State_Penalty>
2.72837

> <b_epik_Metal_Only>
1

> <s_lp_Force_Field>
OPLS_2005

> <r_lp_Energy>
16.9315

> <b_lp_Chiralities_Consistent>
1

> <s_lp_Variant>
AV-unprocessed.smi:2083-23

> <Gold.Version>
5.8.1

> <Gold.Id.Protein>
6NUR|6NUR_protein|mol2

> <Gold.PLP.Fitness>
42.5746

> <Gold.PLP.PLP>
-35.0006

> <Gold.PLP.part.hbond>
-3.6203

> <Gold.PLP.part.metal>
0.0000

> <Gold.PLP.part.buried>
0.6970

> <Gold.PLP.part.nonpolar>
-33.2535

> <Gold.PLP.part.repulsive>
0.2848

> <Gold.PLP.ligand.clash>
0.0000

> <Gold.PLP.ligand.torsion>
0.7178

> <Gold.PLP.Chemscore.Hbond>
2.9500

> <Gold.PLP.Chemscore.CHOScore>
0.0000

> <Gold.PLP.Chemscore.Metal>
0.0000

> <Gold.Chemscore.Hbonds>
donor molecule, donor type, donor heavy atom, donor atom, acceptor molecule, acceptor atom, score
      L1  H    12    44       P1  7948  2.00
      P1  H  7989  7998       L1     8  0.85

> <Gold.PLP.Chemscore.Internal.Correction>
0.1596

> <Gold.Rescore>
     Score         DG    S(hbond)    S(metal)    S(lipo)     H(rot)  DE(clash)    DE(int)     intcor
     13.33     -17.17       1.91        0.00      78.55       1.52       1.75       2.08       ----

> <Gold.Chemscore.Fitness>
13.3290

> <Gold.Chemscore.DG>
-17.1652

> <Gold.Chemscore.ZeroCoef>
-5.4800

> <Gold.Chemscore.Hbond>
1.9111

> <Gold.Chemscore.Metal>
0.0000

> <Gold.Chemscore.Lipo>
78.5543

> <Gold.Chemscore.Internal_Hbond>
0.0000

> <Gold.Chemscore.DEClash>
1.7538

> <Gold.Chemscore.DEInternal>
2.0824

> <Gold.Chemscore.Rot>
1.5190

> <Gold.Chemscore.Internal.Correction>
   9.000000E+99

> <Gold.Chemscore.Hbonds>
donor molecule, donor type, donor heavy atom, donor atom, acceptor molecule, acceptor atom, score
      L1  H    12    44       P1  7948  1.00
      P1  H  7989  7998       L1     8  0.14

> <Gold.Chemscore.Hbond.Weighted>
-6.3830

> <Gold.Chemscore.Metal.Weighted>
-0.0000

> <Gold.Chemscore.Lipo.Weighted>
-9.1909

> <Gold.Chemscore.Internal_Hbond.Weighted>
0.0000

> <Gold.Chemscore.DEClash.Weighted>
1.7538

> <Gold.Chemscore.DEInternal.Weighted>
2.0824

> <Gold.Chemscore.Rot.Weighted>
3.8886

> <Gold.Chemscore.Internal.Correction.Weighted>
   9.000000E+99

> <Gold.Protein.RotatedTorsions>
[ 6907 6896 6895 6894 ] final   43.35 input  -60.11 | X-H torsion
[ 7974 7965 7964 7962 ] final   77.44 input  175.53 | X-H torsion
[ 8008 7997 7996 7995 ] final  -92.22 input   59.86 | X-H torsion
[ 10167 10162 10161 10158 ] final   50.88 input  -65.29 | X-H torsion
[ 10718 10713 10712 10709 ] final   61.24 input   66.30 | X-H torsion
[ 10763 10752 10751 10750 ] final  -22.06 input  -60.55 | X-H torsion
[ 11005 11000 10999 10996 ] final -111.42 input  -57.11 | X-H torsion

> <Gold.Protein.ActiveResidues>
 VAL166  LYS551  ARG553  GLY616  TRP617  ASP618  TYR619  PRO620  LYS621  CYS622 
 ASP623  PHE694  ASN695  SER759  ASP760  ASP761  ALA762  ILE779  LEU786  VAL792 
 PHE793  MET794  SER795  GLU796  ALA797  LYS798  CYS799  TRP800  GLU811  SER814 

> <Gold.Protein.RotatedAtoms>
  152.2192  134.8429  160.0487 H   0  0  0  0  0  0  0  0  0  0  0  0  # atno 6907 bound_to 6896
  151.9219  133.3582  159.3908 H   0  0  0  0  0  0  0  0  0  0  0  0  # atno 6908 bound_to 6896
  150.6995  134.4552  159.5399 H   0  0  0  0  0  0  0  0  0  0  0  0  # atno 6909 bound_to 6896
  145.6899  139.2549  143.1765 H   0  0  0  0  0  0  0  0  0  0  0  0  # atno 7974 bound_to 7965
  154.7204  140.0511  157.0634 H   0  0  0  0  0  0  0  0  0  0  0  0  # atno 8008 bound_to 7997
  155.0435  140.3171  155.4697 H   0  0  0  0  0  0  0  0  0  0  0  0  # atno 8009 bound_to 7997
  156.2815  140.2128  156.5560 H   0  0  0  0  0  0  0  0  0  0  0  0  # atno 8010 bound_to 7997
  140.2678  144.3300  150.6299 H   0  0  0  0  0  0  0  0  0  0  0  0  # atno 10167 bound_to 10162
  157.5813  130.8983  149.9436 H   0  0  0  0  0  0  0  0  0  0  0  0  # atno 10718 bound_to 10713
  153.6460  135.6983  153.5225 H   0  0  0  0  0  0  0  0  0  0  0  0  # atno 10763 bound_to 10752
  153.2744  135.4205  155.1018 H   0  0  0  0  0  0  0  0  0  0  0  0  # atno 10764 bound_to 10752
  154.8488  135.3586  154.6004 H   0  0  0  0  0  0  0  0  0  0  0  0  # atno 10765 bound_to 10752
  141.0735  133.9340  157.2437 H   0  0  0  0  0  0  0  0  0  0  0  0  # atno 11005 bound_to 11000
  146.0890  140.7677  142.9604 LP  0  0  0  0  0  0  0  0  0  0  0  0  # atno 17320 bound_to 7965
  144.7000  140.3608  143.7164 LP  0  0  0  0  0  0  0  0  0  0  0  0  # atno 17321 bound_to 7965
  140.5914  143.2168  151.7245 LP  0  0  0  0  0  0  0  0  0  0  0  0  # atno 17342 bound_to 10162
  139.4998  144.3933  152.0258 LP  0  0  0  0  0  0  0  0  0  0  0  0  # atno 17343 bound_to 10162
  156.0859  130.3668  150.0489 LP  0  0  0  0  0  0  0  0  0  0  0  0  # atno 17370 bound_to 10713
  156.8627  130.9497  151.3616 LP  0  0  0  0  0  0  0  0  0  0  0  0  # atno 17371 bound_to 10713
  139.9548  135.0168  156.9096 LP  0  0  0  0  0  0  0  0  0  0  0  0  # atno 17394 bound_to 11000
  140.5623  134.0523  155.7403 LP  0  0  0  0  0  0  0  0  0  0  0  0  # atno 17395 bound_to 11000

$$$$
