AV-unprocessed.smi:487|AV-procd|sdf|2699|dock10
  -GOLD-   2262023133D 1   1.00000     0.00000
 Structure written by MMmdl.
 41 42  0  0  0  0  0  0  0  0  1 V2000
  152.3211  140.0015  156.3944 O   0  0  0  0  0  0  0  0  0  0  0  0
  151.2264  140.5233  156.1863 C   0  0  0  0  0  0  0  0  0  0  0  0
  150.2853  139.8961  155.1432 C   0  0  0  0  0  0  0  0  0  0  0  0
  148.9688  140.5463  155.0337 N   0  0  0  0  0  0  0  0  0  0  0  0
  148.5878  141.1539  153.8456 C   0  0  0  0  0  0  0  0  0  0  0  0
  147.4009  141.7838  153.6773 C   0  0  0  0  0  0  0  0  0  0  0  0
  146.4400  141.8535  154.7728 C   0  0  0  0  0  0  0  0  0  0  0  0
  145.3412  142.4013  154.7186 O   0  0  0  0  0  0  0  0  0  0  0  0
  146.8602  141.2316  155.9516 N   0  0  0  0  0  0  0  0  0  0  0  0
  148.0820  140.5821  156.1323 C   0  0  0  0  0  0  0  0  0  0  0  0
  148.3576  140.0745  157.2186 O   0  0  0  0  0  0  0  0  0  0  0  0
  150.8120  141.6292  156.8292 N   0  0  0  0  0  0  0  0  0  0  0  0
  151.5554  142.3564  157.8563 C   0  0  0  0  0  0  0  0  0  0  0  0
  151.8344  141.3548  159.0066 C   0  0  0  0  0  0  0  0  0  0  0  0
  153.0494  141.6716  159.8960 C   0  0  0  0  0  0  0  0  0  0  0  0
  152.7694  142.4612  161.1908 C   0  0  0  0  0  0  0  0  0  0  0  0
  152.0338  143.8048  161.0457 C   0  0  0  0  0  0  0  0  0  0  0  0
  152.5228  144.6763  159.8748 C   0  0  0  0  0  0  0  0  0  0  0  0
  151.5084  144.8416  158.7299 C   0  0  0  0  0  0  0  0  0  0  0  0
  150.7240  143.5922  158.2766 C   0  0  0  0  0  0  0  0  0  0  0  0
  146.2279  141.2557  156.7385 H   0  0  0  0  0  0  0  0  0  0  0  0
  150.7908  139.9239  154.1767 H   0  0  0  0  0  0  0  0  0  0  0  0
  150.1701  138.8346  155.3699 H   0  0  0  0  0  0  0  0  0  0  0  0
  149.2711  141.1310  153.0086 H   0  0  0  0  0  0  0  0  0  0  0  0
  147.1621  142.2400  152.7274 H   0  0  0  0  0  0  0  0  0  0  0  0
  149.8983  141.9892  156.5946 H   0  0  0  0  0  0  0  0  0  0  0  0
  152.5041  142.6794  157.4241 H   0  0  0  0  0  0  0  0  0  0  0  0
  150.9427  141.1939  159.6138 H   0  0  0  0  0  0  0  0  0  0  0  0
  152.0445  140.3838  158.5541 H   0  0  0  0  0  0  0  0  0  0  0  0
  153.4870  140.7214  160.2047 H   0  0  0  0  0  0  0  0  0  0  0  0
  153.8324  142.1464  159.3052 H   0  0  0  0  0  0  0  0  0  0  0  0
  152.2071  141.8317  161.8815 H   0  0  0  0  0  0  0  0  0  0  0  0
  153.7272  142.6448  161.6788 H   0  0  0  0  0  0  0  0  0  0  0  0
  150.9595  143.6368  160.9876 H   0  0  0  0  0  0  0  0  0  0  0  0
  152.1694  144.3599  161.9747 H   0  0  0  0  0  0  0  0  0  0  0  0
  152.7564  145.6713  160.2553 H   0  0  0  0  0  0  0  0  0  0  0  0
  153.4707  144.3122  159.4818 H   0  0  0  0  0  0  0  0  0  0  0  0
  150.7785  145.5947  159.0290 H   0  0  0  0  0  0  0  0  0  0  0  0
  152.0265  145.2669  157.8697 H   0  0  0  0  0  0  0  0  0  0  0  0
  150.1213  143.9214  157.4286 H   0  0  0  0  0  0  0  0  0  0  0  0
  149.9881  143.3038  159.0268 H   0  0  0  0  0  0  0  0  0  0  0  0
  1  2  2  0  0  0  0
  2  3  1  0  0  0  0
  2 12  1  0  0  0  0
  3  4  1  0  0  0  0
  3 22  1  0  0  0  0
  3 23  1  0  0  0  0
  4 10  1  0  0  0  0
  4  5  1  0  0  0  0
  5  6  2  0  0  0  0
  5 24  1  0  0  0  0
  6  7  1  0  0  0  0
  6 25  1  0  0  0  0
  7  8  2  0  0  0  0
  7  9  1  0  0  0  0
  9 21  1  0  0  0  0
  9 10  1  0  0  0  0
 10 11  2  0  0  0  0
 12 13  1  0  0  0  0
 12 26  1  0  0  0  0
 13 20  1  0  0  0  0
 13 14  1  0  0  0  0
 13 27  1  0  0  0  0
 14 15  1  0  0  0  0
 14 28  1  0  0  0  0
 14 29  1  0  0  0  0
 15 16  1  0  0  0  0
 15 30  1  0  0  0  0
 15 31  1  0  0  0  0
 16 17  1  0  0  0  0
 16 32  1  0  0  0  0
 16 33  1  0  0  0  0
 17 18  1  0  0  0  0
 17 34  1  0  0  0  0
 17 35  1  0  0  0  0
 18 19  1  0  0  0  0
 18 36  1  0  0  0  0
 18 37  1  0  0  0  0
 19 20  1  0  0  0  0
 19 38  1  0  0  0  0
 19 39  1  0  0  0  0
 20 40  1  0  0  0  0
 20 41  1  0  0  0  0
M  END
> <s_m_source_file>
AV-unprocessed.smi

> <i_m_source_file_index>
487

> <i_lp_mmshare_version>
43012

> <i_f3d_flags>
0

> <s_epik_input>
Tz1jMVtuSF1jKD1PKVtjSF1bY0hdbjFbQ0gyXUMoPU8pW05IXVtDSF0yW0NIMl1bQ0gyXVtDSDJdW0NIMl1bQ0gyXVtDSDJdW0NIMl0y

> <s_epik_cmdline>
J2VwaWtfcHl0aG9uJywgJy1waCcsICc3LjAnLCAnLXRuJywgJzgnLCAnLW1hJywgJzIwMCcsICctbWV0YWxfYmluZGluZycsICctaW1hZScsICc8aW5maWxlLm1hZT4nLCAnLW9tYWUnLCAnPG91dGZpbGUubWFlPic=

> <r_lp_tautomer_probability>
0.999537

> <r_epik_Ionization_Penalty>
0.00321433

> <r_epik_Ionization_Penalty_Charging>
0.00321431

> <r_epik_Ionization_Penalty_Neutral>
2.02148e-08

> <r_epik_State_Penalty>
0.00226744

> <r_epik_Charging_Adjusted_Penalty>
0.00548175

> <i_epik_Tot_Q>
0

> <i_epik_Tot_abs_Q>
0

> <r_epik_Metal_State_Penalty>
0.364272

> <b_epik_Metal_Only>
0

> <s_lp_Force_Field>
OPLS_2005

> <r_lp_Energy>
21.4809

> <b_lp_Chiralities_Consistent>
1

> <s_lp_Variant>
AV-unprocessed.smi:487-1

> <Gold.Version>
5.8.1

> <Gold.Id.Protein>
6NUR|6NUR_protein|mol2

> <Gold.PLP.Fitness>
46.6805

> <Gold.PLP.PLP>
-40.7222

> <Gold.PLP.part.hbond>
-1.0000

> <Gold.PLP.part.metal>
0.0000

> <Gold.PLP.part.buried>
-4.2527

> <Gold.PLP.part.nonpolar>
-34.7641

> <Gold.PLP.part.repulsive>
0.2460

> <Gold.PLP.ligand.clash>
0.0000

> <Gold.PLP.ligand.torsion>
0.0250

> <Gold.PLP.Chemscore.Hbond>
1.0000

> <Gold.PLP.Chemscore.CHOScore>
1.0000

> <Gold.PLP.Chemscore.Metal>
0.0000

> <Gold.Chemscore.Hbonds>
donor molecule, donor type, donor heavy atom, donor atom, acceptor molecule, acceptor atom, score
      P1  H  7997  8009       L1     1  1.00
      L1  C     5    24       P1  7957  1.00

> <Gold.PLP.Chemscore.Internal.Correction>
0.0084

> <Gold.Rescore>
     Score         DG    S(hbond)    S(metal)    S(lipo)     H(rot)  DE(clash)    DE(int)     intcor
     16.96     -17.16       0.99        0.00     108.26       1.68       0.03       0.17       ----

> <Gold.Chemscore.Fitness>
16.9585

> <Gold.Chemscore.DG>
-17.1591

> <Gold.Chemscore.ZeroCoef>
-5.4800

> <Gold.Chemscore.Hbond>
0.9891

> <Gold.Chemscore.Metal>
0.0000

> <Gold.Chemscore.Lipo>
108.2649

> <Gold.Chemscore.Internal_Hbond>
0.0000

> <Gold.Chemscore.DEClash>
0.0330

> <Gold.Chemscore.DEInternal>
0.1676

> <Gold.Chemscore.Rot>
1.6763

> <Gold.Chemscore.Internal.Correction>
   9.000000E+99

> <Gold.Chemscore.Hbonds>
donor molecule, donor type, donor heavy atom, donor atom, acceptor molecule, acceptor atom, score
      P1  H  7997  8009       L1     1  0.94

> <Gold.Chemscore.Hbond.Weighted>
-3.3035

> <Gold.Chemscore.Metal.Weighted>
-0.0000

> <Gold.Chemscore.Lipo.Weighted>
-12.6670

> <Gold.Chemscore.Internal_Hbond.Weighted>
0.0000

> <Gold.Chemscore.DEClash.Weighted>
0.0330

> <Gold.Chemscore.DEInternal.Weighted>
0.1676

> <Gold.Chemscore.Rot.Weighted>
4.2914

> <Gold.Chemscore.Internal.Correction.Weighted>
   9.000000E+99

> <Gold.Protein.RotatedTorsions>
[ 6907 6896 6895 6894 ] final   21.67 input  -60.11 | X-H torsion
[ 7974 7965 7964 7962 ] final   83.51 input  175.53 | X-H torsion
[ 8008 7997 7996 7995 ] final -170.84 input   59.86 | X-H torsion
[ 10167 10162 10161 10158 ] final  -54.44 input  -65.29 | X-H torsion
[ 10718 10713 10712 10709 ] final -173.48 input   66.30 | X-H torsion
[ 10763 10752 10751 10750 ] final -164.13 input  -60.55 | X-H torsion
[ 11005 11000 10999 10996 ] final  -83.46 input  -57.11 | X-H torsion

> <Gold.Protein.ActiveResidues>
 VAL166  LYS551  ARG553  GLY616  TRP617  ASP618  TYR619  PRO620  LYS621  CYS622 
 ASP623  PHE694  ASN695  SER759  ASP760  ASP761  ALA762  ILE779  LEU786  VAL792 
 PHE793  MET794  SER795  GLU796  ALA797  LYS798  CYS799  TRP800  GLU811  SER814 

> <Gold.Protein.RotatedAtoms>
  151.9153  135.0321  160.0517 H   0  0  0  0  0  0  0  0  0  0  0  0  # atno 6907 bound_to 6896
  152.2245  133.5004  159.5189 H   0  0  0  0  0  0  0  0  0  0  0  0  # atno 6908 bound_to 6896
  150.7008  134.1215  159.4079 H   0  0  0  0  0  0  0  0  0  0  0  0  # atno 6909 bound_to 6896
  145.6110  139.2368  143.2192 H   0  0  0  0  0  0  0  0  0  0  0  0  # atno 7974 bound_to 7965
  155.9237  140.1078  157.1187 H   0  0  0  0  0  0  0  0  0  0  0  0  # atno 8008 bound_to 7997
  154.4058  140.1251  156.4777 H   0  0  0  0  0  0  0  0  0  0  0  0  # atno 8009 bound_to 7997
  155.7165  140.3470  155.4999 H   0  0  0  0  0  0  0  0  0  0  0  0  # atno 8010 bound_to 7997
  140.6430  143.2518  151.4937 H   0  0  0  0  0  0  0  0  0  0  0  0  # atno 10167 bound_to 10162
  156.7709  130.9448  151.3120 H   0  0  0  0  0  0  0  0  0  0  0  0  # atno 10718 bound_to 10713
  154.7057  135.2996  154.9273 H   0  0  0  0  0  0  0  0  0  0  0  0  # atno 10763 bound_to 10752
  154.0191  135.6685  153.4775 H   0  0  0  0  0  0  0  0  0  0  0  0  # atno 10764 bound_to 10752
  153.0716  135.5058  154.8227 H   0  0  0  0  0  0  0  0  0  0  0  0  # atno 10765 bound_to 10752
  141.1657  133.7296  156.8724 H   0  0  0  0  0  0  0  0  0  0  0  0  # atno 11005 bound_to 11000
  146.1504  140.6932  142.9324 LP  0  0  0  0  0  0  0  0  0  0  0  0  # atno 17320 bound_to 7965
  144.7270  140.4555  143.6966 LP  0  0  0  0  0  0  0  0  0  0  0  0  # atno 17321 bound_to 7965
  139.5639  144.2088  152.1735 LP  0  0  0  0  0  0  0  0  0  0  0  0  # atno 17342 bound_to 10162
  140.1364  144.5241  150.6770 LP  0  0  0  0  0  0  0  0  0  0  0  0  # atno 17343 bound_to 10162
  157.6691  130.9035  150.0000 LP  0  0  0  0  0  0  0  0  0  0  0  0  # atno 17370 bound_to 10713
  156.1279  130.3644  149.9780 LP  0  0  0  0  0  0  0  0  0  0  0  0  # atno 17371 bound_to 10713
  140.1772  134.9058  157.2905 LP  0  0  0  0  0  0  0  0  0  0  0  0  # atno 17394 bound_to 11000
  140.2435  134.3767  155.7471 LP  0  0  0  0  0  0  0  0  0  0  0  0  # atno 17395 bound_to 11000

$$$$
