AV-unprocessed.smi:2945|AV-procd|sdf|11276|dock2
  -GOLD-   2272016163D 1   1.00000     0.00000
 Structure written by MMmdl.
 36 37  0  0  0  0  0  0  0  0  1 V2000
  152.1279  131.6595  156.9208 C   0  0  0  0  0  0  0  0  0  0  0  0
  151.2791  132.6446  156.1929 C   0  0  0  0  0  0  0  0  0  0  0  0
  150.3886  132.5234  155.1634 C   0  0  0  0  0  0  0  0  0  0  0  0
  149.9417  133.8574  154.9688 C   0  0  0  0  0  0  0  0  0  0  0  0
  148.9879  134.1651  153.9654 N   0  0  0  0  0  0  0  0  0  0  0  0
  147.8973  133.4569  153.6259 C   0  0  0  0  0  0  0  0  0  0  0  0
  147.5520  132.3958  154.1465 O   0  0  0  0  0  0  0  0  0  0  0  0
  147.2204  134.0568  152.6351 N   0  0  0  0  0  0  0  0  0  0  0  0
  146.0000  133.5576  152.0018 C   0  0  2  0  0  0  0  0  0  0  0  0
  146.2538  132.1184  151.5110 C   0  0  0  0  0  0  0  0  0  0  0  0
  145.0374  131.5456  150.7699 C   0  0  0  0  0  0  0  0  0  0  0  0
  144.6310  132.4536  149.6019 C   0  0  0  0  0  0  0  0  0  0  0  0
  144.3551  133.8840  150.0881 C   0  0  0  0  0  0  0  0  0  0  0  0
  145.5638  134.4831  150.8364 C   0  0  1  0  0  0  0  0  0  0  0  0
  145.2498  135.9164  151.3012 C   0  0  0  0  0  0  0  0  0  0  0  0
  150.5088  134.7155  155.8028 N   0  0  0  0  0  0  0  0  0  0  0  0
  151.3691  133.9425  156.5916 O   0  0  0  0  0  0  0  0  0  0  0  0
  151.8996  130.6410  156.6065 H   0  0  0  0  0  0  0  0  0  0  0  0
  151.9624  131.7263  157.9963 H   0  0  0  0  0  0  0  0  0  0  0  0
  153.1849  131.8441  156.7286 H   0  0  0  0  0  0  0  0  0  0  0  0
  150.1045  131.6243  154.6373 H   0  0  0  0  0  0  0  0  0  0  0  0
  149.1549  135.0163  153.4496 H   0  0  0  0  0  0  0  0  0  0  0  0
  147.5837  134.9288  152.2795 H   0  0  0  0  0  0  0  0  0  0  0  0
  145.1873  133.5193  152.7298 H   0  0  0  0  0  0  0  0  0  0  0  0
  147.1190  132.1018  150.8463 H   0  0  0  0  0  0  0  0  0  0  0  0
  146.5019  131.4745  152.3556 H   0  0  0  0  0  0  0  0  0  0  0  0
  145.2633  130.5446  150.4014 H   0  0  0  0  0  0  0  0  0  0  0  0
  144.2013  131.4406  151.4625 H   0  0  0  0  0  0  0  0  0  0  0  0
  145.4241  132.4663  148.8532 H   0  0  0  0  0  0  0  0  0  0  0  0
  143.7458  132.0509  149.1087 H   0  0  0  0  0  0  0  0  0  0  0  0
  144.0961  134.5123  149.2350 H   0  0  0  0  0  0  0  0  0  0  0  0
  143.4824  133.8811  150.7428 H   0  0  0  0  0  0  0  0  0  0  0  0
  146.3905  134.5443  150.1267 H   0  0  0  0  0  0  0  0  0  0  0  0
  144.4526  135.9238  152.0452 H   0  0  0  0  0  0  0  0  0  0  0  0
  144.9294  136.5382  150.4650 H   0  0  0  0  0  0  0  0  0  0  0  0
  146.1217  136.3980  151.7436 H   0  0  0  0  0  0  0  0  0  0  0  0
  1  2  1  0  0  0  0
  1 18  1  0  0  0  0
  1 19  1  0  0  0  0
  1 20  1  0  0  0  0
  2 17  1  0  0  0  0
  2  3  2  0  0  0  0
  3  4  1  0  0  0  0
  3 21  1  0  0  0  0
  4  5  1  0  0  0  0
  4 16  2  0  0  0  0
  5  6  1  0  0  0  0
  5 22  1  0  0  0  0
  6  7  2  0  0  0  0
  6  8  1  0  0  0  0
  8  9  1  0  0  0  0
  8 23  1  0  0  0  0
  9 14  1  0  0  0  0
  9 10  1  0  0  0  0
  9 24  1  0  0  0  0
 10 11  1  0  0  0  0
 10 25  1  0  0  0  0
 10 26  1  0  0  0  0
 11 12  1  0  0  0  0
 11 27  1  0  0  0  0
 11 28  1  0  0  0  0
 12 13  1  0  0  0  0
 12 29  1  0  0  0  0
 12 30  1  0  0  0  0
 13 14  1  0  0  0  0
 13 31  1  0  0  0  0
 13 32  1  0  0  0  0
 14 15  1  0  0  0  0
 14 33  1  0  0  0  0
 15 34  1  0  0  0  0
 15 35  1  0  0  0  0
 15 36  1  0  0  0  0
 16 17  1  0  0  0  0
M  END
> <s_m_source_file>
AV-unprocessed.smi

> <i_m_source_file_index>
2945

> <i_lp_mmshare_version>
43012

> <i_f3d_flags>
0

> <s_epik_input>
W0NIM11jMVtjSF1jKG5vMSlbTkhdQyg9TylbTkhdW0NAQEhdMltDSDJdW0NIMl1bQ0gyXVtDSDJdW0NASF0yW0NIM10=

> <s_epik_cmdline>
J2VwaWtfcHl0aG9uJywgJy1waCcsICc3LjAnLCAnLXRuJywgJzgnLCAnLW1hJywgJzIwMCcsICctbWV0YWxfYmluZGluZycsICctaW1hZScsICc8aW5maWxlLm1hZT4nLCAnLW9tYWUnLCAnPG91dGZpbGUubWFlPic=

> <r_lp_tautomer_probability>
1

> <r_epik_Ionization_Penalty>
2.357e-05

> <r_epik_Ionization_Penalty_Charging>
0

> <r_epik_Ionization_Penalty_Neutral>
2.357e-05

> <r_epik_State_Penalty>
-0

> <r_epik_Charging_Adjusted_Penalty>
0

> <i_epik_Tot_Q>
0

> <i_epik_Tot_abs_Q>
0

> <r_epik_Metal_State_Penalty>
-0

> <b_epik_Metal_Only>
0

> <s_lp_Force_Field>
OPLS_2005

> <r_lp_Energy>
8.52615

> <b_lp_Chiralities_Consistent>
1

> <s_lp_Variant>
AV-unprocessed.smi:2945-1

> <Gold.Version>
5.8.1

> <Gold.Id.Protein>
6NUR|6NUR_protein|mol2

> <Gold.PLP.Fitness>
36.5809

> <Gold.PLP.PLP>
-31.2569

> <Gold.PLP.part.hbond>
-2.4490

> <Gold.PLP.part.metal>
0.0000

> <Gold.PLP.part.buried>
-4.2675

> <Gold.PLP.part.nonpolar>
-24.8314

> <Gold.PLP.part.repulsive>
0.0896

> <Gold.PLP.ligand.clash>
0.0000

> <Gold.PLP.ligand.torsion>
0.3400

> <Gold.PLP.Chemscore.Hbond>
2.0000

> <Gold.PLP.Chemscore.CHOScore>
0.0000

> <Gold.PLP.Chemscore.Metal>
0.0000

> <Gold.Chemscore.Hbonds>
donor molecule, donor type, donor heavy atom, donor atom, acceptor molecule, acceptor atom, score
      L1  H     5    22       P1  7948  0.90
      L1  H     8    23       P1  7948  1.00

> <Gold.PLP.Chemscore.Internal.Correction>
0.0040

> <Gold.Rescore>
     Score         DG    S(hbond)    S(metal)    S(lipo)     H(rot)  DE(clash)    DE(int)     intcor
     14.96     -16.48       1.62        0.00      69.70       1.00       0.00       1.51       ----

> <Gold.Chemscore.Fitness>
14.9601

> <Gold.Chemscore.DG>
-16.4771

> <Gold.Chemscore.ZeroCoef>
-5.4800

> <Gold.Chemscore.Hbond>
1.6175

> <Gold.Chemscore.Metal>
0.0000

> <Gold.Chemscore.Lipo>
69.6977

> <Gold.Chemscore.Internal_Hbond>
0.0000

> <Gold.Chemscore.DEClash>
0.0038

> <Gold.Chemscore.DEInternal>
1.5132

> <Gold.Chemscore.Rot>
1.0000

> <Gold.Chemscore.Internal.Correction>
   9.000000E+99

> <Gold.Chemscore.Hbonds>
donor molecule, donor type, donor heavy atom, donor atom, acceptor molecule, acceptor atom, score
      L1  H     5    22       P1  7948  0.17
      L1  H     8    23       P1  7948  0.91

> <Gold.Chemscore.Hbond.Weighted>
-5.4024

> <Gold.Chemscore.Metal.Weighted>
-0.0000

> <Gold.Chemscore.Lipo.Weighted>
-8.1546

> <Gold.Chemscore.Internal_Hbond.Weighted>
0.0000

> <Gold.Chemscore.DEClash.Weighted>
0.0038

> <Gold.Chemscore.DEInternal.Weighted>
1.5132

> <Gold.Chemscore.Rot.Weighted>
2.5600

> <Gold.Chemscore.Internal.Correction.Weighted>
   9.000000E+99

> <Gold.Protein.RotatedTorsions>
[ 6907 6896 6895 6894 ] final  -36.52 input  -60.11 | X-H torsion
[ 7974 7965 7964 7962 ] final  -23.43 input  175.53 | X-H torsion
[ 8008 7997 7996 7995 ] final   98.40 input   59.86 | X-H torsion
[ 10167 10162 10161 10158 ] final   26.30 input  -65.29 | X-H torsion
[ 10718 10713 10712 10709 ] final -160.26 input   66.30 | X-H torsion
[ 10763 10752 10751 10750 ] final -150.04 input  -60.55 | X-H torsion
[ 11005 11000 10999 10996 ] final   71.27 input  -57.11 | X-H torsion

> <Gold.Protein.ActiveResidues>
 VAL166  LYS551  ARG553  GLY616  TRP617  ASP618  TYR619  PRO620  LYS621  CYS622 
 ASP623  PHE694  ASN695  SER759  ASP760  ASP761  ALA762  ILE779  LEU786  VAL792 
 PHE793  MET794  SER795  GLU796  ALA797  LYS798  CYS799  TRP800  GLU811  SER814 

> <Gold.Protein.RotatedAtoms>
  151.0261  134.9505  159.8085 H   0  0  0  0  0  0  0  0  0  0  0  0  # atno 6907 bound_to 6896
  152.5336  134.2840  159.9028 H   0  0  0  0  0  0  0  0  0  0  0  0  # atno 6908 bound_to 6896
  151.2849  133.4150  159.2663 H   0  0  0  0  0  0  0  0  0  0  0  0  # atno 6909 bound_to 6896
  146.1616  140.4615  142.8569 H   0  0  0  0  0  0  0  0  0  0  0  0  # atno 7974 bound_to 7965
  156.1000  140.3244  155.7929 H   0  0  0  0  0  0  0  0  0  0  0  0  # atno 8008 bound_to 7997
  155.4852  140.0557  157.2979 H   0  0  0  0  0  0  0  0  0  0  0  0  # atno 8009 bound_to 7997
  154.4691  140.2003  156.0056 H   0  0  0  0  0  0  0  0  0  0  0  0  # atno 8010 bound_to 7997
  140.5034  144.0278  150.6342 H   0  0  0  0  0  0  0  0  0  0  0  0  # atno 10167 bound_to 10162
  156.5796  130.8724  151.2861 H   0  0  0  0  0  0  0  0  0  0  0  0  # atno 10718 bound_to 10713
  154.8142  135.3294  154.7221 H   0  0  0  0  0  0  0  0  0  0  0  0  # atno 10763 bound_to 10752
  153.7865  135.6914  153.4883 H   0  0  0  0  0  0  0  0  0  0  0  0  # atno 10764 bound_to 10752
  153.1945  135.4538  155.0138 H   0  0  0  0  0  0  0  0  0  0  0  0  # atno 10765 bound_to 10752
  139.9552  134.7156  156.0768 H   0  0  0  0  0  0  0  0  0  0  0  0  # atno 11005 bound_to 11000
  144.8035  140.6257  143.6462 LP  0  0  0  0  0  0  0  0  0  0  0  0  # atno 17320 bound_to 7965
  145.4573  139.1516  143.3885 LP  0  0  0  0  0  0  0  0  0  0  0  0  # atno 17321 bound_to 7965
  140.3580  143.2924  152.0415 LP  0  0  0  0  0  0  0  0  0  0  0  0  # atno 17342 bound_to 10162
  139.4877  144.6324  151.7043 LP  0  0  0  0  0  0  0  0  0  0  0  0  # atno 17343 bound_to 10162
  157.7329  130.9723  150.1954 LP  0  0  0  0  0  0  0  0  0  0  0  0  # atno 17370 bound_to 10713
  156.2643  130.3714  149.8097 LP  0  0  0  0  0  0  0  0  0  0  0  0  # atno 17371 bound_to 10713
  141.1223  133.6609  156.3246 LP  0  0  0  0  0  0  0  0  0  0  0  0  # atno 17394 bound_to 11000
  140.5625  134.5920  157.5437 LP  0  0  0  0  0  0  0  0  0  0  0  0  # atno 17395 bound_to 11000

$$$$
