AV-unprocessed.smi:2330|AV-procd|sdf|9310|dock4
  -GOLD-   2272012523D 1   1.00000     0.00000
 Structure written by MMmdl.
 42 43  0  0  0  0  0  0  0  0  1 V2000
  146.2032  138.1091  153.8507 C   0  0  0  0  0  0  0  0  0  0  0  0
  146.6858  139.3979  154.5317 C   0  0  2  0  0  0  0  0  0  0  0  0
  147.7792  140.0986  153.7029 C   0  0  0  0  0  0  0  0  0  0  0  0
  148.2678  141.3879  154.3823 C   0  0  0  0  0  0  0  0  0  0  0  0
  148.7654  141.1180  155.8172 C   0  0  1  0  0  0  0  0  0  0  0  0
  149.1480  142.3671  156.4685 N   0  0  0  0  0  0  0  0  0  0  0  0
  149.4679  142.4949  157.7637 C   0  0  0  0  0  0  0  0  0  0  0  0
  149.4431  141.5709  158.5770 O   0  0  0  0  0  0  0  0  0  0  0  0
  149.8449  143.7458  158.0611 N   0  0  0  0  0  0  0  0  0  0  0  0
  150.3386  144.1848  159.3638 C   0  0  0  0  0  0  0  0  0  0  0  0
  151.8707  144.3859  159.3902 C   0  0  2  0  0  0  0  0  0  0  0  0
  152.4823  144.5118  157.9875 C   0  0  0  0  0  0  0  0  0  0  0  0
  152.5848  143.3711  160.2316 C   0  0  0  0  0  0  0  0  0  0  0  0
  152.4175  143.2502  161.5526 N   0  0  0  0  0  0  0  0  0  0  0  0
  153.2146  142.2438  162.1033 C   0  0  0  0  0  0  0  0  0  0  0  0
  154.0002  141.6012  161.1807 C   0  0  0  0  0  0  0  0  0  0  0  0
  153.7641  142.2381  159.5766 S   0  0  0  0  0  0  0  0  0  0  0  0
  147.6757  140.4141  156.6462 C   0  0  0  0  0  0  0  0  0  0  0  0
  147.1908  139.1258  155.9616 C   0  0  0  0  0  0  0  0  0  0  0  0
  147.0144  137.3879  153.7458 H   0  0  0  0  0  0  0  0  0  0  0  0
  145.8099  138.3149  152.8551 H   0  0  0  0  0  0  0  0  0  0  0  0
  145.4079  137.6350  154.4269 H   0  0  0  0  0  0  0  0  0  0  0  0
  145.8308  140.0726  154.5994 H   0  0  0  0  0  0  0  0  0  0  0  0
  148.6236  139.4227  153.5599 H   0  0  0  0  0  0  0  0  0  0  0  0
  147.4006  140.3332  152.7077 H   0  0  0  0  0  0  0  0  0  0  0  0
  149.0638  141.8338  153.7846 H   0  0  0  0  0  0  0  0  0  0  0  0
  147.4550  142.1155  154.4034 H   0  0  0  0  0  0  0  0  0  0  0  0
  149.6352  140.4595  155.7720 H   0  0  0  0  0  0  0  0  0  0  0  0
  149.2031  143.1867  155.8818 H   0  0  0  0  0  0  0  0  0  0  0  0
  149.8330  144.4357  157.3242 H   0  0  0  0  0  0  0  0  0  0  0  0
  149.8445  145.1296  159.5917 H   0  0  0  0  0  0  0  0  0  0  0  0
  150.0295  143.4811  160.1384 H   0  0  0  0  0  0  0  0  0  0  0  0
  152.0472  145.3476  159.8735 H   0  0  0  0  0  0  0  0  0  0  0  0
  153.5434  144.7567  158.0430 H   0  0  0  0  0  0  0  0  0  0  0  0
  151.9911  145.2987  157.4147 H   0  0  0  0  0  0  0  0  0  0  0  0
  152.3830  143.5818  157.4269 H   0  0  0  0  0  0  0  0  0  0  0  0
  153.1607  142.0522  163.1649 H   0  0  0  0  0  0  0  0  0  0  0  0
  154.7000  140.7957  161.3467 H   0  0  0  0  0  0  0  0  0  0  0  0
  148.0568  140.1784  157.6406 H   0  0  0  0  0  0  0  0  0  0  0  0
  146.8279  141.0856  156.7912 H   0  0  0  0  0  0  0  0  0  0  0  0
  146.3974  138.6734  156.5575 H   0  0  0  0  0  0  0  0  0  0  0  0
  148.0059  138.4012  155.9331 H   0  0  0  0  0  0  0  0  0  0  0  0
  1  2  1  0  0  0  0
  1 20  1  0  0  0  0
  1 21  1  0  0  0  0
  1 22  1  0  0  0  0
  2 19  1  0  0  0  0
  2  3  1  0  0  0  0
  2 23  1  0  0  0  0
  3  4  1  0  0  0  0
  3 24  1  0  0  0  0
  3 25  1  0  0  0  0
  4  5  1  0  0  0  0
  4 26  1  0  0  0  0
  4 27  1  0  0  0  0
  5  6  1  0  0  0  0
  5 18  1  0  0  0  0
  5 28  1  0  0  0  0
  6  7  1  0  0  0  0
  6 29  1  0  0  0  0
  7  8  2  0  0  0  0
  7  9  1  0  0  0  0
  9 10  1  0  0  0  0
  9 30  1  0  0  0  0
 10 11  1  0  0  0  0
 10 31  1  0  0  0  0
 10 32  1  0  0  0  0
 11 12  1  0  0  0  0
 11 13  1  0  0  0  0
 11 33  1  0  0  0  0
 12 34  1  0  0  0  0
 12 35  1  0  0  0  0
 12 36  1  0  0  0  0
 13 17  1  0  0  0  0
 13 14  2  0  0  0  0
 14 15  1  0  0  0  0
 15 16  2  0  0  0  0
 15 37  1  0  0  0  0
 16 17  1  0  0  0  0
 16 38  1  0  0  0  0
 18 19  1  0  0  0  0
 18 39  1  0  0  0  0
 18 40  1  0  0  0  0
 19 41  1  0  0  0  0
 19 42  1  0  0  0  0
M  END
> <s_m_source_file>
AV-unprocessed.smi

> <i_m_source_file_index>
2330

> <i_lp_mmshare_version>
43012

> <i_f3d_flags>
0

> <s_epik_input>
W0NIM11bQ0BASF0xW0NIMl1bQ0gyXVtDQEhdKFtDSDJdW0NIMl0xKVtOSF1DKD1PKVtOSF1bQ0gyXVtDQEhdKFtDSDNdKWMybltjSF1bY0hdczI=

> <s_epik_cmdline>
J2VwaWtfcHl0aG9uJywgJy1waCcsICc3LjAnLCAnLXRuJywgJzgnLCAnLW1hJywgJzIwMCcsICctbWV0YWxfYmluZGluZycsICctaW1hZScsICc8aW5maWxlLm1hZT4nLCAnLW9tYWUnLCAnPG91dGZpbGUubWFlPic=

> <r_lp_tautomer_probability>
1

> <r_epik_Ionization_Penalty>
0.000331107

> <r_epik_Ionization_Penalty_Charging>
0

> <r_epik_Ionization_Penalty_Neutral>
0.000331107

> <r_epik_State_Penalty>
-0

> <r_epik_Charging_Adjusted_Penalty>
0

> <i_epik_Tot_Q>
0

> <i_epik_Tot_abs_Q>
0

> <r_epik_Metal_State_Penalty>
-0

> <b_epik_Metal_Only>
0

> <s_lp_Force_Field>
OPLS_2005

> <r_lp_Energy>
-1.82221

> <b_lp_Chiralities_Consistent>
1

> <s_lp_Variant>
AV-unprocessed.smi:2330-1

> <Gold.Version>
5.8.1

> <Gold.Id.Protein>
6NUR|6NUR_protein|mol2

> <Gold.PLP.Fitness>
42.2055

> <Gold.PLP.PLP>
-38.9294

> <Gold.PLP.part.hbond>
-3.5943

> <Gold.PLP.part.metal>
0.0000

> <Gold.PLP.part.buried>
-3.6701

> <Gold.PLP.part.nonpolar>
-32.1096

> <Gold.PLP.part.repulsive>
0.2458

> <Gold.PLP.ligand.clash>
0.0952

> <Gold.PLP.ligand.torsion>
0.9904

> <Gold.PLP.Chemscore.Hbond>
1.7448

> <Gold.PLP.Chemscore.CHOScore>
0.0000

> <Gold.PLP.Chemscore.Metal>
0.0000

> <Gold.Chemscore.Hbonds>
donor molecule, donor type, donor heavy atom, donor atom, acceptor molecule, acceptor atom, score
      L1  H     6    29       P1  8028  0.98
      L1  H     9    30       P1  8028  0.77

> <Gold.PLP.Chemscore.Internal.Correction>
0.1178

> <Gold.Rescore>
     Score         DG    S(hbond)    S(metal)    S(lipo)     H(rot)  DE(clash)    DE(int)     intcor
     15.09     -17.77       1.19        0.00     102.79       1.45       0.22       2.46       ----

> <Gold.Chemscore.Fitness>
15.0921

> <Gold.Chemscore.DG>
-17.7687

> <Gold.Chemscore.ZeroCoef>
-5.4800

> <Gold.Chemscore.Hbond>
1.1927

> <Gold.Chemscore.Metal>
0.0000

> <Gold.Chemscore.Lipo>
102.7888

> <Gold.Chemscore.Internal_Hbond>
0.0000

> <Gold.Chemscore.DEClash>
0.2181

> <Gold.Chemscore.DEInternal>
2.4585

> <Gold.Chemscore.Rot>
1.4536

> <Gold.Chemscore.Internal.Correction>
   9.000000E+99

> <Gold.Chemscore.Hbonds>
donor molecule, donor type, donor heavy atom, donor atom, acceptor molecule, acceptor atom, score
      L1  H     6    29       P1  8028  0.91
      L1  H     9    30       P1  8028  0.19

> <Gold.Chemscore.Hbond.Weighted>
-3.9836

> <Gold.Chemscore.Metal.Weighted>
-0.0000

> <Gold.Chemscore.Lipo.Weighted>
-12.0263

> <Gold.Chemscore.Internal_Hbond.Weighted>
0.0000

> <Gold.Chemscore.DEClash.Weighted>
0.2181

> <Gold.Chemscore.DEInternal.Weighted>
2.4585

> <Gold.Chemscore.Rot.Weighted>
3.7212

> <Gold.Chemscore.Internal.Correction.Weighted>
   9.000000E+99

> <Gold.Protein.RotatedTorsions>
[ 6907 6896 6895 6894 ] final    4.20 input  -60.11 | X-H torsion
[ 7974 7965 7964 7962 ] final -149.90 input  175.53 | X-H torsion
[ 8008 7997 7996 7995 ] final   61.71 input   59.86 | X-H torsion
[ 10167 10162 10161 10158 ] final  -85.81 input  -65.29 | X-H torsion
[ 10718 10713 10712 10709 ] final -159.68 input   66.30 | X-H torsion
[ 10763 10752 10751 10750 ] final  101.65 input  -60.55 | X-H torsion
[ 11005 11000 10999 10996 ] final  157.99 input  -57.11 | X-H torsion

> <Gold.Protein.ActiveResidues>
 VAL166  LYS551  ARG553  GLY616  TRP617  ASP618  TYR619  PRO620  LYS621  CYS622 
 ASP623  PHE694  ASN695  SER759  ASP760  ASP761  ALA762  ILE779  LEU786  VAL792 
 PHE793  MET794  SER795  GLU796  ALA797  LYS798  CYS799  TRP800  GLU811  SER814 

> <Gold.Protein.RotatedAtoms>
  151.6374  135.1016  160.0134 H   0  0  0  0  0  0  0  0  0  0  0  0  # atno 6907 bound_to 6896
  152.4073  133.6904  159.6375 H   0  0  0  0  0  0  0  0  0  0  0  0  # atno 6908 bound_to 6896
  150.7966  133.8604  159.3271 H   0  0  0  0  0  0  0  0  0  0  0  0  # atno 6909 bound_to 6896
  144.7939  140.5003  143.5753 H   0  0  0  0  0  0  0  0  0  0  0  0  # atno 7974 bound_to 7965
  155.6027  140.3494  155.4598 H   0  0  0  0  0  0  0  0  0  0  0  0  # atno 8008 bound_to 7997
  156.0216  140.1255  157.0376 H   0  0  0  0  0  0  0  0  0  0  0  0  # atno 8009 bound_to 7997
  154.4317  140.1061  156.5958 H   0  0  0  0  0  0  0  0  0  0  0  0  # atno 8010 bound_to 7997
  140.4002  143.2666  151.9152 H   0  0  0  0  0  0  0  0  0  0  0  0  # atno 10167 bound_to 10162
  156.5715  130.8690  151.2839 H   0  0  0  0  0  0  0  0  0  0  0  0  # atno 10718 bound_to 10713
  153.3294  135.4037  155.1483 H   0  0  0  0  0  0  0  0  0  0  0  0  # atno 10763 bound_to 10752
  154.8619  135.3607  154.5490 H   0  0  0  0  0  0  0  0  0  0  0  0  # atno 10764 bound_to 10752
  153.5928  135.7073  153.5475 H   0  0  0  0  0  0  0  0  0  0  0  0  # atno 10765 bound_to 10752
  140.1822  134.8467  157.2816 H   0  0  0  0  0  0  0  0  0  0  0  0  # atno 11005 bound_to 11000
  145.5722  139.1484  143.3282 LP  0  0  0  0  0  0  0  0  0  0  0  0  # atno 17320 bound_to 7965
  146.2201  140.5855  142.9021 LP  0  0  0  0  0  0  0  0  0  0  0  0  # atno 17321 bound_to 7965
  139.4785  144.5641  151.8192 LP  0  0  0  0  0  0  0  0  0  0  0  0  # atno 17342 bound_to 10162
  140.4748  144.1535  150.5923 LP  0  0  0  0  0  0  0  0  0  0  0  0  # atno 17343 bound_to 10162
  157.7347  130.9750  150.2042 LP  0  0  0  0  0  0  0  0  0  0  0  0  # atno 17370 bound_to 10713
  156.2710  130.3722  149.8031 LP  0  0  0  0  0  0  0  0  0  0  0  0  # atno 17371 bound_to 10713
  140.2254  134.3972  155.7546 LP  0  0  0  0  0  0  0  0  0  0  0  0  # atno 17394 bound_to 11000
  141.2223  133.7187  156.8557 LP  0  0  0  0  0  0  0  0  0  0  0  0  # atno 17395 bound_to 11000

$$$$
