AV-unprocessed.smi:743|AV-procd|sdf|3563|dock8
  -GOLD-   22720 0563D 1   1.00000     0.00000
 Structure written by MMmdl.
 29 30  0  0  0  0  0  0  0  0  2 V2000
  143.3417  132.7319  148.0246 C   0  0  0  0  0  0  0  0  0  0  0  0
  144.2104  132.6308  149.1778 N   0  0  0  0  0  0  0  0  0  0  0  0
  143.9836  133.0616  150.4665 C   0  0  0  0  0  0  0  0  0  0  0  0
  145.0866  132.7414  151.2117 C   0  0  0  0  0  0  0  0  0  0  0  0
  145.3609  132.9758  152.6838 C   0  0  1  0  0  0  0  0  0  0  0  0
  145.5831  131.7060  153.3806 N   0  0  0  0  0  0  0  0  0  0  0  0
  146.7733  131.1556  153.6860 C   0  0  0  0  0  0  0  0  0  0  0  0
  146.8516  130.0286  154.1678 O   0  0  0  0  0  0  0  0  0  0  0  0
  148.0575  131.9755  153.4751 C   0  0  0  0  0  0  0  0  0  0  0  0
  147.8748  133.2327  152.6053 C   0  0  0  0  0  0  0  0  0  0  0  0
  146.5496  133.9384  152.9232 C   0  0  1  0  0  0  0  0  0  0  0  0
  146.4121  135.2053  152.1808 N   0  3  0  0  0  0  0  0  0  0  0  0
  145.9478  132.1209  150.2603 C   0  0  0  0  0  0  0  0  0  0  0  0
  145.4197  132.0494  149.0505 N   0  0  0  0  0  0  0  0  0  0  0  0
  146.5625  134.2078  153.9805 H   0  0  0  0  0  0  0  0  0  0  0  0
  142.3998  133.2036  148.3056 H   0  0  0  0  0  0  0  0  0  0  0  0
  143.1350  131.7370  147.6289 H   0  0  0  0  0  0  0  0  0  0  0  0
  143.8221  133.3330  147.2519 H   0  0  0  0  0  0  0  0  0  0  0  0
  143.0617  133.5505  150.7465 H   0  0  0  0  0  0  0  0  0  0  0  0
  144.4774  133.4200  153.1440 H   0  0  0  0  0  0  0  0  0  0  0  0
  144.7596  131.1548  153.5775 H   0  0  0  0  0  0  0  0  0  0  0  0
  148.4109  132.2732  154.4627 H   0  0  0  0  0  0  0  0  0  0  0  0
  148.8328  131.3370  153.0506 H   0  0  0  0  0  0  0  0  0  0  0  0
  148.7108  133.9118  152.7752 H   0  0  0  0  0  0  0  0  0  0  0  0
  147.9157  132.9596  151.5499 H   0  0  0  0  0  0  0  0  0  0  0  0
  145.6226  135.7213  152.5425 H   0  0  0  0  0  0  0  0  0  0  0  0
  146.2648  135.0083  151.2010 H   0  0  0  0  0  0  0  0  0  0  0  0
  146.9365  131.7152  150.4163 H   0  0  0  0  0  0  0  0  0  0  0  0
  147.2522  135.7550  152.2907 H   0  0  0  0  0  0  0  0  0  0  0  0
  1  2  1  0  0  0  0
  1 16  1  0  0  0  0
  1 17  1  0  0  0  0
  1 18  1  0  0  0  0
  2 14  1  0  0  0  0
  2  3  1  0  0  0  0
  3  4  2  0  0  0  0
  3 19  1  0  0  0  0
  4  5  1  0  0  0  0
  4 13  1  0  0  0  0
  5 11  1  0  0  0  0
  5  6  1  0  0  0  0
  5 20  1  0  0  0  0
  6  7  1  0  0  0  0
  6 21  1  0  0  0  0
  7  8  2  0  0  0  0
  7  9  1  0  0  0  0
  9 10  1  0  0  0  0
  9 22  1  0  0  0  0
  9 23  1  0  0  0  0
 10 11  1  0  0  0  0
 10 24  1  0  0  0  0
 10 25  1  0  0  0  0
 11 15  1  0  0  0  0
 11 12  1  0  0  0  0
 12 26  1  0  0  0  0
 12 27  1  0  0  0  0
 12 29  1  0  0  0  0
 13 14  2  0  0  0  0
 13 28  1  0  0  0  0
M  CHG  1  12   1
M  END
> <s_m_source_file>
AV-unprocessed.smi

> <i_m_source_file_index>
743

> <i_lp_mmshare_version>
43012

> <i_f3d_flags>
0

> <s_epik_input>
W0NIM11uMVtjSF1jKFtjSF1uMSlbQ0BASF0yW05IXUMoPU8pW0NIMl1bQ0gyXVtDQEBIXTJbTkgyXQ==

> <s_epik_cmdline>
J2VwaWtfcHl0aG9uJywgJy1waCcsICc3LjAnLCAnLXRuJywgJzgnLCAnLW1hJywgJzIwMCcsICctbWV0YWxfYmluZGluZycsICctaW1hZScsICc8aW5maWxlLm1hZT4nLCAnLW9tYWUnLCAnPG91dGZpbGUubWFlPic=

> <r_lp_tautomer_probability>
1

> <r_epik_Ionization_Penalty>
0.00878543

> <r_epik_Ionization_Penalty_Charging>
0.00874185

> <r_epik_Ionization_Penalty_Neutral>
4.35793e-05

> <r_epik_State_Penalty>
0.00660351

> <r_epik_Charging_Adjusted_Penalty>
0.0153454

> <i_epik_Tot_Q>
1

> <i_epik_Tot_abs_Q>
1

> <r_epik_Metal_State_Penalty>
0.00660727

> <b_epik_Metal_Only>
0

> <s_lp_Force_Field>
OPLS_2005

> <r_lp_Energy>
11.1602

> <b_lp_Chiralities_Consistent>
1

> <s_lp_Variant>
AV-unprocessed.smi:743-4

> <Gold.Version>
5.8.1

> <Gold.Id.Protein>
6NUR|6NUR_protein|mol2

> <Gold.PLP.Fitness>
37.1915

> <Gold.PLP.PLP>
-25.2119

> <Gold.PLP.part.hbond>
-1.4243

> <Gold.PLP.part.metal>
0.0000

> <Gold.PLP.part.buried>
-1.6495

> <Gold.PLP.part.nonpolar>
-23.0674

> <Gold.PLP.part.repulsive>
0.3204

> <Gold.PLP.ligand.clash>
0.0000

> <Gold.PLP.ligand.torsion>
0.0158

> <Gold.PLP.Chemscore.Hbond>
2.0000

> <Gold.PLP.Chemscore.CHOScore>
1.9975

> <Gold.PLP.Chemscore.Metal>
0.0000

> <Gold.Chemscore.Hbonds>
donor molecule, donor type, donor heavy atom, donor atom, acceptor molecule, acceptor atom, score
      L1  H    12    29       P1  7948  2.00
      L1  C     3    19       P1 10186  1.00
      L1  C    13    28       P1 10747  1.00

> <Gold.PLP.Chemscore.Internal.Correction>
0.0187

> <Gold.Rescore>
     Score         DG    S(hbond)    S(metal)    S(lipo)     H(rot)  DE(clash)    DE(int)     intcor
     13.21     -13.50       1.00        0.00      61.92       1.00       0.27       0.03       ----

> <Gold.Chemscore.Fitness>
13.2065

> <Gold.Chemscore.DG>
-13.5040

> <Gold.Chemscore.ZeroCoef>
-5.4800

> <Gold.Chemscore.Hbond>
1.0000

> <Gold.Chemscore.Metal>
0.0000

> <Gold.Chemscore.Lipo>
61.9153

> <Gold.Chemscore.Internal_Hbond>
0.0000

> <Gold.Chemscore.DEClash>
0.2679

> <Gold.Chemscore.DEInternal>
0.0297

> <Gold.Chemscore.Rot>
1.0000

> <Gold.Chemscore.Internal.Correction>
   9.000000E+99

> <Gold.Chemscore.Hbonds>
donor molecule, donor type, donor heavy atom, donor atom, acceptor molecule, acceptor atom, score
      L1  H    12    29       P1  7948  0.96

> <Gold.Chemscore.Hbond.Weighted>
-3.3399

> <Gold.Chemscore.Metal.Weighted>
-0.0000

> <Gold.Chemscore.Lipo.Weighted>
-7.2441

> <Gold.Chemscore.Internal_Hbond.Weighted>
0.0000

> <Gold.Chemscore.DEClash.Weighted>
0.2679

> <Gold.Chemscore.DEInternal.Weighted>
0.0297

> <Gold.Chemscore.Rot.Weighted>
2.5600

> <Gold.Chemscore.Internal.Correction.Weighted>
   9.000000E+99

> <Gold.Protein.RotatedTorsions>
[ 6907 6896 6895 6894 ] final -174.59 input  -60.11 | X-H torsion
[ 7974 7965 7964 7962 ] final   25.06 input  175.53 | X-H torsion
[ 8008 7997 7996 7995 ] final  -63.67 input   59.86 | X-H torsion
[ 10167 10162 10161 10158 ] final   -2.67 input  -65.29 | X-H torsion
[ 10718 10713 10712 10709 ] final  -51.57 input   66.30 | X-H torsion
[ 10763 10752 10751 10750 ] final   57.59 input  -60.55 | X-H torsion
[ 11005 11000 10999 10996 ] final   58.98 input  -57.11 | X-H torsion

> <Gold.Protein.ActiveResidues>
 VAL166  LYS551  ARG553  GLY616  TRP617  ASP618  TYR619  PRO620  LYS621  CYS622 
 ASP623  PHE694  ASN695  SER759  ASP760  ASP761  ALA762  ILE779  LEU786  VAL792 
 PHE793  MET794  SER795  GLU796  ALA797  LYS798  CYS799  TRP800  GLU811  SER814 

> <Gold.Protein.RotatedAtoms>
  151.5748  133.3385  159.2996 H   0  0  0  0  0  0  0  0  0  0  0  0  # atno 6907 bound_to 6896
  150.8347  134.7617  159.6894 H   0  0  0  0  0  0  0  0  0  0  0  0  # atno 6908 bound_to 6896
  152.4425  134.5569  159.9934 H   0  0  0  0  0  0  0  0  0  0  0  0  # atno 6909 bound_to 6896
  146.1907  139.7518  142.8834 H   0  0  0  0  0  0  0  0  0  0  0  0  # atno 7974 bound_to 7965
  154.4568  140.0970  156.6779 H   0  0  0  0  0  0  0  0  0  0  0  0  # atno 8008 bound_to 7997
  155.5115  140.3476  155.4371 H   0  0  0  0  0  0  0  0  0  0  0  0  # atno 8009 bound_to 7997
  156.0792  140.1369  156.9722 H   0  0  0  0  0  0  0  0  0  0  0  0  # atno 8010 bound_to 7997
  140.6860  143.6629  150.8251 H   0  0  0  0  0  0  0  0  0  0  0  0  # atno 10167 bound_to 10162
  156.1699  130.4149  149.9664 H   0  0  0  0  0  0  0  0  0  0  0  0  # atno 10718 bound_to 10713
  152.9853  135.5636  154.5415 H   0  0  0  0  0  0  0  0  0  0  0  0  # atno 10763 bound_to 10752
  154.4869  135.2791  155.1529 H   0  0  0  0  0  0  0  0  0  0  0  0  # atno 10764 bound_to 10752
  154.3015  135.6306  153.5480 H   0  0  0  0  0  0  0  0  0  0  0  0  # atno 10765 bound_to 10752
  140.0337  134.5974  155.9472 H   0  0  0  0  0  0  0  0  0  0  0  0  # atno 11005 bound_to 11000
  145.3801  141.0357  143.3182 LP  0  0  0  0  0  0  0  0  0  0  0  0  # atno 17320 bound_to 7965
  144.8482  139.5364  143.6869 LP  0  0  0  0  0  0  0  0  0  0  0  0  # atno 17321 bound_to 7965
  140.0336  143.5418  152.2749 LP  0  0  0  0  0  0  0  0  0  0  0  0  # atno 17342 bound_to 10162
  139.6220  144.7630  151.2721 LP  0  0  0  0  0  0  0  0  0  0  0  0  # atno 17343 bound_to 10162
  156.7467  130.9100  151.3635 LP  0  0  0  0  0  0  0  0  0  0  0  0  # atno 17370 bound_to 10713
  157.6795  130.9126  150.0231 LP  0  0  0  0  0  0  0  0  0  0  0  0  # atno 17371 bound_to 10713
  141.1845  133.6553  156.5161 LP  0  0  0  0  0  0  0  0  0  0  0  0  # atno 17394 bound_to 11000
  140.4182  134.7211  157.4875 LP  0  0  0  0  0  0  0  0  0  0  0  0  # atno 17395 bound_to 11000

$$$$
