AV-unprocessed.smi:2445|AV-procd|sdf|9636|dock6
  -GOLD-   2272013273D 1   1.00000     0.00000
 Structure written by MMmdl.
 40 41  0  0  0  0  0  0  0  0  1 V2000
  154.1991  139.6989  160.6638 C   0  0  0  0  0  0  0  0  0  0  0  0
  153.6317  141.0770  160.6352 C   0  0  0  0  0  0  0  0  0  0  0  0
  153.4921  141.9503  161.6851 C   0  0  0  0  0  0  0  0  0  0  0  0
  152.9272  143.1762  161.3278 N   0  0  0  0  0  0  0  0  0  0  0  0
  152.6376  143.2458  160.0254 C   0  0  0  0  0  0  0  0  0  0  0  0
  152.0730  144.4655  159.3615 C   0  0  1  0  0  0  0  0  0  0  0  0
  152.8046  144.7967  158.0525 C   0  0  0  0  0  0  0  0  0  0  0  0
  150.5378  144.4156  159.1990 C   0  0  0  0  0  0  0  0  0  0  0  0
  150.1361  143.7974  157.9363 N   0  0  0  0  0  0  0  0  0  0  0  0
  149.9364  142.4861  157.7390 C   0  0  0  0  0  0  0  0  0  0  0  0
  150.1288  141.6203  158.5924 O   0  0  0  0  0  0  0  0  0  0  0  0
  149.4804  142.2353  156.5041 N   0  0  0  0  0  0  0  0  0  0  0  0
  149.0974  140.9174  155.9970 C   0  0  1  0  0  0  0  0  0  0  0  0
  148.3630  141.0490  154.6636 C   0  0  0  0  0  0  0  0  0  0  0  0
  149.0647  140.0484  153.7514 C   0  0  0  0  0  0  0  0  0  0  0  0
  150.3898  140.0263  154.2514 O   0  0  0  0  0  0  0  0  0  0  0  0
  150.3004  140.0034  155.6687 C   0  0  1  0  0  0  0  0  0  0  0  0
  151.6591  140.3644  156.2901 C   0  0  0  0  0  0  0  0  0  0  0  0
  153.0444  141.7745  159.1489 S   0  0  0  0  0  0  0  0  0  0  0  0
  154.5771  139.4503  161.6558 H   0  0  0  0  0  0  0  0  0  0  0  0
  155.0239  139.6061  159.9568 H   0  0  0  0  0  0  0  0  0  0  0  0
  153.4401  138.9630  160.3979 H   0  0  0  0  0  0  0  0  0  0  0  0
  153.7710  141.7844  162.7153 H   0  0  0  0  0  0  0  0  0  0  0  0
  152.2807  145.2966  160.0369 H   0  0  0  0  0  0  0  0  0  0  0  0
  153.8751  144.9177  158.2213 H   0  0  0  0  0  0  0  0  0  0  0  0
  152.4319  145.7244  157.6177 H   0  0  0  0  0  0  0  0  0  0  0  0
  152.6708  144.0065  157.3132 H   0  0  0  0  0  0  0  0  0  0  0  0
  150.0999  143.8333  160.0101 H   0  0  0  0  0  0  0  0  0  0  0  0
  150.1178  145.4191  159.2869 H   0  0  0  0  0  0  0  0  0  0  0  0
  149.9558  144.4232  157.1650 H   0  0  0  0  0  0  0  0  0  0  0  0
  149.3619  143.0146  155.8735 H   0  0  0  0  0  0  0  0  0  0  0  0
  148.4503  140.4101  156.7150 H   0  0  0  0  0  0  0  0  0  0  0  0
  147.2944  140.8495  154.7504 H   0  0  0  0  0  0  0  0  0  0  0  0
  148.4782  142.0526  154.2508 H   0  0  0  0  0  0  0  0  0  0  0  0
  148.6214  139.0558  153.8468 H   0  0  0  0  0  0  0  0  0  0  0  0
  149.0334  140.3404  152.7016 H   0  0  0  0  0  0  0  0  0  0  0  0
  150.0460  138.9826  155.9601 H   0  0  0  0  0  0  0  0  0  0  0  0
  151.6052  140.3651  157.3789 H   0  0  0  0  0  0  0  0  0  0  0  0
  152.0020  141.3472  155.9657 H   0  0  0  0  0  0  0  0  0  0  0  0
  152.4196  139.6399  155.9986 H   0  0  0  0  0  0  0  0  0  0  0  0
  1  2  1  0  0  0  0
  1 20  1  0  0  0  0
  1 21  1  0  0  0  0
  1 22  1  0  0  0  0
  2 19  1  0  0  0  0
  2  3  2  0  0  0  0
  3  4  1  0  0  0  0
  3 23  1  0  0  0  0
  4  5  2  0  0  0  0
  5  6  1  0  0  0  0
  5 19  1  0  0  0  0
  6  7  1  0  0  0  0
  6  8  1  0  0  0  0
  6 24  1  0  0  0  0
  7 25  1  0  0  0  0
  7 26  1  0  0  0  0
  7 27  1  0  0  0  0
  8  9  1  0  0  0  0
  8 28  1  0  0  0  0
  8 29  1  0  0  0  0
  9 10  1  0  0  0  0
  9 30  1  0  0  0  0
 10 11  2  0  0  0  0
 10 12  1  0  0  0  0
 12 13  1  0  0  0  0
 12 31  1  0  0  0  0
 13 17  1  0  0  0  0
 13 14  1  0  0  0  0
 13 32  1  0  0  0  0
 14 15  1  0  0  0  0
 14 33  1  0  0  0  0
 14 34  1  0  0  0  0
 15 16  1  0  0  0  0
 15 35  1  0  0  0  0
 15 36  1  0  0  0  0
 16 17  1  0  0  0  0
 17 18  1  0  0  0  0
 17 37  1  0  0  0  0
 18 38  1  0  0  0  0
 18 39  1  0  0  0  0
 18 40  1  0  0  0  0
M  END
> <s_m_source_file>
AV-unprocessed.smi

> <i_m_source_file_index>
2445

> <i_lp_mmshare_version>
43012

> <i_f3d_flags>
0

> <s_epik_input>
W0NIM11jMVtjSF1uYyhzMSlbQ0BIXShbQ0gzXSlbQ0gyXVtOSF1DKD1PKVtOSF1bQ0BASF0yW0NIMl1bQ0gyXU9bQ0BIXTJbQ0gzXQ==

> <s_epik_cmdline>
J2VwaWtfcHl0aG9uJywgJy1waCcsICc3LjAnLCAnLXRuJywgJzgnLCAnLW1hJywgJzIwMCcsICctbWV0YWxfYmluZGluZycsICctaW1hZScsICc8aW5maWxlLm1hZT4nLCAnLW9tYWUnLCAnPG91dGZpbGUubWFlPic=

> <r_epik_Ionization_Penalty>
0.000649483

> <r_epik_Ionization_Penalty_Charging>
0

> <r_epik_Ionization_Penalty_Neutral>
0.000649483

> <r_epik_State_Penalty>
0.000379895

> <r_epik_Charging_Adjusted_Penalty>
0.000379895

> <i_epik_Tot_Q>
0

> <i_epik_Tot_abs_Q>
0

> <r_epik_Metal_State_Penalty>
-0

> <b_epik_Metal_Only>
0

> <s_lp_Force_Field>
OPLS_2005

> <r_lp_Energy>
6.66007

> <b_lp_Chiralities_Consistent>
1

> <s_lp_Variant>
AV-unprocessed.smi:2445-4

> <Gold.Version>
5.8.1

> <Gold.Id.Protein>
6NUR|6NUR_protein|mol2

> <Gold.PLP.Fitness>
49.0796

> <Gold.PLP.PLP>
-42.3983

> <Gold.PLP.part.hbond>
-4.1297

> <Gold.PLP.part.metal>
0.0000

> <Gold.PLP.part.buried>
-2.3887

> <Gold.PLP.part.nonpolar>
-36.6253

> <Gold.PLP.part.repulsive>
0.2988

> <Gold.PLP.ligand.clash>
0.0000

> <Gold.PLP.ligand.torsion>
1.1484

> <Gold.PLP.Chemscore.Hbond>
2.9520

> <Gold.PLP.Chemscore.CHOScore>
0.0000

> <Gold.PLP.Chemscore.Metal>
0.0000

> <Gold.Chemscore.Hbonds>
donor molecule, donor type, donor heavy atom, donor atom, acceptor molecule, acceptor atom, score
      L1  H     9    30       P1  8028  0.91
      L1  H    12    31       P1  8028  0.96
      P1  H  7989  7998       L1    16  1.00

> <Gold.PLP.Chemscore.Internal.Correction>
0.1220

> <Gold.Rescore>
     Score         DG    S(hbond)    S(metal)    S(lipo)     H(rot)  DE(clash)    DE(int)     intcor
     21.09     -23.83       2.43        0.00     120.90       1.53       1.51       1.22       ----

> <Gold.Chemscore.Fitness>
21.0907

> <Gold.Chemscore.DG>
-23.8291

> <Gold.Chemscore.ZeroCoef>
-5.4800

> <Gold.Chemscore.Hbond>
2.4333

> <Gold.Chemscore.Metal>
0.0000

> <Gold.Chemscore.Lipo>
120.8984

> <Gold.Chemscore.Internal_Hbond>
0.0000

> <Gold.Chemscore.DEClash>
1.5143

> <Gold.Chemscore.DEInternal>
1.2240

> <Gold.Chemscore.Rot>
1.5325

> <Gold.Chemscore.Internal.Correction>
   9.000000E+99

> <Gold.Chemscore.Hbonds>
donor molecule, donor type, donor heavy atom, donor atom, acceptor molecule, acceptor atom, score
      L1  H     9    30       P1  8028  0.45
      L1  H    12    31       P1  8028  0.92
      P1  H  7989  7998       L1    16  0.96

> <Gold.Chemscore.Hbond.Weighted>
-8.1273

> <Gold.Chemscore.Metal.Weighted>
-0.0000

> <Gold.Chemscore.Lipo.Weighted>
-14.1451

> <Gold.Chemscore.Internal_Hbond.Weighted>
0.0000

> <Gold.Chemscore.DEClash.Weighted>
1.5143

> <Gold.Chemscore.DEInternal.Weighted>
1.2240

> <Gold.Chemscore.Rot.Weighted>
3.9233

> <Gold.Chemscore.Internal.Correction.Weighted>
   9.000000E+99

> <Gold.Protein.RotatedTorsions>
[ 6907 6896 6895 6894 ] final -129.79 input  -60.11 | X-H torsion
[ 7974 7965 7964 7962 ] final -166.46 input  175.53 | X-H torsion
[ 8008 7997 7996 7995 ] final   20.18 input   59.86 | X-H torsion
[ 10167 10162 10161 10158 ] final    2.14 input  -65.29 | X-H torsion
[ 10718 10713 10712 10709 ] final -160.18 input   66.30 | X-H torsion
[ 10763 10752 10751 10750 ] final  -55.27 input  -60.55 | X-H torsion
[ 11005 11000 10999 10996 ] final  -22.98 input  -57.11 | X-H torsion

> <Gold.Protein.ActiveResidues>
 VAL166  LYS551  ARG553  GLY616  TRP617  ASP618  TYR619  PRO620  LYS621  CYS622 
 ASP623  PHE694  ASN695  SER759  ASP760  ASP761  ALA762  ILE779  LEU786  VAL792 
 PHE793  MET794  SER795  GLU796  ALA797  LYS798  CYS799  TRP800  GLU811  SER814 

> <Gold.Protein.RotatedAtoms>
  150.9326  133.6749  159.2807 H   0  0  0  0  0  0  0  0  0  0  0  0  # atno 6907 bound_to 6896
  151.4166  135.0991  159.9611 H   0  0  0  0  0  0  0  0  0  0  0  0  # atno 6908 bound_to 6896
  152.5033  133.8787  159.7390 H   0  0  0  0  0  0  0  0  0  0  0  0  # atno 6909 bound_to 6896
  144.7245  140.2663  143.6257 H   0  0  0  0  0  0  0  0  0  0  0  0  # atno 7974 bound_to 7965
  154.9317  140.3041  155.5164 H   0  0  0  0  0  0  0  0  0  0  0  0  # atno 8008 bound_to 7997
  156.3003  140.2352  156.4314 H   0  0  0  0  0  0  0  0  0  0  0  0  # atno 8009 bound_to 7997
  154.8231  140.0422  157.1413 H   0  0  0  0  0  0  0  0  0  0  0  0  # atno 8010 bound_to 7997
  140.6649  143.7205  150.7809 H   0  0  0  0  0  0  0  0  0  0  0  0  # atno 10167 bound_to 10162
  156.5785  130.8719  151.2858 H   0  0  0  0  0  0  0  0  0  0  0  0  # atno 10718 bound_to 10713
  154.1880  135.6432  153.5052 H   0  0  0  0  0  0  0  0  0  0  0  0  # atno 10763 bound_to 10752
  153.0042  135.5422  154.6444 H   0  0  0  0  0  0  0  0  0  0  0  0  # atno 10764 bound_to 10752
  154.5826  135.2926  155.0690 H   0  0  0  0  0  0  0  0  0  0  0  0  # atno 10765 bound_to 10752
  140.8708  133.7722  156.0184 H   0  0  0  0  0  0  0  0  0  0  0  0  # atno 11005 bound_to 11000
  145.8086  139.1994  143.2006 LP  0  0  0  0  0  0  0  0  0  0  0  0  # atno 17320 bound_to 7965
  146.0615  140.7965  142.9732 LP  0  0  0  0  0  0  0  0  0  0  0  0  # atno 17321 bound_to 7965
  140.0880  143.4904  152.2494 LP  0  0  0  0  0  0  0  0  0  0  0  0  # atno 17342 bound_to 10162
  139.5895  144.7544  151.3436 LP  0  0  0  0  0  0  0  0  0  0  0  0  # atno 17343 bound_to 10162
  157.7332  130.9727  150.1966 LP  0  0  0  0  0  0  0  0  0  0  0  0  # atno 17370 bound_to 10713
  156.2652  130.3715  149.8088 LP  0  0  0  0  0  0  0  0  0  0  0  0  # atno 17371 bound_to 10713
  140.8575  134.2880  157.5249 LP  0  0  0  0  0  0  0  0  0  0  0  0  # atno 17394 bound_to 11000
  139.8712  134.9500  156.4044 LP  0  0  0  0  0  0  0  0  0  0  0  0  # atno 17395 bound_to 11000

$$$$
