AV-unprocessed.smi:2836|AV-procd|sdf|10919|dock5
  -GOLD-   2272015363D 1   1.00000     0.00000
 Structure written by MMmdl.
 30 31  0  0  0  0  0  0  0  0  1 V2000
  146.3783  139.9688  153.4232 N   0  0  0  0  0  0  0  0  0  0  0  0
  147.2206  140.7961  154.0486 C   0  0  0  0  0  0  0  0  0  0  0  0
  146.9507  141.9724  154.2806 O   0  0  0  0  0  0  0  0  0  0  0  0
  148.5562  140.2220  154.4050 C   0  0  0  0  0  0  0  0  0  0  0  0
  149.0545  138.9493  154.0215 C   0  0  0  0  0  0  0  0  0  0  0  0
  150.2837  138.7659  154.4809 N   0  0  0  0  0  0  0  0  0  0  0  0
  150.5908  139.9131  155.1389 N   0  0  0  0  0  0  0  0  0  0  0  0
  151.8953  140.0594  155.7577 C   0  0  0  0  0  0  0  0  0  0  0  0
  151.9280  139.4758  157.1774 C   0  0  0  0  0  0  0  0  0  0  0  0
  152.8289  140.2330  157.9743 O   0  0  0  0  0  0  0  0  0  0  0  0
  152.4690  141.5104  158.3470 C   0  0  0  0  0  0  0  0  0  0  0  0
  151.3580  142.2079  157.8082 C   0  0  0  0  0  0  0  0  0  0  0  0
  151.0533  143.5115  158.2453 C   0  0  0  0  0  0  0  0  0  0  0  0
  151.8515  144.1339  159.2221 C   0  0  0  0  0  0  0  0  0  0  0  0
  151.5567  145.3869  159.6417 F   0  0  0  0  0  0  0  0  0  0  0  0
  152.9566  143.4512  159.7620 C   0  0  0  0  0  0  0  0  0  0  0  0
  153.2633  142.1470  159.3268 C   0  0  0  0  0  0  0  0  0  0  0  0
  154.6276  141.3307  160.0028 Cl  0  0  0  0  0  0  0  0  0  0  0  0
  149.5576  140.8288  155.1048 C   0  0  0  0  0  0  0  0  0  0  0  0
  145.4632  140.2982  153.1521 H   0  0  0  0  0  0  0  0  0  0  0  0
  146.6592  139.0208  153.2196 H   0  0  0  0  0  0  0  0  0  0  0  0
  148.5785  138.1714  153.4427 H   0  0  0  0  0  0  0  0  0  0  0  0
  152.6342  139.5615  155.1290 H   0  0  0  0  0  0  0  0  0  0  0  0
  152.1610  141.1175  155.7784 H   0  0  0  0  0  0  0  0  0  0  0  0
  150.9259  139.5063  157.6087 H   0  0  0  0  0  0  0  0  0  0  0  0
  152.2458  138.4332  157.1334 H   0  0  0  0  0  0  0  0  0  0  0  0
  150.7208  141.7634  157.0592 H   0  0  0  0  0  0  0  0  0  0  0  0
  150.2041  144.0342  157.8304 H   0  0  0  0  0  0  0  0  0  0  0  0
  153.5699  143.9290  160.5118 H   0  0  0  0  0  0  0  0  0  0  0  0
  149.6281  141.8029  155.5663 H   0  0  0  0  0  0  0  0  0  0  0  0
  1  2  1  0  0  0  0
  1 20  1  0  0  0  0
  1 21  1  0  0  0  0
  2  3  2  0  0  0  0
  2  4  1  0  0  0  0
  4 19  2  0  0  0  0
  4  5  1  0  0  0  0
  5  6  2  0  0  0  0
  5 22  1  0  0  0  0
  6  7  1  0  0  0  0
  7  8  1  0  0  0  0
  7 19  1  0  0  0  0
  8  9  1  0  0  0  0
  8 23  1  0  0  0  0
  8 24  1  0  0  0  0
  9 10  1  0  0  0  0
  9 25  1  0  0  0  0
  9 26  1  0  0  0  0
 10 11  1  0  0  0  0
 11 17  1  0  0  0  0
 11 12  2  0  0  0  0
 12 13  1  0  0  0  0
 12 27  1  0  0  0  0
 13 14  2  0  0  0  0
 13 28  1  0  0  0  0
 14 15  1  0  0  0  0
 14 16  1  0  0  0  0
 16 17  2  0  0  0  0
 16 29  1  0  0  0  0
 17 18  1  0  0  0  0
 19 30  1  0  0  0  0
M  END
> <s_m_source_file>
AV-unprocessed.smi

> <i_m_source_file_index>
2836

> <i_lp_mmshare_version>
43012

> <i_f3d_flags>
0

> <s_epik_input>
W05IMl1DKD1PKWMxW2NIXW5uKFtjSF0xKVtDSDJdW0NIMl1PYzJbY0hdW2NIXWMoRilbY0hdYzJDbA==

> <s_epik_cmdline>
J2VwaWtfcHl0aG9uJywgJy1waCcsICc3LjAnLCAnLXRuJywgJzgnLCAnLW1hJywgJzIwMCcsICctbWV0YWxfYmluZGluZycsICctaW1hZScsICc8aW5maWxlLm1hZT4nLCAnLW9tYWUnLCAnPG91dGZpbGUubWFlPic=

> <r_lp_tautomer_probability>
1

> <r_epik_Ionization_Penalty>
2.53738e-06

> <r_epik_Ionization_Penalty_Charging>
0

> <r_epik_Ionization_Penalty_Neutral>
2.53738e-06

> <r_epik_State_Penalty>
-0

> <r_epik_Charging_Adjusted_Penalty>
0

> <i_epik_Tot_Q>
0

> <i_epik_Tot_abs_Q>
0

> <r_epik_Metal_State_Penalty>
-0

> <b_epik_Metal_Only>
0

> <s_lp_Force_Field>
OPLS_2005

> <r_lp_Energy>
11.0812

> <b_lp_Chiralities_Consistent>
1

> <s_lp_Variant>
AV-unprocessed.smi:2836-1

> <Gold.Version>
5.8.1

> <Gold.Id.Protein>
6NUR|6NUR_protein|mol2

> <Gold.PLP.Fitness>
50.0969

> <Gold.PLP.PLP>
-43.4988

> <Gold.PLP.part.hbond>
-2.0000

> <Gold.PLP.part.metal>
0.0000

> <Gold.PLP.part.buried>
-3.6056

> <Gold.PLP.part.nonpolar>
-38.4790

> <Gold.PLP.part.repulsive>
0.3370

> <Gold.PLP.ligand.clash>
0.0000

> <Gold.PLP.ligand.torsion>
0.7316

> <Gold.PLP.Chemscore.Hbond>
1.6752

> <Gold.PLP.Chemscore.CHOScore>
0.9956

> <Gold.PLP.Chemscore.Metal>
0.0000

> <Gold.Chemscore.Hbonds>
donor molecule, donor type, donor heavy atom, donor atom, acceptor molecule, acceptor atom, score
      L1  H     1    20       P1 10175  1.00
      P1  H  7997  8010       L1    10  0.71
      L1  C     5    22       P1  7948  1.00

> <Gold.PLP.Chemscore.Internal.Correction>
0.0487

> <Gold.Rescore>
     Score         DG    S(hbond)    S(metal)    S(lipo)     H(rot)  DE(clash)    DE(int)     intcor
     16.18     -16.86       1.34        0.00     100.31       1.89       0.05       0.64       ----

> <Gold.Chemscore.Fitness>
16.1772

> <Gold.Chemscore.DG>
-16.8644

> <Gold.Chemscore.ZeroCoef>
-5.4800

> <Gold.Chemscore.Hbond>
1.3400

> <Gold.Chemscore.Metal>
0.0000

> <Gold.Chemscore.Lipo>
100.3094

> <Gold.Chemscore.Internal_Hbond>
0.0000

> <Gold.Chemscore.DEClash>
0.0454

> <Gold.Chemscore.DEInternal>
0.6419

> <Gold.Chemscore.Rot>
1.8857

> <Gold.Chemscore.Internal.Correction>
   9.000000E+99

> <Gold.Chemscore.Hbonds>
donor molecule, donor type, donor heavy atom, donor atom, acceptor molecule, acceptor atom, score
      L1  H     1    20       P1 10175  0.98
      P1  H  7997  8010       L1    10  0.37

> <Gold.Chemscore.Hbond.Weighted>
-4.4757

> <Gold.Chemscore.Metal.Weighted>
-0.0000

> <Gold.Chemscore.Lipo.Weighted>
-11.7362

> <Gold.Chemscore.Internal_Hbond.Weighted>
0.0000

> <Gold.Chemscore.DEClash.Weighted>
0.0454

> <Gold.Chemscore.DEInternal.Weighted>
0.6419

> <Gold.Chemscore.Rot.Weighted>
4.8275

> <Gold.Chemscore.Internal.Correction.Weighted>
   9.000000E+99

> <Gold.Protein.RotatedTorsions>
[ 6907 6896 6895 6894 ] final  -95.93 input  -60.11 | X-H torsion
[ 7974 7965 7964 7962 ] final -127.96 input  175.53 | X-H torsion
[ 8008 7997 7996 7995 ] final   24.76 input   59.86 | X-H torsion
[ 10167 10162 10161 10158 ] final  131.82 input  -65.29 | X-H torsion
[ 10718 10713 10712 10709 ] final  -33.68 input   66.30 | X-H torsion
[ 10763 10752 10751 10750 ] final   58.15 input  -60.55 | X-H torsion
[ 11005 11000 10999 10996 ] final -109.95 input  -57.11 | X-H torsion

> <Gold.Protein.ActiveResidues>
 VAL166  LYS551  ARG553  GLY616  TRP617  ASP618  TYR619  PRO620  LYS621  CYS622 
 ASP623  PHE694  ASN695  SER759  ASP760  ASP761  ALA762  ILE779  LEU786  VAL792 
 PHE793  MET794  SER795  GLU796  ALA797  LYS798  CYS799  TRP800  GLU811  SER814 

> <Gold.Protein.RotatedAtoms>
  150.6976  134.1582  159.4165 H   0  0  0  0  0  0  0  0  0  0  0  0  # atno 6907 bound_to 6896
  151.9563  135.0143  160.0554 H   0  0  0  0  0  0  0  0  0  0  0  0  # atno 6908 bound_to 6896
  152.1966  133.4776  159.5073 H   0  0  0  0  0  0  0  0  0  0  0  0  # atno 6909 bound_to 6896
  144.9718  140.7553  143.4666 H   0  0  0  0  0  0  0  0  0  0  0  0  # atno 7974 bound_to 7965
  155.0012  140.3125  155.4866 H   0  0  0  0  0  0  0  0  0  0  0  0  # atno 8008 bound_to 7997
  156.2924  140.2231  156.5063 H   0  0  0  0  0  0  0  0  0  0  0  0  # atno 8009 bound_to 7997
  154.7617  140.0458  157.0966 H   0  0  0  0  0  0  0  0  0  0  0  0  # atno 8010 bound_to 7997
  139.5367  144.6689  151.4762 H   0  0  0  0  0  0  0  0  0  0  0  0  # atno 10167 bound_to 10162
  156.3597  130.4321  149.7634 H   0  0  0  0  0  0  0  0  0  0  0  0  # atno 10718 bound_to 10713
  152.9864  135.5617  154.5506 H   0  0  0  0  0  0  0  0  0  0  0  0  # atno 10763 bound_to 10752
  154.4943  135.2794  155.1473 H   0  0  0  0  0  0  0  0  0  0  0  0  # atno 10764 bound_to 10752
  154.2930  135.6322  153.5446 H   0  0  0  0  0  0  0  0  0  0  0  0  # atno 10765 bound_to 10752
  141.0819  133.9205  157.2270 H   0  0  0  0  0  0  0  0  0  0  0  0  # atno 11005 bound_to 11000
  145.2548  139.2017  143.4923 LP  0  0  0  0  0  0  0  0  0  0  0  0  # atno 17320 bound_to 7965
  146.3384  140.2467  142.8597 LP  0  0  0  0  0  0  0  0  0  0  0  0  # atno 17321 bound_to 7965
  140.6577  143.8565  150.6853 LP  0  0  0  0  0  0  0  0  0  0  0  0  # atno 17342 bound_to 10162
  140.1949  143.4006  152.1835 LP  0  0  0  0  0  0  0  0  0  0  0  0  # atno 17343 bound_to 10162
  156.4803  130.8038  151.3052 LP  0  0  0  0  0  0  0  0  0  0  0  0  # atno 17370 bound_to 10713
  157.7472  131.0008  150.2938 LP  0  0  0  0  0  0  0  0  0  0  0  0  # atno 17371 bound_to 10713
  139.9634  135.0148  156.9321 LP  0  0  0  0  0  0  0  0  0  0  0  0  # atno 17394 bound_to 11000
  140.5449  134.0683  155.7352 LP  0  0  0  0  0  0  0  0  0  0  0  0  # atno 17395 bound_to 11000

$$$$
