AV-unprocessed.smi:241|AV-procd|sdf|1840|dock2
  -GOLD-   2262020453D 1   1.00000     0.00000
 Structure written by MMmdl.
 54 57  0  0  0  0  0  0  0  0  1 V2000
  152.4883  139.0294  155.2926 C   0  0  0  0  0  0  0  0  0  0  0  0
  151.5825  140.0279  154.8594 O   0  0  0  0  0  0  0  0  0  0  0  0
  150.4195  140.0960  155.6694 C   0  0  0  0  0  0  0  0  0  0  0  0
  150.6142  141.1422  156.7833 C   0  0  2  0  0  0  0  0  0  0  0  0
  150.6634  142.5943  156.2870 C   0  0  0  0  0  0  0  0  0  0  0  0
  151.6267  143.3060  157.2484 C   0  0  1  0  0  0  0  0  0  0  0  0
  150.9850  144.4134  157.8646 O   0  0  0  0  0  0  0  0  0  0  0  0
  151.8693  145.2403  158.6039 C   0  0  0  0  0  0  0  0  0  0  0  0
  152.0212  142.2231  158.2621 C   0  0  0  0  0  0  0  0  0  0  0  0
  151.8306  140.9601  157.5651 N   0  0  0  0  0  0  0  0  0  0  0  0
  151.8798  139.8362  158.3180 C   0  0  0  0  0  0  0  0  0  0  0  0
  150.9634  138.8471  158.1449 N   0  0  0  0  0  0  0  0  0  0  0  0
  151.0350  137.7335  158.8806 C   0  0  0  0  0  0  0  0  0  0  0  0
  151.9245  137.4098  159.8222 N   0  0  0  0  0  0  0  0  0  0  0  0
  152.8469  138.4000  159.9956 C   0  0  0  0  0  0  0  0  0  0  0  0
  152.8966  139.6336  159.2884 C   0  0  0  0  0  0  0  0  0  0  0  0
  153.9784  140.3879  159.7215 N   0  0  0  0  0  0  0  0  0  0  0  0
  154.5435  139.6389  160.6282 C   0  0  0  0  0  0  0  0  0  0  0  0
  153.9195  138.4343  160.8714 N   0  0  0  0  0  0  0  0  0  0  0  0
  154.3306  137.4146  161.7953 C   0  0  0  0  0  0  0  0  0  0  0  0
  154.5874  137.7118  163.2757 C   0  0  0  0  0  0  0  0  0  0  0  0
  155.6939  136.6327  163.2897 C   0  0  0  0  0  0  0  0  0  0  0  0
  156.9684  137.0085  164.0644 C   0  0  0  0  0  0  0  0  0  0  0  0
  156.7519  136.9778  165.4608 O   0  0  0  0  0  0  0  0  0  0  0  0
  155.2322  135.2272  163.7263 C   0  0  0  0  0  0  0  0  0  0  0  0
  154.9531  135.1812  165.1109 O   0  0  0  0  0  0  0  0  0  0  0  0
  155.7547  136.8617  161.7611 C   0  0  0  0  0  0  0  0  0  0  0  0
  149.7720  141.0574  157.4726 H   0  0  0  0  0  0  0  0  0  0  0  0
  152.5023  143.6331  156.6848 H   0  0  0  0  0  0  0  0  0  0  0  0
  153.3576  139.0142  154.6355 H   0  0  0  0  0  0  0  0  0  0  0  0
  152.0282  138.0408  155.2669 H   0  0  0  0  0  0  0  0  0  0  0  0
  152.8374  139.2290  156.3066 H   0  0  0  0  0  0  0  0  0  0  0  0
  149.5615  140.3709  155.0547 H   0  0  0  0  0  0  0  0  0  0  0  0
  150.2000  139.1181  156.1006 H   0  0  0  0  0  0  0  0  0  0  0  0
  151.0541  142.6557  155.2706 H   0  0  0  0  0  0  0  0  0  0  0  0
  149.6687  143.0414  156.2806 H   0  0  0  0  0  0  0  0  0  0  0  0
  151.3160  146.0794  159.0252 H   0  0  0  0  0  0  0  0  0  0  0  0
  152.6566  145.6449  157.9669 H   0  0  0  0  0  0  0  0  0  0  0  0
  152.3312  144.6976  159.4292 H   0  0  0  0  0  0  0  0  0  0  0  0
  153.0515  142.3403  158.5988 H   0  0  0  0  0  0  0  0  0  0  0  0
  151.3706  142.2826  159.1359 H   0  0  0  0  0  0  0  0  0  0  0  0
  150.2713  136.9951  158.6852 H   0  0  0  0  0  0  0  0  0  0  0  0
  155.4390  139.9527  161.1439 H   0  0  0  0  0  0  0  0  0  0  0  0
  153.6068  136.6030  161.7039 H   0  0  0  0  0  0  0  0  0  0  0  0
  154.9780  138.7142  163.4555 H   0  0  0  0  0  0  0  0  0  0  0  0
  153.7398  137.5042  163.9295 H   0  0  0  0  0  0  0  0  0  0  0  0
  157.7975  136.3440  163.8205 H   0  0  0  0  0  0  0  0  0  0  0  0
  157.2980  138.0143  163.8022 H   0  0  0  0  0  0  0  0  0  0  0  0
  157.4184  137.4998  165.8805 H   0  0  0  0  0  0  0  0  0  0  0  0
  154.3436  134.9112  163.1793 H   0  0  0  0  0  0  0  0  0  0  0  0
  155.9960  134.4782  163.5166 H   0  0  0  0  0  0  0  0  0  0  0  0
  155.1616  134.3167  165.4308 H   0  0  0  0  0  0  0  0  0  0  0  0
  155.8700  135.9585  161.1610 H   0  0  0  0  0  0  0  0  0  0  0  0
  156.4871  137.6171  161.4702 H   0  0  0  0  0  0  0  0  0  0  0  0
  1  2  1  0  0  0  0
  1 30  1  0  0  0  0
  1 31  1  0  0  0  0
  1 32  1  0  0  0  0
  2  3  1  0  0  0  0
  3  4  1  0  0  0  0
  3 33  1  0  0  0  0
  3 34  1  0  0  0  0
  4 28  1  0  0  0  0
  4 10  1  0  0  0  0
  4  5  1  0  0  0  0
  5  6  1  0  0  0  0
  5 35  1  0  0  0  0
  5 36  1  0  0  0  0
  6 29  1  0  0  0  0
  6  7  1  0  0  0  0
  6  9  1  0  0  0  0
  7  8  1  0  0  0  0
  8 37  1  0  0  0  0
  8 38  1  0  0  0  0
  8 39  1  0  0  0  0
  9 10  1  0  0  0  0
  9 40  1  0  0  0  0
  9 41  1  0  0  0  0
 10 11  1  0  0  0  0
 11 16  1  0  0  0  0
 11 12  2  0  0  0  0
 12 13  1  0  0  0  0
 13 14  2  0  0  0  0
 13 42  1  0  0  0  0
 14 15  1  0  0  0  0
 15 19  1  0  0  0  0
 15 16  2  0  0  0  0
 16 17  1  0  0  0  0
 17 18  2  0  0  0  0
 18 19  1  0  0  0  0
 18 43  1  0  0  0  0
 19 20  1  0  0  0  0
 20 27  1  0  0  0  0
 20 21  1  0  0  0  0
 20 44  1  0  0  0  0
 21 22  1  0  0  0  0
 21 45  1  0  0  0  0
 21 46  1  0  0  0  0
 22 23  1  0  0  0  0
 22 25  1  0  0  0  0
 22 27  1  0  0  0  0
 23 24  1  0  0  0  0
 23 47  1  0  0  0  0
 23 48  1  0  0  0  0
 24 49  1  0  0  0  0
 25 26  1  0  0  0  0
 25 50  1  0  0  0  0
 25 51  1  0  0  0  0
 26 52  1  0  0  0  0
 27 53  1  0  0  0  0
 27 54  1  0  0  0  0
M  END
> <s_m_source_file>
AV-unprocessed.smi

> <i_m_source_file_index>
241

> <i_lp_mmshare_version>
43012

> <i_f3d_flags>
0

> <s_epik_input>
W0NIM11PW0NIMl1bQ0BASF0xW0NIMl1bQ0BASF0oT1tDSDNdKVtDSDJdTjFjKG5bY0hdbjIpYyhjMjMpbltjSF1uM1tDSF0oW0NIMl00KVtDSDJdQzQoW0NIMl1bT0hdKVtDSDJdW09IXQ==

> <s_epik_cmdline>
J2VwaWtfcHl0aG9uJywgJy1waCcsICc3LjAnLCAnLXRuJywgJzgnLCAnLW1hJywgJzIwMCcsICctbWV0YWxfYmluZGluZycsICctaW1hZScsICc8aW5maWxlLm1hZT4nLCAnLW9tYWUnLCAnPG91dGZpbGUubWFlPic=

> <r_lp_tautomer_probability>
1

> <r_epik_Ionization_Penalty>
0.00568677

> <r_epik_Ionization_Penalty_Charging>
0

> <r_epik_Ionization_Penalty_Neutral>
0.00568677

> <r_epik_State_Penalty>
0.00400877

> <r_epik_Charging_Adjusted_Penalty>
0.00400877

> <i_epik_Tot_Q>
0

> <i_epik_Tot_abs_Q>
0

> <r_epik_Metal_State_Penalty>
-0

> <b_epik_Metal_Only>
0

> <s_lp_Force_Field>
OPLS_2005

> <r_lp_Energy>
60.5945

> <b_lp_Chiralities_Consistent>
1

> <s_lp_Variant>
AV-unprocessed.smi:241-1

> <Gold.Version>
5.8.1

> <Gold.Id.Protein>
6NUR|6NUR_protein|mol2

> <Gold.PLP.Fitness>
49.5732

> <Gold.PLP.PLP>
-44.6203

> <Gold.PLP.part.hbond>
-3.8234

> <Gold.PLP.part.metal>
0.0000

> <Gold.PLP.part.buried>
-6.4382

> <Gold.PLP.part.nonpolar>
-34.8346

> <Gold.PLP.part.repulsive>
0.2264

> <Gold.PLP.ligand.clash>
0.0000

> <Gold.PLP.ligand.torsion>
0.8516

> <Gold.PLP.Chemscore.Hbond>
2.0000

> <Gold.PLP.Chemscore.CHOScore>
0.0000

> <Gold.PLP.Chemscore.Metal>
0.0000

> <Gold.Chemscore.Hbonds>
donor molecule, donor type, donor heavy atom, donor atom, acceptor molecule, acceptor atom, score
      P1  H  6896  6908       L1    14  0.05
      P1  H  7989  7998       L1     2  1.00

> <Gold.PLP.Chemscore.Internal.Correction>
0.6561

> <Gold.Rescore>
     Score         DG    S(hbond)    S(metal)    S(lipo)     H(rot)  DE(clash)    DE(int)     intcor
      8.19     -13.60       1.76        0.00     106.03       3.97       3.00       2.41       ----

> <Gold.Chemscore.Fitness>
8.1879

> <Gold.Chemscore.DG>
-13.6025

> <Gold.Chemscore.ZeroCoef>
-5.4800

> <Gold.Chemscore.Hbond>
1.7628

> <Gold.Chemscore.Metal>
0.0000

> <Gold.Chemscore.Lipo>
106.0255

> <Gold.Chemscore.Internal_Hbond>
0.0000

> <Gold.Chemscore.DEClash>
3.0016

> <Gold.Chemscore.DEInternal>
2.4130

> <Gold.Chemscore.Rot>
3.9727

> <Gold.Chemscore.Internal.Correction>
   9.000000E+99

> <Gold.Chemscore.Hbonds>
donor molecule, donor type, donor heavy atom, donor atom, acceptor molecule, acceptor atom, score
      P1  H  6896  6908       L1    14  0.01
      P1  H  7989  7998       L1     2  0.94

> <Gold.Chemscore.Hbond.Weighted>
-5.8877

> <Gold.Chemscore.Metal.Weighted>
-0.0000

> <Gold.Chemscore.Lipo.Weighted>
-12.4050

> <Gold.Chemscore.Internal_Hbond.Weighted>
0.0000

> <Gold.Chemscore.DEClash.Weighted>
3.0016

> <Gold.Chemscore.DEInternal.Weighted>
2.4130

> <Gold.Chemscore.Rot.Weighted>
10.1702

> <Gold.Chemscore.Internal.Correction.Weighted>
   9.000000E+99

> <Gold.Protein.RotatedTorsions>
[ 6907 6896 6895 6894 ] final -142.94 input  -60.11 | X-H torsion
[ 7974 7965 7964 7962 ] final   -5.23 input  175.53 | X-H torsion
[ 8008 7997 7996 7995 ] final  132.73 input   59.86 | X-H torsion
[ 10167 10162 10161 10158 ] final  104.99 input  -65.29 | X-H torsion
[ 10718 10713 10712 10709 ] final  -62.42 input   66.30 | X-H torsion
[ 10763 10752 10751 10750 ] final  135.92 input  -60.55 | X-H torsion
[ 11005 11000 10999 10996 ] final -105.65 input  -57.11 | X-H torsion

> <Gold.Protein.ActiveResidues>
 VAL166  LYS551  ARG553  GLY616  TRP617  ASP618  TYR619  PRO620  LYS621  CYS622 
 ASP623  PHE694  ASN695  SER759  ASP760  ASP761  ALA762  ILE779  LEU786  VAL792 
 PHE793  MET794  SER795  GLU796  ALA797  LYS798  CYS799  TRP800  GLU811  SER814 

> <Gold.Protein.RotatedAtoms>
  151.0937  133.5296  159.2613 H   0  0  0  0  0  0  0  0  0  0  0  0  # atno 6907 bound_to 6896
  151.2153  135.0497  159.8937 H   0  0  0  0  0  0  0  0  0  0  0  0  # atno 6908 bound_to 6896
  152.5436  134.0747  159.8263 H   0  0  0  0  0  0  0  0  0  0  0  0  # atno 6909 bound_to 6896
  146.2357  140.1990  142.8333 H   0  0  0  0  0  0  0  0  0  0  0  0  # atno 7974 bound_to 7965
  156.2985  140.2539  156.3137 H   0  0  0  0  0  0  0  0  0  0  0  0  # atno 8008 bound_to 7997
  154.9302  140.0398  157.2063 H   0  0  0  0  0  0  0  0  0  0  0  0  # atno 8009 bound_to 7997
  154.8226  140.2862  155.5781 H   0  0  0  0  0  0  0  0  0  0  0  0  # atno 8010 bound_to 7997
  139.7130  144.7074  151.0995 H   0  0  0  0  0  0  0  0  0  0  0  0  # atno 10167 bound_to 10162
  156.0857  130.4209  150.1132 H   0  0  0  0  0  0  0  0  0  0  0  0  # atno 10718 bound_to 10713
  153.8480  135.3083  155.3430 H   0  0  0  0  0  0  0  0  0  0  0  0  # atno 10763 bound_to 10752
  154.7903  135.4786  154.0042 H   0  0  0  0  0  0  0  0  0  0  0  0  # atno 10764 bound_to 10752
  153.1535  135.6847  153.8939 H   0  0  0  0  0  0  0  0  0  0  0  0  # atno 10765 bound_to 10752
  141.1043  133.8826  157.1760 H   0  0  0  0  0  0  0  0  0  0  0  0  # atno 11005 bound_to 11000
  144.9797  140.8447  143.5405 LP  0  0  0  0  0  0  0  0  0  0  0  0  # atno 17320 bound_to 7965
  145.1982  139.2265  143.5207 LP  0  0  0  0  0  0  0  0  0  0  0  0  # atno 17321 bound_to 7965
  140.7737  143.5267  150.9472 LP  0  0  0  0  0  0  0  0  0  0  0  0  # atno 17342 bound_to 10162
  139.8952  143.6903  152.3139 LP  0  0  0  0  0  0  0  0  0  0  0  0  # atno 17343 bound_to 10162
  156.9154  130.9665  151.3557 LP  0  0  0  0  0  0  0  0  0  0  0  0  # atno 17370 bound_to 10713
  157.5990  130.8498  149.8773 LP  0  0  0  0  0  0  0  0  0  0  0  0  # atno 17371 bound_to 10713
  139.9906  135.0066  156.9967 LP  0  0  0  0  0  0  0  0  0  0  0  0  # atno 17394 bound_to 11000
  140.4943  134.1162  155.7238 LP  0  0  0  0  0  0  0  0  0  0  0  0  # atno 17395 bound_to 11000

$$$$
