AV-unprocessed.smi:754|AV-procd|sdf|3610|dock3
  -GOLD-   22720 1 03D 1   1.00000     0.00000
 Structure written by MMmdl.
 37 38  0  0  0  0  0  0  0  0  1 V2000
  143.8034  134.0941  151.5817 C   0  0  0  0  0  0  0  0  0  0  0  0
  144.5982  135.3498  151.2171 C   0  0  0  0  0  0  0  0  0  0  0  0
  144.6009  136.2302  152.3282 O   0  0  0  0  0  0  0  0  0  0  0  0
  145.8839  136.7726  152.5991 C   0  0  1  0  0  0  0  0  0  0  0  0
  146.2090  138.0582  151.8328 C   0  0  0  0  0  0  0  0  0  0  0  0
  146.8176  138.5957  153.1322 C   0  0  2  0  0  0  0  0  0  0  0  0
  148.2505  138.3114  153.1962 N   0  0  0  0  0  0  0  0  0  0  0  0
  149.0962  138.8423  154.0915 C   0  0  0  0  0  0  0  0  0  0  0  0
  148.7711  139.7031  154.9084 O   0  0  0  0  0  0  0  0  0  0  0  0
  150.5203  138.2890  154.0872 C   0  0  0  0  0  0  0  0  0  0  0  0
  151.3514  139.0284  155.0189 N   0  0  0  0  0  0  0  0  0  0  0  0
  152.2976  138.6183  155.8662 C   0  0  0  0  0  0  0  0  0  0  0  0
  152.8426  139.6336  156.5185 N   0  0  0  0  0  0  0  0  0  0  0  0
  152.1626  140.7312  156.0176 N   0  0  0  0  0  0  0  0  0  0  0  0
  151.2775  140.3785  155.1264 N   0  0  0  0  0  0  0  0  0  0  0  0
  145.9430  137.5771  153.9202 C   0  0  0  0  0  0  0  0  0  0  0  0
  144.6088  138.1526  154.4138 C   0  0  0  0  0  0  0  0  0  0  0  0
  146.5722  136.8507  155.1160 C   0  0  0  0  0  0  0  0  0  0  0  0
  143.7768  133.3940  150.7467 H   0  0  0  0  0  0  0  0  0  0  0  0
  142.7746  134.3443  151.8419 H   0  0  0  0  0  0  0  0  0  0  0  0
  144.2501  133.5816  152.4340 H   0  0  0  0  0  0  0  0  0  0  0  0
  145.6205  135.0786  150.9498 H   0  0  0  0  0  0  0  0  0  0  0  0
  144.1477  135.8341  150.3497 H   0  0  0  0  0  0  0  0  0  0  0  0
  146.6839  136.0316  152.5326 H   0  0  0  0  0  0  0  0  0  0  0  0
  146.9068  137.9309  151.0042 H   0  0  0  0  0  0  0  0  0  0  0  0
  145.3184  138.6076  151.5239 H   0  0  0  0  0  0  0  0  0  0  0  0
  146.5604  139.6400  153.3186 H   0  0  0  0  0  0  0  0  0  0  0  0
  148.6069  137.6118  152.5607 H   0  0  0  0  0  0  0  0  0  0  0  0
  150.5158  137.2321  154.3582 H   0  0  0  0  0  0  0  0  0  0  0  0
  150.9536  138.3686  153.0893 H   0  0  0  0  0  0  0  0  0  0  0  0
  152.5917  137.5870  155.9951 H   0  0  0  0  0  0  0  0  0  0  0  0
  144.7602  138.8688  155.2218 H   0  0  0  0  0  0  0  0  0  0  0  0
  143.9472  137.3705  154.7878 H   0  0  0  0  0  0  0  0  0  0  0  0
  144.0711  138.6735  153.6210 H   0  0  0  0  0  0  0  0  0  0  0  0
  146.8451  137.5487  155.9081 H   0  0  0  0  0  0  0  0  0  0  0  0
  147.4755  136.3078  154.8366 H   0  0  0  0  0  0  0  0  0  0  0  0
  145.8885  136.1171  155.5442 H   0  0  0  0  0  0  0  0  0  0  0  0
  1  2  1  0  0  0  0
  1 19  1  0  0  0  0
  1 20  1  0  0  0  0
  1 21  1  0  0  0  0
  2  3  1  0  0  0  0
  2 22  1  0  0  0  0
  2 23  1  0  0  0  0
  3  4  1  0  0  0  0
  4 16  1  0  0  0  0
  4  5  1  0  0  0  0
  4 24  1  0  0  0  0
  5  6  1  0  0  0  0
  5 25  1  0  0  0  0
  5 26  1  0  0  0  0
  6  7  1  0  0  0  0
  6 16  1  0  0  0  0
  6 27  1  0  0  0  0
  7  8  1  0  0  0  0
  7 28  1  0  0  0  0
  8  9  2  0  0  0  0
  8 10  1  0  0  0  0
 10 11  1  0  0  0  0
 10 29  1  0  0  0  0
 10 30  1  0  0  0  0
 11 15  1  0  0  0  0
 11 12  1  0  0  0  0
 12 13  2  0  0  0  0
 12 31  1  0  0  0  0
 13 14  1  0  0  0  0
 14 15  2  0  0  0  0
 16 17  1  0  0  0  0
 16 18  1  0  0  0  0
 17 32  1  0  0  0  0
 17 33  1  0  0  0  0
 17 34  1  0  0  0  0
 18 35  1  0  0  0  0
 18 36  1  0  0  0  0
 18 37  1  0  0  0  0
M  END
> <s_m_source_file>
AV-unprocessed.smi

> <i_m_source_file_index>
754

> <i_lp_mmshare_version>
43012

> <i_f3d_flags>
0

> <s_epik_input>
W0NIM11bQ0gyXU9bQ0BASF0oQzEoW0NIM10pW0NIM10pW0NIMl1bQ0BIXTFbTkhdQyg9TylbQ0gyXW4yW2NIXW5ubjI=

> <s_epik_cmdline>
J2VwaWtfcHl0aG9uJywgJy1waCcsICc3LjAnLCAnLXRuJywgJzgnLCAnLW1hJywgJzIwMCcsICctbWV0YWxfYmluZGluZycsICctaW1hZScsICc8aW5maWxlLm1hZT4nLCAnLW9tYWUnLCAnPG91dGZpbGUubWFlPic=

> <r_lp_tautomer_probability>
1

> <r_epik_Ionization_Penalty>
8.28422e-07

> <r_epik_Ionization_Penalty_Charging>
0

> <r_epik_Ionization_Penalty_Neutral>
8.28422e-07

> <r_epik_State_Penalty>
-0

> <r_epik_Charging_Adjusted_Penalty>
0

> <i_epik_Tot_Q>
0

> <i_epik_Tot_abs_Q>
0

> <r_epik_Metal_State_Penalty>
-0

> <b_epik_Metal_Only>
0

> <s_lp_Force_Field>
OPLS_2005

> <r_lp_Energy>
21.5247

> <b_lp_Chiralities_Consistent>
1

> <s_lp_Variant>
AV-unprocessed.smi:754-4

> <Gold.Version>
5.8.1

> <Gold.Id.Protein>
6NUR|6NUR_protein|mol2

> <Gold.PLP.Fitness>
32.3008

> <Gold.PLP.PLP>
-25.0586

> <Gold.PLP.part.hbond>
-4.6185

> <Gold.PLP.part.metal>
0.0000

> <Gold.PLP.part.buried>
0.3444

> <Gold.PLP.part.nonpolar>
-21.5911

> <Gold.PLP.part.repulsive>
0.3067

> <Gold.PLP.ligand.clash>
0.0000

> <Gold.PLP.ligand.torsion>
1.0486

> <Gold.PLP.Chemscore.Hbond>
3.0000

> <Gold.PLP.Chemscore.CHOScore>
0.0000

> <Gold.PLP.Chemscore.Metal>
0.0000

> <Gold.Chemscore.Hbonds>
donor molecule, donor type, donor heavy atom, donor atom, acceptor molecule, acceptor atom, score
      L1  H     7    28       P1  7948  1.00
      P1  H  7989  7998       L1    15  1.00
      P1  H  7997  8008       L1    13  1.00

> <Gold.PLP.Chemscore.Internal.Correction>
0.3394

> <Gold.Rescore>
     Score         DG    S(hbond)    S(metal)    S(lipo)     H(rot)  DE(clash)    DE(int)     intcor
      6.89     -11.16       2.04        0.00      44.18       2.46       1.53       2.74       ----

> <Gold.Chemscore.Fitness>
6.8936

> <Gold.Chemscore.DG>
-11.1621

> <Gold.Chemscore.ZeroCoef>
-5.4800

> <Gold.Chemscore.Hbond>
2.0404

> <Gold.Chemscore.Metal>
0.0000

> <Gold.Chemscore.Lipo>
44.1788

> <Gold.Chemscore.Internal_Hbond>
0.0000

> <Gold.Chemscore.DEClash>
1.5282

> <Gold.Chemscore.DEInternal>
2.7404

> <Gold.Chemscore.Rot>
2.4616

> <Gold.Chemscore.Internal.Correction>
   9.000000E+99

> <Gold.Chemscore.Hbonds>
donor molecule, donor type, donor heavy atom, donor atom, acceptor molecule, acceptor atom, score
      L1  H     7    28       P1  7948  0.96
      P1  H  7989  7998       L1    15  0.29
      P1  H  7997  8008       L1    13  0.34

> <Gold.Chemscore.Hbond.Weighted>
-6.8148

> <Gold.Chemscore.Metal.Weighted>
-0.0000

> <Gold.Chemscore.Lipo.Weighted>
-5.1689

> <Gold.Chemscore.Internal_Hbond.Weighted>
0.0000

> <Gold.Chemscore.DEClash.Weighted>
1.5282

> <Gold.Chemscore.DEInternal.Weighted>
2.7404

> <Gold.Chemscore.Rot.Weighted>
6.3016

> <Gold.Chemscore.Internal.Correction.Weighted>
   9.000000E+99

> <Gold.Protein.RotatedTorsions>
[ 6907 6896 6895 6894 ] final  104.40 input  -60.11 | X-H torsion
[ 7974 7965 7964 7962 ] final  -70.46 input  175.53 | X-H torsion
[ 8008 7997 7996 7995 ] final  -47.15 input   59.86 | X-H torsion
[ 10167 10162 10161 10158 ] final   33.45 input  -65.29 | X-H torsion
[ 10718 10713 10712 10709 ] final   30.81 input   66.30 | X-H torsion
[ 10763 10752 10751 10750 ] final  142.62 input  -60.55 | X-H torsion
[ 11005 11000 10999 10996 ] final    8.34 input  -57.11 | X-H torsion

> <Gold.Protein.ActiveResidues>
 VAL166  LYS551  ARG553  GLY616  TRP617  ASP618  TYR619  PRO620  LYS621  CYS622 
 ASP623  PHE694  ASN695  SER759  ASP760  ASP761  ALA762  ILE779  LEU786  VAL792 
 PHE793  MET794  SER795  GLU796  ALA797  LYS798  CYS799  TRP800  GLU811  SER814 

> <Gold.Protein.RotatedAtoms>
  152.5265  133.9682  159.7749 H   0  0  0  0  0  0  0  0  0  0  0  0  # atno 6907 bound_to 6896
  150.9959  133.6095  159.2709 H   0  0  0  0  0  0  0  0  0  0  0  0  # atno 6908 bound_to 6896
  151.3222  135.0827  159.9363 H   0  0  0  0  0  0  0  0  0  0  0  0  # atno 6909 bound_to 6896
  145.6907  140.9154  143.0783 H   0  0  0  0  0  0  0  0  0  0  0  0  # atno 7974 bound_to 7965
  154.4014  140.1353  156.4128 H   0  0  0  0  0  0  0  0  0  0  0  0  # atno 8008 bound_to 7997
  155.7717  140.3483  155.5230 H   0  0  0  0  0  0  0  0  0  0  0  0  # atno 8009 bound_to 7997
  155.8760  140.0979  157.1508 H   0  0  0  0  0  0  0  0  0  0  0  0  # atno 8010 bound_to 7997
  140.4406  144.1193  150.6173 H   0  0  0  0  0  0  0  0  0  0  0  0  # atno 10167 bound_to 10162
  157.2643  130.7177  149.6470 H   0  0  0  0  0  0  0  0  0  0  0  0  # atno 10718 bound_to 10713
  153.9588  135.2962  155.3434 H   0  0  0  0  0  0  0  0  0  0  0  0  # atno 10763 bound_to 10752
  154.7386  135.5035  153.9087 H   0  0  0  0  0  0  0  0  0  0  0  0  # atno 10764 bound_to 10752
  153.0957  135.6720  153.9878 H   0  0  0  0  0  0  0  0  0  0  0  0  # atno 10765 bound_to 10752
  140.5381  134.0401  155.7895 H   0  0  0  0  0  0  0  0  0  0  0  0  # atno 11005 bound_to 11000
  144.6997  139.8818  143.7447 LP  0  0  0  0  0  0  0  0  0  0  0  0  # atno 17320 bound_to 7965
  146.0884  139.3873  143.0421 LP  0  0  0  0  0  0  0  0  0  0  0  0  # atno 17321 bound_to 7965
  140.4323  143.2562  151.9579 LP  0  0  0  0  0  0  0  0  0  0  0  0  # atno 17342 bound_to 10162
  139.4789  144.5732  151.8054 LP  0  0  0  0  0  0  0  0  0  0  0  0  # atno 17343 bound_to 10162
  155.9663  130.4387  150.5229 LP  0  0  0  0  0  0  0  0  0  0  0  0  # atno 17370 bound_to 10713
  157.3141  131.0669  151.1980 LP  0  0  0  0  0  0  0  0  0  0  0  0  # atno 17371 bound_to 10713
  141.1243  133.9409  157.2667 LP  0  0  0  0  0  0  0  0  0  0  0  0  # atno 17394 bound_to 11000
  139.9518  135.0174  156.9016 LP  0  0  0  0  0  0  0  0  0  0  0  0  # atno 17395 bound_to 11000

$$$$
