AV-unprocessed.smi:34|AV-procd|sdf|243|dock9
  -GOLD-   2262015593D 1   1.00000     0.00000
 Structure written by MMmdl.
 54 58  0  0  0  0  0  0  0  0  2 V2000
  152.1378  139.7172  159.4436 O   0  0  0  0  0  0  0  0  0  0  0  0
  152.1477  140.5196  158.5076 C   0  0  0  0  0  0  0  0  0  0  0  0
  152.2198  140.2504  157.1793 N   0  5  0  0  0  0  0  0  0  0  0  0
  151.2117  139.6073  156.5708 C   0  0  0  0  0  0  0  0  0  0  0  0
  150.8940  139.8915  155.2821 N   0  0  0  0  0  0  0  0  0  0  0  0
  149.8939  139.2429  154.6743 C   0  0  0  0  0  0  0  0  0  0  0  0
  149.0984  138.2841  155.1573 N   0  0  0  0  0  0  0  0  0  0  0  0
  149.4107  137.9838  156.4514 C   0  0  0  0  0  0  0  0  0  0  0  0
  150.4484  138.5953  157.2146 C   0  0  0  0  0  0  0  0  0  0  0  0
  150.5063  138.0550  158.4907 N   0  0  0  0  0  0  0  0  0  0  0  0
  149.5216  137.1614  158.4482 C   0  0  0  0  0  0  0  0  0  0  0  0
  148.8258  137.0550  157.2986 N   0  0  0  0  0  0  0  0  0  0  0  0
  147.6813  136.1310  157.0209 C   0  0  2  0  0  0  0  0  0  0  0  0
  147.5602  135.9727  155.6392 O   0  0  0  0  0  0  0  0  0  0  0  0
  146.1823  135.9420  155.2755 C   0  0  1  0  0  0  0  0  0  0  0  0
  145.6524  134.5036  155.3969 C   0  0  0  0  0  0  0  0  0  0  0  0
  145.2165  134.0613  154.1220 O   0  0  0  0  0  0  0  0  0  0  0  0
  146.1143  133.6582  153.2017 C   0  0  0  0  0  0  0  0  0  0  0  0
  147.3343  133.6971  153.3753 O   0  0  0  0  0  0  0  0  0  0  0  0
  145.4765  133.1629  151.9478 C   0  0  0  0  0  0  0  0  0  0  0  0
  144.0655  133.1389  151.8503 C   0  0  0  0  0  0  0  0  0  0  0  0
  143.4352  132.6767  150.6786 C   0  0  0  0  0  0  0  0  0  0  0  0
  144.2084  132.2345  149.5895 C   0  0  0  0  0  0  0  0  0  0  0  0
  145.6127  132.2538  149.6737 C   0  0  0  0  0  0  0  0  0  0  0  0
  146.2449  132.7143  150.8452 C   0  0  0  0  0  0  0  0  0  0  0  0
  145.5380  136.9050  156.2742 C   0  0  2  0  0  0  0  0  0  0  0  0
  145.7169  138.1479  155.8229 F   0  0  0  0  0  0  0  0  0  0  0  0
  146.3312  136.6563  157.5506 C   0  0  2  0  0  0  0  0  0  0  0  0
  146.3918  137.7996  158.3850 O   0  0  0  0  0  0  0  0  0  0  0  0
  152.0031  141.9871  158.8089 C   0  0  0  0  0  0  0  0  0  0  0  0
  152.3685  142.4803  160.0824 C   0  0  0  0  0  0  0  0  0  0  0  0
  152.2644  143.8542  160.3754 C   0  0  0  0  0  0  0  0  0  0  0  0
  151.8029  144.7515  159.3942 C   0  0  0  0  0  0  0  0  0  0  0  0
  151.4500  144.2744  158.1179 C   0  0  0  0  0  0  0  0  0  0  0  0
  151.5532  142.9006  157.8244 C   0  0  0  0  0  0  0  0  0  0  0  0
  149.7048  139.5336  153.6517 H   0  0  0  0  0  0  0  0  0  0  0  0
  149.2893  136.5492  159.3071 H   0  0  0  0  0  0  0  0  0  0  0  0
  147.9743  135.1873  157.4832 H   0  0  0  0  0  0  0  0  0  0  0  0
  146.0486  136.2966  154.2525 H   0  0  0  0  0  0  0  0  0  0  0  0
  146.4208  133.8408  155.7973 H   0  0  0  0  0  0  0  0  0  0  0  0
  144.8047  134.4733  156.0825 H   0  0  0  0  0  0  0  0  0  0  0  0
  143.4510  133.4735  152.6738 H   0  0  0  0  0  0  0  0  0  0  0  0
  142.3571  132.6619  150.6162 H   0  0  0  0  0  0  0  0  0  0  0  0
  143.7250  131.8810  148.6907 H   0  0  0  0  0  0  0  0  0  0  0  0
  146.2075  131.9153  148.8381 H   0  0  0  0  0  0  0  0  0  0  0  0
  147.3246  132.7164  150.8762 H   0  0  0  0  0  0  0  0  0  0  0  0
  144.4645  136.7575  156.3953 H   0  0  0  0  0  0  0  0  0  0  0  0
  145.8661  135.8445  158.1113 H   0  0  0  0  0  0  0  0  0  0  0  0
  146.7456  137.5442  159.2231 H   0  0  0  0  0  0  0  0  0  0  0  0
  152.7266  141.8048  160.8459 H   0  0  0  0  0  0  0  0  0  0  0  0
  152.5407  144.2191  161.3534 H   0  0  0  0  0  0  0  0  0  0  0  0
  151.7238  145.8047  159.6187 H   0  0  0  0  0  0  0  0  0  0  0  0
  151.1026  144.9623  157.3612 H   0  0  0  0  0  0  0  0  0  0  0  0
  151.2873  142.5565  156.8352 H   0  0  0  0  0  0  0  0  0  0  0  0
  1  2  2  0  0  0  0
  2  3  1  0  0  0  0
  2 30  1  0  0  0  0
  3  4  1  0  0  0  0
  4  9  1  0  0  0  0
  4  5  2  0  0  0  0
  5  6  1  0  0  0  0
  6  7  2  0  0  0  0
  6 36  1  0  0  0  0
  7  8  1  0  0  0  0
  8 12  1  0  0  0  0
  8  9  2  0  0  0  0
  9 10  1  0  0  0  0
 10 11  2  0  0  0  0
 11 12  1  0  0  0  0
 11 37  1  0  0  0  0
 12 13  1  0  0  0  0
 13 28  1  0  0  0  0
 13 14  1  0  0  0  0
 13 38  1  0  0  0  0
 14 15  1  0  0  0  0
 15 16  1  0  0  0  0
 15 26  1  0  0  0  0
 15 39  1  0  0  0  0
 16 17  1  0  0  0  0
 16 40  1  0  0  0  0
 16 41  1  0  0  0  0
 17 18  1  0  0  0  0
 18 19  2  0  0  0  0
 18 20  1  0  0  0  0
 20 25  1  0  0  0  0
 20 21  2  0  0  0  0
 21 22  1  0  0  0  0
 21 42  1  0  0  0  0
 22 23  2  0  0  0  0
 22 43  1  0  0  0  0
 23 24  1  0  0  0  0
 23 44  1  0  0  0  0
 24 25  2  0  0  0  0
 24 45  1  0  0  0  0
 25 46  1  0  0  0  0
 26 27  1  0  0  0  0
 26 28  1  0  0  0  0
 26 47  1  0  0  0  0
 28 29  1  0  0  0  0
 28 48  1  0  0  0  0
 29 49  1  0  0  0  0
 30 35  1  0  0  0  0
 30 31  2  0  0  0  0
 31 32  1  0  0  0  0
 31 50  1  0  0  0  0
 32 33  2  0  0  0  0
 32 51  1  0  0  0  0
 33 34  1  0  0  0  0
 33 52  1  0  0  0  0
 34 35  2  0  0  0  0
 34 53  1  0  0  0  0
 35 54  1  0  0  0  0
M  CHG  1   3  -1
M  END
> <s_m_source_file>
AV-unprocessed.smi

> <i_m_source_file_index>
34

> <i_lp_mmshare_version>
43012

> <i_f3d_flags>
0

> <s_epik_input>
W2NIXTFbY0hdW2NIXVtjSF1bY0hdYzFDKD1PKVtOSF1jKG5bY0hdbjIpYyhjMjMpbltjSF1uM1tDQEBIXTRPW0NASF0oW0NAQEhdKEYpW0NASF00W09IXSlbQ0gyXU9DKD1PKWM1W2NIXVtjSF1bY0hdW2NIXVtjSF01

> <s_epik_cmdline>
J2VwaWtfcHl0aG9uJywgJy1waCcsICc3LjAnLCAnLXRuJywgJzgnLCAnLW1hJywgJzIwMCcsICctbWV0YWxfYmluZGluZycsICctaW1hZScsICc8aW5maWxlLm1hZT4nLCAnLW9tYWUnLCAnPG91dGZpbGUubWFlPic=

> <r_lp_tautomer_probability>
1

> <r_epik_Ionization_Penalty>
4.33227

> <r_epik_Ionization_Penalty_Charging>
3.41027

> <r_epik_Ionization_Penalty_Neutral>
0.922001

> <r_epik_State_Penalty>
3.41358

> <r_epik_Charging_Adjusted_Penalty>
6.82385

> <i_epik_Tot_Q>
-1

> <i_epik_Tot_abs_Q>
1

> <r_epik_Metal_State_Penalty>
0.496292

> <b_epik_Metal_Only>
1

> <s_epik_Chemistry_Notes>
This compound has an ester and may undergo hydrolysis at high or low pH. This compound contains an acetal/aminal-like group ( X-CH(R)-Y where X, Y are N, S, or O) that may be acid/base labile, releasing an aldehyde.

> <s_lp_Force_Field>
OPLS_2005

> <r_lp_Energy>
51.1701

> <b_lp_Chiralities_Consistent>
1

> <s_lp_Variant>
AV-unprocessed.smi:34-29

> <Gold.Version>
5.8.1

> <Gold.Id.Protein>
6NUR|6NUR_protein|mol2

> <Gold.PLP.Fitness>
56.0340

> <Gold.PLP.PLP>
-49.0283

> <Gold.PLP.part.hbond>
-2.0000

> <Gold.PLP.part.metal>
0.0000

> <Gold.PLP.part.buried>
-6.0361

> <Gold.PLP.part.nonpolar>
-41.3680

> <Gold.PLP.part.repulsive>
0.4580

> <Gold.PLP.ligand.clash>
0.0000

> <Gold.PLP.ligand.torsion>
2.5161

> <Gold.PLP.Chemscore.Hbond>
2.9500

> <Gold.PLP.Chemscore.CHOScore>
1.0000

> <Gold.PLP.Chemscore.Metal>
0.0000

> <Gold.Chemscore.Hbonds>
donor molecule, donor type, donor heavy atom, donor atom, acceptor molecule, acceptor atom, score
      P1  H  7989  7998       L1     5  0.53
      P1  H  7997  8008       L1     3  1.04
      L1  C     6    36       P1  7957  0.97

> <Gold.PLP.Chemscore.Internal.Correction>
0.1879

> <Gold.Rescore>
     Score         DG    S(hbond)    S(metal)    S(lipo)     H(rot)  DE(clash)    DE(int)     intcor
      8.62     -16.47       0.76        0.00     131.09       2.69       1.62       6.22       ----

> <Gold.Chemscore.Fitness>
8.6247

> <Gold.Chemscore.DG>
-16.4675

> <Gold.Chemscore.ZeroCoef>
-5.4800

> <Gold.Chemscore.Hbond>
0.7627

> <Gold.Chemscore.Metal>
0.0000

> <Gold.Chemscore.Lipo>
131.0922

> <Gold.Chemscore.Internal_Hbond>
0.0000

> <Gold.Chemscore.DEClash>
1.6180

> <Gold.Chemscore.DEInternal>
6.2248

> <Gold.Chemscore.Rot>
2.6944

> <Gold.Chemscore.Internal.Correction>
   9.000000E+99

> <Gold.Chemscore.Hbonds>
donor molecule, donor type, donor heavy atom, donor atom, acceptor molecule, acceptor atom, score
      P1  H  7989  7998       L1     5  0.08
      P1  H  7997  8008       L1     3  0.37

> <Gold.Chemscore.Hbond.Weighted>
-2.5473

> <Gold.Chemscore.Metal.Weighted>
-0.0000

> <Gold.Chemscore.Lipo.Weighted>
-15.3378

> <Gold.Chemscore.Internal_Hbond.Weighted>
0.0000

> <Gold.Chemscore.DEClash.Weighted>
1.6180

> <Gold.Chemscore.DEInternal.Weighted>
6.2248

> <Gold.Chemscore.Rot.Weighted>
6.8975

> <Gold.Chemscore.Internal.Correction.Weighted>
   9.000000E+99

> <Gold.Protein.RotatedTorsions>
[ 6907 6896 6895 6894 ] final  143.34 input  -60.11 | X-H torsion
[ 7974 7965 7964 7962 ] final  156.69 input  175.53 | X-H torsion
[ 8008 7997 7996 7995 ] final  -54.28 input   59.86 | X-H torsion
[ 10167 10162 10161 10158 ] final -148.67 input  -65.29 | X-H torsion
[ 10718 10713 10712 10709 ] final  -63.11 input   66.30 | X-H torsion
[ 10763 10752 10751 10750 ] final -179.09 input  -60.55 | X-H torsion
[ 11005 11000 10999 10996 ] final   79.23 input  -57.11 | X-H torsion

> <Gold.Protein.ActiveResidues>
 VAL166  LYS551  ARG553  GLY616  TRP617  ASP618  TYR619  PRO620  LYS621  CYS622 
 ASP623  PHE694  ASN695  SER759  ASP760  ASP761  ALA762  ILE779  LEU786  VAL792 
 PHE793  MET794  SER795  GLU796  ALA797  LYS798  CYS799  TRP800  GLU811  SER814 

> <Gold.Protein.RotatedAtoms>
  152.2074  133.4886  159.5091 H   0  0  0  0  0  0  0  0  0  0  0  0  # atno 6907 bound_to 6896
  150.6982  134.1511  159.4150 H   0  0  0  0  0  0  0  0  0  0  0  0  # atno 6908 bound_to 6896
  151.9430  135.0204  160.0588 H   0  0  0  0  0  0  0  0  0  0  0  0  # atno 6909 bound_to 6896
  144.7948  139.7238  143.6206 H   0  0  0  0  0  0  0  0  0  0  0  0  # atno 7974 bound_to 7965
  154.4158  140.1180  156.5290 H   0  0  0  0  0  0  0  0  0  0  0  0  # atno 8008 bound_to 7997
  155.6625  140.3496  155.4768 H   0  0  0  0  0  0  0  0  0  0  0  0  # atno 8009 bound_to 7997
  155.9701  140.1140  157.0809 H   0  0  0  0  0  0  0  0  0  0  0  0  # atno 8010 bound_to 7997
  139.7511  143.8517  152.2586 H   0  0  0  0  0  0  0  0  0  0  0  0  # atno 10167 bound_to 10162
  156.0811  130.4217  150.1231 H   0  0  0  0  0  0  0  0  0  0  0  0  # atno 10718 bound_to 10713
  154.5395  135.2805  155.1108 H   0  0  0  0  0  0  0  0  0  0  0  0  # atno 10763 bound_to 10752
  154.2596  135.6324  153.5273 H   0  0  0  0  0  0  0  0  0  0  0  0  # atno 10764 bound_to 10752
  152.9975  135.5602  154.5931 H   0  0  0  0  0  0  0  0  0  0  0  0  # atno 10765 bound_to 10752
  139.9181  134.7826  156.1752 H   0  0  0  0  0  0  0  0  0  0  0  0  # atno 11005 bound_to 11000
  146.2212  139.5640  142.9617 LP  0  0  0  0  0  0  0  0  0  0  0  0  # atno 17320 bound_to 7965
  145.5701  141.0395  143.2178 LP  0  0  0  0  0  0  0  0  0  0  0  0  # atno 17321 bound_to 7965
  139.8496  144.7171  150.9231 LP  0  0  0  0  0  0  0  0  0  0  0  0  # atno 17342 bound_to 10162
  140.7798  143.3911  151.1308 LP  0  0  0  0  0  0  0  0  0  0  0  0  # atno 17343 bound_to 10162
  156.9262  130.9699  151.3540 LP  0  0  0  0  0  0  0  0  0  0  0  0  # atno 17370 bound_to 10713
  157.5929  130.8456  149.8685 LP  0  0  0  0  0  0  0  0  0  0  0  0  # atno 17371 bound_to 10713
  141.0676  133.6812  156.2075 LP  0  0  0  0  0  0  0  0  0  0  0  0  # atno 17394 bound_to 11000
  140.6560  134.5017  157.5580 LP  0  0  0  0  0  0  0  0  0  0  0  0  # atno 17395 bound_to 11000

$$$$
