AV-unprocessed.smi:626|AV-procd|sdf|3109|dock7
  -GOLD-   22720 0 33D 1   1.00000     0.00000
 Structure written by MMmdl.
 34 36  0  0  0  0  0  0  0  0  1 V2000
  153.8532  136.5407  164.2145 C   0  0  0  0  0  0  0  0  0  0  0  0
  154.6104  137.4833  163.4051 N   0  0  0  0  0  0  0  0  0  0  0  0
  154.4718  137.6200  162.0783 C   0  0  0  0  0  0  0  0  0  0  0  0
  153.6774  136.9497  161.4162 O   0  0  0  0  0  0  0  0  0  0  0  0
  155.3647  138.6802  161.4194 C   0  0  0  0  0  0  0  0  0  0  0  0
  154.5762  139.7156  160.6788 C   0  0  0  0  0  0  0  0  0  0  0  0
  153.8770  139.4062  159.5933 N   0  0  0  0  0  0  0  0  0  0  0  0
  153.3157  140.6328  159.2103 O   0  0  0  0  0  0  0  0  0  0  0  0
  153.7189  141.5345  160.1384 C   0  0  0  0  0  0  0  0  0  0  0  0
  153.3464  142.9734  159.9475 C   0  0  2  0  0  0  0  0  0  0  0  0
  152.5025  143.5688  161.0939 C   0  0  0  0  0  0  0  0  0  0  0  0
  151.3282  144.2229  160.3407 C   0  0  1  0  0  0  0  0  0  0  0  0
  151.8352  145.4274  159.5232 C   0  0  0  0  0  0  0  0  0  0  0  0
  152.5958  144.7580  158.3605 C   0  0  0  0  0  0  0  0  0  0  0  0
  152.4781  143.2599  158.7006 C   0  0  2  0  0  0  0  0  0  0  0  0
  151.0543  143.1963  159.2490 C   0  0  0  0  0  0  0  0  0  0  0  0
  154.5471  141.0257  161.0489 N   0  0  0  0  0  0  0  0  0  0  0  0
  154.1364  136.6394  165.2623 H   0  0  0  0  0  0  0  0  0  0  0  0
  154.0513  135.5143  163.9027 H   0  0  0  0  0  0  0  0  0  0  0  0
  152.7820  136.7295  164.1315 H   0  0  0  0  0  0  0  0  0  0  0  0
  155.2791  138.0702  163.8830 H   0  0  0  0  0  0  0  0  0  0  0  0
  155.9657  139.1663  162.1890 H   0  0  0  0  0  0  0  0  0  0  0  0
  156.0602  138.1956  160.7323 H   0  0  0  0  0  0  0  0  0  0  0  0
  154.2830  143.5272  159.8640 H   0  0  0  0  0  0  0  0  0  0  0  0
  152.1278  142.7864  161.7559 H   0  0  0  0  0  0  0  0  0  0  0  0
  153.0644  144.2780  161.7026 H   0  0  0  0  0  0  0  0  0  0  0  0
  150.4752  144.4541  160.9792 H   0  0  0  0  0  0  0  0  0  0  0  0
  151.0021  146.0208  159.1446 H   0  0  0  0  0  0  0  0  0  0  0  0
  152.4740  146.0846  160.1143 H   0  0  0  0  0  0  0  0  0  0  0  0
  152.1087  144.9764  157.4092 H   0  0  0  0  0  0  0  0  0  0  0  0
  153.6306  145.0947  158.2873 H   0  0  0  0  0  0  0  0  0  0  0  0
  152.6869  142.6101  157.8498 H   0  0  0  0  0  0  0  0  0  0  0  0
  150.7774  142.2157  159.6385 H   0  0  0  0  0  0  0  0  0  0  0  0
  150.2985  143.5185  158.5305 H   0  0  0  0  0  0  0  0  0  0  0  0
  1  2  1  0  0  0  0
  1 18  1  0  0  0  0
  1 19  1  0  0  0  0
  1 20  1  0  0  0  0
  2  3  1  0  0  0  0
  2 21  1  0  0  0  0
  3  4  2  0  0  0  0
  3  5  1  0  0  0  0
  5  6  1  0  0  0  0
  5 22  1  0  0  0  0
  5 23  1  0  0  0  0
  6 17  1  0  0  0  0
  6  7  2  0  0  0  0
  7  8  1  0  0  0  0
  8  9  1  0  0  0  0
  9 10  1  0  0  0  0
  9 17  2  0  0  0  0
 10 15  1  0  0  0  0
 10 11  1  0  0  0  0
 10 24  1  0  0  0  0
 11 12  1  0  0  0  0
 11 25  1  0  0  0  0
 11 26  1  0  0  0  0
 12 16  1  0  0  0  0
 12 13  1  0  0  0  0
 12 27  1  0  0  0  0
 13 14  1  0  0  0  0
 13 28  1  0  0  0  0
 13 29  1  0  0  0  0
 14 15  1  0  0  0  0
 14 30  1  0  0  0  0
 14 31  1  0  0  0  0
 15 16  1  0  0  0  0
 15 32  1  0  0  0  0
 16 33  1  0  0  0  0
 16 34  1  0  0  0  0
M  END
> <s_m_source_file>
AV-unprocessed.smi

> <i_m_source_file_index>
626

> <i_lp_mmshare_version>
43012

> <i_f3d_flags>
0

> <s_epik_input>
W0NIM11bTkhdQyg9TylbQ0gyXWMxbm9jKG4xKVtDQEhdKFtDSDJdW0NAQEhdMjMpW0NAQEhdKFtDSDJdMylbQ0gyXVtDSDJdMg==

> <s_epik_cmdline>
J2VwaWtfcHl0aG9uJywgJy1waCcsICc3LjAnLCAnLXRuJywgJzgnLCAnLW1hJywgJzIwMCcsICctbWV0YWxfYmluZGluZycsICctaW1hZScsICc8aW5maWxlLm1hZT4nLCAnLW9tYWUnLCAnPG91dGZpbGUubWFlPic=

> <r_lp_tautomer_probability>
1

> <r_epik_Ionization_Penalty>
1.02916e-07

> <r_epik_Ionization_Penalty_Charging>
0

> <r_epik_Ionization_Penalty_Neutral>
1.02916e-07

> <r_epik_State_Penalty>
-0

> <r_epik_Charging_Adjusted_Penalty>
0

> <i_epik_Tot_Q>
0

> <i_epik_Tot_abs_Q>
0

> <r_epik_Metal_State_Penalty>
-0

> <b_epik_Metal_Only>
0

> <s_lp_Force_Field>
OPLS_2005

> <r_lp_Energy>
49.0538

> <b_lp_Chiralities_Consistent>
1

> <s_lp_Variant>
AV-unprocessed.smi:626-1

> <Gold.Version>
5.8.1

> <Gold.Id.Protein>
6NUR|6NUR_protein|mol2

> <Gold.PLP.Fitness>
41.6718

> <Gold.PLP.PLP>
-41.7839

> <Gold.PLP.part.hbond>
-0.6274

> <Gold.PLP.part.metal>
0.0000

> <Gold.PLP.part.buried>
-6.1523

> <Gold.PLP.part.nonpolar>
-35.5236

> <Gold.PLP.part.repulsive>
0.0270

> <Gold.PLP.ligand.clash>
0.0000

> <Gold.PLP.ligand.torsion>
0.0943

> <Gold.PLP.Chemscore.Hbond>
0.0000

> <Gold.PLP.Chemscore.CHOScore>
0.0000

> <Gold.PLP.Chemscore.Metal>
0.0000

> <Gold.PLP.Chemscore.Internal.Correction>
0.0764

> <Gold.Rescore>
     Score         DG    S(hbond)    S(metal)    S(lipo)     H(rot)  DE(clash)    DE(int)     intcor
     13.19     -13.33       0.00        0.00     102.38       1.61       0.04       0.10       ----

> <Gold.Chemscore.Fitness>
13.1913

> <Gold.Chemscore.DG>
-13.3324

> <Gold.Chemscore.ZeroCoef>
-5.4800

> <Gold.Chemscore.Hbond>
0.0000

> <Gold.Chemscore.Metal>
0.0000

> <Gold.Chemscore.Lipo>
102.3848

> <Gold.Chemscore.Internal_Hbond>
0.0000

> <Gold.Chemscore.DEClash>
0.0390

> <Gold.Chemscore.DEInternal>
0.1021

> <Gold.Chemscore.Rot>
1.6119

> <Gold.Chemscore.Internal.Correction>
   9.000000E+99

> <Gold.Chemscore.Hbond.Weighted>
-0.0000

> <Gold.Chemscore.Metal.Weighted>
-0.0000

> <Gold.Chemscore.Lipo.Weighted>
-11.9790

> <Gold.Chemscore.Internal_Hbond.Weighted>
0.0000

> <Gold.Chemscore.DEClash.Weighted>
0.0390

> <Gold.Chemscore.DEInternal.Weighted>
0.1021

> <Gold.Chemscore.Rot.Weighted>
4.1266

> <Gold.Chemscore.Internal.Correction.Weighted>
   9.000000E+99

> <Gold.Protein.RotatedTorsions>
[ 6907 6896 6895 6894 ] final   98.85 input  -60.11 | X-H torsion
[ 7974 7965 7964 7962 ] final   64.04 input  175.53 | X-H torsion
[ 8008 7997 7996 7995 ] final -116.52 input   59.86 | X-H torsion
[ 10167 10162 10161 10158 ] final -143.42 input  -65.29 | X-H torsion
[ 10718 10713 10712 10709 ] final  -23.18 input   66.30 | X-H torsion
[ 10763 10752 10751 10750 ] final   87.75 input  -60.55 | X-H torsion
[ 11005 11000 10999 10996 ] final   51.20 input  -57.11 | X-H torsion

> <Gold.Protein.ActiveResidues>
 VAL166  LYS551  ARG553  GLY616  TRP617  ASP618  TYR619  PRO620  LYS621  CYS622 
 ASP623  PHE694  ASN695  SER759  ASP760  ASP761  ALA762  ILE779  LEU786  VAL792 
 PHE793  MET794  SER795  GLU796  ALA797  LYS798  CYS799  TRP800  GLU811  SER814 

> <Gold.Protein.RotatedAtoms>
  152.5402  134.0517  159.8112 H   0  0  0  0  0  0  0  0  0  0  0  0  # atno 6907 bound_to 6896
  151.0658  133.5499  159.2638 H   0  0  0  0  0  0  0  0  0  0  0  0  # atno 6908 bound_to 6896
  151.2381  135.0587  159.9068 H   0  0  0  0  0  0  0  0  0  0  0  0  # atno 6909 bound_to 6896
  145.8549  139.3277  143.0853 H   0  0  0  0  0  0  0  0  0  0  0  0  # atno 7974 bound_to 7965
  155.0691  140.0393  157.2602 H   0  0  0  0  0  0  0  0  0  0  0  0  # atno 8008 bound_to 7997
  154.6997  140.2670  155.6707 H   0  0  0  0  0  0  0  0  0  0  0  0  # atno 8009 bound_to 7997
  156.2756  140.2743  156.1603 H   0  0  0  0  0  0  0  0  0  0  0  0  # atno 8010 bound_to 7997
  139.7995  143.7853  152.2657 H   0  0  0  0  0  0  0  0  0  0  0  0  # atno 10167 bound_to 10162
  156.4945  130.4574  149.6736 H   0  0  0  0  0  0  0  0  0  0  0  0  # atno 10718 bound_to 10713
  153.1699  135.4532  154.9889 H   0  0  0  0  0  0  0  0  0  0  0  0  # atno 10763 bound_to 10752
  154.7959  135.3237  154.7671 H   0  0  0  0  0  0  0  0  0  0  0  0  # atno 10764 bound_to 10752
  153.8149  135.6951  153.4890 H   0  0  0  0  0  0  0  0  0  0  0  0  # atno 10765 bound_to 10752
  140.0952  134.5155  155.8814 H   0  0  0  0  0  0  0  0  0  0  0  0  # atno 11005 bound_to 11000
  145.9315  140.9045  143.0354 LP  0  0  0  0  0  0  0  0  0  0  0  0  # atno 17320 bound_to 7965
  144.6728  140.1425  143.7436 LP  0  0  0  0  0  0  0  0  0  0  0  0  # atno 17321 bound_to 7965
  139.7969  144.7389  150.9878 LP  0  0  0  0  0  0  0  0  0  0  0  0  # atno 17342 bound_to 10162
  140.7820  143.4385  151.0588 LP  0  0  0  0  0  0  0  0  0  0  0  0  # atno 17343 bound_to 10162
  156.3393  130.7373  151.2316 LP  0  0  0  0  0  0  0  0  0  0  0  0  # atno 17370 bound_to 10713
  157.7470  131.0408  150.4615 LP  0  0  0  0  0  0  0  0  0  0  0  0  # atno 17371 bound_to 10713
  141.2090  133.6679  156.6408 LP  0  0  0  0  0  0  0  0  0  0  0  0  # atno 17394 bound_to 11000
  140.3296  134.7940  157.4316 LP  0  0  0  0  0  0  0  0  0  0  0  0  # atno 17395 bound_to 11000

$$$$
