AV-unprocessed.smi:2071|AV-procd|sdf|8440|dock2
  -GOLD-   2272011143D 1   1.00000     0.00000
 Structure written by MMmdl.
 45 47  0  0  0  0  0  0  0  0  1 V2000
  144.6687  136.9880  151.7823 O   0  0  0  0  0  0  0  0  0  0  0  0
  145.8648  136.7388  151.6345 C   0  0  0  0  0  0  0  0  0  0  0  0
  146.8273  137.6690  151.7095 N   0  0  0  0  0  0  0  0  0  0  0  0
  146.6041  139.0876  151.9635 C   0  0  0  0  0  0  0  0  0  0  0  0
  147.0293  139.4787  153.3874 C   0  0  0  0  0  0  0  0  0  0  0  0
  147.5926  140.9078  153.4593 C   0  0  0  0  0  0  0  0  0  0  0  0
  148.1185  141.2082  154.7937 N   0  0  0  0  0  0  0  0  0  0  0  0
  147.4438  141.8882  155.7385 C   0  0  0  0  0  0  0  0  0  0  0  0
  146.3161  142.3675  155.6299 O   0  0  0  0  0  0  0  0  0  0  0  0
  148.2066  141.9570  156.8371 N   0  0  0  0  0  0  0  0  0  0  0  0
  149.4798  141.2832  156.6772 C   0  0  0  0  0  0  0  0  0  0  0  0
  149.6993  140.1387  157.6748 C   0  0  0  0  0  0  0  0  0  0  0  0
  151.2198  139.9343  157.7161 C   0  0  0  0  0  0  0  0  0  0  0  0
  151.8531  141.2519  157.2334 C   0  0  0  0  0  0  0  0  0  0  0  0
  150.6936  142.1978  156.8873 C   0  0  0  0  0  0  0  0  0  0  0  0
  149.3173  140.8077  155.2378 C   0  0  0  0  0  0  0  0  0  0  0  0
  150.1614  140.1593  154.6184 O   0  0  0  0  0  0  0  0  0  0  0  0
  146.3850  135.5226  151.3954 N   0  0  0  0  0  0  0  0  0  0  0  0
  145.7137  134.2784  151.2435 C   0  0  0  0  0  0  0  0  0  0  0  0
  146.3538  133.0533  150.9344 C   0  0  0  0  0  0  0  0  0  0  0  0
  145.5727  131.8864  150.8265 C   0  0  0  0  0  0  0  0  0  0  0  0
  144.1840  131.9838  151.0381 C   0  0  0  0  0  0  0  0  0  0  0  0
  143.5622  133.1413  151.3455 N   0  0  0  0  0  0  0  0  0  0  0  0
  144.3174  134.2559  151.4470 C   0  0  0  0  0  0  0  0  0  0  0  0
  147.7847  137.3754  151.5805 H   0  0  0  0  0  0  0  0  0  0  0  0
  147.1358  139.6905  151.2254 H   0  0  0  0  0  0  0  0  0  0  0  0
  145.5424  139.2924  151.8243 H   0  0  0  0  0  0  0  0  0  0  0  0
  146.1732  139.3896  154.0579 H   0  0  0  0  0  0  0  0  0  0  0  0
  147.7802  138.7757  153.7509 H   0  0  0  0  0  0  0  0  0  0  0  0
  148.3783  141.0347  152.7125 H   0  0  0  0  0  0  0  0  0  0  0  0
  146.8164  141.6281  153.1951 H   0  0  0  0  0  0  0  0  0  0  0  0
  147.9326  142.4151  157.6941 H   0  0  0  0  0  0  0  0  0  0  0  0
  149.3430  140.4355  158.6623 H   0  0  0  0  0  0  0  0  0  0  0  0
  149.1720  139.2232  157.4021 H   0  0  0  0  0  0  0  0  0  0  0  0
  151.5568  139.6623  158.7168 H   0  0  0  0  0  0  0  0  0  0  0  0
  151.5067  139.1229  157.0460 H   0  0  0  0  0  0  0  0  0  0  0  0
  152.5049  141.6891  157.9905 H   0  0  0  0  0  0  0  0  0  0  0  0
  152.4637  141.0646  156.3493 H   0  0  0  0  0  0  0  0  0  0  0  0
  150.9197  142.8184  156.0187 H   0  0  0  0  0  0  0  0  0  0  0  0
  150.5089  142.8712  157.7257 H   0  0  0  0  0  0  0  0  0  0  0  0
  147.3928  135.4730  151.3658 H   0  0  0  0  0  0  0  0  0  0  0  0
  147.4202  132.9789  150.7915 H   0  0  0  0  0  0  0  0  0  0  0  0
  146.0297  130.9365  150.5906 H   0  0  0  0  0  0  0  0  0  0  0  0
  143.5570  131.1078  150.9634 H   0  0  0  0  0  0  0  0  0  0  0  0
  143.7855  135.1629  151.6959 H   0  0  0  0  0  0  0  0  0  0  0  0
  1  2  2  0  0  0  0
  2  3  1  0  0  0  0
  2 18  1  0  0  0  0
  3  4  1  0  0  0  0
  3 25  1  0  0  0  0
  4  5  1  0  0  0  0
  4 26  1  0  0  0  0
  4 27  1  0  0  0  0
  5  6  1  0  0  0  0
  5 28  1  0  0  0  0
  5 29  1  0  0  0  0
  6  7  1  0  0  0  0
  6 30  1  0  0  0  0
  6 31  1  0  0  0  0
  7 16  1  0  0  0  0
  7  8  1  0  0  0  0
  8  9  2  0  0  0  0
  8 10  1  0  0  0  0
 10 11  1  0  0  0  0
 10 32  1  0  0  0  0
 11 15  1  0  0  0  0
 11 12  1  0  0  0  0
 11 16  1  0  0  0  0
 12 13  1  0  0  0  0
 12 33  1  0  0  0  0
 12 34  1  0  0  0  0
 13 14  1  0  0  0  0
 13 35  1  0  0  0  0
 13 36  1  0  0  0  0
 14 15  1  0  0  0  0
 14 37  1  0  0  0  0
 14 38  1  0  0  0  0
 15 39  1  0  0  0  0
 15 40  1  0  0  0  0
 16 17  2  0  0  0  0
 18 19  1  0  0  0  0
 18 41  1  0  0  0  0
 19 24  1  0  0  0  0
 19 20  2  0  0  0  0
 20 21  1  0  0  0  0
 20 42  1  0  0  0  0
 21 22  2  0  0  0  0
 21 43  1  0  0  0  0
 22 23  1  0  0  0  0
 22 44  1  0  0  0  0
 23 24  2  0  0  0  0
 24 45  1  0  0  0  0
M  END
> <s_m_source_file>
AV-unprocessed.smi

> <i_m_source_file_index>
2071

> <i_lp_mmshare_version>
43012

> <i_f3d_flags>
0

> <s_epik_input>
W2NIXTFuW2NIXVtjSF1bY0hdYzFbTkhdQyg9TylbTkhdW0NIMl1bQ0gyXVtDSDJdTihDMj1PKUMoPU8pW05IXUMyM1tDSDJdW0NIMl1bQ0gyXVtDSDJdMw==

> <s_epik_cmdline>
J2VwaWtfcHl0aG9uJywgJy1waCcsICc3LjAnLCAnLXRuJywgJzgnLCAnLW1hJywgJzIwMCcsICctbWV0YWxfYmluZGluZycsICctaW1hZScsICc8aW5maWxlLm1hZT4nLCAnLW9tYWUnLCAnPG91dGZpbGUubWFlPic=

> <r_lp_tautomer_probability>
1

> <r_epik_Ionization_Penalty>
0.00482956

> <r_epik_Ionization_Penalty_Charging>
0

> <r_epik_Ionization_Penalty_Neutral>
0.00482956

> <r_epik_State_Penalty>
0.00344413

> <r_epik_Charging_Adjusted_Penalty>
0.00344413

> <i_epik_Tot_Q>
0

> <i_epik_Tot_abs_Q>
0

> <r_epik_Metal_State_Penalty>
0.0123255

> <b_epik_Metal_Only>
0

> <s_lp_Force_Field>
OPLS_2005

> <r_lp_Energy>
39.9018

> <b_lp_Chiralities_Consistent>
1

> <s_lp_Variant>
AV-unprocessed.smi:2071-1

> <Gold.Version>
5.8.1

> <Gold.Id.Protein>
6NUR|6NUR_protein|mol2

> <Gold.PLP.Fitness>
44.9774

> <Gold.PLP.PLP>
-37.2387

> <Gold.PLP.part.hbond>
-3.9768

> <Gold.PLP.part.metal>
0.0000

> <Gold.PLP.part.buried>
-5.4264

> <Gold.PLP.part.nonpolar>
-32.3660

> <Gold.PLP.part.repulsive>
3.9774

> <Gold.PLP.ligand.clash>
0.0000

> <Gold.PLP.ligand.torsion>
0.6020

> <Gold.PLP.Chemscore.Hbond>
2.9760

> <Gold.PLP.Chemscore.CHOScore>
0.0000

> <Gold.PLP.Chemscore.Metal>
0.0000

> <Gold.Chemscore.Hbonds>
donor molecule, donor type, donor heavy atom, donor atom, acceptor molecule, acceptor atom, score
      L1  H     3    25       P1  7948  0.99
      L1  H    18    41       P1  7948  0.96
      P1  H  7989  7998       L1    17  1.00

> <Gold.PLP.Chemscore.Internal.Correction>
0.0148

> <Gold.Rescore>
     Score         DG    S(hbond)    S(metal)    S(lipo)     H(rot)  DE(clash)    DE(int)     intcor
     16.07     -19.93       2.80        0.00      86.59       1.96       1.82       2.04       ----

> <Gold.Chemscore.Fitness>
16.0705

> <Gold.Chemscore.DG>
-19.9304

> <Gold.Chemscore.ZeroCoef>
-5.4800

> <Gold.Chemscore.Hbond>
2.7981

> <Gold.Chemscore.Metal>
0.0000

> <Gold.Chemscore.Lipo>
86.5911

> <Gold.Chemscore.Internal_Hbond>
0.0000

> <Gold.Chemscore.DEClash>
1.8160

> <Gold.Chemscore.DEInternal>
2.0439

> <Gold.Chemscore.Rot>
1.9634

> <Gold.Chemscore.Internal.Correction>
   9.000000E+99

> <Gold.Chemscore.Hbonds>
donor molecule, donor type, donor heavy atom, donor atom, acceptor molecule, acceptor atom, score
      L1  H     3    25       P1  7948  0.93
      L1  H    18    41       P1  7948  0.81
      P1  H  7989  7998       L1    17  0.95

> <Gold.Chemscore.Hbond.Weighted>
-9.3455

> <Gold.Chemscore.Metal.Weighted>
-0.0000

> <Gold.Chemscore.Lipo.Weighted>
-10.1312

> <Gold.Chemscore.Internal_Hbond.Weighted>
0.0000

> <Gold.Chemscore.DEClash.Weighted>
1.8160

> <Gold.Chemscore.DEInternal.Weighted>
2.0439

> <Gold.Chemscore.Rot.Weighted>
5.0263

> <Gold.Chemscore.Internal.Correction.Weighted>
   9.000000E+99

> <Gold.Protein.RotatedTorsions>
[ 6907 6896 6895 6894 ] final  111.31 input  -60.11 | X-H torsion
[ 7974 7965 7964 7962 ] final   -7.77 input  175.53 | X-H torsion
[ 8008 7997 7996 7995 ] final   49.36 input   59.86 | X-H torsion
[ 10167 10162 10161 10158 ] final -104.70 input  -65.29 | X-H torsion
[ 10718 10713 10712 10709 ] final  -75.31 input   66.30 | X-H torsion
[ 10763 10752 10751 10750 ] final   33.38 input  -60.55 | X-H torsion
[ 11005 11000 10999 10996 ] final   29.68 input  -57.11 | X-H torsion

> <Gold.Protein.ActiveResidues>
 VAL166  LYS551  ARG553  GLY616  TRP617  ASP618  TYR619  PRO620  LYS621  CYS622 
 ASP623  PHE694  ASN695  SER759  ASP760  ASP761  ALA762  ILE779  LEU786  VAL792 
 PHE793  MET794  SER795  GLU796  ALA797  LYS798  CYS799  TRP800  GLU811  SER814 

> <Gold.Protein.RotatedAtoms>
  152.4975  133.8675  159.7281 H   0  0  0  0  0  0  0  0  0  0  0  0  # atno 6907 bound_to 6896
  150.9170  133.6917  159.2847 H   0  0  0  0  0  0  0  0  0  0  0  0  # atno 6908 bound_to 6896
  151.4307  135.1013  159.9694 H   0  0  0  0  0  0  0  0  0  0  0  0  # atno 6909 bound_to 6896
  146.2298  140.2368  142.8342 H   0  0  0  0  0  0  0  0  0  0  0  0  # atno 7974 bound_to 7965
  155.4009  140.3438  155.4257 H   0  0  0  0  0  0  0  0  0  0  0  0  # atno 8008 bound_to 7997
  156.1504  140.1569  156.8811 H   0  0  0  0  0  0  0  0  0  0  0  0  # atno 8009 bound_to 7997
  154.5047  140.0805  156.7852 H   0  0  0  0  0  0  0  0  0  0  0  0  # atno 8010 bound_to 7997
  140.2064  143.3779  152.1087 H   0  0  0  0  0  0  0  0  0  0  0  0  # atno 10167 bound_to 10162
  156.0212  130.4438  150.3024 H   0  0  0  0  0  0  0  0  0  0  0  0  # atno 10718 bound_to 10713
  153.0214  135.6388  154.1503 H   0  0  0  0  0  0  0  0  0  0  0  0  # atno 10763 bound_to 10752
  154.1237  135.2845  155.3204 H   0  0  0  0  0  0  0  0  0  0  0  0  # atno 10764 bound_to 10752
  154.6245  135.5514  153.7673 H   0  0  0  0  0  0  0  0  0  0  0  0  # atno 10765 bound_to 10752
  140.3024  134.2742  155.7751 H   0  0  0  0  0  0  0  0  0  0  0  0  # atno 11005 bound_to 11000
  144.9515  140.8183  143.5569 LP  0  0  0  0  0  0  0  0  0  0  0  0  # atno 17320 bound_to 7965
  145.2329  139.2107  143.5033 LP  0  0  0  0  0  0  0  0  0  0  0  0  # atno 17321 bound_to 7965
  139.5197  144.7023  151.5458 LP  0  0  0  0  0  0  0  0  0  0  0  0  # atno 17342 bound_to 10162
  140.6354  143.8994  150.6643 LP  0  0  0  0  0  0  0  0  0  0  0  0  # atno 17343 bound_to 10162
  157.1126  131.0225  151.3042 LP  0  0  0  0  0  0  0  0  0  0  0  0  # atno 17370 bound_to 10713
  157.4692  130.7698  149.7307 LP  0  0  0  0  0  0  0  0  0  0  0  0  # atno 17371 bound_to 10713
  141.2125  133.7655  156.9786 LP  0  0  0  0  0  0  0  0  0  0  0  0  # atno 17394 bound_to 11000
  140.1097  134.9484  157.2047 LP  0  0  0  0  0  0  0  0  0  0  0  0  # atno 17395 bound_to 11000

$$$$
