AV-unprocessed.smi:3251|AV-procd|sdf|12437|dock1
  -GOLD-   2272018323D 1   1.00000     0.00000
 Structure written by MMmdl.
 40 41  0  0  0  0  0  0  0  0  1 V2000
  151.7457  144.9366  159.1872 C   0  0  0  0  0  0  0  0  0  0  0  0
  151.8761  143.4424  159.1264 C   0  0  0  0  0  0  0  0  0  0  0  0
  152.5768  142.5885  160.0249 C   0  0  0  0  0  0  0  0  0  0  0  0
  152.4916  141.3106  159.6929 N   0  0  0  0  0  0  0  0  0  0  0  0
  151.7347  141.3031  158.5753 N   0  0  0  0  0  0  0  0  0  0  0  0
  151.4078  140.0415  157.9353 C   0  0  0  0  0  0  0  0  0  0  0  0
  151.8572  140.0162  156.4660 C   0  0  0  0  0  0  0  0  0  0  0  0
  150.9921  140.8790  155.6666 N   0  0  0  0  0  0  0  0  0  0  0  0
  149.7341  140.2313  155.2585 C   0  0  2  0  0  0  0  0  0  0  0  0
  150.0449  138.8894  154.5780 C   0  0  0  0  0  0  0  0  0  0  0  0
  148.8908  141.1144  154.3106 C   0  0  0  0  0  0  0  0  0  0  0  0
  149.3453  141.3951  153.1997 O   0  0  0  0  0  0  0  0  0  0  0  0
  147.6822  141.5607  154.7160 N   0  0  0  0  0  0  0  0  0  0  0  0
  147.0301  141.2655  155.9916 C   0  0  0  0  0  0  0  0  0  0  0  0
  145.5986  141.7853  155.8581 C   0  0  0  0  0  0  0  0  0  0  0  0
  145.6982  142.8833  154.8093 C   0  0  0  0  0  0  0  0  0  0  0  0
  146.8321  142.4209  153.8944 C   0  0  0  0  0  0  0  0  0  0  0  0
  151.3500  142.5759  158.2107 C   0  0  0  0  0  0  0  0  0  0  0  0
  152.5535  145.3901  159.7619 H   0  0  0  0  0  0  0  0  0  0  0  0
  150.8087  145.2376  159.6559 H   0  0  0  0  0  0  0  0  0  0  0  0
  151.7678  145.3846  158.1937 H   0  0  0  0  0  0  0  0  0  0  0  0
  153.1405  142.8587  160.9056 H   0  0  0  0  0  0  0  0  0  0  0  0
  151.8650  139.2272  158.4991 H   0  0  0  0  0  0  0  0  0  0  0  0
  150.3285  139.8950  157.9958 H   0  0  0  0  0  0  0  0  0  0  0  0
  152.8825  140.3776  156.3821 H   0  0  0  0  0  0  0  0  0  0  0  0
  151.8549  138.9866  156.1068 H   0  0  0  0  0  0  0  0  0  0  0  0
  151.5081  141.2343  154.8747 H   0  0  0  0  0  0  0  0  0  0  0  0
  149.1783  140.0141  156.1701 H   0  0  0  0  0  0  0  0  0  0  0  0
  149.1312  138.3733  154.2806 H   0  0  0  0  0  0  0  0  0  0  0  0
  150.5877  138.2260  155.2518 H   0  0  0  0  0  0  0  0  0  0  0  0
  150.6559  139.0248  153.6843 H   0  0  0  0  0  0  0  0  0  0  0  0
  147.0378  140.1998  156.2237 H   0  0  0  0  0  0  0  0  0  0  0  0
  147.5528  141.7956  156.7892 H   0  0  0  0  0  0  0  0  0  0  0  0
  144.9526  140.9875  155.4892 H   0  0  0  0  0  0  0  0  0  0  0  0
  145.1869  142.1386  156.8039 H   0  0  0  0  0  0  0  0  0  0  0  0
  144.7620  143.0453  154.2743 H   0  0  0  0  0  0  0  0  0  0  0  0
  145.9759  143.8225  155.2897 H   0  0  0  0  0  0  0  0  0  0  0  0
  147.3810  143.2704  153.4847 H   0  0  0  0  0  0  0  0  0  0  0  0
  146.4381  141.8379  153.0608 H   0  0  0  0  0  0  0  0  0  0  0  0
  150.7325  142.7564  157.3430 H   0  0  0  0  0  0  0  0  0  0  0  0
  1  2  1  0  0  0  0
  1 19  1  0  0  0  0
  1 20  1  0  0  0  0
  1 21  1  0  0  0  0
  2 18  2  0  0  0  0
  2  3  1  0  0  0  0
  3  4  2  0  0  0  0
  3 22  1  0  0  0  0
  4  5  1  0  0  0  0
  5  6  1  0  0  0  0
  5 18  1  0  0  0  0
  6  7  1  0  0  0  0
  6 23  1  0  0  0  0
  6 24  1  0  0  0  0
  7  8  1  0  0  0  0
  7 25  1  0  0  0  0
  7 26  1  0  0  0  0
  8  9  1  0  0  0  0
  8 27  1  0  0  0  0
  9 10  1  0  0  0  0
  9 11  1  0  0  0  0
  9 28  1  0  0  0  0
 10 29  1  0  0  0  0
 10 30  1  0  0  0  0
 10 31  1  0  0  0  0
 11 12  2  0  0  0  0
 11 13  1  0  0  0  0
 13 17  1  0  0  0  0
 13 14  1  0  0  0  0
 14 15  1  0  0  0  0
 14 32  1  0  0  0  0
 14 33  1  0  0  0  0
 15 16  1  0  0  0  0
 15 34  1  0  0  0  0
 15 35  1  0  0  0  0
 16 17  1  0  0  0  0
 16 36  1  0  0  0  0
 16 37  1  0  0  0  0
 17 38  1  0  0  0  0
 17 39  1  0  0  0  0
 18 40  1  0  0  0  0
M  END
> <s_m_source_file>
AV-unprocessed.smi

> <i_m_source_file_index>
3251

> <i_lp_mmshare_version>
43012

> <i_f3d_flags>
0

> <s_epik_input>
W0NIM11jMVtjSF1ubihbY0hdMSlbQ0gyXVtDSDJdW05IXVtDQEhdKFtDSDNdKUMoPU8pTjJbQ0gyXVtDSDJdW0NIMl1bQ0gyXTI=

> <s_epik_cmdline>
J2VwaWtfcHl0aG9uJywgJy1waCcsICc3LjAnLCAnLXRuJywgJzgnLCAnLW1hJywgJzIwMCcsICctbWV0YWxfYmluZGluZycsICctaW1hZScsICc8aW5maWxlLm1hZT4nLCAnLW9tYWUnLCAnPG91dGZpbGUubWFlPic=

> <r_lp_tautomer_probability>
1

> <r_epik_Ionization_Penalty>
0.734676

> <r_epik_Ionization_Penalty_Charging>
0

> <r_epik_Ionization_Penalty_Neutral>
0.734676

> <r_epik_State_Penalty>
0.75825

> <r_epik_Charging_Adjusted_Penalty>
0.75825

> <i_epik_Tot_Q>
0

> <i_epik_Tot_abs_Q>
0

> <r_epik_Metal_State_Penalty>
0.756914

> <b_epik_Metal_Only>
0

> <s_lp_Force_Field>
OPLS_2005

> <r_lp_Energy>
32.0163

> <b_lp_Chiralities_Consistent>
1

> <s_lp_Variant>
AV-unprocessed.smi:3251-3

> <Gold.Version>
5.8.1

> <Gold.Id.Protein>
6NUR|6NUR_protein|mol2

> <Gold.PLP.Fitness>
41.6837

> <Gold.PLP.PLP>
-38.9968

> <Gold.PLP.part.hbond>
-2.6777

> <Gold.PLP.part.metal>
0.0000

> <Gold.PLP.part.buried>
-5.7473

> <Gold.PLP.part.nonpolar>
-34.4267

> <Gold.PLP.part.repulsive>
3.9237

> <Gold.PLP.ligand.clash>
0.0000

> <Gold.PLP.ligand.torsion>
0.2057

> <Gold.PLP.Chemscore.Hbond>
1.0000

> <Gold.PLP.Chemscore.CHOScore>
0.0000

> <Gold.PLP.Chemscore.Metal>
0.0000

> <Gold.Chemscore.Hbonds>
donor molecule, donor type, donor heavy atom, donor atom, acceptor molecule, acceptor atom, score
      P1  H  7989  7998       L1    12  0.01
      P1  H  8011  8017       L1    12  0.70

> <Gold.PLP.Chemscore.Internal.Correction>
0.0984

> <Gold.Rescore>
     Score         DG    S(hbond)    S(metal)    S(lipo)     H(rot)  DE(clash)    DE(int)     intcor
     13.51     -15.63       1.25        0.00      88.28       1.70       1.90       0.22       ----

> <Gold.Chemscore.Fitness>
13.5115

> <Gold.Chemscore.DG>
-15.6297

> <Gold.Chemscore.ZeroCoef>
-5.4800

> <Gold.Chemscore.Hbond>
1.2455

> <Gold.Chemscore.Metal>
0.0000

> <Gold.Chemscore.Lipo>
88.2835

> <Gold.Chemscore.Internal_Hbond>
0.0000

> <Gold.Chemscore.DEClash>
1.8992

> <Gold.Chemscore.DEInternal>
0.2190

> <Gold.Chemscore.Rot>
1.6951

> <Gold.Chemscore.Internal.Correction>
   9.000000E+99

> <Gold.Chemscore.Hbonds>
donor molecule, donor type, donor heavy atom, donor atom, acceptor molecule, acceptor atom, score
      P1  H  7989  7998       L1    12  0.01
      P1  H  8011  8017       L1    12  0.69

> <Gold.Chemscore.Hbond.Weighted>
-4.1600

> <Gold.Chemscore.Metal.Weighted>
-0.0000

> <Gold.Chemscore.Lipo.Weighted>
-10.3292

> <Gold.Chemscore.Internal_Hbond.Weighted>
0.0000

> <Gold.Chemscore.DEClash.Weighted>
1.8992

> <Gold.Chemscore.DEInternal.Weighted>
0.2190

> <Gold.Chemscore.Rot.Weighted>
4.3395

> <Gold.Chemscore.Internal.Correction.Weighted>
   9.000000E+99

> <Gold.Protein.RotatedTorsions>
[ 6907 6896 6895 6894 ] final   37.52 input  -60.11 | X-H torsion
[ 7974 7965 7964 7962 ] final   20.14 input  175.53 | X-H torsion
[ 8008 7997 7996 7995 ] final  -88.68 input   59.86 | X-H torsion
[ 10167 10162 10161 10158 ] final   15.93 input  -65.29 | X-H torsion
[ 10718 10713 10712 10709 ] final   91.76 input   66.30 | X-H torsion
[ 10763 10752 10751 10750 ] final   62.24 input  -60.55 | X-H torsion
[ 11005 11000 10999 10996 ] final -119.52 input  -57.11 | X-H torsion

> <Gold.Protein.ActiveResidues>
 VAL166  LYS551  ARG553  GLY616  TRP617  ASP618  TYR619  PRO620  LYS621  CYS622 
 ASP623  PHE694  ASN695  SER759  ASP760  ASP761  ALA762  ILE779  LEU786  VAL792 
 PHE793  MET794  SER795  GLU796  ALA797  LYS798  CYS799  TRP800  GLU811  SER814 

> <Gold.Protein.RotatedAtoms>
  152.1442  134.9039  160.0551 H   0  0  0  0  0  0  0  0  0  0  0  0  # atno 6907 bound_to 6896
  152.0095  133.3851  159.4222 H   0  0  0  0  0  0  0  0  0  0  0  0  # atno 6908 bound_to 6896
  150.6868  134.3667  159.5018 H   0  0  0  0  0  0  0  0  0  0  0  0  # atno 6909 bound_to 6896
  146.2123  139.8213  142.8679 H   0  0  0  0  0  0  0  0  0  0  0  0  # atno 7974 bound_to 7965
  154.6776  140.0551  157.0232 H   0  0  0  0  0  0  0  0  0  0  0  0  # atno 8008 bound_to 7997
  155.0997  140.3227  155.4532 H   0  0  0  0  0  0  0  0  0  0  0  0  # atno 8009 bound_to 7997
  156.2682  140.2033  156.6124 H   0  0  0  0  0  0  0  0  0  0  0  0  # atno 8010 bound_to 7997
  140.5833  143.8938  150.6808 H   0  0  0  0  0  0  0  0  0  0  0  0  # atno 10167 bound_to 10162
  157.6960  131.0419  150.3779 H   0  0  0  0  0  0  0  0  0  0  0  0  # atno 10718 bound_to 10713
  152.9976  135.5472  154.6162 H   0  0  0  0  0  0  0  0  0  0  0  0  # atno 10763 bound_to 10752
  154.5471  135.2824  155.1044 H   0  0  0  0  0  0  0  0  0  0  0  0  # atno 10764 bound_to 10752
  154.2299  135.6435  153.5224 H   0  0  0  0  0  0  0  0  0  0  0  0  # atno 10765 bound_to 10752
  141.0210  134.0125  157.3283 H   0  0  0  0  0  0  0  0  0  0  0  0  # atno 11005 bound_to 11000
  145.3093  141.0215  143.3563 LP  0  0  0  0  0  0  0  0  0  0  0  0  # atno 17320 bound_to 7965
  144.8947  139.4727  143.6661 LP  0  0  0  0  0  0  0  0  0  0  0  0  # atno 17321 bound_to 7965
  140.2443  143.3640  152.1460 LP  0  0  0  0  0  0  0  0  0  0  0  0  # atno 17342 bound_to 10162
  139.5182  144.7003  151.5512 LP  0  0  0  0  0  0  0  0  0  0  0  0  # atno 17343 bound_to 10162
  156.4196  130.3950  149.6834 LP  0  0  0  0  0  0  0  0  0  0  0  0  # atno 17370 bound_to 10713
  156.4090  130.7712  151.2724 LP  0  0  0  0  0  0  0  0  0  0  0  0  # atno 17371 bound_to 10713
  139.9146  135.0195  156.7829 LP  0  0  0  0  0  0  0  0  0  0  0  0  # atno 17394 bound_to 11000
  140.6573  133.9677  155.7786 LP  0  0  0  0  0  0  0  0  0  0  0  0  # atno 17395 bound_to 11000

$$$$
