AV-unprocessed.smi:1734|AV-procd|sdf|6982|dock2
  -GOLD-   22720 8193D 1   1.00000     0.00000
 Structure written by MMmdl.
 50 52  0  0  0  0  0  0  0  0  1 V2000
  147.6563  132.3929  152.7810 C   0  0  0  0  0  0  0  0  0  0  0  0
  146.3742  132.7024  152.0251 C   0  0  0  0  0  0  0  0  0  0  0  0
  145.6760  131.6524  151.3914 C   0  0  0  0  0  0  0  0  0  0  0  0
  144.4908  131.9402  150.6936 C   0  0  0  0  0  0  0  0  0  0  0  0
  144.0502  133.2743  150.6595 C   0  0  0  0  0  0  0  0  0  0  0  0
  144.7115  134.2838  151.2613 N   0  0  0  0  0  0  0  0  0  0  0  0
  145.8583  134.0233  151.9381 C   0  0  0  0  0  0  0  0  0  0  0  0
  146.6148  135.0404  152.5853 N   0  0  0  0  0  0  0  0  0  0  0  0
  146.2571  135.8165  153.6234 C   0  0  0  0  0  0  0  0  0  0  0  0
  145.2071  135.7209  154.2595 O   0  0  0  0  0  0  0  0  0  0  0  0
  147.1986  136.7337  153.8872 N   0  0  0  0  0  0  0  0  0  0  0  0
  147.1012  137.7596  154.9191 C   0  0  0  0  0  0  0  0  0  0  0  0
  148.1241  137.5803  156.0811 C   0  0  2  0  0  0  0  0  0  0  0  0
  147.4654  137.7347  157.4837 C   0  0  1  0  0  0  0  0  0  0  0  0
  146.3222  136.7765  157.7933 C   0  0  0  0  0  0  0  0  0  0  0  0
  146.2982  136.7061  159.3211 C   0  0  0  0  0  0  0  0  0  0  0  0
  147.5396  137.2405  159.7647 O   0  0  0  0  0  0  0  0  0  0  0  0
  148.4012  137.4026  158.6494 C   0  0  0  0  0  0  0  0  0  0  0  0
  149.3188  138.4320  155.9432 N   0  0  0  0  0  0  0  0  0  0  0  0
  149.0699  139.8677  156.0627 C   0  0  0  0  0  0  0  0  0  0  0  0
  150.3815  140.6713  156.0315 C   0  0  0  0  0  0  0  0  0  0  0  0
  151.1076  140.3620  154.8456 O   0  0  0  0  0  0  0  0  0  0  0  0
  151.4110  138.9749  154.7293 C   0  0  0  0  0  0  0  0  0  0  0  0
  150.1069  138.1594  154.7439 C   0  0  0  0  0  0  0  0  0  0  0  0
  147.8840  131.3268  152.7577 H   0  0  0  0  0  0  0  0  0  0  0  0
  147.5651  132.6920  153.8255 H   0  0  0  0  0  0  0  0  0  0  0  0
  148.4985  132.9259  152.3389 H   0  0  0  0  0  0  0  0  0  0  0  0
  146.0423  130.6372  151.4370 H   0  0  0  0  0  0  0  0  0  0  0  0
  143.9338  131.1589  150.1979 H   0  0  0  0  0  0  0  0  0  0  0  0
  143.1440  133.5391  150.1351 H   0  0  0  0  0  0  0  0  0  0  0  0
  147.5240  135.2204  152.1862 H   0  0  0  0  0  0  0  0  0  0  0  0
  148.0328  136.7391  153.3186 H   0  0  0  0  0  0  0  0  0  0  0  0
  147.2115  138.7272  154.4304 H   0  0  0  0  0  0  0  0  0  0  0  0
  146.0840  137.7372  155.3107 H   0  0  0  0  0  0  0  0  0  0  0  0
  148.4826  136.5512  156.0367 H   0  0  0  0  0  0  0  0  0  0  0  0
  147.1005  138.7543  157.6142 H   0  0  0  0  0  0  0  0  0  0  0  0
  145.3657  137.1082  157.3893 H   0  0  0  0  0  0  0  0  0  0  0  0
  146.5364  135.7869  157.3866 H   0  0  0  0  0  0  0  0  0  0  0  0
  145.4866  137.3060  159.7335 H   0  0  0  0  0  0  0  0  0  0  0  0
  146.1728  135.6806  159.6701 H   0  0  0  0  0  0  0  0  0  0  0  0
  148.9318  136.4662  158.4684 H   0  0  0  0  0  0  0  0  0  0  0  0
  149.1396  138.1823  158.8378 H   0  0  0  0  0  0  0  0  0  0  0  0
  148.4299  140.2059  155.2474 H   0  0  0  0  0  0  0  0  0  0  0  0
  148.5426  140.0881  156.9903 H   0  0  0  0  0  0  0  0  0  0  0  0
  150.1715  141.7406  156.0529 H   0  0  0  0  0  0  0  0  0  0  0  0
  150.9914  140.4466  156.9079 H   0  0  0  0  0  0  0  0  0  0  0  0
  151.9541  138.8052  153.7995 H   0  0  0  0  0  0  0  0  0  0  0  0
  152.0680  138.6694  155.5450 H   0  0  0  0  0  0  0  0  0  0  0  0
  150.3442  137.0966  154.6878 H   0  0  0  0  0  0  0  0  0  0  0  0
  149.5374  138.4019  153.8475 H   0  0  0  0  0  0  0  0  0  0  0  0
  1  2  1  0  0  0  0
  1 25  1  0  0  0  0
  1 26  1  0  0  0  0
  1 27  1  0  0  0  0
  2  7  1  0  0  0  0
  2  3  2  0  0  0  0
  3  4  1  0  0  0  0
  3 28  1  0  0  0  0
  4  5  2  0  0  0  0
  4 29  1  0  0  0  0
  5  6  1  0  0  0  0
  5 30  1  0  0  0  0
  6  7  2  0  0  0  0
  7  8  1  0  0  0  0
  8  9  1  0  0  0  0
  8 31  1  0  0  0  0
  9 10  2  0  0  0  0
  9 11  1  0  0  0  0
 11 12  1  0  0  0  0
 11 32  1  0  0  0  0
 12 13  1  0  0  0  0
 12 33  1  0  0  0  0
 12 34  1  0  0  0  0
 13 14  1  0  0  0  0
 13 19  1  0  0  0  0
 13 35  1  0  0  0  0
 14 18  1  0  0  0  0
 14 15  1  0  0  0  0
 14 36  1  0  0  0  0
 15 16  1  0  0  0  0
 15 37  1  0  0  0  0
 15 38  1  0  0  0  0
 16 17  1  0  0  0  0
 16 39  1  0  0  0  0
 16 40  1  0  0  0  0
 17 18  1  0  0  0  0
 18 41  1  0  0  0  0
 18 42  1  0  0  0  0
 19 24  1  0  0  0  0
 19 20  1  0  0  0  0
 20 21  1  0  0  0  0
 20 43  1  0  0  0  0
 20 44  1  0  0  0  0
 21 22  1  0  0  0  0
 21 45  1  0  0  0  0
 21 46  1  0  0  0  0
 22 23  1  0  0  0  0
 23 24  1  0  0  0  0
 23 47  1  0  0  0  0
 23 48  1  0  0  0  0
 24 49  1  0  0  0  0
 24 50  1  0  0  0  0
M  END
> <s_m_source_file>
AV-unprocessed.smi

> <i_m_source_file_index>
1734

> <i_lp_mmshare_version>
43012

> <i_f3d_flags>
0

> <s_epik_input>
W0NIM11jMVtjSF1bY0hdW2NIXW5jMVtOSF1DKD1PKVtOSF1bQ0gyXVtDQEhdKFtDQEBIXTJbQ0gyXVtDSDJdT1tDSDJdMilOM1tDSDJdW0NIMl1PW0NIMl1bQ0gyXTM=

> <s_epik_cmdline>
J2VwaWtfcHl0aG9uJywgJy1waCcsICc3LjAnLCAnLXRuJywgJzgnLCAnLW1hJywgJzIwMCcsICctbWV0YWxfYmluZGluZycsICctaW1hZScsICc8aW5maWxlLm1hZT4nLCAnLW9tYWUnLCAnPG91dGZpbGUubWFlPic=

> <r_epik_Ionization_Penalty>
0.125073

> <r_epik_Ionization_Penalty_Charging>
0

> <r_epik_Ionization_Penalty_Neutral>
0.125073

> <r_epik_State_Penalty>
0.114484

> <r_epik_Charging_Adjusted_Penalty>
0.114484

> <i_epik_Tot_Q>
0

> <i_epik_Tot_abs_Q>
0

> <r_epik_Metal_State_Penalty>
0.114483

> <b_epik_Metal_Only>
0

> <s_lp_Force_Field>
OPLS_2005

> <r_lp_Energy>
51.317

> <b_lp_Chiralities_Consistent>
1

> <s_lp_Variant>
AV-unprocessed.smi:1734-3

> <Gold.Version>
5.8.1

> <Gold.Id.Protein>
6NUR|6NUR_protein|mol2

> <Gold.PLP.Fitness>
42.3001

> <Gold.PLP.PLP>
-29.4752

> <Gold.PLP.part.hbond>
-3.8907

> <Gold.PLP.part.metal>
0.0000

> <Gold.PLP.part.buried>
-4.6760

> <Gold.PLP.part.nonpolar>
-21.2939

> <Gold.PLP.part.repulsive>
0.2728

> <Gold.PLP.ligand.clash>
0.0000

> <Gold.PLP.ligand.torsion>
1.2927

> <Gold.PLP.Chemscore.Hbond>
3.8960

> <Gold.PLP.Chemscore.CHOScore>
1.0000

> <Gold.PLP.Chemscore.Metal>
0.0000

> <Gold.Chemscore.Hbonds>
donor molecule, donor type, donor heavy atom, donor atom, acceptor molecule, acceptor atom, score
      L1  H     8    31       P1  7948  1.00
      L1  H    11    32       P1  7948  1.00
      P1  H  6934  6947       L1    17  0.60
      P1  H  7989  7998       L1    22  1.00
      L1  C     5    30       P1 10186  1.00

> <Gold.PLP.Chemscore.Internal.Correction>
0.7224

> <Gold.Rescore>
     Score         DG    S(hbond)    S(metal)    S(lipo)     H(rot)  DE(clash)    DE(int)     intcor
     19.77     -21.10       3.69        0.00      64.35       1.65       0.00       1.33       ----

> <Gold.Chemscore.Fitness>
19.7723

> <Gold.Chemscore.DG>
-21.1033

> <Gold.Chemscore.ZeroCoef>
-5.4800

> <Gold.Chemscore.Hbond>
3.6868

> <Gold.Chemscore.Metal>
0.0000

> <Gold.Chemscore.Lipo>
64.3454

> <Gold.Chemscore.Internal_Hbond>
0.0000

> <Gold.Chemscore.DEClash>
0.0038

> <Gold.Chemscore.DEInternal>
1.3273

> <Gold.Chemscore.Rot>
1.6480

> <Gold.Chemscore.Internal.Correction>
   9.000000E+99

> <Gold.Chemscore.Hbonds>
donor molecule, donor type, donor heavy atom, donor atom, acceptor molecule, acceptor atom, score
      L1  H     8    31       P1  7948  0.97
      L1  H    11    32       P1  7948  0.96
      P1  H  6934  6947       L1    17  0.41
      P1  H  7989  7998       L1    22  0.28

> <Gold.Chemscore.Hbond.Weighted>
-12.3138

> <Gold.Chemscore.Metal.Weighted>
-0.0000

> <Gold.Chemscore.Lipo.Weighted>
-7.5284

> <Gold.Chemscore.Internal_Hbond.Weighted>
0.0000

> <Gold.Chemscore.DEClash.Weighted>
0.0038

> <Gold.Chemscore.DEInternal.Weighted>
1.3273

> <Gold.Chemscore.Rot.Weighted>
4.2188

> <Gold.Chemscore.Internal.Correction.Weighted>
   9.000000E+99

> <Gold.Protein.RotatedTorsions>
[ 6907 6896 6895 6894 ] final   39.84 input  -60.11 | X-H torsion
[ 7974 7965 7964 7962 ] final   16.00 input  175.53 | X-H torsion
[ 8008 7997 7996 7995 ] final   67.22 input   59.86 | X-H torsion
[ 10167 10162 10161 10158 ] final   -7.72 input  -65.29 | X-H torsion
[ 10718 10713 10712 10709 ] final   42.86 input   66.30 | X-H torsion
[ 10763 10752 10751 10750 ] final -154.45 input  -60.55 | X-H torsion
[ 11005 11000 10999 10996 ] final  -52.17 input  -57.11 | X-H torsion

> <Gold.Protein.ActiveResidues>
 VAL166  LYS551  ARG553  GLY616  TRP617  ASP618  TYR619  PRO620  LYS621  CYS622 
 ASP623  PHE694  ASN695  SER759  ASP760  ASP761  ALA762  ILE779  LEU786  VAL792 
 PHE793  MET794  SER795  GLU796  ALA797  LYS798  CYS799  TRP800  GLU811  SER814 

> <Gold.Protein.RotatedAtoms>
  152.1747  134.8804  160.0531 H   0  0  0  0  0  0  0  0  0  0  0  0  # atno 6907 bound_to 6896
  151.9751  133.3734  159.4094 H   0  0  0  0  0  0  0  0  0  0  0  0  # atno 6908 bound_to 6896
  150.6907  134.4021  159.5167 H   0  0  0  0  0  0  0  0  0  0  0  0  # atno 6909 bound_to 6896
  146.2262  139.8812  142.8570 H   0  0  0  0  0  0  0  0  0  0  0  0  # atno 7974 bound_to 7965
  155.6896  140.3496  155.4888 H   0  0  0  0  0  0  0  0  0  0  0  0  # atno 8008 bound_to 7997
  155.9536  140.1124  157.0978 H   0  0  0  0  0  0  0  0  0  0  0  0  # atno 8009 bound_to 7997
  154.4127  140.1189  156.5072 H   0  0  0  0  0  0  0  0  0  0  0  0  # atno 8010 bound_to 7997
  140.7037  143.6050  150.8760 H   0  0  0  0  0  0  0  0  0  0  0  0  # atno 10167 bound_to 10162
  157.4096  130.7906  149.7418 H   0  0  0  0  0  0  0  0  0  0  0  0  # atno 10718 bound_to 10713
  154.7857  135.3189  154.7890 H   0  0  0  0  0  0  0  0  0  0  0  0  # atno 10763 bound_to 10752
  153.8591  135.6855  153.4789 H   0  0  0  0  0  0  0  0  0  0  0  0  # atno 10764 bound_to 10752
  153.1508  135.4700  154.9573 H   0  0  0  0  0  0  0  0  0  0  0  0  # atno 10765 bound_to 10752
  141.0910  133.6633  156.3984 H   0  0  0  0  0  0  0  0  0  0  0  0  # atno 11005 bound_to 11000
  145.2510  141.0044  143.3881 LP  0  0  0  0  0  0  0  0  0  0  0  0  # atno 17320 bound_to 7965
  144.9374  139.4228  143.6465 LP  0  0  0  0  0  0  0  0  0  0  0  0  # atno 17321 bound_to 7965
  139.9773  143.5990  152.2954 LP  0  0  0  0  0  0  0  0  0  0  0  0  # atno 17342 bound_to 10162
  139.6598  144.7662  151.1985 LP  0  0  0  0  0  0  0  0  0  0  0  0  # atno 17343 bound_to 10162
  155.9846  130.3990  150.3301 LP  0  0  0  0  0  0  0  0  0  0  0  0  # atno 17370 bound_to 10713
  157.1438  131.0303  151.2916 LP  0  0  0  0  0  0  0  0  0  0  0  0  # atno 17371 bound_to 10713
  140.5252  134.6266  157.5331 LP  0  0  0  0  0  0  0  0  0  0  0  0  # atno 17394 bound_to 11000
  139.9736  134.7252  155.9993 LP  0  0  0  0  0  0  0  0  0  0  0  0  # atno 17395 bound_to 11000

$$$$
