AV-unprocessed.smi:278|AV-procd|sdf|2092|dock8
  -GOLD-   2262021373D 1   1.00000     0.00000
 Structure written by MMmdl.
 50 54  0  0  0  0  0  0  0  0  1 V2000
  153.6555  139.7375  158.3499 O   0  0  0  0  0  0  0  0  0  0  0  0
  152.2558  139.5053  157.9630 S   0  0  0  0  0  0  0  0  0  0  0  0
  151.5604  138.2721  158.3631 O   0  0  0  0  0  0  0  0  0  0  0  0
  151.2491  140.9522  158.4731 C   0  0  0  0  0  0  0  0  0  0  0  0
  151.0035  141.7754  157.2015 C   0  0  0  0  0  0  0  0  0  0  0  0
  151.0029  140.8343  155.9832 C   0  0  2  0  0  0  0  0  0  0  0  0
  149.7285  139.9947  155.8455 C   0  0  0  0  0  0  0  0  0  0  0  0
  150.1490  138.7723  155.1750 N   0  0  0  0  0  0  0  0  0  0  0  0
  149.3003  137.7198  155.0397 C   0  0  0  0  0  0  0  0  0  0  0  0
  147.9675  137.9611  154.9179 N   0  0  0  0  0  0  0  0  0  0  0  0
  147.1024  136.9510  154.7921 C   0  0  0  0  0  0  0  0  0  0  0  0
  147.3494  135.6409  154.7566 N   0  0  0  0  0  0  0  0  0  0  0  0
  148.6849  135.3893  154.8618 C   0  0  0  0  0  0  0  0  0  0  0  0
  149.7207  136.3574  155.0015 C   0  0  0  0  0  0  0  0  0  0  0  0
  150.9535  135.7156  155.0631 N   0  0  0  0  0  0  0  0  0  0  0  0
  150.6625  134.4463  154.9819 C   0  0  0  0  0  0  0  0  0  0  0  0
  149.3215  134.1615  154.8680 N   0  0  0  0  0  0  0  0  0  0  0  0
  148.7162  132.8454  154.7804 C   0  0  0  0  0  0  0  0  0  0  0  0
  148.2217  132.5021  153.3588 C   0  0  1  0  0  0  0  0  0  0  0  0
  148.4578  131.1236  153.1545 O   0  0  0  0  0  0  0  0  0  0  0  0
  146.7257  132.8030  153.1133 C   0  0  2  0  0  0  0  0  0  0  0  0
  146.1447  132.1616  151.8523 C   0  0  0  0  0  0  0  0  0  0  0  0
  144.9232  133.0159  151.5590 C   0  0  0  0  0  0  0  0  0  0  0  0
  145.2173  134.3346  152.2788 C   0  0  0  0  0  0  0  0  0  0  0  0
  146.5172  134.1796  152.8313 O   0  0  0  0  0  0  0  0  0  0  0  0
  151.5712  138.5413  155.3954 C   0  0  0  0  0  0  0  0  0  0  0  0
  152.0932  139.7746  156.1464 C   0  0  2  0  0  0  0  0  0  0  0  0
  151.1612  141.3923  155.0593 H   0  0  0  0  0  0  0  0  0  0  0  0
  153.0573  140.1154  155.7677 H   0  0  0  0  0  0  0  0  0  0  0  0
  150.3095  140.5797  158.8812 H   0  0  0  0  0  0  0  0  0  0  0  0
  151.7648  141.5151  159.2512 H   0  0  0  0  0  0  0  0  0  0  0  0
  150.0839  142.3576  157.2682 H   0  0  0  0  0  0  0  0  0  0  0  0
  151.8204  142.4887  157.0856 H   0  0  0  0  0  0  0  0  0  0  0  0
  149.3140  139.7472  156.8238 H   0  0  0  0  0  0  0  0  0  0  0  0
  148.9633  140.5209  155.2739 H   0  0  0  0  0  0  0  0  0  0  0  0
  146.0630  137.2328  154.7100 H   0  0  0  0  0  0  0  0  0  0  0  0
  151.4222  133.6788  155.0149 H   0  0  0  0  0  0  0  0  0  0  0  0
  149.4500  132.1105  155.1142 H   0  0  0  0  0  0  0  0  0  0  0  0
  147.8871  132.8019  155.4883 H   0  0  0  0  0  0  0  0  0  0  0  0
  148.8199  133.0465  152.6271 H   0  0  0  0  0  0  0  0  0  0  0  0
  148.4912  130.9602  152.2243 H   0  0  0  0  0  0  0  0  0  0  0  0
  146.1297  132.5195  153.9831 H   0  0  0  0  0  0  0  0  0  0  0  0
  146.8552  132.2438  151.0283 H   0  0  0  0  0  0  0  0  0  0  0  0
  145.9002  131.1074  151.9844 H   0  0  0  0  0  0  0  0  0  0  0  0
  144.7774  133.1531  150.4871 H   0  0  0  0  0  0  0  0  0  0  0  0
  144.0215  132.5570  151.9660 H   0  0  0  0  0  0  0  0  0  0  0  0
  145.1885  135.1924  151.6068 H   0  0  0  0  0  0  0  0  0  0  0  0
  144.4992  134.5059  153.0817 H   0  0  0  0  0  0  0  0  0  0  0  0
  151.7635  137.6175  155.9418 H   0  0  0  0  0  0  0  0  0  0  0  0
  152.0611  138.4601  154.4246 H   0  0  0  0  0  0  0  0  0  0  0  0
  1  2  2  0  0  0  0
  2 27  1  0  0  0  0
  2  3  2  0  0  0  0
  2  4  1  0  0  0  0
  4  5  1  0  0  0  0
  4 30  1  0  0  0  0
  4 31  1  0  0  0  0
  5  6  1  0  0  0  0
  5 32  1  0  0  0  0
  5 33  1  0  0  0  0
  6 28  1  0  0  0  0
  6 27  1  0  0  0  0
  6  7  1  0  0  0  0
  7  8  1  0  0  0  0
  7 34  1  0  0  0  0
  7 35  1  0  0  0  0
  8  9  1  0  0  0  0
  8 26  1  0  0  0  0
  9 14  1  0  0  0  0
  9 10  2  0  0  0  0
 10 11  1  0  0  0  0
 11 12  2  0  0  0  0
 11 36  1  0  0  0  0
 12 13  1  0  0  0  0
 13 17  1  0  0  0  0
 13 14  2  0  0  0  0
 14 15  1  0  0  0  0
 15 16  2  0  0  0  0
 16 17  1  0  0  0  0
 16 37  1  0  0  0  0
 17 18  1  0  0  0  0
 18 19  1  0  0  0  0
 18 38  1  0  0  0  0
 18 39  1  0  0  0  0
 19 20  1  0  0  0  0
 19 21  1  0  0  0  0
 19 40  1  0  0  0  0
 20 41  1  0  0  0  0
 21 25  1  0  0  0  0
 21 22  1  0  0  0  0
 21 42  1  0  0  0  0
 22 23  1  0  0  0  0
 22 43  1  0  0  0  0
 22 44  1  0  0  0  0
 23 24  1  0  0  0  0
 23 45  1  0  0  0  0
 23 46  1  0  0  0  0
 24 25  1  0  0  0  0
 24 47  1  0  0  0  0
 24 48  1  0  0  0  0
 26 27  1  0  0  0  0
 26 49  1  0  0  0  0
 26 50  1  0  0  0  0
 27 29  1  0  0  0  0
M  END
> <s_m_source_file>
AV-unprocessed.smi

> <i_m_source_file_index>
278

> <i_lp_mmshare_version>
43012

> <i_f3d_flags>
0

> <s_epik_input>
W0NIMl0xW0NIMl1TKD1PKSg9TylbQ0BASF0oW0NAQEhdMTIpW0NIMl1OKFtDSDJdMiljKG5bY0hdbjMpYyhjMzQpbltjSF1uNFtDSDJdW0NASF0oW09IXSlbQ0BASF01W0NIMl1bQ0gyXVtDSDJdTzU=

> <s_epik_cmdline>
J2VwaWtfcHl0aG9uJywgJy1waCcsICc3LjAnLCAnLXRuJywgJzgnLCAnLW1hJywgJzIwMCcsICctbWV0YWxfYmluZGluZycsICctaW1hZScsICc8aW5maWxlLm1hZT4nLCAnLW9tYWUnLCAnPG91dGZpbGUubWFlPic=

> <r_lp_tautomer_probability>
1

> <r_epik_Ionization_Penalty>
0.000636766

> <r_epik_Ionization_Penalty_Charging>
0

> <r_epik_Ionization_Penalty_Neutral>
0.000636766

> <r_epik_State_Penalty>
0.000329976

> <r_epik_Charging_Adjusted_Penalty>
0.000329976

> <i_epik_Tot_Q>
0

> <i_epik_Tot_abs_Q>
0

> <r_epik_Metal_State_Penalty>
-0

> <b_epik_Metal_Only>
0

> <s_lp_Force_Field>
OPLS_2005

> <r_lp_Energy>
49.0353

> <b_lp_Chiralities_Consistent>
1

> <s_lp_Variant>
AV-unprocessed.smi:278-6

> <Gold.Version>
5.8.1

> <Gold.Id.Protein>
6NUR|6NUR_protein|mol2

> <Gold.PLP.Fitness>
43.0960

> <Gold.PLP.PLP>
-36.1312

> <Gold.PLP.part.hbond>
-3.0000

> <Gold.PLP.part.metal>
0.0000

> <Gold.PLP.part.buried>
-2.3046

> <Gold.PLP.part.nonpolar>
-30.8614

> <Gold.PLP.part.repulsive>
1.2482

> <Gold.PLP.ligand.clash>
0.0000

> <Gold.PLP.ligand.torsion>
1.1695

> <Gold.PLP.Chemscore.Hbond>
3.0000

> <Gold.PLP.Chemscore.CHOScore>
0.0000

> <Gold.PLP.Chemscore.Metal>
0.0000

> <Gold.Chemscore.Hbonds>
donor molecule, donor type, donor heavy atom, donor atom, acceptor molecule, acceptor atom, score
      L1  H    20    41       P1 10747  1.00
      P1  H  7997  8009       L1     1  1.00
      P1  H 10752 10765       L1    15  0.89

> <Gold.PLP.Chemscore.Internal.Correction>
0.3038

> <Gold.Rescore>
     Score         DG    S(hbond)    S(metal)    S(lipo)     H(rot)  DE(clash)    DE(int)     intcor
     12.55     -17.16       2.50        0.00      75.08       2.13       0.52       4.10       ----

> <Gold.Chemscore.Fitness>
12.5455

> <Gold.Chemscore.DG>
-17.1619

> <Gold.Chemscore.ZeroCoef>
-5.4800

> <Gold.Chemscore.Hbond>
2.5038

> <Gold.Chemscore.Metal>
0.0000

> <Gold.Chemscore.Lipo>
75.0768

> <Gold.Chemscore.Internal_Hbond>
0.0000

> <Gold.Chemscore.DEClash>
0.5151

> <Gold.Chemscore.DEInternal>
4.1014

> <Gold.Chemscore.Rot>
2.1346

> <Gold.Chemscore.Internal.Correction>
   9.000000E+99

> <Gold.Chemscore.Hbonds>
donor molecule, donor type, donor heavy atom, donor atom, acceptor molecule, acceptor atom, score
      L1  H    20    41       P1 10747  0.91
      P1  H  7997  8009       L1     1  0.96
      P1  H 10752 10765       L1    15  0.16

> <Gold.Chemscore.Hbond.Weighted>
-8.3626

> <Gold.Chemscore.Metal.Weighted>
-0.0000

> <Gold.Chemscore.Lipo.Weighted>
-8.7840

> <Gold.Chemscore.Internal_Hbond.Weighted>
0.0000

> <Gold.Chemscore.DEClash.Weighted>
0.5151

> <Gold.Chemscore.DEInternal.Weighted>
4.1014

> <Gold.Chemscore.Rot.Weighted>
5.4646

> <Gold.Chemscore.Internal.Correction.Weighted>
   9.000000E+99

> <Gold.Protein.RotatedTorsions>
[ 6907 6896 6895 6894 ] final  -99.91 input  -60.11 | X-H torsion
[ 7974 7965 7964 7962 ] final -118.41 input  175.53 | X-H torsion
[ 8008 7997 7996 7995 ] final  132.96 input   59.86 | X-H torsion
[ 10167 10162 10161 10158 ] final -114.86 input  -65.29 | X-H torsion
[ 10718 10713 10712 10709 ] final -103.03 input   66.30 | X-H torsion
[ 10763 10752 10751 10750 ] final -178.81 input  -60.55 | X-H torsion
[ 11005 11000 10999 10996 ] final   36.30 input  -57.11 | X-H torsion

> <Gold.Protein.ActiveResidues>
 VAL166  LYS551  ARG553  GLY616  TRP617  ASP618  TYR619  PRO620  LYS621  CYS622 
 ASP623  PHE694  ASN695  SER759  ASP760  ASP761  ALA762  ILE779  LEU786  VAL792 
 PHE793  MET794  SER795  GLU796  ALA797  LYS798  CYS799  TRP800  GLU811  SER814 

> <Gold.Protein.RotatedAtoms>
  150.7096  134.0968  159.3951 H   0  0  0  0  0  0  0  0  0  0  0  0  # atno 6907 bound_to 6896
  151.8954  135.0397  160.0511 H   0  0  0  0  0  0  0  0  0  0  0  0  # atno 6908 bound_to 6896
  152.2457  133.5137  159.5333 H   0  0  0  0  0  0  0  0  0  0  0  0  # atno 6909 bound_to 6896
  145.0742  140.8380  143.4078 H   0  0  0  0  0  0  0  0  0  0  0  0  # atno 7974 bound_to 7965
  156.2988  140.2533  156.3174 H   0  0  0  0  0  0  0  0  0  0  0  0  # atno 8008 bound_to 7997
  154.9267  140.0399  157.2046 H   0  0  0  0  0  0  0  0  0  0  0  0  # atno 8009 bound_to 7997
  154.8257  140.2867  155.5760 H   0  0  0  0  0  0  0  0  0  0  0  0  # atno 8010 bound_to 7997
  140.0964  143.4653  152.1839 H   0  0  0  0  0  0  0  0  0  0  0  0  # atno 10167 bound_to 10162
  156.0250  130.5448  150.7194 H   0  0  0  0  0  0  0  0  0  0  0  0  # atno 10718 bound_to 10713
  154.5429  135.2807  155.1079 H   0  0  0  0  0  0  0  0  0  0  0  0  # atno 10763 bound_to 10752
  154.2554  135.6331  153.5259 H   0  0  0  0  0  0  0  0  0  0  0  0  # atno 10764 bound_to 10752
  152.9983  135.5593  154.5974 H   0  0  0  0  0  0  0  0  0  0  0  0  # atno 10765 bound_to 10752
  140.2339  134.3494  155.7952 H   0  0  0  0  0  0  0  0  0  0  0  0  # atno 11005 bound_to 11000
  145.1256  139.2665  143.5566 LP  0  0  0  0  0  0  0  0  0  0  0  0  # atno 17320 bound_to 7965
  146.3529  140.0893  142.8613 LP  0  0  0  0  0  0  0  0  0  0  0  0  # atno 17321 bound_to 7965
  139.5696  144.7455  151.3928 LP  0  0  0  0  0  0  0  0  0  0  0  0  # atno 17342 bound_to 10162
  140.7001  143.7652  150.7390 LP  0  0  0  0  0  0  0  0  0  0  0  0  # atno 17343 bound_to 10162
  157.4813  131.0902  151.0533 LP  0  0  0  0  0  0  0  0  0  0  0  0  # atno 17370 bound_to 10713
  157.0965  130.5964  149.5451 LP  0  0  0  0  0  0  0  0  0  0  0  0  # atno 17371 bound_to 10713
  141.2216  133.7261  156.8777 LP  0  0  0  0  0  0  0  0  0  0  0  0  # atno 17394 bound_to 11000
  140.1722  134.9092  157.2847 LP  0  0  0  0  0  0  0  0  0  0  0  0  # atno 17395 bound_to 11000

$$$$
