AV-unprocessed.smi:3215|AV-procd|sdf|12286|dock8
  -GOLD-   2272018123D 1   1.00000     0.00000
 Structure written by MMmdl.
 37 38  0  0  0  0  0  0  0  0  1 V2000
  145.8570  143.2618  155.5979 C   0  0  0  0  0  0  0  0  0  0  0  0
  146.8086  142.1330  155.3247 C   0  0  0  0  0  0  0  0  0  0  0  0
  146.5689  140.9535  154.5637 C   0  0  0  0  0  0  0  0  0  0  0  0
  147.6194  140.1507  154.5139 N   0  0  0  0  0  0  0  0  0  0  0  0
  148.5637  140.7864  155.2396 N   0  0  0  0  0  0  0  0  0  0  0  0
  149.8735  140.1858  155.4026 C   0  0  0  0  0  0  0  0  0  0  0  0
  150.8180  141.0945  156.2026 C   0  0  0  0  0  0  0  0  0  0  0  0
  151.9801  140.3309  156.6302 N   0  0  0  0  0  0  0  0  0  0  0  0
  151.7433  139.7193  157.9441 C   0  0  0  0  0  0  0  0  0  0  0  0
  152.6769  140.2587  159.0405 C   0  0  0  0  0  0  0  0  0  0  0  0
  153.4730  139.5016  159.5991 O   0  0  0  0  0  0  0  0  0  0  0  0
  152.5876  141.5659  159.3635 N   0  0  0  0  0  0  0  0  0  0  0  0
  151.6672  142.4976  158.7146 C   0  0  0  0  0  0  0  0  0  0  0  0
  152.0951  143.8906  159.1766 C   0  0  0  0  0  0  0  0  0  0  0  0
  152.7733  143.6456  160.5173 C   0  0  0  0  0  0  0  0  0  0  0  0
  153.3862  142.2514  160.3796 C   0  0  0  0  0  0  0  0  0  0  0  0
  148.1015  141.9845  155.7412 C   0  0  0  0  0  0  0  0  0  0  0  0
  145.2222  143.4715  154.7369 H   0  0  0  0  0  0  0  0  0  0  0  0
  146.3825  144.1859  155.8404 H   0  0  0  0  0  0  0  0  0  0  0  0
  145.1980  143.0366  156.4366 H   0  0  0  0  0  0  0  0  0  0  0  0
  145.6666  140.6586  154.0482 H   0  0  0  0  0  0  0  0  0  0  0  0
  149.7515  139.2251  155.9051 H   0  0  0  0  0  0  0  0  0  0  0  0
  150.2859  139.9763  154.4141 H   0  0  0  0  0  0  0  0  0  0  0  0
  151.1345  141.9406  155.5906 H   0  0  0  0  0  0  0  0  0  0  0  0
  150.2989  141.4948  157.0749 H   0  0  0  0  0  0  0  0  0  0  0  0
  152.1958  139.6319  155.9338 H   0  0  0  0  0  0  0  0  0  0  0  0
  150.7107  139.9039  158.2437 H   0  0  0  0  0  0  0  0  0  0  0  0
  151.8774  138.6392  157.8676 H   0  0  0  0  0  0  0  0  0  0  0  0
  151.6953  142.4154  157.6269 H   0  0  0  0  0  0  0  0  0  0  0  0
  150.6507  142.2791  159.0451 H   0  0  0  0  0  0  0  0  0  0  0  0
  152.8193  144.3035  158.4729 H   0  0  0  0  0  0  0  0  0  0  0  0
  151.2602  144.5886  159.2447 H   0  0  0  0  0  0  0  0  0  0  0  0
  153.5115  144.4092  160.7641 H   0  0  0  0  0  0  0  0  0  0  0  0
  152.0228  143.6389  161.3088 H   0  0  0  0  0  0  0  0  0  0  0  0
  153.3802  141.7279  161.3364 H   0  0  0  0  0  0  0  0  0  0  0  0
  154.4187  142.3220  160.0346 H   0  0  0  0  0  0  0  0  0  0  0  0
  148.7248  142.6266  156.3460 H   0  0  0  0  0  0  0  0  0  0  0  0
  1  2  1  0  0  0  0
  1 18  1  0  0  0  0
  1 19  1  0  0  0  0
  1 20  1  0  0  0  0
  2 17  2  0  0  0  0
  2  3  1  0  0  0  0
  3  4  2  0  0  0  0
  3 21  1  0  0  0  0
  4  5  1  0  0  0  0
  5  6  1  0  0  0  0
  5 17  1  0  0  0  0
  6  7  1  0  0  0  0
  6 22  1  0  0  0  0
  6 23  1  0  0  0  0
  7  8  1  0  0  0  0
  7 24  1  0  0  0  0
  7 25  1  0  0  0  0
  8  9  1  0  0  0  0
  8 26  1  0  0  0  0
  9 10  1  0  0  0  0
  9 27  1  0  0  0  0
  9 28  1  0  0  0  0
 10 11  2  0  0  0  0
 10 12  1  0  0  0  0
 12 16  1  0  0  0  0
 12 13  1  0  0  0  0
 13 14  1  0  0  0  0
 13 29  1  0  0  0  0
 13 30  1  0  0  0  0
 14 15  1  0  0  0  0
 14 31  1  0  0  0  0
 14 32  1  0  0  0  0
 15 16  1  0  0  0  0
 15 33  1  0  0  0  0
 15 34  1  0  0  0  0
 16 35  1  0  0  0  0
 16 36  1  0  0  0  0
 17 37  1  0  0  0  0
M  END
> <s_m_source_file>
AV-unprocessed.smi

> <i_m_source_file_index>
3215

> <i_lp_mmshare_version>
43012

> <i_f3d_flags>
0

> <s_epik_input>
W0NIM11jMVtjSF1ubihbY0hdMSlbQ0gyXVtDSDJdW05IXVtDSDJdQyg9TylOMltDSDJdW0NIMl1bQ0gyXVtDSDJdMg==

> <s_epik_cmdline>
J2VwaWtfcHl0aG9uJywgJy1waCcsICc3LjAnLCAnLXRuJywgJzgnLCAnLW1hJywgJzIwMCcsICctbWV0YWxfYmluZGluZycsICctaW1hZScsICc8aW5maWxlLm1hZT4nLCAnLW9tYWUnLCAnPG91dGZpbGUubWFlPic=

> <r_lp_tautomer_probability>
1

> <r_epik_Ionization_Penalty>
0.736363

> <r_epik_Ionization_Penalty_Charging>
0

> <r_epik_Ionization_Penalty_Neutral>
0.736363

> <r_epik_State_Penalty>
0.758951

> <r_epik_Charging_Adjusted_Penalty>
0.758951

> <i_epik_Tot_Q>
0

> <i_epik_Tot_abs_Q>
0

> <r_epik_Metal_State_Penalty>
0.755698

> <b_epik_Metal_Only>
0

> <s_lp_Force_Field>
OPLS_2005

> <r_lp_Energy>
29.5089

> <b_lp_Chiralities_Consistent>
1

> <s_lp_Variant>
AV-unprocessed.smi:3215-2

> <Gold.Version>
5.8.1

> <Gold.Id.Protein>
6NUR|6NUR_protein|mol2

> <Gold.PLP.Fitness>
46.4428

> <Gold.PLP.PLP>
-41.6760

> <Gold.PLP.part.hbond>
-0.1000

> <Gold.PLP.part.metal>
0.0000

> <Gold.PLP.part.buried>
-4.1693

> <Gold.PLP.part.nonpolar>
-37.6669

> <Gold.PLP.part.repulsive>
0.1760

> <Gold.PLP.ligand.clash>
0.0004

> <Gold.PLP.ligand.torsion>
0.6264

> <Gold.PLP.Chemscore.Hbond>
0.0000

> <Gold.PLP.Chemscore.CHOScore>
2.0000

> <Gold.PLP.Chemscore.Metal>
0.0000

> <Gold.Chemscore.Hbonds>
donor molecule, donor type, donor heavy atom, donor atom, acceptor molecule, acceptor atom, score
      L1  C     3    21       P1 10175  0.99
      L1  C    17    37       P1  8028  0.70

> <Gold.PLP.Chemscore.Internal.Correction>
0.0200

> <Gold.Rescore>
     Score         DG    S(hbond)    S(metal)    S(lipo)     H(rot)  DE(clash)    DE(int)     intcor
     11.20     -11.94       0.00        0.00      93.35       1.74       0.07       0.67       ----

> <Gold.Chemscore.Fitness>
11.1959

> <Gold.Chemscore.DG>
-11.9366

> <Gold.Chemscore.ZeroCoef>
-5.4800

> <Gold.Chemscore.Hbond>
0.0000

> <Gold.Chemscore.Metal>
0.0000

> <Gold.Chemscore.Lipo>
93.3531

> <Gold.Chemscore.Internal_Hbond>
0.0000

> <Gold.Chemscore.DEClash>
0.0710

> <Gold.Chemscore.DEInternal>
0.6697

> <Gold.Chemscore.Rot>
1.7444

> <Gold.Chemscore.Internal.Correction>
   9.000000E+99

> <Gold.Chemscore.Hbond.Weighted>
-0.0000

> <Gold.Chemscore.Metal.Weighted>
-0.0000

> <Gold.Chemscore.Lipo.Weighted>
-10.9223

> <Gold.Chemscore.Internal_Hbond.Weighted>
0.0000

> <Gold.Chemscore.DEClash.Weighted>
0.0710

> <Gold.Chemscore.DEInternal.Weighted>
0.6697

> <Gold.Chemscore.Rot.Weighted>
4.4657

> <Gold.Chemscore.Internal.Correction.Weighted>
   9.000000E+99

> <Gold.Protein.RotatedTorsions>
[ 6907 6896 6895 6894 ] final  -98.14 input  -60.11 | X-H torsion
[ 7974 7965 7964 7962 ] final -154.13 input  175.53 | X-H torsion
[ 8008 7997 7996 7995 ] final  -62.55 input   59.86 | X-H torsion
[ 10167 10162 10161 10158 ] final -114.06 input  -65.29 | X-H torsion
[ 10718 10713 10712 10709 ] final   79.26 input   66.30 | X-H torsion
[ 10763 10752 10751 10750 ] final  148.80 input  -60.55 | X-H torsion
[ 11005 11000 10999 10996 ] final -156.55 input  -57.11 | X-H torsion

> <Gold.Protein.ActiveResidues>
 VAL166  LYS551  ARG553  GLY616  TRP617  ASP618  TYR619  PRO620  LYS621  CYS622 
 ASP623  PHE694  ASN695  SER759  ASP760  ASP761  ALA762  ILE779  LEU786  VAL792 
 PHE793  MET794  SER795  GLU796  ALA797  LYS798  CYS799  TRP800  GLU811  SER814 

> <Gold.Protein.RotatedAtoms>
  150.7037  134.1241  159.4045 H   0  0  0  0  0  0  0  0  0  0  0  0  # atno 6907 bound_to 6896
  151.9227  135.0289  160.0532 H   0  0  0  0  0  0  0  0  0  0  0  0  # atno 6908 bound_to 6896
  152.2243  133.4972  159.5216 H   0  0  0  0  0  0  0  0  0  0  0  0  # atno 6909 bound_to 6896
  144.7705  140.4430  143.5911 H   0  0  0  0  0  0  0  0  0  0  0  0  # atno 7974 bound_to 7965
  154.4506  140.0993  156.6605 H   0  0  0  0  0  0  0  0  0  0  0  0  # atno 8008 bound_to 7997
  155.5299  140.3481  155.4405 H   0  0  0  0  0  0  0  0  0  0  0  0  # atno 8009 bound_to 7997
  156.0672  140.1340  156.9861 H   0  0  0  0  0  0  0  0  0  0  0  0  # atno 8010 bound_to 7997
  140.1051  143.4578  152.1788 H   0  0  0  0  0  0  0  0  0  0  0  0  # atno 10167 bound_to 10162
  157.6771  130.9906  150.1907 H   0  0  0  0  0  0  0  0  0  0  0  0  # atno 10718 bound_to 10713
  154.0608  135.2874  155.3325 H   0  0  0  0  0  0  0  0  0  0  0  0  # atno 10763 bound_to 10752
  154.6810  135.5263  153.8266 H   0  0  0  0  0  0  0  0  0  0  0  0  # atno 10764 bound_to 10752
  153.0523  135.6581  154.0796 H   0  0  0  0  0  0  0  0  0  0  0  0  # atno 10765 bound_to 10752
  140.6744  134.4213  157.5230 H   0  0  0  0  0  0  0  0  0  0  0  0  # atno 11005 bound_to 11000
  145.6339  139.1540  143.2953 LP  0  0  0  0  0  0  0  0  0  0  0  0  # atno 17320 bound_to 7965
  146.1847  140.6441  142.9173 LP  0  0  0  0  0  0  0  0  0  0  0  0  # atno 17321 bound_to 7965
  139.5650  144.7429  151.4048 LP  0  0  0  0  0  0  0  0  0  0  0  0  # atno 17342 bound_to 10162
  140.6957  143.7755  150.7322 LP  0  0  0  0  0  0  0  0  0  0  0  0  # atno 17343 bound_to 10162
  156.2619  130.3712  149.8121 LP  0  0  0  0  0  0  0  0  0  0  0  0  # atno 17370 bound_to 10713
  156.5864  130.8487  151.3396 LP  0  0  0  0  0  0  0  0  0  0  0  0  # atno 17371 bound_to 10713
  139.8971  134.8643  156.2057 LP  0  0  0  0  0  0  0  0  0  0  0  0  # atno 17394 bound_to 11000
  141.0367  133.6959  156.1525 LP  0  0  0  0  0  0  0  0  0  0  0  0  # atno 17395 bound_to 11000

$$$$
