AV-unprocessed.smi:669|AV-procd|sdf|3263|dock2
  -GOLD-   22720 0213D 1   1.00000     0.00000
 Structure written by MMmdl.
 37 38  0  0  0  0  0  0  0  0  1 V2000
  153.7385  141.5615  161.4987 C   0  0  0  0  0  0  0  0  0  0  0  0
  152.9068  142.5897  160.7914 C   0  0  0  0  0  0  0  0  0  0  0  0
  152.4438  143.8060  161.4300 C   0  0  0  0  0  0  0  0  0  0  0  0
  151.7205  144.6933  160.7146 C   0  0  0  0  0  0  0  0  0  0  0  0
  151.3826  144.4577  159.3124 C   0  0  0  0  0  0  0  0  0  0  0  0
  150.7620  145.2697  158.6272 O   0  0  0  0  0  0  0  0  0  0  0  0
  151.8271  143.2579  158.8331 N   0  0  0  0  0  0  0  0  0  0  0  0
  151.5559  142.8386  157.4478 C   0  0  0  0  0  0  0  0  0  0  0  0
  151.0056  141.3869  157.2980 C   0  0  1  0  0  0  0  0  0  0  0  0
  151.8814  140.5304  158.0055 O   0  0  0  0  0  0  0  0  0  0  0  0
  149.6383  141.2314  158.0066 C   0  0  0  0  0  0  0  0  0  0  0  0
  148.4768  141.8716  157.2241 C   0  0  0  0  0  0  0  0  0  0  0  0
  148.3986  141.3352  155.7830 C   0  0  1  0  0  0  0  0  0  0  0  0
  147.2479  141.9865  155.0032 C   0  0  0  0  0  0  0  0  0  0  0  0
  149.7474  141.5266  155.0657 C   0  0  0  0  0  0  0  0  0  0  0  0
  150.8970  140.8628  155.8442 C   0  0  0  0  0  0  0  0  0  0  0  0
  152.5994  142.3632  159.5569 N   0  0  0  0  0  0  0  0  0  0  0  0
  154.0219  141.9008  162.4953 H   0  0  0  0  0  0  0  0  0  0  0  0
  154.6544  141.3533  160.9447 H   0  0  0  0  0  0  0  0  0  0  0  0
  153.1883  140.6264  161.6066 H   0  0  0  0  0  0  0  0  0  0  0  0
  152.6841  143.9951  162.4658 H   0  0  0  0  0  0  0  0  0  0  0  0
  151.3793  145.6011  161.1899 H   0  0  0  0  0  0  0  0  0  0  0  0
  150.8869  143.5488  156.9582 H   0  0  0  0  0  0  0  0  0  0  0  0
  152.4894  142.9279  156.8913 H   0  0  0  0  0  0  0  0  0  0  0  0
  152.0887  140.9308  158.8357 H   0  0  0  0  0  0  0  0  0  0  0  0
  149.4119  140.1715  158.1348 H   0  0  0  0  0  0  0  0  0  0  0  0
  149.6825  141.6519  159.0122 H   0  0  0  0  0  0  0  0  0  0  0  0
  147.5394  141.6691  157.7435 H   0  0  0  0  0  0  0  0  0  0  0  0
  148.5836  142.9562  157.2111 H   0  0  0  0  0  0  0  0  0  0  0  0
  148.1947  140.2646  155.8338 H   0  0  0  0  0  0  0  0  0  0  0  0
  147.3873  143.0644  154.9164 H   0  0  0  0  0  0  0  0  0  0  0  0
  146.2918  141.8127  155.4980 H   0  0  0  0  0  0  0  0  0  0  0  0
  147.1752  141.5770  153.9953 H   0  0  0  0  0  0  0  0  0  0  0  0
  149.6975  141.1013  154.0627 H   0  0  0  0  0  0  0  0  0  0  0  0
  149.9470  142.5900  154.9358 H   0  0  0  0  0  0  0  0  0  0  0  0
  151.8376  140.9852  155.3070 H   0  0  0  0  0  0  0  0  0  0  0  0
  150.7139  139.7872  155.8630 H   0  0  0  0  0  0  0  0  0  0  0  0
  1  2  1  0  0  0  0
  1 18  1  0  0  0  0
  1 19  1  0  0  0  0
  1 20  1  0  0  0  0
  2 17  2  0  0  0  0
  2  3  1  0  0  0  0
  3  4  2  0  0  0  0
  3 21  1  0  0  0  0
  4  5  1  0  0  0  0
  4 22  1  0  0  0  0
  5  6  2  0  0  0  0
  5  7  1  0  0  0  0
  7  8  1  0  0  0  0
  7 17  1  0  0  0  0
  8  9  1  0  0  0  0
  8 23  1  0  0  0  0
  8 24  1  0  0  0  0
  9 16  1  0  0  0  0
  9 10  1  0  0  0  0
  9 11  1  0  0  0  0
 10 25  1  0  0  0  0
 11 12  1  0  0  0  0
 11 26  1  0  0  0  0
 11 27  1  0  0  0  0
 12 13  1  0  0  0  0
 12 28  1  0  0  0  0
 12 29  1  0  0  0  0
 13 14  1  0  0  0  0
 13 15  1  0  0  0  0
 13 30  1  0  0  0  0
 14 31  1  0  0  0  0
 14 32  1  0  0  0  0
 14 33  1  0  0  0  0
 15 16  1  0  0  0  0
 15 34  1  0  0  0  0
 15 35  1  0  0  0  0
 16 36  1  0  0  0  0
 16 37  1  0  0  0  0
M  END
> <s_m_source_file>
AV-unprocessed.smi

> <i_m_source_file_index>
669

> <i_lp_mmshare_version>
43012

> <i_f3d_flags>
0

> <s_epik_input>
W0NIM11jMVtjSF1bY0hdYyg9TyluKG4xKVtDSDJdW0NAQF0yKFtPSF0pW0NIMl1bQ0gyXVtDQEBIXShbQ0gzXSlbQ0gyXVtDSDJdMg==

> <s_epik_cmdline>
J2VwaWtfcHl0aG9uJywgJy1waCcsICc3LjAnLCAnLXRuJywgJzgnLCAnLW1hJywgJzIwMCcsICctbWV0YWxfYmluZGluZycsICctaW1hZScsICc8aW5maWxlLm1hZT4nLCAnLW9tYWUnLCAnPG91dGZpbGUubWFlPic=

> <r_lp_tautomer_probability>
1

> <r_epik_Ionization_Penalty>
1.6993e-05

> <r_epik_Ionization_Penalty_Charging>
1.61671e-05

> <r_epik_Ionization_Penalty_Neutral>
8.25878e-07

> <r_epik_State_Penalty>
-0

> <r_epik_Charging_Adjusted_Penalty>
1.61671e-05

> <i_epik_Tot_Q>
0

> <i_epik_Tot_abs_Q>
0

> <r_epik_Metal_State_Penalty>
-0

> <b_epik_Metal_Only>
0

> <s_lp_Force_Field>
OPLS_2005

> <r_lp_Energy>
31.4403

> <b_lp_Chiralities_Consistent>
1

> <s_lp_Variant>
AV-unprocessed.smi:669-1

> <Gold.Version>
5.8.1

> <Gold.Id.Protein>
6NUR|6NUR_protein|mol2

> <Gold.PLP.Fitness>
38.0566

> <Gold.PLP.PLP>
-38.3198

> <Gold.PLP.part.hbond>
-0.2463

> <Gold.PLP.part.metal>
0.0000

> <Gold.PLP.part.buried>
-4.7750

> <Gold.PLP.part.nonpolar>
-32.8172

> <Gold.PLP.part.repulsive>
0.1770

> <Gold.PLP.ligand.clash>
0.0000

> <Gold.PLP.ligand.torsion>
0.1400

> <Gold.PLP.Chemscore.Hbond>
0.0000

> <Gold.PLP.Chemscore.CHOScore>
0.0000

> <Gold.PLP.Chemscore.Metal>
0.0000

> <Gold.PLP.Chemscore.Internal.Correction>
0.0167

> <Gold.Rescore>
     Score         DG    S(hbond)    S(metal)    S(lipo)     H(rot)  DE(clash)    DE(int)     intcor
     10.49     -12.41       0.00        0.00      94.61       1.62       0.15       1.76       ----

> <Gold.Chemscore.Fitness>
10.4936

> <Gold.Chemscore.DG>
-12.4102

> <Gold.Chemscore.ZeroCoef>
-5.4800

> <Gold.Chemscore.Hbond>
0.0000

> <Gold.Chemscore.Metal>
0.0000

> <Gold.Chemscore.Lipo>
94.6100

> <Gold.Chemscore.Internal_Hbond>
0.0000

> <Gold.Chemscore.DEClash>
0.1524

> <Gold.Chemscore.DEInternal>
1.7642

> <Gold.Chemscore.Rot>
1.6168

> <Gold.Chemscore.Internal.Correction>
   9.000000E+99

> <Gold.Chemscore.Hbond.Weighted>
-0.0000

> <Gold.Chemscore.Metal.Weighted>
-0.0000

> <Gold.Chemscore.Lipo.Weighted>
-11.0694

> <Gold.Chemscore.Internal_Hbond.Weighted>
0.0000

> <Gold.Chemscore.DEClash.Weighted>
0.1524

> <Gold.Chemscore.DEInternal.Weighted>
1.7642

> <Gold.Chemscore.Rot.Weighted>
4.1391

> <Gold.Chemscore.Internal.Correction.Weighted>
   9.000000E+99

> <Gold.Protein.RotatedTorsions>
[ 6907 6896 6895 6894 ] final -100.28 input  -60.11 | X-H torsion
[ 7974 7965 7964 7962 ] final -128.41 input  175.53 | X-H torsion
[ 8008 7997 7996 7995 ] final  -68.80 input   59.86 | X-H torsion
[ 10167 10162 10161 10158 ] final  116.10 input  -65.29 | X-H torsion
[ 10718 10713 10712 10709 ] final  107.52 input   66.30 | X-H torsion
[ 10763 10752 10751 10750 ] final -118.38 input  -60.55 | X-H torsion
[ 11005 11000 10999 10996 ] final -128.54 input  -57.11 | X-H torsion

> <Gold.Protein.ActiveResidues>
 VAL166  LYS551  ARG553  GLY616  TRP617  ASP618  TYR619  PRO620  LYS621  CYS622 
 ASP623  PHE694  ASN695  SER759  ASP760  ASP761  ALA762  ILE779  LEU786  VAL792 
 PHE793  MET794  SER795  GLU796  ALA797  LYS798  CYS799  TRP800  GLU811  SER814 

> <Gold.Protein.RotatedAtoms>
  150.7110  134.0911  159.3931 H   0  0  0  0  0  0  0  0  0  0  0  0  # atno 6907 bound_to 6896
  151.8897  135.0419  160.0506 H   0  0  0  0  0  0  0  0  0  0  0  0  # atno 6908 bound_to 6896
  152.2501  133.5173  159.5357 H   0  0  0  0  0  0  0  0  0  0  0  0  # atno 6909 bound_to 6896
  144.9673  140.7509  143.4692 H   0  0  0  0  0  0  0  0  0  0  0  0  # atno 7974 bound_to 7965
  154.4893  140.0866  156.7559 H   0  0  0  0  0  0  0  0  0  0  0  0  # atno 8008 bound_to 7997
  155.4270  140.3448  155.4258 H   0  0  0  0  0  0  0  0  0  0  0  0  # atno 8009 bound_to 7997
  156.1307  140.1500  156.9057 H   0  0  0  0  0  0  0  0  0  0  0  0  # atno 8010 bound_to 7997
  139.6270  144.7110  151.2512 H   0  0  0  0  0  0  0  0  0  0  0  0  # atno 10167 bound_to 10162
  157.6625  131.0874  150.6169 H   0  0  0  0  0  0  0  0  0  0  0  0  # atno 10718 bound_to 10713
  154.8585  135.4276  154.2129 H   0  0  0  0  0  0  0  0  0  0  0  0  # atno 10763 bound_to 10752
  153.3151  135.6978  153.7086 H   0  0  0  0  0  0  0  0  0  0  0  0  # atno 10764 bound_to 10752
  153.6164  135.3510  155.2970 H   0  0  0  0  0  0  0  0  0  0  0  0  # atno 10765 bound_to 10752
  140.9507  134.1069  157.4064 H   0  0  0  0  0  0  0  0  0  0  0  0  # atno 11005 bound_to 11000
  145.2610  139.1992  143.4892 LP  0  0  0  0  0  0  0  0  0  0  0  0  # atno 17320 bound_to 7965
  146.3371  140.2541  142.8599 LP  0  0  0  0  0  0  0  0  0  0  0  0  # atno 17321 bound_to 7965
  140.7417  143.6549  150.8215 LP  0  0  0  0  0  0  0  0  0  0  0  0  # atno 17342 bound_to 10162
  140.0168  143.5584  152.2816 LP  0  0  0  0  0  0  0  0  0  0  0  0  # atno 17343 bound_to 10162
  156.6471  130.4474  149.5732 LP  0  0  0  0  0  0  0  0  0  0  0  0  # atno 17370 bound_to 10713
  156.2166  130.6711  151.1325 LP  0  0  0  0  0  0  0  0  0  0  0  0  # atno 17371 bound_to 10713
  139.8847  135.0065  156.6384 LP  0  0  0  0  0  0  0  0  0  0  0  0  # atno 17394 bound_to 11000
  140.7606  133.8821  155.8415 LP  0  0  0  0  0  0  0  0  0  0  0  0  # atno 17395 bound_to 11000

$$$$
