AV-unprocessed.smi:2673|AV-procd|sdf|10355|dock6
  -GOLD-   2272014383D 1   1.00000     0.00000
 Structure written by MMmdl.
 31 32  0  0  0  0  0  0  0  0  2 V2000
  151.3207  136.9248  158.4127 O   0  0  0  0  0  0  0  0  0  0  0  0
  150.1861  136.6329  158.0299 C   0  0  0  0  0  0  0  0  0  0  0  0
  149.3573  135.7385  158.6153 N   0  5  0  0  0  0  0  0  0  0  0  0
  148.3354  136.1662  159.3751 C   0  0  0  0  0  0  0  0  0  0  0  0
  147.7779  137.3774  159.2157 N   0  0  0  0  0  0  0  0  0  0  0  0
  146.7393  137.6215  160.1040 N   0  0  0  0  0  0  0  0  0  0  0  0
  146.5454  136.5864  160.9208 C   0  0  0  0  0  0  0  0  0  0  0  0
  147.6140  135.2206  160.6803 S   0  0  0  0  0  0  0  0  0  0  0  0
  149.6525  137.2162  156.9423 N   0  0  0  0  0  0  0  0  0  0  0  0
  150.1960  138.2374  156.0276 C   0  0  0  0  0  0  0  0  0  0  0  0
  151.1333  137.4523  155.0601 C   0  0  0  0  0  0  0  0  0  0  0  0
  151.6934  138.2284  154.1346 F   0  0  0  0  0  0  0  0  0  0  0  0
  152.1164  136.8642  155.7445 F   0  0  0  0  0  0  0  0  0  0  0  0
  150.4489  136.4969  154.4277 F   0  0  0  0  0  0  0  0  0  0  0  0
  149.0279  138.9176  155.2468 C   0  0  0  0  0  0  0  0  0  0  0  0
  149.4358  140.1818  154.4698 C   0  0  0  0  0  0  0  0  0  0  0  0
  150.1513  141.1909  155.3769 C   0  0  0  0  0  0  0  0  0  0  0  0
  151.3778  140.5589  156.0469 C   0  0  0  0  0  0  0  0  0  0  0  0
  150.9968  139.2989  156.8446 C   0  0  0  0  0  0  0  0  0  0  0  0
  145.7699  136.6279  161.6709 H   0  0  0  0  0  0  0  0  0  0  0  0
  148.7198  136.9063  156.7114 H   0  0  0  0  0  0  0  0  0  0  0  0
  148.5597  138.2048  154.5678 H   0  0  0  0  0  0  0  0  0  0  0  0
  148.2378  139.2215  155.9313 H   0  0  0  0  0  0  0  0  0  0  0  0
  150.0726  139.9238  153.6247 H   0  0  0  0  0  0  0  0  0  0  0  0
  148.5474  140.6450  154.0400 H   0  0  0  0  0  0  0  0  0  0  0  0
  150.4521  142.0641  154.7975 H   0  0  0  0  0  0  0  0  0  0  0  0
  149.4608  141.5489  156.1417 H   0  0  0  0  0  0  0  0  0  0  0  0
  152.1324  140.3252  155.2970 H   0  0  0  0  0  0  0  0  0  0  0  0
  151.8412  141.2843  156.7162 H   0  0  0  0  0  0  0  0  0  0  0  0
  150.4139  139.6403  157.6984 H   0  0  0  0  0  0  0  0  0  0  0  0
  151.8941  138.8506  157.2716 H   0  0  0  0  0  0  0  0  0  0  0  0
  1  2  2  0  0  0  0
  2  3  1  0  0  0  0
  2  9  1  0  0  0  0
  3  4  1  0  0  0  0
  4  8  1  0  0  0  0
  4  5  2  0  0  0  0
  5  6  1  0  0  0  0
  6  7  2  0  0  0  0
  7  8  1  0  0  0  0
  7 20  1  0  0  0  0
  9 10  1  0  0  0  0
  9 21  1  0  0  0  0
 10 19  1  0  0  0  0
 10 11  1  0  0  0  0
 10 15  1  0  0  0  0
 11 12  1  0  0  0  0
 11 13  1  0  0  0  0
 11 14  1  0  0  0  0
 15 16  1  0  0  0  0
 15 22  1  0  0  0  0
 15 23  1  0  0  0  0
 16 17  1  0  0  0  0
 16 24  1  0  0  0  0
 16 25  1  0  0  0  0
 17 18  1  0  0  0  0
 17 26  1  0  0  0  0
 17 27  1  0  0  0  0
 18 19  1  0  0  0  0
 18 28  1  0  0  0  0
 18 29  1  0  0  0  0
 19 30  1  0  0  0  0
 19 31  1  0  0  0  0
M  CHG  1   3  -1
M  END
> <s_m_source_file>
AV-unprocessed.smi

> <i_m_source_file_index>
2673

> <i_lp_mmshare_version>
43012

> <i_f3d_flags>
0

> <s_epik_input>
czFbY0hdbm5jMVtOSF1DKD1PKVtOSF1DMihDKEYpKEYpRilbQ0gyXVtDSDJdW0NIMl1bQ0gyXVtDSDJdMg==

> <s_epik_cmdline>
J2VwaWtfcHl0aG9uJywgJy1waCcsICc3LjAnLCAnLXRuJywgJzgnLCAnLW1hJywgJzIwMCcsICctbWV0YWxfYmluZGluZycsICctaW1hZScsICc8aW5maWxlLm1hZT4nLCAnLW9tYWUnLCAnPG91dGZpbGUubWFlPic=

> <r_epik_Ionization_Penalty>
0.0924979

> <r_epik_Ionization_Penalty_Charging>
0.057676

> <r_epik_Ionization_Penalty_Neutral>
0.0348219

> <r_epik_State_Penalty>
0.0765232

> <r_epik_Charging_Adjusted_Penalty>
0.134199

> <i_epik_Tot_Q>
-1

> <i_epik_Tot_abs_Q>
1

> <r_epik_Metal_State_Penalty>
0.0698334

> <b_epik_Metal_Only>
0

> <s_lp_Force_Field>
OPLS_2005

> <r_lp_Energy>
15.8773

> <b_lp_Chiralities_Consistent>
1

> <s_lp_Variant>
AV-unprocessed.smi:2673-1

> <Gold.Version>
5.8.1

> <Gold.Id.Protein>
6NUR|6NUR_protein|mol2

> <Gold.PLP.Fitness>
34.3372

> <Gold.PLP.PLP>
-28.0513

> <Gold.PLP.part.hbond>
-2.8904

> <Gold.PLP.part.metal>
0.0000

> <Gold.PLP.part.buried>
-3.0816

> <Gold.PLP.part.nonpolar>
-21.2975

> <Gold.PLP.part.repulsive>
0.0140

> <Gold.PLP.ligand.clash>
0.0000

> <Gold.PLP.ligand.torsion>
1.2897

> <Gold.PLP.Chemscore.Hbond>
2.9500

> <Gold.PLP.Chemscore.CHOScore>
0.0000

> <Gold.PLP.Chemscore.Metal>
0.0000

> <Gold.Chemscore.Hbonds>
donor molecule, donor type, donor heavy atom, donor atom, acceptor molecule, acceptor atom, score
      P1  H  6896  6909       L1     3  2.00
      P1  H  6934  6947       L1     6  1.00

> <Gold.PLP.Chemscore.Internal.Correction>
0.0152

> <Gold.Rescore>
     Score         DG    S(hbond)    S(metal)    S(lipo)     H(rot)  DE(clash)    DE(int)     intcor
      6.92     -13.21       1.21        0.00      53.40       1.00       0.13       6.16       ----

> <Gold.Chemscore.Fitness>
6.9237

> <Gold.Chemscore.DG>
-13.2091

> <Gold.Chemscore.ZeroCoef>
-5.4800

> <Gold.Chemscore.Hbond>
1.2100

> <Gold.Chemscore.Metal>
0.0000

> <Gold.Chemscore.Lipo>
53.3983

> <Gold.Chemscore.Internal_Hbond>
0.0000

> <Gold.Chemscore.DEClash>
0.1279

> <Gold.Chemscore.DEInternal>
6.1576

> <Gold.Chemscore.Rot>
1.0000

> <Gold.Chemscore.Internal.Correction>
   9.000000E+99

> <Gold.Chemscore.Hbonds>
donor molecule, donor type, donor heavy atom, donor atom, acceptor molecule, acceptor atom, score
      P1  H  6896  6909       L1     3  0.23
      P1  H  6934  6947       L1     6  0.44

> <Gold.Chemscore.Hbond.Weighted>
-4.0415

> <Gold.Chemscore.Metal.Weighted>
-0.0000

> <Gold.Chemscore.Lipo.Weighted>
-6.2476

> <Gold.Chemscore.Internal_Hbond.Weighted>
0.0000

> <Gold.Chemscore.DEClash.Weighted>
0.1279

> <Gold.Chemscore.DEInternal.Weighted>
6.1576

> <Gold.Chemscore.Rot.Weighted>
2.5600

> <Gold.Chemscore.Internal.Correction.Weighted>
   9.000000E+99

> <Gold.Protein.RotatedTorsions>
[ 6907 6896 6895 6894 ] final   50.02 input  -60.11 | X-H torsion
[ 7974 7965 7964 7962 ] final  -21.67 input  175.53 | X-H torsion
[ 8008 7997 7996 7995 ] final   15.77 input   59.86 | X-H torsion
[ 10167 10162 10161 10158 ] final  -78.80 input  -65.29 | X-H torsion
[ 10718 10713 10712 10709 ] final  127.71 input   66.30 | X-H torsion
[ 10763 10752 10751 10750 ] final -178.09 input  -60.55 | X-H torsion
[ 11005 11000 10999 10996 ] final  107.43 input  -57.11 | X-H torsion

> <Gold.Protein.ActiveResidues>
 VAL166  LYS551  ARG553  GLY616  TRP617  ASP618  TYR619  PRO620  LYS621  CYS622 
 ASP623  PHE694  ASN695  SER759  ASP760  ASP761  ALA762  ILE779  LEU786  VAL792 
 PHE793  MET794  SER795  GLU796  ALA797  LYS798  CYS799  TRP800  GLU811  SER814 

> <Gold.Protein.RotatedAtoms>
  152.2973  134.7653  160.0365 H   0  0  0  0  0  0  0  0  0  0  0  0  # atno 6907 bound_to 6896
  151.8178  133.3385  159.3583 H   0  0  0  0  0  0  0  0  0  0  0  0  # atno 6908 bound_to 6896
  150.7257  134.5532  159.5849 H   0  0  0  0  0  0  0  0  0  0  0  0  # atno 6909 bound_to 6896
  146.1719  140.4374  142.8529 H   0  0  0  0  0  0  0  0  0  0  0  0  # atno 7974 bound_to 7965
  154.8673  140.2953  155.5502 H   0  0  0  0  0  0  0  0  0  0  0  0  # atno 8008 bound_to 7997
  156.3021  140.2467  156.3590 H   0  0  0  0  0  0  0  0  0  0  0  0  # atno 8009 bound_to 7997
  154.8854  140.0396  157.1796 H   0  0  0  0  0  0  0  0  0  0  0  0  # atno 8010 bound_to 7997
  140.4650  143.2442  151.8291 H   0  0  0  0  0  0  0  0  0  0  0  0  # atno 10167 bound_to 10162
  157.5309  131.1098  150.9010 H   0  0  0  0  0  0  0  0  0  0  0  0  # atno 10718 bound_to 10713
  154.5520  135.2813  155.1000 H   0  0  0  0  0  0  0  0  0  0  0  0  # atno 10763 bound_to 10752
  154.2442  135.6351  153.5221 H   0  0  0  0  0  0  0  0  0  0  0  0  # atno 10764 bound_to 10752
  153.0005  135.5567  154.6089 H   0  0  0  0  0  0  0  0  0  0  0  0  # atno 10765 bound_to 10752
  139.8828  134.9400  156.5818 H   0  0  0  0  0  0  0  0  0  0  0  0  # atno 11005 bound_to 11000
  144.8177  140.6496  143.6373 LP  0  0  0  0  0  0  0  0  0  0  0  0  # atno 17320 bound_to 7965
  145.4316  139.1548  143.4019 LP  0  0  0  0  0  0  0  0  0  0  0  0  # atno 17321 bound_to 7965
  139.4811  144.4962  151.9121 LP  0  0  0  0  0  0  0  0  0  0  0  0  # atno 17342 bound_to 10162
  140.4047  144.2447  150.5891 LP  0  0  0  0  0  0  0  0  0  0  0  0  # atno 17343 bound_to 10162
  156.9592  130.5448  149.5285 LP  0  0  0  0  0  0  0  0  0  0  0  0  # atno 17370 bound_to 10713
  156.0422  130.5503  150.8797 LP  0  0  0  0  0  0  0  0  0  0  0  0  # atno 17371 bound_to 10713
  140.8021  133.8497  155.8736 LP  0  0  0  0  0  0  0  0  0  0  0  0  # atno 17394 bound_to 11000
  140.9583  134.1689  157.4674 LP  0  0  0  0  0  0  0  0  0  0  0  0  # atno 17395 bound_to 11000

$$$$
