AV-unprocessed.smi:2040|AV-procd|sdf|8287|dock4
  -GOLD-   2272010553D 1   1.00000     0.00000
 Structure written by MMmdl.
 38 39  0  0  0  0  0  0  0  0  1 V2000
  151.5766  130.9377  155.9183 C   0  0  0  0  0  0  0  0  0  0  0  0
  150.8783  132.0704  155.2254 C   0  0  0  0  0  0  0  0  0  0  0  0
  151.1004  133.4689  155.3880 C   0  0  0  0  0  0  0  0  0  0  0  0
  150.1969  134.0201  154.5208 C   0  0  0  0  0  0  0  0  0  0  0  0
  149.9540  135.3320  154.2590 N   0  0  0  0  0  0  0  0  0  0  0  0
  150.2608  136.4072  155.0055 C   0  0  0  0  0  0  0  0  0  0  0  0
  150.8431  136.3811  156.0900 O   0  0  0  0  0  0  0  0  0  0  0  0
  149.8553  137.5391  154.4118 N   0  0  0  0  0  0  0  0  0  0  0  0
  150.0218  138.8853  154.9542 C   0  0  1  0  0  0  0  0  0  0  0  0
  151.5021  139.2967  154.8701 C   0  0  0  0  0  0  0  0  0  0  0  0
  149.1033  139.8558  154.1873 C   0  0  2  0  0  0  0  0  0  0  0  0
  149.1054  141.2935  154.7151 C   0  0  0  0  0  0  0  0  0  0  0  0
  147.7152  141.8155  154.3800 C   0  0  0  0  0  0  0  0  0  0  0  0
  146.9572  140.5787  153.8944 C   0  0  0  0  0  0  0  0  0  0  0  0
  147.7417  139.4827  154.3383 O   0  0  0  0  0  0  0  0  0  0  0  0
  149.4972  133.0070  153.9039 N   0  0  0  0  0  0  0  0  0  0  0  0
  148.4404  133.0877  152.9146 C   0  0  0  0  0  0  0  0  0  0  0  0
  149.9243  131.8024  154.3408 N   0  0  0  0  0  0  0  0  0  0  0  0
  152.2676  131.3059  156.6768 H   0  0  0  0  0  0  0  0  0  0  0  0
  152.1498  130.3387  155.2104 H   0  0  0  0  0  0  0  0  0  0  0  0
  150.8626  130.2789  156.4133 H   0  0  0  0  0  0  0  0  0  0  0  0
  151.8067  133.9625  156.0381 H   0  0  0  0  0  0  0  0  0  0  0  0
  149.4935  135.5176  153.3803 H   0  0  0  0  0  0  0  0  0  0  0  0
  149.3802  137.4663  153.5242 H   0  0  0  0  0  0  0  0  0  0  0  0
  149.7182  138.8864  156.0029 H   0  0  0  0  0  0  0  0  0  0  0  0
  151.6656  140.2838  155.3026 H   0  0  0  0  0  0  0  0  0  0  0  0
  151.8475  139.3252  153.8361 H   0  0  0  0  0  0  0  0  0  0  0  0
  152.1386  138.5980  155.4140 H   0  0  0  0  0  0  0  0  0  0  0  0
  149.3498  139.8534  153.1233 H   0  0  0  0  0  0  0  0  0  0  0  0
  149.2447  141.3030  155.7970 H   0  0  0  0  0  0  0  0  0  0  0  0
  149.8986  141.8961  154.2716 H   0  0  0  0  0  0  0  0  0  0  0  0
  147.2460  142.2414  155.2677 H   0  0  0  0  0  0  0  0  0  0  0  0
  147.7407  142.5878  153.6105 H   0  0  0  0  0  0  0  0  0  0  0  0
  145.9412  140.5267  154.2859 H   0  0  0  0  0  0  0  0  0  0  0  0
  146.9044  140.5633  152.8047 H   0  0  0  0  0  0  0  0  0  0  0  0
  148.8136  133.5866  152.0199 H   0  0  0  0  0  0  0  0  0  0  0  0
  147.6035  133.6578  153.3185 H   0  0  0  0  0  0  0  0  0  0  0  0
  148.0903  132.0907  152.6437 H   0  0  0  0  0  0  0  0  0  0  0  0
  1  2  1  0  0  0  0
  1 19  1  0  0  0  0
  1 20  1  0  0  0  0
  1 21  1  0  0  0  0
  2 18  2  0  0  0  0
  2  3  1  0  0  0  0
  3  4  2  0  0  0  0
  3 22  1  0  0  0  0
  4  5  1  0  0  0  0
  4 16  1  0  0  0  0
  5  6  1  0  0  0  0
  5 23  1  0  0  0  0
  6  7  2  0  0  0  0
  6  8  1  0  0  0  0
  8  9  1  0  0  0  0
  8 24  1  0  0  0  0
  9 10  1  0  0  0  0
  9 11  1  0  0  0  0
  9 25  1  0  0  0  0
 10 26  1  0  0  0  0
 10 27  1  0  0  0  0
 10 28  1  0  0  0  0
 11 15  1  0  0  0  0
 11 12  1  0  0  0  0
 11 29  1  0  0  0  0
 12 13  1  0  0  0  0
 12 30  1  0  0  0  0
 12 31  1  0  0  0  0
 13 14  1  0  0  0  0
 13 32  1  0  0  0  0
 13 33  1  0  0  0  0
 14 15  1  0  0  0  0
 14 34  1  0  0  0  0
 14 35  1  0  0  0  0
 16 17  1  0  0  0  0
 16 18  1  0  0  0  0
 17 36  1  0  0  0  0
 17 37  1  0  0  0  0
 17 38  1  0  0  0  0
M  END
> <s_m_source_file>
AV-unprocessed.smi

> <i_m_source_file_index>
2040

> <i_lp_mmshare_version>
43012

> <i_f3d_flags>
0

> <s_epik_input>
W0NIM11jMVtjSF1jKG4objEpW0NIM10pW05IXUMoPU8pW05IXVtDQEhdKFtDSDNdKVtDQEBIXTJbQ0gyXVtDSDJdW0NIMl1PMg==

> <s_epik_cmdline>
J2VwaWtfcHl0aG9uJywgJy1waCcsICc3LjAnLCAnLXRuJywgJzgnLCAnLW1hJywgJzIwMCcsICctbWV0YWxfYmluZGluZycsICctaW1hZScsICc8aW5maWxlLm1hZT4nLCAnLW9tYWUnLCAnPG91dGZpbGUubWFlPic=

> <r_lp_tautomer_probability>
1

> <r_epik_Ionization_Penalty>
9.09088e-05

> <r_epik_Ionization_Penalty_Charging>
0

> <r_epik_Ionization_Penalty_Neutral>
9.09088e-05

> <r_epik_State_Penalty>
-0

> <r_epik_Charging_Adjusted_Penalty>
0

> <i_epik_Tot_Q>
0

> <i_epik_Tot_abs_Q>
0

> <r_epik_Metal_State_Penalty>
-0

> <b_epik_Metal_Only>
0

> <s_lp_Force_Field>
OPLS_2005

> <r_lp_Energy>
19.5884

> <b_lp_Chiralities_Consistent>
1

> <s_lp_Variant>
AV-unprocessed.smi:2040-2

> <Gold.Version>
5.8.1

> <Gold.Id.Protein>
6NUR|6NUR_protein|mol2

> <Gold.PLP.Fitness>
39.0965

> <Gold.PLP.PLP>
-33.7542

> <Gold.PLP.part.hbond>
-2.2382

> <Gold.PLP.part.metal>
0.0000

> <Gold.PLP.part.buried>
-1.7874

> <Gold.PLP.part.nonpolar>
-30.4408

> <Gold.PLP.part.repulsive>
0.2669

> <Gold.PLP.ligand.clash>
0.0000

> <Gold.PLP.ligand.torsion>
0.2563

> <Gold.PLP.Chemscore.Hbond>
1.9440

> <Gold.PLP.Chemscore.CHOScore>
0.0000

> <Gold.PLP.Chemscore.Metal>
0.0000

> <Gold.Chemscore.Hbonds>
donor molecule, donor type, donor heavy atom, donor atom, acceptor molecule, acceptor atom, score
      L1  H     5    23       P1  7948  0.80
      L1  H     8    24       P1  7948  0.79

> <Gold.PLP.Chemscore.Internal.Correction>
0.0228

> <Gold.Rescore>
     Score         DG    S(hbond)    S(metal)    S(lipo)     H(rot)  DE(clash)    DE(int)     intcor
     13.67     -14.43       1.39        0.00      63.79       1.23       0.32       0.44       ----

> <Gold.Chemscore.Fitness>
13.6730

> <Gold.Chemscore.DG>
-14.4299

> <Gold.Chemscore.ZeroCoef>
-5.4800

> <Gold.Chemscore.Hbond>
1.3906

> <Gold.Chemscore.Metal>
0.0000

> <Gold.Chemscore.Lipo>
63.7925

> <Gold.Chemscore.Internal_Hbond>
0.0000

> <Gold.Chemscore.DEClash>
0.3205

> <Gold.Chemscore.DEInternal>
0.4364

> <Gold.Chemscore.Rot>
1.2338

> <Gold.Chemscore.Internal.Correction>
   9.000000E+99

> <Gold.Chemscore.Hbonds>
donor molecule, donor type, donor heavy atom, donor atom, acceptor molecule, acceptor atom, score
      L1  H     5    23       P1  7948  0.12
      L1  H     8    24       P1  7948  0.73

> <Gold.Chemscore.Hbond.Weighted>
-4.6446

> <Gold.Chemscore.Metal.Weighted>
-0.0000

> <Gold.Chemscore.Lipo.Weighted>
-7.4637

> <Gold.Chemscore.Internal_Hbond.Weighted>
0.0000

> <Gold.Chemscore.DEClash.Weighted>
0.3205

> <Gold.Chemscore.DEInternal.Weighted>
0.4364

> <Gold.Chemscore.Rot.Weighted>
3.1584

> <Gold.Chemscore.Internal.Correction.Weighted>
   9.000000E+99

> <Gold.Protein.RotatedTorsions>
[ 6907 6896 6895 6894 ] final -165.02 input  -60.11 | X-H torsion
[ 7974 7965 7964 7962 ] final   23.28 input  175.53 | X-H torsion
[ 8008 7997 7996 7995 ] final -148.10 input   59.86 | X-H torsion
[ 10167 10162 10161 10158 ] final  161.06 input  -65.29 | X-H torsion
[ 10718 10713 10712 10709 ] final  118.54 input   66.30 | X-H torsion
[ 10763 10752 10751 10750 ] final   85.14 input  -60.55 | X-H torsion
[ 11005 11000 10999 10996 ] final -162.99 input  -57.11 | X-H torsion

> <Gold.Protein.ActiveResidues>
 VAL166  LYS551  ARG553  GLY616  TRP617  ASP618  TYR619  PRO620  LYS621  CYS622 
 ASP623  PHE694  ASN695  SER759  ASP760  ASP761  ALA762  ILE779  LEU786  VAL792 
 PHE793  MET794  SER795  GLU796  ALA797  LYS798  CYS799  TRP800  GLU811  SER814 

> <Gold.Protein.RotatedAtoms>
  151.4211  133.3698  159.2756 H   0  0  0  0  0  0  0  0  0  0  0  0  # atno 6907 bound_to 6896
  150.9293  134.8710  159.7551 H   0  0  0  0  0  0  0  0  0  0  0  0  # atno 6908 bound_to 6896
  152.5020  134.4155  159.9515 H   0  0  0  0  0  0  0  0  0  0  0  0  # atno 6909 bound_to 6896
  146.1991  139.7766  142.8775 H   0  0  0  0  0  0  0  0  0  0  0  0  # atno 7974 bound_to 7965
  155.5862  140.0648  157.2770 H   0  0  0  0  0  0  0  0  0  0  0  0  # atno 8008 bound_to 7997
  154.4318  140.1843  156.1074 H   0  0  0  0  0  0  0  0  0  0  0  0  # atno 8009 bound_to 7997
  156.0267  140.3311  155.7100 H   0  0  0  0  0  0  0  0  0  0  0  0  # atno 8010 bound_to 7997
  139.4845  144.4573  151.8751 H   0  0  0  0  0  0  0  0  0  0  0  0  # atno 10167 bound_to 10162
  157.6023  131.1049  150.7770 H   0  0  0  0  0  0  0  0  0  0  0  0  # atno 10718 bound_to 10713
  153.1447  135.4628  154.9548 H   0  0  0  0  0  0  0  0  0  0  0  0  # atno 10763 bound_to 10752
  154.7776  135.3178  154.8061 H   0  0  0  0  0  0  0  0  0  0  0  0  # atno 10764 bound_to 10752
  153.8577  135.6915  153.4840 H   0  0  0  0  0  0  0  0  0  0  0  0  # atno 10765 bound_to 10752
  140.6031  134.4927  157.5207 H   0  0  0  0  0  0  0  0  0  0  0  0  # atno 11005 bound_to 11000
  145.3544  141.0314  143.3320 LP  0  0  0  0  0  0  0  0  0  0  0  0  # atno 17320 bound_to 7965
  144.8644  139.5129  143.6797 LP  0  0  0  0  0  0  0  0  0  0  0  0  # atno 17321 bound_to 7965
  140.4033  144.2464  150.5892 LP  0  0  0  0  0  0  0  0  0  0  0  0  # atno 17342 bound_to 10162
  140.5036  143.2310  151.8641 LP  0  0  0  0  0  0  0  0  0  0  0  0  # atno 17343 bound_to 10162
  156.8166  130.4970  149.5348 LP  0  0  0  0  0  0  0  0  0  0  0  0  # atno 17370 bound_to 10713
  156.1100  130.6033  151.0032 LP  0  0  0  0  0  0  0  0  0  0  0  0  # atno 17371 bound_to 10713
  139.9224  134.8123  156.1171 LP  0  0  0  0  0  0  0  0  0  0  0  0  # atno 17394 bound_to 11000
  141.0859  133.6734  156.2434 LP  0  0  0  0  0  0  0  0  0  0  0  0  # atno 17395 bound_to 11000

$$$$
