AV-unprocessed.smi:185|AV-procd|sdf|1465|dock4
  -GOLD-   2262019273D 1   1.00000     0.00000
 Structure written by MMmdl.
 53 56  0  0  0  0  0  0  0  0  1 V2000
  151.6551  139.2505  155.6924 C   0  0  0  0  0  0  0  0  0  0  0  0
  151.1313  140.4654  155.0728 N   0  0  0  0  0  0  0  0  0  0  0  0
  151.5986  141.7367  155.6236 C   0  0  0  0  0  0  0  0  0  0  0  0
  150.9121  142.0959  156.9560 C   0  0  0  0  0  0  0  0  0  0  0  0
  151.8443  142.7407  157.8750 N   0  0  0  0  0  0  0  0  0  0  0  0
  151.5848  144.0760  158.3861 C   0  0  0  0  0  0  0  0  0  0  0  0
  152.8726  144.4808  159.1186 C   0  0  0  0  0  0  0  0  0  0  0  0
  153.6973  143.1962  159.2574 C   0  0  0  0  0  0  0  0  0  0  0  0
  152.9951  142.2249  158.3240 C   0  0  0  0  0  0  0  0  0  0  0  0
  153.4560  141.1194  158.0411 O   0  0  0  0  0  0  0  0  0  0  0  0
  149.8718  140.4288  154.5499 C   0  0  0  0  0  0  0  0  0  0  0  0
  149.3494  141.5625  154.0071 N   0  0  0  0  0  0  0  0  0  0  0  0
  148.1377  141.5571  153.4454 C   0  0  0  0  0  0  0  0  0  0  0  0
  147.2853  140.5411  153.3138 N   0  0  0  0  0  0  0  0  0  0  0  0
  147.7890  139.4011  153.8658 C   0  0  0  0  0  0  0  0  0  0  0  0
  149.0530  139.2590  154.5094 C   0  0  0  0  0  0  0  0  0  0  0  0
  149.1907  137.9541  154.9712 N   0  0  0  0  0  0  0  0  0  0  0  0
  148.0942  137.3564  154.5975 C   0  0  0  0  0  0  0  0  0  0  0  0
  147.2028  138.1482  153.9124 N   0  0  0  0  0  0  0  0  0  0  0  0
  145.9180  137.7388  153.3666 C   0  0  0  0  0  0  0  0  0  0  0  0
  146.0165  136.5976  152.3225 C   0  0  0  0  0  0  0  0  0  0  0  0
  146.7945  137.0698  151.2363 O   0  0  0  0  0  0  0  0  0  0  0  0
  146.6930  135.3283  152.8872 C   0  0  0  0  0  0  0  0  0  0  0  0
  146.5951  134.1379  151.9167 C   0  0  0  0  0  0  0  0  0  0  0  0
  145.2364  133.8967  151.5719 O   0  0  0  0  0  0  0  0  0  0  0  0
  144.6420  134.9907  150.8841 C   0  0  0  0  0  0  0  0  0  0  0  0
  144.6150  136.2326  151.7929 C   0  0  0  0  0  0  0  0  0  0  0  0
  151.5581  138.3975  155.0195 H   0  0  0  0  0  0  0  0  0  0  0  0
  151.1247  139.0269  156.6189 H   0  0  0  0  0  0  0  0  0  0  0  0
  152.7134  139.3638  155.9286 H   0  0  0  0  0  0  0  0  0  0  0  0
  152.6748  141.6719  155.7873 H   0  0  0  0  0  0  0  0  0  0  0  0
  151.4796  142.5356  154.8961 H   0  0  0  0  0  0  0  0  0  0  0  0
  150.0740  142.7741  156.7882 H   0  0  0  0  0  0  0  0  0  0  0  0
  150.4922  141.2005  157.4159 H   0  0  0  0  0  0  0  0  0  0  0  0
  151.3443  144.7718  157.5815 H   0  0  0  0  0  0  0  0  0  0  0  0
  150.7376  144.0398  159.0723 H   0  0  0  0  0  0  0  0  0  0  0  0
  153.4250  145.2129  158.5280 H   0  0  0  0  0  0  0  0  0  0  0  0
  152.6594  144.9352  160.0868 H   0  0  0  0  0  0  0  0  0  0  0  0
  154.7398  143.3414  158.9722 H   0  0  0  0  0  0  0  0  0  0  0  0
  153.6624  142.8087  160.2760 H   0  0  0  0  0  0  0  0  0  0  0  0
  147.8075  142.5003  153.0363 H   0  0  0  0  0  0  0  0  0  0  0  0
  147.9103  136.3119  154.8025 H   0  0  0  0  0  0  0  0  0  0  0  0
  145.2867  137.4273  154.1998 H   0  0  0  0  0  0  0  0  0  0  0  0
  145.4333  138.6138  152.9309 H   0  0  0  0  0  0  0  0  0  0  0  0
  147.6961  136.8292  151.3847 H   0  0  0  0  0  0  0  0  0  0  0  0
  147.7410  135.5166  153.1245 H   0  0  0  0  0  0  0  0  0  0  0  0
  146.2105  135.0516  153.8256 H   0  0  0  0  0  0  0  0  0  0  0  0
  147.1848  134.3159  151.0161 H   0  0  0  0  0  0  0  0  0  0  0  0
  147.0015  133.2420  152.3859 H   0  0  0  0  0  0  0  0  0  0  0  0
  145.1826  135.1912  149.9578 H   0  0  0  0  0  0  0  0  0  0  0  0
  143.6259  134.7150  150.6013 H   0  0  0  0  0  0  0  0  0  0  0  0
  143.9533  136.0270  152.6355 H   0  0  0  0  0  0  0  0  0  0  0  0
  144.1757  137.0767  151.2594 H   0  0  0  0  0  0  0  0  0  0  0  0
  1  2  1  0  0  0  0
  1 28  1  0  0  0  0
  1 29  1  0  0  0  0
  1 30  1  0  0  0  0
  2  3  1  0  0  0  0
  2 11  1  0  0  0  0
  3  4  1  0  0  0  0
  3 31  1  0  0  0  0
  3 32  1  0  0  0  0
  4  5  1  0  0  0  0
  4 33  1  0  0  0  0
  4 34  1  0  0  0  0
  5  9  1  0  0  0  0
  5  6  1  0  0  0  0
  6  7  1  0  0  0  0
  6 35  1  0  0  0  0
  6 36  1  0  0  0  0
  7  8  1  0  0  0  0
  7 37  1  0  0  0  0
  7 38  1  0  0  0  0
  8  9  1  0  0  0  0
  8 39  1  0  0  0  0
  8 40  1  0  0  0  0
  9 10  2  0  0  0  0
 11 16  1  0  0  0  0
 11 12  2  0  0  0  0
 12 13  1  0  0  0  0
 13 14  2  0  0  0  0
 13 41  1  0  0  0  0
 14 15  1  0  0  0  0
 15 19  1  0  0  0  0
 15 16  2  0  0  0  0
 16 17  1  0  0  0  0
 17 18  2  0  0  0  0
 18 19  1  0  0  0  0
 18 42  1  0  0  0  0
 19 20  1  0  0  0  0
 20 21  1  0  0  0  0
 20 43  1  0  0  0  0
 20 44  1  0  0  0  0
 21 27  1  0  0  0  0
 21 22  1  0  0  0  0
 21 23  1  0  0  0  0
 22 45  1  0  0  0  0
 23 24  1  0  0  0  0
 23 46  1  0  0  0  0
 23 47  1  0  0  0  0
 24 25  1  0  0  0  0
 24 48  1  0  0  0  0
 24 49  1  0  0  0  0
 25 26  1  0  0  0  0
 26 27  1  0  0  0  0
 26 50  1  0  0  0  0
 26 51  1  0  0  0  0
 27 52  1  0  0  0  0
 27 53  1  0  0  0  0
M  END
> <s_m_source_file>
AV-unprocessed.smi

> <i_m_source_file_index>
185

> <i_lp_mmshare_version>
43012

> <i_f3d_flags>
0

> <s_epik_input>
Tz1DMVtDSDJdW0NIMl1bQ0gyXU4xW0NIMl1bQ0gyXU4oW0NIM10pYyhuW2NIXW4yKWMoYzIzKW5bY0hdbjNbQ0gyXUM0KFtPSF0pW0NIMl1bQ0gyXU9bQ0gyXVtDSDJdNA==

> <s_epik_cmdline>
J2VwaWtfcHl0aG9uJywgJy1waCcsICc3LjAnLCAnLXRuJywgJzgnLCAnLW1hJywgJzIwMCcsICctbWV0YWxfYmluZGluZycsICctaW1hZScsICc8aW5maWxlLm1hZT4nLCAnLW9tYWUnLCAnPG91dGZpbGUubWFlPic=

> <r_lp_tautomer_probability>
1

> <r_epik_Ionization_Penalty>
0.00150291

> <r_epik_Ionization_Penalty_Charging>
0

> <r_epik_Ionization_Penalty_Neutral>
0.00150291

> <r_epik_State_Penalty>
0.000836254

> <r_epik_Charging_Adjusted_Penalty>
0.000836254

> <i_epik_Tot_Q>
0

> <i_epik_Tot_abs_Q>
0

> <r_epik_Metal_State_Penalty>
-0

> <b_epik_Metal_Only>
0

> <s_lp_Force_Field>
OPLS_2005

> <r_lp_Energy>
31.6945

> <b_lp_Chiralities_Consistent>
1

> <s_lp_Variant>
AV-unprocessed.smi:185-1

> <Gold.Version>
5.8.1

> <Gold.Id.Protein>
6NUR|6NUR_protein|mol2

> <Gold.PLP.Fitness>
46.8962

> <Gold.PLP.PLP>
-41.6470

> <Gold.PLP.part.hbond>
-2.0943

> <Gold.PLP.part.metal>
0.0000

> <Gold.PLP.part.buried>
-4.5599

> <Gold.PLP.part.nonpolar>
-34.7670

> <Gold.PLP.part.repulsive>
0.5557

> <Gold.PLP.ligand.clash>
0.0000

> <Gold.PLP.ligand.torsion>
0.6138

> <Gold.PLP.Chemscore.Hbond>
1.9280

> <Gold.PLP.Chemscore.CHOScore>
0.0000

> <Gold.PLP.Chemscore.Metal>
0.0000

> <Gold.Chemscore.Hbonds>
donor molecule, donor type, donor heavy atom, donor atom, acceptor molecule, acceptor atom, score
      L1  H    22    45       P1  7948  0.75
      P1  H  7997  8010       L1    10  0.34
      P1  H  8011  8017       L1    12  0.03

> <Gold.PLP.Chemscore.Internal.Correction>
0.6928

> <Gold.Rescore>
     Score         DG    S(hbond)    S(metal)    S(lipo)     H(rot)  DE(clash)    DE(int)     intcor
     12.28     -14.33       1.76        0.00      85.30       2.73       0.26       1.80       ----

> <Gold.Chemscore.Fitness>
12.2771

> <Gold.Chemscore.DG>
-14.3330

> <Gold.Chemscore.ZeroCoef>
-5.4800

> <Gold.Chemscore.Hbond>
1.7565

> <Gold.Chemscore.Metal>
0.0000

> <Gold.Chemscore.Lipo>
85.2952

> <Gold.Chemscore.Internal_Hbond>
0.0000

> <Gold.Chemscore.DEClash>
0.2602

> <Gold.Chemscore.DEInternal>
1.7957

> <Gold.Chemscore.Rot>
2.7318

> <Gold.Chemscore.Internal.Correction>
   9.000000E+99

> <Gold.Chemscore.Hbonds>
donor molecule, donor type, donor heavy atom, donor atom, acceptor molecule, acceptor atom, score
      L1  H    22    45       P1  7948  0.75
      P1  H  7997  8010       L1    10  0.34

> <Gold.Chemscore.Hbond.Weighted>
-5.8668

> <Gold.Chemscore.Metal.Weighted>
-0.0000

> <Gold.Chemscore.Lipo.Weighted>
-9.9795

> <Gold.Chemscore.Internal_Hbond.Weighted>
0.0000

> <Gold.Chemscore.DEClash.Weighted>
0.2602

> <Gold.Chemscore.DEInternal.Weighted>
1.7957

> <Gold.Chemscore.Rot.Weighted>
6.9933

> <Gold.Chemscore.Internal.Correction.Weighted>
   9.000000E+99

> <Gold.Protein.RotatedTorsions>
[ 6907 6896 6895 6894 ] final   89.18 input  -60.11 | X-H torsion
[ 7974 7965 7964 7962 ] final  -14.73 input  175.53 | X-H torsion
[ 8008 7997 7996 7995 ] final   25.26 input   59.86 | X-H torsion
[ 10167 10162 10161 10158 ] final -170.34 input  -65.29 | X-H torsion
[ 10718 10713 10712 10709 ] final -148.75 input   66.30 | X-H torsion
[ 10763 10752 10751 10750 ] final  -56.58 input  -60.55 | X-H torsion
[ 11005 11000 10999 10996 ] final  153.64 input  -57.11 | X-H torsion

> <Gold.Protein.ActiveResidues>
 VAL166  LYS551  ARG553  GLY616  TRP617  ASP618  TYR619  PRO620  LYS621  CYS622 
 ASP623  PHE694  ASN695  SER759  ASP760  ASP761  ALA762  ILE779  LEU786  VAL792 
 PHE793  MET794  SER795  GLU796  ALA797  LYS798  CYS799  TRP800  GLU811  SER814 

> <Gold.Protein.RotatedAtoms>
  152.5433  134.2006  159.8710 H   0  0  0  0  0  0  0  0  0  0  0  0  # atno 6907 bound_to 6896
  151.1995  133.4612  159.2603 H   0  0  0  0  0  0  0  0  0  0  0  0  # atno 6908 bound_to 6896
  151.1003  134.9981  159.8501 H   0  0  0  0  0  0  0  0  0  0  0  0  # atno 6909 bound_to 6896
  146.2062  140.3391  142.8406 H   0  0  0  0  0  0  0  0  0  0  0  0  # atno 7974 bound_to 7965
  155.0089  140.3134  155.4837 H   0  0  0  0  0  0  0  0  0  0  0  0  # atno 8008 bound_to 7997
  156.2912  140.2218  156.5144 H   0  0  0  0  0  0  0  0  0  0  0  0  # atno 8009 bound_to 7997
  154.7552  140.0463  157.0915 H   0  0  0  0  0  0  0  0  0  0  0  0  # atno 8010 bound_to 7997
  139.5868  144.1301  152.1585 H   0  0  0  0  0  0  0  0  0  0  0  0  # atno 10167 bound_to 10162
  156.4243  130.8044  151.2268 H   0  0  0  0  0  0  0  0  0  0  0  0  # atno 10718 bound_to 10713
  154.2089  135.6398  153.5109 H   0  0  0  0  0  0  0  0  0  0  0  0  # atno 10763 bound_to 10752
  152.9994  135.5469  154.6236 H   0  0  0  0  0  0  0  0  0  0  0  0  # atno 10764 bound_to 10752
  154.5668  135.2913  155.0840 H   0  0  0  0  0  0  0  0  0  0  0  0  # atno 10765 bound_to 10752
  140.1416  134.8735  157.2338 H   0  0  0  0  0  0  0  0  0  0  0  0  # atno 11005 bound_to 11000
  144.8798  140.7385  143.5994 LP  0  0  0  0  0  0  0  0  0  0  0  0  # atno 17320 bound_to 7965
  145.3311  139.1759  143.4536 LP  0  0  0  0  0  0  0  0  0  0  0  0  # atno 17321 bound_to 7965
  140.0867  144.5655  150.7084 LP  0  0  0  0  0  0  0  0  0  0  0  0  # atno 17342 bound_to 10162
  140.7138  143.2527  151.4498 LP  0  0  0  0  0  0  0  0  0  0  0  0  # atno 17343 bound_to 10162
  157.7508  131.0218  150.3766 LP  0  0  0  0  0  0  0  0  0  0  0  0  # atno 17370 bound_to 10713
  156.4090  130.3930  149.6905 LP  0  0  0  0  0  0  0  0  0  0  0  0  # atno 17371 bound_to 10713
  140.2715  134.3455  155.7372 LP  0  0  0  0  0  0  0  0  0  0  0  0  # atno 17394 bound_to 11000
  141.2187  133.7426  156.9230 LP  0  0  0  0  0  0  0  0  0  0  0  0  # atno 17395 bound_to 11000

$$$$
