AV-unprocessed.smi:749|AV-procd|sdf|3587|dock3
  -GOLD-   22720 0583D 1   1.00000     0.00000
 Structure written by MMmdl.
 42 43  0  0  0  0  0  0  0  0  2 V2000
  150.8484  143.4239  158.3383 C   0  0  0  0  0  0  0  0  0  0  0  0
  151.5554  142.1851  158.6668 N   0  0  0  0  0  0  0  0  0  0  0  0
  150.7594  140.9584  158.5079 C   0  0  0  0  0  0  0  0  0  0  0  0
  151.5909  139.6642  158.4967 C   0  0  2  0  0  0  0  0  0  0  0  0
  150.7067  138.5125  158.6463 N   0  0  0  0  0  0  0  0  0  0  0  0
  151.0313  137.2200  158.4452 C   0  0  0  0  0  0  0  0  0  0  0  0
  152.1806  136.9407  158.1061 O   0  0  0  0  0  0  0  0  0  0  0  0
  150.0610  136.2858  158.6311 N   0  5  0  0  0  0  0  0  0  0  0  0
  148.9727  136.5088  159.3887 C   0  0  0  0  0  0  0  0  0  0  0  0
  148.2580  135.5288  160.1289 C   0  0  0  0  0  0  0  0  0  0  0  0
  147.2475  136.2434  160.7116 C   0  0  0  0  0  0  0  0  0  0  0  0
  146.1032  135.8707  161.6120 C   0  0  0  0  0  0  0  0  0  0  0  0
  146.6053  135.0890  162.8424 C   0  0  0  0  0  0  0  0  0  0  0  0
  145.1024  134.9834  160.8484 C   0  0  0  0  0  0  0  0  0  0  0  0
  145.3836  137.1405  162.1042 C   0  0  0  0  0  0  0  0  0  0  0  0
  147.3484  137.5558  160.3604 O   0  0  0  0  0  0  0  0  0  0  0  0
  148.4569  137.7183  159.5218 N   0  0  0  0  0  0  0  0  0  0  0  0
  152.6257  139.7086  159.6259 C   0  0  0  0  0  0  0  0  0  0  0  0
  153.5576  140.9134  159.4512 C   0  0  0  0  0  0  0  0  0  0  0  0
  152.8206  142.2276  159.1507 C   0  0  0  0  0  0  0  0  0  0  0  0
  153.4245  143.2856  159.3323 O   0  0  0  0  0  0  0  0  0  0  0  0
  151.3491  143.9437  157.5204 H   0  0  0  0  0  0  0  0  0  0  0  0
  150.8172  144.0925  159.1999 H   0  0  0  0  0  0  0  0  0  0  0  0
  149.8176  143.2412  158.0321 H   0  0  0  0  0  0  0  0  0  0  0  0
  150.0440  140.9292  159.3318 H   0  0  0  0  0  0  0  0  0  0  0  0
  150.1726  141.0117  157.5896 H   0  0  0  0  0  0  0  0  0  0  0  0
  152.1102  139.5980  157.5386 H   0  0  0  0  0  0  0  0  0  0  0  0
  149.7578  138.7077  158.9301 H   0  0  0  0  0  0  0  0  0  0  0  0
  148.4529  134.4700  160.2090 H   0  0  0  0  0  0  0  0  0  0  0  0
  145.7826  134.8172  163.5048 H   0  0  0  0  0  0  0  0  0  0  0  0
  147.3132  135.6782  163.4266 H   0  0  0  0  0  0  0  0  0  0  0  0
  147.1073  134.1657  162.5507 H   0  0  0  0  0  0  0  0  0  0  0  0
  145.5797  134.0721  160.4858 H   0  0  0  0  0  0  0  0  0  0  0  0
  144.6878  135.5020  159.9832 H   0  0  0  0  0  0  0  0  0  0  0  0
  144.2665  134.6876  161.4832 H   0  0  0  0  0  0  0  0  0  0  0  0
  144.5531  136.8965  162.7677 H   0  0  0  0  0  0  0  0  0  0  0  0
  144.9774  137.7176  161.2726 H   0  0  0  0  0  0  0  0  0  0  0  0
  146.0639  137.7923  162.6537 H   0  0  0  0  0  0  0  0  0  0  0  0
  152.1236  139.7654  160.5928 H   0  0  0  0  0  0  0  0  0  0  0  0
  153.2172  138.7922  159.6378 H   0  0  0  0  0  0  0  0  0  0  0  0
  154.1726  141.0382  160.3430 H   0  0  0  0  0  0  0  0  0  0  0  0
  154.2430  140.7239  158.6243 H   0  0  0  0  0  0  0  0  0  0  0  0
  1  2  1  0  0  0  0
  1 22  1  0  0  0  0
  1 23  1  0  0  0  0
  1 24  1  0  0  0  0
  2 20  1  0  0  0  0
  2  3  1  0  0  0  0
  3  4  1  0  0  0  0
  3 25  1  0  0  0  0
  3 26  1  0  0  0  0
  4  5  1  0  0  0  0
  4 18  1  0  0  0  0
  4 27  1  0  0  0  0
  5  6  1  0  0  0  0
  5 28  1  0  0  0  0
  6  7  2  0  0  0  0
  6  8  1  0  0  0  0
  8  9  1  0  0  0  0
  9 17  2  0  0  0  0
  9 10  1  0  0  0  0
 10 11  2  0  0  0  0
 10 29  1  0  0  0  0
 11 12  1  0  0  0  0
 11 16  1  0  0  0  0
 12 13  1  0  0  0  0
 12 14  1  0  0  0  0
 12 15  1  0  0  0  0
 13 30  1  0  0  0  0
 13 31  1  0  0  0  0
 13 32  1  0  0  0  0
 14 33  1  0  0  0  0
 14 34  1  0  0  0  0
 14 35  1  0  0  0  0
 15 36  1  0  0  0  0
 15 37  1  0  0  0  0
 15 38  1  0  0  0  0
 16 17  1  0  0  0  0
 18 19  1  0  0  0  0
 18 39  1  0  0  0  0
 18 40  1  0  0  0  0
 19 20  1  0  0  0  0
 19 41  1  0  0  0  0
 19 42  1  0  0  0  0
 20 21  2  0  0  0  0
M  CHG  1   8  -1
M  END
> <s_m_source_file>
AV-unprocessed.smi

> <i_m_source_file_index>
749

> <i_lp_mmshare_version>
43012

> <i_f3d_flags>
0

> <s_epik_input>
Tz1DMVtDSDJdW0NIMl1bQ0BASF0oW0NIMl1OMVtDSDNdKVtOSF1DKD1PKVtOSF1jMltjSF1jKG9uMilDKFtDSDNdKShbQ0gzXSlbQ0gzXQ==

> <s_epik_cmdline>
J2VwaWtfcHl0aG9uJywgJy1waCcsICc3LjAnLCAnLXRuJywgJzgnLCAnLW1hJywgJzIwMCcsICctbWV0YWxfYmluZGluZycsICctaW1hZScsICc8aW5maWxlLm1hZT4nLCAnLW9tYWUnLCAnPG91dGZpbGUubWFlPic=

> <r_lp_tautomer_probability>
1

> <r_epik_Ionization_Penalty>
6.47858

> <r_epik_Ionization_Penalty_Charging>
6.47844

> <r_epik_Ionization_Penalty_Neutral>
0.000138814

> <r_epik_State_Penalty>
6.47843

> <r_epik_Charging_Adjusted_Penalty>
12.9569

> <i_epik_Tot_Q>
-1

> <i_epik_Tot_abs_Q>
1

> <r_epik_Metal_State_Penalty>
2.40644

> <b_epik_Metal_Only>
1

> <s_lp_Force_Field>
OPLS_2005

> <r_lp_Energy>
10.0372

> <b_lp_Chiralities_Consistent>
1

> <s_lp_Variant>
AV-unprocessed.smi:749-4

> <Gold.Version>
5.8.1

> <Gold.Id.Protein>
6NUR|6NUR_protein|mol2

> <Gold.PLP.Fitness>
41.4136

> <Gold.PLP.PLP>
-33.5686

> <Gold.PLP.part.hbond>
-4.6496

> <Gold.PLP.part.metal>
0.0000

> <Gold.PLP.part.buried>
-5.3507

> <Gold.PLP.part.nonpolar>
-25.1656

> <Gold.PLP.part.repulsive>
0.1506

> <Gold.PLP.ligand.clash>
0.0000

> <Gold.PLP.ligand.torsion>
0.5909

> <Gold.PLP.Chemscore.Hbond>
3.0000

> <Gold.PLP.Chemscore.CHOScore>
0.0000

> <Gold.PLP.Chemscore.Metal>
0.0000

> <Gold.Chemscore.Hbonds>
donor molecule, donor type, donor heavy atom, donor atom, acceptor molecule, acceptor atom, score
      P1  H  6896  6908       L1     8  2.00
      P1  H  6934  6947       L1    16  1.00

> <Gold.PLP.Chemscore.Internal.Correction>
0.0268

> <Gold.Rescore>
     Score         DG    S(hbond)    S(metal)    S(lipo)     H(rot)  DE(clash)    DE(int)     intcor
     11.19     -13.71       0.83        0.00      73.33       1.22       0.35       2.17       ----

> <Gold.Chemscore.Fitness>
11.1892

> <Gold.Chemscore.DG>
-13.7065

> <Gold.Chemscore.ZeroCoef>
-5.4800

> <Gold.Chemscore.Hbond>
0.8292

> <Gold.Chemscore.Metal>
0.0000

> <Gold.Chemscore.Lipo>
73.3301

> <Gold.Chemscore.Internal_Hbond>
0.0000

> <Gold.Chemscore.DEClash>
0.3503

> <Gold.Chemscore.DEInternal>
2.1670

> <Gold.Chemscore.Rot>
1.2198

> <Gold.Chemscore.Internal.Correction>
   9.000000E+99

> <Gold.Chemscore.Hbonds>
donor molecule, donor type, donor heavy atom, donor atom, acceptor molecule, acceptor atom, score
      P1  H  6896  6908       L1     8  0.07
      P1  H  6934  6947       L1    16  0.24

> <Gold.Chemscore.Hbond.Weighted>
-2.7697

> <Gold.Chemscore.Metal.Weighted>
-0.0000

> <Gold.Chemscore.Lipo.Weighted>
-8.5796

> <Gold.Chemscore.Internal_Hbond.Weighted>
0.0000

> <Gold.Chemscore.DEClash.Weighted>
0.3503

> <Gold.Chemscore.DEInternal.Weighted>
2.1670

> <Gold.Chemscore.Rot.Weighted>
3.1228

> <Gold.Chemscore.Internal.Correction.Weighted>
   9.000000E+99

> <Gold.Protein.RotatedTorsions>
[ 6907 6896 6895 6894 ] final -157.72 input  -60.11 | X-H torsion
[ 7974 7965 7964 7962 ] final  155.04 input  175.53 | X-H torsion
[ 8008 7997 7996 7995 ] final  178.98 input   59.86 | X-H torsion
[ 10167 10162 10161 10158 ] final  150.88 input  -65.29 | X-H torsion
[ 10718 10713 10712 10709 ] final   31.12 input   66.30 | X-H torsion
[ 10763 10752 10751 10750 ] final   -5.84 input  -60.55 | X-H torsion
[ 11005 11000 10999 10996 ] final  106.38 input  -57.11 | X-H torsion

> <Gold.Protein.ActiveResidues>
 VAL166  LYS551  ARG553  GLY616  TRP617  ASP618  TYR619  PRO620  LYS621  CYS622 
 ASP623  PHE694  ASN695  SER759  ASP760  ASP761  ALA762  ILE779  LEU786  VAL792 
 PHE793  MET794  SER795  GLU796  ALA797  LYS798  CYS799  TRP800  GLU811  SER814 

> <Gold.Protein.RotatedAtoms>
  151.3072  133.4096  159.2643 H   0  0  0  0  0  0  0  0  0  0  0  0  # atno 6907 bound_to 6896
  151.0145  134.9423  159.8036 H   0  0  0  0  0  0  0  0  0  0  0  0  # atno 6908 bound_to 6896
  152.5309  134.3036  159.9140 H   0  0  0  0  0  0  0  0  0  0  0  0  # atno 6909 bound_to 6896
  144.8050  139.7015  143.6166 H   0  0  0  0  0  0  0  0  0  0  0  0  # atno 7974 bound_to 7965
  156.0486  140.1320  157.0076 H   0  0  0  0  0  0  0  0  0  0  0  0  # atno 8008 bound_to 7997
  154.4424  140.1015  156.6413 H   0  0  0  0  0  0  0  0  0  0  0  0  # atno 8009 bound_to 7997
  155.5558  140.3464  155.4481 H   0  0  0  0  0  0  0  0  0  0  0  0  # atno 8010 bound_to 7997
  139.4846  144.5486  151.7440 H   0  0  0  0  0  0  0  0  0  0  0  0  # atno 10167 bound_to 10162
  157.2684  130.7195  149.6491 H   0  0  0  0  0  0  0  0  0  0  0  0  # atno 10718 bound_to 10713
  153.4041  135.7006  153.6405 H   0  0  0  0  0  0  0  0  0  0  0  0  # atno 10763 bound_to 10752
  153.4926  135.3669  155.2500 H   0  0  0  0  0  0  0  0  0  0  0  0  # atno 10764 bound_to 10752
  154.8712  135.4093  154.3381 H   0  0  0  0  0  0  0  0  0  0  0  0  # atno 10765 bound_to 10752
  139.8813  134.9367  156.5658 H   0  0  0  0  0  0  0  0  0  0  0  0  # atno 11005 bound_to 11000
  146.2339  139.5867  142.9537 LP  0  0  0  0  0  0  0  0  0  0  0  0  # atno 17320 bound_to 7965
  145.5461  141.0417  143.2304 LP  0  0  0  0  0  0  0  0  0  0  0  0  # atno 17321 bound_to 7965
  140.5036  144.1131  150.5977 LP  0  0  0  0  0  0  0  0  0  0  0  0  # atno 17342 bound_to 10162
  140.4033  143.2693  151.9922 LP  0  0  0  0  0  0  0  0  0  0  0  0  # atno 17343 bound_to 10162
  155.9663  130.4375  150.5179 LP  0  0  0  0  0  0  0  0  0  0  0  0  # atno 17370 bound_to 10713
  157.3099  131.0661  151.2008 LP  0  0  0  0  0  0  0  0  0  0  0  0  # atno 17371 bound_to 10713
  140.8135  133.8410  155.8831 LP  0  0  0  0  0  0  0  0  0  0  0  0  # atno 17394 bound_to 11000
  140.9484  134.1810  157.4746 LP  0  0  0  0  0  0  0  0  0  0  0  0  # atno 17395 bound_to 11000

$$$$
