AV-unprocessed.smi:15|AV-procd|sdf|81|dock3
  -GOLD-   2262015213D 1   1.00000     0.00000
 Structure written by MMmdl.
 53 56  0  0  0  0  0  0  0  0  1 V2000
  151.2089  138.4946  155.3652 C   0  0  0  0  0  0  0  0  0  0  0  0
  152.0947  139.6887  155.7460 C   0  0  0  0  0  0  0  0  0  0  0  0
  151.3542  140.7715  156.4003 N   0  0  0  0  0  0  0  0  0  0  0  0
  151.4032  140.8955  157.8598 C   0  0  0  0  0  0  0  0  0  0  0  0
  152.3700  141.9908  158.3460 C   0  0  2  0  0  0  0  0  0  0  0  0
  152.5829  141.9827  159.8573 C   0  0  0  0  0  0  0  0  0  0  0  0
  153.0292  143.4047  160.1562 C   0  0  0  0  0  0  0  0  0  0  0  0
  152.5852  144.1985  158.9238 C   0  0  0  0  0  0  0  0  0  0  0  0
  151.8257  143.2853  158.1439 O   0  0  0  0  0  0  0  0  0  0  0  0
  150.1600  141.1144  155.8492 C   0  0  0  0  0  0  0  0  0  0  0  0
  149.8991  140.7912  154.5537 N   0  0  0  0  0  0  0  0  0  0  0  0
  148.7182  141.0917  154.0062 C   0  0  0  0  0  0  0  0  0  0  0  0
  147.6732  141.7057  154.5629 N   0  0  0  0  0  0  0  0  0  0  0  0
  147.9307  142.0442  155.8584 C   0  0  0  0  0  0  0  0  0  0  0  0
  149.1343  141.7855  156.5742 C   0  0  0  0  0  0  0  0  0  0  0  0
  149.0256  142.2752  157.8708 N   0  0  0  0  0  0  0  0  0  0  0  0
  147.8242  142.7818  157.9215 C   0  0  0  0  0  0  0  0  0  0  0  0
  147.1016  142.6986  156.7529 N   0  0  0  0  0  0  0  0  0  0  0  0
  145.7471  143.1812  156.5305 C   0  0  0  0  0  0  0  0  0  0  0  0
  145.1776  144.0497  157.6851 C   0  0  2  0  0  0  0  0  0  0  0  0
  146.0121  145.1829  157.8490 O   0  0  0  0  0  0  0  0  0  0  0  0
  145.0749  143.3187  159.0194 C   0  0  0  0  0  0  0  0  0  0  0  0
  143.7341  142.6131  158.8948 C   0  0  0  0  0  0  0  0  0  0  0  0
  142.9103  143.5701  158.2458 O   0  0  0  0  0  0  0  0  0  0  0  0
  143.6978  144.4275  157.4175 C   0  0  1  0  0  0  0  0  0  0  0  0
  143.3009  145.8704  157.7748 C   0  0  0  0  0  0  0  0  0  0  0  0
  151.8157  137.6825  154.9644 H   0  0  0  0  0  0  0  0  0  0  0  0
  150.4790  138.7594  154.6006 H   0  0  0  0  0  0  0  0  0  0  0  0
  150.6708  138.1104  156.2321 H   0  0  0  0  0  0  0  0  0  0  0  0
  152.8717  139.3274  156.4215 H   0  0  0  0  0  0  0  0  0  0  0  0
  152.6051  140.0719  154.8622 H   0  0  0  0  0  0  0  0  0  0  0  0
  150.4033  141.0780  158.2519 H   0  0  0  0  0  0  0  0  0  0  0  0
  151.7061  139.9447  158.2959 H   0  0  0  0  0  0  0  0  0  0  0  0
  153.3365  141.9177  157.8437 H   0  0  0  0  0  0  0  0  0  0  0  0
  151.6403  141.7806  160.3682 H   0  0  0  0  0  0  0  0  0  0  0  0
  153.3072  141.2331  160.1773 H   0  0  0  0  0  0  0  0  0  0  0  0
  152.5703  143.7784  161.0719 H   0  0  0  0  0  0  0  0  0  0  0  0
  154.1119  143.4619  160.2741 H   0  0  0  0  0  0  0  0  0  0  0  0
  151.9920  145.0760  159.1816 H   0  0  0  0  0  0  0  0  0  0  0  0
  153.4509  144.5294  158.3484 H   0  0  0  0  0  0  0  0  0  0  0  0
  148.5921  140.7960  152.9753 H   0  0  0  0  0  0  0  0  0  0  0  0
  147.4320  143.2420  158.8170 H   0  0  0  0  0  0  0  0  0  0  0  0
  145.7390  143.7491  155.5990 H   0  0  0  0  0  0  0  0  0  0  0  0
  145.1085  142.3146  156.3551 H   0  0  0  0  0  0  0  0  0  0  0  0
  146.6563  145.1833  157.1580 H   0  0  0  0  0  0  0  0  0  0  0  0
  145.8993  142.6410  159.2344 H   0  0  0  0  0  0  0  0  0  0  0  0
  145.0201  144.0340  159.8419 H   0  0  0  0  0  0  0  0  0  0  0  0
  143.8177  141.7216  158.2721 H   0  0  0  0  0  0  0  0  0  0  0  0
  143.3207  142.3188  159.8594 H   0  0  0  0  0  0  0  0  0  0  0  0
  143.4373  144.2431  156.3743 H   0  0  0  0  0  0  0  0  0  0  0  0
  143.8284  146.5942  157.1528 H   0  0  0  0  0  0  0  0  0  0  0  0
  143.5199  146.0960  158.8189 H   0  0  0  0  0  0  0  0  0  0  0  0
  142.2329  146.0265  157.6210 H   0  0  0  0  0  0  0  0  0  0  0  0
  1  2  1  0  0  0  0
  1 27  1  0  0  0  0
  1 28  1  0  0  0  0
  1 29  1  0  0  0  0
  2  3  1  0  0  0  0
  2 30  1  0  0  0  0
  2 31  1  0  0  0  0
  3  4  1  0  0  0  0
  3 10  1  0  0  0  0
  4  5  1  0  0  0  0
  4 32  1  0  0  0  0
  4 33  1  0  0  0  0
  5  9  1  0  0  0  0
  5  6  1  0  0  0  0
  5 34  1  0  0  0  0
  6  7  1  0  0  0  0
  6 35  1  0  0  0  0
  6 36  1  0  0  0  0
  7  8  1  0  0  0  0
  7 37  1  0  0  0  0
  7 38  1  0  0  0  0
  8  9  1  0  0  0  0
  8 39  1  0  0  0  0
  8 40  1  0  0  0  0
 10 15  1  0  0  0  0
 10 11  2  0  0  0  0
 11 12  1  0  0  0  0
 12 13  2  0  0  0  0
 12 41  1  0  0  0  0
 13 14  1  0  0  0  0
 14 18  1  0  0  0  0
 14 15  2  0  0  0  0
 15 16  1  0  0  0  0
 16 17  2  0  0  0  0
 17 18  1  0  0  0  0
 17 42  1  0  0  0  0
 18 19  1  0  0  0  0
 19 20  1  0  0  0  0
 19 43  1  0  0  0  0
 19 44  1  0  0  0  0
 20 25  1  0  0  0  0
 20 21  1  0  0  0  0
 20 22  1  0  0  0  0
 21 45  1  0  0  0  0
 22 23  1  0  0  0  0
 22 46  1  0  0  0  0
 22 47  1  0  0  0  0
 23 24  1  0  0  0  0
 23 48  1  0  0  0  0
 23 49  1  0  0  0  0
 24 25  1  0  0  0  0
 25 26  1  0  0  0  0
 25 50  1  0  0  0  0
 26 51  1  0  0  0  0
 26 52  1  0  0  0  0
 26 53  1  0  0  0  0
M  END
> <s_m_source_file>
AV-unprocessed.smi

> <i_m_source_file_index>
15

> <i_lp_mmshare_version>
43012

> <i_f3d_flags>
0

> <s_epik_input>
TzFbQ0gyXVtDSDJdW0NIMl1bQ0BIXTFbQ0gyXU4oW0NIMl1bQ0gzXSljKG5bY0hdbjIpYyhjMjMpbltjSF1uM1tDSDJdW0NAQF00KFtPSF0pW0NIMl1bQ0gyXU9bQ0BIXTRbQ0gzXQ==

> <s_epik_cmdline>
J2VwaWtfcHl0aG9uJywgJy1waCcsICc3LjAnLCAnLXRuJywgJzgnLCAnLW1hJywgJzIwMCcsICctbWV0YWxfYmluZGluZycsICctaW1hZScsICc8aW5maWxlLm1hZT4nLCAnLW9tYWUnLCAnPG91dGZpbGUubWFlPic=

> <r_lp_tautomer_probability>
1

> <r_epik_Ionization_Penalty>
0.00360814

> <r_epik_Ionization_Penalty_Charging>
0

> <r_epik_Ionization_Penalty_Neutral>
0.00360814

> <r_epik_State_Penalty>
0.00237482

> <r_epik_Charging_Adjusted_Penalty>
0.00237482

> <i_epik_Tot_Q>
0

> <i_epik_Tot_abs_Q>
0

> <r_epik_Metal_State_Penalty>
-0

> <b_epik_Metal_Only>
0

> <s_lp_Force_Field>
OPLS_2005

> <r_lp_Energy>
47.2651

> <b_lp_Chiralities_Consistent>
1

> <s_lp_Variant>
AV-unprocessed.smi:15-3

> <Gold.Version>
5.8.1

> <Gold.Id.Protein>
6NUR|6NUR_protein|mol2

> <Gold.PLP.Fitness>
45.5007

> <Gold.PLP.PLP>
-38.4918

> <Gold.PLP.part.hbond>
-2.0000

> <Gold.PLP.part.metal>
0.0000

> <Gold.PLP.part.buried>
-4.8746

> <Gold.PLP.part.nonpolar>
-31.9504

> <Gold.PLP.part.repulsive>
0.3763

> <Gold.PLP.ligand.clash>
0.0383

> <Gold.PLP.ligand.torsion>
0.6797

> <Gold.PLP.Chemscore.Hbond>
1.4880

> <Gold.PLP.Chemscore.CHOScore>
1.0000

> <Gold.PLP.Chemscore.Metal>
0.0000

> <Gold.Chemscore.Hbonds>
donor molecule, donor type, donor heavy atom, donor atom, acceptor molecule, acceptor atom, score
      L1  H    21    45       P1  8029  0.09
      P1  H  7989  7998       L1    11  0.72
      L1  C    12    41       P1  7957  1.00

> <Gold.PLP.Chemscore.Internal.Correction>
0.9425

> <Gold.Rescore>
     Score         DG    S(hbond)    S(metal)    S(lipo)     H(rot)  DE(clash)    DE(int)     intcor
      5.34     -11.51       0.91        0.00      79.02       2.44       0.09       6.08       ----

> <Gold.Chemscore.Fitness>
5.3386

> <Gold.Chemscore.DG>
-11.5086

> <Gold.Chemscore.ZeroCoef>
-5.4800

> <Gold.Chemscore.Hbond>
0.9097

> <Gold.Chemscore.Metal>
0.0000

> <Gold.Chemscore.Lipo>
79.0151

> <Gold.Chemscore.Internal_Hbond>
0.0000

> <Gold.Chemscore.DEClash>
0.0870

> <Gold.Chemscore.DEInternal>
6.0830

> <Gold.Chemscore.Rot>
2.4431

> <Gold.Chemscore.Internal.Correction>
   9.000000E+99

> <Gold.Chemscore.Hbonds>
donor molecule, donor type, donor heavy atom, donor atom, acceptor molecule, acceptor atom, score
      P1  H  7989  7998       L1    11  0.47

> <Gold.Chemscore.Hbond.Weighted>
-3.0382

> <Gold.Chemscore.Metal.Weighted>
-0.0000

> <Gold.Chemscore.Lipo.Weighted>
-9.2448

> <Gold.Chemscore.Internal_Hbond.Weighted>
0.0000

> <Gold.Chemscore.DEClash.Weighted>
0.0870

> <Gold.Chemscore.DEInternal.Weighted>
6.0830

> <Gold.Chemscore.Rot.Weighted>
6.2544

> <Gold.Chemscore.Internal.Correction.Weighted>
   9.000000E+99

> <Gold.Protein.RotatedTorsions>
[ 6907 6896 6895 6894 ] final  -53.55 input  -60.11 | X-H torsion
[ 7974 7965 7964 7962 ] final   23.09 input  175.53 | X-H torsion
[ 8008 7997 7996 7995 ] final  -73.78 input   59.86 | X-H torsion
[ 10167 10162 10161 10158 ] final -122.48 input  -65.29 | X-H torsion
[ 10718 10713 10712 10709 ] final   88.40 input   66.30 | X-H torsion
[ 10763 10752 10751 10750 ] final  -18.78 input  -60.55 | X-H torsion
[ 11005 11000 10999 10996 ] final    0.52 input  -57.11 | X-H torsion

> <Gold.Protein.ActiveResidues>
 VAL166  LYS551  ARG553  GLY616  TRP617  ASP618  TYR619  PRO620  LYS621  CYS622 
 ASP623  PHE694  ASN695  SER759  ASP760  ASP761  ALA762  ILE779  LEU786  VAL792 
 PHE793  MET794  SER795  GLU796  ALA797  LYS798  CYS799  TRP800  GLU811  SER814 

> <Gold.Protein.RotatedAtoms>
  150.8416  134.7711  159.6936 H   0  0  0  0  0  0  0  0  0  0  0  0  # atno 6907 bound_to 6896
  152.4502  134.5406  159.9847 H   0  0  0  0  0  0  0  0  0  0  0  0  # atno 6908 bound_to 6896
  151.5544  133.3374  159.2995 H   0  0  0  0  0  0  0  0  0  0  0  0  # atno 6909 bound_to 6896
  146.2000  139.7794  142.8768 H   0  0  0  0  0  0  0  0  0  0  0  0  # atno 7974 bound_to 7965
  154.5275  140.0773  156.8285 H   0  0  0  0  0  0  0  0  0  0  0  0  # atno 8008 bound_to 7997
  155.3444  140.3409  155.4221 H   0  0  0  0  0  0  0  0  0  0  0  0  # atno 8009 bound_to 7997
  156.1747  140.1631  156.8371 H   0  0  0  0  0  0  0  0  0  0  0  0  # atno 8010 bound_to 7997
  140.0138  143.5414  152.2251 H   0  0  0  0  0  0  0  0  0  0  0  0  # atno 10167 bound_to 10162
  157.6948  131.0293  150.3268 H   0  0  0  0  0  0  0  0  0  0  0  0  # atno 10718 bound_to 10713
  153.5946  135.7001  153.5409 H   0  0  0  0  0  0  0  0  0  0  0  0  # atno 10763 bound_to 10752
  153.3149  135.4090  155.1367 H   0  0  0  0  0  0  0  0  0  0  0  0  # atno 10764 bound_to 10752
  154.8594  135.3681  154.5479 H   0  0  0  0  0  0  0  0  0  0  0  0  # atno 10765 bound_to 10752
  140.6256  133.9621  155.8247 H   0  0  0  0  0  0  0  0  0  0  0  0  # atno 11005 bound_to 11000
  145.3516  141.0308  143.3335 LP  0  0  0  0  0  0  0  0  0  0  0  0  # atno 17320 bound_to 7965
  144.8663  139.5104  143.6789 LP  0  0  0  0  0  0  0  0  0  0  0  0  # atno 17321 bound_to 7965
  139.6186  144.7624  151.2790 LP  0  0  0  0  0  0  0  0  0  0  0  0  # atno 17342 bound_to 10162
  140.7370  143.6690  150.8098 LP  0  0  0  0  0  0  0  0  0  0  0  0  # atno 17343 bound_to 10162
  156.3747  130.3870  149.7148 LP  0  0  0  0  0  0  0  0  0  0  0  0  # atno 17370 bound_to 10713
  156.4550  130.7925  151.2946 LP  0  0  0  0  0  0  0  0  0  0  0  0  # atno 17371 bound_to 10713
  141.0711  134.0204  157.3524 LP  0  0  0  0  0  0  0  0  0  0  0  0  # atno 17394 bound_to 11000
  139.9136  135.0194  156.7791 LP  0  0  0  0  0  0  0  0  0  0  0  0  # atno 17395 bound_to 11000

$$$$
