AV-unprocessed.smi:1033|AV-procd|sdf|4513|dock10
  -GOLD-   22720 2523D 1   1.00000     0.00000
 Structure written by MMmdl.
 57 59  0  0  0  0  0  0  0  0  3 V2000
  146.8967  135.9477  162.5400 C   0  0  0  0  0  0  0  0  0  0  0  0
  147.2431  136.3870  161.1281 C   0  0  0  0  0  0  0  0  0  0  0  0
  148.5367  136.1229  160.6248 C   0  0  0  0  0  0  0  0  0  0  0  0
  148.8995  136.5157  159.3180 C   0  0  0  0  0  0  0  0  0  0  0  0
  150.0909  136.3597  158.6305 N   0  0  0  0  0  0  0  0  0  0  0  0
  149.8053  136.9321  157.4651 C   0  0  0  0  0  0  0  0  0  0  0  0
  148.5658  137.4368  157.3129 N   0  0  0  0  0  0  0  0  0  0  0  0
  148.0312  138.0998  156.1366 C   0  0  0  0  0  0  0  0  0  0  0  0
  148.0685  137.2013  154.8856 C   0  0  1  0  0  0  0  0  0  0  0  0
  149.4122  137.0041  154.4884 O   0  0  0  0  0  0  0  0  0  0  0  0
  147.4312  135.8234  155.1533 C   0  0  0  0  0  0  0  0  0  0  0  0
  147.7554  134.8297  154.0972 N   0  3  2  0  0  0  0  0  0  0  0  0
  146.5678  134.0993  153.5844 C   0  0  0  0  0  0  0  0  0  0  0  0
  146.9559  133.1597  152.4267 C   0  0  0  0  0  0  0  0  0  0  0  0
  148.0242  132.2069  152.8212 N   0  3  2  0  0  0  0  0  0  0  0  0
  147.5358  131.0811  153.6632 C   0  0  0  0  0  0  0  0  0  0  0  0
  146.2647  130.4177  153.0952 C   0  0  1  0  0  0  0  0  0  0  0  0
  146.5226  129.7743  151.7266 C   0  0  0  0  0  0  0  0  0  0  0  0
  145.8316  129.4003  153.9756 O   0  0  0  0  0  0  0  0  0  0  0  0
  149.2050  132.9259  153.3690 C   0  0  0  0  0  0  0  0  0  0  0  0
  148.8263  133.8898  154.5127 C   0  0  0  0  0  0  0  0  0  0  0  0
  147.9248  137.1857  158.5216 C   0  0  0  0  0  0  0  0  0  0  0  0
  146.6339  137.4529  159.0109 C   0  0  0  0  0  0  0  0  0  0  0  0
  146.2886  137.0543  160.3192 C   0  0  0  0  0  0  0  0  0  0  0  0
  144.8923  137.3482  160.8387 C   0  0  0  0  0  0  0  0  0  0  0  0
  147.7208  135.4028  163.0010 H   0  0  0  0  0  0  0  0  0  0  0  0
  146.0254  135.2925  162.5348 H   0  0  0  0  0  0  0  0  0  0  0  0
  146.6761  136.8134  163.1648 H   0  0  0  0  0  0  0  0  0  0  0  0
  149.2640  135.6145  161.2408 H   0  0  0  0  0  0  0  0  0  0  0  0
  150.5393  136.9855  156.6741 H   0  0  0  0  0  0  0  0  0  0  0  0
  147.0106  138.4204  156.3500 H   0  0  0  0  0  0  0  0  0  0  0  0
  148.6117  139.0074  155.9656 H   0  0  0  0  0  0  0  0  0  0  0  0
  147.5464  137.7136  154.0777 H   0  0  0  0  0  0  0  0  0  0  0  0
  149.4266  136.8055  153.5634 H   0  0  0  0  0  0  0  0  0  0  0  0
  147.7887  135.4628  156.1194 H   0  0  0  0  0  0  0  0  0  0  0  0
  146.3477  135.9119  155.2465 H   0  0  0  0  0  0  0  0  0  0  0  0
  146.1077  133.5316  154.3948 H   0  0  0  0  0  0  0  0  0  0  0  0
  145.8153  134.8026  153.2298 H   0  0  0  0  0  0  0  0  0  0  0  0
  146.0821  132.6219  152.0568 H   0  0  0  0  0  0  0  0  0  0  0  0
  147.3202  133.7536  151.5874 H   0  0  0  0  0  0  0  0  0  0  0  0
  148.3261  130.3400  153.7831 H   0  0  0  0  0  0  0  0  0  0  0  0
  147.3128  131.4417  154.6688 H   0  0  0  0  0  0  0  0  0  0  0  0
  145.4591  131.1425  152.9840 H   0  0  0  0  0  0  0  0  0  0  0  0
  146.8399  130.5201  150.9973 H   0  0  0  0  0  0  0  0  0  0  0  0
  145.6204  129.2998  151.3386 H   0  0  0  0  0  0  0  0  0  0  0  0
  147.3011  129.0122  151.7832 H   0  0  0  0  0  0  0  0  0  0  0  0
  144.9598  129.6019  154.2786 H   0  0  0  0  0  0  0  0  0  0  0  0
  149.9711  132.2266  153.7021 H   0  0  0  0  0  0  0  0  0  0  0  0
  149.6556  133.4977  152.5564 H   0  0  0  0  0  0  0  0  0  0  0  0
  149.7117  134.4544  154.8080 H   0  0  0  0  0  0  0  0  0  0  0  0
  148.5032  133.3352  155.3948 H   0  0  0  0  0  0  0  0  0  0  0  0
  145.9151  137.9601  158.3847 H   0  0  0  0  0  0  0  0  0  0  0  0
  144.3093  137.9166  160.1132 H   0  0  0  0  0  0  0  0  0  0  0  0
  144.9393  137.9315  161.7585 H   0  0  0  0  0  0  0  0  0  0  0  0
  144.3592  136.4198  161.0437 H   0  0  0  0  0  0  0  0  0  0  0  0
  148.3265  131.7711  151.9612 H   0  0  0  0  0  0  0  0  0  0  0  0
  148.1333  135.3618  153.3255 H   0  0  0  0  0  0  0  0  0  0  0  0
  1  2  1  0  0  0  0
  1 26  1  0  0  0  0
  1 27  1  0  0  0  0
  1 28  1  0  0  0  0
  2 24  1  0  0  0  0
  2  3  2  0  0  0  0
  3  4  1  0  0  0  0
  3 29  1  0  0  0  0
  4 22  2  0  0  0  0
  4  5  1  0  0  0  0
  5  6  2  0  0  0  0
  6  7  1  0  0  0  0
  6 30  1  0  0  0  0
  7  8  1  0  0  0  0
  7 22  1  0  0  0  0
  8  9  1  0  0  0  0
  8 31  1  0  0  0  0
  8 32  1  0  0  0  0
  9 10  1  0  0  0  0
  9 11  1  0  0  0  0
  9 33  1  0  0  0  0
 10 34  1  0  0  0  0
 11 12  1  0  0  0  0
 11 35  1  0  0  0  0
 11 36  1  0  0  0  0
 12 21  1  0  0  0  0
 12 13  1  0  0  0  0
 12 57  1  0  0  0  0
 13 14  1  0  0  0  0
 13 37  1  0  0  0  0
 13 38  1  0  0  0  0
 14 15  1  0  0  0  0
 14 39  1  0  0  0  0
 14 40  1  0  0  0  0
 15 16  1  0  0  0  0
 15 20  1  0  0  0  0
 15 56  1  0  0  0  0
 16 17  1  0  0  0  0
 16 41  1  0  0  0  0
 16 42  1  0  0  0  0
 17 18  1  0  0  0  0
 17 19  1  0  0  0  0
 17 43  1  0  0  0  0
 18 44  1  0  0  0  0
 18 45  1  0  0  0  0
 18 46  1  0  0  0  0
 19 47  1  0  0  0  0
 20 21  1  0  0  0  0
 20 48  1  0  0  0  0
 20 49  1  0  0  0  0
 21 50  1  0  0  0  0
 21 51  1  0  0  0  0
 22 23  1  0  0  0  0
 23 24  2  0  0  0  0
 23 52  1  0  0  0  0
 24 25  1  0  0  0  0
 25 53  1  0  0  0  0
 25 54  1  0  0  0  0
 25 55  1  0  0  0  0
M  CHG  1  12   1
M  CHG  1  15   1
M  END
> <s_m_source_file>
AV-unprocessed.smi

> <i_m_source_file_index>
1033

> <i_lp_mmshare_version>
43012

> <i_f3d_flags>
0

> <s_epik_input>
W0NIM11jKFtjSF0xKWMoW0NIM10pW2NIXWMoYzEyKW4oW2NIXW4yKVtDSDJdW0NASF0oW09IXSlbQ0gyXU4zW0NIMl1bQ0gyXU4oW0NIMl1bQ0gyXTMpW0NIMl1bQ0BIXShbQ0gzXSlbT0hd

> <s_epik_cmdline>
J2VwaWtfcHl0aG9uJywgJy1waCcsICc3LjAnLCAnLXRuJywgJzgnLCAnLW1hJywgJzIwMCcsICctbWV0YWxfYmluZGluZycsICctaW1hZScsICc8aW5maWxlLm1hZT4nLCAnLW9tYWUnLCAnPG91dGZpbGUubWFlPic=

> <r_epik_Ionization_Penalty>
3.16016

> <r_epik_Ionization_Penalty_Charging>
3.07679

> <r_epik_Ionization_Penalty_Neutral>
0.083365

> <r_epik_State_Penalty>
2.09701

> <r_epik_Charging_Adjusted_Penalty>
5.1738

> <i_epik_Tot_Q>
2

> <i_epik_Tot_abs_Q>
2

> <r_epik_Metal_State_Penalty>
2.02534

> <b_epik_Metal_Only>
0

> <s_lp_Force_Field>
OPLS_2005

> <r_lp_Energy>
29.7728

> <b_lp_Chiralities_Consistent>
1

> <s_lp_Variant>
AV-unprocessed.smi:1033-24

> <Gold.Version>
5.8.1

> <Gold.Id.Protein>
6NUR|6NUR_protein|mol2

> <Gold.PLP.Fitness>
49.5244

> <Gold.PLP.PLP>
-33.0005

> <Gold.PLP.part.hbond>
-5.0000

> <Gold.PLP.part.metal>
0.0000

> <Gold.PLP.part.buried>
-4.6256

> <Gold.PLP.part.nonpolar>
-23.8680

> <Gold.PLP.part.repulsive>
0.0000

> <Gold.PLP.ligand.clash>
0.0000

> <Gold.PLP.ligand.torsion>
0.8321

> <Gold.PLP.Chemscore.Hbond>
6.0000

> <Gold.PLP.Chemscore.CHOScore>
0.0000

> <Gold.PLP.Chemscore.Metal>
0.0000

> <Gold.Chemscore.Hbonds>
donor molecule, donor type, donor heavy atom, donor atom, acceptor molecule, acceptor atom, score
      L1  H    10    34       P1  7948  1.00
      L1  H    12    57       P1  7948  2.00
      L1  H    15    56       P1 10747  1.00
      L1  H    19    47       P1 10956  1.00
      P1  H  6896  6907       L1     5  1.00

> <Gold.PLP.Chemscore.Internal.Correction>
0.1881

> <Gold.Rescore>
     Score         DG    S(hbond)    S(metal)    S(lipo)     H(rot)  DE(clash)    DE(int)     intcor
     20.85     -21.80       4.72        0.00      73.27       3.14       0.06       0.89       ----

> <Gold.Chemscore.Fitness>
20.8502

> <Gold.Chemscore.DG>
-21.7952

> <Gold.Chemscore.ZeroCoef>
-5.4800

> <Gold.Chemscore.Hbond>
4.7233

> <Gold.Chemscore.Metal>
0.0000

> <Gold.Chemscore.Lipo>
73.2695

> <Gold.Chemscore.Internal_Hbond>
0.0000

> <Gold.Chemscore.DEClash>
0.0580

> <Gold.Chemscore.DEInternal>
0.8870

> <Gold.Chemscore.Rot>
3.1380

> <Gold.Chemscore.Internal.Correction>
   9.000000E+99

> <Gold.Chemscore.Hbonds>
donor molecule, donor type, donor heavy atom, donor atom, acceptor molecule, acceptor atom, score
      L1  H    10    34       P1  7948  0.91
      L1  H    12    57       P1  7948  1.00
      L1  H    15    56       P1 10747  0.94
      L1  H    19    47       P1 10956  0.85
      P1  H  6896  6907       L1     5  0.25

> <Gold.Chemscore.Hbond.Weighted>
-15.7759

> <Gold.Chemscore.Metal.Weighted>
-0.0000

> <Gold.Chemscore.Lipo.Weighted>
-8.5725

> <Gold.Chemscore.Internal_Hbond.Weighted>
0.0000

> <Gold.Chemscore.DEClash.Weighted>
0.0580

> <Gold.Chemscore.DEInternal.Weighted>
0.8870

> <Gold.Chemscore.Rot.Weighted>
8.0332

> <Gold.Chemscore.Internal.Correction.Weighted>
   9.000000E+99

> <Gold.Protein.RotatedTorsions>
[ 6907 6896 6895 6894 ] final  -39.77 input  -60.11 | X-H torsion
[ 7974 7965 7964 7962 ] final   57.79 input  175.53 | X-H torsion
[ 8008 7997 7996 7995 ] final  150.36 input   59.86 | X-H torsion
[ 10167 10162 10161 10158 ] final  -29.72 input  -65.29 | X-H torsion
[ 10718 10713 10712 10709 ] final   40.39 input   66.30 | X-H torsion
[ 10763 10752 10751 10750 ] final  -99.33 input  -60.55 | X-H torsion
[ 11005 11000 10999 10996 ] final   59.45 input  -57.11 | X-H torsion

> <Gold.Protein.ActiveResidues>
 VAL166  LYS551  ARG553  GLY616  TRP617  ASP618  TYR619  PRO620  LYS621  CYS622 
 ASP623  PHE694  ASN695  SER759  ASP760  ASP761  ALA762  ILE779  LEU786  VAL792 
 PHE793  MET794  SER795  GLU796  ALA797  LYS798  CYS799  TRP800  GLU811  SER814 

> <Gold.Protein.RotatedAtoms>
  150.9864  134.9208  159.7873 H   0  0  0  0  0  0  0  0  0  0  0  0  # atno 6907 bound_to 6896
  152.5238  134.3340  159.9203 H   0  0  0  0  0  0  0  0  0  0  0  0  # atno 6908 bound_to 6896
  151.3347  133.3945  159.2700 H   0  0  0  0  0  0  0  0  0  0  0  0  # atno 6909 bound_to 6896
  145.9252  139.3762  143.0454 H   0  0  0  0  0  0  0  0  0  0  0  0  # atno 7974 bound_to 7965
  156.2718  140.2077  156.6006 H   0  0  0  0  0  0  0  0  0  0  0  0  # atno 8008 bound_to 7997
  154.6910  140.0530  157.0387 H   0  0  0  0  0  0  0  0  0  0  0  0  # atno 8009 bound_to 7997
  155.0867  140.3192  155.4588 H   0  0  0  0  0  0  0  0  0  0  0  0  # atno 8010 bound_to 7997
  140.7257  143.3906  151.1436 H   0  0  0  0  0  0  0  0  0  0  0  0  # atno 10167 bound_to 10162
  157.3816  130.7756  149.7197 H   0  0  0  0  0  0  0  0  0  0  0  0  # atno 10718 bound_to 10713
  154.7489  135.4976  153.9253 H   0  0  0  0  0  0  0  0  0  0  0  0  # atno 10763 bound_to 10752
  153.1122  135.6712  153.9489 H   0  0  0  0  0  0  0  0  0  0  0  0  # atno 10764 bound_to 10752
  153.9245  135.3084  155.3426 H   0  0  0  0  0  0  0  0  0  0  0  0  # atno 10765 bound_to 10752
  140.0303  134.6022  155.9516 H   0  0  0  0  0  0  0  0  0  0  0  0  # atno 11005 bound_to 11000
  145.8498  140.9535  143.0755 LP  0  0  0  0  0  0  0  0  0  0  0  0  # atno 17320 bound_to 7965
  144.6757  140.0392  143.7481 LP  0  0  0  0  0  0  0  0  0  0  0  0  # atno 17321 bound_to 7965
  139.7510  143.8778  152.3077 LP  0  0  0  0  0  0  0  0  0  0  0  0  # atno 17342 bound_to 10162
  139.8632  144.7106  150.9075 LP  0  0  0  0  0  0  0  0  0  0  0  0  # atno 17343 bound_to 10162
  155.9777  130.4060  150.3695 LP  0  0  0  0  0  0  0  0  0  0  0  0  # atno 17370 bound_to 10713
  157.1800  131.0390  151.2753 LP  0  0  0  0  0  0  0  0  0  0  0  0  # atno 17371 bound_to 10713
  141.1827  133.6549  156.5087 LP  0  0  0  0  0  0  0  0  0  0  0  0  # atno 17394 bound_to 11000
  140.4237  134.7164  157.4904 LP  0  0  0  0  0  0  0  0  0  0  0  0  # atno 17395 bound_to 11000

$$$$
