AV-unprocessed.smi:2902|AV-procd|sdf|11155|dock10
  -GOLD-   2272016 43D 1   1.00000     0.00000
 Structure written by MMmdl.
 47 48  0  0  0  0  0  0  0  0  1 V2000
  151.5945  139.8865  155.2373 C   0  0  0  0  0  0  0  0  0  0  0  0
  151.2897  138.9757  154.0381 C   0  0  0  0  0  0  0  0  0  0  0  0
  149.9850  138.1665  154.1807 C   0  0  2  0  0  0  0  0  0  0  0  0
  148.9772  139.0661  154.6327 O   0  0  0  0  0  0  0  0  0  0  0  0
  148.7875  140.2384  153.8430 C   0  0  0  0  0  0  0  0  0  0  0  0
  148.8529  141.4583  154.7621 C   0  0  0  0  0  0  0  0  0  0  0  0
  147.4624  141.5683  155.4008 C   0  0  0  0  0  0  0  0  0  0  0  0
  146.5095  140.7541  154.5114 C   0  0  0  0  0  0  0  0  0  0  0  0
  147.3478  140.2569  153.3294 C   0  0  0  0  0  0  0  0  0  0  0  0
  150.1211  137.0016  155.1767 C   0  0  0  0  0  0  0  0  0  0  0  0
  150.4088  137.2214  156.3533 O   0  0  0  0  0  0  0  0  0  0  0  0
  149.8980  135.7738  154.6838 N   0  0  0  0  0  0  0  0  0  0  0  0
  149.9613  134.5141  155.4247 C   0  0  2  0  0  0  0  0  0  0  0  0
  151.1895  134.5385  156.3498 C   0  0  0  0  0  0  0  0  0  0  0  0
  149.9357  133.2930  154.4669 C   0  0  1  0  0  0  0  0  0  0  0  0
  150.7332  132.0873  154.9999 C   0  0  0  0  0  0  0  0  0  0  0  0
  148.5838  132.9097  154.0721 N   0  0  0  0  0  0  0  0  0  0  0  0
  147.9410  133.0940  152.9169 C   0  0  0  0  0  0  0  0  0  0  0  0
  146.6958  132.6389  152.9147 N   0  0  0  0  0  0  0  0  0  0  0  0
  146.6272  132.1561  154.1905 C   0  0  0  0  0  0  0  0  0  0  0  0
  147.7278  132.2982  154.9285 N   0  0  0  0  0  0  0  0  0  0  0  0
  152.5517  140.3910  155.1047 H   0  0  0  0  0  0  0  0  0  0  0  0
  151.6473  139.3124  156.1626 H   0  0  0  0  0  0  0  0  0  0  0  0
  150.8329  140.6564  155.3625 H   0  0  0  0  0  0  0  0  0  0  0  0
  151.2642  139.5728  153.1254 H   0  0  0  0  0  0  0  0  0  0  0  0
  152.1201  138.2801  153.9136 H   0  0  0  0  0  0  0  0  0  0  0  0
  149.7063  137.7887  153.1947 H   0  0  0  0  0  0  0  0  0  0  0  0
  149.5086  140.3209  153.0282 H   0  0  0  0  0  0  0  0  0  0  0  0
  149.6521  141.3864  155.5007 H   0  0  0  0  0  0  0  0  0  0  0  0
  149.0431  142.3486  154.1613 H   0  0  0  0  0  0  0  0  0  0  0  0
  147.4742  141.1514  156.4089 H   0  0  0  0  0  0  0  0  0  0  0  0
  147.1497  142.6099  155.4825 H   0  0  0  0  0  0  0  0  0  0  0  0
  146.1222  139.9032  155.0737 H   0  0  0  0  0  0  0  0  0  0  0  0
  145.6532  141.3413  154.1786 H   0  0  0  0  0  0  0  0  0  0  0  0
  147.2681  140.9683  152.5066 H   0  0  0  0  0  0  0  0  0  0  0  0
  147.0191  139.2863  152.9563 H   0  0  0  0  0  0  0  0  0  0  0  0
  149.6510  135.7039  153.7069 H   0  0  0  0  0  0  0  0  0  0  0  0
  149.0850  134.4276  156.0689 H   0  0  0  0  0  0  0  0  0  0  0  0
  151.2708  133.6111  156.9174 H   0  0  0  0  0  0  0  0  0  0  0  0
  151.1192  135.3566  157.0675 H   0  0  0  0  0  0  0  0  0  0  0  0
  152.1165  134.6711  155.7911 H   0  0  0  0  0  0  0  0  0  0  0  0
  150.4382  133.6073  153.5508 H   0  0  0  0  0  0  0  0  0  0  0  0
  151.7606  132.3701  155.2303 H   0  0  0  0  0  0  0  0  0  0  0  0
  150.7702  131.2863  154.2610 H   0  0  0  0  0  0  0  0  0  0  0  0
  150.2943  131.6754  155.9077 H   0  0  0  0  0  0  0  0  0  0  0  0
  148.3914  133.5757  152.0616 H   0  0  0  0  0  0  0  0  0  0  0  0
  145.7382  131.6898  154.5893 H   0  0  0  0  0  0  0  0  0  0  0  0
  1  2  1  0  0  0  0
  1 22  1  0  0  0  0
  1 23  1  0  0  0  0
  1 24  1  0  0  0  0
  2  3  1  0  0  0  0
  2 25  1  0  0  0  0
  2 26  1  0  0  0  0
  3  4  1  0  0  0  0
  3 10  1  0  0  0  0
  3 27  1  0  0  0  0
  4  5  1  0  0  0  0
  5  9  1  0  0  0  0
  5  6  1  0  0  0  0
  5 28  1  0  0  0  0
  6  7  1  0  0  0  0
  6 29  1  0  0  0  0
  6 30  1  0  0  0  0
  7  8  1  0  0  0  0
  7 31  1  0  0  0  0
  7 32  1  0  0  0  0
  8  9  1  0  0  0  0
  8 33  1  0  0  0  0
  8 34  1  0  0  0  0
  9 35  1  0  0  0  0
  9 36  1  0  0  0  0
 10 11  2  0  0  0  0
 10 12  1  0  0  0  0
 12 13  1  0  0  0  0
 12 37  1  0  0  0  0
 13 14  1  0  0  0  0
 13 15  1  0  0  0  0
 13 38  1  0  0  0  0
 14 39  1  0  0  0  0
 14 40  1  0  0  0  0
 14 41  1  0  0  0  0
 15 16  1  0  0  0  0
 15 17  1  0  0  0  0
 15 42  1  0  0  0  0
 16 43  1  0  0  0  0
 16 44  1  0  0  0  0
 16 45  1  0  0  0  0
 17 21  1  0  0  0  0
 17 18  1  0  0  0  0
 18 19  2  0  0  0  0
 18 46  1  0  0  0  0
 19 20  1  0  0  0  0
 20 21  2  0  0  0  0
 20 47  1  0  0  0  0
M  END
> <s_m_source_file>
AV-unprocessed.smi

> <i_m_source_file_index>
2902

> <i_lp_mmshare_version>
43012

> <i_f3d_flags>
0

> <s_epik_input>
W0NIMl0xW0NIMl1bQ0gyXVtDSDJdW0NIXTFPW0NAQEhdKFtDSDJdW0NIM10pQyg9TylbTkhdW0NASF0oW0NIM10pW0NASF0oW0NIM10pbjJbY0hdbltjSF1uMg==

> <s_epik_cmdline>
J2VwaWtfcHl0aG9uJywgJy1waCcsICc3LjAnLCAnLXRuJywgJzgnLCAnLW1hJywgJzIwMCcsICctbWV0YWxfYmluZGluZycsICctaW1hZScsICc8aW5maWxlLm1hZT4nLCAnLW9tYWUnLCAnPG91dGZpbGUubWFlPic=

> <r_lp_tautomer_probability>
1

> <r_epik_Ionization_Penalty>
6.95617e-05

> <r_epik_Ionization_Penalty_Charging>
0

> <r_epik_Ionization_Penalty_Neutral>
6.95617e-05

> <r_epik_State_Penalty>
-0

> <r_epik_Charging_Adjusted_Penalty>
0

> <i_epik_Tot_Q>
0

> <i_epik_Tot_abs_Q>
0

> <r_epik_Metal_State_Penalty>
-0

> <b_epik_Metal_Only>
0

> <s_lp_Force_Field>
OPLS_2005

> <r_lp_Energy>
29.711

> <b_lp_Chiralities_Consistent>
1

> <s_lp_Variant>
AV-unprocessed.smi:2902-5

> <Gold.Version>
5.8.1

> <Gold.Id.Protein>
6NUR|6NUR_protein|mol2

> <Gold.PLP.Fitness>
37.8780

> <Gold.PLP.PLP>
-33.4252

> <Gold.PLP.part.hbond>
-1.0000

> <Gold.PLP.part.metal>
0.0000

> <Gold.PLP.part.buried>
-1.7798

> <Gold.PLP.part.nonpolar>
-30.1947

> <Gold.PLP.part.repulsive>
0.2754

> <Gold.PLP.ligand.clash>
0.0000

> <Gold.PLP.ligand.torsion>
1.9449

> <Gold.PLP.Chemscore.Hbond>
1.0000

> <Gold.PLP.Chemscore.CHOScore>
1.6600

> <Gold.PLP.Chemscore.Metal>
0.0000

> <Gold.Chemscore.Hbonds>
donor molecule, donor type, donor heavy atom, donor atom, acceptor molecule, acceptor atom, score
      L1  H    12    37       P1  7948  0.90
      L1  C    18    46       P1  7948  0.08

> <Gold.PLP.Chemscore.Internal.Correction>
0.3625

> <Gold.Rescore>
     Score         DG    S(hbond)    S(metal)    S(lipo)     H(rot)  DE(clash)    DE(int)     intcor
      7.99      -9.64       0.85        0.00      70.09       2.69       0.07       1.57       ----

> <Gold.Chemscore.Fitness>
7.9943

> <Gold.Chemscore.DG>
-9.6350

> <Gold.Chemscore.ZeroCoef>
-5.4800

> <Gold.Chemscore.Hbond>
0.8534

> <Gold.Chemscore.Metal>
0.0000

> <Gold.Chemscore.Lipo>
70.0870

> <Gold.Chemscore.Internal_Hbond>
0.0000

> <Gold.Chemscore.DEClash>
0.0673

> <Gold.Chemscore.DEInternal>
1.5735

> <Gold.Chemscore.Rot>
2.6935

> <Gold.Chemscore.Internal.Correction>
   9.000000E+99

> <Gold.Chemscore.Hbonds>
donor molecule, donor type, donor heavy atom, donor atom, acceptor molecule, acceptor atom, score
      L1  H    12    37       P1  7948  0.17

> <Gold.Chemscore.Hbond.Weighted>
-2.8502

> <Gold.Chemscore.Metal.Weighted>
-0.0000

> <Gold.Chemscore.Lipo.Weighted>
-8.2002

> <Gold.Chemscore.Internal_Hbond.Weighted>
0.0000

> <Gold.Chemscore.DEClash.Weighted>
0.0673

> <Gold.Chemscore.DEInternal.Weighted>
1.5735

> <Gold.Chemscore.Rot.Weighted>
6.8954

> <Gold.Chemscore.Internal.Correction.Weighted>
   9.000000E+99

> <Gold.Protein.RotatedTorsions>
[ 6907 6896 6895 6894 ] final  -11.03 input  -60.11 | X-H torsion
[ 7974 7965 7964 7962 ] final  -78.72 input  175.53 | X-H torsion
[ 8008 7997 7996 7995 ] final  167.78 input   59.86 | X-H torsion
[ 10167 10162 10161 10158 ] final  -15.52 input  -65.29 | X-H torsion
[ 10718 10713 10712 10709 ] final  167.04 input   66.30 | X-H torsion
[ 10763 10752 10751 10750 ] final -136.36 input  -60.55 | X-H torsion
[ 11005 11000 10999 10996 ] final   45.64 input  -57.11 | X-H torsion

> <Gold.Protein.ActiveResidues>
 VAL166  LYS551  ARG553  GLY616  TRP617  ASP618  TYR619  PRO620  LYS621  CYS622 
 ASP623  PHE694  ASN695  SER759  ASP760  ASP761  ALA762  ILE779  LEU786  VAL792 
 PHE793  MET794  SER795  GLU796  ALA797  LYS798  CYS799  TRP800  GLU811  SER814 

> <Gold.Protein.RotatedAtoms>
  151.3926  135.0958  159.9530 H   0  0  0  0  0  0  0  0  0  0  0  0  # atno 6907 bound_to 6896
  152.5075  133.8965  159.7430 H   0  0  0  0  0  0  0  0  0  0  0  0  # atno 6908 bound_to 6896
  150.9421  133.6588  159.2817 H   0  0  0  0  0  0  0  0  0  0  0  0  # atno 6909 bound_to 6896
  145.5827  140.9445  143.1335 H   0  0  0  0  0  0  0  0  0  0  0  0  # atno 7974 bound_to 7965
  156.1604  140.1608  156.8621 H   0  0  0  0  0  0  0  0  0  0  0  0  # atno 8008 bound_to 7997
  154.5155  140.0790  156.8109 H   0  0  0  0  0  0  0  0  0  0  0  0  # atno 8009 bound_to 7997
  155.3718  140.3400  155.4246 H   0  0  0  0  0  0  0  0  0  0  0  0  # atno 8010 bound_to 7997
  140.7219  143.5210  150.9634 H   0  0  0  0  0  0  0  0  0  0  0  0  # atno 10167 bound_to 10162
  157.0572  131.0330  151.2660 H   0  0  0  0  0  0  0  0  0  0  0  0  # atno 10718 bound_to 10713
  154.8685  135.3675  154.5048 H   0  0  0  0  0  0  0  0  0  0  0  0  # atno 10763 bound_to 10752
  153.5686  135.7021  153.5519 H   0  0  0  0  0  0  0  0  0  0  0  0  # atno 10764 bound_to 10752
  153.3562  135.4058  155.1647 H   0  0  0  0  0  0  0  0  0  0  0  0  # atno 10765 bound_to 10752
  140.1441  134.4545  155.8428 H   0  0  0  0  0  0  0  0  0  0  0  0  # atno 11005 bound_to 11000
  144.7386  139.7513  143.7319 LP  0  0  0  0  0  0  0  0  0  0  0  0  # atno 17320 bound_to 7965
  146.1704  139.4852  142.9931 LP  0  0  0  0  0  0  0  0  0  0  0  0  # atno 17321 bound_to 7965
  139.8927  143.6933  152.3143 LP  0  0  0  0  0  0  0  0  0  0  0  0  # atno 17342 bound_to 10162
  139.7254  144.7594  151.0887 LP  0  0  0  0  0  0  0  0  0  0  0  0  # atno 17343 bound_to 10162
  157.4983  130.7864  149.7578 LP  0  0  0  0  0  0  0  0  0  0  0  0  # atno 17370 bound_to 10713
  155.9989  130.3891  150.2683 LP  0  0  0  0  0  0  0  0  0  0  0  0  # atno 17371 bound_to 10713
  141.2190  133.6845  156.7301 LP  0  0  0  0  0  0  0  0  0  0  0  0  # atno 17394 bound_to 11000
  140.2686  134.8410  157.3826 LP  0  0  0  0  0  0  0  0  0  0  0  0  # atno 17395 bound_to 11000

$$$$
