AV-unprocessed.smi:1830|AV-procd|sdf|7434|dock8
  -GOLD-   22720 9123D 1   1.00000     0.00000
 Structure written by MMmdl.
 53 56  0  0  0  0  0  0  0  0  2 V2000
  149.0758  132.8840  158.5857 O   0  0  0  0  0  0  0  0  0  0  0  0
  148.4737  133.7992  158.0247 C   0  0  0  0  0  0  0  0  0  0  0  0
  148.3704  133.9106  156.6931 N   0  0  0  0  0  0  0  0  0  0  0  0
  148.9607  132.9915  155.7257 C   0  0  0  0  0  0  0  0  0  0  0  0
  147.9687  132.6334  154.6049 C   0  0  2  0  0  0  0  0  0  0  0  0
  148.6683  131.9305  153.4252 C   0  0  0  0  0  0  0  0  0  0  0  0
  147.7449  131.7009  152.2890 N   0  3  1  0  0  0  0  0  0  0  0  0
  146.8473  130.5294  152.3947 C   0  0  0  0  0  0  0  0  0  0  0  0
  145.5696  130.8930  151.6215 C   0  0  0  0  0  0  0  0  0  0  0  0
  145.8305  132.2823  151.0302 C   0  0  0  0  0  0  0  0  0  0  0  0
  146.9222  132.8724  151.9240 C   0  0  1  0  0  0  0  0  0  0  0  0
  146.3416  133.5652  153.1768 C   0  0  0  0  0  0  0  0  0  0  0  0
  147.3762  133.8298  154.1123 O   0  0  0  0  0  0  0  0  0  0  0  0
  147.8615  134.8215  158.6448 N   0  0  0  0  0  0  0  0  0  0  0  0
  147.7832  135.0881  160.0414 C   0  0  0  0  0  0  0  0  0  0  0  0
  147.6595  134.0466  160.9935 C   0  0  0  0  0  0  0  0  0  0  0  0
  147.6022  134.3649  162.3613 C   0  0  0  0  0  0  0  0  0  0  0  0
  147.6678  135.7181  162.7318 C   0  0  0  0  0  0  0  0  0  0  0  0
  147.7667  136.7220  161.8378 N   0  0  0  0  0  0  0  0  0  0  0  0
  147.8076  136.4318  160.5139 C   0  0  0  0  0  0  0  0  0  0  0  0
  147.8892  137.5260  159.6223 N   0  0  0  0  0  0  0  0  0  0  0  0
  146.7816  137.8292  158.7221 C   0  0  0  0  0  0  0  0  0  0  0  0
  147.3674  138.7802  157.6829 C   0  0  0  0  0  0  0  0  0  0  0  0
  148.7873  138.2467  157.5191 C   0  0  0  0  0  0  0  0  0  0  0  0
  149.1509  137.7421  158.9201 C   0  0  0  0  0  0  0  0  0  0  0  0
  147.8556  134.6953  156.3211 H   0  0  0  0  0  0  0  0  0  0  0  0
  149.8833  133.4017  155.3111 H   0  0  0  0  0  0  0  0  0  0  0  0
  149.2427  132.0883  156.2674 H   0  0  0  0  0  0  0  0  0  0  0  0
  147.1961  131.9831  155.0194 H   0  0  0  0  0  0  0  0  0  0  0  0
  149.4859  132.5571  153.0663 H   0  0  0  0  0  0  0  0  0  0  0  0
  149.1135  130.9851  153.7380 H   0  0  0  0  0  0  0  0  0  0  0  0
  147.3384  129.6498  151.9777 H   0  0  0  0  0  0  0  0  0  0  0  0
  146.6041  130.3106  153.4352 H   0  0  0  0  0  0  0  0  0  0  0  0
  145.3337  130.1623  150.8472 H   0  0  0  0  0  0  0  0  0  0  0  0
  144.7212  130.9300  152.3062 H   0  0  0  0  0  0  0  0  0  0  0  0
  146.2113  132.1772  150.0133 H   0  0  0  0  0  0  0  0  0  0  0  0
  144.9325  132.8995  150.9827 H   0  0  0  0  0  0  0  0  0  0  0  0
  147.5362  133.5865  151.3735 H   0  0  0  0  0  0  0  0  0  0  0  0
  145.8706  134.5079  152.8975 H   0  0  0  0  0  0  0  0  0  0  0  0
  145.5675  132.9586  153.6498 H   0  0  0  0  0  0  0  0  0  0  0  0
  147.4964  135.5487  158.0476 H   0  0  0  0  0  0  0  0  0  0  0  0
  147.5988  133.0104  160.6981 H   0  0  0  0  0  0  0  0  0  0  0  0
  147.5118  133.5898  163.1078 H   0  0  0  0  0  0  0  0  0  0  0  0
  147.6313  136.0037  163.7727 H   0  0  0  0  0  0  0  0  0  0  0  0
  146.4254  136.9258  158.2254 H   0  0  0  0  0  0  0  0  0  0  0  0
  145.9458  138.2793  159.2582 H   0  0  0  0  0  0  0  0  0  0  0  0
  146.8029  138.7912  156.7501 H   0  0  0  0  0  0  0  0  0  0  0  0
  147.3937  139.7967  158.0781 H   0  0  0  0  0  0  0  0  0  0  0  0
  148.7845  137.4108  156.8179 H   0  0  0  0  0  0  0  0  0  0  0  0
  149.4839  138.9970  157.1445 H   0  0  0  0  0  0  0  0  0  0  0  0
  149.7232  138.5035  159.4508 H   0  0  0  0  0  0  0  0  0  0  0  0
  149.7548  136.8346  158.8715 H   0  0  0  0  0  0  0  0  0  0  0  0
  148.3224  131.5108  151.4822 H   0  0  0  0  0  0  0  0  0  0  0  0
  1  2  2  0  0  0  0
  2  3  1  0  0  0  0
  2 14  1  0  0  0  0
  3  4  1  0  0  0  0
  3 26  1  0  0  0  0
  4  5  1  0  0  0  0
  4 27  1  0  0  0  0
  4 28  1  0  0  0  0
  5 13  1  0  0  0  0
  5  6  1  0  0  0  0
  5 29  1  0  0  0  0
  6  7  1  0  0  0  0
  6 30  1  0  0  0  0
  6 31  1  0  0  0  0
  7 11  1  0  0  0  0
  7  8  1  0  0  0  0
  7 53  1  0  0  0  0
  8  9  1  0  0  0  0
  8 32  1  0  0  0  0
  8 33  1  0  0  0  0
  9 10  1  0  0  0  0
  9 34  1  0  0  0  0
  9 35  1  0  0  0  0
 10 11  1  0  0  0  0
 10 36  1  0  0  0  0
 10 37  1  0  0  0  0
 11 12  1  0  0  0  0
 11 38  1  0  0  0  0
 12 13  1  0  0  0  0
 12 39  1  0  0  0  0
 12 40  1  0  0  0  0
 14 15  1  0  0  0  0
 14 41  1  0  0  0  0
 15 20  1  0  0  0  0
 15 16  2  0  0  0  0
 16 17  1  0  0  0  0
 16 42  1  0  0  0  0
 17 18  2  0  0  0  0
 17 43  1  0  0  0  0
 18 19  1  0  0  0  0
 18 44  1  0  0  0  0
 19 20  2  0  0  0  0
 20 21  1  0  0  0  0
 21 25  1  0  0  0  0
 21 22  1  0  0  0  0
 22 23  1  0  0  0  0
 22 45  1  0  0  0  0
 22 46  1  0  0  0  0
 23 24  1  0  0  0  0
 23 47  1  0  0  0  0
 23 48  1  0  0  0  0
 24 25  1  0  0  0  0
 24 49  1  0  0  0  0
 24 50  1  0  0  0  0
 25 51  1  0  0  0  0
 25 52  1  0  0  0  0
M  CHG  1   7   1
M  END
> <s_m_source_file>
AV-unprocessed.smi

> <i_m_source_file_index>
1830

> <i_lp_mmshare_version>
43012

> <i_f3d_flags>
0

> <s_epik_input>
W0NIMl0xW0NIMl1bQ0gyXVtDQEhdKE4xMilbQ0gyXU9bQ0BASF0oW0NIMl0yKVtDSDJdW05IXUMoPU8pW05IXWMzW2NIXVtjSF1bY0hdbmMzTjRbQ0gyXVtDSDJdW0NIMl1bQ0gyXTQ=

> <s_epik_cmdline>
J2VwaWtfcHl0aG9uJywgJy1waCcsICc3LjAnLCAnLXRuJywgJzgnLCAnLW1hJywgJzIwMCcsICctbWV0YWxfYmluZGluZycsICctaW1hZScsICc8aW5maWxlLm1hZT4nLCAnLW9tYWUnLCAnPG91dGZpbGUubWFlPic=

> <r_lp_tautomer_probability>
1

> <r_epik_Ionization_Penalty>
0.193547

> <r_epik_Ionization_Penalty_Charging>
0.10673

> <r_epik_Ionization_Penalty_Neutral>
0.0868166

> <r_epik_State_Penalty>
0.173595

> <r_epik_Charging_Adjusted_Penalty>
0.280326

> <i_epik_Tot_Q>
1

> <i_epik_Tot_abs_Q>
1

> <r_epik_Metal_State_Penalty>
0.164683

> <b_epik_Metal_Only>
0

> <s_lp_Force_Field>
OPLS_2005

> <r_lp_Energy>
64.5086

> <b_lp_Chiralities_Consistent>
1

> <s_lp_Variant>
AV-unprocessed.smi:1830-3

> <Gold.Version>
5.8.1

> <Gold.Id.Protein>
6NUR|6NUR_protein|mol2

> <Gold.PLP.Fitness>
45.5087

> <Gold.PLP.PLP>
-36.2917

> <Gold.PLP.part.hbond>
-4.3547

> <Gold.PLP.part.metal>
0.0000

> <Gold.PLP.part.buried>
-5.1928

> <Gold.PLP.part.nonpolar>
-27.9008

> <Gold.PLP.part.repulsive>
0.1467

> <Gold.PLP.ligand.clash>
0.0000

> <Gold.PLP.ligand.torsion>
0.5928

> <Gold.PLP.Chemscore.Hbond>
3.3625

> <Gold.PLP.Chemscore.CHOScore>
0.0000

> <Gold.PLP.Chemscore.Metal>
0.0000

> <Gold.Chemscore.Hbonds>
donor molecule, donor type, donor heavy atom, donor atom, acceptor molecule, acceptor atom, score
      L1  H     7    53       P1 10747  0.96
      P1  H  6896  6908       L1     1  0.98
      P1  H  6931  6943       L1    19  1.00
      P1  H  6934  6947       L1    21  0.23

> <Gold.PLP.Chemscore.Internal.Correction>
0.3151

> <Gold.Rescore>
     Score         DG    S(hbond)    S(metal)    S(lipo)     H(rot)  DE(clash)    DE(int)     intcor
     19.00     -20.45       2.63        0.00      83.81       1.41       0.04       1.41       ----

> <Gold.Chemscore.Fitness>
18.9959

> <Gold.Chemscore.DG>
-20.4538

> <Gold.Chemscore.ZeroCoef>
-5.4800

> <Gold.Chemscore.Hbond>
2.6256

> <Gold.Chemscore.Metal>
0.0000

> <Gold.Chemscore.Lipo>
83.8057

> <Gold.Chemscore.Internal_Hbond>
0.0000

> <Gold.Chemscore.DEClash>
0.0446

> <Gold.Chemscore.DEInternal>
1.4133

> <Gold.Chemscore.Rot>
1.4067

> <Gold.Chemscore.Internal.Correction>
   9.000000E+99

> <Gold.Chemscore.Hbonds>
donor molecule, donor type, donor heavy atom, donor atom, acceptor molecule, acceptor atom, score
      L1  H     7    53       P1 10747  0.91
      P1  H  6896  6908       L1     1  0.41
      P1  H  6931  6943       L1    19  0.29

> <Gold.Chemscore.Hbond.Weighted>
-8.7697

> <Gold.Chemscore.Metal.Weighted>
-0.0000

> <Gold.Chemscore.Lipo.Weighted>
-9.8053

> <Gold.Chemscore.Internal_Hbond.Weighted>
0.0000

> <Gold.Chemscore.DEClash.Weighted>
0.0446

> <Gold.Chemscore.DEInternal.Weighted>
1.4133

> <Gold.Chemscore.Rot.Weighted>
3.6011

> <Gold.Chemscore.Internal.Correction.Weighted>
   9.000000E+99

> <Gold.Protein.RotatedTorsions>
[ 6907 6896 6895 6894 ] final  119.16 input  -60.11 | X-H torsion
[ 7974 7965 7964 7962 ] final   39.42 input  175.53 | X-H torsion
[ 8008 7997 7996 7995 ] final  -58.15 input   59.86 | X-H torsion
[ 10167 10162 10161 10158 ] final  -50.16 input  -65.29 | X-H torsion
[ 10718 10713 10712 10709 ] final   54.75 input   66.30 | X-H torsion
[ 10763 10752 10751 10750 ] final  -35.56 input  -60.55 | X-H torsion
[ 11005 11000 10999 10996 ] final  105.62 input  -57.11 | X-H torsion

> <Gold.Protein.ActiveResidues>
 VAL166  LYS551  ARG553  GLY616  TRP617  ASP618  TYR619  PRO620  LYS621  CYS622 
 ASP623  PHE694  ASN695  SER759  ASP760  ASP761  ALA762  ILE779  LEU786  VAL792 
 PHE793  MET794  SER795  GLU796  ALA797  LYS798  CYS799  TRP800  GLU811  SER814 

> <Gold.Protein.RotatedAtoms>
  152.4491  133.7594  159.6738 H   0  0  0  0  0  0  0  0  0  0  0  0  # atno 6907 bound_to 6896
  150.8399  133.7943  159.3071 H   0  0  0  0  0  0  0  0  0  0  0  0  # atno 6908 bound_to 6896
  151.5571  135.1069  160.0015 H   0  0  0  0  0  0  0  0  0  0  0  0  # atno 6909 bound_to 6896
  146.0986  139.5654  142.9429 H   0  0  0  0  0  0  0  0  0  0  0  0  # atno 7974 bound_to 7965
  154.4297  140.1090  156.5911 H   0  0  0  0  0  0  0  0  0  0  0  0  # atno 8008 bound_to 7997
  155.6010  140.3493  155.4575 H   0  0  0  0  0  0  0  0  0  0  0  0  # atno 8009 bound_to 7997
  156.0173  140.1232  157.0383 H   0  0  0  0  0  0  0  0  0  0  0  0  # atno 8010 bound_to 7997
  140.6651  143.2668  151.4319 H   0  0  0  0  0  0  0  0  0  0  0  0  # atno 10167 bound_to 10162
  157.5285  130.8614  149.8654 H   0  0  0  0  0  0  0  0  0  0  0  0  # atno 10718 bound_to 10713
  153.8653  135.6836  153.4779 H   0  0  0  0  0  0  0  0  0  0  0  0  # atno 10763 bound_to 10752
  153.1318  135.4694  154.9359 H   0  0  0  0  0  0  0  0  0  0  0  0  # atno 10764 bound_to 10752
  154.7739  135.3247  154.8082 H   0  0  0  0  0  0  0  0  0  0  0  0  # atno 10765 bound_to 10752
  139.8804  134.9342  156.5542 H   0  0  0  0  0  0  0  0  0  0  0  0  # atno 11005 bound_to 11000
  145.5900  141.0371  143.2075 LP  0  0  0  0  0  0  0  0  0  0  0  0  # atno 17320 bound_to 7965
  144.7414  139.7437  143.7309 LP  0  0  0  0  0  0  0  0  0  0  0  0  # atno 17321 bound_to 7965
  139.5897  144.1527  152.2073 LP  0  0  0  0  0  0  0  0  0  0  0  0  # atno 17342 bound_to 10162
  140.0877  144.5647  150.7077 LP  0  0  0  0  0  0  0  0  0  0  0  0  # atno 17343 bound_to 10162
  156.0404  130.3740  150.1449 LP  0  0  0  0  0  0  0  0  0  0  0  0  # atno 17370 bound_to 10713
  156.9635  130.9812  151.3474 LP  0  0  0  0  0  0  0  0  0  0  0  0  # atno 17371 bound_to 10713
  140.8218  133.8348  155.8902 LP  0  0  0  0  0  0  0  0  0  0  0  0  # atno 17394 bound_to 11000
  140.9411  134.1899  157.4796 LP  0  0  0  0  0  0  0  0  0  0  0  0  # atno 17395 bound_to 11000

$$$$
