AV-unprocessed.smi:1824|AV-procd|sdf|7403|dock4
  -GOLD-   22720 9 73D 1   1.00000     0.00000
 Structure written by MMmdl.
 45 47  0  0  0  0  0  0  0  0  2 V2000
  144.4125  138.9698  156.3121 C   0  0  0  0  0  0  0  0  0  0  0  0
  145.6609  139.4613  155.5714 C   0  0  2  0  0  0  0  0  0  0  0  0
  146.8871  139.5590  156.4988 C   0  0  0  0  0  0  0  0  0  0  0  0
  148.0511  140.1090  155.7651 N   0  3  2  0  0  0  0  0  0  0  0  0
  149.2790  140.1574  156.5994 C   0  0  0  0  0  0  0  0  0  0  0  0
  150.4612  140.8331  155.8768 C   0  0  2  0  0  0  0  0  0  0  0  0
  150.8312  140.0331  154.7698 O   0  0  0  0  0  0  0  0  0  0  0  0
  151.6750  141.0071  156.8096 C   0  0  0  0  0  0  0  0  0  0  0  0
  151.4379  141.9869  157.8552 N   0  0  0  0  0  0  0  0  0  0  0  0
  150.5375  142.9885  157.8363 C   0  0  0  0  0  0  0  0  0  0  0  0
  150.4838  143.7796  158.9038 N   0  0  0  0  0  0  0  0  0  0  0  0
  151.4598  143.2246  159.7136 C   0  0  0  0  0  0  0  0  0  0  0  0
  151.9042  143.5985  161.0019 C   0  0  0  0  0  0  0  0  0  0  0  0
  152.9308  142.8734  161.6422 C   0  0  0  0  0  0  0  0  0  0  0  0
  153.3447  143.2449  162.8767 F   0  0  0  0  0  0  0  0  0  0  0  0
  153.5279  141.7656  161.0041 C   0  0  0  0  0  0  0  0  0  0  0  0
  154.5132  141.0754  161.6252 F   0  0  0  0  0  0  0  0  0  0  0  0
  153.1019  141.3749  159.7200 C   0  0  0  0  0  0  0  0  0  0  0  0
  152.0764  142.1002  159.0859 C   0  0  0  0  0  0  0  0  0  0  0  0
  147.7006  141.4106  155.1448 C   0  0  0  0  0  0  0  0  0  0  0  0
  146.4528  141.2639  154.2533 C   0  0  2  0  0  0  0  0  0  0  0  0
  146.0077  142.6031  153.6554 C   0  0  0  0  0  0  0  0  0  0  0  0
  145.3806  140.7499  155.0357 O   0  0  0  0  0  0  0  0  0  0  0  0
  144.5737  137.9803  156.7402 H   0  0  0  0  0  0  0  0  0  0  0  0
  143.5595  138.9042  155.6362 H   0  0  0  0  0  0  0  0  0  0  0  0
  144.1424  139.6463  157.1236 H   0  0  0  0  0  0  0  0  0  0  0  0
  145.8723  138.7703  154.7535 H   0  0  0  0  0  0  0  0  0  0  0  0
  146.6643  140.1956  157.3569 H   0  0  0  0  0  0  0  0  0  0  0  0
  147.1319  138.5694  156.8870 H   0  0  0  0  0  0  0  0  0  0  0  0
  149.0565  140.6717  157.5356 H   0  0  0  0  0  0  0  0  0  0  0  0
  149.5768  139.1442  156.8749 H   0  0  0  0  0  0  0  0  0  0  0  0
  150.1693  141.8147  155.5044 H   0  0  0  0  0  0  0  0  0  0  0  0
  150.0469  139.7802  154.3060 H   0  0  0  0  0  0  0  0  0  0  0  0
  151.9216  140.0568  157.2852 H   0  0  0  0  0  0  0  0  0  0  0  0
  152.5568  141.3074  156.2419 H   0  0  0  0  0  0  0  0  0  0  0  0
  149.8860  143.1476  156.9893 H   0  0  0  0  0  0  0  0  0  0  0  0
  151.4549  144.4450  161.4997 H   0  0  0  0  0  0  0  0  0  0  0  0
  153.5588  140.5279  159.2304 H   0  0  0  0  0  0  0  0  0  0  0  0
  147.5175  142.1490  155.9273 H   0  0  0  0  0  0  0  0  0  0  0  0
  148.5307  141.7818  154.5450 H   0  0  0  0  0  0  0  0  0  0  0  0
  146.6645  140.5730  153.4353 H   0  0  0  0  0  0  0  0  0  0  0  0
  146.7916  143.0359  153.0332 H   0  0  0  0  0  0  0  0  0  0  0  0
  145.7641  143.3236  154.4368 H   0  0  0  0  0  0  0  0  0  0  0  0
  145.1223  142.4764  153.0321 H   0  0  0  0  0  0  0  0  0  0  0  0
  148.2428  139.4608  155.0141 H   0  0  0  0  0  0  0  0  0  0  0  0
  1  2  1  0  0  0  0
  1 24  1  0  0  0  0
  1 25  1  0  0  0  0
  1 26  1  0  0  0  0
  2 23  1  0  0  0  0
  2  3  1  0  0  0  0
  2 27  1  0  0  0  0
  3  4  1  0  0  0  0
  3 28  1  0  0  0  0
  3 29  1  0  0  0  0
  4  5  1  0  0  0  0
  4 20  1  0  0  0  0
  4 45  1  0  0  0  0
  5  6  1  0  0  0  0
  5 30  1  0  0  0  0
  5 31  1  0  0  0  0
  6  7  1  0  0  0  0
  6  8  1  0  0  0  0
  6 32  1  0  0  0  0
  7 33  1  0  0  0  0
  8  9  1  0  0  0  0
  8 34  1  0  0  0  0
  8 35  1  0  0  0  0
  9 19  1  0  0  0  0
  9 10  1  0  0  0  0
 10 11  2  0  0  0  0
 10 36  1  0  0  0  0
 11 12  1  0  0  0  0
 12 19  2  0  0  0  0
 12 13  1  0  0  0  0
 13 14  2  0  0  0  0
 13 37  1  0  0  0  0
 14 15  1  0  0  0  0
 14 16  1  0  0  0  0
 16 17  1  0  0  0  0
 16 18  2  0  0  0  0
 18 19  1  0  0  0  0
 18 38  1  0  0  0  0
 20 21  1  0  0  0  0
 20 39  1  0  0  0  0
 20 40  1  0  0  0  0
 21 22  1  0  0  0  0
 21 23  1  0  0  0  0
 21 41  1  0  0  0  0
 22 42  1  0  0  0  0
 22 43  1  0  0  0  0
 22 44  1  0  0  0  0
M  CHG  1   4   1
M  END
> <s_m_source_file>
AV-unprocessed.smi

> <i_m_source_file_index>
1824

> <i_lp_mmshare_version>
43012

> <i_f3d_flags>
0

> <s_epik_input>
W0NIM11bQ0BASF0xW0NIMl1OKFtDSDJdW0NASF0oTzEpW0NIM10pW0NIMl1bQ0BIXShbT0hdKVtDSDJdbihbY0hdbjIpYyhjMjMpW2NIXWMoRiljKEYpW2NIXTM=

> <s_epik_cmdline>
J2VwaWtfcHl0aG9uJywgJy1waCcsICc3LjAnLCAnLXRuJywgJzgnLCAnLW1hJywgJzIwMCcsICctbWV0YWxfYmluZGluZycsICctaW1hZScsICc8aW5maWxlLm1hZT4nLCAnLW9tYWUnLCAnPG91dGZpbGUubWFlPic=

> <r_epik_Ionization_Penalty>
0.61967

> <r_epik_Ionization_Penalty_Charging>
0.608065

> <r_epik_Ionization_Penalty_Neutral>
0.0116057

> <r_epik_State_Penalty>
0.664205

> <r_epik_Charging_Adjusted_Penalty>
1.27227

> <i_epik_Tot_Q>
1

> <i_epik_Tot_abs_Q>
1

> <r_epik_Metal_State_Penalty>
0.654947

> <b_epik_Metal_Only>
0

> <s_lp_Force_Field>
OPLS_2005

> <r_lp_Energy>
19.9364

> <b_lp_Chiralities_Consistent>
1

> <s_lp_Variant>
AV-unprocessed.smi:1824-11

> <Gold.Version>
5.8.1

> <Gold.Id.Protein>
6NUR|6NUR_protein|mol2

> <Gold.PLP.Fitness>
50.1775

> <Gold.PLP.PLP>
-44.9807

> <Gold.PLP.part.hbond>
-1.0000

> <Gold.PLP.part.metal>
0.0000

> <Gold.PLP.part.buried>
-5.7336

> <Gold.PLP.part.nonpolar>
-37.2266

> <Gold.PLP.part.repulsive>
0.2366

> <Gold.PLP.ligand.clash>
0.0000

> <Gold.PLP.ligand.torsion>
0.4183

> <Gold.PLP.Chemscore.Hbond>
1.0000

> <Gold.PLP.Chemscore.CHOScore>
1.0000

> <Gold.PLP.Chemscore.Metal>
0.0000

> <Gold.Chemscore.Hbonds>
donor molecule, donor type, donor heavy atom, donor atom, acceptor molecule, acceptor atom, score
      P1  H  7989  7998       L1     7  0.95
      L1  C    10    36       P1  8028  1.00

> <Gold.PLP.Chemscore.Internal.Correction>
0.0333

> <Gold.Rescore>
     Score         DG    S(hbond)    S(metal)    S(lipo)     H(rot)  DE(clash)    DE(int)     intcor
     13.51     -13.93       0.92        0.00      96.82       2.33       0.02       0.39       ----

> <Gold.Chemscore.Fitness>
13.5148

> <Gold.Chemscore.DG>
-13.9282

> <Gold.Chemscore.ZeroCoef>
-5.4800

> <Gold.Chemscore.Hbond>
0.9198

> <Gold.Chemscore.Metal>
0.0000

> <Gold.Chemscore.Lipo>
96.8227

> <Gold.Chemscore.Internal_Hbond>
0.0000

> <Gold.Chemscore.DEClash>
0.0233

> <Gold.Chemscore.DEInternal>
0.3901

> <Gold.Chemscore.Rot>
2.3251

> <Gold.Chemscore.Internal.Correction>
   9.000000E+99

> <Gold.Chemscore.Hbonds>
donor molecule, donor type, donor heavy atom, donor atom, acceptor molecule, acceptor atom, score
      P1  H  7989  7998       L1     7  0.20

> <Gold.Chemscore.Hbond.Weighted>
-3.0722

> <Gold.Chemscore.Metal.Weighted>
-0.0000

> <Gold.Chemscore.Lipo.Weighted>
-11.3283

> <Gold.Chemscore.Internal_Hbond.Weighted>
0.0000

> <Gold.Chemscore.DEClash.Weighted>
0.0233

> <Gold.Chemscore.DEInternal.Weighted>
0.3901

> <Gold.Chemscore.Rot.Weighted>
5.9523

> <Gold.Chemscore.Internal.Correction.Weighted>
   9.000000E+99

> <Gold.Protein.RotatedTorsions>
[ 6907 6896 6895 6894 ] final  -25.66 input  -60.11 | X-H torsion
[ 7974 7965 7964 7962 ] final  165.45 input  175.53 | X-H torsion
[ 8008 7997 7996 7995 ] final  153.64 input   59.86 | X-H torsion
[ 10167 10162 10161 10158 ] final  129.93 input  -65.29 | X-H torsion
[ 10718 10713 10712 10709 ] final  153.63 input   66.30 | X-H torsion
[ 10763 10752 10751 10750 ] final  163.59 input  -60.55 | X-H torsion
[ 11005 11000 10999 10996 ] final  -12.91 input  -57.11 | X-H torsion

> <Gold.Protein.ActiveResidues>
 VAL166  LYS551  ARG553  GLY616  TRP617  ASP618  TYR619  PRO620  LYS621  CYS622 
 ASP623  PHE694  ASN695  SER759  ASP760  ASP761  ALA762  ILE779  LEU786  VAL792 
 PHE793  MET794  SER795  GLU796  ALA797  LYS798  CYS799  TRP800  GLU811  SER814 

> <Gold.Protein.RotatedAtoms>
  151.1720  135.0322  159.8755 H   0  0  0  0  0  0  0  0  0  0  0  0  # atno 6907 bound_to 6896
  152.5448  134.1159  159.8388 H   0  0  0  0  0  0  0  0  0  0  0  0  # atno 6908 bound_to 6896
  151.1266  133.5019  159.2633 H   0  0  0  0  0  0  0  0  0  0  0  0  # atno 6909 bound_to 6896
  144.7502  139.8472  143.6369 H   0  0  0  0  0  0  0  0  0  0  0  0  # atno 7974 bound_to 7965
  156.2571  140.1988  156.6522 H   0  0  0  0  0  0  0  0  0  0  0  0  # atno 8008 bound_to 7997
  154.6528  140.0570  157.0000 H   0  0  0  0  0  0  0  0  0  0  0  0  # atno 8009 bound_to 7997
  155.1392  140.3241  155.4459 H   0  0  0  0  0  0  0  0  0  0  0  0  # atno 8010 bound_to 7997
  139.5454  144.6768  151.4490 H   0  0  0  0  0  0  0  0  0  0  0  0  # atno 10167 bound_to 10162
  157.2423  131.0761  151.1784 H   0  0  0  0  0  0  0  0  0  0  0  0  # atno 10718 bound_to 10713
  154.2960  135.2760  155.2633 H   0  0  0  0  0  0  0  0  0  0  0  0  # atno 10763 bound_to 10752
  154.5091  135.5787  153.6594 H   0  0  0  0  0  0  0  0  0  0  0  0  # atno 10764 bound_to 10752
  152.9907  135.6176  154.3128 H   0  0  0  0  0  0  0  0  0  0  0  0  # atno 10765 bound_to 10752
  140.7707  133.8441  155.9204 H   0  0  0  0  0  0  0  0  0  0  0  0  # atno 11005 bound_to 11000
  146.1441  139.4506  143.0090 LP  0  0  0  0  0  0  0  0  0  0  0  0  # atno 17320 bound_to 7965
  145.6972  141.0147  143.1523 LP  0  0  0  0  0  0  0  0  0  0  0  0  # atno 17321 bound_to 7965
  140.6700  143.8314  150.6988 LP  0  0  0  0  0  0  0  0  0  0  0  0  # atno 17342 bound_to 10162
  140.1736  143.4174  152.1983 LP  0  0  0  0  0  0  0  0  0  0  0  0  # atno 17343 bound_to 10162
  157.3366  130.7012  149.6356 LP  0  0  0  0  0  0  0  0  0  0  0  0  # atno 17370 bound_to 10713
  155.9669  130.4292  150.4821 LP  0  0  0  0  0  0  0  0  0  0  0  0  # atno 17371 bound_to 10713
  140.9577  134.1697  157.4679 LP  0  0  0  0  0  0  0  0  0  0  0  0  # atno 17394 bound_to 11000
  139.8756  134.9933  156.5638 LP  0  0  0  0  0  0  0  0  0  0  0  0  # atno 17395 bound_to 11000

$$$$
