AV-unprocessed.smi:2113|AV-procd|sdf|8616|dock5
  -GOLD-   2272011363D 1   1.00000     0.00000
 Structure written by MMmdl.
 44 45  0  0  0  0  0  0  0  0  1 V2000
  148.6806  132.9167  153.3008 C   0  0  0  0  0  0  0  0  0  0  0  0
  147.5099  132.9925  152.3183 C   0  0  0  0  0  0  0  0  0  0  0  0
  146.8277  134.2250  152.5172 O   0  0  0  0  0  0  0  0  0  0  0  0
  146.0557  134.6859  151.4109 C   0  0  1  0  0  0  0  0  0  0  0  0
  144.8730  133.7215  151.2380 C   0  0  0  0  0  0  0  0  0  0  0  0
  145.5706  136.1239  151.6531 C   0  0  0  0  0  0  0  0  0  0  0  0
  144.3722  136.3566  151.8148 O   0  0  0  0  0  0  0  0  0  0  0  0
  146.5149  137.0773  151.6798 N   0  0  0  0  0  0  0  0  0  0  0  0
  146.2539  138.5005  151.8638 C   0  0  0  0  0  0  0  0  0  0  0  0
  147.1003  139.1243  152.9608 C   0  0  0  0  0  0  0  0  0  0  0  0
  147.1622  140.5217  153.1314 C   0  0  0  0  0  0  0  0  0  0  0  0
  147.9508  141.0482  154.1718 C   0  0  0  0  0  0  0  0  0  0  0  0
  148.6604  140.1616  155.0166 C   0  0  0  0  0  0  0  0  0  0  0  0
  149.4482  140.6667  156.0733 N   0  0  0  0  0  0  0  0  0  0  0  0
  150.4055  141.7087  155.7110 C   0  0  0  0  0  0  0  0  0  0  0  0
  150.9618  142.3874  156.9747 C   0  0  0  0  0  0  0  0  0  0  0  0
  151.5134  141.4066  157.8468 O   0  0  0  0  0  0  0  0  0  0  0  0
  150.5327  140.4676  158.2755 C   0  0  0  0  0  0  0  0  0  0  0  0
  149.9666  139.7184  157.0576 C   0  0  0  0  0  0  0  0  0  0  0  0
  148.5986  138.8174  154.8465 N   0  0  0  0  0  0  0  0  0  0  0  0
  147.8430  138.3178  153.8461 C   0  0  0  0  0  0  0  0  0  0  0  0
  149.2288  131.9820  153.1825 H   0  0  0  0  0  0  0  0  0  0  0  0
  148.3305  132.9710  154.3319 H   0  0  0  0  0  0  0  0  0  0  0  0
  149.3801  133.7373  153.1404 H   0  0  0  0  0  0  0  0  0  0  0  0
  147.8852  132.9123  151.2977 H   0  0  0  0  0  0  0  0  0  0  0  0
  146.8319  132.1552  152.4881 H   0  0  0  0  0  0  0  0  0  0  0  0
  146.6627  134.6479  150.5041 H   0  0  0  0  0  0  0  0  0  0  0  0
  144.2281  134.0289  150.4143 H   0  0  0  0  0  0  0  0  0  0  0  0
  144.2622  133.6683  152.1403 H   0  0  0  0  0  0  0  0  0  0  0  0
  145.2251  132.7130  151.0210 H   0  0  0  0  0  0  0  0  0  0  0  0
  147.4765  136.7997  151.5477 H   0  0  0  0  0  0  0  0  0  0  0  0
  146.4016  139.0306  150.9212 H   0  0  0  0  0  0  0  0  0  0  0  0
  145.2033  138.6247  152.1268 H   0  0  0  0  0  0  0  0  0  0  0  0
  146.6097  141.1827  152.4799 H   0  0  0  0  0  0  0  0  0  0  0  0
  147.9867  142.1170  154.3204 H   0  0  0  0  0  0  0  0  0  0  0  0
  151.2188  141.2559  155.1426 H   0  0  0  0  0  0  0  0  0  0  0  0
  149.9557  142.4667  155.0715 H   0  0  0  0  0  0  0  0  0  0  0  0
  151.7412  143.1002  156.7051 H   0  0  0  0  0  0  0  0  0  0  0  0
  150.1807  142.9494  157.4895 H   0  0  0  0  0  0  0  0  0  0  0  0
  150.9930  139.7631  158.9681 H   0  0  0  0  0  0  0  0  0  0  0  0
  149.7382  140.9783  158.8223 H   0  0  0  0  0  0  0  0  0  0  0  0
  149.1753  139.0428  157.3851 H   0  0  0  0  0  0  0  0  0  0  0  0
  150.7466  139.1101  156.5977 H   0  0  0  0  0  0  0  0  0  0  0  0
  147.8260  137.2417  153.7575 H   0  0  0  0  0  0  0  0  0  0  0  0
  1  2  1  0  0  0  0
  1 22  1  0  0  0  0
  1 23  1  0  0  0  0
  1 24  1  0  0  0  0
  2  3  1  0  0  0  0
  2 25  1  0  0  0  0
  2 26  1  0  0  0  0
  3  4  1  0  0  0  0
  4  5  1  0  0  0  0
  4  6  1  0  0  0  0
  4 27  1  0  0  0  0
  5 28  1  0  0  0  0
  5 29  1  0  0  0  0
  5 30  1  0  0  0  0
  6  7  2  0  0  0  0
  6  8  1  0  0  0  0
  8  9  1  0  0  0  0
  8 31  1  0  0  0  0
  9 10  1  0  0  0  0
  9 32  1  0  0  0  0
  9 33  1  0  0  0  0
 10 21  1  0  0  0  0
 10 11  2  0  0  0  0
 11 12  1  0  0  0  0
 11 34  1  0  0  0  0
 12 13  2  0  0  0  0
 12 35  1  0  0  0  0
 13 14  1  0  0  0  0
 13 20  1  0  0  0  0
 14 19  1  0  0  0  0
 14 15  1  0  0  0  0
 15 16  1  0  0  0  0
 15 36  1  0  0  0  0
 15 37  1  0  0  0  0
 16 17  1  0  0  0  0
 16 38  1  0  0  0  0
 16 39  1  0  0  0  0
 17 18  1  0  0  0  0
 18 19  1  0  0  0  0
 18 40  1  0  0  0  0
 18 41  1  0  0  0  0
 19 42  1  0  0  0  0
 19 43  1  0  0  0  0
 20 21  2  0  0  0  0
 21 44  1  0  0  0  0
M  END
> <s_m_source_file>
AV-unprocessed.smi

> <i_m_source_file_index>
2113

> <i_lp_mmshare_version>
43012

> <i_f3d_flags>
0

> <s_epik_input>
W0NIM11bQ0gyXU9bQ0BIXShbQ0gzXSlDKD1PKVtOSF1bQ0gyXWMxW2NIXVtjSF1jKG5bY0hdMSlOMltDSDJdW0NIMl1PW0NIMl1bQ0gyXTI=

> <s_epik_cmdline>
J2VwaWtfcHl0aG9uJywgJy1waCcsICc3LjAnLCAnLXRuJywgJzgnLCAnLW1hJywgJzIwMCcsICctbWV0YWxfYmluZGluZycsICctaW1hZScsICc8aW5maWxlLm1hZT4nLCAnLW9tYWUnLCAnPG91dGZpbGUubWFlPic=

> <r_lp_tautomer_probability>
1

> <r_epik_Ionization_Penalty>
0.00454344

> <r_epik_Ionization_Penalty_Charging>
0

> <r_epik_Ionization_Penalty_Neutral>
0.00454344

> <r_epik_State_Penalty>
0.00328127

> <r_epik_Charging_Adjusted_Penalty>
0.00328127

> <i_epik_Tot_Q>
0

> <i_epik_Tot_abs_Q>
0

> <r_epik_Metal_State_Penalty>
-0

> <b_epik_Metal_Only>
0

> <s_lp_Force_Field>
OPLS_2005

> <r_lp_Energy>
17.3963

> <b_lp_Chiralities_Consistent>
1

> <s_lp_Variant>
AV-unprocessed.smi:2113-2

> <Gold.Version>
5.8.1

> <Gold.Id.Protein>
6NUR|6NUR_protein|mol2

> <Gold.PLP.Fitness>
36.7930

> <Gold.PLP.PLP>
-32.3223

> <Gold.PLP.part.hbond>
-1.0000

> <Gold.PLP.part.metal>
0.0000

> <Gold.PLP.part.buried>
-2.6501

> <Gold.PLP.part.nonpolar>
-30.6015

> <Gold.PLP.part.repulsive>
2.0745

> <Gold.PLP.ligand.clash>
0.0000

> <Gold.PLP.ligand.torsion>
0.5856

> <Gold.PLP.Chemscore.Hbond>
1.0000

> <Gold.PLP.Chemscore.CHOScore>
0.7441

> <Gold.PLP.Chemscore.Metal>
0.0000

> <Gold.Chemscore.Hbonds>
donor molecule, donor type, donor heavy atom, donor atom, acceptor molecule, acceptor atom, score
      L1  H     8    31       P1  7948  1.00
      L1  C    21    44       P1  7948  0.76

> <Gold.PLP.Chemscore.Internal.Correction>
0.4098

> <Gold.Rescore>
     Score         DG    S(hbond)    S(metal)    S(lipo)     H(rot)  DE(clash)    DE(int)     intcor
     12.80     -13.43       1.00        0.00      80.86       1.90       0.05       0.58       ----

> <Gold.Chemscore.Fitness>
12.8006

> <Gold.Chemscore.DG>
-13.4276

> <Gold.Chemscore.ZeroCoef>
-5.4800

> <Gold.Chemscore.Hbond>
0.9994

> <Gold.Chemscore.Metal>
0.0000

> <Gold.Chemscore.Lipo>
80.8635

> <Gold.Chemscore.Internal_Hbond>
0.0000

> <Gold.Chemscore.DEClash>
0.0515

> <Gold.Chemscore.DEInternal>
0.5755

> <Gold.Chemscore.Rot>
1.8952

> <Gold.Chemscore.Internal.Correction>
   9.000000E+99

> <Gold.Chemscore.Hbonds>
donor molecule, donor type, donor heavy atom, donor atom, acceptor molecule, acceptor atom, score
      L1  H     8    31       P1  7948  0.97

> <Gold.Chemscore.Hbond.Weighted>
-3.3381

> <Gold.Chemscore.Metal.Weighted>
-0.0000

> <Gold.Chemscore.Lipo.Weighted>
-9.4610

> <Gold.Chemscore.Internal_Hbond.Weighted>
0.0000

> <Gold.Chemscore.DEClash.Weighted>
0.0515

> <Gold.Chemscore.DEInternal.Weighted>
0.5755

> <Gold.Chemscore.Rot.Weighted>
4.8516

> <Gold.Chemscore.Internal.Correction.Weighted>
   9.000000E+99

> <Gold.Protein.RotatedTorsions>
[ 6907 6896 6895 6894 ] final  139.20 input  -60.11 | X-H torsion
[ 7974 7965 7964 7962 ] final  149.68 input  175.53 | X-H torsion
[ 8008 7997 7996 7995 ] final  -88.43 input   59.86 | X-H torsion
[ 10167 10162 10161 10158 ] final   41.07 input  -65.29 | X-H torsion
[ 10718 10713 10712 10709 ] final   99.47 input   66.30 | X-H torsion
[ 10763 10752 10751 10750 ] final  -31.84 input  -60.55 | X-H torsion
[ 11005 11000 10999 10996 ] final  120.51 input  -57.11 | X-H torsion

> <Gold.Protein.ActiveResidues>
 VAL166  LYS551  ARG553  GLY616  TRP617  ASP618  TYR619  PRO620  LYS621  CYS622 
 ASP623  PHE694  ASN695  SER759  ASP760  ASP761  ALA762  ILE779  LEU786  VAL792 
 PHE793  MET794  SER795  GLU796  ALA797  LYS798  CYS799  TRP800  GLU811  SER814 

> <Gold.Protein.RotatedAtoms>
  152.2576  133.5269  159.5362 H   0  0  0  0  0  0  0  0  0  0  0  0  # atno 6907 bound_to 6896
  150.7114  134.0873  159.3928 H   0  0  0  0  0  0  0  0  0  0  0  0  # atno 6908 bound_to 6896
  151.8792  135.0460  160.0538 H   0  0  0  0  0  0  0  0  0  0  0  0  # atno 6909 bound_to 6896
  144.8420  139.6311  143.6012 H   0  0  0  0  0  0  0  0  0  0  0  0  # atno 7974 bound_to 7965
  154.6747  140.0554  157.0203 H   0  0  0  0  0  0  0  0  0  0  0  0  # atno 8008 bound_to 7997
  155.1038  140.3231  155.4521 H   0  0  0  0  0  0  0  0  0  0  0  0  # atno 8009 bound_to 7997
  156.2671  140.2026  156.6163 H   0  0  0  0  0  0  0  0  0  0  0  0  # atno 8010 bound_to 7997
  140.3680  144.2142  150.6134 H   0  0  0  0  0  0  0  0  0  0  0  0  # atno 10167 bound_to 10162
  157.6875  131.0670  150.4953 H   0  0  0  0  0  0  0  0  0  0  0  0  # atno 10718 bound_to 10713
  153.8039  135.6888  153.4851 H   0  0  0  0  0  0  0  0  0  0  0  0  # atno 10763 bound_to 10752
  153.1671  135.4557  154.9850 H   0  0  0  0  0  0  0  0  0  0  0  0  # atno 10764 bound_to 10752
  154.7995  135.3332  154.7525 H   0  0  0  0  0  0  0  0  0  0  0  0  # atno 10765 bound_to 10752
  139.9188  134.9635  156.7818 H   0  0  0  0  0  0  0  0  0  0  0  0  # atno 11005 bound_to 11000
  146.2711  139.6638  142.9295 LP  0  0  0  0  0  0  0  0  0  0  0  0  # atno 17320 bound_to 7965
  145.4674  141.0435  143.2717 LP  0  0  0  0  0  0  0  0  0  0  0  0  # atno 17321 bound_to 7965
  140.5062  143.2303  151.8605 LP  0  0  0  0  0  0  0  0  0  0  0  0  # atno 17342 bound_to 10162
  139.4807  144.5003  151.9069 LP  0  0  0  0  0  0  0  0  0  0  0  0  # atno 17343 bound_to 10162
  156.5277  130.4177  149.6217 LP  0  0  0  0  0  0  0  0  0  0  0  0  # atno 17370 bound_to 10713
  156.3097  130.7222  151.2112 LP  0  0  0  0  0  0  0  0  0  0  0  0  # atno 17371 bound_to 10713
  140.6538  133.9707  155.7769 LP  0  0  0  0  0  0  0  0  0  0  0  0  # atno 17394 bound_to 11000
  141.0690  134.0234  157.3553 LP  0  0  0  0  0  0  0  0  0  0  0  0  # atno 17395 bound_to 11000

$$$$
