AV-unprocessed.smi:2424|AV-procd|sdf|9573|dock9
  -GOLD-   2272013203D 1   1.00000     0.00000
 Structure written by MMmdl.
 49 50  0  0  0  0  0  0  0  0  2 V2000
  147.7829  140.4674  153.8556 C   0  0  0  0  0  0  0  0  0  0  0  0
  148.4180  139.0893  154.1056 C   0  0  0  0  0  0  0  0  0  0  0  0
  149.4433  139.0327  155.2692 C   0  0  0  0  0  0  0  0  0  0  0  0
  148.7017  139.2791  156.6034 C   0  0  0  0  0  0  0  0  0  0  0  0
  149.5521  139.0931  157.8701 C   0  0  0  0  0  0  0  0  0  0  0  0
  150.4102  137.8185  155.2848 C   0  0  1  0  0  0  0  0  0  0  0  0
  149.9145  136.6412  154.5765 N   0  0  0  0  0  0  0  0  0  0  0  0
  149.9409  135.3874  155.0472 C   0  0  0  0  0  0  0  0  0  0  0  0
  150.4049  135.0877  156.1467 O   0  0  0  0  0  0  0  0  0  0  0  0
  149.3959  134.5352  154.1614 N   0  0  0  0  0  0  0  0  0  0  0  0
  149.2256  133.1489  154.2699 C   0  0  0  0  0  0  0  0  0  0  0  0
  150.0542  132.4079  155.0878 C   0  0  0  0  0  0  0  0  0  0  0  0
  150.0469  131.0774  155.3204 N   0  5  0  0  0  0  0  0  0  0  0  0
  149.1103  130.3186  154.6823 C   0  0  0  0  0  0  0  0  0  0  0  0
  149.0424  129.1009  154.8460 O   0  0  0  0  0  0  0  0  0  0  0  0
  148.1556  130.9828  153.7722 C   0  0  0  0  0  0  0  0  0  0  0  0
  147.1147  130.1353  153.0607 C   0  0  0  0  0  0  0  0  0  0  0  0
  148.2259  132.3253  153.5898 C   0  0  0  0  0  0  0  0  0  0  0  0
  151.4132  138.6200  154.4509 C   0  0  2  0  0  0  0  0  0  0  0  0
  152.9086  138.4009  154.6452 C   0  0  0  0  0  0  0  0  0  0  0  0
  150.7327  139.8733  155.0246 C   0  0  2  0  0  0  0  0  0  0  0  0
  151.3911  140.2951  156.2137 O   0  0  0  0  0  0  0  0  0  0  0  0
  150.9494  141.5615  156.6727 C   0  0  0  0  0  0  0  0  0  0  0  0
  147.1777  140.4482  152.9493 H   0  0  0  0  0  0  0  0  0  0  0  0
  148.5371  141.2435  153.7282 H   0  0  0  0  0  0  0  0  0  0  0  0
  147.1248  140.7657  154.6709 H   0  0  0  0  0  0  0  0  0  0  0  0
  147.6251  138.3558  154.2492 H   0  0  0  0  0  0  0  0  0  0  0  0
  148.8976  138.7884  153.1743 H   0  0  0  0  0  0  0  0  0  0  0  0
  148.3280  140.3028  156.6290 H   0  0  0  0  0  0  0  0  0  0  0  0
  147.8094  138.6591  156.6767 H   0  0  0  0  0  0  0  0  0  0  0  0
  148.9796  139.3691  158.7558 H   0  0  0  0  0  0  0  0  0  0  0  0
  150.4413  139.7224  157.8493 H   0  0  0  0  0  0  0  0  0  0  0  0
  149.8698  138.0598  158.0038 H   0  0  0  0  0  0  0  0  0  0  0  0
  150.8015  137.6169  156.2851 H   0  0  0  0  0  0  0  0  0  0  0  0
  149.5151  136.7948  153.6624 H   0  0  0  0  0  0  0  0  0  0  0  0
  149.0592  134.9362  153.2983 H   0  0  0  0  0  0  0  0  0  0  0  0
  150.8409  132.9678  155.6385 H   0  0  0  0  0  0  0  0  0  0  0  0
  146.4734  130.7448  152.4236 H   0  0  0  0  0  0  0  0  0  0  0  0
  146.4807  129.6228  153.7847 H   0  0  0  0  0  0  0  0  0  0  0  0
  147.5979  129.3857  152.4331 H   0  0  0  0  0  0  0  0  0  0  0  0
  147.5125  132.7734  152.9179 H   0  0  0  0  0  0  0  0  0  0  0  0
  151.1636  138.5450  153.3909 H   0  0  0  0  0  0  0  0  0  0  0  0
  153.1803  138.3944  155.7010 H   0  0  0  0  0  0  0  0  0  0  0  0
  153.4881  139.1858  154.1596 H   0  0  0  0  0  0  0  0  0  0  0  0
  153.2226  137.4466  154.2222 H   0  0  0  0  0  0  0  0  0  0  0  0
  150.6417  140.6638  154.2778 H   0  0  0  0  0  0  0  0  0  0  0  0
  151.4560  141.8084  157.6054 H   0  0  0  0  0  0  0  0  0  0  0  0
  149.8758  141.5710  156.8598 H   0  0  0  0  0  0  0  0  0  0  0  0
  151.1823  142.3419  155.9474 H   0  0  0  0  0  0  0  0  0  0  0  0
  1  2  1  0  0  0  0
  1 24  1  0  0  0  0
  1 25  1  0  0  0  0
  1 26  1  0  0  0  0
  2  3  1  0  0  0  0
  2 27  1  0  0  0  0
  2 28  1  0  0  0  0
  3 21  1  0  0  0  0
  3  4  1  0  0  0  0
  3  6  1  0  0  0  0
  4  5  1  0  0  0  0
  4 29  1  0  0  0  0
  4 30  1  0  0  0  0
  5 31  1  0  0  0  0
  5 32  1  0  0  0  0
  5 33  1  0  0  0  0
  6  7  1  0  0  0  0
  6 19  1  0  0  0  0
  6 34  1  0  0  0  0
  7  8  1  0  0  0  0
  7 35  1  0  0  0  0
  8  9  2  0  0  0  0
  8 10  1  0  0  0  0
 10 11  1  0  0  0  0
 10 36  1  0  0  0  0
 11 18  1  0  0  0  0
 11 12  2  0  0  0  0
 12 13  1  0  0  0  0
 12 37  1  0  0  0  0
 13 14  1  0  0  0  0
 14 15  2  0  0  0  0
 14 16  1  0  0  0  0
 16 17  1  0  0  0  0
 16 18  2  0  0  0  0
 17 38  1  0  0  0  0
 17 39  1  0  0  0  0
 17 40  1  0  0  0  0
 18 41  1  0  0  0  0
 19 20  1  0  0  0  0
 19 21  1  0  0  0  0
 19 42  1  0  0  0  0
 20 43  1  0  0  0  0
 20 44  1  0  0  0  0
 20 45  1  0  0  0  0
 21 22  1  0  0  0  0
 21 46  1  0  0  0  0
 22 23  1  0  0  0  0
 23 47  1  0  0  0  0
 23 48  1  0  0  0  0
 23 49  1  0  0  0  0
M  CHG  1  13  -1
M  END
> <s_m_source_file>
AV-unprocessed.smi

> <i_m_source_file_index>
2424

> <i_lp_mmshare_version>
43012

> <i_f3d_flags>
0

> <s_epik_input>
W0NIM11PW0NAQEhdMVtDQEhdKFtDSDNdKVtDQEBIXShDMShbQ0gyXVtDSDNdKVtDSDJdW0NIM10pW05IXUMoPU8pW05IXWMyW2NIXVtuSF1jKD1PKWMoW0NIM10pW2NIXTI=

> <s_epik_cmdline>
J2VwaWtfcHl0aG9uJywgJy1waCcsICc3LjAnLCAnLXRuJywgJzgnLCAnLW1hJywgJzIwMCcsICctbWV0YWxfYmluZGluZycsICctaW1hZScsICc8aW5maWxlLm1hZT4nLCAnLW9tYWUnLCAnPG91dGZpbGUubWFlPic=

> <r_lp_tautomer_probability>
1

> <r_epik_Ionization_Penalty>
7.6122

> <r_epik_Ionization_Penalty_Charging>
1.53843

> <r_epik_Ionization_Penalty_Neutral>
6.07377

> <r_epik_State_Penalty>
6.07371

> <r_epik_Charging_Adjusted_Penalty>
7.61214

> <i_epik_Tot_Q>
-1

> <i_epik_Tot_abs_Q>
1

> <r_epik_Metal_State_Penalty>
2.02136

> <b_epik_Metal_Only>
1

> <s_lp_Force_Field>
OPLS_2005

> <r_lp_Energy>
41.9258

> <b_lp_Chiralities_Consistent>
1

> <s_lp_Variant>
AV-unprocessed.smi:2424-15

> <Gold.Version>
5.8.1

> <Gold.Id.Protein>
6NUR|6NUR_protein|mol2

> <Gold.PLP.Fitness>
41.5442

> <Gold.PLP.PLP>
-36.7603

> <Gold.PLP.part.hbond>
-2.0000

> <Gold.PLP.part.metal>
0.0000

> <Gold.PLP.part.buried>
-3.6799

> <Gold.PLP.part.nonpolar>
-31.3430

> <Gold.PLP.part.repulsive>
0.1426

> <Gold.PLP.ligand.clash>
0.0000

> <Gold.PLP.ligand.torsion>
0.6552

> <Gold.PLP.Chemscore.Hbond>
1.8000

> <Gold.PLP.Chemscore.CHOScore>
0.0000

> <Gold.PLP.Chemscore.Metal>
0.0000

> <Gold.Chemscore.Hbonds>
donor molecule, donor type, donor heavy atom, donor atom, acceptor molecule, acceptor atom, score
      L1  H     7    35       P1  7948  1.00
      L1  H    10    36       P1  7948  0.90

> <Gold.PLP.Chemscore.Internal.Correction>
0.6943

> <Gold.Rescore>
     Score         DG    S(hbond)    S(metal)    S(lipo)     H(rot)  DE(clash)    DE(int)     intcor
     11.43     -14.88       1.04        0.00      83.90       1.52       0.14       3.30       ----

> <Gold.Chemscore.Fitness>
11.4347

> <Gold.Chemscore.DG>
-14.8791

> <Gold.Chemscore.ZeroCoef>
-5.4800

> <Gold.Chemscore.Hbond>
1.0406

> <Gold.Chemscore.Metal>
0.0000

> <Gold.Chemscore.Lipo>
83.8955

> <Gold.Chemscore.Internal_Hbond>
0.0000

> <Gold.Chemscore.DEClash>
0.1438

> <Gold.Chemscore.DEInternal>
3.3006

> <Gold.Chemscore.Rot>
1.5204

> <Gold.Chemscore.Internal.Correction>
   9.000000E+99

> <Gold.Chemscore.Hbonds>
donor molecule, donor type, donor heavy atom, donor atom, acceptor molecule, acceptor atom, score
      L1  H     7    35       P1  7948  0.82
      L1  H    10    36       P1  7948  0.18

> <Gold.Chemscore.Hbond.Weighted>
-3.4755

> <Gold.Chemscore.Metal.Weighted>
-0.0000

> <Gold.Chemscore.Lipo.Weighted>
-9.8158

> <Gold.Chemscore.Internal_Hbond.Weighted>
0.0000

> <Gold.Chemscore.DEClash.Weighted>
0.1438

> <Gold.Chemscore.DEInternal.Weighted>
3.3006

> <Gold.Chemscore.Rot.Weighted>
3.8922

> <Gold.Chemscore.Internal.Correction.Weighted>
   9.000000E+99

> <Gold.Protein.RotatedTorsions>
[ 6907 6896 6895 6894 ] final  -24.99 input  -60.11 | X-H torsion
[ 7974 7965 7964 7962 ] final -176.61 input  175.53 | X-H torsion
[ 8008 7997 7996 7995 ] final  -75.25 input   59.86 | X-H torsion
[ 10167 10162 10161 10158 ] final -151.77 input  -65.29 | X-H torsion
[ 10718 10713 10712 10709 ] final -137.34 input   66.30 | X-H torsion
[ 10763 10752 10751 10750 ] final  -24.43 input  -60.55 | X-H torsion
[ 11005 11000 10999 10996 ] final  132.81 input  -57.11 | X-H torsion

> <Gold.Protein.ActiveResidues>
 VAL166  LYS551  ARG553  GLY616  TRP617  ASP618  TYR619  PRO620  LYS621  CYS622 
 ASP623  PHE694  ASN695  SER759  ASP760  ASP761  ALA762  ILE779  LEU786  VAL792 
 PHE793  MET794  SER795  GLU796  ALA797  LYS798  CYS799  TRP800  GLU811  SER814 

> <Gold.Protein.RotatedAtoms>
  151.1816  135.0363  159.8794 H   0  0  0  0  0  0  0  0  0  0  0  0  # atno 6907 bound_to 6896
  152.5444  134.1057  159.8347 H   0  0  0  0  0  0  0  0  0  0  0  0  # atno 6908 bound_to 6896
  151.1174  133.5082  159.2635 H   0  0  0  0  0  0  0  0  0  0  0  0  # atno 6909 bound_to 6896
  144.7127  140.1143  143.6409 H   0  0  0  0  0  0  0  0  0  0  0  0  # atno 7974 bound_to 7965
  154.5401  140.0747  156.8495 H   0  0  0  0  0  0  0  0  0  0  0  0  # atno 8008 bound_to 7997
  155.3198  140.3395  155.4223 H   0  0  0  0  0  0  0  0  0  0  0  0  # atno 8009 bound_to 7997
  156.1866  140.1671  156.8160 H   0  0  0  0  0  0  0  0  0  0  0  0  # atno 8010 bound_to 7997
  139.7238  143.8914  152.2512 H   0  0  0  0  0  0  0  0  0  0  0  0  # atno 10167 bound_to 10162
  156.2871  130.7354  151.1368 H   0  0  0  0  0  0  0  0  0  0  0  0  # atno 10718 bound_to 10713
  153.6836  135.6965  153.5110 H   0  0  0  0  0  0  0  0  0  0  0  0  # atno 10763 bound_to 10752
  153.2466  135.4288  155.0753 H   0  0  0  0  0  0  0  0  0  0  0  0  # atno 10764 bound_to 10752
  154.8393  135.3521  154.6379 H   0  0  0  0  0  0  0  0  0  0  0  0  # atno 10765 bound_to 10752
  139.9813  134.9547  156.9635 H   0  0  0  0  0  0  0  0  0  0  0  0  # atno 11005 bound_to 11000
  145.9427  139.2679  143.1259 LP  0  0  0  0  0  0  0  0  0  0  0  0  # atno 17320 bound_to 7965
  145.9407  140.8982  143.0309 LP  0  0  0  0  0  0  0  0  0  0  0  0  # atno 17321 bound_to 7965
  139.8818  144.7013  150.8869 LP  0  0  0  0  0  0  0  0  0  0  0  0  # atno 17342 bound_to 10162
  140.7759  143.3655  151.1747 LP  0  0  0  0  0  0  0  0  0  0  0  0  # atno 17343 bound_to 10162
  157.7331  131.0593  150.5591 LP  0  0  0  0  0  0  0  0  0  0  0  0  # atno 17370 bound_to 10713
  156.5703  130.4278  149.6022 LP  0  0  0  0  0  0  0  0  0  0  0  0  # atno 17371 bound_to 10713
  140.5091  134.1020  155.7266 LP  0  0  0  0  0  0  0  0  0  0  0  0  # atno 17394 bound_to 11000
  141.1484  133.9013  157.2158 LP  0  0  0  0  0  0  0  0  0  0  0  0  # atno 17395 bound_to 11000

$$$$
