AV-unprocessed.smi:500|AV-procd|sdf|2736|dock6
  -GOLD-   2262023193D 1   1.00000     0.00000
 Structure written by MMmdl.
 46 48  0  0  0  0  0  0  0  0  2 V2000
  147.7259  135.4213  162.0602 C   0  0  0  0  0  0  0  0  0  0  0  0
  148.0702  136.3766  160.9155 C   0  0  0  0  0  0  0  0  0  0  0  0
  148.8444  135.6765  159.9577 O   0  0  0  0  0  0  0  0  0  0  0  0
  148.7947  136.2659  158.6688 C   0  0  0  0  0  0  0  0  0  0  0  0
  149.4751  135.3391  157.6520 C   0  0  0  0  0  0  0  0  0  0  0  0
  149.7128  136.0059  156.3623 N   0  0  0  0  0  0  0  0  0  0  0  0
  149.3913  135.6148  155.0943 C   0  0  0  0  0  0  0  0  0  0  0  0
  148.6631  134.3658  154.6947 C   0  0  2  0  0  0  0  0  0  0  0  0
  149.6294  133.2783  154.2004 C   0  0  0  0  0  0  0  0  0  0  0  0
  147.6759  134.6509  153.6576 N   0  0  0  0  0  0  0  0  0  0  0  0
  146.3776  134.3096  153.6897 C   0  0  0  0  0  0  0  0  0  0  0  0
  145.8598  133.6808  154.6120 O   0  0  0  0  0  0  0  0  0  0  0  0
  145.5770  134.7276  152.5235 C   0  0  0  0  0  0  0  0  0  0  0  0
  145.8555  135.5860  151.4920 C   0  0  0  0  0  0  0  0  0  0  0  0
  144.7027  135.6089  150.6589 C   0  0  0  0  0  0  0  0  0  0  0  0
  143.8010  134.7664  151.2424 C   0  0  0  0  0  0  0  0  0  0  0  0
  144.3167  134.2243  152.3790 O   0  0  0  0  0  0  0  0  0  0  0  0
  149.8190  136.6000  154.2525 N   0  3  0  0  0  0  0  0  0  0  0  0
  150.4458  137.6102  154.9817 C   0  0  0  0  0  0  0  0  0  0  0  0
  151.0484  138.7935  154.5656 C   0  0  0  0  0  0  0  0  0  0  0  0
  151.6051  139.6082  155.5732 C   0  0  0  0  0  0  0  0  0  0  0  0
  151.5486  139.2362  156.9320 C   0  0  0  0  0  0  0  0  0  0  0  0
  150.9318  138.0357  157.3411 C   0  0  0  0  0  0  0  0  0  0  0  0
  150.3836  137.2349  156.3387 C   0  0  0  0  0  0  0  0  0  0  0  0
  147.1231  135.9224  162.8179 H   0  0  0  0  0  0  0  0  0  0  0  0
  148.6291  135.0484  162.5436 H   0  0  0  0  0  0  0  0  0  0  0  0
  147.1611  134.5625  161.6965 H   0  0  0  0  0  0  0  0  0  0  0  0
  147.1548  136.7535  160.4567 H   0  0  0  0  0  0  0  0  0  0  0  0
  148.6271  137.2330  161.2984 H   0  0  0  0  0  0  0  0  0  0  0  0
  147.7577  136.4396  158.3772 H   0  0  0  0  0  0  0  0  0  0  0  0
  149.2969  137.2342  158.6804 H   0  0  0  0  0  0  0  0  0  0  0  0
  150.4367  135.0035  158.0374 H   0  0  0  0  0  0  0  0  0  0  0  0
  148.8856  134.4369  157.4891 H   0  0  0  0  0  0  0  0  0  0  0  0
  148.1700  133.9686  155.5830 H   0  0  0  0  0  0  0  0  0  0  0  0
  150.3676  133.0344  154.9651 H   0  0  0  0  0  0  0  0  0  0  0  0
  150.1665  133.5900  153.3038 H   0  0  0  0  0  0  0  0  0  0  0  0
  149.0921  132.3603  153.9598 H   0  0  0  0  0  0  0  0  0  0  0  0
  148.0032  135.1599  152.8494 H   0  0  0  0  0  0  0  0  0  0  0  0
  146.7761  136.1329  151.3509 H   0  0  0  0  0  0  0  0  0  0  0  0
  144.5517  136.1708  149.7490 H   0  0  0  0  0  0  0  0  0  0  0  0
  142.7969  134.4536  150.9962 H   0  0  0  0  0  0  0  0  0  0  0  0
  151.0944  139.0794  153.5251 H   0  0  0  0  0  0  0  0  0  0  0  0
  152.0865  140.5357  155.2988 H   0  0  0  0  0  0  0  0  0  0  0  0
  151.9884  139.8841  157.6764 H   0  0  0  0  0  0  0  0  0  0  0  0
  150.9006  137.7586  158.3843 H   0  0  0  0  0  0  0  0  0  0  0  0
  149.6984  136.5737  153.2482 H   0  0  0  0  0  0  0  0  0  0  0  0
  1  2  1  0  0  0  0
  1 25  1  0  0  0  0
  1 26  1  0  0  0  0
  1 27  1  0  0  0  0
  2  3  1  0  0  0  0
  2 28  1  0  0  0  0
  2 29  1  0  0  0  0
  3  4  1  0  0  0  0
  4  5  1  0  0  0  0
  4 30  1  0  0  0  0
  4 31  1  0  0  0  0
  5  6  1  0  0  0  0
  5 32  1  0  0  0  0
  5 33  1  0  0  0  0
  6 24  1  0  0  0  0
  6  7  1  0  0  0  0
  7  8  1  0  0  0  0
  7 18  2  0  0  0  0
  8  9  1  0  0  0  0
  8 10  1  0  0  0  0
  8 34  1  0  0  0  0
  9 35  1  0  0  0  0
  9 36  1  0  0  0  0
  9 37  1  0  0  0  0
 10 11  1  0  0  0  0
 10 38  1  0  0  0  0
 11 12  2  0  0  0  0
 11 13  1  0  0  0  0
 13 17  1  0  0  0  0
 13 14  2  0  0  0  0
 14 15  1  0  0  0  0
 14 39  1  0  0  0  0
 15 16  2  0  0  0  0
 15 40  1  0  0  0  0
 16 17  1  0  0  0  0
 16 41  1  0  0  0  0
 18 19  1  0  0  0  0
 18 46  1  0  0  0  0
 19 24  2  0  0  0  0
 19 20  1  0  0  0  0
 20 21  2  0  0  0  0
 20 42  1  0  0  0  0
 21 22  1  0  0  0  0
 21 43  1  0  0  0  0
 22 23  2  0  0  0  0
 22 44  1  0  0  0  0
 23 24  1  0  0  0  0
 23 45  1  0  0  0  0
M  CHG  1  18   1
M  END
> <s_m_source_file>
AV-unprocessed.smi

> <i_m_source_file_index>
500

> <i_lp_mmshare_version>
43012

> <i_f3d_flags>
0

> <s_epik_input>
W0NIM11bQ0gyXU9bQ0gyXVtDSDJdbihjKGMxMilbY0hdW2NIXVtjSF1bY0hdMiljKG4xKVtDQEhdKFtDSDNdKVtOSF1DKD1PKWMzW2NIXVtjSF1bY0hdbzM=

> <s_epik_cmdline>
J2VwaWtfcHl0aG9uJywgJy1waCcsICc3LjAnLCAnLXRuJywgJzgnLCAnLW1hJywgJzIwMCcsICctbWV0YWxfYmluZGluZycsICctaW1hZScsICc8aW5maWxlLm1hZT4nLCAnLW9tYWUnLCAnPG91dGZpbGUubWFlPic=

> <r_epik_Ionization_Penalty>
1.05286

> <r_epik_Ionization_Penalty_Charging>
1.05283

> <r_epik_Ionization_Penalty_Neutral>
2.09263e-05

> <r_epik_State_Penalty>
1.10586

> <r_epik_Charging_Adjusted_Penalty>
2.15869

> <i_epik_Tot_Q>
1

> <i_epik_Tot_abs_Q>
1

> <r_epik_Metal_State_Penalty>
1.22833

> <b_epik_Metal_Only>
0

> <s_lp_Force_Field>
OPLS_2005

> <r_lp_Energy>
11.0053

> <b_lp_Chiralities_Consistent>
1

> <s_lp_Variant>
AV-unprocessed.smi:500-3

> <Gold.Version>
5.8.1

> <Gold.Id.Protein>
6NUR|6NUR_protein|mol2

> <Gold.PLP.Fitness>
45.9313

> <Gold.PLP.PLP>
-33.9674

> <Gold.PLP.part.hbond>
-3.5902

> <Gold.PLP.part.metal>
0.0000

> <Gold.PLP.part.buried>
-3.4861

> <Gold.PLP.part.nonpolar>
-29.0219

> <Gold.PLP.part.repulsive>
0.2172

> <Gold.PLP.ligand.clash>
0.0000

> <Gold.PLP.ligand.torsion>
0.9326

> <Gold.PLP.Chemscore.Hbond>
3.5850

> <Gold.PLP.Chemscore.CHOScore>
1.0000

> <Gold.PLP.Chemscore.Metal>
0.0000

> <Gold.Chemscore.Hbonds>
donor molecule, donor type, donor heavy atom, donor atom, acceptor molecule, acceptor atom, score
      L1  H    10    38       P1  7948  1.00
      L1  H    18    46       P1  7948  2.00
      P1  H  6896  6909       L1     3  0.56
      L1  C    16    41       P1 10186  0.92

> <Gold.PLP.Chemscore.Internal.Correction>
0.0742

> <Gold.Rescore>
     Score         DG    S(hbond)    S(metal)    S(lipo)     H(rot)  DE(clash)    DE(int)     intcor
     16.04     -17.04       2.16        0.00      80.23       1.97       0.19       0.80       ----

> <Gold.Chemscore.Fitness>
16.0421

> <Gold.Chemscore.DG>
-17.0360

> <Gold.Chemscore.ZeroCoef>
-5.4800

> <Gold.Chemscore.Hbond>
2.1630

> <Gold.Chemscore.Metal>
0.0000

> <Gold.Chemscore.Lipo>
80.2271

> <Gold.Chemscore.Internal_Hbond>
0.0000

> <Gold.Chemscore.DEClash>
0.1926

> <Gold.Chemscore.DEInternal>
0.8013

> <Gold.Chemscore.Rot>
1.9746

> <Gold.Chemscore.Internal.Correction>
   9.000000E+99

> <Gold.Chemscore.Hbonds>
donor molecule, donor type, donor heavy atom, donor atom, acceptor molecule, acceptor atom, score
      L1  H    10    38       P1  7948  0.98
      L1  H    18    46       P1  7948  0.33
      P1  H  6896  6909       L1     3  0.07

> <Gold.Chemscore.Hbond.Weighted>
-7.2244

> <Gold.Chemscore.Metal.Weighted>
-0.0000

> <Gold.Chemscore.Lipo.Weighted>
-9.3866

> <Gold.Chemscore.Internal_Hbond.Weighted>
0.0000

> <Gold.Chemscore.DEClash.Weighted>
0.1926

> <Gold.Chemscore.DEInternal.Weighted>
0.8013

> <Gold.Chemscore.Rot.Weighted>
5.0550

> <Gold.Chemscore.Internal.Correction.Weighted>
   9.000000E+99

> <Gold.Protein.RotatedTorsions>
[ 6907 6896 6895 6894 ] final   61.07 input  -60.11 | X-H torsion
[ 7974 7965 7964 7962 ] final   51.83 input  175.53 | X-H torsion
[ 8008 7997 7996 7995 ] final -156.53 input   59.86 | X-H torsion
[ 10167 10162 10161 10158 ] final   75.60 input  -65.29 | X-H torsion
[ 10718 10713 10712 10709 ] final   21.04 input   66.30 | X-H torsion
[ 10763 10752 10751 10750 ] final   14.48 input  -60.55 | X-H torsion
[ 11005 11000 10999 10996 ] final  -10.89 input  -57.11 | X-H torsion

> <Gold.Protein.ActiveResidues>
 VAL166  LYS551  ARG553  GLY616  TRP617  ASP618  TYR619  PRO620  LYS621  CYS622 
 ASP623  PHE694  ASN695  SER759  ASP760  ASP761  ALA762  ILE779  LEU786  VAL792 
 PHE793  MET794  SER795  GLU796  ALA797  LYS798  CYS799  TRP800  GLU811  SER814 

> <Gold.Protein.RotatedAtoms>
  152.4058  134.6210  160.0050 H   0  0  0  0  0  0  0  0  0  0  0  0  # atno 6907 bound_to 6896
  151.6402  133.3321  159.3136 H   0  0  0  0  0  0  0  0  0  0  0  0  # atno 6908 bound_to 6896
  150.7953  134.7049  159.6616 H   0  0  0  0  0  0  0  0  0  0  0  0  # atno 6909 bound_to 6896
  145.9874  139.4304  143.0094 H   0  0  0  0  0  0  0  0  0  0  0  0  # atno 7974 bound_to 7965
  155.7185  140.0787  157.2340 H   0  0  0  0  0  0  0  0  0  0  0  0  # atno 8008 bound_to 7997
  154.4048  140.1617  156.2430 H   0  0  0  0  0  0  0  0  0  0  0  0  # atno 8009 bound_to 7997
  155.9218  140.3397  155.6181 H   0  0  0  0  0  0  0  0  0  0  0  0  # atno 8010 bound_to 7997
  140.0013  144.5684  150.7735 H   0  0  0  0  0  0  0  0  0  0  0  0  # atno 10167 bound_to 10162
  157.1328  130.6598  149.5957 H   0  0  0  0  0  0  0  0  0  0  0  0  # atno 10718 bound_to 10713
  153.1618  135.6797  153.8732 H   0  0  0  0  0  0  0  0  0  0  0  0  # atno 10763 bound_to 10752
  153.8125  135.3141  155.3403 H   0  0  0  0  0  0  0  0  0  0  0  0  # atno 10764 bound_to 10752
  154.7937  135.4819  154.0201 H   0  0  0  0  0  0  0  0  0  0  0  0  # atno 10765 bound_to 10752
  140.7496  133.8603  155.9033 H   0  0  0  0  0  0  0  0  0  0  0  0  # atno 11005 bound_to 11000
  145.7680  140.9908  143.1164 LP  0  0  0  0  0  0  0  0  0  0  0  0  # atno 17320 bound_to 7965
  144.6879  139.9412  143.7475 LP  0  0  0  0  0  0  0  0  0  0  0  0  # atno 17321 bound_to 7965
  140.7418  143.2823  151.3564 LP  0  0  0  0  0  0  0  0  0  0  0  0  # atno 17342 bound_to 10162
  139.6270  144.0795  152.2443 LP  0  0  0  0  0  0  0  0  0  0  0  0  # atno 17343 bound_to 10162
  155.9804  130.4805  150.6771 LP  0  0  0  0  0  0  0  0  0  0  0  0  # atno 17370 bound_to 10713
  157.4377  131.0857  151.0975 LP  0  0  0  0  0  0  0  0  0  0  0  0  # atno 17371 bound_to 10713
  140.9763  134.1464  157.4533 LP  0  0  0  0  0  0  0  0  0  0  0  0  # atno 17394 bound_to 11000
  139.8790  134.9996  156.5961 LP  0  0  0  0  0  0  0  0  0  0  0  0  # atno 17395 bound_to 11000

$$$$
