AV-unprocessed.smi:53|AV-procd|sdf|517|dock8
  -GOLD-   2262016393D 1   1.00000     0.00000
 Structure written by MMmdl.
 30 31  0  0  0  0  0  0  0  0  1 V2000
  153.9765  138.2126  154.9291 N   0  0  0  0  0  0  0  0  0  0  0  0
  152.7132  138.6550  154.9962 C   0  0  0  0  0  0  0  0  0  0  0  0
  151.6910  138.0743  154.1553 C   0  0  0  0  0  0  0  0  0  0  0  0
  150.4418  138.5729  154.2821 C   0  0  0  0  0  0  0  0  0  0  0  0
  150.1380  139.5887  155.1775 N   0  0  0  0  0  0  0  0  0  0  0  0
  148.7279  140.1300  155.2890 C   0  0  2  0  0  0  0  0  0  0  0  0
  147.8526  139.0575  155.4720 O   0  0  0  0  0  0  0  0  0  0  0  0
  146.6772  139.2737  154.7016 C   0  0  2  0  0  0  0  0  0  0  0  0
  145.9037  137.9608  154.4858 C   0  0  0  0  0  0  0  0  0  0  0  0
  145.0999  138.0515  153.3288 O   0  0  0  0  0  0  0  0  0  0  0  0
  147.1870  140.0008  153.4490 C   0  0  2  0  0  0  0  0  0  0  0  0
  147.6912  139.0827  152.4929 O   0  0  0  0  0  0  0  0  0  0  0  0
  148.2761  140.9008  154.0274 C   0  0  2  0  0  0  0  0  0  0  0  0
  149.2984  141.2159  153.0959 O   0  0  0  0  0  0  0  0  0  0  0  0
  151.1637  140.1475  155.9778 C   0  0  0  0  0  0  0  0  0  0  0  0
  150.9478  141.0726  156.7599 O   0  0  0  0  0  0  0  0  0  0  0  0
  152.4227  139.6282  155.8381 N   0  0  0  0  0  0  0  0  0  0  0  0
  148.6919  140.7416  156.1921 H   0  0  0  0  0  0  0  0  0  0  0  0
  146.0521  139.9624  155.2736 H   0  0  0  0  0  0  0  0  0  0  0  0
  146.3958  140.5812  152.9733 H   0  0  0  0  0  0  0  0  0  0  0  0
  147.8231  141.8329  154.3679 H   0  0  0  0  0  0  0  0  0  0  0  0
  154.6893  138.6213  155.5157 H   0  0  0  0  0  0  0  0  0  0  0  0
  154.2132  137.4667  154.2906 H   0  0  0  0  0  0  0  0  0  0  0  0
  151.8821  137.2793  153.4487 H   0  0  0  0  0  0  0  0  0  0  0  0
  149.6664  138.1543  153.6577 H   0  0  0  0  0  0  0  0  0  0  0  0
  146.5735  137.1045  154.4059 H   0  0  0  0  0  0  0  0  0  0  0  0
  145.2512  137.7716  155.3382 H   0  0  0  0  0  0  0  0  0  0  0  0
  144.7648  138.9329  153.2641 H   0  0  0  0  0  0  0  0  0  0  0  0
  148.5490  139.3734  152.2239 H   0  0  0  0  0  0  0  0  0  0  0  0
  149.2944  140.5598  152.4154 H   0  0  0  0  0  0  0  0  0  0  0  0
  1  2  1  0  0  0  0
  1 22  1  0  0  0  0
  1 23  1  0  0  0  0
  2 17  2  0  0  0  0
  2  3  1  0  0  0  0
  3  4  2  0  0  0  0
  3 24  1  0  0  0  0
  4  5  1  0  0  0  0
  4 25  1  0  0  0  0
  5  6  1  0  0  0  0
  5 15  1  0  0  0  0
  6 18  1  0  0  0  0
  6 13  1  0  0  0  0
  6  7  1  0  0  0  0
  7  8  1  0  0  0  0
  8 19  1  0  0  0  0
  8  9  1  0  0  0  0
  8 11  1  0  0  0  0
  9 10  1  0  0  0  0
  9 26  1  0  0  0  0
  9 27  1  0  0  0  0
 10 28  1  0  0  0  0
 11 20  1  0  0  0  0
 11 12  1  0  0  0  0
 11 13  1  0  0  0  0
 12 29  1  0  0  0  0
 13 21  1  0  0  0  0
 13 14  1  0  0  0  0
 14 30  1  0  0  0  0
 15 16  2  0  0  0  0
 15 17  1  0  0  0  0
M  END
> <s_m_source_file>
AV-unprocessed.smi

> <i_m_source_file_index>
53

> <i_lp_mmshare_version>
43012

> <i_f3d_flags>
0

> <s_epik_input>
W05IMl1jMVtjSF1bY0hdbihjKD1PKW4xKVtDQEBIXTJPW0NASF0oW0NIMl1bT0hdKVtDQEBIXShbT0hdKVtDQEBIXTJbT0hd

> <s_epik_cmdline>
J2VwaWtfcHl0aG9uJywgJy1waCcsICc3LjAnLCAnLXRuJywgJzgnLCAnLW1hJywgJzIwMCcsICctbWV0YWxfYmluZGluZycsICctaW1hZScsICc8aW5maWxlLm1hZT4nLCAnLW9tYWUnLCAnPG91dGZpbGUubWFlPic=

> <r_lp_tautomer_probability>
0.99996

> <r_epik_Ionization_Penalty>
0.00069087

> <r_epik_Ionization_Penalty_Charging>
2.61959e-08

> <r_epik_Ionization_Penalty_Neutral>
0.000690844

> <r_epik_State_Penalty>
1.15523e-05

> <r_epik_Charging_Adjusted_Penalty>
1.15785e-05

> <i_epik_Tot_Q>
0

> <i_epik_Tot_abs_Q>
0

> <r_epik_Metal_State_Penalty>
-0

> <b_epik_Metal_Only>
0

> <s_epik_Chemistry_Notes>
This compound contains an acetal/aminal-like group ( X-CH(R)-Y where X, Y are N, S, or O) that may be acid/base labile, releasing an aldehyde.

> <s_lp_Force_Field>
OPLS_2005

> <r_lp_Energy>
39.6979

> <b_lp_Chiralities_Consistent>
1

> <s_lp_Variant>
AV-unprocessed.smi:53-5

> <Gold.Version>
5.8.1

> <Gold.Id.Protein>
6NUR|6NUR_protein|mol2

> <Gold.PLP.Fitness>
41.3852

> <Gold.PLP.PLP>
-26.3665

> <Gold.PLP.part.hbond>
-5.6151

> <Gold.PLP.part.metal>
0.0000

> <Gold.PLP.part.buried>
-6.1961

> <Gold.PLP.part.nonpolar>
-17.8597

> <Gold.PLP.part.repulsive>
1.8592

> <Gold.PLP.ligand.clash>
0.0000

> <Gold.PLP.ligand.torsion>
0.3957

> <Gold.PLP.Chemscore.Hbond>
4.8268

> <Gold.PLP.Chemscore.CHOScore>
0.4376

> <Gold.PLP.Chemscore.Metal>
0.0000

> <Gold.Chemscore.Hbonds>
donor molecule, donor type, donor heavy atom, donor atom, acceptor molecule, acceptor atom, score
      L1  H    10    28       P1 10175  0.99
      L1  H    12    29       P1  7957  1.00
      L1  H    14    30       P1  7957  0.65
      P1  H  7989  7998       L1    14  0.01
      P1  H  7997  8009       L1    17  0.85
      P1  H  8011  8017       L1    14  0.93
      L1  C     4    25       P1  7948  0.60

> <Gold.PLP.Chemscore.Internal.Correction>
0.0167

> <Gold.Rescore>
     Score         DG    S(hbond)    S(metal)    S(lipo)     H(rot)  DE(clash)    DE(int)     intcor
     10.08     -11.95       3.60        0.00      33.69       3.71       1.30       0.57       ----

> <Gold.Chemscore.Fitness>
10.0758

> <Gold.Chemscore.DG>
-11.9458

> <Gold.Chemscore.ZeroCoef>
-5.4800

> <Gold.Chemscore.Hbond>
3.5989

> <Gold.Chemscore.Metal>
0.0000

> <Gold.Chemscore.Lipo>
33.6898

> <Gold.Chemscore.Internal_Hbond>
0.0000

> <Gold.Chemscore.DEClash>
1.3000

> <Gold.Chemscore.DEInternal>
0.5700

> <Gold.Chemscore.Rot>
3.7095

> <Gold.Chemscore.Internal.Correction>
   9.000000E+99

> <Gold.Chemscore.Hbonds>
donor molecule, donor type, donor heavy atom, donor atom, acceptor molecule, acceptor atom, score
      L1  H    10    28       P1 10175  0.91
      L1  H    12    29       P1  7957  0.96
      L1  H    14    30       P1  7957  0.63
      P1  H  7997  8009       L1    17  0.19
      P1  H  8011  8017       L1    14  0.23

> <Gold.Chemscore.Hbond.Weighted>
-12.0204

> <Gold.Chemscore.Metal.Weighted>
-0.0000

> <Gold.Chemscore.Lipo.Weighted>
-3.9417

> <Gold.Chemscore.Internal_Hbond.Weighted>
0.0000

> <Gold.Chemscore.DEClash.Weighted>
1.3000

> <Gold.Chemscore.DEInternal.Weighted>
0.5700

> <Gold.Chemscore.Rot.Weighted>
9.4964

> <Gold.Chemscore.Internal.Correction.Weighted>
   9.000000E+99

> <Gold.Protein.RotatedTorsions>
[ 6907 6896 6895 6894 ] final  -58.71 input  -60.11 | X-H torsion
[ 7974 7965 7964 7962 ] final   90.34 input  175.53 | X-H torsion
[ 8008 7997 7996 7995 ] final -170.67 input   59.86 | X-H torsion
[ 10167 10162 10161 10158 ] final  -60.23 input  -65.29 | X-H torsion
[ 10718 10713 10712 10709 ] final   89.10 input   66.30 | X-H torsion
[ 10763 10752 10751 10750 ] final   38.84 input  -60.55 | X-H torsion
[ 11005 11000 10999 10996 ] final  -62.88 input  -57.11 | X-H torsion

> <Gold.Protein.ActiveResidues>
 VAL166  LYS551  ARG553  GLY616  TRP617  ASP618  TYR619  PRO620  LYS621  CYS622 
 ASP623  PHE694  ASN695  SER759  ASP760  ASP761  ALA762  ILE779  LEU786  VAL792 
 PHE793  MET794  SER795  GLU796  ALA797  LYS798  CYS799  TRP800  GLU811  SER814 

> <Gold.Protein.RotatedAtoms>
  150.7986  134.7063  159.6578 H   0  0  0  0  0  0  0  0  0  0  0  0  # atno 6907 bound_to 6896
  152.4101  134.6136  160.0042 H   0  0  0  0  0  0  0  0  0  0  0  0  # atno 6908 bound_to 6896
  151.6382  133.3290  159.3160 H   0  0  0  0  0  0  0  0  0  0  0  0  # atno 6909 bound_to 6896
  145.5203  139.2279  143.2675 H   0  0  0  0  0  0  0  0  0  0  0  0  # atno 7974 bound_to 7965
  155.9214  140.1075  157.1204 H   0  0  0  0  0  0  0  0  0  0  0  0  # atno 8008 bound_to 7997
  154.4055  140.1255  156.4749 H   0  0  0  0  0  0  0  0  0  0  0  0  # atno 8009 bound_to 7997
  155.7191  140.3470  155.5010 H   0  0  0  0  0  0  0  0  0  0  0  0  # atno 8010 bound_to 7997
  140.6085  143.2380  151.5766 H   0  0  0  0  0  0  0  0  0  0  0  0  # atno 10167 bound_to 10162
  157.6953  131.0320  150.3375 H   0  0  0  0  0  0  0  0  0  0  0  0  # atno 10718 bound_to 10713
  152.9987  135.6238  154.2369 H   0  0  0  0  0  0  0  0  0  0  0  0  # atno 10763 bound_to 10752
  154.2110  135.2800  155.2960 H   0  0  0  0  0  0  0  0  0  0  0  0  # atno 10764 bound_to 10752
  154.5607  135.5706  153.7063 H   0  0  0  0  0  0  0  0  0  0  0  0  # atno 10765 bound_to 10752
  141.1375  133.6645  156.5595 H   0  0  0  0  0  0  0  0  0  0  0  0  # atno 11005 bound_to 11000
  146.2110  140.6015  142.9059 LP  0  0  0  0  0  0  0  0  0  0  0  0  # atno 17320 bound_to 7965
  144.7679  140.5573  143.6690 LP  0  0  0  0  0  0  0  0  0  0  0  0  # atno 17321 bound_to 7965
  139.5343  144.2827  152.1216 LP  0  0  0  0  0  0  0  0  0  0  0  0  # atno 17342 bound_to 10162
  140.2021  144.4647  150.6426 LP  0  0  0  0  0  0  0  0  0  0  0  0  # atno 17343 bound_to 10162
  156.3840  130.3886  149.7080 LP  0  0  0  0  0  0  0  0  0  0  0  0  # atno 17370 bound_to 10713
  156.4452  130.7880  151.2901 LP  0  0  0  0  0  0  0  0  0  0  0  0  # atno 17371 bound_to 10713
  140.3999  134.7365  157.4773 LP  0  0  0  0  0  0  0  0  0  0  0  0  # atno 17394 bound_to 11000
  140.0503  134.6140  155.8869 LP  0  0  0  0  0  0  0  0  0  0  0  0  # atno 17395 bound_to 11000

$$$$
