AV-unprocessed.smi:3099|AV-procd|sdf|11803|dock2
  -GOLD-   2272017173D 1   1.00000     0.00000
 Structure written by MMmdl.
 32 33  0  0  0  0  0  0  0  0  1 V2000
  153.4929  141.3784  159.5957 C   0  0  0  0  0  0  0  0  0  0  0  0
  153.0445  142.3812  160.5413 N   0  0  0  0  0  0  0  0  0  0  0  0
  153.2188  142.3572  161.8696 C   0  0  0  0  0  0  0  0  0  0  0  0
  152.7143  143.4023  162.5111 N   0  0  0  0  0  0  0  0  0  0  0  0
  152.1634  144.1781  161.4954 C   0  0  0  0  0  0  0  0  0  0  0  0
  152.3618  143.5667  160.2768 C   0  0  0  0  0  0  0  0  0  0  0  0
  151.9676  144.0249  158.9054 C   0  0  0  0  0  0  0  0  0  0  0  0
  150.4646  143.9023  158.5906 C   0  0  0  0  0  0  0  0  0  0  0  0
  150.2186  143.1834  157.3428 N   0  0  0  0  0  0  0  0  0  0  0  0
  150.6992  141.9689  157.0320 C   0  0  0  0  0  0  0  0  0  0  0  0
  151.4074  141.3069  157.7914 O   0  0  0  0  0  0  0  0  0  0  0  0
  150.3312  141.4352  155.6450 C   0  0  0  0  0  0  0  0  0  0  0  0
  148.8345  141.2669  155.4434 C   0  0  0  0  0  0  0  0  0  0  0  0
  148.2862  140.2776  154.4388 C   0  0  0  0  0  0  0  0  0  0  0  0
  148.1649  141.7591  154.1806 C   0  0  0  0  0  0  0  0  0  0  0  0
  153.6496  140.4272  160.1053 H   0  0  0  0  0  0  0  0  0  0  0  0
  154.4322  141.6962  159.1433 H   0  0  0  0  0  0  0  0  0  0  0  0
  152.7469  141.2368  158.8142 H   0  0  0  0  0  0  0  0  0  0  0  0
  153.7287  141.5533  162.3801 H   0  0  0  0  0  0  0  0  0  0  0  0
  151.6757  145.1161  161.7158 H   0  0  0  0  0  0  0  0  0  0  0  0
  152.2827  145.0587  158.7619 H   0  0  0  0  0  0  0  0  0  0  0  0
  152.5270  143.4464  158.1696 H   0  0  0  0  0  0  0  0  0  0  0  0
  149.9440  143.4225  159.4203 H   0  0  0  0  0  0  0  0  0  0  0  0
  150.0295  144.8978  158.5014 H   0  0  0  0  0  0  0  0  0  0  0  0
  149.6481  143.6531  156.6549 H   0  0  0  0  0  0  0  0  0  0  0  0
  150.7135  142.1032  154.8722 H   0  0  0  0  0  0  0  0  0  0  0  0
  150.8266  140.4731  155.5077 H   0  0  0  0  0  0  0  0  0  0  0  0
  148.2569  141.3765  156.3596 H   0  0  0  0  0  0  0  0  0  0  0  0
  149.0002  139.7189  153.8364 H   0  0  0  0  0  0  0  0  0  0  0  0
  147.3822  139.7370  154.7114 H   0  0  0  0  0  0  0  0  0  0  0  0
  147.1783  142.2075  154.2780 H   0  0  0  0  0  0  0  0  0  0  0  0
  148.7949  142.1845  153.4019 H   0  0  0  0  0  0  0  0  0  0  0  0
  1  2  1  0  0  0  0
  1 16  1  0  0  0  0
  1 17  1  0  0  0  0
  1 18  1  0  0  0  0
  2  6  1  0  0  0  0
  2  3  1  0  0  0  0
  3  4  2  0  0  0  0
  3 19  1  0  0  0  0
  4  5  1  0  0  0  0
  5  6  2  0  0  0  0
  5 20  1  0  0  0  0
  6  7  1  0  0  0  0
  7  8  1  0  0  0  0
  7 21  1  0  0  0  0
  7 22  1  0  0  0  0
  8  9  1  0  0  0  0
  8 23  1  0  0  0  0
  8 24  1  0  0  0  0
  9 10  1  0  0  0  0
  9 25  1  0  0  0  0
 10 11  2  0  0  0  0
 10 12  1  0  0  0  0
 12 13  1  0  0  0  0
 12 26  1  0  0  0  0
 12 27  1  0  0  0  0
 13 15  1  0  0  0  0
 13 14  1  0  0  0  0
 13 28  1  0  0  0  0
 14 15  1  0  0  0  0
 14 29  1  0  0  0  0
 14 30  1  0  0  0  0
 15 31  1  0  0  0  0
 15 32  1  0  0  0  0
M  END
> <s_m_source_file>
AV-unprocessed.smi

> <i_m_source_file_index>
3099

> <i_lp_mmshare_version>
43012

> <i_f3d_flags>
0

> <s_epik_input>
W0NIM11uMVtjSF1uW2NIXWMxW0NIMl1bQ0gyXVtOSF1DKD1PKVtDSDJdW0NIXTJbQ0gyXVtDSDJdMg==

> <s_epik_cmdline>
J2VwaWtfcHl0aG9uJywgJy1waCcsICc3LjAnLCAnLXRuJywgJzgnLCAnLW1hJywgJzIwMCcsICctbWV0YWxfYmluZGluZycsICctaW1hZScsICc8aW5maWxlLm1hZT4nLCAnLW9tYWUnLCAnPG91dGZpbGUubWFlPic=

> <r_lp_tautomer_probability>
1

> <r_epik_Ionization_Penalty>
0.86664

> <r_epik_Ionization_Penalty_Charging>
0.86664

> <r_epik_Ionization_Penalty_Neutral>
2.48486e-08

> <r_epik_State_Penalty>
0.903601

> <r_epik_Charging_Adjusted_Penalty>
1.77024

> <i_epik_Tot_Q>
0

> <i_epik_Tot_abs_Q>
0

> <r_epik_Metal_State_Penalty>
0.359833

> <b_epik_Metal_Only>
0

> <s_lp_Force_Field>
OPLS_2005

> <r_lp_Energy>
10.131

> <b_lp_Chiralities_Consistent>
1

> <s_lp_Variant>
AV-unprocessed.smi:3099-2

> <Gold.Version>
5.8.1

> <Gold.Id.Protein>
6NUR|6NUR_protein|mol2

> <Gold.PLP.Fitness>
41.7116

> <Gold.PLP.PLP>
-40.1606

> <Gold.PLP.part.hbond>
-1.0000

> <Gold.PLP.part.metal>
0.0000

> <Gold.PLP.part.buried>
-4.9983

> <Gold.PLP.part.nonpolar>
-33.3492

> <Gold.PLP.part.repulsive>
0.1631

> <Gold.PLP.ligand.clash>
0.0000

> <Gold.PLP.ligand.torsion>
1.0132

> <Gold.PLP.Chemscore.Hbond>
1.0000

> <Gold.PLP.Chemscore.CHOScore>
0.0000

> <Gold.PLP.Chemscore.Metal>
0.0000

> <Gold.Chemscore.Hbonds>
donor molecule, donor type, donor heavy atom, donor atom, acceptor molecule, acceptor atom, score
      L1  H     9    25       P1  8028  1.00

> <Gold.PLP.Chemscore.Internal.Correction>
0.5775

> <Gold.Rescore>
     Score         DG    S(hbond)    S(metal)    S(lipo)     H(rot)  DE(clash)    DE(int)     intcor
     12.82     -13.59       0.99        0.00      82.80       1.91       0.03       0.75       ----

> <Gold.Chemscore.Fitness>
12.8188

> <Gold.Chemscore.DG>
-13.5928

> <Gold.Chemscore.ZeroCoef>
-5.4800

> <Gold.Chemscore.Hbond>
0.9934

> <Gold.Chemscore.Metal>
0.0000

> <Gold.Chemscore.Lipo>
82.8015

> <Gold.Chemscore.Internal_Hbond>
0.0000

> <Gold.Chemscore.DEClash>
0.0251

> <Gold.Chemscore.DEInternal>
0.7488

> <Gold.Chemscore.Rot>
1.9113

> <Gold.Chemscore.Internal.Correction>
   9.000000E+99

> <Gold.Chemscore.Hbonds>
donor molecule, donor type, donor heavy atom, donor atom, acceptor molecule, acceptor atom, score
      L1  H     9    25       P1  8028  0.99

> <Gold.Chemscore.Hbond.Weighted>
-3.3180

> <Gold.Chemscore.Metal.Weighted>
-0.0000

> <Gold.Chemscore.Lipo.Weighted>
-9.6878

> <Gold.Chemscore.Internal_Hbond.Weighted>
0.0000

> <Gold.Chemscore.DEClash.Weighted>
0.0251

> <Gold.Chemscore.DEInternal.Weighted>
0.7488

> <Gold.Chemscore.Rot.Weighted>
4.8930

> <Gold.Chemscore.Internal.Correction.Weighted>
   9.000000E+99

> <Gold.Protein.RotatedTorsions>
[ 6907 6896 6895 6894 ] final -151.46 input  -60.11 | X-H torsion
[ 7974 7965 7964 7962 ] final   40.18 input  175.53 | X-H torsion
[ 8008 7997 7996 7995 ] final   32.94 input   59.86 | X-H torsion
[ 10167 10162 10161 10158 ] final  -20.42 input  -65.29 | X-H torsion
[ 10718 10713 10712 10709 ] final  -12.17 input   66.30 | X-H torsion
[ 10763 10752 10751 10750 ] final  -49.36 input  -60.55 | X-H torsion
[ 11005 11000 10999 10996 ] final -131.16 input  -57.11 | X-H torsion

> <Gold.Protein.ActiveResidues>
 VAL166  LYS551  ARG553  GLY616  TRP617  ASP618  TYR619  PRO620  LYS621  CYS622 
 ASP623  PHE694  ASN695  SER759  ASP760  ASP761  ALA762  ILE779  LEU786  VAL792 
 PHE793  MET794  SER795  GLU796  ALA797  LYS798  CYS799  TRP800  GLU811  SER814 

> <Gold.Protein.RotatedAtoms>
  151.2135  133.4543  159.2598 H   0  0  0  0  0  0  0  0  0  0  0  0  # atno 6907 bound_to 6896
  151.0954  134.9941  159.8433 H   0  0  0  0  0  0  0  0  0  0  0  0  # atno 6908 bound_to 6896
  152.5438  134.2065  159.8786 H   0  0  0  0  0  0  0  0  0  0  0  0  # atno 6909 bound_to 6896
  146.0926  139.5564  142.9466 H   0  0  0  0  0  0  0  0  0  0  0  0  # atno 7974 bound_to 7965
  155.1306  140.3257  155.4475 H   0  0  0  0  0  0  0  0  0  0  0  0  # atno 8008 bound_to 7997
  156.2635  140.2011  156.6374 H   0  0  0  0  0  0  0  0  0  0  0  0  # atno 8009 bound_to 7997
  154.6615  140.0546  157.0054 H   0  0  0  0  0  0  0  0  0  0  0  0  # atno 8010 bound_to 7997
  140.7276  143.4724  151.0229 H   0  0  0  0  0  0  0  0  0  0  0  0  # atno 10167 bound_to 10162
  156.6485  130.4948  149.6070 H   0  0  0  0  0  0  0  0  0  0  0  0  # atno 10718 bound_to 10713
  154.0928  135.6575  153.4855 H   0  0  0  0  0  0  0  0  0  0  0  0  # atno 10763 bound_to 10752
  153.0316  135.5206  154.7363 H   0  0  0  0  0  0  0  0  0  0  0  0  # atno 10764 bound_to 10752
  154.6492  135.2999  154.9976 H   0  0  0  0  0  0  0  0  0  0  0  0  # atno 10765 bound_to 10752
  140.9283  134.1353  157.4256 H   0  0  0  0  0  0  0  0  0  0  0  0  # atno 11005 bound_to 11000
  145.6010  141.0355  143.2018 LP  0  0  0  0  0  0  0  0  0  0  0  0  # atno 17320 bound_to 7965
  144.7371  139.7554  143.7325 LP  0  0  0  0  0  0  0  0  0  0  0  0  # atno 17321 bound_to 7965
  139.8417  143.7555  152.3180 LP  0  0  0  0  0  0  0  0  0  0  0  0  # atno 17342 bound_to 10162
  139.7706  144.7478  151.0230 LP  0  0  0  0  0  0  0  0  0  0  0  0  # atno 17343 bound_to 10162
  156.2103  130.6674  151.1262 LP  0  0  0  0  0  0  0  0  0  0  0  0  # atno 17370 bound_to 10713
  157.7148  131.0715  150.6366 LP  0  0  0  0  0  0  0  0  0  0  0  0  # atno 17371 bound_to 10713
  139.8790  134.9996  156.5964 LP  0  0  0  0  0  0  0  0  0  0  0  0  # atno 17394 bound_to 11000
  140.7896  133.8593  155.8635 LP  0  0  0  0  0  0  0  0  0  0  0  0  # atno 17395 bound_to 11000

$$$$
