AV-unprocessed.smi:287|AV-procd|sdf|2204|dock10
  -GOLD-   2262022 33D 1   1.00000     0.00000
 Structure written by MMmdl.
 55 58  0  0  0  0  0  0  0  0  1 V2000
  145.7988  137.3345  162.5076 C   0  0  0  0  0  0  0  0  0  0  0  0
  146.5753  136.5731  161.4887 C   0  0  0  0  0  0  0  0  0  0  0  0
  146.4644  135.3213  160.9574 C   0  0  0  0  0  0  0  0  0  0  0  0
  147.5149  135.1681  160.0035 C   0  0  0  0  0  0  0  0  0  0  0  0
  147.7910  133.9288  159.1625 C   0  0  2  0  0  0  0  0  0  0  0  0
  148.0110  132.7166  160.0824 C   0  0  0  0  0  0  0  0  0  0  0  0
  148.9748  134.0397  158.3957 O   0  0  0  0  0  0  0  0  0  0  0  0
  146.6567  133.6316  158.1550 C   0  0  0  0  0  0  0  0  0  0  0  0
  146.8713  132.3993  157.4075 N   0  0  0  0  0  0  0  0  0  0  0  0
  146.7848  132.3741  156.0609 C   0  0  0  0  0  0  0  0  0  0  0  0
  146.9172  131.1512  155.4956 N   0  0  0  0  0  0  0  0  0  0  0  0
  146.8569  131.0159  154.1693 C   0  0  0  0  0  0  0  0  0  0  0  0
  146.6715  131.9579  153.2446 N   0  0  0  0  0  0  0  0  0  0  0  0
  146.5262  133.1969  153.7996 C   0  0  0  0  0  0  0  0  0  0  0  0
  146.5769  133.4896  155.1947 C   0  0  0  0  0  0  0  0  0  0  0  0
  146.4121  134.8568  155.3814 N   0  0  0  0  0  0  0  0  0  0  0  0
  146.2803  135.3353  154.1757 C   0  0  0  0  0  0  0  0  0  0  0  0
  146.3031  134.4050  153.1598 N   0  0  0  0  0  0  0  0  0  0  0  0
  146.2032  134.6727  151.6803 C   0  0  1  0  0  0  0  0  0  0  0  0
  145.8750  133.4896  151.0194 O   0  0  0  0  0  0  0  0  0  0  0  0
  144.4616  133.3935  150.9035 C   0  0  2  0  0  0  0  0  0  0  0  0
  144.0553  132.3045  149.8954 C   0  0  0  0  0  0  0  0  0  0  0  0
  142.6660  132.3656  149.6519 O   0  0  0  0  0  0  0  0  0  0  0  0
  144.0967  134.8323  150.5198 C   0  0  2  0  0  0  0  0  0  0  0  0
  144.2951  135.0452  149.1312 O   0  0  0  0  0  0  0  0  0  0  0  0
  145.0496  135.6576  151.3884 C   0  0  2  0  0  0  0  0  0  0  0  0
  145.4779  136.8518  150.7598 O   0  0  0  0  0  0  0  0  0  0  0  0
  148.2020  136.3573  160.0461 C   0  0  0  0  0  0  0  0  0  0  0  0
  149.4072  136.8840  159.3397 C   0  0  0  0  0  0  0  0  0  0  0  0
  147.6363  137.2156  160.9399 O   0  0  0  0  0  0  0  0  0  0  0  0
  147.1952  135.0281  151.3991 H   0  0  0  0  0  0  0  0  0  0  0  0
  144.0312  133.1762  151.8835 H   0  0  0  0  0  0  0  0  0  0  0  0
  143.0540  135.0553  150.7484 H   0  0  0  0  0  0  0  0  0  0  0  0
  144.5385  135.9183  152.3156 H   0  0  0  0  0  0  0  0  0  0  0  0
  144.8484  136.8441  162.7185 H   0  0  0  0  0  0  0  0  0  0  0  0
  145.5864  138.3451  162.1580 H   0  0  0  0  0  0  0  0  0  0  0  0
  146.3567  137.4088  163.4412 H   0  0  0  0  0  0  0  0  0  0  0  0
  145.7091  134.5955  161.2198 H   0  0  0  0  0  0  0  0  0  0  0  0
  147.1292  132.5193  160.6932 H   0  0  0  0  0  0  0  0  0  0  0  0
  148.8496  132.8804  160.7608 H   0  0  0  0  0  0  0  0  0  0  0  0
  148.2214  131.8120  159.5102 H   0  0  0  0  0  0  0  0  0  0  0  0
  148.7858  134.5514  157.6242 H   0  0  0  0  0  0  0  0  0  0  0  0
  145.6887  133.6061  158.6577 H   0  0  0  0  0  0  0  0  0  0  0  0
  146.6177  134.4466  157.4311 H   0  0  0  0  0  0  0  0  0  0  0  0
  147.0905  131.5847  157.9633 H   0  0  0  0  0  0  0  0  0  0  0  0
  146.9729  130.0097  153.7945 H   0  0  0  0  0  0  0  0  0  0  0  0
  146.1564  136.3932  153.9949 H   0  0  0  0  0  0  0  0  0  0  0  0
  144.5614  132.4665  148.9434 H   0  0  0  0  0  0  0  0  0  0  0  0
  144.3329  131.3110  150.2486 H   0  0  0  0  0  0  0  0  0  0  0  0
  142.3194  131.4866  149.6669 H   0  0  0  0  0  0  0  0  0  0  0  0
  145.2060  134.8871  148.9342 H   0  0  0  0  0  0  0  0  0  0  0  0
  144.7278  137.2708  150.3665 H   0  0  0  0  0  0  0  0  0  0  0  0
  150.2495  136.2016  159.4528 H   0  0  0  0  0  0  0  0  0  0  0  0
  149.7058  137.8540  159.7378 H   0  0  0  0  0  0  0  0  0  0  0  0
  149.2078  137.0051  158.2750 H   0  0  0  0  0  0  0  0  0  0  0  0
  1  2  1  0  0  0  0
  1 35  1  0  0  0  0
  1 36  1  0  0  0  0
  1 37  1  0  0  0  0
  2 30  1  0  0  0  0
  2  3  2  0  0  0  0
  3  4  1  0  0  0  0
  3 38  1  0  0  0  0
  4  5  1  0  0  0  0
  4 28  2  0  0  0  0
  5  6  1  0  0  0  0
  5  7  1  0  0  0  0
  5  8  1  0  0  0  0
  6 39  1  0  0  0  0
  6 40  1  0  0  0  0
  6 41  1  0  0  0  0
  7 42  1  0  0  0  0
  8  9  1  0  0  0  0
  8 43  1  0  0  0  0
  8 44  1  0  0  0  0
  9 10  1  0  0  0  0
  9 45  1  0  0  0  0
 10 15  1  0  0  0  0
 10 11  2  0  0  0  0
 11 12  1  0  0  0  0
 12 13  2  0  0  0  0
 12 46  1  0  0  0  0
 13 14  1  0  0  0  0
 14 18  1  0  0  0  0
 14 15  2  0  0  0  0
 15 16  1  0  0  0  0
 16 17  2  0  0  0  0
 17 18  1  0  0  0  0
 17 47  1  0  0  0  0
 18 19  1  0  0  0  0
 19 31  1  0  0  0  0
 19 26  1  0  0  0  0
 19 20  1  0  0  0  0
 20 21  1  0  0  0  0
 21 32  1  0  0  0  0
 21 22  1  0  0  0  0
 21 24  1  0  0  0  0
 22 23  1  0  0  0  0
 22 48  1  0  0  0  0
 22 49  1  0  0  0  0
 23 50  1  0  0  0  0
 24 33  1  0  0  0  0
 24 25  1  0  0  0  0
 24 26  1  0  0  0  0
 25 51  1  0  0  0  0
 26 34  1  0  0  0  0
 26 27  1  0  0  0  0
 27 52  1  0  0  0  0
 28 29  1  0  0  0  0
 28 30  1  0  0  0  0
 29 53  1  0  0  0  0
 29 54  1  0  0  0  0
 29 55  1  0  0  0  0
M  END
> <s_m_source_file>
AV-unprocessed.smi

> <i_m_source_file_index>
287

> <i_lp_mmshare_version>
43012

> <i_f3d_flags>
0

> <s_epik_input>
W0NIM11jMVtjSF1jKGMobzEpW0NIM10pW0NAQF0oW0NIM10pKFtPSF0pW0NIMl1bTkhdYyhuW2NIXW4yKWMoYzIzKW5bY0hdbjNbQ0BASF00T1tDQEhdKFtDSDJdW09IXSlbQ0BASF0oW09IXSlbQ0BIXTRbT0hd

> <s_epik_cmdline>
J2VwaWtfcHl0aG9uJywgJy1waCcsICc3LjAnLCAnLXRuJywgJzgnLCAnLW1hJywgJzIwMCcsICctbWV0YWxfYmluZGluZycsICctaW1hZScsICc8aW5maWxlLm1hZT4nLCAnLW9tYWUnLCAnPG91dGZpbGUubWFlPic=

> <r_lp_tautomer_probability>
1

> <r_epik_Ionization_Penalty>
0.000992612

> <r_epik_Ionization_Penalty_Charging>
0

> <r_epik_Ionization_Penalty_Neutral>
0.000992612

> <r_epik_State_Penalty>
-0

> <r_epik_Charging_Adjusted_Penalty>
0

> <i_epik_Tot_Q>
0

> <i_epik_Tot_abs_Q>
0

> <r_epik_Metal_State_Penalty>
-0

> <b_epik_Metal_Only>
0

> <s_epik_Chemistry_Notes>
This compound contains an acetal/aminal-like group ( X-CH(R)-Y where X, Y are N, S, or O) that may be acid/base labile, releasing an aldehyde.

> <s_lp_Force_Field>
OPLS_2005

> <r_lp_Energy>
48.2808

> <b_lp_Chiralities_Consistent>
1

> <s_lp_Variant>
AV-unprocessed.smi:287-28

> <Gold.Version>
5.8.1

> <Gold.Id.Protein>
6NUR|6NUR_protein|mol2

> <Gold.PLP.Fitness>
54.8168

> <Gold.PLP.PLP>
-39.3483

> <Gold.PLP.part.hbond>
-6.5138

> <Gold.PLP.part.metal>
0.0000

> <Gold.PLP.part.buried>
-7.8024

> <Gold.PLP.part.nonpolar>
-25.4277

> <Gold.PLP.part.repulsive>
0.3976

> <Gold.PLP.ligand.clash>
0.0000

> <Gold.PLP.ligand.torsion>
0.6039

> <Gold.PLP.Chemscore.Hbond>
5.5280

> <Gold.PLP.Chemscore.CHOScore>
0.0000

> <Gold.PLP.Chemscore.Metal>
0.0000

> <Gold.Chemscore.Hbonds>
donor molecule, donor type, donor heavy atom, donor atom, acceptor molecule, acceptor atom, score
      L1  H    23    50       P1 10952  0.96
      L1  H    25    51       P1  7921  0.74
      L1  H    27    52       P1 10171  1.00
      P1  H  6896  6907       L1     7  1.00
      P1  H  6931  6943       L1    30  0.85
      P1  H  6934  6947       L1    30  0.93

> <Gold.PLP.Chemscore.Internal.Correction>
0.0924

> <Gold.Rescore>
     Score         DG    S(hbond)    S(metal)    S(lipo)     H(rot)  DE(clash)    DE(int)     intcor
     13.75     -17.58       5.13        0.00      72.21       5.27       0.04       3.78       ----

> <Gold.Chemscore.Fitness>
13.7528

> <Gold.Chemscore.DG>
-17.5757

> <Gold.Chemscore.ZeroCoef>
-5.4800

> <Gold.Chemscore.Hbond>
5.1291

> <Gold.Chemscore.Metal>
0.0000

> <Gold.Chemscore.Lipo>
72.2089

> <Gold.Chemscore.Internal_Hbond>
0.0000

> <Gold.Chemscore.DEClash>
0.0440

> <Gold.Chemscore.DEInternal>
3.7788

> <Gold.Chemscore.Rot>
5.2672

> <Gold.Chemscore.Internal.Correction>
   9.000000E+99

> <Gold.Chemscore.Hbonds>
donor molecule, donor type, donor heavy atom, donor atom, acceptor molecule, acceptor atom, score
      L1  H    23    50       P1 10952  0.92
      L1  H    25    51       P1  7921  0.73
      L1  H    27    52       P1 10171  0.97
      P1  H  6896  6907       L1     7  0.95
      P1  H  6931  6943       L1    30  0.65
      P1  H  6934  6947       L1    30  0.49

> <Gold.Chemscore.Hbond.Weighted>
-17.1311

> <Gold.Chemscore.Metal.Weighted>
-0.0000

> <Gold.Chemscore.Lipo.Weighted>
-8.4484

> <Gold.Chemscore.Internal_Hbond.Weighted>
0.0000

> <Gold.Chemscore.DEClash.Weighted>
0.0440

> <Gold.Chemscore.DEInternal.Weighted>
3.7788

> <Gold.Chemscore.Rot.Weighted>
13.4839

> <Gold.Chemscore.Internal.Correction.Weighted>
   9.000000E+99

> <Gold.Protein.RotatedTorsions>
[ 6907 6896 6895 6894 ] final -111.63 input  -60.11 | X-H torsion
[ 7974 7965 7964 7962 ] final   41.14 input  175.53 | X-H torsion
[ 8008 7997 7996 7995 ] final -133.82 input   59.86 | X-H torsion
[ 10167 10162 10161 10158 ] final  -15.10 input  -65.29 | X-H torsion
[ 10718 10713 10712 10709 ] final   18.73 input   66.30 | X-H torsion
[ 10763 10752 10751 10750 ] final  -70.82 input  -60.55 | X-H torsion
[ 11005 11000 10999 10996 ] final -120.51 input  -57.11 | X-H torsion

> <Gold.Protein.ActiveResidues>
 VAL166  LYS551  ARG553  GLY616  TRP617  ASP618  TYR619  PRO620  LYS621  CYS622 
 ASP623  PHE694  ASN695  SER759  ASP760  ASP761  ALA762  ILE779  LEU786  VAL792 
 PHE793  MET794  SER795  GLU796  ALA797  LYS798  CYS799  TRP800  GLU811  SER814 

> <Gold.Protein.RotatedAtoms>
  150.7703  133.9208  159.3397 H   0  0  0  0  0  0  0  0  0  0  0  0  # atno 6907 bound_to 6896
  151.7096  135.0913  160.0275 H   0  0  0  0  0  0  0  0  0  0  0  0  # atno 6908 bound_to 6896
  152.3717  133.6390  159.6128 H   0  0  0  0  0  0  0  0  0  0  0  0  # atno 6909 bound_to 6896
  146.0848  139.5450  142.9514 H   0  0  0  0  0  0  0  0  0  0  0  0  # atno 7974 bound_to 7965
  155.3519  140.0478  157.3046 H   0  0  0  0  0  0  0  0  0  0  0  0  # atno 8008 bound_to 7997
  154.5223  140.2229  155.8918 H   0  0  0  0  0  0  0  0  0  0  0  0  # atno 8009 bound_to 7997
  156.1702  140.3097  155.8966 H   0  0  0  0  0  0  0  0  0  0  0  0  # atno 8010 bound_to 7997
  140.7213  143.5253  150.9585 H   0  0  0  0  0  0  0  0  0  0  0  0  # atno 10167 bound_to 10162
  157.1004  130.6466  149.5871 H   0  0  0  0  0  0  0  0  0  0  0  0  # atno 10718 bound_to 10713
  154.4231  135.5982  153.6022 H   0  0  0  0  0  0  0  0  0  0  0  0  # atno 10763 bound_to 10752
  152.9795  135.5957  154.3930 H   0  0  0  0  0  0  0  0  0  0  0  0  # atno 10764 bound_to 10752
  154.3758  135.2841  155.2218 H   0  0  0  0  0  0  0  0  0  0  0  0  # atno 10765 bound_to 10752
  141.0138  134.0225  157.3377 H   0  0  0  0  0  0  0  0  0  0  0  0  # atno 11005 bound_to 11000
  145.6151  141.0333  143.1945 LP  0  0  0  0  0  0  0  0  0  0  0  0  # atno 17320 bound_to 7965
  144.7318  139.7704  143.7344 LP  0  0  0  0  0  0  0  0  0  0  0  0  # atno 17321 bound_to 7965
  139.8971  143.6881  152.3137 LP  0  0  0  0  0  0  0  0  0  0  0  0  # atno 17342 bound_to 10162
  139.7217  144.7601  151.0944 LP  0  0  0  0  0  0  0  0  0  0  0  0  # atno 17343 bound_to 10162
  155.9875  130.4914  150.7127 LP  0  0  0  0  0  0  0  0  0  0  0  0  # atno 17370 bound_to 10713
  157.4645  131.0887  151.0709 LP  0  0  0  0  0  0  0  0  0  0  0  0  # atno 17371 bound_to 10713
  139.9105  135.0189  156.7672 LP  0  0  0  0  0  0  0  0  0  0  0  0  # atno 17394 bound_to 11000
  140.6688  133.9578  155.7845 LP  0  0  0  0  0  0  0  0  0  0  0  0  # atno 17395 bound_to 11000

$$$$
