AV-unprocessed.smi:3139|AV-procd|sdf|11956|dock8
  -GOLD-   2272017353D 1   1.00000     0.00000
 Structure written by MMmdl.
 33 33  0  0  0  0  0  0  0  0  2 V2000
  141.5362  133.3787  160.5675 C   0  0  0  0  0  0  0  0  0  0  0  0
  142.8010  132.5373  160.2975 C   0  0  2  0  0  0  0  0  0  0  0  0
  143.9003  133.3233  159.5636 C   0  0  0  0  0  0  0  0  0  0  0  0
  143.7230  133.7349  158.4161 O   0  0  0  0  0  0  0  0  0  0  0  0
  145.0325  133.5349  160.2532 N   0  0  0  0  0  0  0  0  0  0  0  0
  146.1994  134.2813  159.7820 C   0  0  0  0  0  0  0  0  0  0  0  0
  147.0513  134.8991  160.9280 C   0  0  0  0  0  0  0  0  0  0  0  0
  146.1282  135.6956  161.8724 C   0  0  0  0  0  0  0  0  0  0  0  0
  147.7424  133.7731  161.7355 C   0  0  0  0  0  0  0  0  0  0  0  0
  148.1077  135.8792  160.3532 C   0  0  0  0  0  0  0  0  0  0  0  0
  148.9671  135.4375  159.5576 O   0  0  0  0  0  0  0  0  0  0  0  0
  148.0442  137.0706  160.7314 O   0  5  0  0  0  0  0  0  0  0  0  0
  142.4991  131.2978  159.5895 N   0  0  0  0  0  0  0  0  0  0  0  0
  141.5678  130.3360  159.9259 C   0  0  0  0  0  0  0  0  0  0  0  0
  141.6605  129.3331  159.0041 C   0  0  0  0  0  0  0  0  0  0  0  0
  142.7003  129.7678  158.1364 C   0  0  0  0  0  0  0  0  0  0  0  0
  143.2054  130.9374  158.4923 N   0  0  0  0  0  0  0  0  0  0  0  0
  141.7737  134.2652  161.1567 H   0  0  0  0  0  0  0  0  0  0  0  0
  140.7991  132.8033  161.1281 H   0  0  0  0  0  0  0  0  0  0  0  0
  141.0611  133.7137  159.6444 H   0  0  0  0  0  0  0  0  0  0  0  0
  143.2103  132.2570  161.2696 H   0  0  0  0  0  0  0  0  0  0  0  0
  145.0868  133.1717  161.1940 H   0  0  0  0  0  0  0  0  0  0  0  0
  146.8067  133.5841  159.2033 H   0  0  0  0  0  0  0  0  0  0  0  0
  145.9046  135.0577  159.0741 H   0  0  0  0  0  0  0  0  0  0  0  0
  145.3767  135.0481  162.3253 H   0  0  0  0  0  0  0  0  0  0  0  0
  145.5966  136.4889  161.3447 H   0  0  0  0  0  0  0  0  0  0  0  0
  146.6902  136.1603  162.6838 H   0  0  0  0  0  0  0  0  0  0  0  0
  147.0118  133.0551  162.1094 H   0  0  0  0  0  0  0  0  0  0  0  0
  148.2781  134.1659  162.6008 H   0  0  0  0  0  0  0  0  0  0  0  0
  148.4590  133.2178  161.1293 H   0  0  0  0  0  0  0  0  0  0  0  0
  140.9238  130.4442  160.7863 H   0  0  0  0  0  0  0  0  0  0  0  0
  141.0784  128.4246  158.9604 H   0  0  0  0  0  0  0  0  0  0  0  0
  143.1034  129.2699  157.2670 H   0  0  0  0  0  0  0  0  0  0  0  0
  1  2  1  0  0  0  0
  1 18  1  0  0  0  0
  1 19  1  0  0  0  0
  1 20  1  0  0  0  0
  2  3  1  0  0  0  0
  2 13  1  0  0  0  0
  2 21  1  0  0  0  0
  3  4  2  0  0  0  0
  3  5  1  0  0  0  0
  5  6  1  0  0  0  0
  5 22  1  0  0  0  0
  6  7  1  0  0  0  0
  6 23  1  0  0  0  0
  6 24  1  0  0  0  0
  7  8  1  0  0  0  0
  7  9  1  0  0  0  0
  7 10  1  0  0  0  0
  8 25  1  0  0  0  0
  8 26  1  0  0  0  0
  8 27  1  0  0  0  0
  9 28  1  0  0  0  0
  9 29  1  0  0  0  0
  9 30  1  0  0  0  0
 10 11  2  0  0  0  0
 10 12  1  0  0  0  0
 13 17  1  0  0  0  0
 13 14  1  0  0  0  0
 14 15  2  0  0  0  0
 14 31  1  0  0  0  0
 15 16  1  0  0  0  0
 15 32  1  0  0  0  0
 16 17  2  0  0  0  0
 16 33  1  0  0  0  0
M  CHG  1  12  -1
M  END
> <s_m_source_file>
AV-unprocessed.smi

> <i_m_source_file_index>
3139

> <i_lp_mmshare_version>
43012

> <i_f3d_flags>
0

> <s_epik_input>
bjFbY0hdW2NIXVtjSF1uMVtDQEhdKFtDSDNdKUMoPU8pW05IXVtDSDJdQyhbQ0gzXSkoW0NIM10pQyg9TylbT0hd

> <s_epik_cmdline>
J2VwaWtfcHl0aG9uJywgJy1waCcsICc3LjAnLCAnLXRuJywgJzgnLCAnLW1hJywgJzIwMCcsICctbWV0YWxfYmluZGluZycsICctaW1hZScsICc8aW5maWxlLm1hZT4nLCAnLW9tYWUnLCAnPG91dGZpbGUubWFlPic=

> <r_lp_tautomer_probability>
1

> <r_epik_Ionization_Penalty>
0.00184643

> <r_epik_Ionization_Penalty_Charging>
0.00181045

> <r_epik_Ionization_Penalty_Neutral>
3.59763e-05

> <r_epik_State_Penalty>
0.00122842

> <r_epik_Charging_Adjusted_Penalty>
0.00303887

> <i_epik_Tot_Q>
-1

> <i_epik_Tot_abs_Q>
1

> <r_epik_Metal_State_Penalty>
-0

> <b_epik_Metal_Only>
0

> <s_lp_Force_Field>
OPLS_2005

> <r_lp_Energy>
5.55707

> <b_lp_Chiralities_Consistent>
1

> <s_lp_Variant>
AV-unprocessed.smi:3139-1

> <Gold.Version>
5.8.1

> <Gold.Id.Protein>
6NUR|6NUR_protein|mol2

> <Gold.PLP.Fitness>
43.9227

> <Gold.PLP.PLP>
-25.1515

> <Gold.PLP.part.hbond>
-3.0000

> <Gold.PLP.part.metal>
0.0000

> <Gold.PLP.part.buried>
-3.2740

> <Gold.PLP.part.nonpolar>
-18.1286

> <Gold.PLP.part.repulsive>
0.1698

> <Gold.PLP.ligand.clash>
0.0000

> <Gold.PLP.ligand.torsion>
0.3624

> <Gold.PLP.Chemscore.Hbond>
5.4560

> <Gold.PLP.Chemscore.CHOScore>
1.0000

> <Gold.PLP.Chemscore.Metal>
0.0000

> <Gold.Chemscore.Hbonds>
donor molecule, donor type, donor heavy atom, donor atom, acceptor molecule, acceptor atom, score
      P1  H  6896  6908       L1    11  2.00
      P1  H  6931  6943       L1    12  1.79
      P1  H  6934  6947       L1    12  1.12
      L1  C    16    33       P1 10956  1.00

> <Gold.PLP.Chemscore.Internal.Correction>
0.1281

> <Gold.Rescore>
     Score         DG    S(hbond)    S(metal)    S(lipo)     H(rot)  DE(clash)    DE(int)     intcor
     12.83     -14.51       2.60        0.00      53.70       2.32       0.01       1.67       ----

> <Gold.Chemscore.Fitness>
12.8277

> <Gold.Chemscore.DG>
-14.5070

> <Gold.Chemscore.ZeroCoef>
-5.4800

> <Gold.Chemscore.Hbond>
2.6030

> <Gold.Chemscore.Metal>
0.0000

> <Gold.Chemscore.Lipo>
53.6993

> <Gold.Chemscore.Internal_Hbond>
0.0000

> <Gold.Chemscore.DEClash>
0.0089

> <Gold.Chemscore.DEInternal>
1.6705

> <Gold.Chemscore.Rot>
2.3241

> <Gold.Chemscore.Internal.Correction>
   9.000000E+99

> <Gold.Chemscore.Hbonds>
donor molecule, donor type, donor heavy atom, donor atom, acceptor molecule, acceptor atom, score
      P1  H  6896  6908       L1    11  0.99
      P1  H  6931  6943       L1    12  0.88
      P1  H  6934  6947       L1    12  0.55

> <Gold.Chemscore.Hbond.Weighted>
-8.6940

> <Gold.Chemscore.Metal.Weighted>
-0.0000

> <Gold.Chemscore.Lipo.Weighted>
-6.2828

> <Gold.Chemscore.Internal_Hbond.Weighted>
0.0000

> <Gold.Chemscore.DEClash.Weighted>
0.0089

> <Gold.Chemscore.DEInternal.Weighted>
1.6705

> <Gold.Chemscore.Rot.Weighted>
5.9498

> <Gold.Chemscore.Internal.Correction.Weighted>
   9.000000E+99

> <Gold.Protein.RotatedTorsions>
[ 6907 6896 6895 6894 ] final  178.03 input  -60.11 | X-H torsion
[ 7974 7965 7964 7962 ] final -148.61 input  175.53 | X-H torsion
[ 8008 7997 7996 7995 ] final   55.54 input   59.86 | X-H torsion
[ 10167 10162 10161 10158 ] final -101.83 input  -65.29 | X-H torsion
[ 10718 10713 10712 10709 ] final  -41.42 input   66.30 | X-H torsion
[ 10763 10752 10751 10750 ] final  105.24 input  -60.55 | X-H torsion
[ 11005 11000 10999 10996 ] final  161.97 input  -57.11 | X-H torsion

> <Gold.Protein.ActiveResidues>
 VAL166  LYS551  ARG553  GLY616  TRP617  ASP618  TYR619  PRO620  LYS621  CYS622 
 ASP623  PHE694  ASN695  SER759  ASP760  ASP761  ALA762  ILE779  LEU786  VAL792 
 PHE793  MET794  SER795  GLU796  ALA797  LYS798  CYS799  TRP800  GLU811  SER814 

> <Gold.Protein.RotatedAtoms>
  151.6944  133.3311  159.3250 H   0  0  0  0  0  0  0  0  0  0  0  0  # atno 6907 bound_to 6896
  150.7764  134.6670  159.6380 H   0  0  0  0  0  0  0  0  0  0  0  0  # atno 6908 bound_to 6896
  152.3807  134.6597  160.0195 H   0  0  0  0  0  0  0  0  0  0  0  0  # atno 6909 bound_to 6896
  144.8019  140.5174  143.5701 H   0  0  0  0  0  0  0  0  0  0  0  0  # atno 7974 bound_to 7965
  155.5028  140.3475  155.4374 H   0  0  0  0  0  0  0  0  0  0  0  0  # atno 8008 bound_to 7997
  156.0902  140.1408  156.9629 H   0  0  0  0  0  0  0  0  0  0  0  0  # atno 8009 bound_to 7997
  154.4630  140.0928  156.6922 H   0  0  0  0  0  0  0  0  0  0  0  0  # atno 8010 bound_to 7997
  140.2371  143.3565  152.0835 H   0  0  0  0  0  0  0  0  0  0  0  0  # atno 10167 bound_to 10162
  156.2705  130.4206  149.8443 H   0  0  0  0  0  0  0  0  0  0  0  0  # atno 10718 bound_to 10713
  153.3768  135.3916  155.1828 H   0  0  0  0  0  0  0  0  0  0  0  0  # atno 10763 bound_to 10752
  154.8702  135.3715  154.4908 H   0  0  0  0  0  0  0  0  0  0  0  0  # atno 10764 bound_to 10752
  153.5381  135.7085  153.5711 H   0  0  0  0  0  0  0  0  0  0  0  0  # atno 10765 bound_to 10752
  140.2211  134.8195  157.3221 H   0  0  0  0  0  0  0  0  0  0  0  0  # atno 11005 bound_to 11000
  145.5533  139.1477  143.3382 LP  0  0  0  0  0  0  0  0  0  0  0  0  # atno 17320 bound_to 7965
  146.2302  140.5671  142.8979 LP  0  0  0  0  0  0  0  0  0  0  0  0  # atno 17321 bound_to 7965
  139.5090  144.6859  151.5888 LP  0  0  0  0  0  0  0  0  0  0  0  0  # atno 17342 bound_to 10162
  140.6141  143.9381  150.6475 LP  0  0  0  0  0  0  0  0  0  0  0  0  # atno 17343 bound_to 10162
  156.5926  130.8513  151.3412 LP  0  0  0  0  0  0  0  0  0  0  0  0  # atno 17370 bound_to 10713
  157.7282  130.9654  150.1733 LP  0  0  0  0  0  0  0  0  0  0  0  0  # atno 17371 bound_to 10713
  140.1849  134.4444  155.7750 LP  0  0  0  0  0  0  0  0  0  0  0  0  # atno 17394 bound_to 11000
  141.2223  133.7000  156.7930 LP  0  0  0  0  0  0  0  0  0  0  0  0  # atno 17395 bound_to 11000

$$$$
