AV-unprocessed.smi:1978|AV-procd|sdf|7996|dock1
  -GOLD-   2272010183D 1   1.00000     0.00000
 Structure written by MMmdl.
 45 46  0  0  0  0  0  0  0  0  2 V2000
  138.5172  136.6465  154.1550 C   0  0  0  0  0  0  0  0  0  0  0  0
  139.8841  137.1199  154.5132 C   0  0  0  0  0  0  0  0  0  0  0  0
  140.7551  137.9872  153.9158 C   0  0  0  0  0  0  0  0  0  0  0  0
  141.8739  137.9694  154.7905 C   0  0  0  0  0  0  0  0  0  0  0  0
  143.0240  138.7532  154.5186 N   0  0  0  0  0  0  0  0  0  0  0  0
  144.1095  138.9081  155.2955 C   0  0  0  0  0  0  0  0  0  0  0  0
  144.2738  138.3850  156.3981 O   0  0  0  0  0  0  0  0  0  0  0  0
  145.0179  139.7052  154.7130 N   0  0  0  0  0  0  0  0  0  0  0  0
  146.3104  140.0737  155.2864 C   0  0  0  0  0  0  0  0  0  0  0  0
  146.5536  141.6037  155.2702 C   0  0  2  0  0  0  0  0  0  0  0  0
  146.6335  142.2033  153.8487 C   0  0  0  0  0  0  0  0  0  0  0  0
  147.7362  141.9722  156.1161 N   0  3  1  0  0  0  0  0  0  0  0  0
  147.4263  142.0538  157.5749 C   0  0  0  0  0  0  0  0  0  0  0  0
  148.5767  142.6992  158.3595 C   0  0  0  0  0  0  0  0  0  0  0  0
  149.8719  141.9123  158.1520 C   0  0  0  0  0  0  0  0  0  0  0  0
  150.1709  141.8012  156.6538 C   0  0  0  0  0  0  0  0  0  0  0  0
  148.9907  141.1833  155.8706 C   0  0  2  0  0  0  0  0  0  0  0  0
  149.3838  141.0827  154.3822 C   0  0  0  0  0  0  0  0  0  0  0  0
  141.7007  137.1660  155.8288 N   0  0  0  0  0  0  0  0  0  0  0  0
  140.4244  136.6178  155.6564 O   0  0  0  0  0  0  0  0  0  0  0  0
  138.1570  137.1402  153.2524 H   0  0  0  0  0  0  0  0  0  0  0  0
  137.8123  136.8566  154.9595 H   0  0  0  0  0  0  0  0  0  0  0  0
  138.5162  135.5713  153.9754 H   0  0  0  0  0  0  0  0  0  0  0  0
  140.6122  138.5411  153.0000 H   0  0  0  0  0  0  0  0  0  0  0  0
  143.0239  139.2375  153.6331 H   0  0  0  0  0  0  0  0  0  0  0  0
  144.7968  140.0897  153.8060 H   0  0  0  0  0  0  0  0  0  0  0  0
  146.3223  139.7152  156.3162 H   0  0  0  0  0  0  0  0  0  0  0  0
  147.1036  139.5314  154.7730 H   0  0  0  0  0  0  0  0  0  0  0  0
  145.6577  142.0096  155.7331 H   0  0  0  0  0  0  0  0  0  0  0  0
  145.6922  142.0788  153.3139 H   0  0  0  0  0  0  0  0  0  0  0  0
  147.4099  141.7264  153.2503 H   0  0  0  0  0  0  0  0  0  0  0  0
  146.8371  143.2733  153.8722 H   0  0  0  0  0  0  0  0  0  0  0  0
  146.5252  142.6361  157.7560 H   0  0  0  0  0  0  0  0  0  0  0  0
  147.2367  141.0552  157.9704 H   0  0  0  0  0  0  0  0  0  0  0  0
  148.7122  143.7323  158.0363 H   0  0  0  0  0  0  0  0  0  0  0  0
  148.3307  142.7353  159.4212 H   0  0  0  0  0  0  0  0  0  0  0  0
  150.6983  142.4019  158.6681 H   0  0  0  0  0  0  0  0  0  0  0  0
  149.7761  140.9161  158.5860 H   0  0  0  0  0  0  0  0  0  0  0  0
  150.3979  142.7916  156.2558 H   0  0  0  0  0  0  0  0  0  0  0  0
  151.0707  141.2009  156.5129 H   0  0  0  0  0  0  0  0  0  0  0  0
  148.8363  140.1699  156.2437 H   0  0  0  0  0  0  0  0  0  0  0  0
  150.3785  140.6501  154.2715 H   0  0  0  0  0  0  0  0  0  0  0  0
  149.3984  142.0628  153.9044 H   0  0  0  0  0  0  0  0  0  0  0  0
  148.7122  140.4340  153.8205 H   0  0  0  0  0  0  0  0  0  0  0  0
  147.9659  142.9143  155.8338 H   0  0  0  0  0  0  0  0  0  0  0  0
  1  2  1  0  0  0  0
  1 21  1  0  0  0  0
  1 22  1  0  0  0  0
  1 23  1  0  0  0  0
  2 20  1  0  0  0  0
  2  3  2  0  0  0  0
  3  4  1  0  0  0  0
  3 24  1  0  0  0  0
  4  5  1  0  0  0  0
  4 19  2  0  0  0  0
  5  6  1  0  0  0  0
  5 25  1  0  0  0  0
  6  7  2  0  0  0  0
  6  8  1  0  0  0  0
  8  9  1  0  0  0  0
  8 26  1  0  0  0  0
  9 10  1  0  0  0  0
  9 27  1  0  0  0  0
  9 28  1  0  0  0  0
 10 11  1  0  0  0  0
 10 12  1  0  0  0  0
 10 29  1  0  0  0  0
 11 30  1  0  0  0  0
 11 31  1  0  0  0  0
 11 32  1  0  0  0  0
 12 17  1  0  0  0  0
 12 13  1  0  0  0  0
 12 45  1  0  0  0  0
 13 14  1  0  0  0  0
 13 33  1  0  0  0  0
 13 34  1  0  0  0  0
 14 15  1  0  0  0  0
 14 35  1  0  0  0  0
 14 36  1  0  0  0  0
 15 16  1  0  0  0  0
 15 37  1  0  0  0  0
 15 38  1  0  0  0  0
 16 17  1  0  0  0  0
 16 39  1  0  0  0  0
 16 40  1  0  0  0  0
 17 18  1  0  0  0  0
 17 41  1  0  0  0  0
 18 42  1  0  0  0  0
 18 43  1  0  0  0  0
 18 44  1  0  0  0  0
 19 20  1  0  0  0  0
M  CHG  1  12   1
M  END
> <s_m_source_file>
AV-unprocessed.smi

> <i_m_source_file_index>
1978

> <i_lp_mmshare_version>
43012

> <i_f3d_flags>
0

> <s_epik_input>
W0NIM11jMVtjSF1jKG5vMSlbTkhdQyg9TylbTkhdW0NIMl1bQ0BIXShbQ0gzXSlOMltDSDJdW0NIMl1bQ0gyXVtDSDJdW0NASF0yW0NIM10=

> <s_epik_cmdline>
J2VwaWtfcHl0aG9uJywgJy1waCcsICc3LjAnLCAnLXRuJywgJzgnLCAnLW1hJywgJzIwMCcsICctbWV0YWxfYmluZGluZycsICctaW1hZScsICc8aW5maWxlLm1hZT4nLCAnLW9tYWUnLCAnPG91dGZpbGUubWFlPic=

> <r_epik_Ionization_Penalty>
0.00265971

> <r_epik_Ionization_Penalty_Charging>
0.00262393

> <r_epik_Ionization_Penalty_Neutral>
3.57846e-05

> <r_epik_State_Penalty>
0.00182566

> <r_epik_Charging_Adjusted_Penalty>
0.00444959

> <i_epik_Tot_Q>
1

> <i_epik_Tot_abs_Q>
1

> <r_epik_Metal_State_Penalty>
0.0216344

> <b_epik_Metal_Only>
0

> <s_lp_Force_Field>
OPLS_2005

> <r_lp_Energy>
21.464

> <b_lp_Chiralities_Consistent>
1

> <s_lp_Variant>
AV-unprocessed.smi:1978-5

> <Gold.Version>
5.8.1

> <Gold.Id.Protein>
6NUR|6NUR_protein|mol2

> <Gold.PLP.Fitness>
41.0755

> <Gold.PLP.PLP>
-27.5681

> <Gold.PLP.part.hbond>
-4.0000

> <Gold.PLP.part.metal>
0.0000

> <Gold.PLP.part.buried>
-3.6742

> <Gold.PLP.part.nonpolar>
-20.2856

> <Gold.PLP.part.repulsive>
0.0460

> <Gold.PLP.ligand.clash>
0.0000

> <Gold.PLP.ligand.torsion>
0.4886

> <Gold.PLP.Chemscore.Hbond>
4.7823

> <Gold.PLP.Chemscore.CHOScore>
0.0000

> <Gold.PLP.Chemscore.Metal>
0.0000

> <Gold.Chemscore.Hbonds>
donor molecule, donor type, donor heavy atom, donor atom, acceptor molecule, acceptor atom, score
      L1  H     5    25       P1 10175  1.00
      L1  H     8    26       P1 10175  1.00
      L1  H    12    45       P1  8028  2.00
      P1  H 11000 11005       L1    20  0.70

> <Gold.PLP.Chemscore.Internal.Correction>
0.1375

> <Gold.Rescore>
     Score         DG    S(hbond)    S(metal)    S(lipo)     H(rot)  DE(clash)    DE(int)     intcor
     18.44     -20.40       3.59        0.00      58.80       1.55       0.05       1.92       ----

> <Gold.Chemscore.Fitness>
18.4355

> <Gold.Chemscore.DG>
-20.4049

> <Gold.Chemscore.ZeroCoef>
-5.4800

> <Gold.Chemscore.Hbond>
3.5949

> <Gold.Chemscore.Metal>
0.0000

> <Gold.Chemscore.Lipo>
58.7951

> <Gold.Chemscore.Internal_Hbond>
0.0000

> <Gold.Chemscore.DEClash>
0.0531

> <Gold.Chemscore.DEInternal>
1.9162

> <Gold.Chemscore.Rot>
1.5474

> <Gold.Chemscore.Internal.Correction>
   9.000000E+99

> <Gold.Chemscore.Hbonds>
donor molecule, donor type, donor heavy atom, donor atom, acceptor molecule, acceptor atom, score
      L1  H     5    25       P1 10175  0.98
      L1  H     8    26       P1 10175  0.97
      L1  H    12    45       P1  8028  0.67
      P1  H 11000 11005       L1    20  0.71

> <Gold.Chemscore.Hbond.Weighted>
-12.0071

> <Gold.Chemscore.Metal.Weighted>
-0.0000

> <Gold.Chemscore.Lipo.Weighted>
-6.8790

> <Gold.Chemscore.Internal_Hbond.Weighted>
0.0000

> <Gold.Chemscore.DEClash.Weighted>
0.0531

> <Gold.Chemscore.DEInternal.Weighted>
1.9162

> <Gold.Chemscore.Rot.Weighted>
3.9612

> <Gold.Chemscore.Internal.Correction.Weighted>
   9.000000E+99

> <Gold.Protein.RotatedTorsions>
[ 6907 6896 6895 6894 ] final  127.98 input  -60.11 | X-H torsion
[ 7974 7965 7964 7962 ] final  113.31 input  175.53 | X-H torsion
[ 8008 7997 7996 7995 ] final  142.05 input   59.86 | X-H torsion
[ 10167 10162 10161 10158 ] final  -72.45 input  -65.29 | X-H torsion
[ 10718 10713 10712 10709 ] final  -93.15 input   66.30 | X-H torsion
[ 10763 10752 10751 10750 ] final  143.58 input  -60.55 | X-H torsion
[ 11005 11000 10999 10996 ] final  100.27 input  -57.11 | X-H torsion

> <Gold.Protein.ActiveResidues>
 VAL166  LYS551  ARG553  GLY616  TRP617  ASP618  TYR619  PRO620  LYS621  CYS622 
 ASP623  PHE694  ASN695  SER759  ASP760  ASP761  ALA762  ILE779  LEU786  VAL792 
 PHE793  MET794  SER795  GLU796  ALA797  LYS798  CYS799  TRP800  GLU811  SER814 

> <Gold.Protein.RotatedAtoms>
  152.3762  133.6485  159.6125 H   0  0  0  0  0  0  0  0  0  0  0  0  # atno 6907 bound_to 6896
  150.7706  133.9189  159.3401 H   0  0  0  0  0  0  0  0  0  0  0  0  # atno 6908 bound_to 6896
  151.7002  135.0932  160.0301 H   0  0  0  0  0  0  0  0  0  0  0  0  # atno 6909 bound_to 6896
  145.2185  139.2873  143.4231 H   0  0  0  0  0  0  0  0  0  0  0  0  # atno 7974 bound_to 7965
  156.2956  140.2299  156.4665 H   0  0  0  0  0  0  0  0  0  0  0  0  # atno 8008 bound_to 7997
  154.7972  140.0450  157.1267 H   0  0  0  0  0  0  0  0  0  0  0  0  # atno 8009 bound_to 7997
  154.9575  140.3050  155.5049 H   0  0  0  0  0  0  0  0  0  0  0  0  # atno 8010 bound_to 7997
  140.5191  143.2334  151.7461 H   0  0  0  0  0  0  0  0  0  0  0  0  # atno 10167 bound_to 10162
  156.0010  130.5015  150.5732 H   0  0  0  0  0  0  0  0  0  0  0  0  # atno 10718 bound_to 10713
  153.9748  135.2947  155.3425 H   0  0  0  0  0  0  0  0  0  0  0  0  # atno 10763 bound_to 10752
  154.7302  135.5071  153.8955 H   0  0  0  0  0  0  0  0  0  0  0  0  # atno 10764 bound_to 10752
  153.0883  135.6700  154.0018 H   0  0  0  0  0  0  0  0  0  0  0  0  # atno 10765 bound_to 10752
  139.8771  134.9133  156.4731 H   0  0  0  0  0  0  0  0  0  0  0  0  # atno 11005 bound_to 11000
  146.3381  140.2483  142.8598 LP  0  0  0  0  0  0  0  0  0  0  0  0  # atno 17320 bound_to 7965
  144.9788  140.8439  143.5410 LP  0  0  0  0  0  0  0  0  0  0  0  0  # atno 17321 bound_to 7965
  139.4918  144.4281  151.9903 LP  0  0  0  0  0  0  0  0  0  0  0  0  # atno 17342 bound_to 10162
  140.3376  144.3241  150.5974 LP  0  0  0  0  0  0  0  0  0  0  0  0  # atno 17343 bound_to 10162
  157.3624  131.0752  151.1625 LP  0  0  0  0  0  0  0  0  0  0  0  0  # atno 17370 bound_to 10713
  157.2406  130.6567  149.5888 LP  0  0  0  0  0  0  0  0  0  0  0  0  # atno 17371 bound_to 10713
  140.8781  133.7938  155.9437 LP  0  0  0  0  0  0  0  0  0  0  0  0  # atno 17394 bound_to 11000
  140.8882  134.2527  157.5108 LP  0  0  0  0  0  0  0  0  0  0  0  0  # atno 17395 bound_to 11000

$$$$
