AV-unprocessed.smi:3327|AV-procd|sdf|12788|dock4
  -GOLD-   2272019133D 1   1.00000     0.00000
 Structure written by MMmdl.
 41 42  0  0  0  0  0  0  0  0  2 V2000
  152.8315  143.5850  162.3058 C   0  0  0  0  0  0  0  0  0  0  0  0
  152.1398  143.6376  160.9367 C   0  0  1  0  0  0  0  0  0  0  0  0
  151.9784  145.0906  160.4392 C   0  0  0  0  0  0  0  0  0  0  0  0
  151.3970  145.1508  159.0141 C   0  0  0  0  0  0  0  0  0  0  0  0
  152.1857  144.2360  158.0612 C   0  0  0  0  0  0  0  0  0  0  0  0
  152.1773  142.8710  158.6045 N   0  0  0  0  0  0  0  0  0  0  0  0
  151.5104  141.8168  158.0745 C   0  0  0  0  0  0  0  0  0  0  0  0
  151.5029  140.7065  158.6091 O   0  0  0  0  0  0  0  0  0  0  0  0
  150.7319  142.0103  156.7639 C   0  0  0  0  0  0  0  0  0  0  0  0
  149.3957  142.6013  156.9821 N   0  3  0  0  0  0  0  0  0  0  0  0
  148.2726  141.6962  156.6654 C   0  0  0  0  0  0  0  0  0  0  0  0
  148.1715  141.4232  155.1559 C   0  0  0  0  0  0  0  0  0  0  0  0
  148.7909  140.1644  154.7823 N   0  0  0  0  0  0  0  0  0  0  0  0
  150.1304  139.8365  154.7772 C   0  0  0  0  0  0  0  0  0  0  0  0
  150.2293  138.5405  154.3587 C   0  0  0  0  0  0  0  0  0  0  0  0
  148.8794  138.1557  154.1262 C   0  0  0  0  0  0  0  0  0  0  0  0
  148.0203  139.1290  154.3839 N   0  0  0  0  0  0  0  0  0  0  0  0
  152.8929  142.7948  159.8855 C   0  0  0  0  0  0  0  0  0  0  0  0
  153.8409  143.9943  162.2565 H   0  0  0  0  0  0  0  0  0  0  0  0
  152.9057  142.5595  162.6687 H   0  0  0  0  0  0  0  0  0  0  0  0
  152.2755  144.1576  163.0487 H   0  0  0  0  0  0  0  0  0  0  0  0
  151.1428  143.2104  161.0561 H   0  0  0  0  0  0  0  0  0  0  0  0
  151.3450  145.6567  161.1231 H   0  0  0  0  0  0  0  0  0  0  0  0
  152.9517  145.5833  160.4437 H   0  0  0  0  0  0  0  0  0  0  0  0
  150.3503  144.8445  159.0320 H   0  0  0  0  0  0  0  0  0  0  0  0
  151.4137  146.1777  158.6484 H   0  0  0  0  0  0  0  0  0  0  0  0
  151.7783  144.3141  157.0547 H   0  0  0  0  0  0  0  0  0  0  0  0
  153.2174  144.5826  157.9831 H   0  0  0  0  0  0  0  0  0  0  0  0
  151.3002  142.6611  156.0980 H   0  0  0  0  0  0  0  0  0  0  0  0
  150.6105  141.0440  156.2725 H   0  0  0  0  0  0  0  0  0  0  0  0
  149.3235  142.8734  157.9527 H   0  0  0  0  0  0  0  0  0  0  0  0
  148.4205  140.7559  157.1979 H   0  0  0  0  0  0  0  0  0  0  0  0
  147.3387  142.1264  157.0301 H   0  0  0  0  0  0  0  0  0  0  0  0
  147.1301  141.4211  154.8298 H   0  0  0  0  0  0  0  0  0  0  0  0
  148.6687  142.2217  154.6038 H   0  0  0  0  0  0  0  0  0  0  0  0
  150.8933  140.5438  155.0692 H   0  0  0  0  0  0  0  0  0  0  0  0
  151.1294  137.9565  154.2352 H   0  0  0  0  0  0  0  0  0  0  0  0
  148.5006  137.2045  153.7820 H   0  0  0  0  0  0  0  0  0  0  0  0
  153.9080  143.1731  159.7537 H   0  0  0  0  0  0  0  0  0  0  0  0
  153.0062  141.7700  160.2423 H   0  0  0  0  0  0  0  0  0  0  0  0
  149.3148  143.4325  156.4139 H   0  0  0  0  0  0  0  0  0  0  0  0
  1  2  1  0  0  0  0
  1 19  1  0  0  0  0
  1 20  1  0  0  0  0
  1 21  1  0  0  0  0
  2 18  1  0  0  0  0
  2  3  1  0  0  0  0
  2 22  1  0  0  0  0
  3  4  1  0  0  0  0
  3 23  1  0  0  0  0
  3 24  1  0  0  0  0
  4  5  1  0  0  0  0
  4 25  1  0  0  0  0
  4 26  1  0  0  0  0
  5  6  1  0  0  0  0
  5 27  1  0  0  0  0
  5 28  1  0  0  0  0
  6  7  1  0  0  0  0
  6 18  1  0  0  0  0
  7  8  2  0  0  0  0
  7  9  1  0  0  0  0
  9 10  1  0  0  0  0
  9 29  1  0  0  0  0
  9 30  1  0  0  0  0
 10 11  1  0  0  0  0
 10 31  1  0  0  0  0
 10 41  1  0  0  0  0
 11 12  1  0  0  0  0
 11 32  1  0  0  0  0
 11 33  1  0  0  0  0
 12 13  1  0  0  0  0
 12 34  1  0  0  0  0
 12 35  1  0  0  0  0
 13 17  1  0  0  0  0
 13 14  1  0  0  0  0
 14 15  2  0  0  0  0
 14 36  1  0  0  0  0
 15 16  1  0  0  0  0
 15 37  1  0  0  0  0
 16 17  2  0  0  0  0
 16 38  1  0  0  0  0
 18 39  1  0  0  0  0
 18 40  1  0  0  0  0
M  CHG  1  10   1
M  END
> <s_m_source_file>
AV-unprocessed.smi

> <i_m_source_file_index>
3327

> <i_lp_mmshare_version>
43012

> <i_f3d_flags>
0

> <s_epik_input>
W0NIM11bQ0BASF0xW0NIMl1bQ0gyXVtDSDJdTihbQ0gyXTEpQyg9TylbQ0gyXVtOSF1bQ0gyXVtDSDJdbjJbY0hdW2NIXVtjSF1uMg==

> <s_epik_cmdline>
J2VwaWtfcHl0aG9uJywgJy1waCcsICc3LjAnLCAnLXRuJywgJzgnLCAnLW1hJywgJzIwMCcsICctbWV0YWxfYmluZGluZycsICctaW1hZScsICc8aW5maWxlLm1hZT4nLCAnLW9tYWUnLCAnPG91dGZpbGUubWFlPic=

> <r_lp_tautomer_probability>
1

> <r_epik_Ionization_Penalty>
0.195801

> <r_epik_Ionization_Penalty_Charging>
0.195799

> <r_epik_Ionization_Penalty_Neutral>
2.33113e-06

> <r_epik_State_Penalty>
0.185548

> <r_epik_Charging_Adjusted_Penalty>
0.381347

> <i_epik_Tot_Q>
1

> <i_epik_Tot_abs_Q>
1

> <r_epik_Metal_State_Penalty>
0.186014

> <b_epik_Metal_Only>
0

> <s_lp_Force_Field>
OPLS_2005

> <r_lp_Energy>
21.4811

> <b_lp_Chiralities_Consistent>
1

> <s_lp_Variant>
AV-unprocessed.smi:3327-2

> <Gold.Version>
5.8.1

> <Gold.Id.Protein>
6NUR|6NUR_protein|mol2

> <Gold.PLP.Fitness>
50.7823

> <Gold.PLP.PLP>
-43.8711

> <Gold.PLP.part.hbond>
-0.9598

> <Gold.PLP.part.metal>
0.0000

> <Gold.PLP.part.buried>
-1.6773

> <Gold.PLP.part.nonpolar>
-41.3688

> <Gold.PLP.part.repulsive>
0.1458

> <Gold.PLP.ligand.clash>
0.0000

> <Gold.PLP.ligand.torsion>
1.0600

> <Gold.PLP.Chemscore.Hbond>
2.0000

> <Gold.PLP.Chemscore.CHOScore>
1.0000

> <Gold.PLP.Chemscore.Metal>
0.0000

> <Gold.Chemscore.Hbonds>
donor molecule, donor type, donor heavy atom, donor atom, acceptor molecule, acceptor atom, score
      L1  H    10    41       P1  8028  2.00
      L1  C    16    38       P1  7948  0.92

> <Gold.PLP.Chemscore.Internal.Correction>
0.0311

> <Gold.Rescore>
     Score         DG    S(hbond)    S(metal)    S(lipo)     H(rot)  DE(clash)    DE(int)     intcor
     15.52     -16.93       0.95        0.00     110.04       1.80       0.29       1.12       ----

> <Gold.Chemscore.Fitness>
15.5163

> <Gold.Chemscore.DG>
-16.9302

> <Gold.Chemscore.ZeroCoef>
-5.4800

> <Gold.Chemscore.Hbond>
0.9503

> <Gold.Chemscore.Metal>
0.0000

> <Gold.Chemscore.Lipo>
110.0391

> <Gold.Chemscore.Internal_Hbond>
0.0000

> <Gold.Chemscore.DEClash>
0.2947

> <Gold.Chemscore.DEInternal>
1.1191

> <Gold.Chemscore.Rot>
1.7963

> <Gold.Chemscore.Internal.Correction>
   9.000000E+99

> <Gold.Chemscore.Hbonds>
donor molecule, donor type, donor heavy atom, donor atom, acceptor molecule, acceptor atom, score
      L1  H    10    41       P1  8028  0.95

> <Gold.Chemscore.Hbond.Weighted>
-3.1740

> <Gold.Chemscore.Metal.Weighted>
-0.0000

> <Gold.Chemscore.Lipo.Weighted>
-12.8746

> <Gold.Chemscore.Internal_Hbond.Weighted>
0.0000

> <Gold.Chemscore.DEClash.Weighted>
0.2947

> <Gold.Chemscore.DEInternal.Weighted>
1.1191

> <Gold.Chemscore.Rot.Weighted>
4.5985

> <Gold.Chemscore.Internal.Correction.Weighted>
   9.000000E+99

> <Gold.Protein.RotatedTorsions>
[ 6907 6896 6895 6894 ] final   58.30 input  -60.11 | X-H torsion
[ 7974 7965 7964 7962 ] final   89.51 input  175.53 | X-H torsion
[ 8008 7997 7996 7995 ] final   44.07 input   59.86 | X-H torsion
[ 10167 10162 10161 10158 ] final   31.69 input  -65.29 | X-H torsion
[ 10718 10713 10712 10709 ] final   78.26 input   66.30 | X-H torsion
[ 10763 10752 10751 10750 ] final  159.77 input  -60.55 | X-H torsion
[ 11005 11000 10999 10996 ] final  -64.96 input  -57.11 | X-H torsion

> <Gold.Protein.ActiveResidues>
 VAL166  LYS551  ARG553  GLY616  TRP617  ASP618  TYR619  PRO620  LYS621  CYS622 
 ASP623  PHE694  ASN695  SER759  ASP760  ASP761  ALA762  ILE779  LEU786  VAL792 
 PHE793  MET794  SER795  GLU796  ALA797  LYS798  CYS799  TRP800  GLU811  SER814 

> <Gold.Protein.RotatedAtoms>
  152.3812  134.6588  160.0141 H   0  0  0  0  0  0  0  0  0  0  0  0  # atno 6907 bound_to 6896
  151.6850  133.3306  159.3237 H   0  0  0  0  0  0  0  0  0  0  0  0  # atno 6908 bound_to 6896
  150.7749  134.6684  159.6422 H   0  0  0  0  0  0  0  0  0  0  0  0  # atno 6909 bound_to 6896
  145.5314  139.2283  143.2616 H   0  0  0  0  0  0  0  0  0  0  0  0  # atno 7974 bound_to 7965
  155.3132  140.3392  155.4243 H   0  0  0  0  0  0  0  0  0  0  0  0  # atno 8008 bound_to 7997
  156.1945  140.1710  156.8063 H   0  0  0  0  0  0  0  0  0  0  0  0  # atno 8009 bound_to 7997
  154.5482  140.0711  156.8608 H   0  0  0  0  0  0  0  0  0  0  0  0  # atno 8010 bound_to 7997
  140.4566  144.0970  150.6203 H   0  0  0  0  0  0  0  0  0  0  0  0  # atno 10167 bound_to 10162
  157.6739  130.9860  150.1761 H   0  0  0  0  0  0  0  0  0  0  0  0  # atno 10718 bound_to 10713
  154.2369  135.2776  155.2868 H   0  0  0  0  0  0  0  0  0  0  0  0  # atno 10763 bound_to 10752
  154.5577  135.5656  153.6982 H   0  0  0  0  0  0  0  0  0  0  0  0  # atno 10764 bound_to 10752
  153.0008  135.6290  154.2512 H   0  0  0  0  0  0  0  0  0  0  0  0  # atno 10765 bound_to 10752
  141.1440  133.6674  156.5913 H   0  0  0  0  0  0  0  0  0  0  0  0  # atno 11005 bound_to 11000
  146.2041  140.6131  142.9089 LP  0  0  0  0  0  0  0  0  0  0  0  0  # atno 17320 bound_to 7965
  144.7624  140.5452  143.6726 LP  0  0  0  0  0  0  0  0  0  0  0  0  # atno 17321 bound_to 7965
  140.4144  143.2641  151.9793 LP  0  0  0  0  0  0  0  0  0  0  0  0  # atno 17342 bound_to 10162
  139.4802  144.5887  151.7810 LP  0  0  0  0  0  0  0  0  0  0  0  0  # atno 17343 bound_to 10162
  156.2504  130.3700  149.8239 LP  0  0  0  0  0  0  0  0  0  0  0  0  # atno 17370 bound_to 10713
  156.6013  130.8548  151.3432 LP  0  0  0  0  0  0  0  0  0  0  0  0  # atno 17371 bound_to 10713
  140.3761  134.7564  157.4630 LP  0  0  0  0  0  0  0  0  0  0  0  0  # atno 17394 bound_to 11000
  140.0673  134.5911  155.8680 LP  0  0  0  0  0  0  0  0  0  0  0  0  # atno 17395 bound_to 11000

$$$$
