AV-unprocessed.smi:1978|AV-procd|sdf|8011|dock9
  -GOLD-   2272010203D 1   1.00000     0.00000
 Structure written by MMmdl.
 44 45  0  0  0  0  0  0  0  0  3 V2000
  152.9923  142.3031  161.1187 C   0  0  0  0  0  0  0  0  0  0  0  0
  152.2492  142.3248  159.8274 C   0  0  0  0  0  0  0  0  0  0  0  0
  152.0932  141.4045  158.8295 C   0  0  0  0  0  0  0  0  0  0  0  0
  151.2583  142.0784  157.8988 C   0  0  0  0  0  0  0  0  0  0  0  0
  150.8549  141.4411  156.6960 N   0  0  0  0  0  0  0  0  0  0  0  0
  151.3842  140.3585  156.0976 C   0  0  0  0  0  0  0  0  0  0  0  0
  152.3556  139.7794  156.5985 O   0  0  0  0  0  0  0  0  0  0  0  0
  150.7363  140.0406  154.9428 N   0  5  0  0  0  0  0  0  0  0  0  0
  150.5322  138.6798  154.4425 C   0  0  0  0  0  0  0  0  0  0  0  0
  149.2977  138.0154  155.1170 C   0  0  1  0  0  0  0  0  0  0  0  0
  148.7835  138.7461  156.3839 C   0  0  0  0  0  0  0  0  0  0  0  0
  148.2091  137.7679  154.1085 N   0  3  2  0  0  0  0  0  0  0  0  0
  147.6437  139.0141  153.4976 C   0  0  0  0  0  0  0  0  0  0  0  0
  146.7544  138.7011  152.2885 C   0  0  0  0  0  0  0  0  0  0  0  0
  145.6046  137.7846  152.7058 C   0  0  0  0  0  0  0  0  0  0  0  0
  146.1719  136.5192  153.3542 C   0  0  0  0  0  0  0  0  0  0  0  0
  147.1165  136.8288  154.5394 C   0  0  1  0  0  0  0  0  0  0  0  0
  147.6292  135.4836  155.0995 C   0  0  0  0  0  0  0  0  0  0  0  0
  150.9368  143.3019  158.2930 N   0  0  0  0  0  0  0  0  0  0  0  0
  151.5707  143.4661  159.5304 O   0  0  0  0  0  0  0  0  0  0  0  0
  153.3357  141.2952  161.3524 H   0  0  0  0  0  0  0  0  0  0  0  0
  152.3564  142.6411  161.9370 H   0  0  0  0  0  0  0  0  0  0  0  0
  153.8634  142.9564  161.0731 H   0  0  0  0  0  0  0  0  0  0  0  0
  152.5076  140.4090  158.7765 H   0  0  0  0  0  0  0  0  0  0  0  0
  150.0696  141.8624  156.2227 H   0  0  0  0  0  0  0  0  0  0  0  0
  150.4200  138.6367  153.3584 H   0  0  0  0  0  0  0  0  0  0  0  0
  151.4084  138.0673  154.6585 H   0  0  0  0  0  0  0  0  0  0  0  0
  149.6760  137.0595  155.4648 H   0  0  0  0  0  0  0  0  0  0  0  0
  149.5320  138.7562  157.1779 H   0  0  0  0  0  0  0  0  0  0  0  0
  147.9088  138.2412  156.7939 H   0  0  0  0  0  0  0  0  0  0  0  0
  148.5052  139.7838  156.1922 H   0  0  0  0  0  0  0  0  0  0  0  0
  147.0576  139.5586  154.2391 H   0  0  0  0  0  0  0  0  0  0  0  0
  148.4375  139.6872  153.1736 H   0  0  0  0  0  0  0  0  0  0  0  0
  146.3588  139.6255  151.8666 H   0  0  0  0  0  0  0  0  0  0  0  0
  147.3460  138.2279  151.5036 H   0  0  0  0  0  0  0  0  0  0  0  0
  144.9500  138.3020  153.4084 H   0  0  0  0  0  0  0  0  0  0  0  0
  144.9952  137.5244  151.8401 H   0  0  0  0  0  0  0  0  0  0  0  0
  145.3452  135.8913  153.6885 H   0  0  0  0  0  0  0  0  0  0  0  0
  146.7088  135.9409  152.6004 H   0  0  0  0  0  0  0  0  0  0  0  0
  146.5362  137.3221  155.3208 H   0  0  0  0  0  0  0  0  0  0  0  0
  146.8174  134.7607  155.1842 H   0  0  0  0  0  0  0  0  0  0  0  0
  148.0424  135.5782  156.1031 H   0  0  0  0  0  0  0  0  0  0  0  0
  148.3898  135.0457  154.4520 H   0  0  0  0  0  0  0  0  0  0  0  0
  148.6795  137.2840  153.3569 H   0  0  0  0  0  0  0  0  0  0  0  0
  1  2  1  0  0  0  0
  1 21  1  0  0  0  0
  1 22  1  0  0  0  0
  1 23  1  0  0  0  0
  2 20  1  0  0  0  0
  2  3  2  0  0  0  0
  3  4  1  0  0  0  0
  3 24  1  0  0  0  0
  4  5  1  0  0  0  0
  4 19  2  0  0  0  0
  5  6  1  0  0  0  0
  5 25  1  0  0  0  0
  6  7  2  0  0  0  0
  6  8  1  0  0  0  0
  8  9  1  0  0  0  0
  9 10  1  0  0  0  0
  9 26  1  0  0  0  0
  9 27  1  0  0  0  0
 10 11  1  0  0  0  0
 10 12  1  0  0  0  0
 10 28  1  0  0  0  0
 11 29  1  0  0  0  0
 11 30  1  0  0  0  0
 11 31  1  0  0  0  0
 12 17  1  0  0  0  0
 12 13  1  0  0  0  0
 12 44  1  0  0  0  0
 13 14  1  0  0  0  0
 13 32  1  0  0  0  0
 13 33  1  0  0  0  0
 14 15  1  0  0  0  0
 14 34  1  0  0  0  0
 14 35  1  0  0  0  0
 15 16  1  0  0  0  0
 15 36  1  0  0  0  0
 15 37  1  0  0  0  0
 16 17  1  0  0  0  0
 16 38  1  0  0  0  0
 16 39  1  0  0  0  0
 17 18  1  0  0  0  0
 17 40  1  0  0  0  0
 18 41  1  0  0  0  0
 18 42  1  0  0  0  0
 18 43  1  0  0  0  0
 19 20  1  0  0  0  0
M  CHG  1   8  -1
M  CHG  1  12   1
M  END
> <s_m_source_file>
AV-unprocessed.smi

> <i_m_source_file_index>
1978

> <i_lp_mmshare_version>
43012

> <i_f3d_flags>
0

> <s_epik_input>
W0NIM11jMVtjSF1jKG5vMSlbTkhdQyg9TylbTkhdW0NIMl1bQ0BIXShbQ0gzXSlOMltDSDJdW0NIMl1bQ0gyXVtDSDJdW0NASF0yW0NIM10=

> <s_epik_cmdline>
J2VwaWtfcHl0aG9uJywgJy1waCcsICc3LjAnLCAnLXRuJywgJzgnLCAnLW1hJywgJzIwMCcsICctbWV0YWxfYmluZGluZycsICctaW1hZScsICc8aW5maWxlLm1hZT4nLCAnLW9tYWUnLCAnPG91dGZpbGUubWFlPic=

> <r_epik_Ionization_Penalty>
6.7666

> <r_epik_Ionization_Penalty_Charging>
6.7666

> <r_epik_Ionization_Penalty_Neutral>
5.77131e-06

> <r_epik_State_Penalty>
6.79217

> <r_epik_Charging_Adjusted_Penalty>
13.5588

> <i_epik_Tot_Q>
0

> <i_epik_Tot_abs_Q>
2

> <r_epik_Metal_State_Penalty>
2.72569

> <b_epik_Metal_Only>
1

> <s_lp_Force_Field>
OPLS_2005

> <r_lp_Energy>
21.6667

> <b_lp_Chiralities_Consistent>
1

> <s_lp_Variant>
AV-unprocessed.smi:1978-20

> <Gold.Version>
5.8.1

> <Gold.Id.Protein>
6NUR|6NUR_protein|mol2

> <Gold.PLP.Fitness>
41.9384

> <Gold.PLP.PLP>
-32.2076

> <Gold.PLP.part.hbond>
-3.0000

> <Gold.PLP.part.metal>
0.0000

> <Gold.PLP.part.buried>
-4.3925

> <Gold.PLP.part.nonpolar>
-24.4531

> <Gold.PLP.part.repulsive>
0.2902

> <Gold.PLP.ligand.clash>
0.0000

> <Gold.PLP.ligand.torsion>
1.2320

> <Gold.PLP.Chemscore.Hbond>
4.0000

> <Gold.PLP.Chemscore.CHOScore>
0.0000

> <Gold.PLP.Chemscore.Metal>
0.0000

> <Gold.Chemscore.Hbonds>
donor molecule, donor type, donor heavy atom, donor atom, acceptor molecule, acceptor atom, score
      L1  H    12    44       P1  7948  2.00
      P1  H  7989  7998       L1     8  1.00
      P1  H  7997  8010       L1     7  1.00

> <Gold.PLP.Chemscore.Internal.Correction>
0.1947

> <Gold.Rescore>
     Score         DG    S(hbond)    S(metal)    S(lipo)     H(rot)  DE(clash)    DE(int)     intcor
     14.66     -17.39       2.22        0.00      71.54       1.52       0.11       2.63       ----

> <Gold.Chemscore.Fitness>
14.6590

> <Gold.Chemscore.DG>
-17.3927

> <Gold.Chemscore.ZeroCoef>
-5.4800

> <Gold.Chemscore.Hbond>
2.2247

> <Gold.Chemscore.Metal>
0.0000

> <Gold.Chemscore.Lipo>
71.5445

> <Gold.Chemscore.Internal_Hbond>
0.0000

> <Gold.Chemscore.DEClash>
0.1079

> <Gold.Chemscore.DEInternal>
2.6257

> <Gold.Chemscore.Rot>
1.5190

> <Gold.Chemscore.Internal.Correction>
   9.000000E+99

> <Gold.Chemscore.Hbonds>
donor molecule, donor type, donor heavy atom, donor atom, acceptor molecule, acceptor atom, score
      L1  H    12    44       P1  7948  1.00
      P1  H  7989  7998       L1     8  0.24
      P1  H  7997  8010       L1     7  0.93

> <Gold.Chemscore.Hbond.Weighted>
-7.4306

> <Gold.Chemscore.Metal.Weighted>
-0.0000

> <Gold.Chemscore.Lipo.Weighted>
-8.3707

> <Gold.Chemscore.Internal_Hbond.Weighted>
0.0000

> <Gold.Chemscore.DEClash.Weighted>
0.1079

> <Gold.Chemscore.DEInternal.Weighted>
2.6257

> <Gold.Chemscore.Rot.Weighted>
3.8886

> <Gold.Chemscore.Internal.Correction.Weighted>
   9.000000E+99

> <Gold.Protein.RotatedTorsions>
[ 6907 6896 6895 6894 ] final -146.03 input  -60.11 | X-H torsion
[ 7974 7965 7964 7962 ] final -162.46 input  175.53 | X-H torsion
[ 8008 7997 7996 7995 ] final   77.19 input   59.86 | X-H torsion
[ 10167 10162 10161 10158 ] final  163.73 input  -65.29 | X-H torsion
[ 10718 10713 10712 10709 ] final  -23.21 input   66.30 | X-H torsion
[ 10763 10752 10751 10750 ] final  -91.71 input  -60.55 | X-H torsion
[ 11005 11000 10999 10996 ] final   55.97 input  -57.11 | X-H torsion

> <Gold.Protein.ActiveResidues>
 VAL166  LYS551  ARG553  GLY616  TRP617  ASP618  TYR619  PRO620  LYS621  CYS622 
 ASP623  PHE694  ASN695  SER759  ASP760  ASP761  ALA762  ILE779  LEU786  VAL792 
 PHE793  MET794  SER795  GLU796  ALA797  LYS798  CYS799  TRP800  GLU811  SER814 

> <Gold.Protein.RotatedAtoms>
  151.1359  133.5004  159.2597 H   0  0  0  0  0  0  0  0  0  0  0  0  # atno 6907 bound_to 6896
  151.1707  135.0316  159.8760 H   0  0  0  0  0  0  0  0  0  0  0  0  # atno 6908 bound_to 6896
  152.5461  134.1223  159.8457 H   0  0  0  0  0  0  0  0  0  0  0  0  # atno 6909 bound_to 6896
  144.7357  140.3249  143.6164 H   0  0  0  0  0  0  0  0  0  0  0  0  # atno 7974 bound_to 7965
  155.8381  140.3463  155.5614 H   0  0  0  0  0  0  0  0  0  0  0  0  # atno 8008 bound_to 7997
  155.8170  140.0907  157.1891 H   0  0  0  0  0  0  0  0  0  0  0  0  # atno 8009 bound_to 7997
  154.4004  140.1437  156.3442 H   0  0  0  0  0  0  0  0  0  0  0  0  # atno 8010 bound_to 7997
  139.4878  144.4308  151.9073 H   0  0  0  0  0  0  0  0  0  0  0  0  # atno 10167 bound_to 10162
  156.4941  130.4573  149.6739 H   0  0  0  0  0  0  0  0  0  0  0  0  # atno 10718 bound_to 10713
  154.6788  135.5258  153.8235 H   0  0  0  0  0  0  0  0  0  0  0  0  # atno 10763 bound_to 10752
  153.0551  135.6547  154.0608 H   0  0  0  0  0  0  0  0  0  0  0  0  # atno 10764 bound_to 10752
  154.0498  135.2970  155.3322 H   0  0  0  0  0  0  0  0  0  0  0  0  # atno 10765 bound_to 10752
  140.0565  134.5663  155.9202 H   0  0  0  0  0  0  0  0  0  0  0  0  # atno 11005 bound_to 11000
  145.7531  139.1800  143.2310 LP  0  0  0  0  0  0  0  0  0  0  0  0  # atno 17320 bound_to 7965
  146.1045  140.7503  142.9533 LP  0  0  0  0  0  0  0  0  0  0  0  0  # atno 17321 bound_to 7965
  140.3755  144.2801  150.5914 LP  0  0  0  0  0  0  0  0  0  0  0  0  # atno 17342 bound_to 10162
  140.5280  143.2250  151.8284 LP  0  0  0  0  0  0  0  0  0  0  0  0  # atno 17343 bound_to 10162
  156.3397  130.7376  151.2319 LP  0  0  0  0  0  0  0  0  0  0  0  0  # atno 17370 bound_to 10713
  157.7470  131.0407  150.4610 LP  0  0  0  0  0  0  0  0  0  0  0  0  # atno 17371 bound_to 10713
  141.1954  133.6587  156.5642 LP  0  0  0  0  0  0  0  0  0  0  0  0  # atno 17394 bound_to 11000
  140.3836  134.7502  157.4677 LP  0  0  0  0  0  0  0  0  0  0  0  0  # atno 17395 bound_to 11000

$$$$
