AV-unprocessed.smi:3348|AV-procd|sdf|12918|dock9
  -GOLD-   2272019333D 1   1.00000     0.00000
 Structure written by MMmdl.
 47 48  0  0  0  0  0  0  0  0  2 V2000
  143.6518  136.0754  151.7672 C   0  0  0  0  0  0  0  0  0  0  0  0
  145.1650  135.7896  151.8336 C   0  0  1  0  0  0  0  0  0  0  0  0
  145.6112  134.7450  150.7893 C   0  0  0  0  0  0  0  0  0  0  0  0
  144.8194  133.5287  150.8270 N   0  0  0  0  0  0  0  0  0  0  0  0
  145.2342  132.2402  151.0911 C   0  0  0  0  0  0  0  0  0  0  0  0
  144.1328  131.4364  151.0179 C   0  0  0  0  0  0  0  0  0  0  0  0
  143.0766  132.3373  150.7063 C   0  0  0  0  0  0  0  0  0  0  0  0
  143.4909  133.5892  150.5943 N   0  0  0  0  0  0  0  0  0  0  0  0
  145.9532  137.0285  151.6483 N   0  3  0  0  0  0  0  0  0  0  0  0
  145.8820  138.0004  152.7601 C   0  0  0  0  0  0  0  0  0  0  0  0
  146.8035  139.1954  152.4989 C   0  0  0  0  0  0  0  0  0  0  0  0
  147.6419  139.3685  153.6311 O   0  0  0  0  0  0  0  0  0  0  0  0
  148.5050  140.4995  153.5693 C   0  0  1  0  0  0  0  0  0  0  0  0
  147.7336  141.7930  153.9094 C   0  0  0  0  0  0  0  0  0  0  0  0
  147.2283  141.7879  155.3613 C   0  0  0  0  0  0  0  0  0  0  0  0
  148.3819  141.5624  156.3504 C   0  0  0  0  0  0  0  0  0  0  0  0
  149.1585  140.2774  156.0211 C   0  0  0  0  0  0  0  0  0  0  0  0
  149.6663  140.2798  154.5648 C   0  0  1  0  0  0  0  0  0  0  0  0
  150.4751  139.0142  154.2392 C   0  0  0  0  0  0  0  0  0  0  0  0
  143.0670  135.1695  151.9280 H   0  0  0  0  0  0  0  0  0  0  0  0
  143.3688  136.4833  150.7962 H   0  0  0  0  0  0  0  0  0  0  0  0
  143.3390  136.7862  152.5314 H   0  0  0  0  0  0  0  0  0  0  0  0
  145.3993  135.3925  152.8227 H   0  0  0  0  0  0  0  0  0  0  0  0
  145.5485  135.1649  149.7841 H   0  0  0  0  0  0  0  0  0  0  0  0
  146.6561  134.4736  150.9478 H   0  0  0  0  0  0  0  0  0  0  0  0
  146.2663  132.0037  151.3036 H   0  0  0  0  0  0  0  0  0  0  0  0
  144.0875  130.3675  151.1665 H   0  0  0  0  0  0  0  0  0  0  0  0
  142.0288  132.1204  150.5601 H   0  0  0  0  0  0  0  0  0  0  0  0
  146.9227  136.7590  151.5575 H   0  0  0  0  0  0  0  0  0  0  0  0
  144.8575  138.3553  152.8685 H   0  0  0  0  0  0  0  0  0  0  0  0
  146.1582  137.5173  153.6984 H   0  0  0  0  0  0  0  0  0  0  0  0
  147.3968  139.0281  151.5985 H   0  0  0  0  0  0  0  0  0  0  0  0
  146.2004  140.0878  152.3336 H   0  0  0  0  0  0  0  0  0  0  0  0
  148.9269  140.5834  152.5661 H   0  0  0  0  0  0  0  0  0  0  0  0
  148.3933  142.6497  153.7656 H   0  0  0  0  0  0  0  0  0  0  0  0
  146.8991  141.9443  153.2255 H   0  0  0  0  0  0  0  0  0  0  0  0
  146.7285  142.7311  155.5836 H   0  0  0  0  0  0  0  0  0  0  0  0
  146.4792  141.0052  155.4869 H   0  0  0  0  0  0  0  0  0  0  0  0
  149.0600  142.4163  156.3205 H   0  0  0  0  0  0  0  0  0  0  0  0
  147.9940  141.5121  157.3683 H   0  0  0  0  0  0  0  0  0  0  0  0
  149.9990  140.1754  156.7084 H   0  0  0  0  0  0  0  0  0  0  0  0
  148.5179  139.4108  156.1898 H   0  0  0  0  0  0  0  0  0  0  0  0
  150.3481  141.1252  154.4599 H   0  0  0  0  0  0  0  0  0  0  0  0
  149.8702  138.1135  154.3464 H   0  0  0  0  0  0  0  0  0  0  0  0
  151.3331  138.9169  154.9047 H   0  0  0  0  0  0  0  0  0  0  0  0
  150.8537  139.0424  153.2172 H   0  0  0  0  0  0  0  0  0  0  0  0
  145.6660  137.4777  150.7906 H   0  0  0  0  0  0  0  0  0  0  0  0
  1  2  1  0  0  0  0
  1 20  1  0  0  0  0
  1 21  1  0  0  0  0
  1 22  1  0  0  0  0
  2  3  1  0  0  0  0
  2  9  1  0  0  0  0
  2 23  1  0  0  0  0
  3  4  1  0  0  0  0
  3 24  1  0  0  0  0
  3 25  1  0  0  0  0
  4  8  1  0  0  0  0
  4  5  1  0  0  0  0
  5  6  2  0  0  0  0
  5 26  1  0  0  0  0
  6  7  1  0  0  0  0
  6 27  1  0  0  0  0
  7  8  2  0  0  0  0
  7 28  1  0  0  0  0
  9 10  1  0  0  0  0
  9 29  1  0  0  0  0
  9 47  1  0  0  0  0
 10 11  1  0  0  0  0
 10 30  1  0  0  0  0
 10 31  1  0  0  0  0
 11 12  1  0  0  0  0
 11 32  1  0  0  0  0
 11 33  1  0  0  0  0
 12 13  1  0  0  0  0
 13 18  1  0  0  0  0
 13 14  1  0  0  0  0
 13 34  1  0  0  0  0
 14 15  1  0  0  0  0
 14 35  1  0  0  0  0
 14 36  1  0  0  0  0
 15 16  1  0  0  0  0
 15 37  1  0  0  0  0
 15 38  1  0  0  0  0
 16 17  1  0  0  0  0
 16 39  1  0  0  0  0
 16 40  1  0  0  0  0
 17 18  1  0  0  0  0
 17 41  1  0  0  0  0
 17 42  1  0  0  0  0
 18 19  1  0  0  0  0
 18 43  1  0  0  0  0
 19 44  1  0  0  0  0
 19 45  1  0  0  0  0
 19 46  1  0  0  0  0
M  CHG  1   9   1
M  END
> <s_m_source_file>
AV-unprocessed.smi

> <i_m_source_file_index>
3348

> <i_lp_mmshare_version>
43012

> <i_f3d_flags>
0

> <s_epik_input>
bjFbY0hdW2NIXVtjSF1uMVtDSDJdW0NAQEhdKFtDSDNdKVtOSF1bQ0gyXVtDSDJdT1tDQEBIXTJbQ0gyXVtDSDJdW0NIMl1bQ0gyXVtDQEhdMltDSDNd

> <s_epik_cmdline>
J2VwaWtfcHl0aG9uJywgJy1waCcsICc3LjAnLCAnLXRuJywgJzgnLCAnLW1hJywgJzIwMCcsICctbWV0YWxfYmluZGluZycsICctaW1hZScsICc8aW5maWxlLm1hZT4nLCAnLW9tYWUnLCAnPG91dGZpbGUubWFlPic=

> <r_lp_tautomer_probability>
1

> <r_epik_Ionization_Penalty>
0.00925088

> <r_epik_Ionization_Penalty_Charging>
0.00924645

> <r_epik_Ionization_Penalty_Neutral>
4.42413e-06

> <r_epik_State_Penalty>
0.0070118

> <r_epik_Charging_Adjusted_Penalty>
0.0162583

> <i_epik_Tot_Q>
1

> <i_epik_Tot_abs_Q>
1

> <r_epik_Metal_State_Penalty>
0.00701222

> <b_epik_Metal_Only>
0

> <s_lp_Force_Field>
OPLS_2005

> <r_lp_Energy>
16.697

> <b_lp_Chiralities_Consistent>
1

> <s_lp_Variant>
AV-unprocessed.smi:3348-4

> <Gold.Version>
5.8.1

> <Gold.Id.Protein>
6NUR|6NUR_protein|mol2

> <Gold.PLP.Fitness>
47.5384

> <Gold.PLP.PLP>
-36.6416

> <Gold.PLP.part.hbond>
-1.0000

> <Gold.PLP.part.metal>
0.0000

> <Gold.PLP.part.buried>
-2.8372

> <Gold.PLP.part.nonpolar>
-32.2262

> <Gold.PLP.part.repulsive>
0.4327

> <Gold.PLP.ligand.clash>
0.0000

> <Gold.PLP.ligand.torsion>
0.6416

> <Gold.PLP.Chemscore.Hbond>
2.0000

> <Gold.PLP.Chemscore.CHOScore>
2.0000

> <Gold.PLP.Chemscore.Metal>
0.0000

> <Gold.Chemscore.Hbonds>
donor molecule, donor type, donor heavy atom, donor atom, acceptor molecule, acceptor atom, score
      L1  H     9    29       P1  7948  1.72
      L1  H     9    47       P1 10171  0.23
      L1  C     7    28       P1 10186  0.29
      L1  C     7    28       P1 10952  1.00

> <Gold.PLP.Chemscore.Internal.Correction>
0.1799

> <Gold.Rescore>
     Score         DG    S(hbond)    S(metal)    S(lipo)     H(rot)  DE(clash)    DE(int)     intcor
     14.01     -15.53       1.04        0.00      96.01       1.82       0.50       1.02       ----

> <Gold.Chemscore.Fitness>
14.0108

> <Gold.Chemscore.DG>
-15.5301

> <Gold.Chemscore.ZeroCoef>
-5.4800

> <Gold.Chemscore.Hbond>
1.0379

> <Gold.Chemscore.Metal>
0.0000

> <Gold.Chemscore.Lipo>
96.0114

> <Gold.Chemscore.Internal_Hbond>
0.0000

> <Gold.Chemscore.DEClash>
0.5034

> <Gold.Chemscore.DEInternal>
1.0159

> <Gold.Chemscore.Rot>
1.8163

> <Gold.Chemscore.Internal.Correction>
   9.000000E+99

> <Gold.Chemscore.Hbonds>
donor molecule, donor type, donor heavy atom, donor atom, acceptor molecule, acceptor atom, score
      L1  H     9    29       P1  7948  0.84
      L1  H     9    47       P1 10171  0.23

> <Gold.Chemscore.Hbond.Weighted>
-3.4666

> <Gold.Chemscore.Metal.Weighted>
-0.0000

> <Gold.Chemscore.Lipo.Weighted>
-11.2333

> <Gold.Chemscore.Internal_Hbond.Weighted>
0.0000

> <Gold.Chemscore.DEClash.Weighted>
0.5034

> <Gold.Chemscore.DEInternal.Weighted>
1.0159

> <Gold.Chemscore.Rot.Weighted>
4.6497

> <Gold.Chemscore.Internal.Correction.Weighted>
   9.000000E+99

> <Gold.Protein.RotatedTorsions>
[ 6907 6896 6895 6894 ] final  174.32 input  -60.11 | X-H torsion
[ 7974 7965 7964 7962 ] final -122.92 input  175.53 | X-H torsion
[ 8008 7997 7996 7995 ] final   40.52 input   59.86 | X-H torsion
[ 10167 10162 10161 10158 ] final  -36.95 input  -65.29 | X-H torsion
[ 10718 10713 10712 10709 ] final   43.57 input   66.30 | X-H torsion
[ 10763 10752 10751 10750 ] final  -54.02 input  -60.55 | X-H torsion
[ 11005 11000 10999 10996 ] final   44.77 input  -57.11 | X-H torsion

> <Gold.Protein.ActiveResidues>
 VAL166  LYS551  ARG553  GLY616  TRP617  ASP618  TYR619  PRO620  LYS621  CYS622 
 ASP623  PHE694  ASN695  SER759  ASP760  ASP761  ALA762  ILE779  LEU786  VAL792 
 PHE793  MET794  SER795  GLU796  ALA797  LYS798  CYS799  TRP800  GLU811  SER814 

> <Gold.Protein.RotatedAtoms>
  151.7542  133.3329  159.3399 H   0  0  0  0  0  0  0  0  0  0  0  0  # atno 6907 bound_to 6896
  150.7523  134.6164  159.6122 H   0  0  0  0  0  0  0  0  0  0  0  0  # atno 6908 bound_to 6896
  152.3448  134.7088  160.0305 H   0  0  0  0  0  0  0  0  0  0  0  0  # atno 6909 bound_to 6896
  145.0243  140.8014  143.4362 H   0  0  0  0  0  0  0  0  0  0  0  0  # atno 7974 bound_to 7965
  155.2544  140.3355  155.4279 H   0  0  0  0  0  0  0  0  0  0  0  0  # atno 8008 bound_to 7997
  156.2202  140.1805  156.7539 H   0  0  0  0  0  0  0  0  0  0  0  0  # atno 8009 bound_to 7997
  154.5813  140.0653  156.9093 H   0  0  0  0  0  0  0  0  0  0  0  0  # atno 8010 bound_to 7997
  140.7130  143.3374  151.2432 H   0  0  0  0  0  0  0  0  0  0  0  0  # atno 10167 bound_to 10162
  157.4174  130.7949  149.7484 H   0  0  0  0  0  0  0  0  0  0  0  0  # atno 10718 bound_to 10713
  154.1682  135.6463  153.5003 H   0  0  0  0  0  0  0  0  0  0  0  0  # atno 10763 bound_to 10752
  153.0091  135.5377  154.6640 H   0  0  0  0  0  0  0  0  0  0  0  0  # atno 10764 bound_to 10752
  154.5972  135.2940  155.0546 H   0  0  0  0  0  0  0  0  0  0  0  0  # atno 10765 bound_to 10752
  140.1521  134.4448  155.8374 H   0  0  0  0  0  0  0  0  0  0  0  0  # atno 11005 bound_to 11000
  145.1855  139.2329  143.5270 LP  0  0  0  0  0  0  0  0  0  0  0  0  # atno 17320 bound_to 7965
  146.3490  140.1638  142.8590 LP  0  0  0  0  0  0  0  0  0  0  0  0  # atno 17321 bound_to 7965
  139.6873  143.9752  152.2841 LP  0  0  0  0  0  0  0  0  0  0  0  0  # atno 17342 bound_to 10162
  139.9402  144.6687  150.8274 LP  0  0  0  0  0  0  0  0  0  0  0  0  # atno 17343 bound_to 10162
  155.9869  130.3971  150.3189 LP  0  0  0  0  0  0  0  0  0  0  0  0  # atno 17370 bound_to 10713
  157.1333  131.0277  151.2960 LP  0  0  0  0  0  0  0  0  0  0  0  0  # atno 17371 bound_to 10713
  141.2200  133.6877  156.7441 LP  0  0  0  0  0  0  0  0  0  0  0  0  # atno 17394 bound_to 11000
  140.2592  134.8480  157.3742 LP  0  0  0  0  0  0  0  0  0  0  0  0  # atno 17395 bound_to 11000

$$$$
