AV-unprocessed.smi:3098|AV-procd|sdf|11800|dock2
  -GOLD-   2272017173D 1   1.00000     0.00000
 Structure written by MMmdl.
 30 31  0  0  0  0  0  0  0  0  2 V2000
  149.5142  138.6031  153.1742 N   0  3  0  0  0  0  0  0  0  0  0  0
  150.8375  138.4604  153.8036 C   0  0  0  0  0  0  0  0  0  0  0  0
  150.9893  139.4136  154.9719 C   0  0  0  0  0  0  0  0  0  0  0  0
  152.2251  139.5517  155.6382 C   0  0  0  0  0  0  0  0  0  0  0  0
  152.4140  140.3806  156.6864 N   0  0  0  0  0  0  0  0  0  0  0  0
  151.3651  141.1217  157.1198 C   0  0  0  0  0  0  0  0  0  0  0  0
  151.5640  141.9799  158.2110 N   0  0  0  0  0  0  0  0  0  0  0  0
  152.7382  141.6462  159.0077 C   0  0  0  0  0  0  0  0  0  0  0  0
  152.8034  142.5491  160.2517 C   0  0  0  0  0  0  0  0  0  0  0  0
  152.7902  143.9162  159.8504 O   0  0  0  0  0  0  0  0  0  0  0  0
  151.6042  144.2532  159.1360 C   0  0  0  0  0  0  0  0  0  0  0  0
  151.5079  143.3944  157.8630 C   0  0  0  0  0  0  0  0  0  0  0  0
  150.0903  141.0558  156.5154 C   0  0  0  0  0  0  0  0  0  0  0  0
  149.0624  141.8099  156.9737 F   0  0  0  0  0  0  0  0  0  0  0  0
  149.9009  140.1882  155.4227 C   0  0  0  0  0  0  0  0  0  0  0  0
  148.8376  138.8824  153.8704 H   0  0  0  0  0  0  0  0  0  0  0  0
  149.2354  137.7205  152.7699 H   0  0  0  0  0  0  0  0  0  0  0  0
  150.9660  137.4323  154.1438 H   0  0  0  0  0  0  0  0  0  0  0  0
  151.6129  138.6535  153.0614 H   0  0  0  0  0  0  0  0  0  0  0  0
  153.0848  138.9774  155.3259 H   0  0  0  0  0  0  0  0  0  0  0  0
  152.6974  140.5981  159.3069 H   0  0  0  0  0  0  0  0  0  0  0  0
  153.6404  141.7768  158.4084 H   0  0  0  0  0  0  0  0  0  0  0  0
  151.9672  142.3482  160.9236 H   0  0  0  0  0  0  0  0  0  0  0  0
  153.7175  142.3522  160.8123 H   0  0  0  0  0  0  0  0  0  0  0  0
  150.7298  144.1066  159.7721 H   0  0  0  0  0  0  0  0  0  0  0  0
  151.6352  145.3108  158.8745 H   0  0  0  0  0  0  0  0  0  0  0  0
  152.3280  143.6424  157.1876 H   0  0  0  0  0  0  0  0  0  0  0  0
  150.5777  143.6088  157.3356 H   0  0  0  0  0  0  0  0  0  0  0  0
  148.9356  140.1188  154.9426 H   0  0  0  0  0  0  0  0  0  0  0  0
  149.5589  139.3053  152.4494 H   0  0  0  0  0  0  0  0  0  0  0  0
  1  2  1  0  0  0  0
  1 16  1  0  0  0  0
  1 17  1  0  0  0  0
  1 30  1  0  0  0  0
  2  3  1  0  0  0  0
  2 18  1  0  0  0  0
  2 19  1  0  0  0  0
  3 15  1  0  0  0  0
  3  4  2  0  0  0  0
  4  5  1  0  0  0  0
  4 20  1  0  0  0  0
  5  6  2  0  0  0  0
  6  7  1  0  0  0  0
  6 13  1  0  0  0  0
  7 12  1  0  0  0  0
  7  8  1  0  0  0  0
  8  9  1  0  0  0  0
  8 21  1  0  0  0  0
  8 22  1  0  0  0  0
  9 10  1  0  0  0  0
  9 23  1  0  0  0  0
  9 24  1  0  0  0  0
 10 11  1  0  0  0  0
 11 12  1  0  0  0  0
 11 25  1  0  0  0  0
 11 26  1  0  0  0  0
 12 27  1  0  0  0  0
 12 28  1  0  0  0  0
 13 14  1  0  0  0  0
 13 15  2  0  0  0  0
 15 29  1  0  0  0  0
M  CHG  1   1   1
M  END
> <s_m_source_file>
AV-unprocessed.smi

> <i_m_source_file_index>
3098

> <i_lp_mmshare_version>
43012

> <i_f3d_flags>
0

> <s_epik_input>
W05IMl1bQ0gyXWMxW2NIXW5jKGMoRilbY0hdMSlOMltDSDJdW0NIMl1PW0NIMl1bQ0gyXTI=

> <s_epik_cmdline>
J2VwaWtfcHl0aG9uJywgJy1waCcsICc3LjAnLCAnLXRuJywgJzgnLCAnLW1hJywgJzIwMCcsICctbWV0YWxfYmluZGluZycsICctaW1hZScsICc8aW5maWxlLm1hZT4nLCAnLW9tYWUnLCAnPG91dGZpbGUubWFlPic=

> <r_lp_tautomer_probability>
1

> <r_epik_Ionization_Penalty>
0.06982

> <r_epik_Ionization_Penalty_Charging>
0.0698168

> <r_epik_Ionization_Penalty_Neutral>
3.20429e-06

> <r_epik_State_Penalty>
0.0611812

> <r_epik_Charging_Adjusted_Penalty>
0.130998

> <i_epik_Tot_Q>
1

> <i_epik_Tot_abs_Q>
1

> <r_epik_Metal_State_Penalty>
0.0611834

> <b_epik_Metal_Only>
0

> <s_lp_Force_Field>
OPLS_2005

> <r_lp_Energy>
20.0675

> <b_lp_Chiralities_Consistent>
1

> <s_lp_Variant>
AV-unprocessed.smi:3098-1

> <Gold.Version>
5.8.1

> <Gold.Id.Protein>
6NUR|6NUR_protein|mol2

> <Gold.PLP.Fitness>
40.7313

> <Gold.PLP.PLP>
-30.5823

> <Gold.PLP.part.hbond>
-3.0000

> <Gold.PLP.part.metal>
0.0000

> <Gold.PLP.part.buried>
-2.3758

> <Gold.PLP.part.nonpolar>
-25.2288

> <Gold.PLP.part.repulsive>
0.1051

> <Gold.PLP.ligand.clash>
0.0000

> <Gold.PLP.ligand.torsion>
0.3850

> <Gold.PLP.Chemscore.Hbond>
3.6032

> <Gold.PLP.Chemscore.CHOScore>
0.0000

> <Gold.PLP.Chemscore.Metal>
0.0000

> <Gold.Chemscore.Hbonds>
donor molecule, donor type, donor heavy atom, donor atom, acceptor molecule, acceptor atom, score
      L1  H     1    17       P1  7948  2.00
      L1  H     1    30       P1  7957  0.86
      P1  H  7997  8010       L1     5  0.51

> <Gold.PLP.Chemscore.Internal.Correction>
0.1094

> <Gold.Rescore>
     Score         DG    S(hbond)    S(metal)    S(lipo)     H(rot)  DE(clash)    DE(int)     intcor
     17.17     -17.84       1.99        0.00      78.20       1.34       0.12       0.54       ----

> <Gold.Chemscore.Fitness>
17.1749

> <Gold.Chemscore.DG>
-17.8423

> <Gold.Chemscore.ZeroCoef>
-5.4800

> <Gold.Chemscore.Hbond>
1.9909

> <Gold.Chemscore.Metal>
0.0000

> <Gold.Chemscore.Lipo>
78.1952

> <Gold.Chemscore.Internal_Hbond>
0.0000

> <Gold.Chemscore.DEClash>
0.1229

> <Gold.Chemscore.DEInternal>
0.5445

> <Gold.Chemscore.Rot>
1.3423

> <Gold.Chemscore.Internal.Correction>
   9.000000E+99

> <Gold.Chemscore.Hbonds>
donor molecule, donor type, donor heavy atom, donor atom, acceptor molecule, acceptor atom, score
      L1  H     1    17       P1  7948  0.97
      L1  H     1    30       P1  7957  0.83
      P1  H  7997  8010       L1     5  0.03

> <Gold.Chemscore.Hbond.Weighted>
-6.6497

> <Gold.Chemscore.Metal.Weighted>
-0.0000

> <Gold.Chemscore.Lipo.Weighted>
-9.1488

> <Gold.Chemscore.Internal_Hbond.Weighted>
0.0000

> <Gold.Chemscore.DEClash.Weighted>
0.1229

> <Gold.Chemscore.DEInternal.Weighted>
0.5445

> <Gold.Chemscore.Rot.Weighted>
3.4363

> <Gold.Chemscore.Internal.Correction.Weighted>
   9.000000E+99

> <Gold.Protein.RotatedTorsions>
[ 6907 6896 6895 6894 ] final -174.41 input  -60.11 | X-H torsion
[ 7974 7965 7964 7962 ] final -164.89 input  175.53 | X-H torsion
[ 8008 7997 7996 7995 ] final   60.92 input   59.86 | X-H torsion
[ 10167 10162 10161 10158 ] final   -9.51 input  -65.29 | X-H torsion
[ 10718 10713 10712 10709 ] final   20.59 input   66.30 | X-H torsion
[ 10763 10752 10751 10750 ] final  -28.96 input  -60.55 | X-H torsion
[ 11005 11000 10999 10996 ] final   36.68 input  -57.11 | X-H torsion

> <Gold.Protein.ActiveResidues>
 VAL166  LYS551  ARG553  GLY616  TRP617  ASP618  TYR619  PRO620  LYS621  CYS622 
 ASP623  PHE694  ASN695  SER759  ASP760  ASP761  ALA762  ILE779  LEU786  VAL792 
 PHE793  MET794  SER795  GLU796  ALA797  LYS798  CYS799  TRP800  GLU811  SER814 

> <Gold.Protein.RotatedAtoms>
  151.5719  133.3389  159.2990 H   0  0  0  0  0  0  0  0  0  0  0  0  # atno 6907 bound_to 6896
  150.8363  134.7640  159.6906 H   0  0  0  0  0  0  0  0  0  0  0  0  # atno 6908 bound_to 6896
  152.4438  134.5543  159.9927 H   0  0  0  0  0  0  0  0  0  0  0  0  # atno 6909 bound_to 6896
  144.7284  140.2894  143.6223 H   0  0  0  0  0  0  0  0  0  0  0  0  # atno 7974 bound_to 7965
  155.5901  140.3492  155.4564 H   0  0  0  0  0  0  0  0  0  0  0  0  # atno 8008 bound_to 7997
  156.0308  140.1274  157.0285 H   0  0  0  0  0  0  0  0  0  0  0  0  # atno 8009 bound_to 7997
  154.4351  140.1044  156.6083 H   0  0  0  0  0  0  0  0  0  0  0  0  # atno 8010 bound_to 7997
  140.7089  143.5849  150.8953 H   0  0  0  0  0  0  0  0  0  0  0  0  # atno 10167 bound_to 10162
  157.1266  130.6573  149.5939 H   0  0  0  0  0  0  0  0  0  0  0  0  # atno 10718 bound_to 10713
  153.7569  135.6922  153.4934 H   0  0  0  0  0  0  0  0  0  0  0  0  # atno 10763 bound_to 10752
  153.1965  135.4452  155.0213 H   0  0  0  0  0  0  0  0  0  0  0  0  # atno 10764 bound_to 10752
  154.8167  135.3402  154.7086 H   0  0  0  0  0  0  0  0  0  0  0  0  # atno 10765 bound_to 10752
  140.2301  134.3537  155.7967 H   0  0  0  0  0  0  0  0  0  0  0  0  # atno 11005 bound_to 11000
  145.7870  139.1913  143.2124 LP  0  0  0  0  0  0  0  0  0  0  0  0  # atno 17320 bound_to 7965
  146.0787  140.7789  142.9652 LP  0  0  0  0  0  0  0  0  0  0  0  0  # atno 17321 bound_to 7965
  139.9575  143.6201  152.3012 LP  0  0  0  0  0  0  0  0  0  0  0  0  # atno 17342 bound_to 10162
  139.6742  144.7659  151.1727 LP  0  0  0  0  0  0  0  0  0  0  0  0  # atno 17343 bound_to 10162
  155.9817  130.4826  150.6841 LP  0  0  0  0  0  0  0  0  0  0  0  0  # atno 17370 bound_to 10713
  157.4429  131.0863  151.0925 LP  0  0  0  0  0  0  0  0  0  0  0  0  # atno 17371 bound_to 10713
  141.2218  133.7241  156.8718 LP  0  0  0  0  0  0  0  0  0  0  0  0  # atno 17394 bound_to 11000
  140.1759  134.9067  157.2890 LP  0  0  0  0  0  0  0  0  0  0  0  0  # atno 17395 bound_to 11000

$$$$
