AV-unprocessed.smi:3275|AV-procd|sdf|12533|dock4
  -GOLD-   2272018443D 1   1.00000     0.00000
 Structure written by MMmdl.
 34 35  0  0  0  0  0  0  0  0  1 V2000
  145.7572  138.9510  151.6345 O   0  0  0  0  0  0  0  0  0  0  0  0
  146.9726  139.6028  151.9339 C   0  0  0  0  0  0  0  0  0  0  0  0
  147.2402  139.5416  153.4414 C   0  0  0  0  0  0  0  0  0  0  0  0
  148.3417  140.3864  153.7413 O   0  0  0  0  0  0  0  0  0  0  0  0
  149.2123  139.8846  154.7473 C   0  0  1  0  0  0  0  0  0  0  0  0
  150.2456  138.9045  154.1522 C   0  0  0  0  0  0  0  0  0  0  0  0
  151.2768  138.5000  155.2186 C   0  0  0  0  0  0  0  0  0  0  0  0
  151.9300  139.7377  155.8555 C   0  0  0  0  0  0  0  0  0  0  0  0
  150.9111  140.6494  156.3688 N   0  0  0  0  0  0  0  0  0  0  0  0
  151.4142  141.6249  157.2489 C   0  0  0  0  0  0  0  0  0  0  0  0
  151.3009  143.0075  156.9691 C   0  0  0  0  0  0  0  0  0  0  0  0
  151.8378  143.9346  157.8840 C   0  0  0  0  0  0  0  0  0  0  0  0
  152.4602  143.5758  159.0256 N   0  0  0  0  0  0  0  0  0  0  0  0
  152.5660  142.2579  159.2948 C   0  0  0  0  0  0  0  0  0  0  0  0
  152.0655  141.2469  158.4492 C   0  0  0  0  0  0  0  0  0  0  0  0
  152.2361  139.5897  158.9157 Cl  0  0  0  0  0  0  0  0  0  0  0  0
  149.9296  141.0908  155.3803 C   0  0  0  0  0  0  0  0  0  0  0  0
  145.0459  139.5504  151.8018 H   0  0  0  0  0  0  0  0  0  0  0  0
  147.7810  139.1229  151.3816 H   0  0  0  0  0  0  0  0  0  0  0  0
  146.9144  140.6383  151.5970 H   0  0  0  0  0  0  0  0  0  0  0  0
  146.3565  139.8715  153.9902 H   0  0  0  0  0  0  0  0  0  0  0  0
  147.4494  138.5137  153.7383 H   0  0  0  0  0  0  0  0  0  0  0  0
  148.6331  139.3843  155.5258 H   0  0  0  0  0  0  0  0  0  0  0  0
  149.7587  138.0112  153.7625 H   0  0  0  0  0  0  0  0  0  0  0  0
  150.7561  139.3753  153.3111 H   0  0  0  0  0  0  0  0  0  0  0  0
  150.7866  137.9092  155.9936 H   0  0  0  0  0  0  0  0  0  0  0  0
  152.0412  137.8598  154.7773 H   0  0  0  0  0  0  0  0  0  0  0  0
  152.6091  139.4279  156.6502 H   0  0  0  0  0  0  0  0  0  0  0  0
  152.5330  140.2638  155.1141 H   0  0  0  0  0  0  0  0  0  0  0  0
  150.8247  143.3664  156.0690 H   0  0  0  0  0  0  0  0  0  0  0  0
  151.7677  144.9947  157.6906 H   0  0  0  0  0  0  0  0  0  0  0  0
  153.0629  142.0007  160.2188 H   0  0  0  0  0  0  0  0  0  0  0  0
  150.4323  141.6649  154.6011 H   0  0  0  0  0  0  0  0  0  0  0  0
  149.2003  141.7514  155.8511 H   0  0  0  0  0  0  0  0  0  0  0  0
  1  2  1  0  0  0  0
  1 18  1  0  0  0  0
  2  3  1  0  0  0  0
  2 19  1  0  0  0  0
  2 20  1  0  0  0  0
  3  4  1  0  0  0  0
  3 21  1  0  0  0  0
  3 22  1  0  0  0  0
  4  5  1  0  0  0  0
  5 17  1  0  0  0  0
  5  6  1  0  0  0  0
  5 23  1  0  0  0  0
  6  7  1  0  0  0  0
  6 24  1  0  0  0  0
  6 25  1  0  0  0  0
  7  8  1  0  0  0  0
  7 26  1  0  0  0  0
  7 27  1  0  0  0  0
  8  9  1  0  0  0  0
  8 28  1  0  0  0  0
  8 29  1  0  0  0  0
  9 10  1  0  0  0  0
  9 17  1  0  0  0  0
 10 15  1  0  0  0  0
 10 11  2  0  0  0  0
 11 12  1  0  0  0  0
 11 30  1  0  0  0  0
 12 13  2  0  0  0  0
 12 31  1  0  0  0  0
 13 14  1  0  0  0  0
 14 15  2  0  0  0  0
 14 32  1  0  0  0  0
 15 16  1  0  0  0  0
 17 33  1  0  0  0  0
 17 34  1  0  0  0  0
M  END
> <s_m_source_file>
AV-unprocessed.smi

> <i_m_source_file_index>
3275

> <i_lp_mmshare_version>
43012

> <i_f3d_flags>
0

> <s_epik_input>
W09IXVtDSDJdW0NIMl1PW0NAQEhdMVtDSDJdW0NIMl1bQ0gyXU4oW0NIMl0xKWMyW2NIXVtjSF1uW2NIXWMyQ2w=

> <s_epik_cmdline>
J2VwaWtfcHl0aG9uJywgJy1waCcsICc3LjAnLCAnLXRuJywgJzgnLCAnLW1hJywgJzIwMCcsICctbWV0YWxfYmluZGluZycsICctaW1hZScsICc8aW5maWxlLm1hZT4nLCAnLW9tYWUnLCAnPG91dGZpbGUubWFlPic=

> <r_lp_tautomer_probability>
1

> <r_epik_Ionization_Penalty>
1.24095

> <r_epik_Ionization_Penalty_Charging>
0

> <r_epik_Ionization_Penalty_Neutral>
1.24095

> <r_epik_State_Penalty>
1.30987

> <r_epik_Charging_Adjusted_Penalty>
1.30987

> <i_epik_Tot_Q>
0

> <i_epik_Tot_abs_Q>
0

> <r_epik_Metal_State_Penalty>
0.00479332

> <b_epik_Metal_Only>
0

> <s_lp_Force_Field>
OPLS_2005

> <r_lp_Energy>
20.7809

> <b_lp_Chiralities_Consistent>
1

> <s_lp_Variant>
AV-unprocessed.smi:3275-4

> <Gold.Version>
5.8.1

> <Gold.Id.Protein>
6NUR|6NUR_protein|mol2

> <Gold.PLP.Fitness>
37.3112

> <Gold.PLP.PLP>
-35.5755

> <Gold.PLP.part.hbond>
-2.0000

> <Gold.PLP.part.metal>
0.0000

> <Gold.PLP.part.buried>
-2.2710

> <Gold.PLP.part.nonpolar>
-32.4421

> <Gold.PLP.part.repulsive>
1.1728

> <Gold.PLP.ligand.clash>
0.0000

> <Gold.PLP.ligand.torsion>
0.7901

> <Gold.PLP.Chemscore.Hbond>
1.0000

> <Gold.PLP.Chemscore.CHOScore>
0.0000

> <Gold.PLP.Chemscore.Metal>
0.0000

> <Gold.Chemscore.Hbonds>
donor molecule, donor type, donor heavy atom, donor atom, acceptor molecule, acceptor atom, score
      L1  H     1    18       P1 10175  1.00

> <Gold.PLP.Chemscore.Internal.Correction>
0.3159

> <Gold.Rescore>
     Score         DG    S(hbond)    S(metal)    S(lipo)     H(rot)  DE(clash)    DE(int)     intcor
     14.82     -16.00       1.00        0.00     106.43       2.06       0.23       0.94       ----

> <Gold.Chemscore.Fitness>
14.8229

> <Gold.Chemscore.DG>
-15.9989

> <Gold.Chemscore.ZeroCoef>
-5.4800

> <Gold.Chemscore.Hbond>
0.9978

> <Gold.Chemscore.Metal>
0.0000

> <Gold.Chemscore.Lipo>
106.4284

> <Gold.Chemscore.Internal_Hbond>
0.0000

> <Gold.Chemscore.DEClash>
0.2317

> <Gold.Chemscore.DEInternal>
0.9442

> <Gold.Chemscore.Rot>
2.0570

> <Gold.Chemscore.Internal.Correction>
   9.000000E+99

> <Gold.Chemscore.Hbonds>
donor molecule, donor type, donor heavy atom, donor atom, acceptor molecule, acceptor atom, score
      L1  H     1    18       P1 10175  0.85

> <Gold.Chemscore.Hbond.Weighted>
-3.3327

> <Gold.Chemscore.Metal.Weighted>
-0.0000

> <Gold.Chemscore.Lipo.Weighted>
-12.4521

> <Gold.Chemscore.Internal_Hbond.Weighted>
0.0000

> <Gold.Chemscore.DEClash.Weighted>
0.2317

> <Gold.Chemscore.DEInternal.Weighted>
0.9442

> <Gold.Chemscore.Rot.Weighted>
5.2660

> <Gold.Chemscore.Internal.Correction.Weighted>
   9.000000E+99

> <Gold.Protein.RotatedTorsions>
[ 6907 6896 6895 6894 ] final  -59.90 input  -60.11 | X-H torsion
[ 7974 7965 7964 7962 ] final  100.60 input  175.53 | X-H torsion
[ 8008 7997 7996 7995 ] final  156.14 input   59.86 | X-H torsion
[ 10167 10162 10161 10158 ] final  -21.46 input  -65.29 | X-H torsion
[ 10718 10713 10712 10709 ] final  171.59 input   66.30 | X-H torsion
[ 10763 10752 10751 10750 ] final  -70.51 input  -60.55 | X-H torsion
[ 11005 11000 10999 10996 ] final  105.07 input  -57.11 | X-H torsion

> <Gold.Protein.ActiveResidues>
 VAL166  LYS551  ARG553  GLY616  TRP617  ASP618  TYR619  PRO620  LYS621  CYS622 
 ASP623  PHE694  ASN695  SER759  ASP760  ASP761  ALA762  ILE779  LEU786  VAL792 
 PHE793  MET794  SER795  GLU796  ALA797  LYS798  CYS799  TRP800  GLU811  SER814 

> <Gold.Protein.RotatedAtoms>
  150.7896  134.6908  159.6495 H   0  0  0  0  0  0  0  0  0  0  0  0  # atno 6907 bound_to 6896
  152.3999  134.6301  160.0083 H   0  0  0  0  0  0  0  0  0  0  0  0  # atno 6908 bound_to 6896
  151.6575  133.3281  159.3202 H   0  0  0  0  0  0  0  0  0  0  0  0  # atno 6909 bound_to 6896
  145.3835  139.2375  143.3391 H   0  0  0  0  0  0  0  0  0  0  0  0  # atno 7974 bound_to 7965
  156.2439  140.1920  156.6910 H   0  0  0  0  0  0  0  0  0  0  0  0  # atno 8008 bound_to 7997
  154.6252  140.0603  156.9690 H   0  0  0  0  0  0  0  0  0  0  0  0  # atno 8009 bound_to 7997
  155.1798  140.3275  155.4380 H   0  0  0  0  0  0  0  0  0  0  0  0  # atno 8010 bound_to 7997
  140.7282  143.4625  151.0359 H   0  0  0  0  0  0  0  0  0  0  0  0  # atno 10167 bound_to 10162
  156.9914  131.0149  151.2855 H   0  0  0  0  0  0  0  0  0  0  0  0  # atno 10718 bound_to 10713
  154.4187  135.5992  153.5996 H   0  0  0  0  0  0  0  0  0  0  0  0  # atno 10763 bound_to 10752
  152.9793  135.5947  154.3982 H   0  0  0  0  0  0  0  0  0  0  0  0  # atno 10764 bound_to 10752
  154.3804  135.2841  155.2193 H   0  0  0  0  0  0  0  0  0  0  0  0  # atno 10765 bound_to 10752
  139.8798  134.9323  156.5458 H   0  0  0  0  0  0  0  0  0  0  0  0  # atno 11005 bound_to 11000
  146.2831  140.4506  142.8768 LP  0  0  0  0  0  0  0  0  0  0  0  0  # atno 17320 bound_to 7965
  144.8491  140.6974  143.6180 LP  0  0  0  0  0  0  0  0  0  0  0  0  # atno 17321 bound_to 7965
  139.8311  143.7690  152.3180 LP  0  0  0  0  0  0  0  0  0  0  0  0  # atno 17342 bound_to 10162
  139.7806  144.7446  151.0094 LP  0  0  0  0  0  0  0  0  0  0  0  0  # atno 17343 bound_to 10162
  157.5456  130.8148  149.8082 LP  0  0  0  0  0  0  0  0  0  0  0  0  # atno 17370 bound_to 10713
  156.0206  130.3797  150.1975 LP  0  0  0  0  0  0  0  0  0  0  0  0  # atno 17371 bound_to 10713
  140.8277  133.8304  155.8954 LP  0  0  0  0  0  0  0  0  0  0  0  0  # atno 17394 bound_to 11000
  140.9359  134.1963  157.4832 LP  0  0  0  0  0  0  0  0  0  0  0  0  # atno 17395 bound_to 11000

$$$$
