AV-unprocessed.smi:3170|AV-procd|sdf|12109|dock6
  -GOLD-   2272017543D 1   1.00000     0.00000
 Structure written by MMmdl.
 35 36  0  0  0  0  0  0  0  0  1 V2000
  146.3898  136.7217  155.4501 O   0  0  0  0  0  0  0  0  0  0  0  0
  147.0810  136.4914  154.4578 C   0  0  0  0  0  0  0  0  0  0  0  0
  146.5857  136.2085  153.2455 N   0  0  0  0  0  0  0  0  0  0  0  0
  145.1683  136.2002  152.8957 C   0  0  0  0  0  0  0  0  0  0  0  0
  144.9291  135.9560  151.3919 C   0  0  0  0  0  0  0  0  0  0  0  0
  145.2059  134.5854  151.0036 N   0  0  0  0  0  0  0  0  0  0  0  0
  146.4058  133.9001  151.1377 C   0  0  0  0  0  0  0  0  0  0  0  0
  146.1968  132.6393  150.6254 C   0  0  0  0  0  0  0  0  0  0  0  0
  144.8836  132.5274  150.1742 N   0  0  0  0  0  0  0  0  0  0  0  0
  144.3577  133.7172  150.4347 C   0  0  0  0  0  0  0  0  0  0  0  0
  148.4200  136.5278  154.4492 N   0  0  0  0  0  0  0  0  0  0  0  0
  149.2520  136.9151  155.5830 C   0  0  0  0  0  0  0  0  0  0  0  0
  150.4670  137.7542  155.1411 C   0  0  2  0  0  0  0  0  0  0  0  0
  151.3631  138.2233  156.2709 C   0  0  0  0  0  0  0  0  0  0  0  0
  152.1300  139.3613  155.6057 C   0  0  0  0  0  0  0  0  0  0  0  0
  151.2285  139.9349  154.6631 O   0  0  0  0  0  0  0  0  0  0  0  0
  150.0999  139.0835  154.4823 C   0  0  0  0  0  0  0  0  0  0  0  0
  147.2382  136.0355  152.4947 H   0  0  0  0  0  0  0  0  0  0  0  0
  144.6805  135.4194  153.4797 H   0  0  0  0  0  0  0  0  0  0  0  0
  144.7122  137.1435  153.1996 H   0  0  0  0  0  0  0  0  0  0  0  0
  143.8925  136.1805  151.1394 H   0  0  0  0  0  0  0  0  0  0  0  0
  145.5446  136.6233  150.7874 H   0  0  0  0  0  0  0  0  0  0  0  0
  147.2846  134.3543  151.5710 H   0  0  0  0  0  0  0  0  0  0  0  0
  146.8853  131.8109  150.5460 H   0  0  0  0  0  0  0  0  0  0  0  0
  143.3337  133.9667  150.1975 H   0  0  0  0  0  0  0  0  0  0  0  0
  148.8971  136.3213  153.5838 H   0  0  0  0  0  0  0  0  0  0  0  0
  148.6557  137.4665  156.3118 H   0  0  0  0  0  0  0  0  0  0  0  0
  149.5850  136.0050  156.0827 H   0  0  0  0  0  0  0  0  0  0  0  0
  151.0716  137.1803  154.4366 H   0  0  0  0  0  0  0  0  0  0  0  0
  150.7650  138.6077  157.0985 H   0  0  0  0  0  0  0  0  0  0  0  0
  152.0177  137.4406  156.6560 H   0  0  0  0  0  0  0  0  0  0  0  0
  152.4846  140.1018  156.3229 H   0  0  0  0  0  0  0  0  0  0  0  0
  152.9942  138.9714  155.0661 H   0  0  0  0  0  0  0  0  0  0  0  0
  149.8531  138.9700  153.4263 H   0  0  0  0  0  0  0  0  0  0  0  0
  149.2443  139.5407  154.9813 H   0  0  0  0  0  0  0  0  0  0  0  0
  1  2  2  0  0  0  0
  2  3  1  0  0  0  0
  2 11  1  0  0  0  0
  3  4  1  0  0  0  0
  3 18  1  0  0  0  0
  4  5  1  0  0  0  0
  4 19  1  0  0  0  0
  4 20  1  0  0  0  0
  5  6  1  0  0  0  0
  5 21  1  0  0  0  0
  5 22  1  0  0  0  0
  6 10  1  0  0  0  0
  6  7  1  0  0  0  0
  7  8  2  0  0  0  0
  7 23  1  0  0  0  0
  8  9  1  0  0  0  0
  8 24  1  0  0  0  0
  9 10  2  0  0  0  0
 10 25  1  0  0  0  0
 11 12  1  0  0  0  0
 11 26  1  0  0  0  0
 12 13  1  0  0  0  0
 12 27  1  0  0  0  0
 12 28  1  0  0  0  0
 13 17  1  0  0  0  0
 13 14  1  0  0  0  0
 13 29  1  0  0  0  0
 14 15  1  0  0  0  0
 14 30  1  0  0  0  0
 14 31  1  0  0  0  0
 15 16  1  0  0  0  0
 15 32  1  0  0  0  0
 15 33  1  0  0  0  0
 16 17  1  0  0  0  0
 17 34  1  0  0  0  0
 17 35  1  0  0  0  0
M  END
> <s_m_source_file>
AV-unprocessed.smi

> <i_m_source_file_index>
3170

> <i_lp_mmshare_version>
43012

> <i_f3d_flags>
0

> <s_epik_input>
W0NIMl0xT1tDSDJdW0NIMl1bQ0BIXTFbQ0gyXVtOSF1DKD1PKVtOSF1bQ0gyXVtDSDJdbjJbY0hdW2NIXW5bY0hdMg==

> <s_epik_cmdline>
J2VwaWtfcHl0aG9uJywgJy1waCcsICc3LjAnLCAnLXRuJywgJzgnLCAnLW1hJywgJzIwMCcsICctbWV0YWxfYmluZGluZycsICctaW1hZScsICc8aW5maWxlLm1hZT4nLCAnLW9tYWUnLCAnPG91dGZpbGUubWFlPic=

> <r_lp_tautomer_probability>
1

> <r_epik_Ionization_Penalty>
0.621287

> <r_epik_Ionization_Penalty_Charging>
0.621234

> <r_epik_Ionization_Penalty_Neutral>
5.30999e-05

> <r_epik_State_Penalty>
0.637278

> <r_epik_Charging_Adjusted_Penalty>
1.25851

> <i_epik_Tot_Q>
0

> <i_epik_Tot_abs_Q>
0

> <r_epik_Metal_State_Penalty>
0.306756

> <b_epik_Metal_Only>
0

> <s_lp_Force_Field>
OPLS_2005

> <r_lp_Energy>
17.5777

> <b_lp_Chiralities_Consistent>
1

> <s_lp_Variant>
AV-unprocessed.smi:3170-3

> <Gold.Version>
5.8.1

> <Gold.Id.Protein>
6NUR|6NUR_protein|mol2

> <Gold.PLP.Fitness>
44.0959

> <Gold.PLP.PLP>
-26.5933

> <Gold.PLP.part.hbond>
-3.0000

> <Gold.PLP.part.metal>
0.0000

> <Gold.PLP.part.buried>
-4.4477

> <Gold.PLP.part.nonpolar>
-19.5067

> <Gold.PLP.part.repulsive>
0.2595

> <Gold.PLP.ligand.clash>
0.0000

> <Gold.PLP.ligand.torsion>
0.2022

> <Gold.PLP.Chemscore.Hbond>
2.9600

> <Gold.PLP.Chemscore.CHOScore>
3.0000

> <Gold.PLP.Chemscore.Metal>
0.0000

> <Gold.Chemscore.Hbonds>
donor molecule, donor type, donor heavy atom, donor atom, acceptor molecule, acceptor atom, score
      L1  H     3    18       P1  7948  0.98
      L1  H    11    26       P1  7948  1.00
      P1  H  7989  7998       L1    16  1.00
      L1  C     7    23       P1  7948  1.00
      L1  C     8    24       P1 10747  1.00
      L1  C    10    25       P1 10186  1.00

> <Gold.PLP.Chemscore.Internal.Correction>
0.0271

> <Gold.Rescore>
     Score         DG    S(hbond)    S(metal)    S(lipo)     H(rot)  DE(clash)    DE(int)     intcor
     14.93     -15.11       2.82        0.00      51.02       2.25       0.00       0.18       ----

> <Gold.Chemscore.Fitness>
14.9340

> <Gold.Chemscore.DG>
-15.1142

> <Gold.Chemscore.ZeroCoef>
-5.4800

> <Gold.Chemscore.Hbond>
2.8199

> <Gold.Chemscore.Metal>
0.0000

> <Gold.Chemscore.Lipo>
51.0177

> <Gold.Chemscore.Internal_Hbond>
0.0000

> <Gold.Chemscore.DEClash>
0.0038

> <Gold.Chemscore.DEInternal>
0.1764

> <Gold.Chemscore.Rot>
2.2474

> <Gold.Chemscore.Internal.Correction>
   9.000000E+99

> <Gold.Chemscore.Hbonds>
donor molecule, donor type, donor heavy atom, donor atom, acceptor molecule, acceptor atom, score
      L1  H     3    18       P1  7948  0.92
      L1  H    11    26       P1  7948  0.97
      P1  H  7989  7998       L1    16  0.90

> <Gold.Chemscore.Hbond.Weighted>
-9.4184

> <Gold.Chemscore.Metal.Weighted>
-0.0000

> <Gold.Chemscore.Lipo.Weighted>
-5.9691

> <Gold.Chemscore.Internal_Hbond.Weighted>
0.0000

> <Gold.Chemscore.DEClash.Weighted>
0.0038

> <Gold.Chemscore.DEInternal.Weighted>
0.1764

> <Gold.Chemscore.Rot.Weighted>
5.7532

> <Gold.Chemscore.Internal.Correction.Weighted>
   9.000000E+99

> <Gold.Protein.RotatedTorsions>
[ 6907 6896 6895 6894 ] final  129.01 input  -60.11 | X-H torsion
[ 7974 7965 7964 7962 ] final   36.50 input  175.53 | X-H torsion
[ 8008 7997 7996 7995 ] final  -51.11 input   59.86 | X-H torsion
[ 10167 10162 10161 10158 ] final  -15.34 input  -65.29 | X-H torsion
[ 10718 10713 10712 10709 ] final   50.90 input   66.30 | X-H torsion
[ 10763 10752 10751 10750 ] final  -27.31 input  -60.55 | X-H torsion
[ 11005 11000 10999 10996 ] final  -50.33 input  -57.11 | X-H torsion

> <Gold.Protein.ActiveResidues>
 VAL166  LYS551  ARG553  GLY616  TRP617  ASP618  TYR619  PRO620  LYS621  CYS622 
 ASP623  PHE694  ASN695  SER759  ASP760  ASP761  ALA762  ILE779  LEU786  VAL792 
 PHE793  MET794  SER795  GLU796  ALA797  LYS798  CYS799  TRP800  GLU811  SER814 

> <Gold.Protein.RotatedAtoms>
  152.3665  133.6363  159.6054 H   0  0  0  0  0  0  0  0  0  0  0  0  # atno 6907 bound_to 6896
  150.7638  133.9339  159.3444 H   0  0  0  0  0  0  0  0  0  0  0  0  # atno 6908 bound_to 6896
  151.7169  135.0903  160.0328 H   0  0  0  0  0  0  0  0  0  0  0  0  # atno 6909 bound_to 6896
  146.1206  139.6009  142.9292 H   0  0  0  0  0  0  0  0  0  0  0  0  # atno 7974 bound_to 7965
  154.4076  140.1256  156.4776 H   0  0  0  0  0  0  0  0  0  0  0  0  # atno 8008 bound_to 7997
  155.7117  140.3494  155.4957 H   0  0  0  0  0  0  0  0  0  0  0  0  # atno 8009 bound_to 7997
  155.9294  140.1067  157.1134 H   0  0  0  0  0  0  0  0  0  0  0  0  # atno 8010 bound_to 7997
  140.7217  143.5228  150.9612 H   0  0  0  0  0  0  0  0  0  0  0  0  # atno 10167 bound_to 10162
  157.4930  130.8388  149.8225 H   0  0  0  0  0  0  0  0  0  0  0  0  # atno 10718 bound_to 10713
  153.7301  135.6939  153.4991 H   0  0  0  0  0  0  0  0  0  0  0  0  # atno 10763 bound_to 10752
  153.2142  135.4392  155.0413 H   0  0  0  0  0  0  0  0  0  0  0  0  # atno 10764 bound_to 10752
  154.8256  135.3444  154.6831 H   0  0  0  0  0  0  0  0  0  0  0  0  # atno 10765 bound_to 10752
  141.0810  133.6653  156.3716 H   0  0  0  0  0  0  0  0  0  0  0  0  # atno 11005 bound_to 11000
  145.5473  141.0416  143.2298 LP  0  0  0  0  0  0  0  0  0  0  0  0  # atno 17320 bound_to 7965
  144.7594  139.6994  143.7240 LP  0  0  0  0  0  0  0  0  0  0  0  0  # atno 17321 bound_to 7965
  139.8946  143.6910  152.3140 LP  0  0  0  0  0  0  0  0  0  0  0  0  # atno 17342 bound_to 10162
  139.7238  144.7597  151.0911 LP  0  0  0  0  0  0  0  0  0  0  0  0  # atno 17343 bound_to 10162
  156.0184  130.3805  150.2038 LP  0  0  0  0  0  0  0  0  0  0  0  0  # atno 17370 bound_to 10713
  157.0227  130.9984  151.3335 LP  0  0  0  0  0  0  0  0  0  0  0  0  # atno 17371 bound_to 10713
  140.5468  134.6066  157.5396 LP  0  0  0  0  0  0  0  0  0  0  0  0  # atno 17394 bound_to 11000
  139.9624  134.7430  156.0209 LP  0  0  0  0  0  0  0  0  0  0  0  0  # atno 17395 bound_to 11000

$$$$
