AV-unprocessed.smi:268|AV-procd|sdf|2041|dock7
  -GOLD-   2262021263D 1   1.00000     0.00000
 Structure written by MMmdl.
 50 53  0  0  0  0  0  0  0  0  1 V2000
  152.4457  144.7410  159.0695 C   0  0  0  0  0  0  0  0  0  0  0  0
  152.4078  143.6760  160.1734 C   0  0  0  0  0  0  0  0  0  0  0  0
  152.4046  142.3528  159.6539 O   0  0  0  0  0  0  0  0  0  0  0  0
  151.1474  141.9131  159.1602 C   0  0  2  0  0  0  0  0  0  0  0  0
  151.1828  140.5656  158.4242 C   0  0  0  0  0  0  0  0  0  0  0  0
  150.2495  141.1939  157.3746 C   0  0  2  0  0  0  0  0  0  0  0  0
  150.5727  140.8358  155.9913 N   0  0  0  0  0  0  0  0  0  0  0  0
  149.6847  141.3350  154.9461 C   0  0  0  0  0  0  0  0  0  0  0  0
  151.0393  139.5839  155.7417 C   0  0  0  0  0  0  0  0  0  0  0  0
  152.1776  139.4124  155.0166 N   0  0  0  0  0  0  0  0  0  0  0  0
  152.6486  138.1855  154.7767 C   0  0  0  0  0  0  0  0  0  0  0  0
  152.1484  137.0101  155.1615 N   0  0  0  0  0  0  0  0  0  0  0  0
  151.0076  137.1737  155.8904 C   0  0  0  0  0  0  0  0  0  0  0  0
  150.3917  138.4122  156.2267 C   0  0  0  0  0  0  0  0  0  0  0  0
  149.2438  138.1796  156.9752 N   0  0  0  0  0  0  0  0  0  0  0  0
  149.1859  136.8798  157.0769 C   0  0  0  0  0  0  0  0  0  0  0  0
  150.2005  136.1958  156.4460 N   0  0  0  0  0  0  0  0  0  0  0  0
  150.3808  134.7530  156.3925 C   0  0  0  0  0  0  0  0  0  0  0  0
  149.2305  134.0075  155.6903 C   0  0  0  0  0  0  0  0  0  0  0  0
  147.9632  134.1191  156.5626 C   0  0  0  0  0  0  0  0  0  0  0  0
  148.1878  133.7154  157.8987 O   0  0  0  0  0  0  0  0  0  0  0  0
  149.0622  134.3398  154.2007 C   0  0  0  0  0  0  0  0  0  0  0  0
  149.1324  132.9481  153.8198 O   0  0  0  0  0  0  0  0  0  0  0  0
  149.5597  132.6057  155.1566 C   0  0  0  0  0  0  0  0  0  0  0  0
  150.8216  142.5531  157.8042 C   0  0  0  0  0  0  0  0  0  0  0  0
  152.3278  145.7382  159.4938 H   0  0  0  0  0  0  0  0  0  0  0  0
  151.6411  144.5881  158.3501 H   0  0  0  0  0  0  0  0  0  0  0  0
  153.3910  144.7293  158.5286 H   0  0  0  0  0  0  0  0  0  0  0  0
  153.2289  143.8138  160.8785 H   0  0  0  0  0  0  0  0  0  0  0  0
  151.4884  143.8001  160.7458 H   0  0  0  0  0  0  0  0  0  0  0  0
  150.3173  142.0083  159.8635 H   0  0  0  0  0  0  0  0  0  0  0  0
  152.1737  140.3191  158.0372 H   0  0  0  0  0  0  0  0  0  0  0  0
  150.7458  139.7331  158.9760 H   0  0  0  0  0  0  0  0  0  0  0  0
  149.1951  141.0893  157.6367 H   0  0  0  0  0  0  0  0  0  0  0  0
  150.2529  141.9121  154.2163 H   0  0  0  0  0  0  0  0  0  0  0  0
  148.9148  141.9868  155.3598 H   0  0  0  0  0  0  0  0  0  0  0  0
  149.1782  140.5225  154.4223 H   0  0  0  0  0  0  0  0  0  0  0  0
  153.5562  138.1393  154.1930 H   0  0  0  0  0  0  0  0  0  0  0  0
  148.3933  136.3828  157.6165 H   0  0  0  0  0  0  0  0  0  0  0  0
  151.3298  134.5412  155.8985 H   0  0  0  0  0  0  0  0  0  0  0  0
  150.4982  134.3977  157.4170 H   0  0  0  0  0  0  0  0  0  0  0  0
  147.5969  135.1452  156.5964 H   0  0  0  0  0  0  0  0  0  0  0  0
  147.1570  133.5079  156.1556 H   0  0  0  0  0  0  0  0  0  0  0  0
  147.6344  132.9723  158.0853 H   0  0  0  0  0  0  0  0  0  0  0  0
  148.1063  134.7980  153.9448 H   0  0  0  0  0  0  0  0  0  0  0  0
  149.8880  134.9147  153.7787 H   0  0  0  0  0  0  0  0  0  0  0  0
  150.6207  132.3555  155.1842 H   0  0  0  0  0  0  0  0  0  0  0  0
  148.9620  131.8072  155.5970 H   0  0  0  0  0  0  0  0  0  0  0  0
  150.0914  143.3615  157.8472 H   0  0  0  0  0  0  0  0  0  0  0  0
  151.7142  142.8455  157.2472 H   0  0  0  0  0  0  0  0  0  0  0  0
  1  2  1  0  0  0  0
  1 26  1  0  0  0  0
  1 27  1  0  0  0  0
  1 28  1  0  0  0  0
  2  3  1  0  0  0  0
  2 29  1  0  0  0  0
  2 30  1  0  0  0  0
  3  4  1  0  0  0  0
  4 25  1  0  0  0  0
  4  5  1  0  0  0  0
  4 31  1  0  0  0  0
  5  6  1  0  0  0  0
  5 32  1  0  0  0  0
  5 33  1  0  0  0  0
  6  7  1  0  0  0  0
  6 25  1  0  0  0  0
  6 34  1  0  0  0  0
  7  8  1  0  0  0  0
  7  9  1  0  0  0  0
  8 35  1  0  0  0  0
  8 36  1  0  0  0  0
  8 37  1  0  0  0  0
  9 14  1  0  0  0  0
  9 10  2  0  0  0  0
 10 11  1  0  0  0  0
 11 12  2  0  0  0  0
 11 38  1  0  0  0  0
 12 13  1  0  0  0  0
 13 17  1  0  0  0  0
 13 14  2  0  0  0  0
 14 15  1  0  0  0  0
 15 16  2  0  0  0  0
 16 17  1  0  0  0  0
 16 39  1  0  0  0  0
 17 18  1  0  0  0  0
 18 19  1  0  0  0  0
 18 40  1  0  0  0  0
 18 41  1  0  0  0  0
 19 24  1  0  0  0  0
 19 20  1  0  0  0  0
 19 22  1  0  0  0  0
 20 21  1  0  0  0  0
 20 42  1  0  0  0  0
 20 43  1  0  0  0  0
 21 44  1  0  0  0  0
 22 23  1  0  0  0  0
 22 45  1  0  0  0  0
 22 46  1  0  0  0  0
 23 24  1  0  0  0  0
 24 47  1  0  0  0  0
 24 48  1  0  0  0  0
 25 49  1  0  0  0  0
 25 50  1  0  0  0  0
M  END
> <s_m_source_file>
AV-unprocessed.smi

> <i_m_source_file_index>
268

> <i_lp_mmshare_version>
43012

> <i_f3d_flags>
0

> <s_epik_input>
W0NIM11bQ0gyXU9bQ0BASF0xW0NIMl1bQ0BIXShbQ0gyXTEpTihbQ0gzXSljKG5bY0hdbjIpYyhjMjMpbltjSF1uM1tDSDJdQzQoW0NIMl1bT0hdKVtDSDJdT1tDSDJdNA==

> <s_epik_cmdline>
J2VwaWtfcHl0aG9uJywgJy1waCcsICc3LjAnLCAnLXRuJywgJzgnLCAnLW1hJywgJzIwMCcsICctbWV0YWxfYmluZGluZycsICctaW1hZScsICc8aW5maWxlLm1hZT4nLCAnLW9tYWUnLCAnPG91dGZpbGUubWFlPic=

> <r_lp_tautomer_probability>
1

> <r_epik_Ionization_Penalty>
0.00205824

> <r_epik_Ionization_Penalty_Charging>
0

> <r_epik_Ionization_Penalty_Neutral>
0.00205824

> <r_epik_State_Penalty>
0.00125218

> <r_epik_Charging_Adjusted_Penalty>
0.00125218

> <i_epik_Tot_Q>
0

> <i_epik_Tot_abs_Q>
0

> <r_epik_Metal_State_Penalty>
-0

> <b_epik_Metal_Only>
0

> <s_lp_Force_Field>
OPLS_2005

> <r_lp_Energy>
41.5967

> <b_lp_Chiralities_Consistent>
1

> <s_lp_Variant>
AV-unprocessed.smi:268-2

> <Gold.Version>
5.8.1

> <Gold.Id.Protein>
6NUR|6NUR_protein|mol2

> <Gold.PLP.Fitness>
47.7698

> <Gold.PLP.PLP>
-41.1822

> <Gold.PLP.part.hbond>
-3.0000

> <Gold.PLP.part.metal>
0.0000

> <Gold.PLP.part.buried>
-8.5605

> <Gold.PLP.part.nonpolar>
-30.4957

> <Gold.PLP.part.repulsive>
0.3079

> <Gold.PLP.ligand.clash>
0.0000

> <Gold.PLP.ligand.torsion>
1.4672

> <Gold.PLP.Chemscore.Hbond>
2.7120

> <Gold.PLP.Chemscore.CHOScore>
0.0000

> <Gold.PLP.Chemscore.Metal>
0.0000

> <Gold.Chemscore.Hbonds>
donor molecule, donor type, donor heavy atom, donor atom, acceptor molecule, acceptor atom, score
      P1  H  7989  7998       L1    10  0.46
      P1  H 10752 10763       L1    12  0.83

> <Gold.PLP.Chemscore.Internal.Correction>
1.3860

> <Gold.Rescore>
     Score         DG    S(hbond)    S(metal)    S(lipo)     H(rot)  DE(clash)    DE(int)     intcor
     14.87     -16.48       2.78        0.00      83.65       3.15       0.00       1.61       ----

> <Gold.Chemscore.Fitness>
14.8656

> <Gold.Chemscore.DG>
-16.4770

> <Gold.Chemscore.ZeroCoef>
-5.4800

> <Gold.Chemscore.Hbond>
2.7799

> <Gold.Chemscore.Metal>
0.0000

> <Gold.Chemscore.Lipo>
83.6486

> <Gold.Chemscore.Internal_Hbond>
0.0000

> <Gold.Chemscore.DEClash>
0.0038

> <Gold.Chemscore.DEInternal>
1.6076

> <Gold.Chemscore.Rot>
3.1542

> <Gold.Chemscore.Internal.Correction>
   9.000000E+99

> <Gold.Chemscore.Hbonds>
donor molecule, donor type, donor heavy atom, donor atom, acceptor molecule, acceptor atom, score
      P1  H  7989  7998       L1    10  0.07
      P1  H 10752 10763       L1    12  0.73

> <Gold.Chemscore.Hbond.Weighted>
-9.2849

> <Gold.Chemscore.Metal.Weighted>
-0.0000

> <Gold.Chemscore.Lipo.Weighted>
-9.7869

> <Gold.Chemscore.Internal_Hbond.Weighted>
0.0000

> <Gold.Chemscore.DEClash.Weighted>
0.0038

> <Gold.Chemscore.DEInternal.Weighted>
1.6076

> <Gold.Chemscore.Rot.Weighted>
8.0748

> <Gold.Chemscore.Internal.Correction.Weighted>
   9.000000E+99

> <Gold.Protein.RotatedTorsions>
[ 6907 6896 6895 6894 ] final -114.81 input  -60.11 | X-H torsion
[ 7974 7965 7964 7962 ] final  132.10 input  175.53 | X-H torsion
[ 8008 7997 7996 7995 ] final  -52.20 input   59.86 | X-H torsion
[ 10167 10162 10161 10158 ] final   37.57 input  -65.29 | X-H torsion
[ 10718 10713 10712 10709 ] final  -73.16 input   66.30 | X-H torsion
[ 10763 10752 10751 10750 ] final   51.10 input  -60.55 | X-H torsion
[ 11005 11000 10999 10996 ] final   65.25 input  -57.11 | X-H torsion

> <Gold.Protein.ActiveResidues>
 VAL166  LYS551  ARG553  GLY616  TRP617  ASP618  TYR619  PRO620  LYS621  CYS622 
 ASP623  PHE694  ASN695  SER759  ASP760  ASP761  ALA762  ILE779  LEU786  VAL792 
 PHE793  MET794  SER795  GLU796  ALA797  LYS798  CYS799  TRP800  GLU811  SER814 

> <Gold.Protein.RotatedAtoms>
  150.7930  133.8748  159.3268 H   0  0  0  0  0  0  0  0  0  0  0  0  # atno 6907 bound_to 6896
  151.6581  135.0991  160.0183 H   0  0  0  0  0  0  0  0  0  0  0  0  # atno 6908 bound_to 6896
  152.4007  133.6775  159.6349 H   0  0  0  0  0  0  0  0  0  0  0  0  # atno 6909 bound_to 6896
  145.0003  139.4318  143.5295 H   0  0  0  0  0  0  0  0  0  0  0  0  # atno 7974 bound_to 7965
  154.4101  140.1229  156.4953 H   0  0  0  0  0  0  0  0  0  0  0  0  # atno 8008 bound_to 7997
  155.6950  140.3495  155.4889 H   0  0  0  0  0  0  0  0  0  0  0  0  # atno 8009 bound_to 7997
  155.9436  140.1091  157.1025 H   0  0  0  0  0  0  0  0  0  0  0  0  # atno 8010 bound_to 7997
  140.4020  144.1710  150.6134 H   0  0  0  0  0  0  0  0  0  0  0  0  # atno 10167 bound_to 10162
  156.0291  130.4388  150.2700 H   0  0  0  0  0  0  0  0  0  0  0  0  # atno 10718 bound_to 10713
  152.9785  135.5857  154.4360 H   0  0  0  0  0  0  0  0  0  0  0  0  # atno 10763 bound_to 10752
  154.3967  135.2768  155.2123 H   0  0  0  0  0  0  0  0  0  0  0  0  # atno 10764 bound_to 10752
  154.3972  135.6112  153.5931 H   0  0  0  0  0  0  0  0  0  0  0  0  # atno 10765 bound_to 10752
  139.9907  134.6597  156.0097 H   0  0  0  0  0  0  0  0  0  0  0  0  # atno 11005 bound_to 11000
  146.3450  139.9388  142.8744 LP  0  0  0  0  0  0  0  0  0  0  0  0  # atno 17320 bound_to 7965
  145.2162  140.9916  143.4072 LP  0  0  0  0  0  0  0  0  0  0  0  0  # atno 17321 bound_to 7965
  140.4730  143.2406  151.9063 LP  0  0  0  0  0  0  0  0  0  0  0  0  # atno 17342 bound_to 10162
  139.4784  144.5350  151.8611 LP  0  0  0  0  0  0  0  0  0  0  0  0  # atno 17343 bound_to 10162
  157.0803  131.0141  151.3159 LP  0  0  0  0  0  0  0  0  0  0  0  0  # atno 17370 bound_to 10713
  157.4932  130.7835  149.7529 LP  0  0  0  0  0  0  0  0  0  0  0  0  # atno 17371 bound_to 10713
  141.1563  133.6542  156.4172 LP  0  0  0  0  0  0  0  0  0  0  0  0  # atno 17394 bound_to 11000
  140.4915  134.6571  157.5212 LP  0  0  0  0  0  0  0  0  0  0  0  0  # atno 17395 bound_to 11000

$$$$
