AV-unprocessed.smi:731|AV-procd|sdf|3526|dock10
  -GOLD-   22720 0523D 1   1.00000     0.00000
 Structure written by MMmdl.
 34 35  0  0  0  0  0  0  0  0  1 V2000
  153.5769  141.3109  159.4284 O   0  0  0  0  0  0  0  0  0  0  0  0
  153.0508  142.3871  159.7144 C   0  0  0  0  0  0  0  0  0  0  0  0
  152.8938  142.8182  160.9765 N   0  0  0  0  0  0  0  0  0  0  0  0
  153.2850  142.0854  162.1787 C   0  0  0  0  0  0  0  0  0  0  0  0
  153.1509  142.9323  163.4594 C   0  0  0  0  0  0  0  0  0  0  0  0
  153.9041  142.3913  164.6319 C   0  0  0  0  0  0  0  0  0  0  0  0
  153.7625  142.8590  165.8744 N   0  0  0  0  0  0  0  0  0  0  0  0
  154.6171  142.2345  166.7893 C   0  0  0  0  0  0  0  0  0  0  0  0
  154.5938  142.6477  168.2325 C   0  0  0  0  0  0  0  0  0  0  0  0
  153.7292  143.6401  168.4452 F   0  0  0  0  0  0  0  0  0  0  0  0
  154.2382  141.6309  169.0175 F   0  0  0  0  0  0  0  0  0  0  0  0
  155.7938  143.0689  168.6312 F   0  0  0  0  0  0  0  0  0  0  0  0
  155.4119  141.2736  166.2126 C   0  0  0  0  0  0  0  0  0  0  0  0
  155.1181  141.1229  164.5027 S   0  0  0  0  0  0  0  0  0  0  0  0
  152.5129  143.3074  158.6071 C   0  0  0  0  0  0  0  0  0  0  0  0
  152.1776  144.7182  159.1461 C   0  0  0  0  0  0  0  0  0  0  0  0
  150.6853  144.9546  158.8831 C   0  0  0  0  0  0  0  0  0  0  0  0
  150.0843  143.5638  158.7041 C   0  0  0  0  0  0  0  0  0  0  0  0
  151.1946  142.7751  158.0117 C   0  0  0  0  0  0  0  0  0  0  0  0
  152.4513  143.7150  161.1157 H   0  0  0  0  0  0  0  0  0  0  0  0
  152.7007  141.1688  162.2771 H   0  0  0  0  0  0  0  0  0  0  0  0
  154.3217  141.7698  162.0595 H   0  0  0  0  0  0  0  0  0  0  0  0
  153.4944  143.9490  163.2649 H   0  0  0  0  0  0  0  0  0  0  0  0
  152.0992  143.0133  163.7363 H   0  0  0  0  0  0  0  0  0  0  0  0
  156.1531  140.6493  166.6891 H   0  0  0  0  0  0  0  0  0  0  0  0
  153.2589  143.3807  157.8141 H   0  0  0  0  0  0  0  0  0  0  0  0
  152.3766  144.8021  160.2161 H   0  0  0  0  0  0  0  0  0  0  0  0
  152.7821  145.4832  158.6577 H   0  0  0  0  0  0  0  0  0  0  0  0
  150.2036  145.5176  159.6830 H   0  0  0  0  0  0  0  0  0  0  0  0
  150.5638  145.5234  157.9600 H   0  0  0  0  0  0  0  0  0  0  0  0
  149.8682  143.1248  159.6792 H   0  0  0  0  0  0  0  0  0  0  0  0
  149.1573  143.5769  158.1301 H   0  0  0  0  0  0  0  0  0  0  0  0
  151.1733  142.9788  156.9403 H   0  0  0  0  0  0  0  0  0  0  0  0
  151.0634  141.6986  158.1335 H   0  0  0  0  0  0  0  0  0  0  0  0
  1  2  2  0  0  0  0
  2  3  1  0  0  0  0
  2 15  1  0  0  0  0
  3  4  1  0  0  0  0
  3 20  1  0  0  0  0
  4  5  1  0  0  0  0
  4 21  1  0  0  0  0
  4 22  1  0  0  0  0
  5  6  1  0  0  0  0
  5 23  1  0  0  0  0
  5 24  1  0  0  0  0
  6 14  1  0  0  0  0
  6  7  2  0  0  0  0
  7  8  1  0  0  0  0
  8  9  1  0  0  0  0
  8 13  2  0  0  0  0
  9 10  1  0  0  0  0
  9 11  1  0  0  0  0
  9 12  1  0  0  0  0
 13 14  1  0  0  0  0
 13 25  1  0  0  0  0
 15 19  1  0  0  0  0
 15 16  1  0  0  0  0
 15 26  1  0  0  0  0
 16 17  1  0  0  0  0
 16 27  1  0  0  0  0
 16 28  1  0  0  0  0
 17 18  1  0  0  0  0
 17 29  1  0  0  0  0
 17 30  1  0  0  0  0
 18 19  1  0  0  0  0
 18 31  1  0  0  0  0
 18 32  1  0  0  0  0
 19 33  1  0  0  0  0
 19 34  1  0  0  0  0
M  END
> <s_m_source_file>
AV-unprocessed.smi

> <i_m_source_file_index>
731

> <i_lp_mmshare_version>
43012

> <i_f3d_flags>
0

> <s_epik_input>
W0NIMl0xW0NIMl1bQ0gyXVtDSDJdW0NIXTFDKD1PKVtOSF1bQ0gyXVtDSDJdYzJuYyhDKEYpKEYpRilbY0hdczI=

> <s_epik_cmdline>
J2VwaWtfcHl0aG9uJywgJy1waCcsICc3LjAnLCAnLXRuJywgJzgnLCAnLW1hJywgJzIwMCcsICctbWV0YWxfYmluZGluZycsICctaW1hZScsICc8aW5maWxlLm1hZT4nLCAnLW9tYWUnLCAnPG91dGZpbGUubWFlPic=

> <r_lp_tautomer_probability>
1

> <r_epik_Ionization_Penalty>
2.28973e-08

> <r_epik_Ionization_Penalty_Charging>
0

> <r_epik_Ionization_Penalty_Neutral>
2.28973e-08

> <r_epik_State_Penalty>
-0

> <r_epik_Charging_Adjusted_Penalty>
0

> <i_epik_Tot_Q>
0

> <i_epik_Tot_abs_Q>
0

> <r_epik_Metal_State_Penalty>
-0

> <b_epik_Metal_Only>
0

> <s_lp_Force_Field>
OPLS_2005

> <r_lp_Energy>
15.4873

> <b_lp_Chiralities_Consistent>
1

> <s_lp_Variant>
AV-unprocessed.smi:731-1

> <Gold.Version>
5.8.1

> <Gold.Id.Protein>
6NUR|6NUR_protein|mol2

> <Gold.PLP.Fitness>
45.7141

> <Gold.PLP.PLP>
-47.4055

> <Gold.PLP.part.hbond>
-0.9869

> <Gold.PLP.part.metal>
0.0000

> <Gold.PLP.part.buried>
-6.6408

> <Gold.PLP.part.nonpolar>
-38.8560

> <Gold.PLP.part.repulsive>
0.0551

> <Gold.PLP.ligand.clash>
0.5906

> <Gold.PLP.ligand.torsion>
0.5651

> <Gold.PLP.Chemscore.Hbond>
0.0000

> <Gold.PLP.Chemscore.CHOScore>
0.0000

> <Gold.PLP.Chemscore.Metal>
0.0000

> <Gold.PLP.Chemscore.Internal.Correction>
0.0295

> <Gold.Rescore>
     Score         DG    S(hbond)    S(metal)    S(lipo)     H(rot)  DE(clash)    DE(int)     intcor
     13.11     -14.14       0.00        0.00     111.78       1.73       0.62       0.41       ----

> <Gold.Chemscore.Fitness>
13.1061

> <Gold.Chemscore.DG>
-14.1382

> <Gold.Chemscore.ZeroCoef>
-5.4800

> <Gold.Chemscore.Hbond>
0.0000

> <Gold.Chemscore.Metal>
0.0000

> <Gold.Chemscore.Lipo>
111.7758

> <Gold.Chemscore.Internal_Hbond>
0.0000

> <Gold.Chemscore.DEClash>
0.6223

> <Gold.Chemscore.DEInternal>
0.4098

> <Gold.Chemscore.Rot>
1.7264

> <Gold.Chemscore.Internal.Correction>
   9.000000E+99

> <Gold.Chemscore.Hbond.Weighted>
-0.0000

> <Gold.Chemscore.Metal.Weighted>
-0.0000

> <Gold.Chemscore.Lipo.Weighted>
-13.0778

> <Gold.Chemscore.Internal_Hbond.Weighted>
0.0000

> <Gold.Chemscore.DEClash.Weighted>
0.6223

> <Gold.Chemscore.DEInternal.Weighted>
0.4098

> <Gold.Chemscore.Rot.Weighted>
4.4196

> <Gold.Chemscore.Internal.Correction.Weighted>
   9.000000E+99

> <Gold.Protein.RotatedTorsions>
[ 6907 6896 6895 6894 ] final  -36.61 input  -60.11 | X-H torsion
[ 7974 7965 7964 7962 ] final  -92.02 input  175.53 | X-H torsion
[ 8008 7997 7996 7995 ] final -120.61 input   59.86 | X-H torsion
[ 10167 10162 10161 10158 ] final   45.05 input  -65.29 | X-H torsion
[ 10718 10713 10712 10709 ] final  -77.52 input   66.30 | X-H torsion
[ 10763 10752 10751 10750 ] final  -74.29 input  -60.55 | X-H torsion
[ 11005 11000 10999 10996 ] final  127.86 input  -57.11 | X-H torsion

> <Gold.Protein.ActiveResidues>
 VAL166  LYS551  ARG553  GLY616  TRP617  ASP618  TYR619  PRO620  LYS621  CYS622 
 ASP623  PHE694  ASN695  SER759  ASP760  ASP761  ALA762  ILE779  LEU786  VAL792 
 PHE793  MET794  SER795  GLU796  ALA797  LYS798  CYS799  TRP800  GLU811  SER814 

> <Gold.Protein.RotatedAtoms>
  151.0250  134.9497  159.8079 H   0  0  0  0  0  0  0  0  0  0  0  0  # atno 6907 bound_to 6896
  152.5333  134.2854  159.9033 H   0  0  0  0  0  0  0  0  0  0  0  0  # atno 6908 bound_to 6896
  151.2862  133.4144  159.2664 H   0  0  0  0  0  0  0  0  0  0  0  0  # atno 6909 bound_to 6896
  145.4054  140.9541  143.2264 H   0  0  0  0  0  0  0  0  0  0  0  0  # atno 7974 bound_to 7965
  155.1346  140.0401  157.2783 H   0  0  0  0  0  0  0  0  0  0  0  0  # atno 8008 bound_to 7997
  154.6517  140.2571  155.7180 H   0  0  0  0  0  0  0  0  0  0  0  0  # atno 8009 bound_to 7997
  156.2580  140.2835  156.0954 H   0  0  0  0  0  0  0  0  0  0  0  0  # atno 8010 bound_to 7997
  140.3280  144.2623  150.6172 H   0  0  0  0  0  0  0  0  0  0  0  0  # atno 10167 bound_to 10162
  156.0143  130.4493  150.3357 H   0  0  0  0  0  0  0  0  0  0  0  0  # atno 10718 bound_to 10713
  154.4711  135.5869  153.6322 H   0  0  0  0  0  0  0  0  0  0  0  0  # atno 10763 bound_to 10752
  152.9835  135.6067  154.3366 H   0  0  0  0  0  0  0  0  0  0  0  0  # atno 10764 bound_to 10752
  154.3247  135.2843  155.2481 H   0  0  0  0  0  0  0  0  0  0  0  0  # atno 10765 bound_to 10752
  139.9530  134.9618  156.8917 H   0  0  0  0  0  0  0  0  0  0  0  0  # atno 11005 bound_to 11000
  144.8345  139.5572  143.6928 LP  0  0  0  0  0  0  0  0  0  0  0  0  # atno 17320 bound_to 7965
  146.2731  139.6685  142.9282 LP  0  0  0  0  0  0  0  0  0  0  0  0  # atno 17321 bound_to 7965
  140.5423  143.2221  151.8065 LP  0  0  0  0  0  0  0  0  0  0  0  0  # atno 17342 bound_to 10162
  139.4861  144.4584  151.9570 LP  0  0  0  0  0  0  0  0  0  0  0  0  # atno 17343 bound_to 10162
  157.1454  131.0307  151.2909 LP  0  0  0  0  0  0  0  0  0  0  0  0  # atno 17370 bound_to 10713
  157.4437  130.7558  149.7091 LP  0  0  0  0  0  0  0  0  0  0  0  0  # atno 17371 bound_to 10713
  140.5675  134.0475  155.7419 LP  0  0  0  0  0  0  0  0  0  0  0  0  # atno 17394 bound_to 11000
  141.1196  133.9483  157.2755 LP  0  0  0  0  0  0  0  0  0  0  0  0  # atno 17395 bound_to 11000

$$$$
