AV-unprocessed.smi:2019|AV-procd|sdf|8171|dock3
  -GOLD-   2272010423D 1   1.00000     0.00000
 Structure written by MMmdl.
 36 37  0  0  0  0  0  0  0  0  1 V2000
  150.6737  140.9399  158.2526 O   0  0  0  0  0  0  0  0  0  0  0  0
  150.6468  141.9967  157.6206 C   0  0  0  0  0  0  0  0  0  0  0  0
  151.4909  143.1997  158.0636 C   0  0  0  0  0  0  0  0  0  0  0  0
  152.0092  143.0702  159.4356 N   0  0  0  0  0  0  0  0  0  0  0  0
  151.6853  144.0971  160.3446 C   0  0  0  0  0  0  0  0  0  0  0  0
  152.1077  144.0770  161.6187 C   0  0  0  0  0  0  0  0  0  0  0  0
  152.9163  142.9621  162.0522 C   0  0  0  0  0  0  0  0  0  0  0  0
  153.2344  141.9761  161.1902 C   0  0  0  0  0  0  0  0  0  0  0  0
  152.7763  141.9949  159.7961 C   0  0  0  0  0  0  0  0  0  0  0  0
  153.0627  141.0985  159.0020 O   0  0  0  0  0  0  0  0  0  0  0  0
  149.9102  142.1716  156.5118 N   0  0  0  0  0  0  0  0  0  0  0  0
  149.0155  141.1747  155.9192 C   0  0  2  0  0  0  0  0  0  0  0  0
  148.3320  141.8294  154.6965 C   0  0  0  0  0  0  0  0  0  0  0  0
  147.7975  140.8174  153.6682 C   0  0  0  0  0  0  0  0  0  0  0  0
  146.6558  139.9218  154.1730 C   0  0  0  0  0  0  0  0  0  0  0  0
  147.0567  139.0119  155.3467 C   0  0  0  0  0  0  0  0  0  0  0  0
  147.1035  139.7356  156.6104 N   0  0  0  0  0  0  0  0  0  0  0  0
  147.9326  140.7395  156.9347 C   0  0  0  0  0  0  0  0  0  0  0  0
  147.8264  141.3053  158.0229 O   0  0  0  0  0  0  0  0  0  0  0  0
  152.3099  143.3178  157.3528 H   0  0  0  0  0  0  0  0  0  0  0  0
  150.9005  144.1138  157.9735 H   0  0  0  0  0  0  0  0  0  0  0  0
  151.0834  144.8977  159.9401 H   0  0  0  0  0  0  0  0  0  0  0  0
  151.8527  144.8752  162.3001 H   0  0  0  0  0  0  0  0  0  0  0  0
  153.2688  142.9198  163.0724 H   0  0  0  0  0  0  0  0  0  0  0  0
  153.8414  141.1505  161.5318 H   0  0  0  0  0  0  0  0  0  0  0  0
  149.9457  143.0735  156.0594 H   0  0  0  0  0  0  0  0  0  0  0  0
  149.6030  140.3106  155.6033 H   0  0  0  0  0  0  0  0  0  0  0  0
  147.5351  142.5067  155.0095 H   0  0  0  0  0  0  0  0  0  0  0  0
  149.0583  142.4563  154.1768 H   0  0  0  0  0  0  0  0  0  0  0  0
  147.4459  141.3654  152.7934 H   0  0  0  0  0  0  0  0  0  0  0  0
  148.6189  140.1925  153.3149 H   0  0  0  0  0  0  0  0  0  0  0  0
  145.7911  140.5290  154.4448 H   0  0  0  0  0  0  0  0  0  0  0  0
  146.3291  139.2920  153.3450 H   0  0  0  0  0  0  0  0  0  0  0  0
  146.3134  138.2220  155.4573 H   0  0  0  0  0  0  0  0  0  0  0  0
  148.0079  138.5135  155.1544 H   0  0  0  0  0  0  0  0  0  0  0  0
  146.4167  139.4692  157.3013 H   0  0  0  0  0  0  0  0  0  0  0  0
  1  2  2  0  0  0  0
  2  3  1  0  0  0  0
  2 11  1  0  0  0  0
  3  4  1  0  0  0  0
  3 20  1  0  0  0  0
  3 21  1  0  0  0  0
  4  9  1  0  0  0  0
  4  5  1  0  0  0  0
  5  6  2  0  0  0  0
  5 22  1  0  0  0  0
  6  7  1  0  0  0  0
  6 23  1  0  0  0  0
  7  8  2  0  0  0  0
  7 24  1  0  0  0  0
  8  9  1  0  0  0  0
  8 25  1  0  0  0  0
  9 10  2  0  0  0  0
 11 12  1  0  0  0  0
 11 26  1  0  0  0  0
 12 18  1  0  0  0  0
 12 13  1  0  0  0  0
 12 27  1  0  0  0  0
 13 14  1  0  0  0  0
 13 28  1  0  0  0  0
 13 29  1  0  0  0  0
 14 15  1  0  0  0  0
 14 30  1  0  0  0  0
 14 31  1  0  0  0  0
 15 16  1  0  0  0  0
 15 32  1  0  0  0  0
 15 33  1  0  0  0  0
 16 17  1  0  0  0  0
 16 34  1  0  0  0  0
 16 35  1  0  0  0  0
 17 18  1  0  0  0  0
 17 36  1  0  0  0  0
 18 19  2  0  0  0  0
M  END
> <s_m_source_file>
AV-unprocessed.smi

> <i_m_source_file_index>
2019

> <i_lp_mmshare_version>
43012

> <i_f3d_flags>
0

> <s_epik_input>
Tz1jMVtjSF1bY0hdW2NIXVtjSF1uMVtDSDJdQyg9TylbTkhdW0NAQEhdMltDSDJdW0NIMl1bQ0gyXVtDSDJdW05IXUMyPU8=

> <s_epik_cmdline>
J2VwaWtfcHl0aG9uJywgJy1waCcsICc3LjAnLCAnLXRuJywgJzgnLCAnLW1hJywgJzIwMCcsICctbWV0YWxfYmluZGluZycsICctaW1hZScsICc8aW5maWxlLm1hZT4nLCAnLW9tYWUnLCAnPG91dGZpbGUubWFlPic=

> <r_lp_tautomer_probability>
1

> <r_epik_Ionization_Penalty>
3.70786e-07

> <r_epik_Ionization_Penalty_Charging>
3.17464e-07

> <r_epik_Ionization_Penalty_Neutral>
5.33217e-08

> <r_epik_State_Penalty>
-0

> <r_epik_Charging_Adjusted_Penalty>
3.17464e-07

> <i_epik_Tot_Q>
0

> <i_epik_Tot_abs_Q>
0

> <r_epik_Metal_State_Penalty>
-0

> <b_epik_Metal_Only>
0

> <s_lp_Force_Field>
OPLS_2005

> <r_lp_Energy>
20.44

> <b_lp_Chiralities_Consistent>
1

> <s_lp_Variant>
AV-unprocessed.smi:2019-1

> <Gold.Version>
5.8.1

> <Gold.Id.Protein>
6NUR|6NUR_protein|mol2

> <Gold.PLP.Fitness>
40.0902

> <Gold.PLP.PLP>
-37.8365

> <Gold.PLP.part.hbond>
-1.3130

> <Gold.PLP.part.metal>
0.0000

> <Gold.PLP.part.buried>
-3.4677

> <Gold.PLP.part.nonpolar>
-32.5811

> <Gold.PLP.part.repulsive>
0.1382

> <Gold.PLP.ligand.clash>
0.0000

> <Gold.PLP.ligand.torsion>
0.1937

> <Gold.PLP.Chemscore.Hbond>
0.8800

> <Gold.PLP.Chemscore.CHOScore>
0.0000

> <Gold.PLP.Chemscore.Metal>
0.0000

> <Gold.Chemscore.Hbonds>
donor molecule, donor type, donor heavy atom, donor atom, acceptor molecule, acceptor atom, score
      L1  H    11    26       P1  8028  0.88

> <Gold.PLP.Chemscore.Internal.Correction>
0.0010

> <Gold.Rescore>
     Score         DG    S(hbond)    S(metal)    S(lipo)     H(rot)  DE(clash)    DE(int)     intcor
      9.65     -14.26       0.92        0.00      83.65       1.59       0.17       4.43       ----

> <Gold.Chemscore.Fitness>
9.6505

> <Gold.Chemscore.DG>
-14.2557

> <Gold.Chemscore.ZeroCoef>
-5.4800

> <Gold.Chemscore.Hbond>
0.9189

> <Gold.Chemscore.Metal>
0.0000

> <Gold.Chemscore.Lipo>
83.6497

> <Gold.Chemscore.Internal_Hbond>
0.0000

> <Gold.Chemscore.DEClash>
0.1749

> <Gold.Chemscore.DEInternal>
4.4303

> <Gold.Chemscore.Rot>
1.5939

> <Gold.Chemscore.Internal.Correction>
   9.000000E+99

> <Gold.Chemscore.Hbonds>
donor molecule, donor type, donor heavy atom, donor atom, acceptor molecule, acceptor atom, score
      L1  H    11    26       P1  8028  0.83

> <Gold.Chemscore.Hbond.Weighted>
-3.0691

> <Gold.Chemscore.Metal.Weighted>
-0.0000

> <Gold.Chemscore.Lipo.Weighted>
-9.7870

> <Gold.Chemscore.Internal_Hbond.Weighted>
0.0000

> <Gold.Chemscore.DEClash.Weighted>
0.1749

> <Gold.Chemscore.DEInternal.Weighted>
4.4303

> <Gold.Chemscore.Rot.Weighted>
4.0804

> <Gold.Chemscore.Internal.Correction.Weighted>
   9.000000E+99

> <Gold.Protein.RotatedTorsions>
[ 6907 6896 6895 6894 ] final  133.09 input  -60.11 | X-H torsion
[ 7974 7965 7964 7962 ] final   91.43 input  175.53 | X-H torsion
[ 8008 7997 7996 7995 ] final   -2.19 input   59.86 | X-H torsion
[ 10167 10162 10161 10158 ] final   11.12 input  -65.29 | X-H torsion
[ 10718 10713 10712 10709 ] final -145.91 input   66.30 | X-H torsion
[ 10763 10752 10751 10750 ] final   12.89 input  -60.55 | X-H torsion
[ 11005 11000 10999 10996 ] final  -32.39 input  -57.11 | X-H torsion

> <Gold.Protein.ActiveResidues>
 VAL166  LYS551  ARG553  GLY616  TRP617  ASP618  TYR619  PRO620  LYS621  CYS622 
 ASP623  PHE694  ASN695  SER759  ASP760  ASP761  ALA762  ILE779  LEU786  VAL792 
 PHE793  MET794  SER795  GLU796  ALA797  LYS798  CYS799  TRP800  GLU811  SER814 

> <Gold.Protein.RotatedAtoms>
  152.3255  133.5901  159.5773 H   0  0  0  0  0  0  0  0  0  0  0  0  # atno 6907 bound_to 6896
  150.7394  133.9946  159.3627 H   0  0  0  0  0  0  0  0  0  0  0  0  # atno 6908 bound_to 6896
  151.7826  135.0758  160.0427 H   0  0  0  0  0  0  0  0  0  0  0  0  # atno 6909 bound_to 6896
  145.5057  139.2276  143.2752 H   0  0  0  0  0  0  0  0  0  0  0  0  # atno 7974 bound_to 7965
  154.6384  140.2540  155.7350 H   0  0  0  0  0  0  0  0  0  0  0  0  # atno 8008 bound_to 7997
  156.2516  140.2892  156.0688 H   0  0  0  0  0  0  0  0  0  0  0  0  # atno 8009 bound_to 7997
  155.1634  140.0385  157.2838 H   0  0  0  0  0  0  0  0  0  0  0  0  # atno 8010 bound_to 7997
  140.6152  143.8323  150.7110 H   0  0  0  0  0  0  0  0  0  0  0  0  # atno 10167 bound_to 10162
  156.3883  130.7873  151.2072 H   0  0  0  0  0  0  0  0  0  0  0  0  # atno 10718 bound_to 10713
  153.1777  135.6822  153.8521 H   0  0  0  0  0  0  0  0  0  0  0  0  # atno 10763 bound_to 10752
  153.7863  135.3175  155.3374 H   0  0  0  0  0  0  0  0  0  0  0  0  # atno 10764 bound_to 10752
  154.8039  135.4760  154.0438 H   0  0  0  0  0  0  0  0  0  0  0  0  # atno 10765 bound_to 10752
  140.9548  133.7199  156.1276 H   0  0  0  0  0  0  0  0  0  0  0  0  # atno 11005 bound_to 11000
  146.2198  140.5861  142.9022 LP  0  0  0  0  0  0  0  0  0  0  0  0  # atno 17320 bound_to 7965
  144.7755  140.5730  143.6641 LP  0  0  0  0  0  0  0  0  0  0  0  0  # atno 17321 bound_to 7965
  140.1901  143.4043  152.1869 LP  0  0  0  0  0  0  0  0  0  0  0  0  # atno 17342 bound_to 10162
  139.5393  144.7240  151.4788 LP  0  0  0  0  0  0  0  0  0  0  0  0  # atno 17343 bound_to 10162
  157.7497  131.0323  150.4221 LP  0  0  0  0  0  0  0  0  0  0  0  0  # atno 17370 bound_to 10713
  156.4477  130.4005  149.6656 LP  0  0  0  0  0  0  0  0  0  0  0  0  # atno 17371 bound_to 10713
  140.7551  134.4001  157.5535 LP  0  0  0  0  0  0  0  0  0  0  0  0  # atno 17394 bound_to 11000
  139.8859  134.8925  156.2617 LP  0  0  0  0  0  0  0  0  0  0  0  0  # atno 17395 bound_to 11000

$$$$
