AV-unprocessed.smi:1982|AV-procd|sdf|8023|dock4
  -GOLD-   2272010213D 1   1.00000     0.00000
 Structure written by MMmdl.
 36 37  0  0  0  0  0  0  0  0  1 V2000
  151.3749  144.6162  159.9806 C   0  0  0  0  0  0  0  0  0  0  0  0
  152.5690  143.9749  159.2442 C   0  0  1  0  0  0  0  0  0  0  0  0
  153.3100  142.9604  160.1394 C   0  0  0  0  0  0  0  0  0  0  0  0
  152.5099  141.6626  160.3335 C   0  0  0  0  0  0  0  0  0  0  0  0
  152.1488  141.0262  158.9842 C   0  0  0  0  0  0  0  0  0  0  0  0
  151.4006  142.0136  158.0658 C   0  0  2  0  0  0  0  0  0  0  0  0
  151.1583  141.3882  156.7687 N   0  0  0  0  0  0  0  0  0  0  0  0
  149.9990  140.8471  156.3633 C   0  0  0  0  0  0  0  0  0  0  0  0
  149.0020  140.7561  157.0789 O   0  0  0  0  0  0  0  0  0  0  0  0
  149.9559  140.3377  154.9223 C   0  0  0  0  0  0  0  0  0  0  0  0
  150.9369  139.2882  154.7146 N   0  0  0  0  0  0  0  0  0  0  0  0
  150.8241  138.0793  154.1604 C   0  0  0  0  0  0  0  0  0  0  0  0
  151.9822  137.4371  154.1492 N   0  0  0  0  0  0  0  0  0  0  0  0
  152.8483  138.3389  154.7450 N   0  0  0  0  0  0  0  0  0  0  0  0
  152.2340  139.4391  155.0827 N   0  0  0  0  0  0  0  0  0  0  0  0
  152.2029  143.3275  157.8817 C   0  0  1  0  0  0  0  0  0  0  0  0
  151.5174  144.3211  156.9216 C   0  0  0  0  0  0  0  0  0  0  0  0
  150.5835  143.8968  160.1881 H   0  0  0  0  0  0  0  0  0  0  0  0
  150.9381  145.4303  159.4030 H   0  0  0  0  0  0  0  0  0  0  0  0
  151.6901  145.0395  160.9344 H   0  0  0  0  0  0  0  0  0  0  0  0
  153.2708  144.7850  159.0410 H   0  0  0  0  0  0  0  0  0  0  0  0
  154.2725  142.7187  159.6863 H   0  0  0  0  0  0  0  0  0  0  0  0
  153.5380  143.4059  161.1084 H   0  0  0  0  0  0  0  0  0  0  0  0
  153.0897  140.9576  160.9298 H   0  0  0  0  0  0  0  0  0  0  0  0
  151.6006  141.8641  160.9002 H   0  0  0  0  0  0  0  0  0  0  0  0
  153.0620  140.6871  158.4929 H   0  0  0  0  0  0  0  0  0  0  0  0
  151.5416  140.1359  159.1528 H   0  0  0  0  0  0  0  0  0  0  0  0
  150.4408  142.2592  158.5233 H   0  0  0  0  0  0  0  0  0  0  0  0
  151.9216  141.4117  156.1080 H   0  0  0  0  0  0  0  0  0  0  0  0
  148.9593  139.9579  154.6908 H   0  0  0  0  0  0  0  0  0  0  0  0
  150.1631  141.1530  154.2280 H   0  0  0  0  0  0  0  0  0  0  0  0
  149.9039  137.6772  153.7628 H   0  0  0  0  0  0  0  0  0  0  0  0
  153.1488  143.0575  157.4090 H   0  0  0  0  0  0  0  0  0  0  0  0
  150.5034  144.5570  157.2447 H   0  0  0  0  0  0  0  0  0  0  0  0
  151.4510  143.9200  155.9097 H   0  0  0  0  0  0  0  0  0  0  0  0
  152.0755  145.2555  156.8595 H   0  0  0  0  0  0  0  0  0  0  0  0
  1  2  1  0  0  0  0
  1 18  1  0  0  0  0
  1 19  1  0  0  0  0
  1 20  1  0  0  0  0
  2 16  1  0  0  0  0
  2  3  1  0  0  0  0
  2 21  1  0  0  0  0
  3  4  1  0  0  0  0
  3 22  1  0  0  0  0
  3 23  1  0  0  0  0
  4  5  1  0  0  0  0
  4 24  1  0  0  0  0
  4 25  1  0  0  0  0
  5  6  1  0  0  0  0
  5 26  1  0  0  0  0
  5 27  1  0  0  0  0
  6  7  1  0  0  0  0
  6 16  1  0  0  0  0
  6 28  1  0  0  0  0
  7  8  1  0  0  0  0
  7 29  1  0  0  0  0
  8  9  2  0  0  0  0
  8 10  1  0  0  0  0
 10 11  1  0  0  0  0
 10 30  1  0  0  0  0
 10 31  1  0  0  0  0
 11 15  1  0  0  0  0
 11 12  1  0  0  0  0
 12 13  2  0  0  0  0
 12 32  1  0  0  0  0
 13 14  1  0  0  0  0
 14 15  2  0  0  0  0
 16 17  1  0  0  0  0
 16 33  1  0  0  0  0
 17 34  1  0  0  0  0
 17 35  1  0  0  0  0
 17 36  1  0  0  0  0
M  END
> <s_m_source_file>
AV-unprocessed.smi

> <i_m_source_file_index>
1982

> <i_lp_mmshare_version>
43012

> <i_f3d_flags>
0

> <s_epik_input>
W0NIM11bQ0BASF0xW0NIMl1bQ0gyXVtDSDJdW0NASF0oW0NASF0xW0NIM10pW05IXUMoPU8pW0NIMl1uMltjSF1ubm4y

> <s_epik_cmdline>
J2VwaWtfcHl0aG9uJywgJy1waCcsICc3LjAnLCAnLXRuJywgJzgnLCAnLW1hJywgJzIwMCcsICctbWV0YWxfYmluZGluZycsICctaW1hZScsICc8aW5maWxlLm1hZT4nLCAnLW9tYWUnLCAnPG91dGZpbGUubWFlPic=

> <r_lp_tautomer_probability>
1

> <r_epik_Ionization_Penalty>
5.03816e-07

> <r_epik_Ionization_Penalty_Charging>
0

> <r_epik_Ionization_Penalty_Neutral>
5.03816e-07

> <r_epik_State_Penalty>
-0

> <r_epik_Charging_Adjusted_Penalty>
0

> <i_epik_Tot_Q>
0

> <i_epik_Tot_abs_Q>
0

> <r_epik_Metal_State_Penalty>
-0

> <b_epik_Metal_Only>
0

> <s_lp_Force_Field>
OPLS_2005

> <r_lp_Energy>
15.2513

> <b_lp_Chiralities_Consistent>
1

> <s_lp_Variant>
AV-unprocessed.smi:1982-4

> <Gold.Version>
5.8.1

> <Gold.Id.Protein>
6NUR|6NUR_protein|mol2

> <Gold.PLP.Fitness>
40.5572

> <Gold.PLP.PLP>
-35.3555

> <Gold.PLP.part.hbond>
-2.0530

> <Gold.PLP.part.metal>
0.0000

> <Gold.PLP.part.buried>
-2.8467

> <Gold.PLP.part.nonpolar>
-30.7907

> <Gold.PLP.part.repulsive>
0.4056

> <Gold.PLP.ligand.clash>
0.0000

> <Gold.PLP.ligand.torsion>
0.3406

> <Gold.PLP.Chemscore.Hbond>
0.9600

> <Gold.PLP.Chemscore.CHOScore>
0.9989

> <Gold.PLP.Chemscore.Metal>
0.0000

> <Gold.Chemscore.Hbonds>
donor molecule, donor type, donor heavy atom, donor atom, acceptor molecule, acceptor atom, score
      P1  H 10752 10765       L1    13  0.96
      L1  C    12    32       P1  7948  0.99

> <Gold.PLP.Chemscore.Internal.Correction>
0.0061

> <Gold.Rescore>
     Score         DG    S(hbond)    S(metal)    S(lipo)     H(rot)  DE(clash)    DE(int)     intcor
     12.04     -13.79       0.73        0.00      91.82       1.91       0.12       1.63       ----

> <Gold.Chemscore.Fitness>
12.0397

> <Gold.Chemscore.DG>
-13.7918

> <Gold.Chemscore.ZeroCoef>
-5.4800

> <Gold.Chemscore.Hbond>
0.7329

> <Gold.Chemscore.Metal>
0.0000

> <Gold.Chemscore.Lipo>
91.8183

> <Gold.Chemscore.Internal_Hbond>
0.0000

> <Gold.Chemscore.DEClash>
0.1181

> <Gold.Chemscore.DEInternal>
1.6340

> <Gold.Chemscore.Rot>
1.9058

> <Gold.Chemscore.Internal.Correction>
   9.000000E+99

> <Gold.Chemscore.Hbonds>
donor molecule, donor type, donor heavy atom, donor atom, acceptor molecule, acceptor atom, score
      P1  H 10752 10765       L1    13  0.40

> <Gold.Chemscore.Hbond.Weighted>
-2.4479

> <Gold.Chemscore.Metal.Weighted>
-0.0000

> <Gold.Chemscore.Lipo.Weighted>
-10.7427

> <Gold.Chemscore.Internal_Hbond.Weighted>
0.0000

> <Gold.Chemscore.DEClash.Weighted>
0.1181

> <Gold.Chemscore.DEInternal.Weighted>
1.6340

> <Gold.Chemscore.Rot.Weighted>
4.8788

> <Gold.Chemscore.Internal.Correction.Weighted>
   9.000000E+99

> <Gold.Protein.RotatedTorsions>
[ 6907 6896 6895 6894 ] final  131.00 input  -60.11 | X-H torsion
[ 7974 7965 7964 7962 ] final   29.31 input  175.53 | X-H torsion
[ 8008 7997 7996 7995 ] final   43.35 input   59.86 | X-H torsion
[ 10167 10162 10161 10158 ] final -124.62 input  -65.29 | X-H torsion
[ 10718 10713 10712 10709 ] final   25.79 input   66.30 | X-H torsion
[ 10763 10752 10751 10750 ] final  153.18 input  -60.55 | X-H torsion
[ 11005 11000 10999 10996 ] final  113.68 input  -57.11 | X-H torsion

> <Gold.Protein.ActiveResidues>
 VAL166  LYS551  ARG553  GLY616  TRP617  ASP618  TYR619  PRO620  LYS621  CYS622 
 ASP623  PHE694  ASN695  SER759  ASP760  ASP761  ALA762  ILE779  LEU786  VAL792 
 PHE793  MET794  SER795  GLU796  ALA797  LYS798  CYS799  TRP800  GLU811  SER814 

> <Gold.Protein.RotatedAtoms>
  152.3470  133.6134  159.5917 H   0  0  0  0  0  0  0  0  0  0  0  0  # atno 6907 bound_to 6896
  150.7514  133.9633  159.3531 H   0  0  0  0  0  0  0  0  0  0  0  0  # atno 6908 bound_to 6896
  151.7490  135.0838  160.0379 H   0  0  0  0  0  0  0  0  0  0  0  0  # atno 6909 bound_to 6896
  146.1679  139.6939  142.8988 H   0  0  0  0  0  0  0  0  0  0  0  0  # atno 7974 bound_to 7965
  155.3013  140.3385  155.4247 H   0  0  0  0  0  0  0  0  0  0  0  0  # atno 8008 bound_to 7997
  156.2000  140.1729  156.7958 H   0  0  0  0  0  0  0  0  0  0  0  0  # atno 8009 bound_to 7997
  154.5547  140.0699  156.8708 H   0  0  0  0  0  0  0  0  0  0  0  0  # atno 8010 bound_to 7997
  139.9908  143.5643  152.2342 H   0  0  0  0  0  0  0  0  0  0  0  0  # atno 10167 bound_to 10162
  157.1981  130.6877  149.6177 H   0  0  0  0  0  0  0  0  0  0  0  0  # atno 10718 bound_to 10713
  154.1321  135.2826  155.3182 H   0  0  0  0  0  0  0  0  0  0  0  0  # atno 10763 bound_to 10752
  154.6348  135.5423  153.7725 H   0  0  0  0  0  0  0  0  0  0  0  0  # atno 10764 bound_to 10752
  153.0278  135.6471  154.1471 H   0  0  0  0  0  0  0  0  0  0  0  0  # atno 10765 bound_to 10752
  139.8959  134.9554  156.6777 H   0  0  0  0  0  0  0  0  0  0  0  0  # atno 11005 bound_to 11000
  145.4419  141.0423  143.2853 LP  0  0  0  0  0  0  0  0  0  0  0  0  # atno 17320 bound_to 7965
  144.8119  139.5947  143.7025 LP  0  0  0  0  0  0  0  0  0  0  0  0  # atno 17321 bound_to 7965
  139.6341  144.7648  151.2474 LP  0  0  0  0  0  0  0  0  0  0  0  0  # atno 17342 bound_to 10162
  140.7455  143.6428  150.8319 LP  0  0  0  0  0  0  0  0  0  0  0  0  # atno 17343 bound_to 10162
  155.9703  130.4592  150.6027 LP  0  0  0  0  0  0  0  0  0  0  0  0  # atno 17370 bound_to 10713
  157.3794  131.0778  151.1490 LP  0  0  0  0  0  0  0  0  0  0  0  0  # atno 17371 bound_to 10713
  140.7324  133.9047  155.8220 LP  0  0  0  0  0  0  0  0  0  0  0  0  # atno 17394 bound_to 11000
  141.0143  134.0978  157.4189 LP  0  0  0  0  0  0  0  0  0  0  0  0  # atno 17395 bound_to 11000

$$$$
