AV-unprocessed.smi:1967|AV-procd|sdf|7954|dock2
  -GOLD-   2272010123D 1   1.00000     0.00000
 Structure written by MMmdl.
 37 38  0  0  0  0  0  0  0  0  1 V2000
  152.5674  139.9437  155.2065 O   0  0  0  0  0  0  0  0  0  0  0  0
  151.4863  139.2434  155.9166 S   0  0  0  0  0  0  0  0  0  0  0  0
  151.4715  137.7757  156.0137 O   0  0  0  0  0  0  0  0  0  0  0  0
  151.3744  139.8801  157.5126 N   0  0  0  0  0  0  0  0  0  0  0  0
  152.4760  140.6993  158.0153 C   0  0  0  0  0  0  0  0  0  0  0  0
  152.2841  141.0214  159.5059 C   0  0  0  0  0  0  0  0  0  0  0  0
  152.1739  142.5103  159.7862 C   0  0  0  0  0  0  0  0  0  0  0  0
  152.2705  143.4511  158.7382 C   0  0  0  0  0  0  0  0  0  0  0  0
  152.1528  144.8192  159.0514 C   0  0  0  0  0  0  0  0  0  0  0  0
  151.9447  145.1920  160.3934 C   0  0  0  0  0  0  0  0  0  0  0  0
  151.8619  144.1760  161.3663 C   0  0  0  0  0  0  0  0  0  0  0  0
  151.9720  142.8615  161.0763 N   0  0  0  0  0  0  0  0  0  0  0  0
  149.9660  139.7835  155.2839 N   0  0  0  0  0  0  0  0  0  0  0  0
  149.7166  141.2415  155.2752 C   0  0  0  0  0  0  0  0  0  0  0  0
  148.2341  141.5634  155.0243 C   0  0  0  0  0  0  0  0  0  0  0  0
  147.7332  140.8996  153.7393 C   0  0  0  0  0  0  0  0  0  0  0  0
  147.9792  139.3912  153.8258 C   0  0  0  0  0  0  0  0  0  0  0  0
  149.4631  139.0818  154.0855 C   0  0  0  0  0  0  0  0  0  0  0  0
  151.0732  139.1732  158.1832 H   0  0  0  0  0  0  0  0  0  0  0  0
  153.4187  140.1756  157.8525 H   0  0  0  0  0  0  0  0  0  0  0  0
  152.5185  141.6238  157.4388 H   0  0  0  0  0  0  0  0  0  0  0  0
  151.3799  140.5310  159.8691 H   0  0  0  0  0  0  0  0  0  0  0  0
  153.1071  140.6018  160.0860 H   0  0  0  0  0  0  0  0  0  0  0  0
  152.4273  143.1330  157.7178 H   0  0  0  0  0  0  0  0  0  0  0  0
  152.2201  145.5686  158.2766 H   0  0  0  0  0  0  0  0  0  0  0  0
  151.8507  146.2313  160.6715 H   0  0  0  0  0  0  0  0  0  0  0  0
  151.7031  144.4258  162.4048 H   0  0  0  0  0  0  0  0  0  0  0  0
  150.0236  141.6790  156.2245 H   0  0  0  0  0  0  0  0  0  0  0  0
  150.3372  141.7002  154.5043 H   0  0  0  0  0  0  0  0  0  0  0  0
  147.6372  141.2224  155.8713 H   0  0  0  0  0  0  0  0  0  0  0  0
  148.0951  142.6432  154.9631 H   0  0  0  0  0  0  0  0  0  0  0  0
  146.6716  141.1031  153.5967 H   0  0  0  0  0  0  0  0  0  0  0  0
  148.2542  141.3153  152.8758 H   0  0  0  0  0  0  0  0  0  0  0  0
  147.3725  138.9658  154.6265 H   0  0  0  0  0  0  0  0  0  0  0  0
  147.6557  138.9080  152.9034 H   0  0  0  0  0  0  0  0  0  0  0  0
  150.0683  139.3725  153.2257 H   0  0  0  0  0  0  0  0  0  0  0  0
  149.5890  138.0064  154.2106 H   0  0  0  0  0  0  0  0  0  0  0  0
  1  2  2  0  0  0  0
  2  3  2  0  0  0  0
  2  4  1  0  0  0  0
  2 13  1  0  0  0  0
  4  5  1  0  0  0  0
  4 19  1  0  0  0  0
  5  6  1  0  0  0  0
  5 20  1  0  0  0  0
  5 21  1  0  0  0  0
  6  7  1  0  0  0  0
  6 22  1  0  0  0  0
  6 23  1  0  0  0  0
  7 12  1  0  0  0  0
  7  8  2  0  0  0  0
  8  9  1  0  0  0  0
  8 24  1  0  0  0  0
  9 10  2  0  0  0  0
  9 25  1  0  0  0  0
 10 11  1  0  0  0  0
 10 26  1  0  0  0  0
 11 12  2  0  0  0  0
 11 27  1  0  0  0  0
 13 18  1  0  0  0  0
 13 14  1  0  0  0  0
 14 15  1  0  0  0  0
 14 28  1  0  0  0  0
 14 29  1  0  0  0  0
 15 16  1  0  0  0  0
 15 30  1  0  0  0  0
 15 31  1  0  0  0  0
 16 17  1  0  0  0  0
 16 32  1  0  0  0  0
 16 33  1  0  0  0  0
 17 18  1  0  0  0  0
 17 34  1  0  0  0  0
 17 35  1  0  0  0  0
 18 36  1  0  0  0  0
 18 37  1  0  0  0  0
M  END
> <s_m_source_file>
AV-unprocessed.smi

> <i_m_source_file_index>
1967

> <i_lp_mmshare_version>
43012

> <i_f3d_flags>
0

> <s_epik_input>
W0NIMl0xW0NIMl1bQ0gyXVtDSDJdW0NIMl1OMVMoPU8pKD1PKVtOSF1bQ0gyXVtDSDJdYzJbY0hdW2NIXVtjSF1bY0hdbjI=

> <s_epik_cmdline>
J2VwaWtfcHl0aG9uJywgJy1waCcsICc3LjAnLCAnLXRuJywgJzgnLCAnLW1hJywgJzIwMCcsICctbWV0YWxfYmluZGluZycsICctaW1hZScsICc8aW5maWxlLm1hZT4nLCAnLW9tYWUnLCAnPG91dGZpbGUubWFlPic=

> <r_epik_Ionization_Penalty>
0.0252758

> <r_epik_Ionization_Penalty_Charging>
0

> <r_epik_Ionization_Penalty_Neutral>
0.0252758

> <r_epik_State_Penalty>
0.0138562

> <r_epik_Charging_Adjusted_Penalty>
0.0138562

> <i_epik_Tot_Q>
0

> <i_epik_Tot_abs_Q>
0

> <r_epik_Metal_State_Penalty>
0.204365

> <b_epik_Metal_Only>
0

> <s_lp_Force_Field>
OPLS_2005

> <r_lp_Energy>
9.86341

> <b_lp_Chiralities_Consistent>
1

> <s_lp_Variant>
AV-unprocessed.smi:1967-1

> <Gold.Version>
5.8.1

> <Gold.Id.Protein>
6NUR|6NUR_protein|mol2

> <Gold.PLP.Fitness>
43.6667

> <Gold.PLP.PLP>
-40.3871

> <Gold.PLP.part.hbond>
-2.4050

> <Gold.PLP.part.metal>
0.0000

> <Gold.PLP.part.buried>
-2.2108

> <Gold.PLP.part.nonpolar>
-35.4932

> <Gold.PLP.part.repulsive>
0.1414

> <Gold.PLP.ligand.clash>
0.0000

> <Gold.PLP.ligand.torsion>
0.9404

> <Gold.PLP.Chemscore.Hbond>
1.4425

> <Gold.PLP.Chemscore.CHOScore>
0.0000

> <Gold.PLP.Chemscore.Metal>
0.0000

> <Gold.Chemscore.Hbonds>
donor molecule, donor type, donor heavy atom, donor atom, acceptor molecule, acceptor atom, score
      P1  H  7989  7998       L1     1  0.43
      P1  H  7997  8010       L1     1  1.00

> <Gold.PLP.Chemscore.Internal.Correction>
0.8329

> <Gold.Rescore>
     Score         DG    S(hbond)    S(metal)    S(lipo)     H(rot)  DE(clash)    DE(int)     intcor
     16.93     -17.87       1.24        0.00     107.53       1.69       0.10       0.84       ----

> <Gold.Chemscore.Fitness>
16.9301

> <Gold.Chemscore.DG>
-17.8726

> <Gold.Chemscore.ZeroCoef>
-5.4800

> <Gold.Chemscore.Hbond>
1.2383

> <Gold.Chemscore.Metal>
0.0000

> <Gold.Chemscore.Lipo>
107.5267

> <Gold.Chemscore.Internal_Hbond>
0.0000

> <Gold.Chemscore.DEClash>
0.1021

> <Gold.Chemscore.DEInternal>
0.8404

> <Gold.Chemscore.Rot>
1.6891

> <Gold.Chemscore.Internal.Correction>
   9.000000E+99

> <Gold.Chemscore.Hbonds>
donor molecule, donor type, donor heavy atom, donor atom, acceptor molecule, acceptor atom, score
      P1  H  7989  7998       L1     1  0.26
      P1  H  7997  8010       L1     1  0.95

> <Gold.Chemscore.Hbond.Weighted>
-4.1361

> <Gold.Chemscore.Metal.Weighted>
-0.0000

> <Gold.Chemscore.Lipo.Weighted>
-12.5806

> <Gold.Chemscore.Internal_Hbond.Weighted>
0.0000

> <Gold.Chemscore.DEClash.Weighted>
0.1021

> <Gold.Chemscore.DEInternal.Weighted>
0.8404

> <Gold.Chemscore.Rot.Weighted>
4.3241

> <Gold.Chemscore.Internal.Correction.Weighted>
   9.000000E+99

> <Gold.Protein.RotatedTorsions>
[ 6907 6896 6895 6894 ] final  -52.28 input  -60.11 | X-H torsion
[ 7974 7965 7964 7962 ] final  -30.68 input  175.53 | X-H torsion
[ 8008 7997 7996 7995 ] final   97.52 input   59.86 | X-H torsion
[ 10167 10162 10161 10158 ] final  112.50 input  -65.29 | X-H torsion
[ 10718 10713 10712 10709 ] final  -93.24 input   66.30 | X-H torsion
[ 10763 10752 10751 10750 ] final -165.81 input  -60.55 | X-H torsion
[ 11005 11000 10999 10996 ] final    1.40 input  -57.11 | X-H torsion

> <Gold.Protein.ActiveResidues>
 VAL166  LYS551  ARG553  GLY616  TRP617  ASP618  TYR619  PRO620  LYS621  CYS622 
 ASP623  PHE694  ASN695  SER759  ASP760  ASP761  ALA762  ILE779  LEU786  VAL792 
 PHE793  MET794  SER795  GLU796  ALA797  LYS798  CYS799  TRP800  GLU811  SER814 

> <Gold.Protein.RotatedAtoms>
  150.8532  134.7863  159.7024 H   0  0  0  0  0  0  0  0  0  0  0  0  # atno 6907 bound_to 6896
  152.4591  134.5222  159.9795 H   0  0  0  0  0  0  0  0  0  0  0  0  # atno 6908 bound_to 6896
  151.5339  133.3406  159.2959 H   0  0  0  0  0  0  0  0  0  0  0  0  # atno 6909 bound_to 6896
  146.1124  140.5571  142.8772 H   0  0  0  0  0  0  0  0  0  0  0  0  # atno 7974 bound_to 7965
  156.0909  140.3257  155.7815 H   0  0  0  0  0  0  0  0  0  0  0  0  # atno 8008 bound_to 7997
  155.4997  140.0568  157.2958 H   0  0  0  0  0  0  0  0  0  0  0  0  # atno 8009 bound_to 7997
  154.4637  140.1979  156.0191 H   0  0  0  0  0  0  0  0  0  0  0  0  # atno 8010 bound_to 7997
  139.6531  144.7128  151.2010 H   0  0  0  0  0  0  0  0  0  0  0  0  # atno 10167 bound_to 10162
  156.0011  130.5019  150.5747 H   0  0  0  0  0  0  0  0  0  0  0  0  # atno 10718 bound_to 10713
  154.6895  135.2968  154.9500 H   0  0  0  0  0  0  0  0  0  0  0  0  # atno 10763 bound_to 10752
  154.0468  135.6650  153.4800 H   0  0  0  0  0  0  0  0  0  0  0  0  # atno 10764 bound_to 10752
  153.0602  135.5120  154.7980 H   0  0  0  0  0  0  0  0  0  0  0  0  # atno 10765 bound_to 10752
  140.6159  133.9706  155.8200 H   0  0  0  0  0  0  0  0  0  0  0  0  # atno 11005 bound_to 11000
  144.7523  140.5223  143.6793 LP  0  0  0  0  0  0  0  0  0  0  0  0  # atno 17320 bound_to 7965
  145.5635  139.1480  143.3328 LP  0  0  0  0  0  0  0  0  0  0  0  0  # atno 17321 bound_to 7965
  140.7547  143.6117  150.8599 LP  0  0  0  0  0  0  0  0  0  0  0  0  # atno 17342 bound_to 10162
  139.9767  143.5996  152.2956 LP  0  0  0  0  0  0  0  0  0  0  0  0  # atno 17343 bound_to 10162
  157.3636  131.0754  151.1616 LP  0  0  0  0  0  0  0  0  0  0  0  0  # atno 17370 bound_to 10713
  157.2393  130.6561  149.5883 LP  0  0  0  0  0  0  0  0  0  0  0  0  # atno 17371 bound_to 10713
  141.0776  134.0111  157.3434 LP  0  0  0  0  0  0  0  0  0  0  0  0  # atno 17394 bound_to 11000
  139.9173  135.0198  156.7931 LP  0  0  0  0  0  0  0  0  0  0  0  0  # atno 17395 bound_to 11000

$$$$
