AV-unprocessed.smi:2021|AV-procd|sdf|8181|dock3
  -GOLD-   2272010433D 1   1.00000     0.00000
 Structure written by MMmdl.
 41 42  0  0  0  0  0  0  0  0  3 V2000
  147.8065  127.6996  150.8518 C   0  0  0  0  0  0  0  0  0  0  0  0
  147.3854  128.4250  152.1386 C   0  0  0  0  0  0  0  0  0  0  0  0
  146.6066  127.4730  153.0615 C   0  0  0  0  0  0  0  0  0  0  0  0
  146.5724  129.6944  151.8040 C   0  0  0  0  0  0  0  0  0  0  0  0
  147.3092  130.9538  152.0830 N   0  3  1  0  0  0  0  0  0  0  0  0
  146.5152  132.1785  151.8149 C   0  0  0  0  0  0  0  0  0  0  0  0
  147.3519  133.4346  152.1038 C   0  0  0  0  0  0  0  0  0  0  0  0
  147.8164  133.3901  153.4449 O   0  0  0  0  0  0  0  0  0  0  0  0
  148.6744  132.2797  153.6863 C   0  0  1  0  0  0  0  0  0  0  0  0
  149.2166  132.3690  155.1237 C   0  0  0  0  0  0  0  0  0  0  0  0
  150.0655  133.5420  155.3042 N   0  0  0  0  0  0  0  0  0  0  0  0
  150.6440  133.9275  156.4503 C   0  0  0  0  0  0  0  0  0  0  0  0
  150.5028  133.2504  157.4711 O   0  0  0  0  0  0  0  0  0  0  0  0
  151.3464  135.0771  156.3421 N   0  5  0  0  0  0  0  0  0  0  0  0
  150.7460  136.1902  155.8889 C   0  0  0  0  0  0  0  0  0  0  0  0
  149.4108  136.3327  155.8787 N   0  0  0  0  0  0  0  0  0  0  0  0
  148.9964  137.5553  155.3678 N   0  0  0  0  0  0  0  0  0  0  0  0
  150.0349  138.3036  154.9961 C   0  0  0  0  0  0  0  0  0  0  0  0
  151.6126  137.5828  155.2349 S   0  0  0  0  0  0  0  0  0  0  0  0
  147.8651  130.9883  153.4572 C   0  0  0  0  0  0  0  0  0  0  0  0
  146.9392  127.3737  150.2766 H   0  0  0  0  0  0  0  0  0  0  0  0
  148.4071  126.8174  151.0758 H   0  0  0  0  0  0  0  0  0  0  0  0
  148.4054  128.3487  150.2121 H   0  0  0  0  0  0  0  0  0  0  0  0
  148.3046  128.7106  152.6490 H   0  0  0  0  0  0  0  0  0  0  0  0
  145.6709  127.1522  152.6022 H   0  0  0  0  0  0  0  0  0  0  0  0
  146.3657  127.9467  154.0134 H   0  0  0  0  0  0  0  0  0  0  0  0
  147.1899  126.5790  153.2838 H   0  0  0  0  0  0  0  0  0  0  0  0
  146.2620  129.6880  150.7579 H   0  0  0  0  0  0  0  0  0  0  0  0
  145.6532  129.6752  152.3920 H   0  0  0  0  0  0  0  0  0  0  0  0
  146.1828  132.2023  150.7781 H   0  0  0  0  0  0  0  0  0  0  0  0
  145.6204  132.1789  152.4391 H   0  0  0  0  0  0  0  0  0  0  0  0
  148.1937  133.5134  151.4139 H   0  0  0  0  0  0  0  0  0  0  0  0
  146.7452  134.3304  151.9702 H   0  0  0  0  0  0  0  0  0  0  0  0
  149.5146  132.3089  152.9896 H   0  0  0  0  0  0  0  0  0  0  0  0
  148.4012  132.3594  155.8491 H   0  0  0  0  0  0  0  0  0  0  0  0
  149.8289  131.4930  155.3394 H   0  0  0  0  0  0  0  0  0  0  0  0
  150.2183  134.1244  154.4939 H   0  0  0  0  0  0  0  0  0  0  0  0
  149.8708  139.2847  154.5764 H   0  0  0  0  0  0  0  0  0  0  0  0
  147.0517  130.9183  154.1816 H   0  0  0  0  0  0  0  0  0  0  0  0
  148.5091  130.1216  153.6123 H   0  0  0  0  0  0  0  0  0  0  0  0
  148.1026  130.9707  151.4580 H   0  0  0  0  0  0  0  0  0  0  0  0
  1  2  1  0  0  0  0
  1 21  1  0  0  0  0
  1 22  1  0  0  0  0
  1 23  1  0  0  0  0
  2  3  1  0  0  0  0
  2  4  1  0  0  0  0
  2 24  1  0  0  0  0
  3 25  1  0  0  0  0
  3 26  1  0  0  0  0
  3 27  1  0  0  0  0
  4  5  1  0  0  0  0
  4 28  1  0  0  0  0
  4 29  1  0  0  0  0
  5 20  1  0  0  0  0
  5  6  1  0  0  0  0
  5 41  1  0  0  0  0
  6  7  1  0  0  0  0
  6 30  1  0  0  0  0
  6 31  1  0  0  0  0
  7  8  1  0  0  0  0
  7 32  1  0  0  0  0
  7 33  1  0  0  0  0
  8  9  1  0  0  0  0
  9 10  1  0  0  0  0
  9 20  1  0  0  0  0
  9 34  1  0  0  0  0
 10 11  1  0  0  0  0
 10 35  1  0  0  0  0
 10 36  1  0  0  0  0
 11 12  1  0  0  0  0
 11 37  1  0  0  0  0
 12 13  2  0  0  0  0
 12 14  1  0  0  0  0
 14 15  1  0  0  0  0
 15 19  1  0  0  0  0
 15 16  2  0  0  0  0
 16 17  1  0  0  0  0
 17 18  2  0  0  0  0
 18 19  1  0  0  0  0
 18 38  1  0  0  0  0
 20 39  1  0  0  0  0
 20 40  1  0  0  0  0
M  CHG  1   5   1
M  CHG  1  14  -1
M  END
> <s_m_source_file>
AV-unprocessed.smi

> <i_m_source_file_index>
2021

> <i_lp_mmshare_version>
43012

> <i_f3d_flags>
0

> <s_epik_input>
W0NIM11bQ0hdKFtDSDNdKVtDSDJdTjFbQ0gyXVtDSDJdT1tDQEhdKFtDSDJdMSlbQ0gyXVtOSF1DKD1PKVtOSF1jMm5uW2NIXXMy

> <s_epik_cmdline>
J2VwaWtfcHl0aG9uJywgJy1waCcsICc3LjAnLCAnLXRuJywgJzgnLCAnLW1hJywgJzIwMCcsICctbWV0YWxfYmluZGluZycsICctaW1hZScsICc8aW5maWxlLm1hZT4nLCAnLW9tYWUnLCAnPG91dGZpbGUubWFlPic=

> <r_lp_tautomer_probability>
1

> <r_epik_Ionization_Penalty>
3.15762

> <r_epik_Ionization_Penalty_Charging>
3.12229

> <r_epik_Ionization_Penalty_Neutral>
0.0353298

> <r_epik_State_Penalty>
3.11266

> <r_epik_Charging_Adjusted_Penalty>
6.23495

> <i_epik_Tot_Q>
0

> <i_epik_Tot_abs_Q>
2

> <r_epik_Metal_State_Penalty>
0.541462

> <b_epik_Metal_Only>
1

> <s_lp_Force_Field>
OPLS_2005

> <r_lp_Energy>
10.0285

> <b_lp_Chiralities_Consistent>
1

> <s_lp_Variant>
AV-unprocessed.smi:2021-7

> <Gold.Version>
5.8.1

> <Gold.Id.Protein>
6NUR|6NUR_protein|mol2

> <Gold.PLP.Fitness>
46.1356

> <Gold.PLP.PLP>
-34.6310

> <Gold.PLP.part.hbond>
-3.0000

> <Gold.PLP.part.metal>
0.0000

> <Gold.PLP.part.buried>
-4.9596

> <Gold.PLP.part.nonpolar>
-28.0819

> <Gold.PLP.part.repulsive>
0.5635

> <Gold.PLP.ligand.clash>
0.0000

> <Gold.PLP.ligand.torsion>
1.3407

> <Gold.PLP.Chemscore.Hbond>
3.6817

> <Gold.PLP.Chemscore.CHOScore>
1.0000

> <Gold.PLP.Chemscore.Metal>
0.0000

> <Gold.Chemscore.Hbonds>
donor molecule, donor type, donor heavy atom, donor atom, acceptor molecule, acceptor atom, score
      L1  H     5    41       P1 10747  0.84
      P1  H  6896  6908       L1    13  0.98
      P1  H 10752 10764       L1    14  0.31

> <Gold.PLP.Chemscore.Internal.Correction>
0.1409

> <Gold.Rescore>
     Score         DG    S(hbond)    S(metal)    S(lipo)     H(rot)  DE(clash)    DE(int)     intcor
     14.45     -16.36       1.87        0.00      79.96       1.85       0.31       1.61       ----

> <Gold.Chemscore.Fitness>
14.4452

> <Gold.Chemscore.DG>
-16.3636

> <Gold.Chemscore.ZeroCoef>
-5.4800

> <Gold.Chemscore.Hbond>
1.8731

> <Gold.Chemscore.Metal>
0.0000

> <Gold.Chemscore.Lipo>
79.9550

> <Gold.Chemscore.Internal_Hbond>
0.0000

> <Gold.Chemscore.DEClash>
0.3095

> <Gold.Chemscore.DEInternal>
1.6090

> <Gold.Chemscore.Rot>
1.8466

> <Gold.Chemscore.Internal.Correction>
   9.000000E+99

> <Gold.Chemscore.Hbonds>
donor molecule, donor type, donor heavy atom, donor atom, acceptor molecule, acceptor atom, score
      L1  H     5    41       P1 10747  0.82
      P1  H  6896  6908       L1    13  0.93

> <Gold.Chemscore.Hbond.Weighted>
-6.2560

> <Gold.Chemscore.Metal.Weighted>
-0.0000

> <Gold.Chemscore.Lipo.Weighted>
-9.3547

> <Gold.Chemscore.Internal_Hbond.Weighted>
0.0000

> <Gold.Chemscore.DEClash.Weighted>
0.3095

> <Gold.Chemscore.DEInternal.Weighted>
1.6090

> <Gold.Chemscore.Rot.Weighted>
4.7272

> <Gold.Chemscore.Internal.Correction.Weighted>
   9.000000E+99

> <Gold.Protein.RotatedTorsions>
[ 6907 6896 6895 6894 ] final  113.48 input  -60.11 | X-H torsion
[ 7974 7965 7964 7962 ] final -115.44 input  175.53 | X-H torsion
[ 8008 7997 7996 7995 ] final -135.51 input   59.86 | X-H torsion
[ 10167 10162 10161 10158 ] final   72.75 input  -65.29 | X-H torsion
[ 10718 10713 10712 10709 ] final  135.97 input   66.30 | X-H torsion
[ 10763 10752 10751 10750 ] final  -43.85 input  -60.55 | X-H torsion
[ 11005 11000 10999 10996 ] final  151.03 input  -57.11 | X-H torsion

> <Gold.Protein.ActiveResidues>
 VAL166  LYS551  ARG553  GLY616  TRP617  ASP618  TYR619  PRO620  LYS621  CYS622 
 ASP623  PHE694  ASN695  SER759  ASP760  ASP761  ALA762  ILE779  LEU786  VAL792 
 PHE793  MET794  SER795  GLU796  ALA797  LYS798  CYS799  TRP800  GLU811  SER814 

> <Gold.Protein.RotatedAtoms>
  152.4858  133.8370  159.7132 H   0  0  0  0  0  0  0  0  0  0  0  0  # atno 6907 bound_to 6896
  150.8944  133.7191  159.2902 H   0  0  0  0  0  0  0  0  0  0  0  0  # atno 6908 bound_to 6896
  151.4653  135.1045  159.9788 H   0  0  0  0  0  0  0  0  0  0  0  0  # atno 6909 bound_to 6896
  145.1083  140.8596  143.3885 H   0  0  0  0  0  0  0  0  0  0  0  0  # atno 7974 bound_to 7965
  155.3798  140.0493  157.3044 H   0  0  0  0  0  0  0  0  0  0  0  0  # atno 8008 bound_to 7997
  154.5088  140.2184  155.9160 H   0  0  0  0  0  0  0  0  0  0  0  0  # atno 8009 bound_to 7997
  156.1558  140.3126  155.8729 H   0  0  0  0  0  0  0  0  0  0  0  0  # atno 8010 bound_to 7997
  140.0319  144.5459  150.7500 H   0  0  0  0  0  0  0  0  0  0  0  0  # atno 10167 bound_to 10162
  157.4515  131.1066  151.0028 H   0  0  0  0  0  0  0  0  0  0  0  0  # atno 10718 bound_to 10713
  154.0024  135.6692  153.4760 H   0  0  0  0  0  0  0  0  0  0  0  0  # atno 10763 bound_to 10752
  153.0657  135.5002  154.8190 H   0  0  0  0  0  0  0  0  0  0  0  0  # atno 10764 bound_to 10752
  154.7045  135.3085  154.9254 H   0  0  0  0  0  0  0  0  0  0  0  0  # atno 10765 bound_to 10752
  140.1183  134.8880  157.2036 H   0  0  0  0  0  0  0  0  0  0  0  0  # atno 11005 bound_to 11000
  145.0876  139.2914  143.5751 LP  0  0  0  0  0  0  0  0  0  0  0  0  # atno 17320 bound_to 7965
  146.3527  140.0402  142.8643 LP  0  0  0  0  0  0  0  0  0  0  0  0  # atno 17321 bound_to 7965
  140.7298  143.2677  151.3991 LP  0  0  0  0  0  0  0  0  0  0  0  0  # atno 17342 bound_to 10162
  139.6070  144.1176  152.2260 LP  0  0  0  0  0  0  0  0  0  0  0  0  # atno 17343 bound_to 10162
  157.0856  130.5921  149.5429 LP  0  0  0  0  0  0  0  0  0  0  0  0  # atno 17370 bound_to 10713
  155.9989  130.5064  150.7588 LP  0  0  0  0  0  0  0  0  0  0  0  0  # atno 17371 bound_to 10713
  140.2998  134.3144  155.7293 LP  0  0  0  0  0  0  0  0  0  0  0  0  # atno 17394 bound_to 11000
  141.2146  133.7585  156.9625 LP  0  0  0  0  0  0  0  0  0  0  0  0  # atno 17395 bound_to 11000

$$$$
