AV-unprocessed.smi:2881|AV-procd|sdf|11067|dock3
  -GOLD-   2272015543D 1   1.00000     0.00000
 Structure written by MMmdl.
 40 42  0  0  0  0  0  0  0  0  1 V2000
  151.4725  130.9356  157.4662 C   0  0  0  0  0  0  0  0  0  0  0  0
  150.8658  132.0035  156.6048 C   0  0  0  0  0  0  0  0  0  0  0  0
  150.4628  131.9103  155.2404 C   0  0  0  0  0  0  0  0  0  0  0  0
  149.9807  133.1545  154.9438 C   0  0  0  0  0  0  0  0  0  0  0  0
  149.4028  133.7128  153.6837 C   0  0  0  0  0  0  0  0  0  0  0  0
  148.0417  133.0864  153.3813 C   0  0  0  0  0  0  0  0  0  0  0  0
  147.7449  131.9955  153.8672 O   0  0  0  0  0  0  0  0  0  0  0  0
  147.2230  133.7906  152.5840 N   0  0  0  0  0  0  0  0  0  0  0  0
  145.8840  133.3765  152.1620 C   0  0  2  0  0  0  0  0  0  0  0  0
  145.9669  132.0800  151.3279 C   0  0  1  0  0  0  0  0  0  0  0  0
  144.5620  131.4591  151.2202 C   0  0  0  0  0  0  0  0  0  0  0  0
  143.8423  132.4260  150.2607 C   0  0  0  0  0  0  0  0  0  0  0  0
  144.9299  133.4733  149.9485 C   0  0  2  0  0  0  0  0  0  0  0  0
  146.1821  132.6064  149.9140 C   0  0  0  0  0  0  0  0  0  0  0  0
  145.1597  134.3628  151.1954 C   0  0  2  0  0  0  0  0  0  0  0  0
  145.9042  135.6798  150.8784 C   0  0  0  0  0  0  0  0  0  0  0  0
  145.2166  136.4075  149.8825 O   0  0  0  0  0  0  0  0  0  0  0  0
  150.1105  133.8992  156.0949 N   0  0  0  0  0  0  0  0  0  0  0  0
  150.6509  133.2071  157.1148 N   0  0  0  0  0  0  0  0  0  0  0  0
  149.8398  134.8669  156.1972 H   0  0  0  0  0  0  0  0  0  0  0  0
  151.5594  129.9941  156.9233 H   0  0  0  0  0  0  0  0  0  0  0  0
  150.8644  130.7520  158.3522 H   0  0  0  0  0  0  0  0  0  0  0  0
  152.4711  131.2196  157.7989 H   0  0  0  0  0  0  0  0  0  0  0  0
  150.5201  131.0584  154.5789 H   0  0  0  0  0  0  0  0  0  0  0  0
  150.0847  133.5491  152.8478 H   0  0  0  0  0  0  0  0  0  0  0  0
  149.2825  134.7926  153.7771 H   0  0  0  0  0  0  0  0  0  0  0  0
  147.5520  134.6790  152.2353 H   0  0  0  0  0  0  0  0  0  0  0  0
  145.2732  133.1988  153.0494 H   0  0  0  0  0  0  0  0  0  0  0  0
  146.7214  131.3739  151.6776 H   0  0  0  0  0  0  0  0  0  0  0  0
  144.6109  130.4581  150.7897 H   0  0  0  0  0  0  0  0  0  0  0  0
  144.0635  131.3820  152.1871 H   0  0  0  0  0  0  0  0  0  0  0  0
  143.5354  131.9047  149.3531 H   0  0  0  0  0  0  0  0  0  0  0  0
  142.9510  132.8700  150.7056 H   0  0  0  0  0  0  0  0  0  0  0  0
  144.7345  134.0298  149.0316 H   0  0  0  0  0  0  0  0  0  0  0  0
  147.1055  133.1749  149.7967 H   0  0  0  0  0  0  0  0  0  0  0  0
  146.1470  131.8259  149.1518 H   0  0  0  0  0  0  0  0  0  0  0  0
  144.1964  134.6342  151.6306 H   0  0  0  0  0  0  0  0  0  0  0  0
  145.9610  136.3097  151.7664 H   0  0  0  0  0  0  0  0  0  0  0  0
  146.9250  135.4936  150.5443 H   0  0  0  0  0  0  0  0  0  0  0  0
  145.4308  136.0402  149.0386 H   0  0  0  0  0  0  0  0  0  0  0  0
  1 21  1  0  0  0  0
  1 22  1  0  0  0  0
  1 23  1  0  0  0  0
  1  2  1  0  0  0  0
  2 19  2  0  0  0  0
  2  3  1  0  0  0  0
  3  4  2  0  0  0  0
  3 24  1  0  0  0  0
  4 18  1  0  0  0  0
  4  5  1  0  0  0  0
  5  6  1  0  0  0  0
  5 25  1  0  0  0  0
  5 26  1  0  0  0  0
  6  7  2  0  0  0  0
  6  8  1  0  0  0  0
  8  9  1  0  0  0  0
  8 27  1  0  0  0  0
  9 15  1  0  0  0  0
  9 10  1  0  0  0  0
  9 28  1  0  0  0  0
 10 14  1  0  0  0  0
 10 11  1  0  0  0  0
 10 29  1  0  0  0  0
 11 12  1  0  0  0  0
 11 30  1  0  0  0  0
 11 31  1  0  0  0  0
 12 13  1  0  0  0  0
 12 32  1  0  0  0  0
 12 33  1  0  0  0  0
 13 14  1  0  0  0  0
 13 15  1  0  0  0  0
 13 34  1  0  0  0  0
 14 35  1  0  0  0  0
 14 36  1  0  0  0  0
 15 16  1  0  0  0  0
 15 37  1  0  0  0  0
 16 17  1  0  0  0  0
 16 38  1  0  0  0  0
 16 39  1  0  0  0  0
 17 40  1  0  0  0  0
 18 19  1  0  0  0  0
 18 20  1  0  0  0  0
M  END
> <s_m_source_file>
AV-unprocessed.smi

> <i_m_source_file_index>
2881

> <i_lp_mmshare_version>
43012

> <i_f3d_flags>
0

> <s_epik_input>
W0NIM11jMVtjSF1jKG5bbkhdMSlbQ0gyXUMoPU8pW05IXVtDQEhdKFtDQEBIXTIzKVtDQEhdKFtDSDJdW09IXSlbQ0BASF0oW0NIMl0zKVtDSDJdW0NIMl0y

> <s_epik_cmdline>
J2VwaWtfcHl0aG9uJywgJy1waCcsICc3LjAnLCAnLXRuJywgJzgnLCAnLW1hJywgJzIwMCcsICctbWV0YWxfYmluZGluZycsICctaW1hZScsICc8aW5maWxlLm1hZT4nLCAnLW9tYWUnLCAnPG91dGZpbGUubWFlPic=

> <r_lp_tautomer_probability>
0.5

> <r_epik_Ionization_Penalty>
0.00013396

> <r_epik_Ionization_Penalty_Charging>
0

> <r_epik_Ionization_Penalty_Neutral>
0.00013396

> <r_epik_State_Penalty>
0.41068

> <r_epik_Charging_Adjusted_Penalty>
0.41068

> <i_epik_Tot_Q>
0

> <i_epik_Tot_abs_Q>
0

> <r_epik_Metal_State_Penalty>
0.41066

> <b_epik_Metal_Only>
0

> <s_lp_Force_Field>
OPLS_2005

> <r_lp_Energy>
49.1739

> <b_lp_Chiralities_Consistent>
1

> <s_lp_Variant>
AV-unprocessed.smi:2881-13

> <Gold.Version>
5.8.1

> <Gold.Id.Protein>
6NUR|6NUR_protein|mol2

> <Gold.PLP.Fitness>
42.3311

> <Gold.PLP.PLP>
-34.7511

> <Gold.PLP.part.hbond>
-3.8952

> <Gold.PLP.part.metal>
0.0000

> <Gold.PLP.part.buried>
-1.7844

> <Gold.PLP.part.nonpolar>
-27.7668

> <Gold.PLP.part.repulsive>
0.1343

> <Gold.PLP.ligand.clash>
0.0000

> <Gold.PLP.ligand.torsion>
0.4163

> <Gold.PLP.Chemscore.Hbond>
2.7963

> <Gold.PLP.Chemscore.CHOScore>
0.0000

> <Gold.PLP.Chemscore.Metal>
0.0000

> <Gold.Chemscore.Hbonds>
donor molecule, donor type, donor heavy atom, donor atom, acceptor molecule, acceptor atom, score
      L1  H     8    27       P1  7948  0.88
      L1  H    17    40       P1  7921  1.00
      P1  H  6896  6907       L1    19  0.69

> <Gold.PLP.Chemscore.Internal.Correction>
0.0240

> <Gold.Rescore>
     Score         DG    S(hbond)    S(metal)    S(lipo)     H(rot)  DE(clash)    DE(int)     intcor
     16.73     -17.64       2.37        0.00      86.04       2.28       0.34       0.58       ----

> <Gold.Chemscore.Fitness>
16.7290

> <Gold.Chemscore.DG>
-17.6449

> <Gold.Chemscore.ZeroCoef>
-5.4800

> <Gold.Chemscore.Hbond>
2.3723

> <Gold.Chemscore.Metal>
0.0000

> <Gold.Chemscore.Lipo>
86.0381

> <Gold.Chemscore.Internal_Hbond>
0.0000

> <Gold.Chemscore.DEClash>
0.3363

> <Gold.Chemscore.DEInternal>
0.5796

> <Gold.Chemscore.Rot>
2.2755

> <Gold.Chemscore.Internal.Correction>
   9.000000E+99

> <Gold.Chemscore.Hbonds>
donor molecule, donor type, donor heavy atom, donor atom, acceptor molecule, acceptor atom, score
      L1  H     8    27       P1  7948  0.66
      L1  H    17    40       P1  7921  0.98
      P1  H  6896  6907       L1    19  0.64

> <Gold.Chemscore.Hbond.Weighted>
-7.9236

> <Gold.Chemscore.Metal.Weighted>
-0.0000

> <Gold.Chemscore.Lipo.Weighted>
-10.0665

> <Gold.Chemscore.Internal_Hbond.Weighted>
0.0000

> <Gold.Chemscore.DEClash.Weighted>
0.3363

> <Gold.Chemscore.DEInternal.Weighted>
0.5796

> <Gold.Chemscore.Rot.Weighted>
5.8252

> <Gold.Chemscore.Internal.Correction.Weighted>
   9.000000E+99

> <Gold.Protein.RotatedTorsions>
[ 6907 6896 6895 6894 ] final -138.82 input  -60.11 | X-H torsion
[ 7974 7965 7964 7962 ] final   90.94 input  175.53 | X-H torsion
[ 8008 7997 7996 7995 ] final  -54.13 input   59.86 | X-H torsion
[ 10167 10162 10161 10158 ] final   80.30 input  -65.29 | X-H torsion
[ 10718 10713 10712 10709 ] final  131.98 input   66.30 | X-H torsion
[ 10763 10752 10751 10750 ] final  128.65 input  -60.55 | X-H torsion
[ 11005 11000 10999 10996 ] final -139.03 input  -57.11 | X-H torsion

> <Gold.Protein.ActiveResidues>
 VAL166  LYS551  ARG553  GLY616  TRP617  ASP618  TYR619  PRO620  LYS621  CYS622 
 ASP623  PHE694  ASN695  SER759  ASP760  ASP761  ALA762  ILE779  LEU786  VAL792 
 PHE793  MET794  SER795  GLU796  ALA797  LYS798  CYS799  TRP800  GLU811  SER814 

> <Gold.Protein.RotatedAtoms>
  151.0399  133.5716  159.2651 H   0  0  0  0  0  0  0  0  0  0  0  0  # atno 6907 bound_to 6896
  151.2766  135.0700  159.9163 H   0  0  0  0  0  0  0  0  0  0  0  0  # atno 6908 bound_to 6896
  152.5362  134.0120  159.7997 H   0  0  0  0  0  0  0  0  0  0  0  0  # atno 6909 bound_to 6896
  145.5123  139.2277  143.2717 H   0  0  0  0  0  0  0  0  0  0  0  0  # atno 7974 bound_to 7965
  154.4153  140.1183  156.5266 H   0  0  0  0  0  0  0  0  0  0  0  0  # atno 8008 bound_to 7997
  155.6648  140.3496  155.4777 H   0  0  0  0  0  0  0  0  0  0  0  0  # atno 8009 bound_to 7997
  155.9682  140.1136  157.0825 H   0  0  0  0  0  0  0  0  0  0  0  0  # atno 8010 bound_to 7997
  139.9512  144.6025  150.8159 H   0  0  0  0  0  0  0  0  0  0  0  0  # atno 10167 bound_to 10162
  157.4916  131.1090  150.9549 H   0  0  0  0  0  0  0  0  0  0  0  0  # atno 10718 bound_to 10713
  153.7290  135.3241  155.3282 H   0  0  0  0  0  0  0  0  0  0  0  0  # atno 10763 bound_to 10752
  154.8332  135.4517  154.1141 H   0  0  0  0  0  0  0  0  0  0  0  0  # atno 10764 bound_to 10752
  153.2283  135.6957  153.8000 H   0  0  0  0  0  0  0  0  0  0  0  0  # atno 10765 bound_to 10752
  140.8559  134.2229  157.4735 H   0  0  0  0  0  0  0  0  0  0  0  0  # atno 11005 bound_to 11000
  146.2158  140.5931  142.9039 LP  0  0  0  0  0  0  0  0  0  0  0  0  # atno 17320 bound_to 7965
  144.7720  140.5659  143.6663 LP  0  0  0  0  0  0  0  0  0  0  0  0  # atno 17321 bound_to 7965
  140.7582  143.3102  151.2862 LP  0  0  0  0  0  0  0  0  0  0  0  0  # atno 17342 bound_to 10162
  139.6627  144.0161  152.2703 LP  0  0  0  0  0  0  0  0  0  0  0  0  # atno 17343 bound_to 10162
  157.0249  130.5688  149.5336 LP  0  0  0  0  0  0  0  0  0  0  0  0  # atno 17370 bound_to 10713
  156.0176  130.5271  150.8182 LP  0  0  0  0  0  0  0  0  0  0  0  0  # atno 17371 bound_to 10713
  139.8705  134.9706  156.4707 LP  0  0  0  0  0  0  0  0  0  0  0  0  # atno 17394 bound_to 11000
  140.8738  133.7969  155.9392 LP  0  0  0  0  0  0  0  0  0  0  0  0  # atno 17395 bound_to 11000

$$$$
