AV-unprocessed.smi:1703|AV-procd|sdf|6855|dock4
  -GOLD-   22720 8 33D 1   1.00000     0.00000
 Structure written by MMmdl.
 48 50  0  0  0  0  0  0  0  0  1 V2000
  145.2539  142.8320  156.9660 C   0  0  0  0  0  0  0  0  0  0  0  0
  144.9003  141.9350  155.7673 C   0  0  2  0  0  0  0  0  0  0  0  0
  146.0697  141.0433  155.3046 C   0  0  0  0  0  0  0  0  0  0  0  0
  147.1094  141.7895  154.6035 N   0  0  0  0  0  0  0  0  0  0  0  0
  148.1912  140.8979  154.1829 C   0  0  0  0  0  0  0  0  0  0  0  0
  149.5250  141.0661  154.9436 C   0  0  1  0  0  0  0  0  0  0  0  0
  149.9968  142.3800  154.7294 O   0  0  0  0  0  0  0  0  0  0  0  0
  149.3973  140.8633  156.4677 C   0  0  0  0  0  0  0  0  0  0  0  0
  150.6684  140.9862  157.1691 N   0  0  0  0  0  0  0  0  0  0  0  0
  151.7275  140.1381  157.1390 C   0  0  0  0  0  0  0  0  0  0  0  0
  151.7315  138.8892  156.3117 C   0  0  0  0  0  0  0  0  0  0  0  0
  152.7357  138.8973  155.3199 O   0  0  0  0  0  0  0  0  0  0  0  0
  152.7746  140.4903  157.8858 N   0  0  0  0  0  0  0  0  0  0  0  0
  152.3619  141.6838  158.4447 C   0  0  0  0  0  0  0  0  0  0  0  0
  153.0256  142.5590  159.3339 C   0  0  0  0  0  0  0  0  0  0  0  0
  152.3951  143.7403  159.7765 C   0  0  0  0  0  0  0  0  0  0  0  0
  151.0950  144.0633  159.3366 C   0  0  0  0  0  0  0  0  0  0  0  0
  150.4160  143.2051  158.4507 C   0  0  0  0  0  0  0  0  0  0  0  0
  151.0491  142.0261  158.0127 C   0  0  0  0  0  0  0  0  0  0  0  0
  146.5014  142.5047  153.4845 C   0  0  0  0  0  0  0  0  0  0  0  0
  145.3704  143.4420  153.9462 C   0  0  1  0  0  0  0  0  0  0  0  0
  144.6703  144.1243  152.7662 C   0  0  0  0  0  0  0  0  0  0  0  0
  144.3942  142.6931  154.6676 O   0  0  0  0  0  0  0  0  0  0  0  0
  145.5296  142.2300  157.8321 H   0  0  0  0  0  0  0  0  0  0  0  0
  144.4034  143.4512  157.2518 H   0  0  0  0  0  0  0  0  0  0  0  0
  146.0921  143.4944  156.7507 H   0  0  0  0  0  0  0  0  0  0  0  0
  144.0880  141.2819  156.0877 H   0  0  0  0  0  0  0  0  0  0  0  0
  146.4958  140.5279  156.1663 H   0  0  0  0  0  0  0  0  0  0  0  0
  145.6783  140.2655  154.6468 H   0  0  0  0  0  0  0  0  0  0  0  0
  147.8699  139.8615  154.2979 H   0  0  0  0  0  0  0  0  0  0  0  0
  148.3570  141.0379  153.1146 H   0  0  0  0  0  0  0  0  0  0  0  0
  150.2732  140.3734  154.5635 H   0  0  0  0  0  0  0  0  0  0  0  0
  149.3236  142.9845  155.0033 H   0  0  0  0  0  0  0  0  0  0  0  0
  148.6936  141.5821  156.8887 H   0  0  0  0  0  0  0  0  0  0  0  0
  148.9810  139.8780  156.6815 H   0  0  0  0  0  0  0  0  0  0  0  0
  151.8914  138.0280  156.9614 H   0  0  0  0  0  0  0  0  0  0  0  0
  150.7593  138.7482  155.8412 H   0  0  0  0  0  0  0  0  0  0  0  0
  153.4975  138.4540  155.6603 H   0  0  0  0  0  0  0  0  0  0  0  0
  154.0220  142.3210  159.6757 H   0  0  0  0  0  0  0  0  0  0  0  0
  152.9114  144.4022  160.4563 H   0  0  0  0  0  0  0  0  0  0  0  0
  150.6192  144.9703  159.6802 H   0  0  0  0  0  0  0  0  0  0  0  0
  149.4193  143.4492  158.1145 H   0  0  0  0  0  0  0  0  0  0  0  0
  147.2480  143.1011  152.9624 H   0  0  0  0  0  0  0  0  0  0  0  0
  146.1100  141.7897  152.7588 H   0  0  0  0  0  0  0  0  0  0  0  0
  145.7822  144.2169  154.5936 H   0  0  0  0  0  0  0  0  0  0  0  0
  145.3719  144.7267  152.1887 H   0  0  0  0  0  0  0  0  0  0  0  0
  143.8744  144.7834  153.1137 H   0  0  0  0  0  0  0  0  0  0  0  0
  144.2255  143.3906  152.0934 H   0  0  0  0  0  0  0  0  0  0  0  0
  1  2  1  0  0  0  0
  1 24  1  0  0  0  0
  1 25  1  0  0  0  0
  1 26  1  0  0  0  0
  2 23  1  0  0  0  0
  2  3  1  0  0  0  0
  2 27  1  0  0  0  0
  3  4  1  0  0  0  0
  3 28  1  0  0  0  0
  3 29  1  0  0  0  0
  4  5  1  0  0  0  0
  4 20  1  0  0  0  0
  5  6  1  0  0  0  0
  5 30  1  0  0  0  0
  5 31  1  0  0  0  0
  6  7  1  0  0  0  0
  6  8  1  0  0  0  0
  6 32  1  0  0  0  0
  7 33  1  0  0  0  0
  8  9  1  0  0  0  0
  8 34  1  0  0  0  0
  8 35  1  0  0  0  0
  9 19  1  0  0  0  0
  9 10  1  0  0  0  0
 10 11  1  0  0  0  0
 10 13  2  0  0  0  0
 11 12  1  0  0  0  0
 11 36  1  0  0  0  0
 11 37  1  0  0  0  0
 12 38  1  0  0  0  0
 13 14  1  0  0  0  0
 14 19  2  0  0  0  0
 14 15  1  0  0  0  0
 15 16  2  0  0  0  0
 15 39  1  0  0  0  0
 16 17  1  0  0  0  0
 16 40  1  0  0  0  0
 17 18  2  0  0  0  0
 17 41  1  0  0  0  0
 18 19  1  0  0  0  0
 18 42  1  0  0  0  0
 20 21  1  0  0  0  0
 20 43  1  0  0  0  0
 20 44  1  0  0  0  0
 21 22  1  0  0  0  0
 21 23  1  0  0  0  0
 21 45  1  0  0  0  0
 22 46  1  0  0  0  0
 22 47  1  0  0  0  0
 22 48  1  0  0  0  0
M  END
> <s_m_source_file>
AV-unprocessed.smi

> <i_m_source_file_index>
1703

> <i_lp_mmshare_version>
43012

> <i_f3d_flags>
0

> <s_epik_input>
W0NIM11bQ0BASF0xW0NIMl1OKFtDSDJdW0NASF0oTzEpW0NIM10pW0NIMl1bQ0BIXShbT0hdKVtDSDJdbihjKG4yKVtDSDJdW09IXSljKGMyMylbY0hdW2NIXVtjSF1bY0hdMw==

> <s_epik_cmdline>
J2VwaWtfcHl0aG9uJywgJy1waCcsICc3LjAnLCAnLXRuJywgJzgnLCAnLW1hJywgJzIwMCcsICctbWV0YWxfYmluZGluZycsICctaW1hZScsICc8aW5maWxlLm1hZT4nLCAnLW9tYWUnLCAnPG91dGZpbGUubWFlPic=

> <r_epik_Ionization_Penalty>
0.307685

> <r_epik_Ionization_Penalty_Charging>
0

> <r_epik_Ionization_Penalty_Neutral>
0.307685

> <r_epik_State_Penalty>
0.277856

> <r_epik_Charging_Adjusted_Penalty>
0.277856

> <i_epik_Tot_Q>
0

> <i_epik_Tot_abs_Q>
0

> <r_epik_Metal_State_Penalty>
0.238959

> <b_epik_Metal_Only>
0

> <s_lp_Force_Field>
OPLS_2005

> <r_lp_Energy>
33.3157

> <b_lp_Chiralities_Consistent>
1

> <s_lp_Variant>
AV-unprocessed.smi:1703-3

> <Gold.Version>
5.8.1

> <Gold.Id.Protein>
6NUR|6NUR_protein|mol2

> <Gold.PLP.Fitness>
43.6908

> <Gold.PLP.PLP>
-39.2868

> <Gold.PLP.part.hbond>
-3.9791

> <Gold.PLP.part.metal>
0.0000

> <Gold.PLP.part.buried>
-1.7120

> <Gold.PLP.part.nonpolar>
-33.4693

> <Gold.PLP.part.repulsive>
0.3059

> <Gold.PLP.ligand.clash>
0.0000

> <Gold.PLP.ligand.torsion>
0.8136

> <Gold.PLP.Chemscore.Hbond>
1.9920

> <Gold.PLP.Chemscore.CHOScore>
0.0000

> <Gold.PLP.Chemscore.Metal>
0.0000

> <Gold.Chemscore.Hbonds>
donor molecule, donor type, donor heavy atom, donor atom, acceptor molecule, acceptor atom, score
      L1  H     7    33       P1  8028  0.96
      P1  H  7997  8010       L1    13  0.83
      P1  H  8011  8017       L1     7  0.01

> <Gold.PLP.Chemscore.Internal.Correction>
0.0552

> <Gold.Rescore>
     Score         DG    S(hbond)    S(metal)    S(lipo)     H(rot)  DE(clash)    DE(int)     intcor
     13.36     -16.90       1.82        0.00     108.66       2.88       2.60       0.94       ----

> <Gold.Chemscore.Fitness>
13.3590

> <Gold.Chemscore.DG>
-16.9045

> <Gold.Chemscore.ZeroCoef>
-5.4800

> <Gold.Chemscore.Hbond>
1.8198

> <Gold.Chemscore.Metal>
0.0000

> <Gold.Chemscore.Lipo>
108.6621

> <Gold.Chemscore.Internal_Hbond>
0.0000

> <Gold.Chemscore.DEClash>
2.6040

> <Gold.Chemscore.DEInternal>
0.9415

> <Gold.Chemscore.Rot>
2.8778

> <Gold.Chemscore.Internal.Correction>
   9.000000E+99

> <Gold.Chemscore.Hbonds>
donor molecule, donor type, donor heavy atom, donor atom, acceptor molecule, acceptor atom, score
      L1  H     7    33       P1  8028  0.92
      P1  H  7997  8010       L1    13  0.51

> <Gold.Chemscore.Hbond.Weighted>
-6.0781

> <Gold.Chemscore.Metal.Weighted>
-0.0000

> <Gold.Chemscore.Lipo.Weighted>
-12.7135

> <Gold.Chemscore.Internal_Hbond.Weighted>
0.0000

> <Gold.Chemscore.DEClash.Weighted>
2.6040

> <Gold.Chemscore.DEInternal.Weighted>
0.9415

> <Gold.Chemscore.Rot.Weighted>
7.3671

> <Gold.Chemscore.Internal.Correction.Weighted>
   9.000000E+99

> <Gold.Protein.RotatedTorsions>
[ 6907 6896 6895 6894 ] final   37.44 input  -60.11 | X-H torsion
[ 7974 7965 7964 7962 ] final  -32.11 input  175.53 | X-H torsion
[ 8008 7997 7996 7995 ] final   49.23 input   59.86 | X-H torsion
[ 10167 10162 10161 10158 ] final  118.64 input  -65.29 | X-H torsion
[ 10718 10713 10712 10709 ] final  152.92 input   66.30 | X-H torsion
[ 10763 10752 10751 10750 ] final  -55.13 input  -60.55 | X-H torsion
[ 11005 11000 10999 10996 ] final   49.86 input  -57.11 | X-H torsion

> <Gold.Protein.ActiveResidues>
 VAL166  LYS551  ARG553  GLY616  TRP617  ASP618  TYR619  PRO620  LYS621  CYS622 
 ASP623  PHE694  ASN695  SER759  ASP760  ASP761  ALA762  ILE779  LEU786  VAL792 
 PHE793  MET794  SER795  GLU796  ALA797  LYS798  CYS799  TRP800  GLU811  SER814 

> <Gold.Protein.RotatedAtoms>
  152.1432  134.9046  160.0552 H   0  0  0  0  0  0  0  0  0  0  0  0  # atno 6907 bound_to 6896
  152.0106  133.3855  159.4226 H   0  0  0  0  0  0  0  0  0  0  0  0  # atno 6908 bound_to 6896
  150.6867  134.3656  159.5013 H   0  0  0  0  0  0  0  0  0  0  0  0  # atno 6909 bound_to 6896
  146.1015  140.5751  142.8818 H   0  0  0  0  0  0  0  0  0  0  0  0  # atno 7974 bound_to 7965
  155.3987  140.3437  155.4255 H   0  0  0  0  0  0  0  0  0  0  0  0  # atno 8008 bound_to 7997
  156.1516  140.1572  156.8793 H   0  0  0  0  0  0  0  0  0  0  0  0  # atno 8009 bound_to 7997
  154.5057  140.0803  156.7871 H   0  0  0  0  0  0  0  0  0  0  0  0  # atno 8010 bound_to 7997
  139.6098  144.7079  151.2869 H   0  0  0  0  0  0  0  0  0  0  0  0  # atno 10167 bound_to 10162
  157.2515  131.0780  151.1726 H   0  0  0  0  0  0  0  0  0  0  0  0  # atno 10718 bound_to 10713
  154.1859  135.6435  153.5046 H   0  0  0  0  0  0  0  0  0  0  0  0  # atno 10763 bound_to 10752
  153.0047  135.5417  154.6466 H   0  0  0  0  0  0  0  0  0  0  0  0  # atno 10764 bound_to 10752
  154.5842  135.2928  155.0674 H   0  0  0  0  0  0  0  0  0  0  0  0  # atno 10765 bound_to 10752
  140.1067  134.5009  155.8714 H   0  0  0  0  0  0  0  0  0  0  0  0  # atno 11005 bound_to 11000
  144.7437  140.5010  143.6851 LP  0  0  0  0  0  0  0  0  0  0  0  0  # atno 17320 bound_to 7965
  145.5844  139.1491  143.3217 LP  0  0  0  0  0  0  0  0  0  0  0  0  # atno 17321 bound_to 7965
  140.7311  143.6861  150.7961 LP  0  0  0  0  0  0  0  0  0  0  0  0  # atno 17342 bound_to 10162
  140.0453  143.5304  152.2699 LP  0  0  0  0  0  0  0  0  0  0  0  0  # atno 17343 bound_to 10162
  157.3272  130.6967  149.6303 LP  0  0  0  0  0  0  0  0  0  0  0  0  # atno 17370 bound_to 10713
  155.9666  130.4318  150.4935 LP  0  0  0  0  0  0  0  0  0  0  0  0  # atno 17371 bound_to 10713
  141.2120  133.6713  156.6625 LP  0  0  0  0  0  0  0  0  0  0  0  0  # atno 17394 bound_to 11000
  140.3146  134.8058  157.4204 LP  0  0  0  0  0  0  0  0  0  0  0  0  # atno 17395 bound_to 11000

$$$$
