AV-unprocessed.smi:2017|AV-procd|sdf|8167|dock10
  -GOLD-   2272010413D 1   1.00000     0.00000
 Structure written by MMmdl.
 45 46  0  0  0  0  0  0  0  0  1 V2000
  151.4764  136.5553  155.2522 O   0  0  0  0  0  0  0  0  0  0  0  0
  150.4045  136.6348  155.8546 C   0  0  0  0  0  0  0  0  0  0  0  0
  149.9511  135.5268  156.8167 C   0  0  0  0  0  0  0  0  0  0  0  0
  149.5470  134.2889  156.1333 N   0  0  0  0  0  0  0  0  0  0  0  0
  149.1871  134.3168  154.7933 C   0  0  0  0  0  0  0  0  0  0  0  0
  148.8166  133.2160  154.0973 C   0  0  0  0  0  0  0  0  0  0  0  0
  148.7793  131.9099  154.7463 C   0  0  0  0  0  0  0  0  0  0  0  0
  148.4570  130.8564  154.2018 O   0  0  0  0  0  0  0  0  0  0  0  0
  149.1505  131.9225  156.0934 N   0  0  0  0  0  0  0  0  0  0  0  0
  149.5351  133.0530  156.8161 C   0  0  0  0  0  0  0  0  0  0  0  0
  149.8495  132.9516  158.0014 O   0  0  0  0  0  0  0  0  0  0  0  0
  149.5592  137.6668  155.7111 N   0  0  0  0  0  0  0  0  0  0  0  0
  149.7817  138.8199  154.8469 C   0  0  0  0  0  0  0  0  0  0  0  0
  150.9965  139.6473  155.3021 C   0  0  0  0  0  0  0  0  0  0  0  0
  150.5950  140.8951  156.0972 C   0  0  0  0  0  0  0  0  0  0  0  0
  151.5548  141.1241  157.1188 O   0  0  0  0  0  0  0  0  0  0  0  0
  151.3739  142.3396  157.8324 C   0  0  0  0  0  0  0  0  0  0  0  0
  151.5597  143.5507  156.8943 C   0  0  0  0  0  0  0  0  0  0  0  0
  151.5010  144.8755  157.6722 C   0  0  0  0  0  0  0  0  0  0  0  0
  152.5304  144.9001  158.8134 C   0  0  0  0  0  0  0  0  0  0  0  0
  152.3524  143.6933  159.7483 C   0  0  0  0  0  0  0  0  0  0  0  0
  152.4139  142.3712  158.9663 C   0  0  0  0  0  0  0  0  0  0  0  0
  149.1428  131.0400  156.5839 H   0  0  0  0  0  0  0  0  0  0  0  0
  150.7501  135.3232  157.5324 H   0  0  0  0  0  0  0  0  0  0  0  0
  149.1224  135.9103  157.4141 H   0  0  0  0  0  0  0  0  0  0  0  0
  149.2046  135.2627  154.2707 H   0  0  0  0  0  0  0  0  0  0  0  0
  148.5475  133.3020  153.0543 H   0  0  0  0  0  0  0  0  0  0  0  0
  148.6997  137.6534  156.2409 H   0  0  0  0  0  0  0  0  0  0  0  0
  149.9401  138.4523  153.8328 H   0  0  0  0  0  0  0  0  0  0  0  0
  148.8851  139.4411  154.8144 H   0  0  0  0  0  0  0  0  0  0  0  0
  151.6439  139.0295  155.9255 H   0  0  0  0  0  0  0  0  0  0  0  0
  151.5931  139.9422  154.4381 H   0  0  0  0  0  0  0  0  0  0  0  0
  150.5152  141.7512  155.4271 H   0  0  0  0  0  0  0  0  0  0  0  0
  149.6139  140.7433  156.5491 H   0  0  0  0  0  0  0  0  0  0  0  0
  150.3788  142.3668  158.2805 H   0  0  0  0  0  0  0  0  0  0  0  0
  152.5201  143.4723  156.3830 H   0  0  0  0  0  0  0  0  0  0  0  0
  150.7972  143.5571  156.1160 H   0  0  0  0  0  0  0  0  0  0  0  0
  151.6774  145.7116  156.9950 H   0  0  0  0  0  0  0  0  0  0  0  0
  150.4992  145.0141  158.0805 H   0  0  0  0  0  0  0  0  0  0  0  0
  153.5380  144.8928  158.3960 H   0  0  0  0  0  0  0  0  0  0  0  0
  152.4365  145.8270  159.3796 H   0  0  0  0  0  0  0  0  0  0  0  0
  153.1220  143.7047  160.5205 H   0  0  0  0  0  0  0  0  0  0  0  0
  151.3945  143.7685  160.2645 H   0  0  0  0  0  0  0  0  0  0  0  0
  152.2491  141.5332  159.6444 H   0  0  0  0  0  0  0  0  0  0  0  0
  153.4143  142.2406  158.5516 H   0  0  0  0  0  0  0  0  0  0  0  0
  1  2  2  0  0  0  0
  2  3  1  0  0  0  0
  2 12  1  0  0  0  0
  3  4  1  0  0  0  0
  3 24  1  0  0  0  0
  3 25  1  0  0  0  0
  4 10  1  0  0  0  0
  4  5  1  0  0  0  0
  5  6  2  0  0  0  0
  5 26  1  0  0  0  0
  6  7  1  0  0  0  0
  6 27  1  0  0  0  0
  7  8  2  0  0  0  0
  7  9  1  0  0  0  0
  9 23  1  0  0  0  0
  9 10  1  0  0  0  0
 10 11  2  0  0  0  0
 12 13  1  0  0  0  0
 12 28  1  0  0  0  0
 13 14  1  0  0  0  0
 13 29  1  0  0  0  0
 13 30  1  0  0  0  0
 14 15  1  0  0  0  0
 14 31  1  0  0  0  0
 14 32  1  0  0  0  0
 15 16  1  0  0  0  0
 15 33  1  0  0  0  0
 15 34  1  0  0  0  0
 16 17  1  0  0  0  0
 17 22  1  0  0  0  0
 17 18  1  0  0  0  0
 17 35  1  0  0  0  0
 18 19  1  0  0  0  0
 18 36  1  0  0  0  0
 18 37  1  0  0  0  0
 19 20  1  0  0  0  0
 19 38  1  0  0  0  0
 19 39  1  0  0  0  0
 20 21  1  0  0  0  0
 20 40  1  0  0  0  0
 20 41  1  0  0  0  0
 21 22  1  0  0  0  0
 21 42  1  0  0  0  0
 21 43  1  0  0  0  0
 22 44  1  0  0  0  0
 22 45  1  0  0  0  0
M  END
> <s_m_source_file>
AV-unprocessed.smi

> <i_m_source_file_index>
2017

> <i_lp_mmshare_version>
43012

> <i_f3d_flags>
0

> <s_epik_input>
Tz1jMVtuSF1jKD1PKVtjSF1bY0hdbjFbQ0gyXUMoPU8pW05IXVtDSDJdW0NIMl1bQ0gyXU9bQ0hdMltDSDJdW0NIMl1bQ0gyXVtDSDJdW0NIMl0y

> <s_epik_cmdline>
J2VwaWtfcHl0aG9uJywgJy1waCcsICc3LjAnLCAnLXRuJywgJzgnLCAnLW1hJywgJzIwMCcsICctbWV0YWxfYmluZGluZycsICctaW1hZScsICc8aW5maWxlLm1hZT4nLCAnLW9tYWUnLCAnPG91dGZpbGUubWFlPic=

> <r_lp_tautomer_probability>
0.999537

> <r_epik_Ionization_Penalty>
0.003299

> <r_epik_Ionization_Penalty_Charging>
0.00329898

> <r_epik_Ionization_Penalty_Neutral>
1.92812e-08

> <r_epik_State_Penalty>
0.00233129

> <r_epik_Charging_Adjusted_Penalty>
0.00563027

> <i_epik_Tot_Q>
0

> <i_epik_Tot_abs_Q>
0

> <r_epik_Metal_State_Penalty>
0.365405

> <b_epik_Metal_Only>
0

> <s_lp_Force_Field>
OPLS_2005

> <r_lp_Energy>
10.1374

> <b_lp_Chiralities_Consistent>
1

> <s_lp_Variant>
AV-unprocessed.smi:2017-1

> <Gold.Version>
5.8.1

> <Gold.Id.Protein>
6NUR|6NUR_protein|mol2

> <Gold.PLP.Fitness>
50.7149

> <Gold.PLP.PLP>
-43.5663

> <Gold.PLP.part.hbond>
-2.0000

> <Gold.PLP.part.metal>
0.0000

> <Gold.PLP.part.buried>
-4.5493

> <Gold.PLP.part.nonpolar>
-37.3105

> <Gold.PLP.part.repulsive>
0.2432

> <Gold.PLP.ligand.clash>
0.0000

> <Gold.PLP.ligand.torsion>
0.9882

> <Gold.PLP.Chemscore.Hbond>
2.0000

> <Gold.PLP.Chemscore.CHOScore>
1.0000

> <Gold.PLP.Chemscore.Metal>
0.0000

> <Gold.Chemscore.Hbonds>
donor molecule, donor type, donor heavy atom, donor atom, acceptor molecule, acceptor atom, score
      P1  H  6896  6909       L1    11  0.94
      P1  H 10752 10764       L1     1  1.00
      L1  C     5    26       P1  7948  0.88

> <Gold.PLP.Chemscore.Internal.Correction>
0.1249

> <Gold.Rescore>
     Score         DG    S(hbond)    S(metal)    S(lipo)     H(rot)  DE(clash)    DE(int)     intcor
     16.37     -17.34       2.00        0.00     104.31       2.74       0.14       0.83       ----

> <Gold.Chemscore.Fitness>
16.3688

> <Gold.Chemscore.DG>
-17.3431

> <Gold.Chemscore.ZeroCoef>
-5.4800

> <Gold.Chemscore.Hbond>
1.9967

> <Gold.Chemscore.Metal>
0.0000

> <Gold.Chemscore.Lipo>
104.3075

> <Gold.Chemscore.Internal_Hbond>
0.0000

> <Gold.Chemscore.DEClash>
0.1429

> <Gold.Chemscore.DEInternal>
0.8313

> <Gold.Chemscore.Rot>
2.7382

> <Gold.Chemscore.Internal.Correction>
   9.000000E+99

> <Gold.Chemscore.Hbonds>
donor molecule, donor type, donor heavy atom, donor atom, acceptor molecule, acceptor atom, score
      P1  H  6896  6909       L1    11  0.91
      P1  H 10752 10764       L1     1  1.00

> <Gold.Chemscore.Hbond.Weighted>
-6.6690

> <Gold.Chemscore.Metal.Weighted>
-0.0000

> <Gold.Chemscore.Lipo.Weighted>
-12.2040

> <Gold.Chemscore.Internal_Hbond.Weighted>
0.0000

> <Gold.Chemscore.DEClash.Weighted>
0.1429

> <Gold.Chemscore.DEInternal.Weighted>
0.8313

> <Gold.Chemscore.Rot.Weighted>
7.0098

> <Gold.Chemscore.Internal.Correction.Weighted>
   9.000000E+99

> <Gold.Protein.RotatedTorsions>
[ 6907 6896 6895 6894 ] final  -32.74 input  -60.11 | X-H torsion
[ 7974 7965 7964 7962 ] final  112.72 input  175.53 | X-H torsion
[ 8008 7997 7996 7995 ] final  -61.57 input   59.86 | X-H torsion
[ 10167 10162 10161 10158 ] final   32.11 input  -65.29 | X-H torsion
[ 10718 10713 10712 10709 ] final   36.65 input   66.30 | X-H torsion
[ 10763 10752 10751 10750 ] final  -62.24 input  -60.55 | X-H torsion
[ 11005 11000 10999 10996 ] final -134.11 input  -57.11 | X-H torsion

> <Gold.Protein.ActiveResidues>
 VAL166  LYS551  ARG553  GLY616  TRP617  ASP618  TYR619  PRO620  LYS621  CYS622 
 ASP623  PHE694  ASN695  SER759  ASP760  ASP761  ALA762  ILE779  LEU786  VAL792 
 PHE793  MET794  SER795  GLU796  ALA797  LYS798  CYS799  TRP800  GLU811  SER814 

> <Gold.Protein.RotatedAtoms>
  151.0748  134.9821  159.8326 H   0  0  0  0  0  0  0  0  0  0  0  0  # atno 6907 bound_to 6896
  152.5413  134.2254  159.8814 H   0  0  0  0  0  0  0  0  0  0  0  0  # atno 6908 bound_to 6896
  151.2281  133.4422  159.2636 H   0  0  0  0  0  0  0  0  0  0  0  0  # atno 6909 bound_to 6896
  145.2260  139.2840  143.4193 H   0  0  0  0  0  0  0  0  0  0  0  0  # atno 7974 bound_to 7965
  154.4454  140.1015  156.6451 H   0  0  0  0  0  0  0  0  0  0  0  0  # atno 8008 bound_to 7997
  155.5459  140.3484  155.4439 H   0  0  0  0  0  0  0  0  0  0  0  0  # atno 8009 bound_to 7997
  156.0564  140.1316  156.9981 H   0  0  0  0  0  0  0  0  0  0  0  0  # atno 8010 bound_to 7997
  140.4528  144.1023  150.6195 H   0  0  0  0  0  0  0  0  0  0  0  0  # atno 10167 bound_to 10162
  157.3375  130.7530  149.6889 H   0  0  0  0  0  0  0  0  0  0  0  0  # atno 10718 bound_to 10713
  154.2969  135.6242  153.5408 H   0  0  0  0  0  0  0  0  0  0  0  0  # atno 10763 bound_to 10752
  152.9845  135.5669  154.5327 H   0  0  0  0  0  0  0  0  0  0  0  0  # atno 10764 bound_to 10752
  154.4950  135.2869  155.1443 H   0  0  0  0  0  0  0  0  0  0  0  0  # atno 10765 bound_to 10752
  140.9020  134.1678  157.4453 H   0  0  0  0  0  0  0  0  0  0  0  0  # atno 11005 bound_to 11000
  146.3364  140.2580  142.8601 LP  0  0  0  0  0  0  0  0  0  0  0  0  # atno 17320 bound_to 7965
  144.9721  140.8378  143.5449 LP  0  0  0  0  0  0  0  0  0  0  0  0  # atno 17321 bound_to 7965
  140.4187  143.2622  151.9742 LP  0  0  0  0  0  0  0  0  0  0  0  0  # atno 17342 bound_to 10162
  139.4798  144.5850  151.7868 LP  0  0  0  0  0  0  0  0  0  0  0  0  # atno 17343 bound_to 10162
  155.9703  130.4177  150.4293 LP  0  0  0  0  0  0  0  0  0  0  0  0  # atno 17370 bound_to 10713
  157.2336  131.0509  151.2478 LP  0  0  0  0  0  0  0  0  0  0  0  0  # atno 17371 bound_to 10713
  139.8743  134.9902  156.5490 LP  0  0  0  0  0  0  0  0  0  0  0  0  # atno 17394 bound_to 11000
  140.8218  133.8347  155.8903 LP  0  0  0  0  0  0  0  0  0  0  0  0  # atno 17395 bound_to 11000

$$$$
