AV-unprocessed.smi:1970|AV-procd|sdf|7960|dock5
  -GOLD-   2272010133D 1   1.00000     0.00000
 Structure written by MMmdl.
 33 34  0  0  0  0  0  0  0  0  1 V2000
  149.7580  143.4487  159.2505 O   0  0  0  0  0  0  0  0  0  0  0  0
  150.7675  143.1576  158.6090 C   0  0  0  0  0  0  0  0  0  0  0  0
  152.1305  143.7048  159.0404 C   0  0  0  0  0  0  0  0  0  0  0  0
  152.5276  143.1638  160.3417 N   0  0  0  0  0  0  0  0  0  0  0  0
  152.1177  143.8632  161.5548 C   0  0  0  0  0  0  0  0  0  0  0  0
  153.1231  143.1912  162.9028 S   0  0  0  0  0  0  0  0  0  0  0  0
  153.5764  141.7308  161.9524 C   0  0  0  0  0  0  0  0  0  0  0  0
  153.2633  142.0497  160.5009 C   0  0  0  0  0  0  0  0  0  0  0  0
  153.6692  141.3344  159.5854 O   0  0  0  0  0  0  0  0  0  0  0  0
  150.7541  142.3655  157.5253 N   0  0  0  0  0  0  0  0  0  0  0  0
  149.5615  141.7825  156.9147 C   0  0  0  0  0  0  0  0  0  0  0  0
  149.7601  141.4559  155.4199 C   0  0  0  0  0  0  0  0  0  0  0  0
  150.5954  140.2114  155.1680 C   0  0  0  0  0  0  0  0  0  0  0  0
  151.8983  140.0946  155.6985 C   0  0  0  0  0  0  0  0  0  0  0  0
  152.6448  138.9392  155.3979 C   0  0  0  0  0  0  0  0  0  0  0  0
  152.0602  137.9458  154.5894 C   0  0  0  0  0  0  0  0  0  0  0  0
  150.7484  138.1519  154.1180 C   0  0  0  0  0  0  0  0  0  0  0  0
  150.0245  139.2569  154.3990 N   0  0  0  0  0  0  0  0  0  0  0  0
  152.8703  143.4289  158.2877 H   0  0  0  0  0  0  0  0  0  0  0  0
  152.1174  144.7960  159.0685 H   0  0  0  0  0  0  0  0  0  0  0  0
  152.2679  144.9401  161.4728 H   0  0  0  0  0  0  0  0  0  0  0  0
  151.0620  143.6732  161.7503 H   0  0  0  0  0  0  0  0  0  0  0  0
  154.6325  141.4973  162.0878 H   0  0  0  0  0  0  0  0  0  0  0  0
  152.9840  140.8752  162.2770 H   0  0  0  0  0  0  0  0  0  0  0  0
  151.6352  142.1768  157.0694 H   0  0  0  0  0  0  0  0  0  0  0  0
  149.3281  140.8648  157.4548 H   0  0  0  0  0  0  0  0  0  0  0  0
  148.7004  142.4394  157.0482 H   0  0  0  0  0  0  0  0  0  0  0  0
  148.7884  141.3378  154.9386 H   0  0  0  0  0  0  0  0  0  0  0  0
  150.2395  142.3009  154.9245 H   0  0  0  0  0  0  0  0  0  0  0  0
  152.3234  140.8784  156.3076 H   0  0  0  0  0  0  0  0  0  0  0  0
  153.6488  138.8192  155.7770 H   0  0  0  0  0  0  0  0  0  0  0  0
  152.6034  137.0474  154.3367 H   0  0  0  0  0  0  0  0  0  0  0  0
  150.2678  137.4102  153.4975 H   0  0  0  0  0  0  0  0  0  0  0  0
  1  2  2  0  0  0  0
  2  3  1  0  0  0  0
  2 10  1  0  0  0  0
  3  4  1  0  0  0  0
  3 19  1  0  0  0  0
  3 20  1  0  0  0  0
  4  8  1  0  0  0  0
  4  5  1  0  0  0  0
  5  6  1  0  0  0  0
  5 21  1  0  0  0  0
  5 22  1  0  0  0  0
  6  7  1  0  0  0  0
  7  8  1  0  0  0  0
  7 23  1  0  0  0  0
  7 24  1  0  0  0  0
  8  9  2  0  0  0  0
 10 11  1  0  0  0  0
 10 25  1  0  0  0  0
 11 12  1  0  0  0  0
 11 26  1  0  0  0  0
 11 27  1  0  0  0  0
 12 13  1  0  0  0  0
 12 28  1  0  0  0  0
 12 29  1  0  0  0  0
 13 18  1  0  0  0  0
 13 14  2  0  0  0  0
 14 15  1  0  0  0  0
 14 30  1  0  0  0  0
 15 16  2  0  0  0  0
 15 31  1  0  0  0  0
 16 17  1  0  0  0  0
 16 32  1  0  0  0  0
 17 18  2  0  0  0  0
 17 33  1  0  0  0  0
M  END
> <s_m_source_file>
AV-unprocessed.smi

> <i_m_source_file_index>
1970

> <i_lp_mmshare_version>
43012

> <i_f3d_flags>
0

> <s_epik_input>
Tz1DMVtDSDJdU1tDSDJdTjFbQ0gyXUMoPU8pW05IXVtDSDJdW0NIMl1jMltjSF1bY0hdW2NIXVtjSF1uMg==

> <s_epik_cmdline>
J2VwaWtfcHl0aG9uJywgJy1waCcsICc3LjAnLCAnLXRuJywgJzgnLCAnLW1hJywgJzIwMCcsICctbWV0YWxfYmluZGluZycsICctaW1hZScsICc8aW5maWxlLm1hZT4nLCAnLW9tYWUnLCAnPG91dGZpbGUubWFlPic=

> <r_epik_Ionization_Penalty>
0.0255556

> <r_epik_Ionization_Penalty_Charging>
0

> <r_epik_Ionization_Penalty_Neutral>
0.0255556

> <r_epik_State_Penalty>
0.0208108

> <r_epik_Charging_Adjusted_Penalty>
0.0208108

> <i_epik_Tot_Q>
0

> <i_epik_Tot_abs_Q>
0

> <r_epik_Metal_State_Penalty>
0.0199448

> <b_epik_Metal_Only>
0

> <s_epik_Chemistry_Notes>
This compound contains an acetal/aminal-like group ( X-CH(R)-Y where X, Y are N, S, or O) that may be acid/base labile, releasing an aldehyde.

> <s_lp_Force_Field>
OPLS_2005

> <r_lp_Energy>
5.35786

> <b_lp_Chiralities_Consistent>
1

> <s_lp_Variant>
AV-unprocessed.smi:1970-1

> <Gold.Version>
5.8.1

> <Gold.Id.Protein>
6NUR|6NUR_protein|mol2

> <Gold.PLP.Fitness>
48.2571

> <Gold.PLP.PLP>
-46.2230

> <Gold.PLP.part.hbond>
-0.9078

> <Gold.PLP.part.metal>
0.0000

> <Gold.PLP.part.buried>
-3.5613

> <Gold.PLP.part.nonpolar>
-41.7835

> <Gold.PLP.part.repulsive>
0.2996

> <Gold.PLP.ligand.clash>
0.0000

> <Gold.PLP.ligand.torsion>
0.6571

> <Gold.PLP.Chemscore.Hbond>
0.0000

> <Gold.PLP.Chemscore.CHOScore>
1.1100

> <Gold.PLP.Chemscore.Metal>
0.0000

> <Gold.Chemscore.Hbonds>
donor molecule, donor type, donor heavy atom, donor atom, acceptor molecule, acceptor atom, score
      L1  C    17    33       P1  7948  0.89
      L1  C    17    33       P1  7949  0.23

> <Gold.PLP.Chemscore.Internal.Correction>
0.0182

> <Gold.Rescore>
     Score         DG    S(hbond)    S(metal)    S(lipo)     H(rot)  DE(clash)    DE(int)     intcor
     11.49     -12.18       0.00        0.00      99.30       1.92       0.04       0.65       ----

> <Gold.Chemscore.Fitness>
11.4893

> <Gold.Chemscore.DG>
-12.1786

> <Gold.Chemscore.ZeroCoef>
-5.4800

> <Gold.Chemscore.Hbond>
0.0000

> <Gold.Chemscore.Metal>
0.0000

> <Gold.Chemscore.Lipo>
99.2956

> <Gold.Chemscore.Internal_Hbond>
0.0000

> <Gold.Chemscore.DEClash>
0.0390

> <Gold.Chemscore.DEInternal>
0.6503

> <Gold.Chemscore.Rot>
1.9215

> <Gold.Chemscore.Internal.Correction>
   9.000000E+99

> <Gold.Chemscore.Hbond.Weighted>
-0.0000

> <Gold.Chemscore.Metal.Weighted>
-0.0000

> <Gold.Chemscore.Lipo.Weighted>
-11.6176

> <Gold.Chemscore.Internal_Hbond.Weighted>
0.0000

> <Gold.Chemscore.DEClash.Weighted>
0.0390

> <Gold.Chemscore.DEInternal.Weighted>
0.6503

> <Gold.Chemscore.Rot.Weighted>
4.9190

> <Gold.Chemscore.Internal.Correction.Weighted>
   9.000000E+99

> <Gold.Protein.RotatedTorsions>
[ 6907 6896 6895 6894 ] final -107.06 input  -60.11 | X-H torsion
[ 7974 7965 7964 7962 ] final  103.70 input  175.53 | X-H torsion
[ 8008 7997 7996 7995 ] final -155.67 input   59.86 | X-H torsion
[ 10167 10162 10161 10158 ] final    4.90 input  -65.29 | X-H torsion
[ 10718 10713 10712 10709 ] final   84.76 input   66.30 | X-H torsion
[ 10763 10752 10751 10750 ] final  112.51 input  -60.55 | X-H torsion
[ 11005 11000 10999 10996 ] final  136.70 input  -57.11 | X-H torsion

> <Gold.Protein.ActiveResidues>
 VAL166  LYS551  ARG553  GLY616  TRP617  ASP618  TYR619  PRO620  LYS621  CYS622 
 ASP623  PHE694  ASN695  SER759  ASP760  ASP761  ALA762  ILE779  LEU786  VAL792 
 PHE793  MET794  SER795  GLU796  ALA797  LYS798  CYS799  TRP800  GLU811  SER814 

> <Gold.Protein.RotatedAtoms>
  150.7423  133.9883  159.3598 H   0  0  0  0  0  0  0  0  0  0  0  0  # atno 6907 bound_to 6896
  151.7829  135.0754  160.0386 H   0  0  0  0  0  0  0  0  0  0  0  0  # atno 6908 bound_to 6896
  152.3261  133.5870  159.5814 H   0  0  0  0  0  0  0  0  0  0  0  0  # atno 6909 bound_to 6896
  145.3425  139.2459  143.3602 H   0  0  0  0  0  0  0  0  0  0  0  0  # atno 7974 bound_to 7965
  155.7054  140.0772  157.2393 H   0  0  0  0  0  0  0  0  0  0  0  0  # atno 8008 bound_to 7997
  154.4066  140.1640  156.2290 H   0  0  0  0  0  0  0  0  0  0  0  0  # atno 8009 bound_to 7997
  155.9330  140.3390  155.6268 H   0  0  0  0  0  0  0  0  0  0  0  0  # atno 8010 bound_to 7997
  140.6511  143.7543  150.7576 H   0  0  0  0  0  0  0  0  0  0  0  0  # atno 10167 bound_to 10162
  157.6903  131.0147  150.2721 H   0  0  0  0  0  0  0  0  0  0  0  0  # atno 10718 bound_to 10713
  153.4789  135.3684  155.2431 H   0  0  0  0  0  0  0  0  0  0  0  0  # atno 10763 bound_to 10752
  154.8755  135.3949  154.3723 H   0  0  0  0  0  0  0  0  0  0  0  0  # atno 10764 bound_to 10752
  153.4324  135.7082  153.6287 H   0  0  0  0  0  0  0  0  0  0  0  0  # atno 10765 bound_to 10752
  140.0064  134.9457  157.0183 H   0  0  0  0  0  0  0  0  0  0  0  0  # atno 11005 bound_to 11000
  146.3002  140.4025  142.8707 LP  0  0  0  0  0  0  0  0  0  0  0  0  # atno 17320 bound_to 7965
  144.8779  140.7362  143.6005 LP  0  0  0  0  0  0  0  0  0  0  0  0  # atno 17321 bound_to 7965
  140.1194  143.4626  152.2322 LP  0  0  0  0  0  0  0  0  0  0  0  0  # atno 17342 bound_to 10162
  139.5726  144.7471  151.3850 LP  0  0  0  0  0  0  0  0  0  0  0  0  # atno 17343 bound_to 10162
  156.3282  130.3796  149.7514 LP  0  0  0  0  0  0  0  0  0  0  0  0  # atno 17370 bound_to 10713
  156.5062  130.8151  151.3151 LP  0  0  0  0  0  0  0  0  0  0  0  0  # atno 17371 bound_to 10713
  140.4634  134.1460  155.7194 LP  0  0  0  0  0  0  0  0  0  0  0  0  # atno 17394 bound_to 11000
  141.1679  133.8666  157.1658 LP  0  0  0  0  0  0  0  0  0  0  0  0  # atno 17395 bound_to 11000

$$$$
