AV-unprocessed.smi:55|AV-procd|sdf|568|dock9
  -GOLD-   2262016473D 1   1.00000     0.00000
 Structure written by MMmdl.
 31 32  0  0  0  0  0  0  0  0  1 V2000
  151.1347  142.6251  157.6773 C   0  0  0  0  0  0  0  0  0  0  0  0
  151.0453  141.4461  156.7227 C   0  0  0  0  0  0  0  0  0  0  0  0
  150.1734  141.4167  155.6827 C   0  0  0  0  0  0  0  0  0  0  0  0
  150.0653  140.3548  154.7958 N   0  0  0  0  0  0  0  0  0  0  0  0
  149.0693  140.3945  153.6584 C   0  0  1  0  0  0  0  0  0  0  0  0
  148.0427  139.2650  153.7916 C   0  0  0  0  0  0  0  0  0  0  0  0
  146.8037  140.0054  154.2590 C   0  0  2  0  0  0  0  0  0  0  0  0
  145.6284  139.3537  153.8224 O   0  0  0  0  0  0  0  0  0  0  0  0
  146.9813  141.3830  153.6158 C   0  0  1  0  0  0  0  0  0  0  0  0
  146.2219  142.5035  154.3421 C   0  0  0  0  0  0  0  0  0  0  0  0
  144.9138  142.0750  154.6550 O   0  0  0  0  0  0  0  0  0  0  0  0
  148.3845  141.6100  153.7114 O   0  0  0  0  0  0  0  0  0  0  0  0
  150.8918  139.2243  154.9683 C   0  0  0  0  0  0  0  0  0  0  0  0
  150.8423  138.2354  154.2379 O   0  0  0  0  0  0  0  0  0  0  0  0
  151.7906  139.2557  156.0334 N   0  0  0  0  0  0  0  0  0  0  0  0
  151.9362  140.3042  156.9451 C   0  0  0  0  0  0  0  0  0  0  0  0
  152.7678  140.2139  157.8467 O   0  0  0  0  0  0  0  0  0  0  0  0
  149.6274  140.3540  152.7221 H   0  0  0  0  0  0  0  0  0  0  0  0
  146.8012  140.0830  155.3469 H   0  0  0  0  0  0  0  0  0  0  0  0
  146.7020  141.3326  152.5611 H   0  0  0  0  0  0  0  0  0  0  0  0
  152.3856  138.4500  156.1586 H   0  0  0  0  0  0  0  0  0  0  0  0
  150.4371  143.4182  157.4072 H   0  0  0  0  0  0  0  0  0  0  0  0
  152.1400  143.0472  157.6692 H   0  0  0  0  0  0  0  0  0  0  0  0
  150.9038  142.3090  158.6952 H   0  0  0  0  0  0  0  0  0  0  0  0
  149.5278  142.2704  155.5404 H   0  0  0  0  0  0  0  0  0  0  0  0
  147.8917  138.8257  152.8043 H   0  0  0  0  0  0  0  0  0  0  0  0
  148.3722  138.4829  154.4773 H   0  0  0  0  0  0  0  0  0  0  0  0
  145.0425  139.9998  153.4583 H   0  0  0  0  0  0  0  0  0  0  0  0
  146.7192  142.7466  155.2816 H   0  0  0  0  0  0  0  0  0  0  0  0
  146.1928  143.4155  153.7450 H   0  0  0  0  0  0  0  0  0  0  0  0
  144.6268  141.4716  153.9868 H   0  0  0  0  0  0  0  0  0  0  0  0
  1  2  1  0  0  0  0
  1 22  1  0  0  0  0
  1 23  1  0  0  0  0
  1 24  1  0  0  0  0
  2 16  1  0  0  0  0
  2  3  2  0  0  0  0
  3  4  1  0  0  0  0
  3 25  1  0  0  0  0
  4  5  1  0  0  0  0
  4 13  1  0  0  0  0
  5 18  1  0  0  0  0
  5 12  1  0  0  0  0
  5  6  1  0  0  0  0
  6  7  1  0  0  0  0
  6 26  1  0  0  0  0
  6 27  1  0  0  0  0
  7 19  1  0  0  0  0
  7  8  1  0  0  0  0
  7  9  1  0  0  0  0
  8 28  1  0  0  0  0
  9 20  1  0  0  0  0
  9 10  1  0  0  0  0
  9 12  1  0  0  0  0
 10 11  1  0  0  0  0
 10 29  1  0  0  0  0
 10 30  1  0  0  0  0
 11 31  1  0  0  0  0
 13 14  2  0  0  0  0
 13 15  1  0  0  0  0
 15 21  1  0  0  0  0
 15 16  1  0  0  0  0
 16 17  2  0  0  0  0
M  END
> <s_m_source_file>
AV-unprocessed.smi

> <i_m_source_file_index>
55

> <i_lp_mmshare_version>
43012

> <i_f3d_flags>
0

> <s_epik_input>
Tz1jMVtuSF1jKD1PKW4oW2NIXWMxW0NIM10pW0NAQEhdMltDSDJdW0NAQEhdKFtPSF0pW0NAQEhdKE8yKVtDSDJdW09IXQ==

> <s_epik_cmdline>
J2VwaWtfcHl0aG9uJywgJy1waCcsICc3LjAnLCAnLXRuJywgJzgnLCAnLW1hJywgJzIwMCcsICctbWV0YWxfYmluZGluZycsICctaW1hZScsICc8aW5maWxlLm1hZT4nLCAnLW9tYWUnLCAnPG91dGZpbGUubWFlPic=

> <r_lp_tautomer_probability>
0.999537

> <r_epik_Ionization_Penalty>
0.00121888

> <r_epik_Ionization_Penalty_Charging>
0.00121876

> <r_epik_Ionization_Penalty_Neutral>
1.19946e-07

> <r_epik_State_Penalty>
0.000805124

> <r_epik_Charging_Adjusted_Penalty>
0.00202389

> <i_epik_Tot_Q>
0

> <i_epik_Tot_abs_Q>
0

> <r_epik_Metal_State_Penalty>
0.662472

> <b_epik_Metal_Only>
0

> <s_epik_Chemistry_Notes>
This compound contains an acetal/aminal-like group ( X-CH(R)-Y where X, Y are N, S, or O) that may be acid/base labile, releasing an aldehyde.

> <s_lp_Force_Field>
OPLS_2005

> <r_lp_Energy>
24.9253

> <b_lp_Chiralities_Consistent>
1

> <s_lp_Variant>
AV-unprocessed.smi:55-8

> <Gold.Version>
5.8.1

> <Gold.Id.Protein>
6NUR|6NUR_protein|mol2

> <Gold.PLP.Fitness>
40.3390

> <Gold.PLP.PLP>
-27.8774

> <Gold.PLP.part.hbond>
-4.0000

> <Gold.PLP.part.metal>
0.0000

> <Gold.PLP.part.buried>
1.7853

> <Gold.PLP.part.nonpolar>
-25.6212

> <Gold.PLP.part.repulsive>
0.5081

> <Gold.PLP.ligand.clash>
0.0000

> <Gold.PLP.ligand.torsion>
0.1527

> <Gold.PLP.Chemscore.Hbond>
3.2853

> <Gold.PLP.Chemscore.CHOScore>
0.9675

> <Gold.PLP.Chemscore.Metal>
0.0000

> <Gold.Chemscore.Hbonds>
donor molecule, donor type, donor heavy atom, donor atom, acceptor molecule, acceptor atom, score
      L1  H     8    28       P1 10175  1.00
      L1  H    11    31       P1 10175  1.00
      P1  H  7997  8008       L1    17  0.99
      P1  H  8011  8017       L1    12  0.24
      L1  C     3    25       P1  8028  0.99

> <Gold.PLP.Chemscore.Internal.Correction>
0.0087

> <Gold.Rescore>
     Score         DG    S(hbond)    S(metal)    S(lipo)     H(rot)  DE(clash)    DE(int)     intcor
     10.94     -12.81       2.84        0.00      41.09       2.73       1.63       0.24       ----

> <Gold.Chemscore.Fitness>
10.9357

> <Gold.Chemscore.DG>
-12.8122

> <Gold.Chemscore.ZeroCoef>
-5.4800

> <Gold.Chemscore.Hbond>
2.8449

> <Gold.Chemscore.Metal>
0.0000

> <Gold.Chemscore.Lipo>
41.0862

> <Gold.Chemscore.Internal_Hbond>
0.0000

> <Gold.Chemscore.DEClash>
1.6317

> <Gold.Chemscore.DEInternal>
0.2449

> <Gold.Chemscore.Rot>
2.7253

> <Gold.Chemscore.Internal.Correction>
   9.000000E+99

> <Gold.Chemscore.Hbonds>
donor molecule, donor type, donor heavy atom, donor atom, acceptor molecule, acceptor atom, score
      L1  H     8    28       P1 10175  0.97
      L1  H    11    31       P1 10175  0.24
      P1  H  7997  8008       L1    17  0.32
      P1  H  8011  8017       L1    12  0.01

> <Gold.Chemscore.Hbond.Weighted>
-9.5020

> <Gold.Chemscore.Metal.Weighted>
-0.0000

> <Gold.Chemscore.Lipo.Weighted>
-4.8071

> <Gold.Chemscore.Internal_Hbond.Weighted>
0.0000

> <Gold.Chemscore.DEClash.Weighted>
1.6317

> <Gold.Chemscore.DEInternal.Weighted>
0.2449

> <Gold.Chemscore.Rot.Weighted>
6.9769

> <Gold.Chemscore.Internal.Correction.Weighted>
   9.000000E+99

> <Gold.Protein.RotatedTorsions>
[ 6907 6896 6895 6894 ] final -160.15 input  -60.11 | X-H torsion
[ 7974 7965 7964 7962 ] final  144.10 input  175.53 | X-H torsion
[ 8008 7997 7996 7995 ] final  -73.00 input   59.86 | X-H torsion
[ 10167 10162 10161 10158 ] final  165.74 input  -65.29 | X-H torsion
[ 10718 10713 10712 10709 ] final   56.96 input   66.30 | X-H torsion
[ 10763 10752 10751 10750 ] final -157.71 input  -60.55 | X-H torsion
[ 11005 11000 10999 10996 ] final -160.52 input  -57.11 | X-H torsion

> <Gold.Protein.ActiveResidues>
 VAL166  LYS551  ARG553  GLY616  TRP617  ASP618  TYR619  PRO620  LYS621  CYS622 
 ASP623  PHE694  ASN695  SER759  ASP760  ASP761  ALA762  ILE779  LEU786  VAL792 
 PHE793  MET794  SER795  GLU796  ALA797  LYS798  CYS799  TRP800  GLU811  SER814 

> <Gold.Protein.RotatedAtoms>
  151.3446  133.3949  159.2674 H   0  0  0  0  0  0  0  0  0  0  0  0  # atno 6907 bound_to 6896
  150.9850  134.9198  159.7877 H   0  0  0  0  0  0  0  0  0  0  0  0  # atno 6908 bound_to 6896
  152.5229  134.3410  159.9269 H   0  0  0  0  0  0  0  0  0  0  0  0  # atno 6909 bound_to 6896
  144.8864  139.5623  143.5819 H   0  0  0  0  0  0  0  0  0  0  0  0  # atno 7974 bound_to 7965
  154.5212  140.0787  156.8174 H   0  0  0  0  0  0  0  0  0  0  0  0  # atno 8008 bound_to 7997
  155.3573  140.3416  155.4222 H   0  0  0  0  0  0  0  0  0  0  0  0  # atno 8009 bound_to 7997
  156.1683  140.1611  156.8480 H   0  0  0  0  0  0  0  0  0  0  0  0  # atno 8010 bound_to 7997
  139.4911  144.4100  151.9310 H   0  0  0  0  0  0  0  0  0  0  0  0  # atno 10167 bound_to 10162
  157.5475  130.8741  149.8912 H   0  0  0  0  0  0  0  0  0  0  0  0  # atno 10718 bound_to 10713
  154.7614  135.3119  154.8370 H   0  0  0  0  0  0  0  0  0  0  0  0  # atno 10763 bound_to 10752
  153.9130  135.6804  153.4754 H   0  0  0  0  0  0  0  0  0  0  0  0  # atno 10764 bound_to 10752
  153.1215  135.4820  154.9135 H   0  0  0  0  0  0  0  0  0  0  0  0  # atno 10765 bound_to 10752
  140.6306  134.4655  157.5229 H   0  0  0  0  0  0  0  0  0  0  0  0  # atno 11005 bound_to 11000
  146.3027  139.7478  142.9079 LP  0  0  0  0  0  0  0  0  0  0  0  0  # atno 17320 bound_to 7965
  145.3862  141.0365  143.3150 LP  0  0  0  0  0  0  0  0  0  0  0  0  # atno 17321 bound_to 7965
  140.3541  144.3053  150.5944 LP  0  0  0  0  0  0  0  0  0  0  0  0  # atno 17342 bound_to 10162
  140.5459  143.2215  151.8007 LP  0  0  0  0  0  0  0  0  0  0  0  0  # atno 17343 bound_to 10162
  156.0548  130.3710  150.1117 LP  0  0  0  0  0  0  0  0  0  0  0  0  # atno 17370 bound_to 10713
  156.9293  130.9708  151.3535 LP  0  0  0  0  0  0  0  0  0  0  0  0  # atno 17371 bound_to 10713
  139.9118  134.8330  156.1503 LP  0  0  0  0  0  0  0  0  0  0  0  0  # atno 17394 bound_to 11000
  141.0678  133.6811  156.2080 LP  0  0  0  0  0  0  0  0  0  0  0  0  # atno 17395 bound_to 11000

$$$$
