AV-unprocessed.smi:1395|AV-procd|sdf|5673|dock9
  -GOLD-   22720 5293D 1   1.00000     0.00000
 Structure written by MMmdl.
 42 43  0  0  0  0  0  0  0  0  3 V2000
  150.9522  144.7707  158.3648 C   0  0  0  0  0  0  0  0  0  0  0  0
  151.3589  143.3735  158.8041 C   0  0  0  0  0  0  0  0  0  0  0  0
  152.2451  143.2227  159.8920 C   0  0  0  0  0  0  0  0  0  0  0  0
  152.6210  141.9302  160.2963 C   0  0  0  0  0  0  0  0  0  0  0  0
  152.0915  140.8363  159.5906 C   0  0  0  0  0  0  0  0  0  0  0  0
  151.2439  140.9713  158.5503 N   0  0  0  0  0  0  0  0  0  0  0  0
  150.8722  142.2119  158.1463 C   0  0  0  0  0  0  0  0  0  0  0  0
  149.9763  142.4291  157.0616 N   0  0  0  0  0  0  0  0  0  0  0  0
  149.5076  141.5354  156.1727 C   0  0  0  0  0  0  0  0  0  0  0  0
  149.8368  140.3509  156.1089 O   0  0  0  0  0  0  0  0  0  0  0  0
  148.6196  142.1005  155.3416 N   0  0  0  0  0  0  0  0  0  0  0  0
  147.9113  141.4135  154.2613 C   0  0  2  0  0  0  0  0  0  0  0  0
  147.1583  142.4293  153.3851 C   0  0  0  0  0  0  0  0  0  0  0  0
  145.9522  143.0434  154.1206 C   0  0  0  0  0  0  0  0  0  0  0  0
  145.0275  141.9943  154.6217 N   0  3  2  0  0  0  0  0  0  0  0  0
  143.8047  142.5738  155.2323 C   0  0  0  0  0  0  0  0  0  0  0  0
  142.7722  141.4750  155.5039 C   0  0  0  0  0  0  0  0  0  0  0  0
  142.0590  141.1554  154.4068 N   0  5  0  0  0  0  0  0  0  0  0  0
  142.6676  141.0083  156.6362 O   0  0  0  0  0  0  0  0  0  0  0  0
  145.7222  141.0254  155.5123 C   0  0  0  0  0  0  0  0  0  0  0  0
  146.9137  140.3669  154.7965 C   0  0  0  0  0  0  0  0  0  0  0  0
  151.4074  145.5337  158.9970 H   0  0  0  0  0  0  0  0  0  0  0  0
  149.8700  144.8899  158.4227 H   0  0  0  0  0  0  0  0  0  0  0  0
  151.2682  144.9539  157.3374 H   0  0  0  0  0  0  0  0  0  0  0  0
  152.6340  144.0852  160.4133 H   0  0  0  0  0  0  0  0  0  0  0  0
  153.2973  141.7813  161.1249 H   0  0  0  0  0  0  0  0  0  0  0  0
  152.3535  139.8261  159.8681 H   0  0  0  0  0  0  0  0  0  0  0  0
  149.6381  143.3750  156.9664 H   0  0  0  0  0  0  0  0  0  0  0  0
  148.4178  143.0819  155.4640 H   0  0  0  0  0  0  0  0  0  0  0  0
  148.6549  140.9106  153.6405 H   0  0  0  0  0  0  0  0  0  0  0  0
  147.8349  143.2171  153.0516 H   0  0  0  0  0  0  0  0  0  0  0  0
  146.8065  141.9304  152.4810 H   0  0  0  0  0  0  0  0  0  0  0  0
  146.2889  143.6597  154.9556 H   0  0  0  0  0  0  0  0  0  0  0  0
  145.4192  143.7047  153.4365 H   0  0  0  0  0  0  0  0  0  0  0  0
  144.0590  143.1456  156.1275 H   0  0  0  0  0  0  0  0  0  0  0  0
  143.3407  143.2767  154.5390 H   0  0  0  0  0  0  0  0  0  0  0  0
  142.5420  140.7359  153.6034 H   0  0  0  0  0  0  0  0  0  0  0  0
  146.0581  141.5344  156.4169 H   0  0  0  0  0  0  0  0  0  0  0  0
  145.0322  140.2446  155.8324 H   0  0  0  0  0  0  0  0  0  0  0  0
  146.5408  139.7701  153.9631 H   0  0  0  0  0  0  0  0  0  0  0  0
  147.4095  139.6642  155.4670 H   0  0  0  0  0  0  0  0  0  0  0  0
  144.7139  141.4772  153.8125 H   0  0  0  0  0  0  0  0  0  0  0  0
  1  2  1  0  0  0  0
  1 22  1  0  0  0  0
  1 23  1  0  0  0  0
  1 24  1  0  0  0  0
  2  7  1  0  0  0  0
  2  3  2  0  0  0  0
  3  4  1  0  0  0  0
  3 25  1  0  0  0  0
  4  5  2  0  0  0  0
  4 26  1  0  0  0  0
  5  6  1  0  0  0  0
  5 27  1  0  0  0  0
  6  7  2  0  0  0  0
  7  8  1  0  0  0  0
  8  9  1  0  0  0  0
  8 28  1  0  0  0  0
  9 10  2  0  0  0  0
  9 11  1  0  0  0  0
 11 12  1  0  0  0  0
 11 29  1  0  0  0  0
 12 21  1  0  0  0  0
 12 13  1  0  0  0  0
 12 30  1  0  0  0  0
 13 14  1  0  0  0  0
 13 31  1  0  0  0  0
 13 32  1  0  0  0  0
 14 15  1  0  0  0  0
 14 33  1  0  0  0  0
 14 34  1  0  0  0  0
 15 16  1  0  0  0  0
 15 20  1  0  0  0  0
 15 42  1  0  0  0  0
 16 17  1  0  0  0  0
 16 35  1  0  0  0  0
 16 36  1  0  0  0  0
 17 18  1  0  0  0  0
 17 19  2  0  0  0  0
 18 37  1  0  0  0  0
 20 21  1  0  0  0  0
 20 38  1  0  0  0  0
 20 39  1  0  0  0  0
 21 40  1  0  0  0  0
 21 41  1  0  0  0  0
M  CHG  1  15   1
M  CHG  1  18  -1
M  END
> <s_m_source_file>
AV-unprocessed.smi

> <i_m_source_file_index>
1395

> <i_lp_mmshare_version>
43012

> <i_f3d_flags>
0

> <s_epik_input>
W0NIM11jMVtjSF1bY0hdW2NIXW5jMVtOSF1DKD1PKVtOSF1bQ0hdMltDSDJdW0NIMl1OKFtDSDJdW0NIMl0yKVtDSDJdQyg9TylbTkgyXQ==

> <s_epik_cmdline>
J2VwaWtfcHl0aG9uJywgJy1waCcsICc3LjAnLCAnLXRuJywgJzgnLCAnLW1hJywgJzIwMCcsICctbWV0YWxfYmluZGluZycsICctaW1hZScsICc8aW5maWxlLm1hZT4nLCAnLW9tYWUnLCAnPG91dGZpbGUubWFlPic=

> <r_epik_Ionization_Penalty>
5.72885

> <r_epik_Ionization_Penalty_Charging>
5.7288

> <r_epik_Ionization_Penalty_Neutral>
4.54304e-05

> <r_epik_State_Penalty>
6.54882

> <r_epik_Charging_Adjusted_Penalty>
12.2776

> <i_epik_Tot_Q>
0

> <i_epik_Tot_abs_Q>
2

> <r_epik_Metal_State_Penalty>
2.51297

> <b_epik_Metal_Only>
1

> <s_lp_Force_Field>
OPLS_2005

> <r_lp_Energy>
8.5501

> <b_lp_Chiralities_Consistent>
1

> <s_lp_Variant>
AV-unprocessed.smi:1395-5

> <Gold.Version>
5.8.1

> <Gold.Id.Protein>
6NUR|6NUR_protein|mol2

> <Gold.PLP.Fitness>
49.5263

> <Gold.PLP.PLP>
-35.5564

> <Gold.PLP.part.hbond>
-4.9937

> <Gold.PLP.part.metal>
0.0000

> <Gold.PLP.part.buried>
-6.1830

> <Gold.PLP.part.nonpolar>
-25.5263

> <Gold.PLP.part.repulsive>
0.2112

> <Gold.PLP.ligand.clash>
0.0000

> <Gold.PLP.ligand.torsion>
0.4189

> <Gold.PLP.Chemscore.Hbond>
4.9280

> <Gold.PLP.Chemscore.CHOScore>
0.0000

> <Gold.PLP.Chemscore.Metal>
0.0000

> <Gold.Chemscore.Hbonds>
donor molecule, donor type, donor heavy atom, donor atom, acceptor molecule, acceptor atom, score
      L1  H     8    28       P1  8028  0.90
      L1  H    11    29       P1  8028  1.00
      L1  H    15    42       P1 10175  1.80
      L1  H    18    37       P1 10175  0.90

> <Gold.PLP.Chemscore.Internal.Correction>
0.0237

> <Gold.Rescore>
     Score         DG    S(hbond)    S(metal)    S(lipo)     H(rot)  DE(clash)    DE(int)     intcor
     19.45     -21.94       3.59        0.00      80.43       1.93       0.87       1.63       ----

> <Gold.Chemscore.Fitness>
19.4462

> <Gold.Chemscore.DG>
-21.9437

> <Gold.Chemscore.ZeroCoef>
-5.4800

> <Gold.Chemscore.Hbond>
3.5943

> <Gold.Chemscore.Metal>
0.0000

> <Gold.Chemscore.Lipo>
80.4279

> <Gold.Chemscore.Internal_Hbond>
0.0000

> <Gold.Chemscore.DEClash>
0.8714

> <Gold.Chemscore.DEInternal>
1.6261

> <Gold.Chemscore.Rot>
1.9341

> <Gold.Chemscore.Internal.Correction>
   9.000000E+99

> <Gold.Chemscore.Hbonds>
donor molecule, donor type, donor heavy atom, donor atom, acceptor molecule, acceptor atom, score
      L1  H     8    28       P1  8028  0.83
      L1  H    11    29       P1  8028  0.97
      L1  H    15    42       P1 10175  0.18
      L1  H    18    37       P1 10175  0.17

> <Gold.Chemscore.Hbond.Weighted>
-12.0049

> <Gold.Chemscore.Metal.Weighted>
-0.0000

> <Gold.Chemscore.Lipo.Weighted>
-9.4101

> <Gold.Chemscore.Internal_Hbond.Weighted>
0.0000

> <Gold.Chemscore.DEClash.Weighted>
0.8714

> <Gold.Chemscore.DEInternal.Weighted>
1.6261

> <Gold.Chemscore.Rot.Weighted>
4.9512

> <Gold.Chemscore.Internal.Correction.Weighted>
   9.000000E+99

> <Gold.Protein.RotatedTorsions>
[ 6907 6896 6895 6894 ] final   17.45 input  -60.11 | X-H torsion
[ 7974 7965 7964 7962 ] final  152.37 input  175.53 | X-H torsion
[ 8008 7997 7996 7995 ] final  137.64 input   59.86 | X-H torsion
[ 10167 10162 10161 10158 ] final -165.61 input  -65.29 | X-H torsion
[ 10718 10713 10712 10709 ] final    9.91 input   66.30 | X-H torsion
[ 10763 10752 10751 10750 ] final   84.54 input  -60.55 | X-H torsion
[ 11005 11000 10999 10996 ] final  -17.16 input  -57.11 | X-H torsion

> <Gold.Protein.ActiveResidues>
 VAL166  LYS551  ARG553  GLY616  TRP617  ASP618  TYR619  PRO620  LYS621  CYS622 
 ASP623  PHE694  ASN695  SER759  ASP760  ASP761  ALA762  ILE779  LEU786  VAL792 
 PHE793  MET794  SER795  GLU796  ALA797  LYS798  CYS799  TRP800  GLU811  SER814 

> <Gold.Protein.RotatedAtoms>
  151.8498  135.0561  160.0457 H   0  0  0  0  0  0  0  0  0  0  0  0  # atno 6907 bound_to 6896
  152.2745  133.5408  159.5468 H   0  0  0  0  0  0  0  0  0  0  0  0  # atno 6908 bound_to 6896
  150.7165  134.0567  159.3859 H   0  0  0  0  0  0  0  0  0  0  0  0  # atno 6909 bound_to 6896
  144.8227  139.6660  143.6093 H   0  0  0  0  0  0  0  0  0  0  0  0  # atno 7974 bound_to 7965
  156.3001  140.2414  156.3943 H   0  0  0  0  0  0  0  0  0  0  0  0  # atno 8008 bound_to 7997
  154.8585  140.0421  157.1670 H   0  0  0  0  0  0  0  0  0  0  0  0  # atno 8009 bound_to 7997
  154.8922  140.2965  155.5368 H   0  0  0  0  0  0  0  0  0  0  0  0  # atno 8010 bound_to 7997
  139.6170  144.0699  152.1897 H   0  0  0  0  0  0  0  0  0  0  0  0  # atno 10167 bound_to 10162
  156.9732  130.5977  149.5670 H   0  0  0  0  0  0  0  0  0  0  0  0  # atno 10718 bound_to 10713
  153.1391  135.4650  154.9468 H   0  0  0  0  0  0  0  0  0  0  0  0  # atno 10763 bound_to 10752
  154.7732  135.3165  154.8149 H   0  0  0  0  0  0  0  0  0  0  0  0  # atno 10764 bound_to 10752
  153.8676  135.6906  153.4831 H   0  0  0  0  0  0  0  0  0  0  0  0  # atno 10765 bound_to 10752
  140.8141  133.8118  155.9592 H   0  0  0  0  0  0  0  0  0  0  0  0  # atno 11005 bound_to 11000
  146.2532  139.6246  142.9412 LP  0  0  0  0  0  0  0  0  0  0  0  0  # atno 17320 bound_to 7965
  145.5069  141.0436  143.2509 LP  0  0  0  0  0  0  0  0  0  0  0  0  # atno 17321 bound_to 7965
  140.0332  144.6065  150.7471 LP  0  0  0  0  0  0  0  0  0  0  0  0  # atno 17342 bound_to 10162
  140.7357  143.2745  151.3786 LP  0  0  0  0  0  0  0  0  0  0  0  0  # atno 17343 bound_to 10162
  156.0274  130.5367  150.8444 LP  0  0  0  0  0  0  0  0  0  0  0  0  # atno 17370 bound_to 10713
  157.5578  131.0945  150.9603 LP  0  0  0  0  0  0  0  0  0  0  0  0  # atno 17371 bound_to 10713
  140.9167  134.2192  157.4952 LP  0  0  0  0  0  0  0  0  0  0  0  0  # atno 17394 bound_to 11000
  139.8712  134.9774  156.4959 LP  0  0  0  0  0  0  0  0  0  0  0  0  # atno 17395 bound_to 11000

$$$$
