AV-unprocessed.smi:711|AV-procd|sdf|3465|dock2
  -GOLD-   22720 0453D 1   1.00000     0.00000
 Structure written by MMmdl.
 29 30  0  0  0  0  0  0  0  0  1 V2000
  146.9918  139.0796  152.8015 O   0  0  0  0  0  0  0  0  0  0  0  0
  147.9305  139.5258  153.4582 C   0  0  0  0  0  0  0  0  0  0  0  0
  149.0769  138.7488  153.6504 N   0  0  0  0  0  0  0  0  0  0  0  0
  150.2092  139.1337  154.3689 C   0  0  0  0  0  0  0  0  0  0  0  0
  151.1581  138.3569  154.4756 O   0  0  0  0  0  0  0  0  0  0  0  0
  150.1895  140.4262  154.9423 N   0  0  0  0  0  0  0  0  0  0  0  0
  151.3404  140.8576  155.6994 C   0  0  0  0  0  0  0  0  0  0  0  0
  151.6085  139.9945  156.9512 C   0  0  1  0  0  0  0  0  0  0  0  0
  152.6800  139.1092  156.6884 O   0  0  0  0  0  0  0  0  0  0  0  0
  151.9008  140.8786  158.1576 C   0  0  0  0  0  0  0  0  0  0  0  0
  151.4347  142.2124  158.1968 C   0  0  0  0  0  0  0  0  0  0  0  0
  151.6894  143.0236  159.3194 C   0  0  0  0  0  0  0  0  0  0  0  0
  152.4082  142.5063  160.4134 C   0  0  0  0  0  0  0  0  0  0  0  0
  152.6517  143.2852  161.4938 F   0  0  0  0  0  0  0  0  0  0  0  0
  152.8703  141.1770  160.3842 C   0  0  0  0  0  0  0  0  0  0  0  0
  152.6159  140.3632  159.2628 C   0  0  0  0  0  0  0  0  0  0  0  0
  153.0577  139.0824  159.2584 F   0  0  0  0  0  0  0  0  0  0  0  0
  149.0689  141.2277  154.7858 C   0  0  0  0  0  0  0  0  0  0  0  0
  147.9723  140.8444  154.0887 C   0  0  0  0  0  0  0  0  0  0  0  0
  146.6152  141.9022  153.9375 Cl  0  0  0  0  0  0  0  0  0  0  0  0
  149.0860  137.8289  153.2341 H   0  0  0  0  0  0  0  0  0  0  0  0
  152.2025  140.9527  155.0358 H   0  0  0  0  0  0  0  0  0  0  0  0
  151.0924  141.8780  155.9980 H   0  0  0  0  0  0  0  0  0  0  0  0
  150.7327  139.3823  157.1702 H   0  0  0  0  0  0  0  0  0  0  0  0
  152.3397  138.3498  156.2405 H   0  0  0  0  0  0  0  0  0  0  0  0
  150.8747  142.6185  157.3671 H   0  0  0  0  0  0  0  0  0  0  0  0
  151.3307  144.0422  159.3419 H   0  0  0  0  0  0  0  0  0  0  0  0
  153.4177  140.7785  161.2255 H   0  0  0  0  0  0  0  0  0  0  0  0
  149.0668  142.2073  155.2433 H   0  0  0  0  0  0  0  0  0  0  0  0
  1  2  2  0  0  0  0
  2 19  1  0  0  0  0
  2  3  1  0  0  0  0
  3 21  1  0  0  0  0
  3  4  1  0  0  0  0
  4  5  2  0  0  0  0
  4  6  1  0  0  0  0
  6  7  1  0  0  0  0
  6 18  1  0  0  0  0
  7  8  1  0  0  0  0
  7 22  1  0  0  0  0
  7 23  1  0  0  0  0
  8  9  1  0  0  0  0
  8 10  1  0  0  0  0
  8 24  1  0  0  0  0
  9 25  1  0  0  0  0
 10 16  1  0  0  0  0
 10 11  2  0  0  0  0
 11 12  1  0  0  0  0
 11 26  1  0  0  0  0
 12 13  2  0  0  0  0
 12 27  1  0  0  0  0
 13 14  1  0  0  0  0
 13 15  1  0  0  0  0
 15 16  2  0  0  0  0
 15 28  1  0  0  0  0
 16 17  1  0  0  0  0
 18 19  2  0  0  0  0
 18 29  1  0  0  0  0
 19 20  1  0  0  0  0
M  END
> <s_m_source_file>
AV-unprocessed.smi

> <i_m_source_file_index>
711

> <i_lp_mmshare_version>
43012

> <i_f3d_flags>
0

> <s_epik_input>
Tz1jMVtuSF1jKD1PKW4oW2NIXWMxQ2wpW0NIMl1bQ0BIXShbT0hdKWMyW2NIXVtjSF1jKEYpW2NIXWMyRg==

> <s_epik_cmdline>
J2VwaWtfcHl0aG9uJywgJy1waCcsICc3LjAnLCAnLXRuJywgJzgnLCAnLW1hJywgJzIwMCcsICctbWV0YWxfYmluZGluZycsICctaW1hZScsICc8aW5maWxlLm1hZT4nLCAnLW9tYWUnLCAnPG91dGZpbGUubWFlPic=

> <r_lp_tautomer_probability>
0.999537

> <r_epik_Ionization_Penalty>
0.0292058

> <r_epik_Ionization_Penalty_Charging>
0.0292057

> <r_epik_Ionization_Penalty_Neutral>
9.07348e-08

> <r_epik_State_Penalty>
0.0240115

> <r_epik_Charging_Adjusted_Penalty>
0.0532172

> <i_epik_Tot_Q>
0

> <i_epik_Tot_abs_Q>
0

> <r_epik_Metal_State_Penalty>
2.21956

> <b_epik_Metal_Only>
0

> <s_lp_Force_Field>
OPLS_2005

> <r_lp_Energy>
13.2316

> <b_lp_Chiralities_Consistent>
1

> <s_lp_Variant>
AV-unprocessed.smi:711-2

> <Gold.Version>
5.8.1

> <Gold.Id.Protein>
6NUR|6NUR_protein|mol2

> <Gold.PLP.Fitness>
47.3609

> <Gold.PLP.PLP>
-41.5672

> <Gold.PLP.part.hbond>
-2.8534

> <Gold.PLP.part.metal>
0.0000

> <Gold.PLP.part.buried>
-1.2254

> <Gold.PLP.part.nonpolar>
-37.1933

> <Gold.PLP.part.repulsive>
0.4984

> <Gold.PLP.ligand.clash>
0.0000

> <Gold.PLP.ligand.torsion>
1.3042

> <Gold.PLP.Chemscore.Hbond>
1.8125

> <Gold.PLP.Chemscore.CHOScore>
0.9827

> <Gold.PLP.Chemscore.Metal>
0.0000

> <Gold.Chemscore.Hbonds>
donor molecule, donor type, donor heavy atom, donor atom, acceptor molecule, acceptor atom, score
      L1  H     3    21       P1  7948  0.86
      P1  H  7997  8009       L1     9  1.00
      L1  C    18    29       P1  8028  0.96

> <Gold.PLP.Chemscore.Internal.Correction>
0.0166

> <Gold.Rescore>
     Score         DG    S(hbond)    S(metal)    S(lipo)     H(rot)  DE(clash)    DE(int)     intcor
     12.07     -15.61       1.89        0.00      84.49       2.37       0.26       3.27       ----

> <Gold.Chemscore.Fitness>
12.0708

> <Gold.Chemscore.DG>
-15.6079

> <Gold.Chemscore.ZeroCoef>
-5.4800

> <Gold.Chemscore.Hbond>
1.8854

> <Gold.Chemscore.Metal>
0.0000

> <Gold.Chemscore.Lipo>
84.4895

> <Gold.Chemscore.Internal_Hbond>
0.0000

> <Gold.Chemscore.DEClash>
0.2640

> <Gold.Chemscore.DEInternal>
3.2731

> <Gold.Chemscore.Rot>
2.3652

> <Gold.Chemscore.Internal.Correction>
   9.000000E+99

> <Gold.Chemscore.Hbonds>
donor molecule, donor type, donor heavy atom, donor atom, acceptor molecule, acceptor atom, score
      L1  H     3    21       P1  7948  0.84
      P1  H  7997  8009       L1     9  0.77

> <Gold.Chemscore.Hbond.Weighted>
-6.2974

> <Gold.Chemscore.Metal.Weighted>
-0.0000

> <Gold.Chemscore.Lipo.Weighted>
-9.8853

> <Gold.Chemscore.Internal_Hbond.Weighted>
0.0000

> <Gold.Chemscore.DEClash.Weighted>
0.2640

> <Gold.Chemscore.DEInternal.Weighted>
3.2731

> <Gold.Chemscore.Rot.Weighted>
6.0548

> <Gold.Chemscore.Internal.Correction.Weighted>
   9.000000E+99

> <Gold.Protein.RotatedTorsions>
[ 6907 6896 6895 6894 ] final   13.87 input  -60.11 | X-H torsion
[ 7974 7965 7964 7962 ] final -134.25 input  175.53 | X-H torsion
[ 8008 7997 7996 7995 ] final  173.20 input   59.86 | X-H torsion
[ 10167 10162 10161 10158 ] final  110.91 input  -65.29 | X-H torsion
[ 10718 10713 10712 10709 ] final -128.47 input   66.30 | X-H torsion
[ 10763 10752 10751 10750 ] final -172.69 input  -60.55 | X-H torsion
[ 11005 11000 10999 10996 ] final  106.17 input  -57.11 | X-H torsion

> <Gold.Protein.ActiveResidues>
 VAL166  LYS551  ARG553  GLY616  TRP617  ASP618  TYR619  PRO620  LYS621  CYS622 
 ASP623  PHE694  ASN695  SER759  ASP760  ASP761  ALA762  ILE779  LEU786  VAL792 
 PHE793  MET794  SER795  GLU796  ALA797  LYS798  CYS799  TRP800  GLU811  SER814 

> <Gold.Protein.RotatedAtoms>
  151.7932  135.0730  160.0389 H   0  0  0  0  0  0  0  0  0  0  0  0  # atno 6907 bound_to 6896
  152.3142  133.5780  159.5709 H   0  0  0  0  0  0  0  0  0  0  0  0  # atno 6908 bound_to 6896
  150.7335  134.0023  159.3684 H   0  0  0  0  0  0  0  0  0  0  0  0  # atno 6909 bound_to 6896
  144.9119  140.6906  143.5019 H   0  0  0  0  0  0  0  0  0  0  0  0  # atno 7974 bound_to 7965
  156.1099  140.1466  156.9353 H   0  0  0  0  0  0  0  0  0  0  0  0  # atno 8008 bound_to 7997
  154.4759  140.0894  156.7305 H   0  0  0  0  0  0  0  0  0  0  0  0  # atno 8009 bound_to 7997
  155.4615  140.3438  155.4315 H   0  0  0  0  0  0  0  0  0  0  0  0  # atno 8010 bound_to 7997
  139.6652  144.7127  151.1790 H   0  0  0  0  0  0  0  0  0  0  0  0  # atno 10167 bound_to 10162
  156.1954  130.6822  151.0475 H   0  0  0  0  0  0  0  0  0  0  0  0  # atno 10718 bound_to 10713
  154.6165  135.2870  155.0374 H   0  0  0  0  0  0  0  0  0  0  0  0  # atno 10763 bound_to 10752
  154.1585  135.6492  153.4984 H   0  0  0  0  0  0  0  0  0  0  0  0  # atno 10764 bound_to 10752
  153.0217  135.5372  154.6938 H   0  0  0  0  0  0  0  0  0  0  0  0  # atno 10765 bound_to 10752
  139.8811  134.9360  156.5625 H   0  0  0  0  0  0  0  0  0  0  0  0  # atno 11005 bound_to 11000
  145.3440  139.1724  143.4470 LP  0  0  0  0  0  0  0  0  0  0  0  0  # atno 17320 bound_to 7965
  146.3163  140.3484  142.8654 LP  0  0  0  0  0  0  0  0  0  0  0  0  # atno 17321 bound_to 7965
  140.7596  143.5931  150.8776 LP  0  0  0  0  0  0  0  0  0  0  0  0  # atno 17342 bound_to 10162
  139.9592  143.6184  152.3007 LP  0  0  0  0  0  0  0  0  0  0  0  0  # atno 17343 bound_to 10162
  157.6954  131.0796  150.6984 LP  0  0  0  0  0  0  0  0  0  0  0  0  # atno 17370 bound_to 10713
  156.7041  130.4632  149.5565 LP  0  0  0  0  0  0  0  0  0  0  0  0  # atno 17371 bound_to 10713
  140.8158  133.8392  155.8851 LP  0  0  0  0  0  0  0  0  0  0  0  0  # atno 17394 bound_to 11000
  140.9464  134.1835  157.4760 LP  0  0  0  0  0  0  0  0  0  0  0  0  # atno 17395 bound_to 11000

$$$$
