AV-unprocessed.smi:309|AV-procd|sdf|2294|dock2
  -GOLD-   2262022193D 1   1.00000     0.00000
 Structure written by MMmdl.
 37 39  0  0  0  0  0  0  0  0  2 V2000
  151.6547  136.3587  153.5561 O   0  0  0  0  0  0  0  0  0  0  0  0
  151.9299  137.5437  154.2682 C   0  0  0  0  0  0  0  0  0  0  0  0
  150.7198  138.4049  154.4261 C   0  0  0  0  0  0  0  0  0  0  0  0
  149.5285  138.2184  153.7905 N   0  3  0  0  0  0  0  0  0  0  0  0
  148.6238  139.2064  154.1799 C   0  0  0  0  0  0  0  0  0  0  0  0
  147.3027  139.4320  153.8050 C   0  0  0  0  0  0  0  0  0  0  0  0
  146.6579  140.5390  154.3949 C   0  0  0  0  0  0  0  0  0  0  0  0
  147.3246  141.3710  155.3179 C   0  0  0  0  0  0  0  0  0  0  0  0
  148.6638  141.1316  155.6899 C   0  0  0  0  0  0  0  0  0  0  0  0
  149.2942  140.0353  155.1022 C   0  0  0  0  0  0  0  0  0  0  0  0
  150.5825  139.5029  155.2266 N   0  0  0  0  0  0  0  0  0  0  0  0
  151.5376  140.1559  156.1373 C   0  0  0  0  0  0  0  0  0  0  0  0
  151.3079  139.7929  157.6186 C   0  0  1  0  0  0  0  0  0  0  0  0
  151.3356  138.3866  157.7731 O   0  0  0  0  0  0  0  0  0  0  0  0
  152.3191  140.5000  158.5171 C   0  0  0  0  0  0  0  0  0  0  0  0
  152.1325  141.8652  158.8357 C   0  0  0  0  0  0  0  0  0  0  0  0
  153.0425  142.5391  159.6722 C   0  0  0  0  0  0  0  0  0  0  0  0
  152.7970  144.2045  160.0494 Cl  0  0  0  0  0  0  0  0  0  0  0  0
  154.1499  141.8529  160.2024 C   0  0  0  0  0  0  0  0  0  0  0  0
  154.3409  140.4922  159.8997 C   0  0  0  0  0  0  0  0  0  0  0  0
  153.4315  139.8116  159.0654 C   0  0  0  0  0  0  0  0  0  0  0  0
  153.7084  138.1342  158.7496 Cl  0  0  0  0  0  0  0  0  0  0  0  0
  151.2759  136.5937  152.7218 H   0  0  0  0  0  0  0  0  0  0  0  0
  152.3397  137.2913  155.2456 H   0  0  0  0  0  0  0  0  0  0  0  0
  152.7011  138.1013  153.7362 H   0  0  0  0  0  0  0  0  0  0  0  0
  146.7902  138.7963  153.0980 H   0  0  0  0  0  0  0  0  0  0  0  0
  145.6318  140.7548  154.1344 H   0  0  0  0  0  0  0  0  0  0  0  0
  146.7986  142.2104  155.7492 H   0  0  0  0  0  0  0  0  0  0  0  0
  149.1649  141.7758  156.3964 H   0  0  0  0  0  0  0  0  0  0  0  0
  152.5446  139.8738  155.8297 H   0  0  0  0  0  0  0  0  0  0  0  0
  151.4694  141.2344  155.9887 H   0  0  0  0  0  0  0  0  0  0  0  0
  150.3000  140.0886  157.9064 H   0  0  0  0  0  0  0  0  0  0  0  0
  151.9194  138.1755  158.4861 H   0  0  0  0  0  0  0  0  0  0  0  0
  151.2827  142.4041  158.4423 H   0  0  0  0  0  0  0  0  0  0  0  0
  154.8504  142.3661  160.8448 H   0  0  0  0  0  0  0  0  0  0  0  0
  155.1884  139.9666  160.3149 H   0  0  0  0  0  0  0  0  0  0  0  0
  149.3505  137.4651  153.1387 H   0  0  0  0  0  0  0  0  0  0  0  0
  1  2  1  0  0  0  0
  1 23  1  0  0  0  0
  2  3  1  0  0  0  0
  2 24  1  0  0  0  0
  2 25  1  0  0  0  0
  3 11  1  0  0  0  0
  3  4  2  0  0  0  0
  4  5  1  0  0  0  0
  4 37  1  0  0  0  0
  5 10  2  0  0  0  0
  5  6  1  0  0  0  0
  6  7  2  0  0  0  0
  6 26  1  0  0  0  0
  7  8  1  0  0  0  0
  7 27  1  0  0  0  0
  8  9  2  0  0  0  0
  8 28  1  0  0  0  0
  9 10  1  0  0  0  0
  9 29  1  0  0  0  0
 10 11  1  0  0  0  0
 11 12  1  0  0  0  0
 12 13  1  0  0  0  0
 12 30  1  0  0  0  0
 12 31  1  0  0  0  0
 13 14  1  0  0  0  0
 13 15  1  0  0  0  0
 13 32  1  0  0  0  0
 14 33  1  0  0  0  0
 15 21  1  0  0  0  0
 15 16  2  0  0  0  0
 16 17  1  0  0  0  0
 16 34  1  0  0  0  0
 17 18  1  0  0  0  0
 17 19  2  0  0  0  0
 19 20  1  0  0  0  0
 19 35  1  0  0  0  0
 20 21  2  0  0  0  0
 20 36  1  0  0  0  0
 21 22  1  0  0  0  0
M  CHG  1   4   1
M  END
> <s_m_source_file>
AV-unprocessed.smi

> <i_m_source_file_index>
309

> <i_lp_mmshare_version>
43012

> <i_f3d_flags>
0

> <s_epik_input>
W2NIXTFbY0hdW2NIXVtjSF1jKGMxMiluKGMobjIpW0NIMl1bT0hdKVtDSDJdW0NASF0oW09IXSljM1tjSF1jKENsKVtjSF1bY0hdYzNDbA==

> <s_epik_cmdline>
J2VwaWtfcHl0aG9uJywgJy1waCcsICc3LjAnLCAnLXRuJywgJzgnLCAnLW1hJywgJzIwMCcsICctbWV0YWxfYmluZGluZycsICctaW1hZScsICc8aW5maWxlLm1hZT4nLCAnLW9tYWUnLCAnPG91dGZpbGUubWFlPic=

> <r_epik_Ionization_Penalty>
1.35643

> <r_epik_Ionization_Penalty_Charging>
1.35557

> <r_epik_Ionization_Penalty_Neutral>
0.000861512

> <r_epik_State_Penalty>
1.43401

> <r_epik_Charging_Adjusted_Penalty>
2.78958

> <i_epik_Tot_Q>
1

> <i_epik_Tot_abs_Q>
1

> <r_epik_Metal_State_Penalty>
5.47166

> <b_epik_Metal_Only>
0

> <s_lp_Force_Field>
OPLS_2005

> <r_lp_Energy>
14.3567

> <b_lp_Chiralities_Consistent>
1

> <s_lp_Variant>
AV-unprocessed.smi:309-4

> <Gold.Version>
5.8.1

> <Gold.Id.Protein>
6NUR|6NUR_protein|mol2

> <Gold.PLP.Fitness>
63.8169

> <Gold.PLP.PLP>
-53.6084

> <Gold.PLP.part.hbond>
-4.0294

> <Gold.PLP.part.metal>
0.0000

> <Gold.PLP.part.buried>
1.9618

> <Gold.PLP.part.nonpolar>
-51.1903

> <Gold.PLP.part.repulsive>
0.0727

> <Gold.PLP.ligand.clash>
0.0000

> <Gold.PLP.ligand.torsion>
0.9004

> <Gold.PLP.Chemscore.Hbond>
3.9920

> <Gold.PLP.Chemscore.CHOScore>
0.0000

> <Gold.PLP.Chemscore.Metal>
0.0000

> <Gold.Chemscore.Hbonds>
donor molecule, donor type, donor heavy atom, donor atom, acceptor molecule, acceptor atom, score
      L1  H     1    23       P1  7949  0.43
      L1  H     4    37       P1  7948  2.00
      P1  H 10752 10763       L1     1  0.45

> <Gold.PLP.Chemscore.Internal.Correction>
0.0334

> <Gold.Rescore>
     Score         DG    S(hbond)    S(metal)    S(lipo)     H(rot)  DE(clash)    DE(int)     intcor
     18.35     -21.94       2.55        0.00     127.03       2.70       0.91       2.68       ----

> <Gold.Chemscore.Fitness>
18.3525

> <Gold.Chemscore.DG>
-21.9444

> <Gold.Chemscore.ZeroCoef>
-5.4800

> <Gold.Chemscore.Hbond>
2.5462

> <Gold.Chemscore.Metal>
0.0000

> <Gold.Chemscore.Lipo>
127.0309

> <Gold.Chemscore.Internal_Hbond>
0.0000

> <Gold.Chemscore.DEClash>
0.9135

> <Gold.Chemscore.DEInternal>
2.6785

> <Gold.Chemscore.Rot>
2.6963

> <Gold.Chemscore.Internal.Correction>
   9.000000E+99

> <Gold.Chemscore.Hbonds>
donor molecule, donor type, donor heavy atom, donor atom, acceptor molecule, acceptor atom, score
      L1  H     1    23       P1  7949  0.30
      L1  H     4    37       P1  7948  0.96
      P1  H 10752 10763       L1     1  0.01

> <Gold.Chemscore.Hbond.Weighted>
-8.5042

> <Gold.Chemscore.Metal.Weighted>
-0.0000

> <Gold.Chemscore.Lipo.Weighted>
-14.8626

> <Gold.Chemscore.Internal_Hbond.Weighted>
0.0000

> <Gold.Chemscore.DEClash.Weighted>
0.9135

> <Gold.Chemscore.DEInternal.Weighted>
2.6785

> <Gold.Chemscore.Rot.Weighted>
6.9024

> <Gold.Chemscore.Internal.Correction.Weighted>
   9.000000E+99

> <Gold.Protein.RotatedTorsions>
[ 6907 6896 6895 6894 ] final   -7.36 input  -60.11 | X-H torsion
[ 7974 7965 7964 7962 ] final -163.63 input  175.53 | X-H torsion
[ 8008 7997 7996 7995 ] final -112.45 input   59.86 | X-H torsion
[ 10167 10162 10161 10158 ] final   88.61 input  -65.29 | X-H torsion
[ 10718 10713 10712 10709 ] final  172.75 input   66.30 | X-H torsion
[ 10763 10752 10751 10750 ] final   47.58 input  -60.55 | X-H torsion
[ 11005 11000 10999 10996 ] final -134.07 input  -57.11 | X-H torsion

> <Gold.Protein.ActiveResidues>
 VAL166  LYS551  ARG553  GLY616  TRP617  ASP618  TYR619  PRO620  LYS621  CYS622 
 ASP623  PHE694  ASN695  SER759  ASP760  ASP761  ALA762  ILE779  LEU786  VAL792 
 PHE793  MET794  SER795  GLU796  ALA797  LYS798  CYS799  TRP800  GLU811  SER814 

> <Gold.Protein.RotatedAtoms>
  151.4509  135.1029  159.9697 H   0  0  0  0  0  0  0  0  0  0  0  0  # atno 6907 bound_to 6896
  152.4888  133.8441  159.7178 H   0  0  0  0  0  0  0  0  0  0  0  0  # atno 6908 bound_to 6896
  150.9023  133.7043  159.2903 H   0  0  0  0  0  0  0  0  0  0  0  0  # atno 6909 bound_to 6896
  144.7320  140.3080  143.6193 H   0  0  0  0  0  0  0  0  0  0  0  0  # atno 7974 bound_to 7965
  155.0054  140.0394  157.2377 H   0  0  0  0  0  0  0  0  0  0  0  0  # atno 8008 bound_to 7997
  154.7507  140.2766  155.6272 H   0  0  0  0  0  0  0  0  0  0  0  0  # atno 8009 bound_to 7997
  156.2884  140.2647  156.2260 H   0  0  0  0  0  0  0  0  0  0  0  0  # atno 8010 bound_to 7997
  139.8655  144.6521  150.9009 H   0  0  0  0  0  0  0  0  0  0  0  0  # atno 10167 bound_to 10162
  156.9744  131.0100  151.2897 H   0  0  0  0  0  0  0  0  0  0  0  0  # atno 10718 bound_to 10713
  152.9799  135.5972  154.3785 H   0  0  0  0  0  0  0  0  0  0  0  0  # atno 10763 bound_to 10752
  154.3452  135.2767  155.2403 H   0  0  0  0  0  0  0  0  0  0  0  0  # atno 10764 bound_to 10752
  154.4467  135.6000  153.6220 H   0  0  0  0  0  0  0  0  0  0  0  0  # atno 10765 bound_to 10752
  140.9024  134.1674  157.4451 H   0  0  0  0  0  0  0  0  0  0  0  0  # atno 11005 bound_to 11000
  145.7694  139.1852  143.2221 LP  0  0  0  0  0  0  0  0  0  0  0  0  # atno 17320 bound_to 7965
  146.0923  140.7641  142.9589 LP  0  0  0  0  0  0  0  0  0  0  0  0  # atno 17321 bound_to 7965
  140.7769  143.3708  151.1653 LP  0  0  0  0  0  0  0  0  0  0  0  0  # atno 17342 bound_to 10162
  139.7333  143.9038  152.3026 LP  0  0  0  0  0  0  0  0  0  0  0  0  # atno 17343 bound_to 10162
  157.5570  130.8220  149.8217 LP  0  0  0  0  0  0  0  0  0  0  0  0  # atno 17370 bound_to 10713
  156.0270  130.3776  150.1796 LP  0  0  0  0  0  0  0  0  0  0  0  0  # atno 17371 bound_to 10713
  139.8744  134.9903  156.5497 LP  0  0  0  0  0  0  0  0  0  0  0  0  # atno 17394 bound_to 11000
  140.8214  133.8351  155.8899 LP  0  0  0  0  0  0  0  0  0  0  0  0  # atno 17395 bound_to 11000

$$$$
