AV-unprocessed.smi:1961|AV-procd|sdf|7919|dock3
  -GOLD-   2272010 83D 1   1.00000     0.00000
 Structure written by MMmdl.
 36 37  0  0  0  0  0  0  0  0  1 V2000
  151.8122  140.2138  159.1008 C   0  0  0  0  0  0  0  0  0  0  0  0
  151.9390  141.1945  157.9260 C   0  0  0  0  0  0  0  0  0  0  0  0
  151.3079  142.5644  158.2148 C   0  0  0  0  0  0  0  0  0  0  0  0
  151.4457  140.6054  156.6409 C   0  0  0  0  0  0  0  0  0  0  0  0
  152.2455  140.3653  155.5929 N   0  0  0  0  0  0  0  0  0  0  0  0
  151.5599  139.8139  154.5198 N   0  0  0  0  0  0  0  0  0  0  0  0
  150.2577  139.6503  154.7896 C   0  0  0  0  0  0  0  0  0  0  0  0
  149.3242  139.0978  153.8731 N   0  0  0  0  0  0  0  0  0  0  0  0
  147.9824  139.1811  153.8972 C   0  0  0  0  0  0  0  0  0  0  0  0
  147.3199  139.7503  154.7649 O   0  0  0  0  0  0  0  0  0  0  0  0
  147.4400  138.5527  152.8441 N   0  0  0  0  0  0  0  0  0  0  0  0
  146.0116  138.4483  152.5626 C   0  0  0  0  0  0  0  0  0  0  0  0
  145.5342  136.9862  152.5649 C   0  0  1  0  0  0  0  0  0  0  0  0
  144.0476  136.7891  152.8627 C   0  0  0  0  0  0  0  0  0  0  0  0
  143.7851  135.4482  152.2171 C   0  0  0  0  0  0  0  0  0  0  0  0
  144.6434  135.5357  150.9585 C   0  0  0  0  0  0  0  0  0  0  0  0
  145.7298  136.4016  151.2799 O   0  0  0  0  0  0  0  0  0  0  0  0
  149.7590  140.1664  156.3914 S   0  0  0  0  0  0  0  0  0  0  0  0
  152.3452  139.2848  158.8956 H   0  0  0  0  0  0  0  0  0  0  0  0
  150.7695  139.9635  159.2987 H   0  0  0  0  0  0  0  0  0  0  0  0
  152.2300  140.6398  160.0132 H   0  0  0  0  0  0  0  0  0  0  0  0
  153.0068  141.3724  157.7917 H   0  0  0  0  0  0  0  0  0  0  0  0
  151.4923  143.2615  157.3968 H   0  0  0  0  0  0  0  0  0  0  0  0
  151.7220  143.0042  159.1225 H   0  0  0  0  0  0  0  0  0  0  0  0
  150.2285  142.4838  158.3480 H   0  0  0  0  0  0  0  0  0  0  0  0
  149.7270  138.5863  153.1020 H   0  0  0  0  0  0  0  0  0  0  0  0
  148.0624  138.1115  152.1831 H   0  0  0  0  0  0  0  0  0  0  0  0
  145.4254  139.0444  153.2641 H   0  0  0  0  0  0  0  0  0  0  0  0
  145.8387  138.8828  151.5779 H   0  0  0  0  0  0  0  0  0  0  0  0
  146.1221  136.4045  153.2770 H   0  0  0  0  0  0  0  0  0  0  0  0
  143.8196  136.8037  153.9289 H   0  0  0  0  0  0  0  0  0  0  0  0
  143.4510  137.5608  152.3739 H   0  0  0  0  0  0  0  0  0  0  0  0
  144.1441  134.6458  152.8630 H   0  0  0  0  0  0  0  0  0  0  0  0
  142.7305  135.2715  152.0042 H   0  0  0  0  0  0  0  0  0  0  0  0
  144.9969  134.5581  150.6295 H   0  0  0  0  0  0  0  0  0  0  0  0
  144.0766  135.9830  150.1413 H   0  0  0  0  0  0  0  0  0  0  0  0
  1  2  1  0  0  0  0
  1 19  1  0  0  0  0
  1 20  1  0  0  0  0
  1 21  1  0  0  0  0
  2  3  1  0  0  0  0
  2  4  1  0  0  0  0
  2 22  1  0  0  0  0
  3 23  1  0  0  0  0
  3 24  1  0  0  0  0
  3 25  1  0  0  0  0
  4 18  1  0  0  0  0
  4  5  2  0  0  0  0
  5  6  1  0  0  0  0
  6  7  2  0  0  0  0
  7  8  1  0  0  0  0
  7 18  1  0  0  0  0
  8  9  1  0  0  0  0
  8 26  1  0  0  0  0
  9 10  2  0  0  0  0
  9 11  1  0  0  0  0
 11 12  1  0  0  0  0
 11 27  1  0  0  0  0
 12 13  1  0  0  0  0
 12 28  1  0  0  0  0
 12 29  1  0  0  0  0
 13 17  1  0  0  0  0
 13 14  1  0  0  0  0
 13 30  1  0  0  0  0
 14 15  1  0  0  0  0
 14 31  1  0  0  0  0
 14 32  1  0  0  0  0
 15 16  1  0  0  0  0
 15 33  1  0  0  0  0
 15 34  1  0  0  0  0
 16 17  1  0  0  0  0
 16 35  1  0  0  0  0
 16 36  1  0  0  0  0
M  END
> <s_m_source_file>
AV-unprocessed.smi

> <i_m_source_file_index>
1961

> <i_lp_mmshare_version>
43012

> <i_f3d_flags>
0

> <s_epik_input>
W0NIM11bQ0hdKFtDSDNdKWMxbm5jKHMxKVtOSF1DKD1PKVtOSF1bQ0gyXVtDQEBIXTJbQ0gyXVtDSDJdW0NIMl1PMg==

> <s_epik_cmdline>
J2VwaWtfcHl0aG9uJywgJy1waCcsICc3LjAnLCAnLXRuJywgJzgnLCAnLW1hJywgJzIwMCcsICctbWV0YWxfYmluZGluZycsICctaW1hZScsICc8aW5maWxlLm1hZT4nLCAnLW9tYWUnLCAnPG91dGZpbGUubWFlPic=

> <r_lp_tautomer_probability>
1

> <r_epik_Ionization_Penalty>
0.000505257

> <r_epik_Ionization_Penalty_Charging>
0

> <r_epik_Ionization_Penalty_Neutral>
0.000505257

> <r_epik_State_Penalty>
-0

> <r_epik_Charging_Adjusted_Penalty>
0

> <i_epik_Tot_Q>
0

> <i_epik_Tot_abs_Q>
0

> <r_epik_Metal_State_Penalty>
0.219912

> <b_epik_Metal_Only>
0

> <s_lp_Force_Field>
OPLS_2005

> <r_lp_Energy>
10.2881

> <b_lp_Chiralities_Consistent>
1

> <s_lp_Variant>
AV-unprocessed.smi:1961-2

> <Gold.Version>
5.8.1

> <Gold.Id.Protein>
6NUR|6NUR_protein|mol2

> <Gold.PLP.Fitness>
37.1024

> <Gold.PLP.PLP>
-29.8791

> <Gold.PLP.part.hbond>
-5.5374

> <Gold.PLP.part.metal>
0.0000

> <Gold.PLP.part.buried>
-2.9233

> <Gold.PLP.part.nonpolar>
-22.6857

> <Gold.PLP.part.repulsive>
0.9064

> <Gold.PLP.ligand.clash>
0.0000

> <Gold.PLP.ligand.torsion>
0.3953

> <Gold.PLP.Chemscore.Hbond>
2.6413

> <Gold.PLP.Chemscore.CHOScore>
0.0000

> <Gold.PLP.Chemscore.Metal>
0.0000

> <Gold.Chemscore.Hbonds>
donor molecule, donor type, donor heavy atom, donor atom, acceptor molecule, acceptor atom, score
      L1  H     8    26       P1  7957  0.01
      L1  H    11    27       P1  7948  0.70
      P1  H  7989  7998       L1     6  0.83
      P1  H  7997  8009       L1     5  0.62

> <Gold.PLP.Chemscore.Internal.Correction>
0.0901

> <Gold.Rescore>
     Score         DG    S(hbond)    S(metal)    S(lipo)     H(rot)  DE(clash)    DE(int)     intcor
     12.82     -14.77       1.86        0.00      57.91       1.45       0.43       1.52       ----

> <Gold.Chemscore.Fitness>
12.8171

> <Gold.Chemscore.DG>
-14.7655

> <Gold.Chemscore.ZeroCoef>
-5.4800

> <Gold.Chemscore.Hbond>
1.8599

> <Gold.Chemscore.Metal>
0.0000

> <Gold.Chemscore.Lipo>
57.9086

> <Gold.Chemscore.Internal_Hbond>
0.0000

> <Gold.Chemscore.DEClash>
0.4325

> <Gold.Chemscore.DEInternal>
1.5160

> <Gold.Chemscore.Rot>
1.4461

> <Gold.Chemscore.Internal.Correction>
   9.000000E+99

> <Gold.Chemscore.Hbonds>
donor molecule, donor type, donor heavy atom, donor atom, acceptor molecule, acceptor atom, score
      L1  H     8    26       P1  7957  0.01
      L1  H    11    27       P1  7948  0.68
      P1  H  7989  7998       L1     6  0.20
      P1  H  7997  8009       L1     5  0.51

> <Gold.Chemscore.Hbond.Weighted>
-6.2121

> <Gold.Chemscore.Metal.Weighted>
-0.0000

> <Gold.Chemscore.Lipo.Weighted>
-6.7753

> <Gold.Chemscore.Internal_Hbond.Weighted>
0.0000

> <Gold.Chemscore.DEClash.Weighted>
0.4325

> <Gold.Chemscore.DEInternal.Weighted>
1.5160

> <Gold.Chemscore.Rot.Weighted>
3.7019

> <Gold.Chemscore.Internal.Correction.Weighted>
   9.000000E+99

> <Gold.Protein.RotatedTorsions>
[ 6907 6896 6895 6894 ] final -169.79 input  -60.11 | X-H torsion
[ 7974 7965 7964 7962 ] final  -15.51 input  175.53 | X-H torsion
[ 8008 7997 7996 7995 ] final -151.82 input   59.86 | X-H torsion
[ 10167 10162 10161 10158 ] final -155.15 input  -65.29 | X-H torsion
[ 10718 10713 10712 10709 ] final -148.04 input   66.30 | X-H torsion
[ 10763 10752 10751 10750 ] final  -57.04 input  -60.55 | X-H torsion
[ 11005 11000 10999 10996 ] final -159.99 input  -57.11 | X-H torsion

> <Gold.Protein.ActiveResidues>
 VAL166  LYS551  ARG553  GLY616  TRP617  ASP618  TYR619  PRO620  LYS621  CYS622 
 ASP623  PHE694  ASN695  SER759  ASP760  ASP761  ALA762  ILE779  LEU786  VAL792 
 PHE793  MET794  SER795  GLU796  ALA797  LYS798  CYS799  TRP800  GLU811  SER814 

> <Gold.Protein.RotatedAtoms>
  151.4972  133.3512  159.2862 H   0  0  0  0  0  0  0  0  0  0  0  0  # atno 6907 bound_to 6896
  150.8796  134.8187  159.7226 H   0  0  0  0  0  0  0  0  0  0  0  0  # atno 6908 bound_to 6896
  152.4754  134.4868  159.9734 H   0  0  0  0  0  0  0  0  0  0  0  0  # atno 6909 bound_to 6896
  146.2029  140.3503  142.8417 H   0  0  0  0  0  0  0  0  0  0  0  0  # atno 7974 bound_to 7965
  155.6454  140.0706  157.2605 H   0  0  0  0  0  0  0  0  0  0  0  0  # atno 8008 bound_to 7997
  154.4174  140.1743  156.1667 H   0  0  0  0  0  0  0  0  0  0  0  0  # atno 8009 bound_to 7997
  155.9821  140.3353  155.6676 H   0  0  0  0  0  0  0  0  0  0  0  0  # atno 8010 bound_to 7997
  139.6954  143.9350  152.2405 H   0  0  0  0  0  0  0  0  0  0  0  0  # atno 10167 bound_to 10162
  156.4152  130.8001  151.2221 H   0  0  0  0  0  0  0  0  0  0  0  0  # atno 10718 bound_to 10713
  154.2161  135.6386  153.5130 H   0  0  0  0  0  0  0  0  0  0  0  0  # atno 10763 bound_to 10752
  152.9979  135.5485  154.6164 H   0  0  0  0  0  0  0  0  0  0  0  0  # atno 10764 bound_to 10752
  154.5612  135.2909  155.0891 H   0  0  0  0  0  0  0  0  0  0  0  0  # atno 10765 bound_to 10752
  140.6365  134.4596  157.5232 H   0  0  0  0  0  0  0  0  0  0  0  0  # atno 11005 bound_to 11000
  144.8724  140.7290  143.6038 LP  0  0  0  0  0  0  0  0  0  0  0  0  # atno 17320 bound_to 7965
  145.3422  139.1729  143.4479 LP  0  0  0  0  0  0  0  0  0  0  0  0  # atno 17321 bound_to 7965
  139.9178  144.6818  150.8493 LP  0  0  0  0  0  0  0  0  0  0  0  0  # atno 17342 bound_to 10162
  140.7695  143.3397  151.2235 LP  0  0  0  0  0  0  0  0  0  0  0  0  # atno 17343 bound_to 10162
  157.7508  131.0245  150.3880 LP  0  0  0  0  0  0  0  0  0  0  0  0  # atno 17370 bound_to 10713
  156.4186  130.3948  149.6840 LP  0  0  0  0  0  0  0  0  0  0  0  0  # atno 17371 bound_to 10713
  139.9096  134.8373  156.1576 LP  0  0  0  0  0  0  0  0  0  0  0  0  # atno 17394 bound_to 11000
  141.0638  133.6829  156.2004 LP  0  0  0  0  0  0  0  0  0  0  0  0  # atno 17395 bound_to 11000

$$$$
