AV-unprocessed.smi:1880|AV-procd|sdf|7635|dock2
  -GOLD-   22720 9363D 1   1.00000     0.00000
 Structure written by MMmdl.
 36 38  0  0  0  0  0  0  0  0  1 V2000
  149.4734  141.0705  153.2707 O   0  0  0  0  0  0  0  0  0  0  0  0
  149.1536  140.5459  154.5447 C   0  0  2  0  0  0  0  0  0  0  0  0
  147.6359  140.3164  154.6059 C   0  0  0  0  0  0  0  0  0  0  0  0
  147.3393  139.0774  153.9843 O   0  0  0  0  0  0  0  0  0  0  0  0
  147.1086  139.2007  152.5920 C   0  0  0  0  0  0  0  0  0  0  0  0
  146.2630  138.0375  152.2007 C   0  0  0  0  0  0  0  0  0  0  0  0
  145.2533  137.3567  152.8230 C   0  0  0  0  0  0  0  0  0  0  0  0
  144.8396  136.3394  151.9192 C   0  0  0  0  0  0  0  0  0  0  0  0
  145.6294  136.4748  150.8130 C   0  0  0  0  0  0  0  0  0  0  0  0
  146.5036  137.5061  150.9687 O   0  0  0  0  0  0  0  0  0  0  0  0
  149.6354  141.5302  155.6279 C   0  0  0  0  0  0  0  0  0  0  0  0
  150.5259  140.9019  156.5880 N   0  0  0  0  0  0  0  0  0  0  0  0
  150.8892  139.6056  156.6243 C   0  0  0  0  0  0  0  0  0  0  0  0
  151.7255  139.2336  157.5892 N   0  0  0  0  0  0  0  0  0  0  0  0
  151.9308  140.4286  158.2568 C   0  0  0  0  0  0  0  0  0  0  0  0
  152.7271  140.7220  159.3867 C   0  0  0  0  0  0  0  0  0  0  0  0
  152.7847  142.0347  159.8993 C   0  0  0  0  0  0  0  0  0  0  0  0
  153.5539  142.2987  160.9821 F   0  0  0  0  0  0  0  0  0  0  0  0
  152.0473  143.0724  159.2912 C   0  0  0  0  0  0  0  0  0  0  0  0
  152.1088  144.3298  159.7898 F   0  0  0  0  0  0  0  0  0  0  0  0
  151.2467  142.8041  158.1643 C   0  0  0  0  0  0  0  0  0  0  0  0
  151.1924  141.4928  157.6562 C   0  0  0  0  0  0  0  0  0  0  0  0
  149.3415  140.3906  152.6271 H   0  0  0  0  0  0  0  0  0  0  0  0
  149.6710  139.5944  154.6759 H   0  0  0  0  0  0  0  0  0  0  0  0
  147.3118  140.2627  155.6467 H   0  0  0  0  0  0  0  0  0  0  0  0
  147.0920  141.1398  154.1390 H   0  0  0  0  0  0  0  0  0  0  0  0
  146.5969  140.1372  152.3646 H   0  0  0  0  0  0  0  0  0  0  0  0
  148.0512  139.1869  152.0429 H   0  0  0  0  0  0  0  0  0  0  0  0
  144.8593  137.5679  153.8062 H   0  0  0  0  0  0  0  0  0  0  0  0
  144.0624  135.6030  152.0601 H   0  0  0  0  0  0  0  0  0  0  0  0
  145.6990  135.9496  149.8717 H   0  0  0  0  0  0  0  0  0  0  0  0
  150.1483  142.3801  155.1758 H   0  0  0  0  0  0  0  0  0  0  0  0
  148.7826  141.9363  156.1731 H   0  0  0  0  0  0  0  0  0  0  0  0
  150.5205  138.8951  155.8987 H   0  0  0  0  0  0  0  0  0  0  0  0
  153.2964  139.9360  159.8601 H   0  0  0  0  0  0  0  0  0  0  0  0
  150.6847  143.5970  157.6937 H   0  0  0  0  0  0  0  0  0  0  0  0
  1  2  1  0  0  0  0
  1 23  1  0  0  0  0
  2  3  1  0  0  0  0
  2 11  1  0  0  0  0
  2 24  1  0  0  0  0
  3  4  1  0  0  0  0
  3 25  1  0  0  0  0
  3 26  1  0  0  0  0
  4  5  1  0  0  0  0
  5  6  1  0  0  0  0
  5 27  1  0  0  0  0
  5 28  1  0  0  0  0
  6 10  1  0  0  0  0
  6  7  2  0  0  0  0
  7  8  1  0  0  0  0
  7 29  1  0  0  0  0
  8  9  2  0  0  0  0
  8 30  1  0  0  0  0
  9 10  1  0  0  0  0
  9 31  1  0  0  0  0
 11 12  1  0  0  0  0
 11 32  1  0  0  0  0
 11 33  1  0  0  0  0
 12 22  1  0  0  0  0
 12 13  1  0  0  0  0
 13 14  2  0  0  0  0
 13 34  1  0  0  0  0
 14 15  1  0  0  0  0
 15 22  2  0  0  0  0
 15 16  1  0  0  0  0
 16 17  2  0  0  0  0
 16 35  1  0  0  0  0
 17 18  1  0  0  0  0
 17 19  1  0  0  0  0
 19 20  1  0  0  0  0
 19 21  2  0  0  0  0
 21 22  1  0  0  0  0
 21 36  1  0  0  0  0
M  END
> <s_m_source_file>
AV-unprocessed.smi

> <i_m_source_file_index>
1880

> <i_lp_mmshare_version>
43012

> <i_f3d_flags>
0

> <s_epik_input>
W2NIXTFjKEYpYyhGKVtjSF1jKGMxMiluKFtjSF1uMilbQ0gyXVtDQEhdKFtPSF0pW0NIMl1PW0NIMl1jM1tjSF1bY0hdW2NIXW8z

> <s_epik_cmdline>
J2VwaWtfcHl0aG9uJywgJy1waCcsICc3LjAnLCAnLXRuJywgJzgnLCAnLW1hJywgJzIwMCcsICctbWV0YWxfYmluZGluZycsICctaW1hZScsICc8aW5maWxlLm1hZT4nLCAnLW9tYWUnLCAnPG91dGZpbGUubWFlPic=

> <r_epik_Ionization_Penalty>
0.0152348

> <r_epik_Ionization_Penalty_Charging>
0

> <r_epik_Ionization_Penalty_Neutral>
0.0152348

> <r_epik_State_Penalty>
0.0119607

> <r_epik_Charging_Adjusted_Penalty>
0.0119607

> <i_epik_Tot_Q>
0

> <i_epik_Tot_abs_Q>
0

> <r_epik_Metal_State_Penalty>
1.20821e-05

> <b_epik_Metal_Only>
0

> <s_lp_Force_Field>
OPLS_2005

> <r_lp_Energy>
7.92035

> <b_lp_Chiralities_Consistent>
1

> <s_lp_Variant>
AV-unprocessed.smi:1880-1

> <Gold.Version>
5.8.1

> <Gold.Id.Protein>
6NUR|6NUR_protein|mol2

> <Gold.PLP.Fitness>
52.4220

> <Gold.PLP.PLP>
-43.7197

> <Gold.PLP.part.hbond>
-3.3883

> <Gold.PLP.part.metal>
0.0000

> <Gold.PLP.part.buried>
-2.2120

> <Gold.PLP.part.nonpolar>
-41.4558

> <Gold.PLP.part.repulsive>
2.5978

> <Gold.PLP.ligand.clash>
0.0000

> <Gold.PLP.ligand.torsion>
1.6286

> <Gold.PLP.Chemscore.Hbond>
2.9375

> <Gold.PLP.Chemscore.CHOScore>
1.0000

> <Gold.PLP.Chemscore.Metal>
0.0000

> <Gold.Chemscore.Hbonds>
donor molecule, donor type, donor heavy atom, donor atom, acceptor molecule, acceptor atom, score
      L1  H     1    23       P1  7957  0.82
      P1  H  7954  7966       L1    10  1.00
      P1  H  7989  7998       L1     1  0.09
      P1  H  8011  8017       L1     1  1.00
      L1  C     9    31       P1  7921  1.00

> <Gold.PLP.Chemscore.Internal.Correction>
0.1470

> <Gold.Rescore>
     Score         DG    S(hbond)    S(metal)    S(lipo)     H(rot)  DE(clash)    DE(int)     intcor
     12.79     -17.21       2.12        0.00     102.20       2.85       1.87       2.55       ----

> <Gold.Chemscore.Fitness>
12.7887

> <Gold.Chemscore.DG>
-17.2072

> <Gold.Chemscore.ZeroCoef>
-5.4800

> <Gold.Chemscore.Hbond>
2.1169

> <Gold.Chemscore.Metal>
0.0000

> <Gold.Chemscore.Lipo>
102.1989

> <Gold.Chemscore.Internal_Hbond>
0.0000

> <Gold.Chemscore.DEClash>
1.8664

> <Gold.Chemscore.DEInternal>
2.5520

> <Gold.Chemscore.Rot>
2.8518

> <Gold.Chemscore.Internal.Correction>
   9.000000E+99

> <Gold.Chemscore.Hbonds>
donor molecule, donor type, donor heavy atom, donor atom, acceptor molecule, acceptor atom, score
      L1  H     1    23       P1  7957  0.78
      P1  H  7954  7966       L1    10  0.94
      P1  H  8011  8017       L1     1  0.34

> <Gold.Chemscore.Hbond.Weighted>
-7.0704

> <Gold.Chemscore.Metal.Weighted>
-0.0000

> <Gold.Chemscore.Lipo.Weighted>
-11.9573

> <Gold.Chemscore.Internal_Hbond.Weighted>
0.0000

> <Gold.Chemscore.DEClash.Weighted>
1.8664

> <Gold.Chemscore.DEInternal.Weighted>
2.5520

> <Gold.Chemscore.Rot.Weighted>
7.3005

> <Gold.Chemscore.Internal.Correction.Weighted>
   9.000000E+99

> <Gold.Protein.RotatedTorsions>
[ 6907 6896 6895 6894 ] final   46.89 input  -60.11 | X-H torsion
[ 7974 7965 7964 7962 ] final -122.37 input  175.53 | X-H torsion
[ 8008 7997 7996 7995 ] final   63.58 input   59.86 | X-H torsion
[ 10167 10162 10161 10158 ] final  -43.69 input  -65.29 | X-H torsion
[ 10718 10713 10712 10709 ] final  -26.05 input   66.30 | X-H torsion
[ 10763 10752 10751 10750 ] final  131.19 input  -60.55 | X-H torsion
[ 11005 11000 10999 10996 ] final   17.52 input  -57.11 | X-H torsion

> <Gold.Protein.ActiveResidues>
 VAL166  LYS551  ARG553  GLY616  TRP617  ASP618  TYR619  PRO620  LYS621  CYS622 
 ASP623  PHE694  ASN695  SER759  ASP760  ASP761  ALA762  ILE779  LEU786  VAL792 
 PHE793  MET794  SER795  GLU796  ALA797  LYS798  CYS799  TRP800  GLU811  SER814 

> <Gold.Protein.RotatedAtoms>
  152.2617  134.8026  160.0429 H   0  0  0  0  0  0  0  0  0  0  0  0  # atno 6907 bound_to 6896
  151.8670  133.3463  159.3730 H   0  0  0  0  0  0  0  0  0  0  0  0  # atno 6908 bound_to 6896
  150.7119  134.5077  159.5636 H   0  0  0  0  0  0  0  0  0  0  0  0  # atno 6909 bound_to 6896
  145.0302  140.8061  143.4328 H   0  0  0  0  0  0  0  0  0  0  0  0  # atno 7974 bound_to 7965
  155.6324  140.3496  155.4687 H   0  0  0  0  0  0  0  0  0  0  0  0  # atno 8008 bound_to 7997
  155.9992  140.1209  157.0587 H   0  0  0  0  0  0  0  0  0  0  0  0  # atno 8009 bound_to 7997
  154.4243  140.1104  156.5659 H   0  0  0  0  0  0  0  0  0  0  0  0  # atno 8010 bound_to 7997
  140.6924  143.2969  151.3389 H   0  0  0  0  0  0  0  0  0  0  0  0  # atno 10167 bound_to 10162
  156.4563  130.4494  149.6957 H   0  0  0  0  0  0  0  0  0  0  0  0  # atno 10718 bound_to 10713
  153.7703  135.3183  155.3351 H   0  0  0  0  0  0  0  0  0  0  0  0  # atno 10763 bound_to 10752
  154.8198  135.4611  154.0750 H   0  0  0  0  0  0  0  0  0  0  0  0  # atno 10764 bound_to 10752
  153.2008  135.6922  153.8318 H   0  0  0  0  0  0  0  0  0  0  0  0  # atno 10765 bound_to 10752
  140.4351  134.1380  155.7684 H   0  0  0  0  0  0  0  0  0  0  0  0  # atno 11005 bound_to 11000
  145.1780  139.2367  143.5307 LP  0  0  0  0  0  0  0  0  0  0  0  0  # atno 17320 bound_to 7965
  146.3497  140.1547  142.8592 LP  0  0  0  0  0  0  0  0  0  0  0  0  # atno 17321 bound_to 7965
  139.6342  144.0663  152.2501 LP  0  0  0  0  0  0  0  0  0  0  0  0  # atno 17342 bound_to 10162
  140.0147  144.6197  150.7617 LP  0  0  0  0  0  0  0  0  0  0  0  0  # atno 17343 bound_to 10162
  156.3763  130.7556  151.2545 LP  0  0  0  0  0  0  0  0  0  0  0  0  # atno 17370 bound_to 10713
  157.7500  131.0308  150.4155 LP  0  0  0  0  0  0  0  0  0  0  0  0  # atno 17371 bound_to 10713
  141.1729  133.8572  157.1513 LP  0  0  0  0  0  0  0  0  0  0  0  0  # atno 17394 bound_to 11000
  140.0108  134.9989  157.0390 LP  0  0  0  0  0  0  0  0  0  0  0  0  # atno 17395 bound_to 11000

$$$$
