AV-unprocessed.smi:2216|AV-procd|sdf|8966|dock4
  -GOLD-   2272012183D 1   1.00000     0.00000
 Structure written by MMmdl.
 40 41  0  0  0  0  0  0  0  0  2 V2000
  152.0582  138.0542  158.4145 C   0  0  0  0  0  0  0  0  0  0  0  0
  151.5839  138.1073  156.9719 C   0  0  0  0  0  0  0  0  0  0  0  0
  150.8984  137.0806  156.4090 C   0  0  0  0  0  0  0  0  0  0  0  0
  150.4394  137.1237  155.0207 C   0  0  0  0  0  0  0  0  0  0  0  0
  149.7294  136.1313  154.3321 N   0  0  0  0  0  0  0  0  0  0  0  0
  149.2761  134.9504  154.7888 C   0  0  0  0  0  0  0  0  0  0  0  0
  149.4061  134.5200  155.9344 O   0  0  0  0  0  0  0  0  0  0  0  0
  148.6466  134.2735  153.8178 N   0  0  0  0  0  0  0  0  0  0  0  0
  148.0377  132.9571  153.9709 C   0  0  0  0  0  0  0  0  0  0  0  0
  146.5074  133.0202  153.8249 C   0  0  0  0  0  0  0  0  0  0  0  0
  146.0501  133.1041  152.3601 C   0  0  2  0  0  0  0  0  0  0  0  0
  144.5906  133.5852  152.2393 C   0  0  0  0  0  0  0  0  0  0  0  0
  144.1408  133.5834  150.7738 C   0  0  0  0  0  0  0  0  0  0  0  0
  144.4019  132.2059  150.1551 C   0  0  0  0  0  0  0  0  0  0  0  0
  145.8631  131.7867  150.3823 C   0  0  0  0  0  0  0  0  0  0  0  0
  146.1630  131.8081  151.7745 O   0  0  0  0  0  0  0  0  0  0  0  0
  150.7828  138.3001  154.3858 C   0  0  0  0  0  0  0  0  0  0  0  0
  151.4588  139.3618  154.8757 N   0  5  0  0  0  0  0  0  0  0  0  0
  151.8833  139.3115  156.1709 C   0  0  0  0  0  0  0  0  0  0  0  0
  152.5065  140.2398  156.6846 O   0  0  0  0  0  0  0  0  0  0  0  0
  151.7781  137.1147  158.8915 H   0  0  0  0  0  0  0  0  0  0  0  0
  151.6180  138.8687  158.9905 H   0  0  0  0  0  0  0  0  0  0  0  0
  153.1437  138.1454  158.4622 H   0  0  0  0  0  0  0  0  0  0  0  0
  150.7006  136.2180  157.0237 H   0  0  0  0  0  0  0  0  0  0  0  0
  149.5398  136.3426  153.3633 H   0  0  0  0  0  0  0  0  0  0  0  0
  148.5857  134.7003  152.9051 H   0  0  0  0  0  0  0  0  0  0  0  0
  148.4638  132.2606  153.2467 H   0  0  0  0  0  0  0  0  0  0  0  0
  148.3041  132.5783  154.9578 H   0  0  0  0  0  0  0  0  0  0  0  0
  146.0544  132.1495  154.3011 H   0  0  0  0  0  0  0  0  0  0  0  0
  146.1335  133.8927  154.3625 H   0  0  0  0  0  0  0  0  0  0  0  0
  146.7035  133.7976  151.8275 H   0  0  0  0  0  0  0  0  0  0  0  0
  143.9382  132.9325  152.8211 H   0  0  0  0  0  0  0  0  0  0  0  0
  144.4851  134.5865  152.6584 H   0  0  0  0  0  0  0  0  0  0  0  0
  143.0840  133.8407  150.6994 H   0  0  0  0  0  0  0  0  0  0  0  0
  144.6896  134.3460  150.2199 H   0  0  0  0  0  0  0  0  0  0  0  0
  143.7376  131.4690  150.6081 H   0  0  0  0  0  0  0  0  0  0  0  0
  144.1736  132.2210  149.0892 H   0  0  0  0  0  0  0  0  0  0  0  0
  146.0270  130.7781  150.0024 H   0  0  0  0  0  0  0  0  0  0  0  0
  146.5461  132.4443  149.8424 H   0  0  0  0  0  0  0  0  0  0  0  0
  150.4680  138.4033  153.3248 H   0  0  0  0  0  0  0  0  0  0  0  0
  1  2  1  0  0  0  0
  1 21  1  0  0  0  0
  1 22  1  0  0  0  0
  1 23  1  0  0  0  0
  2 19  1  0  0  0  0
  2  3  2  0  0  0  0
  3  4  1  0  0  0  0
  3 24  1  0  0  0  0
  4  5  1  0  0  0  0
  4 17  2  0  0  0  0
  5  6  1  0  0  0  0
  5 25  1  0  0  0  0
  6  7  2  0  0  0  0
  6  8  1  0  0  0  0
  8  9  1  0  0  0  0
  8 26  1  0  0  0  0
  9 10  1  0  0  0  0
  9 27  1  0  0  0  0
  9 28  1  0  0  0  0
 10 11  1  0  0  0  0
 10 29  1  0  0  0  0
 10 30  1  0  0  0  0
 11 16  1  0  0  0  0
 11 12  1  0  0  0  0
 11 31  1  0  0  0  0
 12 13  1  0  0  0  0
 12 32  1  0  0  0  0
 12 33  1  0  0  0  0
 13 14  1  0  0  0  0
 13 34  1  0  0  0  0
 13 35  1  0  0  0  0
 14 15  1  0  0  0  0
 14 36  1  0  0  0  0
 14 37  1  0  0  0  0
 15 16  1  0  0  0  0
 15 38  1  0  0  0  0
 15 39  1  0  0  0  0
 17 18  1  0  0  0  0
 17 40  1  0  0  0  0
 18 19  1  0  0  0  0
 19 20  2  0  0  0  0
M  CHG  1  18  -1
M  END
> <s_m_source_file>
AV-unprocessed.smi

> <i_m_source_file_index>
2216

> <i_lp_mmshare_version>
43012

> <i_f3d_flags>
0

> <s_epik_input>
Tz1jMVtuSF1bY0hdYyhbY0hdYzFbQ0gzXSlbTkhdQyg9TylbTkhdW0NIMl1bQ0gyXVtDQEBIXTJbQ0gyXVtDSDJdW0NIMl1bQ0gyXU8y

> <s_epik_cmdline>
J2VwaWtfcHl0aG9uJywgJy1waCcsICc3LjAnLCAnLXRuJywgJzgnLCAnLW1hJywgJzIwMCcsICctbWV0YWxfYmluZGluZycsICctaW1hZScsICc8aW5maWxlLm1hZT4nLCAnLW9tYWUnLCAnPG91dGZpbGUubWFlPic=

> <r_lp_tautomer_probability>
1

> <r_epik_Ionization_Penalty>
7.55627

> <r_epik_Ionization_Penalty_Charging>
1.50531

> <r_epik_Ionization_Penalty_Neutral>
6.05097

> <r_epik_State_Penalty>
6.05091

> <r_epik_Charging_Adjusted_Penalty>
7.55622

> <i_epik_Tot_Q>
-1

> <i_epik_Tot_abs_Q>
1

> <r_epik_Metal_State_Penalty>
2.00009

> <b_epik_Metal_Only>
1

> <s_lp_Force_Field>
OPLS_2005

> <r_lp_Energy>
21.198

> <b_lp_Chiralities_Consistent>
1

> <s_lp_Variant>
AV-unprocessed.smi:2216-3

> <Gold.Version>
5.8.1

> <Gold.Id.Protein>
6NUR|6NUR_protein|mol2

> <Gold.PLP.Fitness>
40.0036

> <Gold.PLP.PLP>
-28.6632

> <Gold.PLP.part.hbond>
-4.5733

> <Gold.PLP.part.metal>
0.0000

> <Gold.PLP.part.buried>
-1.5232

> <Gold.PLP.part.nonpolar>
-21.6635

> <Gold.PLP.part.repulsive>
0.2380

> <Gold.PLP.ligand.clash>
0.0000

> <Gold.PLP.ligand.torsion>
0.2415

> <Gold.PLP.Chemscore.Hbond>
3.9353

> <Gold.PLP.Chemscore.CHOScore>
0.0000

> <Gold.PLP.Chemscore.Metal>
0.0000

> <Gold.Chemscore.Hbonds>
donor molecule, donor type, donor heavy atom, donor atom, acceptor molecule, acceptor atom, score
      L1  H     5    25       P1  7948  1.00
      L1  H     8    26       P1  7948  0.94
      P1  H  7989  7998       L1    18  0.98
      P1  H  7997  8010       L1    20  1.00

> <Gold.PLP.Chemscore.Internal.Correction>
0.0176

> <Gold.Rescore>
     Score         DG    S(hbond)    S(metal)    S(lipo)     H(rot)  DE(clash)    DE(int)     intcor
     18.87     -20.34       3.15        0.00      69.26       1.47       0.10       1.38       ----

> <Gold.Chemscore.Fitness>
18.8670

> <Gold.Chemscore.DG>
-20.3417

> <Gold.Chemscore.ZeroCoef>
-5.4800

> <Gold.Chemscore.Hbond>
3.1507

> <Gold.Chemscore.Metal>
0.0000

> <Gold.Chemscore.Lipo>
69.2626

> <Gold.Chemscore.Internal_Hbond>
0.0000

> <Gold.Chemscore.DEClash>
0.0976

> <Gold.Chemscore.DEInternal>
1.3770

> <Gold.Chemscore.Rot>
1.4709

> <Gold.Chemscore.Internal.Correction>
   9.000000E+99

> <Gold.Chemscore.Hbonds>
donor molecule, donor type, donor heavy atom, donor atom, acceptor molecule, acceptor atom, score
      L1  H     5    25       P1  7948  0.49
      L1  H     8    26       P1  7948  0.23
      P1  H  7989  7998       L1    18  0.75
      P1  H  7997  8010       L1    20  0.85

> <Gold.Chemscore.Hbond.Weighted>
-10.5234

> <Gold.Chemscore.Metal.Weighted>
-0.0000

> <Gold.Chemscore.Lipo.Weighted>
-8.1037

> <Gold.Chemscore.Internal_Hbond.Weighted>
0.0000

> <Gold.Chemscore.DEClash.Weighted>
0.0976

> <Gold.Chemscore.DEInternal.Weighted>
1.3770

> <Gold.Chemscore.Rot.Weighted>
3.7654

> <Gold.Chemscore.Internal.Correction.Weighted>
   9.000000E+99

> <Gold.Protein.RotatedTorsions>
[ 6907 6896 6895 6894 ] final -145.57 input  -60.11 | X-H torsion
[ 7974 7965 7964 7962 ] final  -28.46 input  175.53 | X-H torsion
[ 8008 7997 7996 7995 ] final   72.28 input   59.86 | X-H torsion
[ 10167 10162 10161 10158 ] final  -15.25 input  -65.29 | X-H torsion
[ 10718 10713 10712 10709 ] final  -21.70 input   66.30 | X-H torsion
[ 10763 10752 10751 10750 ] final -106.36 input  -60.55 | X-H torsion
[ 11005 11000 10999 10996 ] final   47.26 input  -57.11 | X-H torsion

> <Gold.Protein.ActiveResidues>
 VAL166  LYS551  ARG553  GLY616  TRP617  ASP618  TYR619  PRO620  LYS621  CYS622 
 ASP623  PHE694  ASN695  SER759  ASP760  ASP761  ALA762  ILE779  LEU786  VAL792 
 PHE793  MET794  SER795  GLU796  ALA797  LYS798  CYS799  TRP800  GLU811  SER814 

> <Gold.Protein.RotatedAtoms>
  151.1295  133.5046  159.2599 H   0  0  0  0  0  0  0  0  0  0  0  0  # atno 6907 bound_to 6896
  151.1773  135.0344  159.8787 H   0  0  0  0  0  0  0  0  0  0  0  0  # atno 6908 bound_to 6896
  152.5459  134.1152  159.8428 H   0  0  0  0  0  0  0  0  0  0  0  0  # atno 6909 bound_to 6896
  146.1286  140.5286  142.8703 H   0  0  0  0  0  0  0  0  0  0  0  0  # atno 7974 bound_to 7965
  155.7665  140.3485  155.5225 H   0  0  0  0  0  0  0  0  0  0  0  0  # atno 8008 bound_to 7997
  155.8863  140.1010  157.1471 H   0  0  0  0  0  0  0  0  0  0  0  0  # atno 8009 bound_to 7997
  154.4029  140.1313  156.4247 H   0  0  0  0  0  0  0  0  0  0  0  0  # atno 8010 bound_to 7997
  140.7215  143.5237  150.9603 H   0  0  0  0  0  0  0  0  0  0  0  0  # atno 10167 bound_to 10162
  156.5145  130.4618  149.6630 H   0  0  0  0  0  0  0  0  0  0  0  0  # atno 10718 bound_to 10713
  154.8007  135.4715  154.0268 H   0  0  0  0  0  0  0  0  0  0  0  0  # atno 10763 bound_to 10752
  153.1776  135.6835  153.8528 H   0  0  0  0  0  0  0  0  0  0  0  0  # atno 10764 bound_to 10752
  153.8090  135.3219  155.3376 H   0  0  0  0  0  0  0  0  0  0  0  0  # atno 10765 bound_to 10752
  140.1295  134.4724  155.8533 H   0  0  0  0  0  0  0  0  0  0  0  0  # atno 11005 bound_to 11000
  144.7667  140.5547  143.6698 LP  0  0  0  0  0  0  0  0  0  0  0  0  # atno 17320 bound_to 7965
  145.5310  139.1475  143.3499 LP  0  0  0  0  0  0  0  0  0  0  0  0  # atno 17321 bound_to 7965
  139.8955  143.6900  152.3139 LP  0  0  0  0  0  0  0  0  0  0  0  0  # atno 17342 bound_to 10162
  139.7231  144.7598  151.0923 LP  0  0  0  0  0  0  0  0  0  0  0  0  # atno 17343 bound_to 10162
  156.3208  130.7279  151.2191 LP  0  0  0  0  0  0  0  0  0  0  0  0  # atno 17370 bound_to 10713
  157.7446  131.0456  150.4852 LP  0  0  0  0  0  0  0  0  0  0  0  0  # atno 17371 bound_to 10713
  141.2167  133.6790  156.7042 LP  0  0  0  0  0  0  0  0  0  0  0  0  # atno 17394 bound_to 11000
  140.2861  134.8278  157.3976 LP  0  0  0  0  0  0  0  0  0  0  0  0  # atno 17395 bound_to 11000

$$$$
