AV-unprocessed.smi:14|AV-procd|sdf|78|dock1
  -GOLD-   2262015203D 1   1.00000     0.00000
 Structure written by MMmdl.
 57 60  0  0  0  0  0  0  0  0  1 V2000
  148.9913  141.3725  153.8714 N   0  0  0  0  0  0  0  0  0  0  0  0
  148.7102  141.6218  154.9657 C   0  0  0  0  0  0  0  0  0  0  0  0
  148.3533  141.9378  156.3564 C   0  0  0  0  0  0  0  0  0  0  0  0
  148.4047  140.7006  157.2663 C   0  0  0  0  0  0  0  0  0  0  0  0
  149.7224  140.0614  157.2857 N   0  0  0  0  0  0  0  0  0  0  0  0
  150.8850  140.9341  157.1066 C   0  0  0  0  0  0  0  0  0  0  0  0
  151.2718  141.7321  158.3698 C   0  0  1  0  0  0  0  0  0  0  0  0
  152.2458  141.0358  159.3034 C   0  0  0  0  0  0  0  0  0  0  0  0
  152.8220  142.2005  160.1028 C   0  0  0  0  0  0  0  0  0  0  0  0
  152.7567  143.3365  159.2460 O   0  0  0  0  0  0  0  0  0  0  0  0
  152.0568  143.0042  158.0520 C   0  0  0  0  0  0  0  0  0  0  0  0
  149.9083  138.9751  158.0842 C   0  0  0  0  0  0  0  0  0  0  0  0
  151.1715  138.6023  158.4256 N   0  0  0  0  0  0  0  0  0  0  0  0
  151.3800  137.5185  159.1772 C   0  0  0  0  0  0  0  0  0  0  0  0
  150.4833  136.6756  159.6896 N   0  0  0  0  0  0  0  0  0  0  0  0
  149.2124  137.0476  159.3671 C   0  0  0  0  0  0  0  0  0  0  0  0
  148.8386  138.1710  158.5747 C   0  0  0  0  0  0  0  0  0  0  0  0
  147.4543  138.2250  158.4632 N   0  0  0  0  0  0  0  0  0  0  0  0
  147.0368  137.1860  159.1322 C   0  0  0  0  0  0  0  0  0  0  0  0
  148.0245  136.4320  159.7248 N   0  0  0  0  0  0  0  0  0  0  0  0
  147.8378  135.2249  160.5193 C   0  0  0  0  0  0  0  0  0  0  0  0
  146.9399  135.3899  161.7870 C   0  0  0  0  0  0  0  0  0  0  0  0
  147.5677  136.4727  162.7095 C   0  0  0  0  0  0  0  0  0  0  0  0
  147.2240  137.7946  162.3439 O   0  0  0  0  0  0  0  0  0  0  0  0
  145.5199  135.8275  161.3416 C   0  0  0  0  0  0  0  0  0  0  0  0
  144.7377  134.6947  160.6510 C   0  0  0  0  0  0  0  0  0  0  0  0
  144.6689  133.5607  161.5063 O   0  0  0  0  0  0  0  0  0  0  0  0
  145.9482  133.0180  161.8081 C   0  0  0  0  0  0  0  0  0  0  0  0
  146.7942  134.0574  162.5671 C   0  0  0  0  0  0  0  0  0  0  0  0
  149.0333  142.7173  156.6979 H   0  0  0  0  0  0  0  0  0  0  0  0
  147.3495  142.3636  156.3531 H   0  0  0  0  0  0  0  0  0  0  0  0
  148.1422  141.0002  158.2814 H   0  0  0  0  0  0  0  0  0  0  0  0
  147.6472  139.9774  156.9610 H   0  0  0  0  0  0  0  0  0  0  0  0
  151.7463  140.3800  156.7382 H   0  0  0  0  0  0  0  0  0  0  0  0
  150.6411  141.6376  156.3099 H   0  0  0  0  0  0  0  0  0  0  0  0
  150.3776  142.0127  158.9284 H   0  0  0  0  0  0  0  0  0  0  0  0
  151.7752  140.2894  159.9428 H   0  0  0  0  0  0  0  0  0  0  0  0
  153.0359  140.5455  158.7324 H   0  0  0  0  0  0  0  0  0  0  0  0
  152.2103  142.3971  160.9841 H   0  0  0  0  0  0  0  0  0  0  0  0
  153.8430  142.0097  160.4344 H   0  0  0  0  0  0  0  0  0  0  0  0
  152.7894  142.8191  157.2648 H   0  0  0  0  0  0  0  0  0  0  0  0
  151.4138  143.8230  157.7280 H   0  0  0  0  0  0  0  0  0  0  0  0
  152.4131  137.2920  159.3962 H   0  0  0  0  0  0  0  0  0  0  0  0
  145.9876  136.9435  159.2197 H   0  0  0  0  0  0  0  0  0  0  0  0
  147.4039  134.4696  159.8625 H   0  0  0  0  0  0  0  0  0  0  0  0
  148.8262  134.8466  160.7756 H   0  0  0  0  0  0  0  0  0  0  0  0
  147.2481  136.3362  163.7424 H   0  0  0  0  0  0  0  0  0  0  0  0
  148.6554  136.3941  162.7003 H   0  0  0  0  0  0  0  0  0  0  0  0
  146.7452  138.1889  163.0570 H   0  0  0  0  0  0  0  0  0  0  0  0
  144.9326  136.1450  162.2035 H   0  0  0  0  0  0  0  0  0  0  0  0
  145.5764  136.6957  160.6841 H   0  0  0  0  0  0  0  0  0  0  0  0
  143.7222  135.0270  160.4353 H   0  0  0  0  0  0  0  0  0  0  0  0
  145.1817  134.4203  159.6940 H   0  0  0  0  0  0  0  0  0  0  0  0
  145.8112  132.1308  162.4263 H   0  0  0  0  0  0  0  0  0  0  0  0
  146.4383  132.6852  160.8934 H   0  0  0  0  0  0  0  0  0  0  0  0
  147.7693  133.6416  162.8183 H   0  0  0  0  0  0  0  0  0  0  0  0
  146.3009  134.2403  163.5219 H   0  0  0  0  0  0  0  0  0  0  0  0
  1  2  3  0  0  0  0
  2  3  1  0  0  0  0
  3  4  1  0  0  0  0
  3 30  1  0  0  0  0
  3 31  1  0  0  0  0
  4  5  1  0  0  0  0
  4 32  1  0  0  0  0
  4 33  1  0  0  0  0
  5  6  1  0  0  0  0
  5 12  1  0  0  0  0
  6  7  1  0  0  0  0
  6 34  1  0  0  0  0
  6 35  1  0  0  0  0
  7 11  1  0  0  0  0
  7  8  1  0  0  0  0
  7 36  1  0  0  0  0
  8  9  1  0  0  0  0
  8 37  1  0  0  0  0
  8 38  1  0  0  0  0
  9 10  1  0  0  0  0
  9 39  1  0  0  0  0
  9 40  1  0  0  0  0
 10 11  1  0  0  0  0
 11 41  1  0  0  0  0
 11 42  1  0  0  0  0
 12 17  1  0  0  0  0
 12 13  2  0  0  0  0
 13 14  1  0  0  0  0
 14 15  2  0  0  0  0
 14 43  1  0  0  0  0
 15 16  1  0  0  0  0
 16 20  1  0  0  0  0
 16 17  2  0  0  0  0
 17 18  1  0  0  0  0
 18 19  2  0  0  0  0
 19 20  1  0  0  0  0
 19 44  1  0  0  0  0
 20 21  1  0  0  0  0
 21 22  1  0  0  0  0
 21 45  1  0  0  0  0
 21 46  1  0  0  0  0
 22 29  1  0  0  0  0
 22 23  1  0  0  0  0
 22 25  1  0  0  0  0
 23 24  1  0  0  0  0
 23 47  1  0  0  0  0
 23 48  1  0  0  0  0
 24 49  1  0  0  0  0
 25 26  1  0  0  0  0
 25 50  1  0  0  0  0
 25 51  1  0  0  0  0
 26 27  1  0  0  0  0
 26 52  1  0  0  0  0
 26 53  1  0  0  0  0
 27 28  1  0  0  0  0
 28 29  1  0  0  0  0
 28 54  1  0  0  0  0
 28 55  1  0  0  0  0
 29 56  1  0  0  0  0
 29 57  1  0  0  0  0
M  END
> <s_m_source_file>
AV-unprocessed.smi

> <i_m_source_file_index>
14

> <i_lp_mmshare_version>
43012

> <i_f3d_flags>
0

> <s_epik_input>
W0NIMl0xT1tDSDJdW0NIMl1bQ0BIXTFbQ0gyXU4oW0NIMl1bQ0gyXUMjTiljKG5bY0hdbjIpYyhjMjMpbltjSF1uM1tDSDJdQzQoW0NIMl1bT0hdKVtDSDJdW0NIMl1PW0NIMl1bQ0gyXTQ=

> <s_epik_cmdline>
J2VwaWtfcHl0aG9uJywgJy1waCcsICc3LjAnLCAnLXRuJywgJzgnLCAnLW1hJywgJzIwMCcsICctbWV0YWxfYmluZGluZycsICctaW1hZScsICc8aW5maWxlLm1hZT4nLCAnLW9tYWUnLCAnPG91dGZpbGUubWFlPic=

> <r_lp_tautomer_probability>
1

> <r_epik_Ionization_Penalty>
0.000542547

> <r_epik_Ionization_Penalty_Charging>
0

> <r_epik_Ionization_Penalty_Neutral>
0.000542547

> <r_epik_State_Penalty>
0.000265709

> <r_epik_Charging_Adjusted_Penalty>
0.000265709

> <i_epik_Tot_Q>
0

> <i_epik_Tot_abs_Q>
0

> <r_epik_Metal_State_Penalty>
-0

> <b_epik_Metal_Only>
0

> <s_lp_Force_Field>
OPLS_2005

> <r_lp_Energy>
43.0361

> <b_lp_Chiralities_Consistent>
1

> <s_lp_Variant>
AV-unprocessed.smi:14-2

> <Gold.Version>
5.8.1

> <Gold.Id.Protein>
6NUR|6NUR_protein|mol2

> <Gold.PLP.Fitness>
52.0731

> <Gold.PLP.PLP>
-44.5307

> <Gold.PLP.part.hbond>
-4.9435

> <Gold.PLP.part.metal>
0.0000

> <Gold.PLP.part.buried>
-5.0457

> <Gold.PLP.part.nonpolar>
-35.5423

> <Gold.PLP.part.repulsive>
0.2263

> <Gold.PLP.ligand.clash>
0.0000

> <Gold.PLP.ligand.torsion>
1.1928

> <Gold.PLP.Chemscore.Hbond>
2.9438

> <Gold.PLP.Chemscore.CHOScore>
0.0000

> <Gold.PLP.Chemscore.Metal>
0.0000

> <Gold.Chemscore.Hbonds>
donor molecule, donor type, donor heavy atom, donor atom, acceptor molecule, acceptor atom, score
      P1  H  6896  6907       L1    15  1.00
      P1  H  6931  6943       L1    24  0.35
      P1  H  6934  6947       L1    24  0.43
      P1  H  8011  8017       L1     1  0.78

> <Gold.PLP.Chemscore.Internal.Correction>
1.0966

> <Gold.Rescore>
     Score         DG    S(hbond)    S(metal)    S(lipo)     H(rot)  DE(clash)    DE(int)     intcor
     11.47     -14.52       1.60        0.00     102.79       3.26       0.03       3.02       ----

> <Gold.Chemscore.Fitness>
11.4678

> <Gold.Chemscore.DG>
-14.5175

> <Gold.Chemscore.ZeroCoef>
-5.4800

> <Gold.Chemscore.Hbond>
1.6000

> <Gold.Chemscore.Metal>
0.0000

> <Gold.Chemscore.Lipo>
102.7944

> <Gold.Chemscore.Internal_Hbond>
0.0000

> <Gold.Chemscore.DEClash>
0.0276

> <Gold.Chemscore.DEInternal>
3.0221

> <Gold.Chemscore.Rot>
3.2553

> <Gold.Chemscore.Internal.Correction>
   9.000000E+99

> <Gold.Chemscore.Hbonds>
donor molecule, donor type, donor heavy atom, donor atom, acceptor molecule, acceptor atom, score
      P1  H  6896  6907       L1    15  0.74
      P1  H  6931  6943       L1    24  0.04
      P1  H  6934  6947       L1    24  0.22
      P1  H  8011  8017       L1     1  0.73

> <Gold.Chemscore.Hbond.Weighted>
-5.3441

> <Gold.Chemscore.Metal.Weighted>
-0.0000

> <Gold.Chemscore.Lipo.Weighted>
-12.0269

> <Gold.Chemscore.Internal_Hbond.Weighted>
0.0000

> <Gold.Chemscore.DEClash.Weighted>
0.0276

> <Gold.Chemscore.DEInternal.Weighted>
3.0221

> <Gold.Chemscore.Rot.Weighted>
8.3336

> <Gold.Chemscore.Internal.Correction.Weighted>
   9.000000E+99

> <Gold.Protein.RotatedTorsions>
[ 6907 6896 6895 6894 ] final  -22.32 input  -60.11 | X-H torsion
[ 7974 7965 7964 7962 ] final   85.20 input  175.53 | X-H torsion
[ 8008 7997 7996 7995 ] final  -99.09 input   59.86 | X-H torsion
[ 10167 10162 10161 10158 ] final  136.16 input  -65.29 | X-H torsion
[ 10718 10713 10712 10709 ] final   22.04 input   66.30 | X-H torsion
[ 10763 10752 10751 10750 ] final  -32.44 input  -60.55 | X-H torsion
[ 11005 11000 10999 10996 ] final   99.90 input  -57.11 | X-H torsion

> <Gold.Protein.ActiveResidues>
 VAL166  LYS551  ARG553  GLY616  TRP617  ASP618  TYR619  PRO620  LYS621  CYS622 
 ASP623  PHE694  ASN695  SER759  ASP760  ASP761  ALA762  ILE779  LEU786  VAL792 
 PHE793  MET794  SER795  GLU796  ALA797  LYS798  CYS799  TRP800  GLU811  SER814 

> <Gold.Protein.RotatedAtoms>
  151.2204  135.0516  159.8946 H   0  0  0  0  0  0  0  0  0  0  0  0  # atno 6907 bound_to 6896
  152.5416  134.0647  159.8178 H   0  0  0  0  0  0  0  0  0  0  0  0  # atno 6908 bound_to 6896
  151.0812  133.5340  159.2652 H   0  0  0  0  0  0  0  0  0  0  0  0  # atno 6909 bound_to 6896
  145.5887  139.2335  143.2311 H   0  0  0  0  0  0  0  0  0  0  0  0  # atno 7974 bound_to 7965
  154.8100  140.0450  157.1336 H   0  0  0  0  0  0  0  0  0  0  0  0  # atno 8008 bound_to 7997
  154.9379  140.3048  155.5115 H   0  0  0  0  0  0  0  0  0  0  0  0  # atno 8009 bound_to 7997
  156.2971  140.2311  156.4445 H   0  0  0  0  0  0  0  0  0  0  0  0  # atno 8010 bound_to 7997
  139.5190  144.6479  151.5387 H   0  0  0  0  0  0  0  0  0  0  0  0  # atno 10167 bound_to 10162
  157.1468  130.6657  149.5998 H   0  0  0  0  0  0  0  0  0  0  0  0  # atno 10718 bound_to 10713
  153.8139  135.6880  153.4837 H   0  0  0  0  0  0  0  0  0  0  0  0  # atno 10763 bound_to 10752
  153.1611  135.4579  154.9772 H   0  0  0  0  0  0  0  0  0  0  0  0  # atno 10764 bound_to 10752
  154.7956  135.3318  154.7617 H   0  0  0  0  0  0  0  0  0  0  0  0  # atno 10765 bound_to 10752
  139.8770  134.9116  156.4676 H   0  0  0  0  0  0  0  0  0  0  0  0  # atno 11005 bound_to 11000
  146.1663  140.6713  142.9254 LP  0  0  0  0  0  0  0  0  0  0  0  0  # atno 17320 bound_to 7965
  144.7361  140.4812  143.6903 LP  0  0  0  0  0  0  0  0  0  0  0  0  # atno 17321 bound_to 7965
  140.6272  143.9146  150.6574 LP  0  0  0  0  0  0  0  0  0  0  0  0  # atno 17342 bound_to 10162
  140.2439  143.3643  152.1463 LP  0  0  0  0  0  0  0  0  0  0  0  0  # atno 17343 bound_to 10162
  155.9778  130.4758  150.6616 LP  0  0  0  0  0  0  0  0  0  0  0  0  # atno 17370 bound_to 10713
  157.4257  131.0842  151.1088 LP  0  0  0  0  0  0  0  0  0  0  0  0  # atno 17371 bound_to 10713
  140.8819  133.7911  155.9476 LP  0  0  0  0  0  0  0  0  0  0  0  0  # atno 17394 bound_to 11000
  140.8845  134.2571  157.5127 LP  0  0  0  0  0  0  0  0  0  0  0  0  # atno 17395 bound_to 11000

$$$$
