AV-unprocessed.smi:287|AV-procd|sdf|2190|dock1
  -GOLD-   2262021583D 1   1.00000     0.00000
 Structure written by MMmdl.
 55 58  0  0  0  0  0  0  0  0  1 V2000
  141.6685  128.8092  158.6850 C   0  0  0  0  0  0  0  0  0  0  0  0
  143.0924  128.5272  158.3476 C   0  0  0  0  0  0  0  0  0  0  0  0
  143.7047  127.7454  157.4121 C   0  0  0  0  0  0  0  0  0  0  0  0
  145.1129  127.8994  157.5827 C   0  0  0  0  0  0  0  0  0  0  0  0
  146.1912  127.2170  156.7513 C   0  0  2  0  0  0  0  0  0  0  0  0
  145.5406  126.3181  155.6864 C   0  0  0  0  0  0  0  0  0  0  0  0
  147.0116  126.3538  157.5146 O   0  0  0  0  0  0  0  0  0  0  0  0
  147.1450  128.2324  156.0802 C   0  0  0  0  0  0  0  0  0  0  0  0
  147.8489  127.6755  154.9293 N   0  0  0  0  0  0  0  0  0  0  0  0
  147.5077  128.0476  153.6777 C   0  0  0  0  0  0  0  0  0  0  0  0
  147.7476  127.2346  152.6170 N   0  0  0  0  0  0  0  0  0  0  0  0
  147.3976  127.6242  151.3889 C   0  0  0  0  0  0  0  0  0  0  0  0
  146.8112  128.7618  151.0113 N   0  0  0  0  0  0  0  0  0  0  0  0
  146.5657  129.5882  152.0701 C   0  0  0  0  0  0  0  0  0  0  0  0
  146.8849  129.2977  153.4276 C   0  0  0  0  0  0  0  0  0  0  0  0
  146.4926  130.3495  154.2413 N   0  0  0  0  0  0  0  0  0  0  0  0
  145.9675  131.2081  153.4111 C   0  0  0  0  0  0  0  0  0  0  0  0
  145.9787  130.8441  152.0815 N   0  0  0  0  0  0  0  0  0  0  0  0
  145.4061  131.6505  150.9463 C   0  0  2  0  0  0  0  0  0  0  0  0
  146.0485  132.8851  150.9180 O   0  0  0  0  0  0  0  0  0  0  0  0
  145.2503  133.8479  151.5860 C   0  0  1  0  0  0  0  0  0  0  0  0
  145.6361  135.2703  151.1424 C   0  0  0  0  0  0  0  0  0  0  0  0
  145.0956  135.5981  149.8787 O   0  0  0  0  0  0  0  0  0  0  0  0
  143.7945  133.4144  151.3422 C   0  0  2  0  0  0  0  0  0  0  0  0
  143.0132  133.6675  152.4925 O   0  0  0  0  0  0  0  0  0  0  0  0
  143.8910  131.9080  151.0705 C   0  0  1  0  0  0  0  0  0  0  0  0
  143.2246  131.5894  149.8652 O   0  0  0  0  0  0  0  0  0  0  0  0
  145.2447  128.7723  158.6364 C   0  0  0  0  0  0  0  0  0  0  0  0
  146.4117  129.3676  159.3530 C   0  0  0  0  0  0  0  0  0  0  0  0
  144.0247  129.1583  159.1042 O   0  0  0  0  0  0  0  0  0  0  0  0
  145.6709  131.0709  150.0605 H   0  0  0  0  0  0  0  0  0  0  0  0
  145.4931  133.7575  152.6447 H   0  0  0  0  0  0  0  0  0  0  0  0
  143.3579  133.9348  150.4894 H   0  0  0  0  0  0  0  0  0  0  0  0
  143.4604  131.2951  151.8624 H   0  0  0  0  0  0  0  0  0  0  0  0
  140.9978  128.3436  157.9625 H   0  0  0  0  0  0  0  0  0  0  0  0
  141.4751  129.8818  158.6820 H   0  0  0  0  0  0  0  0  0  0  0  0
  141.4218  128.4223  159.6739 H   0  0  0  0  0  0  0  0  0  0  0  0
  143.1991  127.1336  156.6798 H   0  0  0  0  0  0  0  0  0  0  0  0
  144.9130  126.8977  155.0086 H   0  0  0  0  0  0  0  0  0  0  0  0
  144.9103  125.5541  156.1435 H   0  0  0  0  0  0  0  0  0  0  0  0
  146.2907  125.8085  155.0803 H   0  0  0  0  0  0  0  0  0  0  0  0
  147.8726  126.7380  157.5783 H   0  0  0  0  0  0  0  0  0  0  0  0
  146.6121  129.1426  155.8002 H   0  0  0  0  0  0  0  0  0  0  0  0
  147.9050  128.5269  156.8056 H   0  0  0  0  0  0  0  0  0  0  0  0
  148.6158  127.0515  155.1375 H   0  0  0  0  0  0  0  0  0  0  0  0
  147.6196  126.9260  150.5955 H   0  0  0  0  0  0  0  0  0  0  0  0
  145.5509  132.1449  153.7521 H   0  0  0  0  0  0  0  0  0  0  0  0
  145.2611  135.9944  151.8658 H   0  0  0  0  0  0  0  0  0  0  0  0
  146.7201  135.3808  151.1133 H   0  0  0  0  0  0  0  0  0  0  0  0
  145.6291  135.1956  149.2104 H   0  0  0  0  0  0  0  0  0  0  0  0
  143.0406  132.9006  153.0450 H   0  0  0  0  0  0  0  0  0  0  0  0
  142.2956  131.7012  149.9988 H   0  0  0  0  0  0  0  0  0  0  0  0
  147.0583  128.5869  159.7534 H   0  0  0  0  0  0  0  0  0  0  0  0
  146.0874  129.9925  160.1855 H   0  0  0  0  0  0  0  0  0  0  0  0
  147.0031  129.9875  158.6792 H   0  0  0  0  0  0  0  0  0  0  0  0
  1  2  1  0  0  0  0
  1 35  1  0  0  0  0
  1 36  1  0  0  0  0
  1 37  1  0  0  0  0
  2 30  1  0  0  0  0
  2  3  2  0  0  0  0
  3  4  1  0  0  0  0
  3 38  1  0  0  0  0
  4  5  1  0  0  0  0
  4 28  2  0  0  0  0
  5  6  1  0  0  0  0
  5  7  1  0  0  0  0
  5  8  1  0  0  0  0
  6 39  1  0  0  0  0
  6 40  1  0  0  0  0
  6 41  1  0  0  0  0
  7 42  1  0  0  0  0
  8  9  1  0  0  0  0
  8 43  1  0  0  0  0
  8 44  1  0  0  0  0
  9 10  1  0  0  0  0
  9 45  1  0  0  0  0
 10 15  1  0  0  0  0
 10 11  2  0  0  0  0
 11 12  1  0  0  0  0
 12 13  2  0  0  0  0
 12 46  1  0  0  0  0
 13 14  1  0  0  0  0
 14 18  1  0  0  0  0
 14 15  2  0  0  0  0
 15 16  1  0  0  0  0
 16 17  2  0  0  0  0
 17 18  1  0  0  0  0
 17 47  1  0  0  0  0
 18 19  1  0  0  0  0
 19 31  1  0  0  0  0
 19 26  1  0  0  0  0
 19 20  1  0  0  0  0
 20 21  1  0  0  0  0
 21 32  1  0  0  0  0
 21 22  1  0  0  0  0
 21 24  1  0  0  0  0
 22 23  1  0  0  0  0
 22 48  1  0  0  0  0
 22 49  1  0  0  0  0
 23 50  1  0  0  0  0
 24 33  1  0  0  0  0
 24 25  1  0  0  0  0
 24 26  1  0  0  0  0
 25 51  1  0  0  0  0
 26 34  1  0  0  0  0
 26 27  1  0  0  0  0
 27 52  1  0  0  0  0
 28 29  1  0  0  0  0
 28 30  1  0  0  0  0
 29 53  1  0  0  0  0
 29 54  1  0  0  0  0
 29 55  1  0  0  0  0
M  END
> <s_m_source_file>
AV-unprocessed.smi

> <i_m_source_file_index>
287

> <i_lp_mmshare_version>
43012

> <i_f3d_flags>
0

> <s_epik_input>
W0NIM11jMVtjSF1jKGMobzEpW0NIM10pW0NAQF0oW0NIM10pKFtPSF0pW0NIMl1bTkhdYyhuW2NIXW4yKWMoYzIzKW5bY0hdbjNbQ0BASF00T1tDQEhdKFtDSDJdW09IXSlbQ0BASF0oW09IXSlbQ0BIXTRbT0hd

> <s_epik_cmdline>
J2VwaWtfcHl0aG9uJywgJy1waCcsICc3LjAnLCAnLXRuJywgJzgnLCAnLW1hJywgJzIwMCcsICctbWV0YWxfYmluZGluZycsICctaW1hZScsICc8aW5maWxlLm1hZT4nLCAnLW9tYWUnLCAnPG91dGZpbGUubWFlPic=

> <r_lp_tautomer_probability>
1

> <r_epik_Ionization_Penalty>
0.000992612

> <r_epik_Ionization_Penalty_Charging>
0

> <r_epik_Ionization_Penalty_Neutral>
0.000992612

> <r_epik_State_Penalty>
-0

> <r_epik_Charging_Adjusted_Penalty>
0

> <i_epik_Tot_Q>
0

> <i_epik_Tot_abs_Q>
0

> <r_epik_Metal_State_Penalty>
-0

> <b_epik_Metal_Only>
0

> <s_epik_Chemistry_Notes>
This compound contains an acetal/aminal-like group ( X-CH(R)-Y where X, Y are N, S, or O) that may be acid/base labile, releasing an aldehyde.

> <s_lp_Force_Field>
OPLS_2005

> <r_lp_Energy>
41.2787

> <b_lp_Chiralities_Consistent>
1

> <s_lp_Variant>
AV-unprocessed.smi:287-14

> <Gold.Version>
5.8.1

> <Gold.Id.Protein>
6NUR|6NUR_protein|mol2

> <Gold.PLP.Fitness>
49.0838

> <Gold.PLP.PLP>
-39.9642

> <Gold.PLP.part.hbond>
-4.4564

> <Gold.PLP.part.metal>
0.0000

> <Gold.PLP.part.buried>
-8.6694

> <Gold.PLP.part.nonpolar>
-29.3535

> <Gold.PLP.part.repulsive>
1.1885

> <Gold.PLP.ligand.clash>
0.0000

> <Gold.PLP.ligand.torsion>
0.6945

> <Gold.PLP.Chemscore.Hbond>
3.4195

> <Gold.PLP.Chemscore.CHOScore>
0.0000

> <Gold.PLP.Chemscore.Metal>
0.0000

> <Gold.Chemscore.Hbonds>
donor molecule, donor type, donor heavy atom, donor atom, acceptor molecule, acceptor atom, score
      L1  H    23    50       P1  7921  1.00
      L1  H    25    51       P1 10957  0.84
      L1  H    27    52       P1 10952  0.55
      P1  H 10785 10796       L1    27  1.00

> <Gold.PLP.Chemscore.Internal.Correction>
0.2501

> <Gold.Rescore>
     Score         DG    S(hbond)    S(metal)    S(lipo)     H(rot)  DE(clash)    DE(int)     intcor
      4.53      -6.69       2.61        0.00      51.06       5.27       0.15       2.00       ----

> <Gold.Chemscore.Fitness>
4.5340

> <Gold.Chemscore.DG>
-6.6882

> <Gold.Chemscore.ZeroCoef>
-5.4800

> <Gold.Chemscore.Hbond>
2.6103

> <Gold.Chemscore.Metal>
0.0000

> <Gold.Chemscore.Lipo>
51.0580

> <Gold.Chemscore.Internal_Hbond>
0.0000

> <Gold.Chemscore.DEClash>
0.1521

> <Gold.Chemscore.DEInternal>
2.0021

> <Gold.Chemscore.Rot>
5.2672

> <Gold.Chemscore.Internal.Correction>
   9.000000E+99

> <Gold.Chemscore.Hbonds>
donor molecule, donor type, donor heavy atom, donor atom, acceptor molecule, acceptor atom, score
      L1  H    23    50       P1  7921  0.99
      L1  H    25    51       P1 10957  0.36
      L1  H    27    52       P1 10952  0.47
      P1  H 10785 10796       L1    27  0.25

> <Gold.Chemscore.Hbond.Weighted>
-8.7183

> <Gold.Chemscore.Metal.Weighted>
-0.0000

> <Gold.Chemscore.Lipo.Weighted>
-5.9738

> <Gold.Chemscore.Internal_Hbond.Weighted>
0.0000

> <Gold.Chemscore.DEClash.Weighted>
0.1521

> <Gold.Chemscore.DEInternal.Weighted>
2.0021

> <Gold.Chemscore.Rot.Weighted>
13.4839

> <Gold.Chemscore.Internal.Correction.Weighted>
   9.000000E+99

> <Gold.Protein.RotatedTorsions>
[ 6907 6896 6895 6894 ] final  164.82 input  -60.11 | X-H torsion
[ 7974 7965 7964 7962 ] final -115.93 input  175.53 | X-H torsion
[ 8008 7997 7996 7995 ] final -170.79 input   59.86 | X-H torsion
[ 10167 10162 10161 10158 ] final   49.96 input  -65.29 | X-H torsion
[ 10718 10713 10712 10709 ] final  164.83 input   66.30 | X-H torsion
[ 10763 10752 10751 10750 ] final -165.02 input  -60.55 | X-H torsion
[ 11005 11000 10999 10996 ] final  -71.60 input  -57.11 | X-H torsion

> <Gold.Protein.ActiveResidues>
 VAL166  LYS551  ARG553  GLY616  TRP617  ASP618  TYR619  PRO620  LYS621  CYS622 
 ASP623  PHE694  ASN695  SER759  ASP760  ASP761  ALA762  ILE779  LEU786  VAL792 
 PHE793  MET794  SER795  GLU796  ALA797  LYS798  CYS799  TRP800  GLU811  SER814 

> <Gold.Protein.RotatedAtoms>
  151.9040  133.3545  159.3840 H   0  0  0  0  0  0  0  0  0  0  0  0  # atno 6907 bound_to 6896
  150.7073  134.4799  159.5475 H   0  0  0  0  0  0  0  0  0  0  0  0  # atno 6908 bound_to 6896
  152.2393  134.8245  160.0513 H   0  0  0  0  0  0  0  0  0  0  0  0  # atno 6909 bound_to 6896
  145.1026  140.8561  143.3917 H   0  0  0  0  0  0  0  0  0  0  0  0  # atno 7974 bound_to 7965
  155.9230  140.1077  157.1192 H   0  0  0  0  0  0  0  0  0  0  0  0  # atno 8008 bound_to 7997
  154.4057  140.1252  156.4769 H   0  0  0  0  0  0  0  0  0  0  0  0  # atno 8009 bound_to 7997
  155.7173  140.3470  155.5002 H   0  0  0  0  0  0  0  0  0  0  0  0  # atno 8010 bound_to 7997
  140.2774  144.3196  150.6273 H   0  0  0  0  0  0  0  0  0  0  0  0  # atno 10167 bound_to 10162
  157.0888  131.0412  151.2545 H   0  0  0  0  0  0  0  0  0  0  0  0  # atno 10718 bound_to 10713
  154.6972  135.2981  154.9393 H   0  0  0  0  0  0  0  0  0  0  0  0  # atno 10763 bound_to 10752
  154.0337  135.6666  153.4787 H   0  0  0  0  0  0  0  0  0  0  0  0  # atno 10764 bound_to 10752
  153.0655  135.5091  154.8097 H   0  0  0  0  0  0  0  0  0  0  0  0  # atno 10765 bound_to 10752
  141.1595  133.6822  156.6930 H   0  0  0  0  0  0  0  0  0  0  0  0  # atno 11005 bound_to 11000
  145.0938  139.2871  143.5721 LP  0  0  0  0  0  0  0  0  0  0  0  0  # atno 17320 bound_to 7965
  146.3529  140.0483  142.8638 LP  0  0  0  0  0  0  0  0  0  0  0  0  # atno 17321 bound_to 7965
  140.5840  143.2171  151.7377 LP  0  0  0  0  0  0  0  0  0  0  0  0  # atno 17342 bound_to 10162
  139.4972  144.4039  152.0153 LP  0  0  0  0  0  0  0  0  0  0  0  0  # atno 17343 bound_to 10162
  157.4738  130.7724  149.7349 LP  0  0  0  0  0  0  0  0  0  0  0  0  # atno 17370 bound_to 10713
  155.9903  130.3945  150.3032 LP  0  0  0  0  0  0  0  0  0  0  0  0  # atno 17371 bound_to 10713
  140.3016  134.8159  157.4102 LP  0  0  0  0  0  0  0  0  0  0  0  0  # atno 17394 bound_to 11000
  140.1257  134.5161  155.8147 LP  0  0  0  0  0  0  0  0  0  0  0  0  # atno 17395 bound_to 11000

$$$$
