AV-unprocessed.smi:814|AV-procd|sdf|3824|dock3
  -GOLD-   22720 1263D 1   1.00000     0.00000
 Structure written by MMmdl.
 36 37  0  0  0  0  0  0  0  0  1 V2000
  146.9965  142.3689  154.0016 C   0  0  0  0  0  0  0  0  0  0  0  0
  147.3714  140.9721  153.8898 N   0  0  0  0  0  0  0  0  0  0  0  0
  146.8571  140.0590  152.9789 C   0  0  0  0  0  0  0  0  0  0  0  0
  147.4798  138.8599  153.2290 C   0  0  0  0  0  0  0  0  0  0  0  0
  148.3741  139.0150  154.2829 N   0  0  0  0  0  0  0  0  0  0  0  0
  148.2723  140.2951  154.6280 C   0  0  0  0  0  0  0  0  0  0  0  0
  149.0490  140.9207  155.7440 C   0  0  0  0  0  0  0  0  0  0  0  0
  150.0453  141.9801  155.2453 C   0  0  0  0  0  0  0  0  0  0  0  0
  150.6736  142.6870  156.3551 N   0  0  0  0  0  0  0  0  0  0  0  0
  151.4010  142.1047  157.3211 C   0  0  0  0  0  0  0  0  0  0  0  0
  151.6251  140.8942  157.3578 O   0  0  0  0  0  0  0  0  0  0  0  0
  151.9576  143.0272  158.4137 C   0  0  1  0  0  0  0  0  0  0  0  0
  151.1349  144.3329  158.5113 C   0  0  0  0  0  0  0  0  0  0  0  0
  151.4865  145.1434  159.7461 C   0  0  0  0  0  0  0  0  0  0  0  0
  152.1666  144.6413  160.7910 C   0  0  0  0  0  0  0  0  0  0  0  0
  152.6572  143.2059  160.8571 C   0  0  0  0  0  0  0  0  0  0  0  0
  152.0061  142.3162  159.7811 C   0  0  0  0  0  0  0  0  0  0  0  0
  146.1322  142.5776  153.3709 H   0  0  0  0  0  0  0  0  0  0  0  0
  147.8271  142.9990  153.6836 H   0  0  0  0  0  0  0  0  0  0  0  0
  146.7415  142.6053  155.0349 H   0  0  0  0  0  0  0  0  0  0  0  0
  146.1085  140.3295  152.2489 H   0  0  0  0  0  0  0  0  0  0  0  0
  147.3540  137.9066  152.7374 H   0  0  0  0  0  0  0  0  0  0  0  0
  148.3444  141.3771  156.4403 H   0  0  0  0  0  0  0  0  0  0  0  0
  149.5641  140.1407  156.3055 H   0  0  0  0  0  0  0  0  0  0  0  0
  150.8105  141.5213  154.6168 H   0  0  0  0  0  0  0  0  0  0  0  0
  149.5301  142.7109  154.6213 H   0  0  0  0  0  0  0  0  0  0  0  0
  150.5401  143.6871  156.3958 H   0  0  0  0  0  0  0  0  0  0  0  0
  152.9821  143.2935  158.1459 H   0  0  0  0  0  0  0  0  0  0  0  0
  151.3159  144.9482  157.6291 H   0  0  0  0  0  0  0  0  0  0  0  0
  150.0638  144.1274  158.5406 H   0  0  0  0  0  0  0  0  0  0  0  0
  151.1500  146.1695  159.7675 H   0  0  0  0  0  0  0  0  0  0  0  0
  152.3966  145.2742  161.6356 H   0  0  0  0  0  0  0  0  0  0  0  0
  153.7406  143.2145  160.7347 H   0  0  0  0  0  0  0  0  0  0  0  0
  152.4521  142.8001  161.8480 H   0  0  0  0  0  0  0  0  0  0  0  0
  150.9922  142.0622  160.0953 H   0  0  0  0  0  0  0  0  0  0  0  0
  152.5500  141.3734  159.7080 H   0  0  0  0  0  0  0  0  0  0  0  0
  1  2  1  0  0  0  0
  1 18  1  0  0  0  0
  1 19  1  0  0  0  0
  1 20  1  0  0  0  0
  2  6  1  0  0  0  0
  2  3  1  0  0  0  0
  3  4  2  0  0  0  0
  3 21  1  0  0  0  0
  4  5  1  0  0  0  0
  4 22  1  0  0  0  0
  5  6  2  0  0  0  0
  6  7  1  0  0  0  0
  7  8  1  0  0  0  0
  7 23  1  0  0  0  0
  7 24  1  0  0  0  0
  8  9  1  0  0  0  0
  8 25  1  0  0  0  0
  8 26  1  0  0  0  0
  9 10  1  0  0  0  0
  9 27  1  0  0  0  0
 10 11  2  0  0  0  0
 10 12  1  0  0  0  0
 12 17  1  0  0  0  0
 12 13  1  0  0  0  0
 12 28  1  0  0  0  0
 13 14  1  0  0  0  0
 13 29  1  0  0  0  0
 13 30  1  0  0  0  0
 14 15  2  0  0  0  0
 14 31  1  0  0  0  0
 15 16  1  0  0  0  0
 15 32  1  0  0  0  0
 16 17  1  0  0  0  0
 16 33  1  0  0  0  0
 16 34  1  0  0  0  0
 17 35  1  0  0  0  0
 17 36  1  0  0  0  0
M  END
> <s_m_source_file>
AV-unprocessed.smi

> <i_m_source_file_index>
814

> <i_lp_mmshare_version>
43012

> <i_f3d_flags>
0

> <s_epik_input>
W0NIM11uMVtjSF1bY0hdbmMxW0NIMl1bQ0gyXVtOSF1DKD1PKVtDQEBIXTJbQ0gyXVtDSF09W0NIXVtDSDJdW0NIMl0y

> <s_epik_cmdline>
J2VwaWtfcHl0aG9uJywgJy1waCcsICc3LjAnLCAnLXRuJywgJzgnLCAnLW1hJywgJzIwMCcsICctbWV0YWxfYmluZGluZycsICctaW1hZScsICc8aW5maWxlLm1hZT4nLCAnLW9tYWUnLCAnPG91dGZpbGUubWFlPic=

> <r_lp_tautomer_probability>
1

> <r_epik_Ionization_Penalty>
1.21249

> <r_epik_Ionization_Penalty_Charging>
1.21249

> <r_epik_Ionization_Penalty_Neutral>
1.60917e-08

> <r_epik_State_Penalty>
1.27906

> <r_epik_Charging_Adjusted_Penalty>
2.49154

> <i_epik_Tot_Q>
0

> <i_epik_Tot_abs_Q>
0

> <r_epik_Metal_State_Penalty>
0.409603

> <b_epik_Metal_Only>
0

> <s_lp_Force_Field>
OPLS_2005

> <r_lp_Energy>
6.01065

> <b_lp_Chiralities_Consistent>
1

> <s_lp_Variant>
AV-unprocessed.smi:814-4

> <Gold.Version>
5.8.1

> <Gold.Id.Protein>
6NUR|6NUR_protein|mol2

> <Gold.PLP.Fitness>
41.5803

> <Gold.PLP.PLP>
-35.4375

> <Gold.PLP.part.hbond>
-1.0000

> <Gold.PLP.part.metal>
0.0000

> <Gold.PLP.part.buried>
-2.8105

> <Gold.PLP.part.nonpolar>
-31.8528

> <Gold.PLP.part.repulsive>
0.2350

> <Gold.PLP.ligand.clash>
0.0000

> <Gold.PLP.ligand.torsion>
0.7346

> <Gold.PLP.Chemscore.Hbond>
0.5280

> <Gold.PLP.Chemscore.CHOScore>
2.0000

> <Gold.PLP.Chemscore.Metal>
0.0000

> <Gold.Chemscore.Hbonds>
donor molecule, donor type, donor heavy atom, donor atom, acceptor molecule, acceptor atom, score
      L1  H     9    27       P1  8028  0.47
      L1  C     3    21       P1 10175  1.00
      L1  C     4    22       P1  7948  1.00

> <Gold.PLP.Chemscore.Internal.Correction>
0.0279

> <Gold.Rescore>
     Score         DG    S(hbond)    S(metal)    S(lipo)     H(rot)  DE(clash)    DE(int)     intcor
     13.63     -15.35       0.66        0.00     100.17       1.58       0.26       1.45       ----

> <Gold.Chemscore.Fitness>
13.6346

> <Gold.Chemscore.DG>
-15.3464

> <Gold.Chemscore.ZeroCoef>
-5.4800

> <Gold.Chemscore.Hbond>
0.6568

> <Gold.Chemscore.Metal>
0.0000

> <Gold.Chemscore.Lipo>
100.1707

> <Gold.Chemscore.Internal_Hbond>
0.0000

> <Gold.Chemscore.DEClash>
0.2626

> <Gold.Chemscore.DEInternal>
1.4492

> <Gold.Chemscore.Rot>
1.5809

> <Gold.Chemscore.Internal.Correction>
   9.000000E+99

> <Gold.Chemscore.Hbonds>
donor molecule, donor type, donor heavy atom, donor atom, acceptor molecule, acceptor atom, score
      L1  H     9    27       P1  8028  0.47

> <Gold.Chemscore.Hbond.Weighted>
-2.1936

> <Gold.Chemscore.Metal.Weighted>
-0.0000

> <Gold.Chemscore.Lipo.Weighted>
-11.7200

> <Gold.Chemscore.Internal_Hbond.Weighted>
0.0000

> <Gold.Chemscore.DEClash.Weighted>
0.2626

> <Gold.Chemscore.DEInternal.Weighted>
1.4492

> <Gold.Chemscore.Rot.Weighted>
4.0472

> <Gold.Chemscore.Internal.Correction.Weighted>
   9.000000E+99

> <Gold.Protein.RotatedTorsions>
[ 6907 6896 6895 6894 ] final   40.16 input  -60.11 | X-H torsion
[ 7974 7965 7964 7962 ] final -101.02 input  175.53 | X-H torsion
[ 8008 7997 7996 7995 ] final   56.47 input   59.86 | X-H torsion
[ 10167 10162 10161 10158 ] final  -53.42 input  -65.29 | X-H torsion
[ 10718 10713 10712 10709 ] final -155.58 input   66.30 | X-H torsion
[ 10763 10752 10751 10750 ] final  -15.49 input  -60.55 | X-H torsion
[ 11005 11000 10999 10996 ] final   76.53 input  -57.11 | X-H torsion

> <Gold.Protein.ActiveResidues>
 VAL166  LYS551  ARG553  GLY616  TRP617  ASP618  TYR619  PRO620  LYS621  CYS622 
 ASP623  PHE694  ASN695  SER759  ASP760  ASP761  ALA762  ILE779  LEU786  VAL792 
 PHE793  MET794  SER795  GLU796  ALA797  LYS798  CYS799  TRP800  GLU811  SER814 

> <Gold.Protein.RotatedAtoms>
  152.1789  134.8770  160.0527 H   0  0  0  0  0  0  0  0  0  0  0  0  # atno 6907 bound_to 6896
  151.9702  133.3718  159.4076 H   0  0  0  0  0  0  0  0  0  0  0  0  # atno 6908 bound_to 6896
  150.6914  134.4071  159.5189 H   0  0  0  0  0  0  0  0  0  0  0  0  # atno 6909 bound_to 6896
  145.2871  140.9342  143.2899 H   0  0  0  0  0  0  0  0  0  0  0  0  # atno 7974 bound_to 7965
  155.5179  140.3479  155.4401 H   0  0  0  0  0  0  0  0  0  0  0  0  # atno 8008 bound_to 7997
  156.0804  140.1385  156.9746 H   0  0  0  0  0  0  0  0  0  0  0  0  # atno 8009 bound_to 7997
  154.4577  140.0947  156.6780 H   0  0  0  0  0  0  0  0  0  0  0  0  # atno 8010 bound_to 7997
  140.6485  143.2551  151.4790 H   0  0  0  0  0  0  0  0  0  0  0  0  # atno 10167 bound_to 10162
  156.5148  130.8451  151.2660 H   0  0  0  0  0  0  0  0  0  0  0  0  # atno 10718 bound_to 10713
  153.5441  135.7013  153.5622 H   0  0  0  0  0  0  0  0  0  0  0  0  # atno 10763 bound_to 10752
  153.3575  135.3978  155.1693 H   0  0  0  0  0  0  0  0  0  0  0  0  # atno 10764 bound_to 10752
  154.8670  135.3780  154.4947 H   0  0  0  0  0  0  0  0  0  0  0  0  # atno 10765 bound_to 10752
  139.9294  134.7608  156.1407 H   0  0  0  0  0  0  0  0  0  0  0  0  # atno 11005 bound_to 11000
  144.9204  139.4419  143.6544 LP  0  0  0  0  0  0  0  0  0  0  0  0  # atno 17320 bound_to 7965
  146.3197  139.8061  142.8955 LP  0  0  0  0  0  0  0  0  0  0  0  0  # atno 17321 bound_to 7965
  139.5698  144.1955  152.1819 LP  0  0  0  0  0  0  0  0  0  0  0  0  # atno 17342 bound_to 10162
  140.1248  144.5341  150.6839 LP  0  0  0  0  0  0  0  0  0  0  0  0  # atno 17343 bound_to 10162
  157.7445  130.9937  150.2682 LP  0  0  0  0  0  0  0  0  0  0  0  0  # atno 17370 bound_to 10713
  156.3205  130.3785  149.7579 LP  0  0  0  0  0  0  0  0  0  0  0  0  # atno 17371 bound_to 10713
  141.0873  133.6728  156.2465 LP  0  0  0  0  0  0  0  0  0  0  0  0  # atno 17394 bound_to 11000
  140.6244  134.5329  157.5552 LP  0  0  0  0  0  0  0  0  0  0  0  0  # atno 17395 bound_to 11000

$$$$
