AV-unprocessed.smi:1548|AV-procd|sdf|6221|dock7
  -GOLD-   22720 6393D 1   1.00000     0.00000
 Structure written by MMmdl.
 45 46  0  0  0  0  0  0  0  0  1 V2000
  146.0532  133.2324  150.9196 C   0  0  0  0  0  0  0  0  0  0  0  0
  146.2109  132.5711  152.2909 C   0  0  0  0  0  0  0  0  0  0  0  0
  147.1361  133.3327  153.0610 O   0  0  0  0  0  0  0  0  0  0  0  0
  147.8275  132.7050  154.0797 C   0  0  0  0  0  0  0  0  0  0  0  0
  147.5612  131.3987  154.3323 N   0  0  0  0  0  0  0  0  0  0  0  0
  148.2384  130.7843  155.3239 C   0  0  0  0  0  0  0  0  0  0  0  0
  149.2128  131.4303  156.1068 C   0  0  0  0  0  0  0  0  0  0  0  0
  149.4898  132.7852  155.8481 C   0  0  0  0  0  0  0  0  0  0  0  0
  148.7772  133.4475  154.8196 C   0  0  0  0  0  0  0  0  0  0  0  0
  149.0021  134.8055  154.4642 N   0  0  0  0  0  0  0  0  0  0  0  0
  149.6381  135.7536  155.1724 C   0  0  0  0  0  0  0  0  0  0  0  0
  150.0943  135.6043  156.3059 O   0  0  0  0  0  0  0  0  0  0  0  0
  149.6950  136.9078  154.4927 N   0  0  0  0  0  0  0  0  0  0  0  0
  150.2967  138.1495  154.9717 C   0  0  0  0  0  0  0  0  0  0  0  0
  151.7919  137.9405  155.2560 C   0  0  0  0  0  0  0  0  0  0  0  0
  152.4337  139.2089  155.8455 C   0  0  0  0  0  0  0  0  0  0  0  0
  151.7030  139.6882  157.0362 N   0  0  0  0  0  0  0  0  0  0  0  0
  152.3251  139.3629  158.6287 S   0  0  0  0  0  0  0  0  0  0  0  0
  152.4288  141.0210  159.4183 C   0  0  0  0  0  0  0  0  0  0  0  0
  151.3179  138.5720  159.3524 O   0  0  0  0  0  0  0  0  0  0  0  0
  153.6920  138.8407  158.4790 O   0  0  0  0  0  0  0  0  0  0  0  0
  150.2518  139.8735  156.8352 C   0  0  0  0  0  0  0  0  0  0  0  0
  149.5920  138.6100  156.2555 C   0  0  0  0  0  0  0  0  0  0  0  0
  145.3399  132.6851  150.3032 H   0  0  0  0  0  0  0  0  0  0  0  0
  147.0038  133.2601  150.3869 H   0  0  0  0  0  0  0  0  0  0  0  0
  145.6932  134.2567  151.0181 H   0  0  0  0  0  0  0  0  0  0  0  0
  145.2418  132.5317  152.7907 H   0  0  0  0  0  0  0  0  0  0  0  0
  146.5695  131.5484  152.1646 H   0  0  0  0  0  0  0  0  0  0  0  0
  148.0011  129.7446  155.4938 H   0  0  0  0  0  0  0  0  0  0  0  0
  149.7401  130.8973  156.8841 H   0  0  0  0  0  0  0  0  0  0  0  0
  150.2506  133.2848  156.4282 H   0  0  0  0  0  0  0  0  0  0  0  0
  148.5787  135.1016  153.5969 H   0  0  0  0  0  0  0  0  0  0  0  0
  149.2860  136.9316  153.5701 H   0  0  0  0  0  0  0  0  0  0  0  0
  150.1887  138.9374  154.2237 H   0  0  0  0  0  0  0  0  0  0  0  0
  151.9266  137.1041  155.9415 H   0  0  0  0  0  0  0  0  0  0  0  0
  152.3100  137.6656  154.3366 H   0  0  0  0  0  0  0  0  0  0  0  0
  153.4802  139.0274  156.0887 H   0  0  0  0  0  0  0  0  0  0  0  0
  152.4259  140.0013  155.0962 H   0  0  0  0  0  0  0  0  0  0  0  0
  152.8205  140.9094  160.4289 H   0  0  0  0  0  0  0  0  0  0  0  0
  151.4383  141.4694  159.4713 H   0  0  0  0  0  0  0  0  0  0  0  0
  153.0997  141.6621  158.8494 H   0  0  0  0  0  0  0  0  0  0  0  0
  149.7712  140.1566  157.7713 H   0  0  0  0  0  0  0  0  0  0  0  0
  150.1039  140.7087  156.1497 H   0  0  0  0  0  0  0  0  0  0  0  0
  148.5405  138.8130  156.0485 H   0  0  0  0  0  0  0  0  0  0  0  0
  149.6063  137.8104  156.9952 H   0  0  0  0  0  0  0  0  0  0  0  0
  1  2  1  0  0  0  0
  1 24  1  0  0  0  0
  1 25  1  0  0  0  0
  1 26  1  0  0  0  0
  2  3  1  0  0  0  0
  2 27  1  0  0  0  0
  2 28  1  0  0  0  0
  3  4  1  0  0  0  0
  4  9  1  0  0  0  0
  4  5  2  0  0  0  0
  5  6  1  0  0  0  0
  6  7  2  0  0  0  0
  6 29  1  0  0  0  0
  7  8  1  0  0  0  0
  7 30  1  0  0  0  0
  8  9  2  0  0  0  0
  8 31  1  0  0  0  0
  9 10  1  0  0  0  0
 10 11  1  0  0  0  0
 10 32  1  0  0  0  0
 11 12  2  0  0  0  0
 11 13  1  0  0  0  0
 13 14  1  0  0  0  0
 13 33  1  0  0  0  0
 14 23  1  0  0  0  0
 14 15  1  0  0  0  0
 14 34  1  0  0  0  0
 15 16  1  0  0  0  0
 15 35  1  0  0  0  0
 15 36  1  0  0  0  0
 16 17  1  0  0  0  0
 16 37  1  0  0  0  0
 16 38  1  0  0  0  0
 17 18  1  0  0  0  0
 17 22  1  0  0  0  0
 18 19  1  0  0  0  0
 18 20  2  0  0  0  0
 18 21  2  0  0  0  0
 19 39  1  0  0  0  0
 19 40  1  0  0  0  0
 19 41  1  0  0  0  0
 22 23  1  0  0  0  0
 22 42  1  0  0  0  0
 22 43  1  0  0  0  0
 23 44  1  0  0  0  0
 23 45  1  0  0  0  0
M  END
> <s_m_source_file>
AV-unprocessed.smi

> <i_m_source_file_index>
1548

> <i_lp_mmshare_version>
43012

> <i_f3d_flags>
0

> <s_epik_input>
W0NIM11bQ0gyXU9jMW5bY0hdW2NIXVtjSF1jMVtOSF1DKD1PKVtOSF1bQ0hdMltDSDJdW0NIMl1OKFMoPU8pKD1PKVtDSDNdKVtDSDJdW0NIMl0y

> <s_epik_cmdline>
J2VwaWtfcHl0aG9uJywgJy1waCcsICc3LjAnLCAnLXRuJywgJzgnLCAnLW1hJywgJzIwMCcsICctbWV0YWxfYmluZGluZycsICctaW1hZScsICc8aW5maWxlLm1hZT4nLCAnLW9tYWUnLCAnPG91dGZpbGUubWFlPic=

> <r_lp_tautomer_probability>
1

> <r_epik_Ionization_Penalty>
0.000113093

> <r_epik_Ionization_Penalty_Charging>
0

> <r_epik_Ionization_Penalty_Neutral>
0.000113093

> <r_epik_State_Penalty>
-0

> <r_epik_Charging_Adjusted_Penalty>
0

> <i_epik_Tot_Q>
0

> <i_epik_Tot_abs_Q>
0

> <r_epik_Metal_State_Penalty>
-0

> <b_epik_Metal_Only>
0

> <s_lp_Force_Field>
OPLS_2005

> <r_lp_Energy>
3.39389

> <b_lp_Chiralities_Consistent>
1

> <s_lp_Variant>
AV-unprocessed.smi:1548-1

> <Gold.Version>
5.8.1

> <Gold.Id.Protein>
6NUR|6NUR_protein|mol2

> <Gold.PLP.Fitness>
42.1298

> <Gold.PLP.PLP>
-34.8606

> <Gold.PLP.part.hbond>
-3.1329

> <Gold.PLP.part.metal>
0.0000

> <Gold.PLP.part.buried>
-3.0612

> <Gold.PLP.part.nonpolar>
-29.4206

> <Gold.PLP.part.repulsive>
0.3707

> <Gold.PLP.ligand.clash>
0.0000

> <Gold.PLP.ligand.torsion>
1.2490

> <Gold.PLP.Chemscore.Hbond>
2.5600

> <Gold.PLP.Chemscore.CHOScore>
0.0000

> <Gold.PLP.Chemscore.Metal>
0.0000

> <Gold.Chemscore.Hbonds>
donor molecule, donor type, donor heavy atom, donor atom, acceptor molecule, acceptor atom, score
      L1  H    10    32       P1  7948  0.73
      L1  H    13    33       P1  7948  1.00
      P1  H  7997  8009       L1    21  0.30

> <Gold.PLP.Chemscore.Internal.Correction>
2.0872

> <Gold.Rescore>
     Score         DG    S(hbond)    S(metal)    S(lipo)     H(rot)  DE(clash)    DE(int)     intcor
     13.50     -17.10       2.11        0.00      70.83       1.45       0.14       3.46       ----

> <Gold.Chemscore.Fitness>
13.4953

> <Gold.Chemscore.DG>
-17.0983

> <Gold.Chemscore.ZeroCoef>
-5.4800

> <Gold.Chemscore.Hbond>
2.1124

> <Gold.Chemscore.Metal>
0.0000

> <Gold.Chemscore.Lipo>
70.8319

> <Gold.Chemscore.Internal_Hbond>
0.0000

> <Gold.Chemscore.DEClash>
0.1449

> <Gold.Chemscore.DEInternal>
3.4581

> <Gold.Chemscore.Rot>
1.4549

> <Gold.Chemscore.Internal.Correction>
   9.000000E+99

> <Gold.Chemscore.Hbonds>
donor molecule, donor type, donor heavy atom, donor atom, acceptor molecule, acceptor atom, score
      L1  H    10    32       P1  7948  0.61
      L1  H    13    33       P1  7948  0.95
      P1  H  7997  8009       L1    21  0.28

> <Gold.Chemscore.Hbond.Weighted>
-7.0554

> <Gold.Chemscore.Metal.Weighted>
-0.0000

> <Gold.Chemscore.Lipo.Weighted>
-8.2873

> <Gold.Chemscore.Internal_Hbond.Weighted>
0.0000

> <Gold.Chemscore.DEClash.Weighted>
0.1449

> <Gold.Chemscore.DEInternal.Weighted>
3.4581

> <Gold.Chemscore.Rot.Weighted>
3.7244

> <Gold.Chemscore.Internal.Correction.Weighted>
   9.000000E+99

> <Gold.Protein.RotatedTorsions>
[ 6907 6896 6895 6894 ] final -140.39 input  -60.11 | X-H torsion
[ 7974 7965 7964 7962 ] final -163.83 input  175.53 | X-H torsion
[ 8008 7997 7996 7995 ] final  109.23 input   59.86 | X-H torsion
[ 10167 10162 10161 10158 ] final -151.85 input  -65.29 | X-H torsion
[ 10718 10713 10712 10709 ] final    9.29 input   66.30 | X-H torsion
[ 10763 10752 10751 10750 ] final  -11.54 input  -60.55 | X-H torsion
[ 11005 11000 10999 10996 ] final   55.72 input  -57.11 | X-H torsion

> <Gold.Protein.ActiveResidues>
 VAL166  LYS551  ARG553  GLY616  TRP617  ASP618  TYR619  PRO620  LYS621  CYS622 
 ASP623  PHE694  ASN695  SER759  ASP760  ASP761  ALA762  ILE779  LEU786  VAL792 
 PHE793  MET794  SER795  GLU796  ALA797  LYS798  CYS799  TRP800  GLU811  SER814 

> <Gold.Protein.RotatedAtoms>
  151.0601  133.5551  159.2634 H   0  0  0  0  0  0  0  0  0  0  0  0  # atno 6907 bound_to 6896
  151.2529  135.0627  159.9079 H   0  0  0  0  0  0  0  0  0  0  0  0  # atno 6908 bound_to 6896
  152.5396  134.0359  159.8099 H   0  0  0  0  0  0  0  0  0  0  0  0  # atno 6909 bound_to 6896
  144.7314  140.3049  143.6198 H   0  0  0  0  0  0  0  0  0  0  0  0  # atno 7974 bound_to 7965
  156.1964  140.3061  155.9435 H   0  0  0  0  0  0  0  0  0  0  0  0  # atno 8008 bound_to 7997
  155.3057  140.0448  157.3049 H   0  0  0  0  0  0  0  0  0  0  0  0  # atno 8009 bound_to 7997
  154.5515  140.2293  155.8487 H   0  0  0  0  0  0  0  0  0  0  0  0  # atno 8010 bound_to 7997
  139.7232  143.8924  152.2510 H   0  0  0  0  0  0  0  0  0  0  0  0  # atno 10167 bound_to 10162
  156.9641  130.5944  149.5664 H   0  0  0  0  0  0  0  0  0  0  0  0  # atno 10718 bound_to 10713
  153.4852  135.7017  153.5915 H   0  0  0  0  0  0  0  0  0  0  0  0  # atno 10763 bound_to 10752
  153.4111  135.3848  155.2051 H   0  0  0  0  0  0  0  0  0  0  0  0  # atno 10764 bound_to 10752
  154.8719  135.3905  154.4306 H   0  0  0  0  0  0  0  0  0  0  0  0  # atno 10765 bound_to 10752
  140.0585  134.5636  155.9180 H   0  0  0  0  0  0  0  0  0  0  0  0  # atno 11005 bound_to 11000
  145.7723  139.1861  143.2205 LP  0  0  0  0  0  0  0  0  0  0  0  0  # atno 17320 bound_to 7965
  146.0901  140.7666  142.9599 LP  0  0  0  0  0  0  0  0  0  0  0  0  # atno 17321 bound_to 7965
  139.8826  144.7009  150.8860 LP  0  0  0  0  0  0  0  0  0  0  0  0  # atno 17342 bound_to 10162
  140.7757  143.3649  151.1758 LP  0  0  0  0  0  0  0  0  0  0  0  0  # atno 17343 bound_to 10162
  156.0310  130.5401  150.8533 LP  0  0  0  0  0  0  0  0  0  0  0  0  # atno 17370 bound_to 10713
  157.5637  131.0946  150.9521 LP  0  0  0  0  0  0  0  0  0  0  0  0  # atno 17371 bound_to 10713
  141.1962  133.6591  156.5682 LP  0  0  0  0  0  0  0  0  0  0  0  0  # atno 17394 bound_to 11000
  140.3807  134.7525  157.4659 LP  0  0  0  0  0  0  0  0  0  0  0  0  # atno 17395 bound_to 11000

$$$$
