AV-unprocessed.smi:2774|AV-procd|sdf|10680|dock6
  -GOLD-   2272015123D 1   1.00000     0.00000
 Structure written by MMmdl.
 35 36  0  0  0  0  0  0  0  0  2 V2000
  147.4528  138.1449  151.0094 O   0  0  0  0  0  0  0  0  0  0  0  0
  146.4065  138.3641  151.9352 C   0  0  2  0  0  0  0  0  0  0  0  0
  147.0214  138.6310  153.3202 C   0  0  0  0  0  0  0  0  0  0  0  0
  148.4974  138.7001  153.2527 N   0  3  0  0  0  0  0  0  0  0  0  0
  149.1610  139.2226  154.4676 C   0  0  2  0  0  0  0  0  0  0  0  0
  148.8772  140.7322  154.5948 C   0  0  0  0  0  0  0  0  0  0  0  0
  149.4570  141.3435  155.8813 C   0  0  0  0  0  0  0  0  0  0  0  0
  150.9839  141.2107  155.9567 C   0  0  0  0  0  0  0  0  0  0  0  0
  151.4873  139.4698  155.9684 S   0  0  0  0  0  0  0  0  0  0  0  0
  150.6776  138.9413  154.4341 C   0  0  0  0  0  0  0  0  0  0  0  0
  145.4435  137.1883  151.9771 C   0  0  0  0  0  0  0  0  0  0  0  0
  145.6508  136.0486  151.1702 C   0  0  0  0  0  0  0  0  0  0  0  0
  144.7299  134.9853  151.2560 C   0  0  0  0  0  0  0  0  0  0  0  0
  143.6558  134.9998  152.0737 N   0  0  0  0  0  0  0  0  0  0  0  0
  143.4620  136.0923  152.8431 C   0  0  0  0  0  0  0  0  0  0  0  0
  144.3226  137.2084  152.8333 C   0  0  0  0  0  0  0  0  0  0  0  0
  147.8838  137.3330  151.2313 H   0  0  0  0  0  0  0  0  0  0  0  0
  145.8596  139.2495  151.6070 H   0  0  0  0  0  0  0  0  0  0  0  0
  146.6487  139.5802  153.7076 H   0  0  0  0  0  0  0  0  0  0  0  0
  146.7111  137.8571  154.0224 H   0  0  0  0  0  0  0  0  0  0  0  0
  148.8616  137.7799  153.0497 H   0  0  0  0  0  0  0  0  0  0  0  0
  148.7221  138.7231  155.3328 H   0  0  0  0  0  0  0  0  0  0  0  0
  149.2779  141.2609  153.7285 H   0  0  0  0  0  0  0  0  0  0  0  0
  147.7996  140.9015  154.5825 H   0  0  0  0  0  0  0  0  0  0  0  0
  149.1865  142.3987  155.9313 H   0  0  0  0  0  0  0  0  0  0  0  0
  149.0028  140.8712  156.7531 H   0  0  0  0  0  0  0  0  0  0  0  0
  151.4530  141.7116  155.1092 H   0  0  0  0  0  0  0  0  0  0  0  0
  151.3611  141.6902  156.8604 H   0  0  0  0  0  0  0  0  0  0  0  0
  150.8805  137.8783  154.3081 H   0  0  0  0  0  0  0  0  0  0  0  0
  151.1449  139.4552  153.5931 H   0  0  0  0  0  0  0  0  0  0  0  0
  146.4957  135.9854  150.5001 H   0  0  0  0  0  0  0  0  0  0  0  0
  144.8605  134.0994  150.6523 H   0  0  0  0  0  0  0  0  0  0  0  0
  142.5954  136.0763  153.4875 H   0  0  0  0  0  0  0  0  0  0  0  0
  144.1204  138.0569  153.4705 H   0  0  0  0  0  0  0  0  0  0  0  0
  148.7329  139.3122  152.4847 H   0  0  0  0  0  0  0  0  0  0  0  0
  1  2  1  0  0  0  0
  1 17  1  0  0  0  0
  2  3  1  0  0  0  0
  2 11  1  0  0  0  0
  2 18  1  0  0  0  0
  3  4  1  0  0  0  0
  3 19  1  0  0  0  0
  3 20  1  0  0  0  0
  4  5  1  0  0  0  0
  4 21  1  0  0  0  0
  4 35  1  0  0  0  0
  5 10  1  0  0  0  0
  5  6  1  0  0  0  0
  5 22  1  0  0  0  0
  6  7  1  0  0  0  0
  6 23  1  0  0  0  0
  6 24  1  0  0  0  0
  7  8  1  0  0  0  0
  7 25  1  0  0  0  0
  7 26  1  0  0  0  0
  8  9  1  0  0  0  0
  8 27  1  0  0  0  0
  8 28  1  0  0  0  0
  9 10  1  0  0  0  0
 10 29  1  0  0  0  0
 10 30  1  0  0  0  0
 11 16  1  0  0  0  0
 11 12  2  0  0  0  0
 12 13  1  0  0  0  0
 12 31  1  0  0  0  0
 13 14  2  0  0  0  0
 13 32  1  0  0  0  0
 14 15  1  0  0  0  0
 15 16  2  0  0  0  0
 15 33  1  0  0  0  0
 16 34  1  0  0  0  0
M  CHG  1   4   1
M  END
> <s_m_source_file>
AV-unprocessed.smi

> <i_m_source_file_index>
2774

> <i_lp_mmshare_version>
43012

> <i_f3d_flags>
0

> <s_epik_input>
W2NIXTFbY0hdbltjSF1bY0hdYzFbQ0BIXShbT0hdKVtDSDJdW05IXVtDQEBIXTJbQ0gyXVtDSDJdW0NIMl1TW0NIMl0y

> <s_epik_cmdline>
J2VwaWtfcHl0aG9uJywgJy1waCcsICc3LjAnLCAnLXRuJywgJzgnLCAnLW1hJywgJzIwMCcsICctbWV0YWxfYmluZGluZycsICctaW1hZScsICc8aW5maWxlLm1hZT4nLCAnLW9tYWUnLCAnPG91dGZpbGUubWFlPic=

> <r_epik_Ionization_Penalty>
0.0205977

> <r_epik_Ionization_Penalty_Charging>
0.0185619

> <r_epik_Ionization_Penalty_Neutral>
0.00203589

> <r_epik_State_Penalty>
0.0147768

> <r_epik_Charging_Adjusted_Penalty>
0.0333386

> <i_epik_Tot_Q>
1

> <i_epik_Tot_abs_Q>
1

> <r_epik_Metal_State_Penalty>
0.0152254

> <b_epik_Metal_Only>
0

> <s_lp_Force_Field>
OPLS_2005

> <r_lp_Energy>
9.96587

> <b_lp_Chiralities_Consistent>
1

> <s_lp_Variant>
AV-unprocessed.smi:2774-1

> <Gold.Version>
5.8.1

> <Gold.Id.Protein>
6NUR|6NUR_protein|mol2

> <Gold.PLP.Fitness>
45.7263

> <Gold.PLP.PLP>
-35.3917

> <Gold.PLP.part.hbond>
-4.5083

> <Gold.PLP.part.metal>
0.0000

> <Gold.PLP.part.buried>
-2.1496

> <Gold.PLP.part.nonpolar>
-28.8910

> <Gold.PLP.part.repulsive>
0.2174

> <Gold.PLP.ligand.clash>
0.0000

> <Gold.PLP.ligand.torsion>
0.8386

> <Gold.PLP.Chemscore.Hbond>
4.0000

> <Gold.PLP.Chemscore.CHOScore>
0.0000

> <Gold.PLP.Chemscore.Metal>
0.0000

> <Gold.Chemscore.Hbonds>
donor molecule, donor type, donor heavy atom, donor atom, acceptor molecule, acceptor atom, score
      L1  H     1    17       P1  7948  1.00
      L1  H     4    21       P1  7948  1.98
      L1  H     4    35       P1  7957  1.00

> <Gold.PLP.Chemscore.Internal.Correction>
0.0118

> <Gold.Rescore>
     Score         DG    S(hbond)    S(metal)    S(lipo)     H(rot)  DE(clash)    DE(int)     intcor
     18.83     -19.74       2.96        0.00      80.35       1.97       0.06       0.86       ----

> <Gold.Chemscore.Fitness>
18.8266

> <Gold.Chemscore.DG>
-19.7420

> <Gold.Chemscore.ZeroCoef>
-5.4800

> <Gold.Chemscore.Hbond>
2.9643

> <Gold.Chemscore.Metal>
0.0000

> <Gold.Chemscore.Lipo>
80.3499

> <Gold.Chemscore.Internal_Hbond>
0.0000

> <Gold.Chemscore.DEClash>
0.0600

> <Gold.Chemscore.DEInternal>
0.8554

> <Gold.Chemscore.Rot>
1.9686

> <Gold.Chemscore.Internal.Correction>
   9.000000E+99

> <Gold.Chemscore.Hbonds>
donor molecule, donor type, donor heavy atom, donor atom, acceptor molecule, acceptor atom, score
      L1  H     1    17       P1  7948  0.99
      L1  H     4    21       P1  7948  0.93
      L1  H     4    35       P1  7957  1.00

> <Gold.Chemscore.Hbond.Weighted>
-9.9007

> <Gold.Chemscore.Metal.Weighted>
-0.0000

> <Gold.Chemscore.Lipo.Weighted>
-9.4009

> <Gold.Chemscore.Internal_Hbond.Weighted>
0.0000

> <Gold.Chemscore.DEClash.Weighted>
0.0600

> <Gold.Chemscore.DEInternal.Weighted>
0.8554

> <Gold.Chemscore.Rot.Weighted>
5.0396

> <Gold.Chemscore.Internal.Correction.Weighted>
   9.000000E+99

> <Gold.Protein.RotatedTorsions>
[ 6907 6896 6895 6894 ] final  -99.31 input  -60.11 | X-H torsion
[ 7974 7965 7964 7962 ] final -127.73 input  175.53 | X-H torsion
[ 8008 7997 7996 7995 ] final    5.05 input   59.86 | X-H torsion
[ 10167 10162 10161 10158 ] final  -49.38 input  -65.29 | X-H torsion
[ 10718 10713 10712 10709 ] final -161.20 input   66.30 | X-H torsion
[ 10763 10752 10751 10750 ] final  123.92 input  -60.55 | X-H torsion
[ 11005 11000 10999 10996 ] final -160.00 input  -57.11 | X-H torsion

> <Gold.Protein.ActiveResidues>
 VAL166  LYS551  ARG553  GLY616  TRP617  ASP618  TYR619  PRO620  LYS621  CYS622 
 ASP623  PHE694  ASN695  SER759  ASP760  ASP761  ALA762  ILE779  LEU786  VAL792 
 PHE793  MET794  SER795  GLU796  ALA797  LYS798  CYS799  TRP800  GLU811  SER814 

> <Gold.Protein.RotatedAtoms>
  150.7075  134.1061  159.3982 H   0  0  0  0  0  0  0  0  0  0  0  0  # atno 6907 bound_to 6896
  151.9047  135.0361  160.0518 H   0  0  0  0  0  0  0  0  0  0  0  0  # atno 6908 bound_to 6896
  152.2385  133.5080  159.5293 H   0  0  0  0  0  0  0  0  0  0  0  0  # atno 6909 bound_to 6896
  144.9742  140.7575  143.4652 H   0  0  0  0  0  0  0  0  0  0  0  0  # atno 7974 bound_to 7965
  154.7236  140.2716  155.6519 H   0  0  0  0  0  0  0  0  0  0  0  0  # atno 8008 bound_to 7997
  156.2830  140.2729  156.1840 H   0  0  0  0  0  0  0  0  0  0  0  0  # atno 8009 bound_to 7997
  155.0475  140.0371  157.2521 H   0  0  0  0  0  0  0  0  0  0  0  0  # atno 8010 bound_to 7997
  140.6688  143.2700  151.4206 H   0  0  0  0  0  0  0  0  0  0  0  0  # atno 10167 bound_to 10162
  156.5929  130.8778  151.2894 H   0  0  0  0  0  0  0  0  0  0  0  0  # atno 10718 bound_to 10713
  153.6532  135.3359  155.3106 H   0  0  0  0  0  0  0  0  0  0  0  0  # atno 10763 bound_to 10752
  154.8533  135.4346  154.1883 H   0  0  0  0  0  0  0  0  0  0  0  0  # atno 10764 bound_to 10752
  153.2830  135.7010  153.7441 H   0  0  0  0  0  0  0  0  0  0  0  0  # atno 10765 bound_to 10752
  140.6363  134.4598  157.5232 H   0  0  0  0  0  0  0  0  0  0  0  0  # atno 11005 bound_to 11000
  145.2515  139.2030  143.4940 LP  0  0  0  0  0  0  0  0  0  0  0  0  # atno 17320 bound_to 7965
  146.3390  140.2429  142.8596 LP  0  0  0  0  0  0  0  0  0  0  0  0  # atno 17321 bound_to 7965
  139.5947  144.1423  152.2130 LP  0  0  0  0  0  0  0  0  0  0  0  0  # atno 17342 bound_to 10162
  140.0788  144.5718  150.7137 LP  0  0  0  0  0  0  0  0  0  0  0  0  # atno 17343 bound_to 10162
  157.7299  130.9677  150.1808 LP  0  0  0  0  0  0  0  0  0  0  0  0  # atno 17370 bound_to 10713
  156.2534  130.3703  149.8208 LP  0  0  0  0  0  0  0  0  0  0  0  0  # atno 17371 bound_to 10713
  139.9097  134.8372  156.1574 LP  0  0  0  0  0  0  0  0  0  0  0  0  # atno 17394 bound_to 11000
  141.0639  133.6828  156.2006 LP  0  0  0  0  0  0  0  0  0  0  0  0  # atno 17395 bound_to 11000

$$$$
