AV-unprocessed.smi:1762|AV-procd|sdf|7108|dock1
  -GOLD-   22720 8333D 1   1.00000     0.00000
 Structure written by MMmdl.
 53 54  0  0  0  0  0  0  0  0  2 V2000
  153.7957  141.3873  160.6442 C   0  0  0  0  0  0  0  0  0  0  0  0
  153.2122  141.7520  159.2743 C   0  0  1  0  0  0  0  0  0  0  0  0
  152.4551  140.5762  158.6269 C   0  0  0  0  0  0  0  0  0  0  0  0
  151.8316  140.9369  157.3476 N   0  0  0  0  0  0  0  0  0  0  0  0
  151.1275  139.7947  156.6995 C   0  0  1  0  0  0  0  0  0  0  0  0
  150.2155  140.2289  155.5277 C   0  0  0  0  0  0  0  0  0  0  0  0
  150.6484  140.9661  154.6411 O   0  0  0  0  0  0  0  0  0  0  0  0
  148.9476  139.7879  155.5526 N   0  0  0  0  0  0  0  0  0  0  0  0
  147.9358  140.1114  154.5543 C   0  0  0  0  0  0  0  0  0  0  0  0
  147.8708  141.6247  154.2872 C   0  0  0  0  0  0  0  0  0  0  0  0
  146.6311  142.2601  154.8855 C   0  0  0  0  0  0  0  0  0  0  0  0
  145.6910  142.9571  154.0955 C   0  0  0  0  0  0  0  0  0  0  0  0
  144.5545  143.5199  154.7128 C   0  0  0  0  0  0  0  0  0  0  0  0
  144.3814  143.3729  156.1047 C   0  0  0  0  0  0  0  0  0  0  0  0
  145.3502  142.6651  156.8452 C   0  0  0  0  0  0  0  0  0  0  0  0
  146.4259  142.1408  156.2174 N   0  3  0  0  0  0  0  0  0  0  0  0
  152.0513  138.6056  156.2700 C   0  0  0  0  0  0  0  0  0  0  0  0
  153.0447  138.9607  155.1461 C   0  0  0  0  0  0  0  0  0  0  0  0
  151.2745  137.3224  155.9125 C   0  0  0  0  0  0  0  0  0  0  0  0
  150.9899  142.1275  157.5600 C   0  0  0  0  0  0  0  0  0  0  0  0
  151.7563  143.2903  158.2190 C   0  0  1  0  0  0  0  0  0  0  0  0
  150.8507  144.4910  158.5151 C   0  0  0  0  0  0  0  0  0  0  0  0
  152.3185  142.8443  159.4465 O   0  0  0  0  0  0  0  0  0  0  0  0
  154.5032  140.5618  160.5622 H   0  0  0  0  0  0  0  0  0  0  0  0
  153.0120  141.0892  161.3412 H   0  0  0  0  0  0  0  0  0  0  0  0
  154.3244  142.2352  161.0802 H   0  0  0  0  0  0  0  0  0  0  0  0
  154.0293  142.0629  158.6208 H   0  0  0  0  0  0  0  0  0  0  0  0
  153.1778  139.7742  158.4916 H   0  0  0  0  0  0  0  0  0  0  0  0
  151.6961  140.2041  159.3174 H   0  0  0  0  0  0  0  0  0  0  0  0
  150.4538  139.3813  157.4533 H   0  0  0  0  0  0  0  0  0  0  0  0
  148.6677  139.1888  156.3160 H   0  0  0  0  0  0  0  0  0  0  0  0
  148.1410  139.5686  153.6298 H   0  0  0  0  0  0  0  0  0  0  0  0
  146.9725  139.7528  154.9175 H   0  0  0  0  0  0  0  0  0  0  0  0
  148.7553  142.1156  154.6954 H   0  0  0  0  0  0  0  0  0  0  0  0
  147.8806  141.8206  153.2141 H   0  0  0  0  0  0  0  0  0  0  0  0
  145.8365  143.0588  153.0298 H   0  0  0  0  0  0  0  0  0  0  0  0
  143.8237  144.0573  154.1260 H   0  0  0  0  0  0  0  0  0  0  0  0
  143.5177  143.7960  156.5966 H   0  0  0  0  0  0  0  0  0  0  0  0
  145.2974  142.5035  157.9121 H   0  0  0  0  0  0  0  0  0  0  0  0
  152.6439  138.3166  157.1362 H   0  0  0  0  0  0  0  0  0  0  0  0
  152.5382  139.1632  154.2028 H   0  0  0  0  0  0  0  0  0  0  0  0
  153.7393  138.1390  154.9702 H   0  0  0  0  0  0  0  0  0  0  0  0
  153.6409  139.8375  155.3990 H   0  0  0  0  0  0  0  0  0  0  0  0
  150.7130  137.4270  154.9836 H   0  0  0  0  0  0  0  0  0  0  0  0
  150.5713  137.0552  156.7019 H   0  0  0  0  0  0  0  0  0  0  0  0
  151.9551  136.4804  155.7843 H   0  0  0  0  0  0  0  0  0  0  0  0
  150.5947  142.5081  156.6190 H   0  0  0  0  0  0  0  0  0  0  0  0
  150.1285  141.8622  158.1757 H   0  0  0  0  0  0  0  0  0  0  0  0
  152.5612  143.6166  157.5581 H   0  0  0  0  0  0  0  0  0  0  0  0
  150.4049  144.8816  157.6002 H   0  0  0  0  0  0  0  0  0  0  0  0
  151.4157  145.2992  158.9801 H   0  0  0  0  0  0  0  0  0  0  0  0
  150.0414  144.2177  159.1925 H   0  0  0  0  0  0  0  0  0  0  0  0
  147.1141  141.6323  156.7730 H   0  0  0  0  0  0  0  0  0  0  0  0
  1  2  1  0  0  0  0
  1 24  1  0  0  0  0
  1 25  1  0  0  0  0
  1 26  1  0  0  0  0
  2 23  1  0  0  0  0
  2  3  1  0  0  0  0
  2 27  1  0  0  0  0
  3  4  1  0  0  0  0
  3 28  1  0  0  0  0
  3 29  1  0  0  0  0
  4  5  1  0  0  0  0
  4 20  1  0  0  0  0
  5  6  1  0  0  0  0
  5 17  1  0  0  0  0
  5 30  1  0  0  0  0
  6  7  2  0  0  0  0
  6  8  1  0  0  0  0
  8  9  1  0  0  0  0
  8 31  1  0  0  0  0
  9 10  1  0  0  0  0
  9 32  1  0  0  0  0
  9 33  1  0  0  0  0
 10 11  1  0  0  0  0
 10 34  1  0  0  0  0
 10 35  1  0  0  0  0
 11 16  1  0  0  0  0
 11 12  2  0  0  0  0
 12 13  1  0  0  0  0
 12 36  1  0  0  0  0
 13 14  2  0  0  0  0
 13 37  1  0  0  0  0
 14 15  1  0  0  0  0
 14 38  1  0  0  0  0
 15 16  2  0  0  0  0
 15 39  1  0  0  0  0
 16 53  1  0  0  0  0
 17 18  1  0  0  0  0
 17 19  1  0  0  0  0
 17 40  1  0  0  0  0
 18 41  1  0  0  0  0
 18 42  1  0  0  0  0
 18 43  1  0  0  0  0
 19 44  1  0  0  0  0
 19 45  1  0  0  0  0
 19 46  1  0  0  0  0
 20 21  1  0  0  0  0
 20 47  1  0  0  0  0
 20 48  1  0  0  0  0
 21 22  1  0  0  0  0
 21 23  1  0  0  0  0
 21 49  1  0  0  0  0
 22 50  1  0  0  0  0
 22 51  1  0  0  0  0
 22 52  1  0  0  0  0
M  CHG  1  16   1
M  END
> <s_m_source_file>
AV-unprocessed.smi

> <i_m_source_file_index>
1762

> <i_lp_mmshare_version>
43012

> <i_f3d_flags>
0

> <s_epik_input>
W0NIM11bQ0BASF0xW0NIMl1OKFtDSDJdW0NASF0oTzEpW0NIM10pW0NAQEhdKFtDSF0oW0NIM10pW0NIM10pQyg9TylbTkhdW0NIMl1bQ0gyXWMyW2NIXVtjSF1bY0hdW2NIXW4y

> <s_epik_cmdline>
J2VwaWtfcHl0aG9uJywgJy1waCcsICc3LjAnLCAnLXRuJywgJzgnLCAnLW1hJywgJzIwMCcsICctbWV0YWxfYmluZGluZycsICctaW1hZScsICc8aW5maWxlLm1hZT4nLCAnLW9tYWUnLCAnPG91dGZpbGUubWFlPic=

> <r_epik_Ionization_Penalty>
1.86475

> <r_epik_Ionization_Penalty_Charging>
1.85347

> <r_epik_Ionization_Penalty_Neutral>
0.0112771

> <r_epik_State_Penalty>
1.99714

> <r_epik_Charging_Adjusted_Penalty>
3.85061

> <i_epik_Tot_Q>
1

> <i_epik_Tot_abs_Q>
1

> <r_epik_Metal_State_Penalty>
2.02271

> <b_epik_Metal_Only>
0

> <s_lp_Force_Field>
OPLS_2005

> <r_lp_Energy>
32.1869

> <b_lp_Chiralities_Consistent>
1

> <s_lp_Variant>
AV-unprocessed.smi:1762-10

> <Gold.Version>
5.8.1

> <Gold.Id.Protein>
6NUR|6NUR_protein|mol2

> <Gold.PLP.Fitness>
43.6654

> <Gold.PLP.PLP>
-42.0887

> <Gold.PLP.part.hbond>
-1.4147

> <Gold.PLP.part.metal>
0.0000

> <Gold.PLP.part.buried>
-5.6679

> <Gold.PLP.part.nonpolar>
-35.1388

> <Gold.PLP.part.repulsive>
0.1488

> <Gold.PLP.ligand.clash>
0.0000

> <Gold.PLP.ligand.torsion>
0.9496

> <Gold.PLP.Chemscore.Hbond>
0.9280

> <Gold.PLP.Chemscore.CHOScore>
0.0000

> <Gold.PLP.Chemscore.Metal>
0.0000

> <Gold.Chemscore.Hbonds>
donor molecule, donor type, donor heavy atom, donor atom, acceptor molecule, acceptor atom, score
      P1  H  7989  7998       L1     7  0.67

> <Gold.PLP.Chemscore.Internal.Correction>
0.6919

> <Gold.Rescore>
     Score         DG    S(hbond)    S(metal)    S(lipo)     H(rot)  DE(clash)    DE(int)     intcor
     15.59     -17.87       0.97        0.00     115.78       1.72       0.09       2.19       ----

> <Gold.Chemscore.Fitness>
15.5855

> <Gold.Chemscore.DG>
-17.8720

> <Gold.Chemscore.ZeroCoef>
-5.4800

> <Gold.Chemscore.Hbond>
0.9709

> <Gold.Chemscore.Metal>
0.0000

> <Gold.Chemscore.Lipo>
115.7754

> <Gold.Chemscore.Internal_Hbond>
0.0000

> <Gold.Chemscore.DEClash>
0.0949

> <Gold.Chemscore.DEInternal>
2.1917

> <Gold.Chemscore.Rot>
1.7174

> <Gold.Chemscore.Internal.Correction>
   9.000000E+99

> <Gold.Chemscore.Hbonds>
donor molecule, donor type, donor heavy atom, donor atom, acceptor molecule, acceptor atom, score
      P1  H  7989  7998       L1     7  0.64

> <Gold.Chemscore.Hbond.Weighted>
-3.2429

> <Gold.Chemscore.Metal.Weighted>
-0.0000

> <Gold.Chemscore.Lipo.Weighted>
-13.5457

> <Gold.Chemscore.Internal_Hbond.Weighted>
0.0000

> <Gold.Chemscore.DEClash.Weighted>
0.0949

> <Gold.Chemscore.DEInternal.Weighted>
2.1917

> <Gold.Chemscore.Rot.Weighted>
4.3966

> <Gold.Chemscore.Internal.Correction.Weighted>
   9.000000E+99

> <Gold.Protein.RotatedTorsions>
[ 6907 6896 6895 6894 ] final  171.00 input  -60.11 | X-H torsion
[ 7974 7965 7964 7962 ] final -138.33 input  175.53 | X-H torsion
[ 8008 7997 7996 7995 ] final  154.23 input   59.86 | X-H torsion
[ 10167 10162 10161 10158 ] final    6.30 input  -65.29 | X-H torsion
[ 10718 10713 10712 10709 ] final   -3.22 input   66.30 | X-H torsion
[ 10763 10752 10751 10750 ] final   17.04 input  -60.55 | X-H torsion
[ 11005 11000 10999 10996 ] final  -96.21 input  -57.11 | X-H torsion

> <Gold.Protein.ActiveResidues>
 VAL166  LYS551  ARG553  GLY616  TRP617  ASP618  TYR619  PRO620  LYS621  CYS622 
 ASP623  PHE694  ASN695  SER759  ASP760  ASP761  ALA762  ILE779  LEU786  VAL792 
 PHE793  MET794  SER795  GLU796  ALA797  LYS798  CYS799  TRP800  GLU811  SER814 

> <Gold.Protein.RotatedAtoms>
  151.8072  133.3377  159.3544 H   0  0  0  0  0  0  0  0  0  0  0  0  # atno 6907 bound_to 6896
  150.7338  134.5698  159.5894 H   0  0  0  0  0  0  0  0  0  0  0  0  # atno 6908 bound_to 6896
  152.3101  134.7509  160.0389 H   0  0  0  0  0  0  0  0  0  0  0  0  # atno 6909 bound_to 6896
  144.8767  140.6447  143.5232 H   0  0  0  0  0  0  0  0  0  0  0  0  # atno 7974 bound_to 7965
  156.2542  140.1972  156.6613 H   0  0  0  0  0  0  0  0  0  0  0  0  # atno 8008 bound_to 7997
  154.6462  140.0577  156.9928 H   0  0  0  0  0  0  0  0  0  0  0  0  # atno 8009 bound_to 7997
  155.1487  140.3249  155.4438 H   0  0  0  0  0  0  0  0  0  0  0  0  # atno 8010 bound_to 7997
  140.6435  143.7717  150.7464 H   0  0  0  0  0  0  0  0  0  0  0  0  # atno 10167 bound_to 10162
  156.7793  130.5325  149.5753 H   0  0  0  0  0  0  0  0  0  0  0  0  # atno 10718 bound_to 10713
  153.1375  135.6753  153.9079 H   0  0  0  0  0  0  0  0  0  0  0  0  # atno 10763 bound_to 10752
  153.8546  135.3089  155.3435 H   0  0  0  0  0  0  0  0  0  0  0  0  # atno 10764 bound_to 10752
  154.7760  135.4914  153.9828 H   0  0  0  0  0  0  0  0  0  0  0  0  # atno 10765 bound_to 10752
  141.1418  133.8081  157.0541 H   0  0  0  0  0  0  0  0  0  0  0  0  # atno 11005 bound_to 11000
  145.4030  139.1594  143.4167 LP  0  0  0  0  0  0  0  0  0  0  0  0  # atno 17320 bound_to 7965
  146.2967  140.4128  142.8719 LP  0  0  0  0  0  0  0  0  0  0  0  0  # atno 17321 bound_to 7965
  140.1354  143.4489  152.2228 LP  0  0  0  0  0  0  0  0  0  0  0  0  # atno 17342 bound_to 10162
  139.5645  144.7426  151.4061 LP  0  0  0  0  0  0  0  0  0  0  0  0  # atno 17343 bound_to 10162
  156.1228  130.6122  151.0219 LP  0  0  0  0  0  0  0  0  0  0  0  0  # atno 17370 bound_to 10713
  157.6654  131.0873  150.7741 LP  0  0  0  0  0  0  0  0  0  0  0  0  # atno 17371 bound_to 10713
  140.0613  134.9753  157.1310 LP  0  0  0  0  0  0  0  0  0  0  0  0  # atno 17394 bound_to 11000
  140.3844  134.2252  155.7169 LP  0  0  0  0  0  0  0  0  0  0  0  0  # atno 17395 bound_to 11000

$$$$
