AV-unprocessed.smi:194|AV-procd|sdf|1523|dock2
  -GOLD-   2262019363D 1   1.00000     0.00000
 Structure written by MMmdl.
 53 55  0  0  0  0  0  0  0  0  1 V2000
  149.8272  138.8962  156.6815 C   0  0  0  0  0  0  0  0  0  0  0  0
  149.4132  140.2092  155.9758 C   0  0  1  0  0  0  0  0  0  0  0  0
  150.6457  141.1206  155.7620 C   0  0  0  0  0  0  0  0  0  0  0  0
  151.3668  141.6384  157.3965 S   0  0  2  0  0  0  0  0  0  0  0  0
  152.6403  140.2953  157.4980 C   0  0  0  0  0  0  0  0  0  0  0  0
  150.3241  141.3320  158.4731 O   0  0  0  0  0  0  0  0  0  0  0  0
  148.6529  139.9893  154.7346 N   0  0  0  0  0  0  0  0  0  0  0  0
  148.3092  141.1654  153.9407 C   0  0  0  0  0  0  0  0  0  0  0  0
  147.5827  139.1699  154.8370 C   0  0  0  0  0  0  0  0  0  0  0  0
  147.1367  138.8813  156.0840 N   0  0  0  0  0  0  0  0  0  0  0  0
  146.0782  138.0814  156.2443 C   0  0  0  0  0  0  0  0  0  0  0  0
  145.3403  137.4752  155.3113 N   0  0  0  0  0  0  0  0  0  0  0  0
  145.7970  137.7529  154.0561 C   0  0  0  0  0  0  0  0  0  0  0  0
  146.9029  138.5871  153.7305 C   0  0  0  0  0  0  0  0  0  0  0  0
  147.0650  138.6459  152.3523 N   0  0  0  0  0  0  0  0  0  0  0  0
  146.1024  137.8969  151.8886 C   0  0  0  0  0  0  0  0  0  0  0  0
  145.3035  137.3054  152.8419 N   0  0  0  0  0  0  0  0  0  0  0  0
  144.1603  136.4365  152.6008 C   0  0  0  0  0  0  0  0  0  0  0  0
  144.4934  134.9647  152.2083 C   0  0  0  0  0  0  0  0  0  0  0  0
  143.2066  134.0860  152.2010 C   0  0  0  0  0  0  0  0  0  0  0  0
  142.4912  134.1116  153.4195 O   0  0  0  0  0  0  0  0  0  0  0  0
  145.2416  134.9021  150.8520 C   0  0  0  0  0  0  0  0  0  0  0  0
  145.8654  133.5223  150.5830 C   0  0  0  0  0  0  0  0  0  0  0  0
  146.7679  133.1925  151.6306 O   0  0  0  0  0  0  0  0  0  0  0  0
  146.1295  133.0841  152.8961 C   0  0  0  0  0  0  0  0  0  0  0  0
  145.4735  134.4248  153.2814 C   0  0  0  0  0  0  0  0  0  0  0  0
  150.4483  139.1011  157.5539 H   0  0  0  0  0  0  0  0  0  0  0  0
  150.3922  138.2408  156.0184 H   0  0  0  0  0  0  0  0  0  0  0  0
  148.9635  138.3351  157.0385 H   0  0  0  0  0  0  0  0  0  0  0  0
  148.7547  140.7452  156.6597 H   0  0  0  0  0  0  0  0  0  0  0  0
  151.4127  140.6284  155.1648 H   0  0  0  0  0  0  0  0  0  0  0  0
  150.3518  142.0141  155.2104 H   0  0  0  0  0  0  0  0  0  0  0  0
  153.3156  140.3441  156.6437 H   0  0  0  0  0  0  0  0  0  0  0  0
  152.1611  139.3163  157.5087 H   0  0  0  0  0  0  0  0  0  0  0  0
  153.2277  140.4034  158.4096 H   0  0  0  0  0  0  0  0  0  0  0  0
  147.5818  140.9304  153.1616 H   0  0  0  0  0  0  0  0  0  0  0  0
  149.1933  141.5641  153.4441 H   0  0  0  0  0  0  0  0  0  0  0  0
  147.8893  141.9489  154.5723 H   0  0  0  0  0  0  0  0  0  0  0  0
  145.7793  137.9016  157.2664 H   0  0  0  0  0  0  0  0  0  0  0  0
  145.9536  137.7440  150.8296 H   0  0  0  0  0  0  0  0  0  0  0  0
  143.5481  136.4532  153.5037 H   0  0  0  0  0  0  0  0  0  0  0  0
  143.5482  136.8975  151.8244 H   0  0  0  0  0  0  0  0  0  0  0  0
  142.5078  134.4073  151.4309 H   0  0  0  0  0  0  0  0  0  0  0  0
  143.4570  133.0508  151.9671 H   0  0  0  0  0  0  0  0  0  0  0  0
  142.5928  133.2744  153.8458 H   0  0  0  0  0  0  0  0  0  0  0  0
  144.5867  135.1762  150.0249 H   0  0  0  0  0  0  0  0  0  0  0  0
  146.0459  135.6385  150.8520 H   0  0  0  0  0  0  0  0  0  0  0  0
  145.1021  132.7503  150.4804 H   0  0  0  0  0  0  0  0  0  0  0  0
  146.4179  133.5428  149.6436 H   0  0  0  0  0  0  0  0  0  0  0  0
  145.4086  132.2668  152.8840 H   0  0  0  0  0  0  0  0  0  0  0  0
  146.8813  132.8166  153.6389 H   0  0  0  0  0  0  0  0  0  0  0  0
  146.2746  135.1483  153.4396 H   0  0  0  0  0  0  0  0  0  0  0  0
  144.9672  134.3251  154.2421 H   0  0  0  0  0  0  0  0  0  0  0  0
  1  2  1  0  0  0  0
  1 27  1  0  0  0  0
  1 28  1  0  0  0  0
  1 29  1  0  0  0  0
  2  3  1  0  0  0  0
  2  7  1  0  0  0  0
  2 30  1  0  0  0  0
  3  4  1  0  0  0  0
  3 31  1  0  0  0  0
  3 32  1  0  0  0  0
  4  5  1  0  0  0  0
  4  6  2  0  0  0  0
  5 33  1  0  0  0  0
  5 34  1  0  0  0  0
  5 35  1  0  0  0  0
  7  8  1  0  0  0  0
  7  9  1  0  0  0  0
  8 36  1  0  0  0  0
  8 37  1  0  0  0  0
  8 38  1  0  0  0  0
  9 14  1  0  0  0  0
  9 10  2  0  0  0  0
 10 11  1  0  0  0  0
 11 12  2  0  0  0  0
 11 39  1  0  0  0  0
 12 13  1  0  0  0  0
 13 17  1  0  0  0  0
 13 14  2  0  0  0  0
 14 15  1  0  0  0  0
 15 16  2  0  0  0  0
 16 17  1  0  0  0  0
 16 40  1  0  0  0  0
 17 18  1  0  0  0  0
 18 19  1  0  0  0  0
 18 41  1  0  0  0  0
 18 42  1  0  0  0  0
 19 26  1  0  0  0  0
 19 20  1  0  0  0  0
 19 22  1  0  0  0  0
 20 21  1  0  0  0  0
 20 43  1  0  0  0  0
 20 44  1  0  0  0  0
 21 45  1  0  0  0  0
 22 23  1  0  0  0  0
 22 46  1  0  0  0  0
 22 47  1  0  0  0  0
 23 24  1  0  0  0  0
 23 48  1  0  0  0  0
 23 49  1  0  0  0  0
 24 25  1  0  0  0  0
 25 26  1  0  0  0  0
 25 50  1  0  0  0  0
 25 51  1  0  0  0  0
 26 52  1  0  0  0  0
 26 53  1  0  0  0  0
M  END
> <s_m_source_file>
AV-unprocessed.smi

> <i_m_source_file_index>
194

> <i_lp_mmshare_version>
43012

> <i_f3d_flags>
0

> <s_epik_input>
W0NIM11bU0BAXSg9TylbQ0gyXVtDQEBIXShbQ0gzXSlOKFtDSDNdKWMobltjSF1uMSljKGMxMiluW2NIXW4yW0NIMl1DMyhbQ0gyXVtPSF0pW0NIMl1bQ0gyXU9bQ0gyXVtDSDJdMw==

> <s_epik_cmdline>
J2VwaWtfcHl0aG9uJywgJy1waCcsICc3LjAnLCAnLXRuJywgJzgnLCAnLW1hJywgJzIwMCcsICctbWV0YWxfYmluZGluZycsICctaW1hZScsICc8aW5maWxlLm1hZT4nLCAnLW9tYWUnLCAnPG91dGZpbGUubWFlPic=

> <r_lp_tautomer_probability>
1

> <r_epik_Ionization_Penalty>
0.00101625

> <r_epik_Ionization_Penalty_Charging>
0

> <r_epik_Ionization_Penalty_Neutral>
0.00101625

> <r_epik_State_Penalty>
0.000568005

> <r_epik_Charging_Adjusted_Penalty>
0.000568005

> <i_epik_Tot_Q>
0

> <i_epik_Tot_abs_Q>
0

> <r_epik_Metal_State_Penalty>
-0

> <b_epik_Metal_Only>
0

> <s_lp_Force_Field>
OPLS_2005

> <r_lp_Energy>
31.3732

> <b_lp_Chiralities_Consistent>
1

> <s_lp_Variant>
AV-unprocessed.smi:194-4

> <Gold.Version>
5.8.1

> <Gold.Id.Protein>
6NUR|6NUR_protein|mol2

> <Gold.PLP.Fitness>
36.5811

> <Gold.PLP.PLP>
-32.7412

> <Gold.PLP.part.hbond>
-1.4545

> <Gold.PLP.part.metal>
0.0000

> <Gold.PLP.part.buried>
-5.4059

> <Gold.PLP.part.nonpolar>
-27.2206

> <Gold.PLP.part.repulsive>
1.5168

> <Gold.PLP.ligand.clash>
0.0000

> <Gold.PLP.ligand.torsion>
0.8107

> <Gold.PLP.Chemscore.Hbond>
1.0000

> <Gold.PLP.Chemscore.CHOScore>
0.5921

> <Gold.PLP.Chemscore.Metal>
0.0000

> <Gold.Chemscore.Hbonds>
donor molecule, donor type, donor heavy atom, donor atom, acceptor molecule, acceptor atom, score
      L1  H    21    45       P1 10957  1.00
      L1  C    16    40       P1 10171  0.77

> <Gold.PLP.Chemscore.Internal.Correction>
0.6849

> <Gold.Rescore>
     Score         DG    S(hbond)    S(metal)    S(lipo)     H(rot)  DE(clash)    DE(int)     intcor
      5.32      -7.79       1.00        0.00      63.62       3.31       0.14       2.34       ----

> <Gold.Chemscore.Fitness>
5.3155

> <Gold.Chemscore.DG>
-7.7870

> <Gold.Chemscore.ZeroCoef>
-5.4800

> <Gold.Chemscore.Hbond>
0.9990

> <Gold.Chemscore.Metal>
0.0000

> <Gold.Chemscore.Lipo>
63.6185

> <Gold.Chemscore.Internal_Hbond>
0.0000

> <Gold.Chemscore.DEClash>
0.1361

> <Gold.Chemscore.DEInternal>
2.3354

> <Gold.Chemscore.Rot>
3.3098

> <Gold.Chemscore.Internal.Correction>
   9.000000E+99

> <Gold.Chemscore.Hbonds>
donor molecule, donor type, donor heavy atom, donor atom, acceptor molecule, acceptor atom, score
      L1  H    21    45       P1 10957  1.00

> <Gold.Chemscore.Hbond.Weighted>
-3.3366

> <Gold.Chemscore.Metal.Weighted>
-0.0000

> <Gold.Chemscore.Lipo.Weighted>
-7.4434

> <Gold.Chemscore.Internal_Hbond.Weighted>
0.0000

> <Gold.Chemscore.DEClash.Weighted>
0.1361

> <Gold.Chemscore.DEInternal.Weighted>
2.3354

> <Gold.Chemscore.Rot.Weighted>
8.4730

> <Gold.Chemscore.Internal.Correction.Weighted>
   9.000000E+99

> <Gold.Protein.RotatedTorsions>
[ 6907 6896 6895 6894 ] final  115.22 input  -60.11 | X-H torsion
[ 7974 7965 7964 7962 ] final   62.38 input  175.53 | X-H torsion
[ 8008 7997 7996 7995 ] final -128.58 input   59.86 | X-H torsion
[ 10167 10162 10161 10158 ] final   20.36 input  -65.29 | X-H torsion
[ 10718 10713 10712 10709 ] final   99.01 input   66.30 | X-H torsion
[ 10763 10752 10751 10750 ] final   66.41 input  -60.55 | X-H torsion
[ 11005 11000 10999 10996 ] final  111.60 input  -57.11 | X-H torsion

> <Gold.Protein.ActiveResidues>
 VAL166  LYS551  ARG553  GLY616  TRP617  ASP618  TYR619  PRO620  LYS621  CYS622 
 ASP623  PHE694  ASN695  SER759  ASP760  ASP761  ALA762  ILE779  LEU786  VAL792 
 PHE793  MET794  SER795  GLU796  ALA797  LYS798  CYS799  TRP800  GLU811  SER814 

> <Gold.Protein.RotatedAtoms>
  152.4755  133.8128  159.7011 H   0  0  0  0  0  0  0  0  0  0  0  0  # atno 6907 bound_to 6896
  150.8769  133.7417  159.2950 H   0  0  0  0  0  0  0  0  0  0  0  0  # atno 6908 bound_to 6896
  151.4934  135.1062  159.9861 H   0  0  0  0  0  0  0  0  0  0  0  0  # atno 6909 bound_to 6896
  145.8740  139.3397  143.0745 H   0  0  0  0  0  0  0  0  0  0  0  0  # atno 7974 bound_to 7965
  155.2651  140.0437  157.3001 H   0  0  0  0  0  0  0  0  0  0  0  0  # atno 8008 bound_to 7997
  154.5687  140.2367  155.8193 H   0  0  0  0  0  0  0  0  0  0  0  0  # atno 8009 bound_to 7997
  156.2105  140.3000  155.9731 H   0  0  0  0  0  0  0  0  0  0  0  0  # atno 8010 bound_to 7997
  140.5509  143.9510  150.6577 H   0  0  0  0  0  0  0  0  0  0  0  0  # atno 10167 bound_to 10162
  157.6884  131.0657  150.4884 H   0  0  0  0  0  0  0  0  0  0  0  0  # atno 10718 bound_to 10713
  153.0139  135.5321  154.6819 H   0  0  0  0  0  0  0  0  0  0  0  0  # atno 10763 bound_to 10752
  154.5977  135.2865  155.0571 H   0  0  0  0  0  0  0  0  0  0  0  0  # atno 10764 bound_to 10752
  154.1640  135.6543  153.5045 H   0  0  0  0  0  0  0  0  0  0  0  0  # atno 10765 bound_to 10752
  139.8907  134.9511  156.6457 H   0  0  0  0  0  0  0  0  0  0  0  0  # atno 11005 bound_to 11000
  145.9103  140.9184  143.0457 LP  0  0  0  0  0  0  0  0  0  0  0  0  # atno 17320 bound_to 7965
  144.6726  140.1151  143.7453 LP  0  0  0  0  0  0  0  0  0  0  0  0  # atno 17321 bound_to 7965
  140.2936  143.3307  152.1039 LP  0  0  0  0  0  0  0  0  0  0  0  0  # atno 17342 bound_to 10162
  139.5027  144.6740  151.6174 LP  0  0  0  0  0  0  0  0  0  0  0  0  # atno 17343 bound_to 10162
  156.5212  130.4162  149.6250 LP  0  0  0  0  0  0  0  0  0  0  0  0  # atno 17370 bound_to 10713
  156.3153  130.7251  151.2152 LP  0  0  0  0  0  0  0  0  0  0  0  0  # atno 17371 bound_to 10713
  140.7559  133.8858  155.8382 LP  0  0  0  0  0  0  0  0  0  0  0  0  # atno 17394 bound_to 11000
  140.9962  134.1212  157.4361 LP  0  0  0  0  0  0  0  0  0  0  0  0  # atno 17395 bound_to 11000

$$$$
