AV-unprocessed.smi:1626|AV-procd|sdf|6511|dock4
  -GOLD-   22720 7183D 1   1.00000     0.00000
 Structure written by MMmdl.
 49 51  0  0  0  0  0  0  0  0  3 V2000
  151.8720  143.5167  160.6367 C   0  0  0  0  0  0  0  0  0  0  0  0
  151.7305  142.6216  159.4171 C   0  0  0  0  0  0  0  0  0  0  0  0
  150.8170  142.9984  158.4066 C   0  0  0  0  0  0  0  0  0  0  0  0
  150.7112  142.1605  157.3028 C   0  0  0  0  0  0  0  0  0  0  0  0
  149.9183  142.2514  156.1566 N   0  3  0  0  0  0  0  0  0  0  0  0
  150.1680  141.1864  155.3454 C   0  0  0  0  0  0  0  0  0  0  0  0
  151.1030  140.4122  155.9615 N   0  0  0  0  0  0  0  0  0  0  0  0
  151.7271  139.1562  155.5238 C   0  0  0  0  0  0  0  0  0  0  0  0
  150.8740  138.3830  154.4985 C   0  0  1  0  0  0  0  0  0  0  0  0
  151.6625  137.3666  153.9098 O   0  0  0  0  0  0  0  0  0  0  0  0
  149.6429  137.7322  155.1599 C   0  0  0  0  0  0  0  0  0  0  0  0
  148.4522  137.7306  154.2715 N   0  3  2  0  0  0  0  0  0  0  0  0
  148.0433  139.0916  153.8307 C   0  0  0  0  0  0  0  0  0  0  0  0
  146.9000  139.0208  152.8047 C   0  0  0  0  0  0  0  0  0  0  0  0
  145.6994  138.2525  153.3766 C   0  0  1  0  0  0  0  0  0  0  0  0
  144.7040  138.1130  152.3856 O   0  0  0  0  0  0  0  0  0  0  0  0
  146.1497  136.8642  153.8541 C   0  0  0  0  0  0  0  0  0  0  0  0
  147.3107  136.9792  154.8561 C   0  0  0  0  0  0  0  0  0  0  0  0
  151.4746  140.9831  157.1831 C   0  0  0  0  0  0  0  0  0  0  0  0
  152.3789  140.5966  158.1691 C   0  0  0  0  0  0  0  0  0  0  0  0
  152.5010  141.4357  159.3000 C   0  0  0  0  0  0  0  0  0  0  0  0
  153.4808  141.0412  160.3922 C   0  0  0  0  0  0  0  0  0  0  0  0
  151.2329  144.3969  160.5619 H   0  0  0  0  0  0  0  0  0  0  0  0
  152.9009  143.8616  160.7424 H   0  0  0  0  0  0  0  0  0  0  0  0
  151.5923  142.9773  161.5420 H   0  0  0  0  0  0  0  0  0  0  0  0
  150.2280  143.9004  158.4884 H   0  0  0  0  0  0  0  0  0  0  0  0
  149.7059  140.9909  154.3882 H   0  0  0  0  0  0  0  0  0  0  0  0
  152.6983  139.4085  155.0951 H   0  0  0  0  0  0  0  0  0  0  0  0
  151.9278  138.5454  156.4049 H   0  0  0  0  0  0  0  0  0  0  0  0
  150.5654  139.0691  153.7106 H   0  0  0  0  0  0  0  0  0  0  0  0
  151.3820  137.2489  153.0146 H   0  0  0  0  0  0  0  0  0  0  0  0
  149.9024  136.7079  155.4329 H   0  0  0  0  0  0  0  0  0  0  0  0
  149.3949  138.2396  156.0936 H   0  0  0  0  0  0  0  0  0  0  0  0
  147.7317  139.6779  154.6967 H   0  0  0  0  0  0  0  0  0  0  0  0
  148.8867  139.6164  153.3835 H   0  0  0  0  0  0  0  0  0  0  0  0
  146.5987  140.0281  152.5151 H   0  0  0  0  0  0  0  0  0  0  0  0
  147.2582  138.5309  151.8979 H   0  0  0  0  0  0  0  0  0  0  0  0
  145.2724  138.8071  154.2134 H   0  0  0  0  0  0  0  0  0  0  0  0
  144.4628  138.9721  152.0729 H   0  0  0  0  0  0  0  0  0  0  0  0
  145.3140  136.3350  154.3139 H   0  0  0  0  0  0  0  0  0  0  0  0
  146.4665  136.2613  153.0013 H   0  0  0  0  0  0  0  0  0  0  0  0
  147.6349  135.9768  155.1388 H   0  0  0  0  0  0  0  0  0  0  0  0
  146.9752  137.4746  155.7685 H   0  0  0  0  0  0  0  0  0  0  0  0
  152.9672  139.6957  158.0787 H   0  0  0  0  0  0  0  0  0  0  0  0
  153.9709  140.0938  160.1661 H   0  0  0  0  0  0  0  0  0  0  0  0
  152.9673  140.9299  161.3475 H   0  0  0  0  0  0  0  0  0  0  0  0
  154.2566  141.7995  160.5017 H   0  0  0  0  0  0  0  0  0  0  0  0
  148.7249  137.2203  153.4430 H   0  0  0  0  0  0  0  0  0  0  0  0
  149.2577  142.9871  155.9394 H   0  0  0  0  0  0  0  0  0  0  0  0
  1  2  1  0  0  0  0
  1 23  1  0  0  0  0
  1 24  1  0  0  0  0
  1 25  1  0  0  0  0
  2 21  1  0  0  0  0
  2  3  2  0  0  0  0
  3  4  1  0  0  0  0
  3 26  1  0  0  0  0
  4 19  2  0  0  0  0
  4  5  1  0  0  0  0
  5  6  2  0  0  0  0
  5 49  1  0  0  0  0
  6  7  1  0  0  0  0
  6 27  1  0  0  0  0
  7  8  1  0  0  0  0
  7 19  1  0  0  0  0
  8  9  1  0  0  0  0
  8 28  1  0  0  0  0
  8 29  1  0  0  0  0
  9 10  1  0  0  0  0
  9 11  1  0  0  0  0
  9 30  1  0  0  0  0
 10 31  1  0  0  0  0
 11 12  1  0  0  0  0
 11 32  1  0  0  0  0
 11 33  1  0  0  0  0
 12 18  1  0  0  0  0
 12 13  1  0  0  0  0
 12 48  1  0  0  0  0
 13 14  1  0  0  0  0
 13 34  1  0  0  0  0
 13 35  1  0  0  0  0
 14 15  1  0  0  0  0
 14 36  1  0  0  0  0
 14 37  1  0  0  0  0
 15 16  1  0  0  0  0
 15 17  1  0  0  0  0
 15 38  1  0  0  0  0
 16 39  1  0  0  0  0
 17 18  1  0  0  0  0
 17 40  1  0  0  0  0
 17 41  1  0  0  0  0
 18 42  1  0  0  0  0
 18 43  1  0  0  0  0
 19 20  1  0  0  0  0
 20 21  2  0  0  0  0
 20 44  1  0  0  0  0
 21 22  1  0  0  0  0
 22 45  1  0  0  0  0
 22 46  1  0  0  0  0
 22 47  1  0  0  0  0
M  CHG  1   5   1
M  CHG  1  12   1
M  END
> <s_m_source_file>
AV-unprocessed.smi

> <i_m_source_file_index>
1626

> <i_lp_mmshare_version>
43012

> <i_f3d_flags>
0

> <s_epik_input>
W0NIM11jKFtjSF0xKWMoW0NIM10pW2NIXWMoYzEyKW4oW2NIXW4yKVtDSDJdW0NASF0oW09IXSlbQ0gyXU4zW0NIMl1bQ0gyXVtDSF0oW09IXSlbQ0gyXVtDSDJdMw==

> <s_epik_cmdline>
J2VwaWtfcHl0aG9uJywgJy1waCcsICc3LjAnLCAnLXRuJywgJzgnLCAnLW1hJywgJzIwMCcsICctbWV0YWxfYmluZGluZycsICctaW1hZScsICc8aW5maWxlLm1hZT4nLCAnLW9tYWUnLCAnPG91dGZpbGUubWFlPic=

> <r_epik_Ionization_Penalty>
1.19369

> <r_epik_Ionization_Penalty_Charging>
1.19369

> <r_epik_Ionization_Penalty_Neutral>
1.68219e-06

> <r_epik_State_Penalty>
1.27429

> <r_epik_Charging_Adjusted_Penalty>
2.46798

> <i_epik_Tot_Q>
2

> <i_epik_Tot_abs_Q>
2

> <r_epik_Metal_State_Penalty>
5.29157

> <b_epik_Metal_Only>
0

> <s_lp_Force_Field>
OPLS_2005

> <r_lp_Energy>
30.226

> <b_lp_Chiralities_Consistent>
1

> <s_lp_Variant>
AV-unprocessed.smi:1626-6

> <Gold.Version>
5.8.1

> <Gold.Id.Protein>
6NUR|6NUR_protein|mol2

> <Gold.PLP.Fitness>
63.3438

> <Gold.PLP.PLP>
-44.1457

> <Gold.PLP.part.hbond>
-6.0000

> <Gold.PLP.part.metal>
0.0000

> <Gold.PLP.part.buried>
-3.9585

> <Gold.PLP.part.nonpolar>
-33.7312

> <Gold.PLP.part.repulsive>
0.1078

> <Gold.PLP.ligand.clash>
0.0000

> <Gold.PLP.ligand.torsion>
0.8923

> <Gold.PLP.Chemscore.Hbond>
6.9840

> <Gold.PLP.Chemscore.CHOScore>
0.0000

> <Gold.PLP.Chemscore.Metal>
0.0000

> <Gold.Chemscore.Hbonds>
donor molecule, donor type, donor heavy atom, donor atom, acceptor molecule, acceptor atom, score
      L1  H     5    49       P1  8028  2.00
      L1  H    10    31       P1  7949  0.94
      L1  H    12    48       P1  7948  2.00
      L1  H    16    39       P1 10175  0.93
      P1  H 10752 10765       L1    10  0.73

> <Gold.PLP.Chemscore.Internal.Correction>
0.0307

> <Gold.Rescore>
     Score         DG    S(hbond)    S(metal)    S(lipo)     H(rot)  DE(clash)    DE(int)     intcor
     24.67     -25.90       4.51        0.00     105.81       2.74       0.28       0.95       ----

> <Gold.Chemscore.Fitness>
24.6655

> <Gold.Chemscore.DG>
-25.9020

> <Gold.Chemscore.ZeroCoef>
-5.4800

> <Gold.Chemscore.Hbond>
4.5067

> <Gold.Chemscore.Metal>
0.0000

> <Gold.Chemscore.Lipo>
105.8108

> <Gold.Chemscore.Internal_Hbond>
0.0000

> <Gold.Chemscore.DEClash>
0.2826

> <Gold.Chemscore.DEInternal>
0.9538

> <Gold.Chemscore.Rot>
2.7384

> <Gold.Chemscore.Internal.Correction>
   9.000000E+99

> <Gold.Chemscore.Hbonds>
donor molecule, donor type, donor heavy atom, donor atom, acceptor molecule, acceptor atom, score
      L1  H     5    49       P1  8028  0.95
      L1  H    10    31       P1  7949  0.69
      L1  H    12    48       P1  7948  1.00
      L1  H    16    39       P1 10175  0.90
      P1  H 10752 10765       L1    10  0.18

> <Gold.Chemscore.Hbond.Weighted>
-15.0524

> <Gold.Chemscore.Metal.Weighted>
-0.0000

> <Gold.Chemscore.Lipo.Weighted>
-12.3799

> <Gold.Chemscore.Internal_Hbond.Weighted>
0.0000

> <Gold.Chemscore.DEClash.Weighted>
0.2826

> <Gold.Chemscore.DEInternal.Weighted>
0.9538

> <Gold.Chemscore.Rot.Weighted>
7.0103

> <Gold.Chemscore.Internal.Correction.Weighted>
   9.000000E+99

> <Gold.Protein.RotatedTorsions>
[ 6907 6896 6895 6894 ] final   17.89 input  -60.11 | X-H torsion
[ 7974 7965 7964 7962 ] final -103.51 input  175.53 | X-H torsion
[ 8008 7997 7996 7995 ] final   54.14 input   59.86 | X-H torsion
[ 10167 10162 10161 10158 ] final   46.17 input  -65.29 | X-H torsion
[ 10718 10713 10712 10709 ] final   46.42 input   66.30 | X-H torsion
[ 10763 10752 10751 10750 ] final  151.86 input  -60.55 | X-H torsion
[ 11005 11000 10999 10996 ] final -108.24 input  -57.11 | X-H torsion

> <Gold.Protein.ActiveResidues>
 VAL166  LYS551  ARG553  GLY616  TRP617  ASP618  TYR619  PRO620  LYS621  CYS622 
 ASP623  PHE694  ASN695  SER759  ASP760  ASP761  ALA762  ILE779  LEU786  VAL792 
 PHE793  MET794  SER795  GLU796  ALA797  LYS798  CYS799  TRP800  GLU811  SER814 

> <Gold.Protein.RotatedAtoms>
  151.8567  135.0539  160.0464 H   0  0  0  0  0  0  0  0  0  0  0  0  # atno 6907 bound_to 6896
  152.2695  133.5365  159.5438 H   0  0  0  0  0  0  0  0  0  0  0  0  # atno 6908 bound_to 6896
  150.7146  134.0634  159.3881 H   0  0  0  0  0  0  0  0  0  0  0  0  # atno 6909 bound_to 6896
  145.2549  140.9250  143.3074 H   0  0  0  0  0  0  0  0  0  0  0  0  # atno 7974 bound_to 7965
  155.4799  140.3468  155.4338 H   0  0  0  0  0  0  0  0  0  0  0  0  # atno 8008 bound_to 7997
  156.1046  140.1444  156.9450 H   0  0  0  0  0  0  0  0  0  0  0  0  # atno 8009 bound_to 7997
  154.4716  140.0899  156.7136 H   0  0  0  0  0  0  0  0  0  0  0  0  # atno 8010 bound_to 7997
  140.3166  144.2756  150.6190 H   0  0  0  0  0  0  0  0  0  0  0  0  # atno 10167 bound_to 10162
  157.4479  130.8120  149.7759 H   0  0  0  0  0  0  0  0  0  0  0  0  # atno 10718 bound_to 10713
  154.1107  135.2839  155.3231 H   0  0  0  0  0  0  0  0  0  0  0  0  # atno 10763 bound_to 10752
  154.6492  135.5375  153.7884 H   0  0  0  0  0  0  0  0  0  0  0  0  # atno 10764 bound_to 10752
  153.0346  135.6505  154.1266 H   0  0  0  0  0  0  0  0  0  0  0  0  # atno 10765 bound_to 10752
  141.0912  133.9052  157.2071 H   0  0  0  0  0  0  0  0  0  0  0  0  # atno 11005 bound_to 11000
  144.9469  139.4125  143.6421 LP  0  0  0  0  0  0  0  0  0  0  0  0  # atno 17320 bound_to 7965
  146.3292  139.8458  142.8882 LP  0  0  0  0  0  0  0  0  0  0  0  0  # atno 17321 bound_to 7965
  140.5521  143.2205  151.7910 LP  0  0  0  0  0  0  0  0  0  0  0  0  # atno 17342 bound_to 10162
  139.4882  144.4463  151.9706 LP  0  0  0  0  0  0  0  0  0  0  0  0  # atno 17343 bound_to 10162
  155.9975  130.3900  150.2738 LP  0  0  0  0  0  0  0  0  0  0  0  0  # atno 17370 bound_to 10713
  157.0908  131.0169  151.3122 LP  0  0  0  0  0  0  0  0  0  0  0  0  # atno 17371 bound_to 10713
  139.9738  135.0120  156.9580 LP  0  0  0  0  0  0  0  0  0  0  0  0  # atno 17394 bound_to 11000
  140.5248  134.0872  155.7301 LP  0  0  0  0  0  0  0  0  0  0  0  0  # atno 17395 bound_to 11000

$$$$
