AV-unprocessed.smi:1723|AV-procd|sdf|6946|dock7
  -GOLD-   22720 8153D 1   1.00000     0.00000
 Structure written by MMmdl.
 38 38  0  0  0  0  0  0  0  0  1 V2000
  147.3908  133.9329  162.0267 C   0  0  0  0  0  0  0  0  0  0  0  0
  147.6391  134.9536  160.9108 C   0  0  0  0  0  0  0  0  0  0  0  0
  147.5196  134.3361  159.5103 C   0  0  0  0  0  0  0  0  0  0  0  0
  147.9926  135.2865  158.4047 C   0  0  0  0  0  0  0  0  0  0  0  0
  147.5961  134.7516  157.1470 O   0  0  0  0  0  0  0  0  0  0  0  0
  148.0340  135.4819  156.0039 C   0  0  1  0  0  0  0  0  0  0  0  0
  149.5686  135.5267  156.0448 C   0  0  0  0  0  0  0  0  0  0  0  0
  147.5295  134.8082  154.7176 C   0  0  0  0  0  0  0  0  0  0  0  0
  147.7830  133.6205  154.5161 O   0  0  0  0  0  0  0  0  0  0  0  0
  146.8267  135.6010  153.8849 N   0  0  0  0  0  0  0  0  0  0  0  0
  146.1792  135.2682  152.6840 C   0  0  0  0  0  0  0  0  0  0  0  0
  146.0169  134.0014  152.2210 C   0  0  0  0  0  0  0  0  0  0  0  0
  145.3206  133.7180  150.9775 C   0  0  0  0  0  0  0  0  0  0  0  0
  145.0949  132.2912  150.5014 C   0  0  0  0  0  0  0  0  0  0  0  0
  145.6056  131.4066  151.3588 F   0  0  0  0  0  0  0  0  0  0  0  0
  143.7893  132.0531  150.3877 F   0  0  0  0  0  0  0  0  0  0  0  0
  145.6580  132.0915  149.3096 F   0  0  0  0  0  0  0  0  0  0  0  0
  144.8157  134.7771  150.3177 C   0  0  0  0  0  0  0  0  0  0  0  0
  144.9786  136.0828  150.7870 N   0  0  0  0  0  0  0  0  0  0  0  0
  145.6228  136.4043  151.9313 C   0  0  0  0  0  0  0  0  0  0  0  0
  145.7160  137.5798  152.2831 O   0  0  0  0  0  0  0  0  0  0  0  0
  144.5795  136.8243  150.2297 H   0  0  0  0  0  0  0  0  0  0  0  0
  147.4835  134.3990  163.0079 H   0  0  0  0  0  0  0  0  0  0  0  0
  148.1088  133.1138  161.9783 H   0  0  0  0  0  0  0  0  0  0  0  0
  146.3898  133.5067  161.9543 H   0  0  0  0  0  0  0  0  0  0  0  0
  146.9272  135.7736  161.0109 H   0  0  0  0  0  0  0  0  0  0  0  0
  148.6311  135.3889  161.0360 H   0  0  0  0  0  0  0  0  0  0  0  0
  148.0998  133.4136  159.4670 H   0  0  0  0  0  0  0  0  0  0  0  0
  146.4818  134.0574  159.3230 H   0  0  0  0  0  0  0  0  0  0  0  0
  147.5609  136.2750  158.5658 H   0  0  0  0  0  0  0  0  0  0  0  0
  149.0782  135.3906  158.4379 H   0  0  0  0  0  0  0  0  0  0  0  0
  147.6589  136.5058  156.0617 H   0  0  0  0  0  0  0  0  0  0  0  0
  149.9725  136.0621  155.1849 H   0  0  0  0  0  0  0  0  0  0  0  0
  150.0004  134.5250  156.0499 H   0  0  0  0  0  0  0  0  0  0  0  0
  149.9156  136.0380  156.9430 H   0  0  0  0  0  0  0  0  0  0  0  0
  146.7769  136.5787  154.1337 H   0  0  0  0  0  0  0  0  0  0  0  0
  146.3887  133.1573  152.7788 H   0  0  0  0  0  0  0  0  0  0  0  0
  144.2520  134.7098  149.3989 H   0  0  0  0  0  0  0  0  0  0  0  0
  1  2  1  0  0  0  0
  1 23  1  0  0  0  0
  1 24  1  0  0  0  0
  1 25  1  0  0  0  0
  2  3  1  0  0  0  0
  2 26  1  0  0  0  0
  2 27  1  0  0  0  0
  3  4  1  0  0  0  0
  3 28  1  0  0  0  0
  3 29  1  0  0  0  0
  4  5  1  0  0  0  0
  4 30  1  0  0  0  0
  4 31  1  0  0  0  0
  5  6  1  0  0  0  0
  6  7  1  0  0  0  0
  6  8  1  0  0  0  0
  6 32  1  0  0  0  0
  7 33  1  0  0  0  0
  7 34  1  0  0  0  0
  7 35  1  0  0  0  0
  8  9  2  0  0  0  0
  8 10  1  0  0  0  0
 10 11  1  0  0  0  0
 10 36  1  0  0  0  0
 11 20  1  0  0  0  0
 11 12  2  0  0  0  0
 12 13  1  0  0  0  0
 12 37  1  0  0  0  0
 13 14  1  0  0  0  0
 13 18  2  0  0  0  0
 14 15  1  0  0  0  0
 14 16  1  0  0  0  0
 14 17  1  0  0  0  0
 18 19  1  0  0  0  0
 18 38  1  0  0  0  0
 19 22  1  0  0  0  0
 19 20  1  0  0  0  0
 20 21  2  0  0  0  0
M  END
> <s_m_source_file>
AV-unprocessed.smi

> <i_m_source_file_index>
1723

> <i_lp_mmshare_version>
43012

> <i_f3d_flags>
0

> <s_epik_input>
W0NIM11bQ0gyXVtDSDJdW0NIMl1PW0NASF0oW0NIM10pQyg9TylbTkhdYzFbY0hdYyhDKEYpKEYpRilbY0hdW25IXWMxPU8=

> <s_epik_cmdline>
J2VwaWtfcHl0aG9uJywgJy1waCcsICc3LjAnLCAnLXRuJywgJzgnLCAnLW1hJywgJzIwMCcsICctbWV0YWxfYmluZGluZycsICctaW1hZScsICc8aW5maWxlLm1hZT4nLCAnLW9tYWUnLCAnPG91dGZpbGUubWFlPic=

> <r_lp_tautomer_probability>
0.999

> <r_epik_Ionization_Penalty>
0.00763408

> <r_epik_Ionization_Penalty_Charging>
0.00763398

> <r_epik_Ionization_Penalty_Neutral>
9.29819e-08

> <r_epik_State_Penalty>
0.00571302

> <r_epik_Charging_Adjusted_Penalty>
0.013347

> <i_epik_Tot_Q>
0

> <i_epik_Tot_abs_Q>
0

> <r_epik_Metal_State_Penalty>
0.392814

> <b_epik_Metal_Only>
0

> <s_lp_Force_Field>
OPLS_2005

> <r_lp_Energy>
18.7704

> <b_lp_Chiralities_Consistent>
1

> <s_lp_Variant>
AV-unprocessed.smi:1723-2

> <Gold.Version>
5.8.1

> <Gold.Id.Protein>
6NUR|6NUR_protein|mol2

> <Gold.PLP.Fitness>
35.9977

> <Gold.PLP.PLP>
-31.9935

> <Gold.PLP.part.hbond>
-2.0000

> <Gold.PLP.part.metal>
0.0000

> <Gold.PLP.part.buried>
-2.6154

> <Gold.PLP.part.nonpolar>
-26.8792

> <Gold.PLP.part.repulsive>
0.3801

> <Gold.PLP.ligand.clash>
0.0000

> <Gold.PLP.ligand.torsion>
0.1435

> <Gold.PLP.Chemscore.Hbond>
1.0000

> <Gold.PLP.Chemscore.CHOScore>
0.3780

> <Gold.PLP.Chemscore.Metal>
0.0000

> <Gold.Chemscore.Hbonds>
donor molecule, donor type, donor heavy atom, donor atom, acceptor molecule, acceptor atom, score
      L1  H    19    22       P1 10171  1.00
      L1  C    18    38       P1  7921  0.38

> <Gold.PLP.Chemscore.Internal.Correction>
0.1573

> <Gold.Rescore>
     Score         DG    S(hbond)    S(metal)    S(lipo)     H(rot)  DE(clash)    DE(int)     intcor
      8.72     -10.10       1.00        0.00      54.68       1.99       0.04       1.34       ----

> <Gold.Chemscore.Fitness>
8.7191

> <Gold.Chemscore.DG>
-10.0956

> <Gold.Chemscore.ZeroCoef>
-5.4800

> <Gold.Chemscore.Hbond>
0.9954

> <Gold.Chemscore.Metal>
0.0000

> <Gold.Chemscore.Lipo>
54.6771

> <Gold.Chemscore.Internal_Hbond>
0.0000

> <Gold.Chemscore.DEClash>
0.0359

> <Gold.Chemscore.DEInternal>
1.3406

> <Gold.Chemscore.Rot>
1.9946

> <Gold.Chemscore.Internal.Correction>
   9.000000E+99

> <Gold.Chemscore.Hbonds>
donor molecule, donor type, donor heavy atom, donor atom, acceptor molecule, acceptor atom, score
      L1  H    19    22       P1 10171  0.99

> <Gold.Chemscore.Hbond.Weighted>
-3.3245

> <Gold.Chemscore.Metal.Weighted>
-0.0000

> <Gold.Chemscore.Lipo.Weighted>
-6.3972

> <Gold.Chemscore.Internal_Hbond.Weighted>
0.0000

> <Gold.Chemscore.DEClash.Weighted>
0.0359

> <Gold.Chemscore.DEInternal.Weighted>
1.3406

> <Gold.Chemscore.Rot.Weighted>
5.1062

> <Gold.Chemscore.Internal.Correction.Weighted>
   9.000000E+99

> <Gold.Protein.RotatedTorsions>
[ 6907 6896 6895 6894 ] final   86.70 input  -60.11 | X-H torsion
[ 7974 7965 7964 7962 ] final -126.51 input  175.53 | X-H torsion
[ 8008 7997 7996 7995 ] final  145.14 input   59.86 | X-H torsion
[ 10167 10162 10161 10158 ] final   48.61 input  -65.29 | X-H torsion
[ 10718 10713 10712 10709 ] final   -2.60 input   66.30 | X-H torsion
[ 10763 10752 10751 10750 ] final   34.62 input  -60.55 | X-H torsion
[ 11005 11000 10999 10996 ] final  -82.53 input  -57.11 | X-H torsion

> <Gold.Protein.ActiveResidues>
 VAL166  LYS551  ARG553  GLY616  TRP617  ASP618  TYR619  PRO620  LYS621  CYS622 
 ASP623  PHE694  ASN695  SER759  ASP760  ASP761  ALA762  ILE779  LEU786  VAL792 
 PHE793  MET794  SER795  GLU796  ALA797  LYS798  CYS799  TRP800  GLU811  SER814 

> <Gold.Protein.RotatedAtoms>
  152.5399  134.2391  159.8854 H   0  0  0  0  0  0  0  0  0  0  0  0  # atno 6907 bound_to 6896
  151.2359  133.4418  159.2613 H   0  0  0  0  0  0  0  0  0  0  0  0  # atno 6908 bound_to 6896
  151.0671  134.9788  159.8346 H   0  0  0  0  0  0  0  0  0  0  0  0  # atno 6909 bound_to 6896
  144.9865  140.7691  143.4580 H   0  0  0  0  0  0  0  0  0  0  0  0  # atno 7974 bound_to 7965
  156.2891  140.2217  156.5167 H   0  0  0  0  0  0  0  0  0  0  0  0  # atno 8008 bound_to 7997
  154.7563  140.0476  157.0958 H   0  0  0  0  0  0  0  0  0  0  0  0  # atno 8009 bound_to 7997
  155.0047  140.3106  155.4856 H   0  0  0  0  0  0  0  0  0  0  0  0  # atno 8010 bound_to 7997
  140.2915  144.3041  150.6239 H   0  0  0  0  0  0  0  0  0  0  0  0  # atno 10167 bound_to 10162
  156.7884  130.5353  149.5739 H   0  0  0  0  0  0  0  0  0  0  0  0  # atno 10718 bound_to 10713
  153.0156  135.6355  154.1698 H   0  0  0  0  0  0  0  0  0  0  0  0  # atno 10763 bound_to 10752
  154.1437  135.2833  155.3155 H   0  0  0  0  0  0  0  0  0  0  0  0  # atno 10764 bound_to 10752
  154.6105  135.5558  153.7530 H   0  0  0  0  0  0  0  0  0  0  0  0  # atno 10765 bound_to 10752
  141.1662  133.7249  156.8586 H   0  0  0  0  0  0  0  0  0  0  0  0  # atno 11005 bound_to 11000
  145.2346  139.2099  143.5025 LP  0  0  0  0  0  0  0  0  0  0  0  0  # atno 17320 bound_to 7965
  146.3421  140.2230  142.8592 LP  0  0  0  0  0  0  0  0  0  0  0  0  # atno 17321 bound_to 7965
  140.5728  143.2179  151.7568 LP  0  0  0  0  0  0  0  0  0  0  0  0  # atno 17342 bound_to 10162
  139.4937  144.4192  151.9997 LP  0  0  0  0  0  0  0  0  0  0  0  0  # atno 17343 bound_to 10162
  156.1174  130.6085  151.0141 LP  0  0  0  0  0  0  0  0  0  0  0  0  # atno 17370 bound_to 10713
  157.6612  131.0880  150.7833 LP  0  0  0  0  0  0  0  0  0  0  0  0  # atno 17371 bound_to 10713
  140.1865  134.8996  157.3010 LP  0  0  0  0  0  0  0  0  0  0  0  0  # atno 17394 bound_to 11000
  140.2338  134.3878  155.7510 LP  0  0  0  0  0  0  0  0  0  0  0  0  # atno 17395 bound_to 11000

$$$$
