AV-unprocessed.smi:1715|AV-procd|sdf|6915|dock3
  -GOLD-   22720 8123D 1   1.00000     0.00000
 Structure written by MMmdl.
 41 42  0  0  0  0  0  0  0  0  2 V2000
  145.1687  132.4069  150.6506 C   0  0  0  0  0  0  0  0  0  0  0  0
  146.1818  133.1521  151.5259 C   0  0  1  0  0  0  0  0  0  0  0  0
  145.5959  134.4514  152.1068 C   0  0  0  0  0  0  0  0  0  0  0  0
  146.5686  135.0983  153.0174 N   0  3  1  0  0  0  0  0  0  0  0  0
  146.0849  136.4081  153.5198 C   0  0  0  0  0  0  0  0  0  0  0  0
  145.7066  137.3746  152.3803 C   0  0  0  0  0  0  0  0  0  0  0  0
  144.3616  137.9101  152.5553 N   0  0  0  0  0  0  0  0  0  0  0  0
  143.3060  137.2082  152.9913 C   0  0  0  0  0  0  0  0  0  0  0  0
  143.3612  136.0149  153.2898 O   0  0  0  0  0  0  0  0  0  0  0  0
  142.2032  137.9719  153.0535 N   0  0  0  0  0  0  0  0  0  0  0  0
  140.9020  137.5740  153.4520 C   0  0  0  0  0  0  0  0  0  0  0  0
  139.6965  138.1620  152.9814 C   0  0  0  0  0  0  0  0  0  0  0  0
  138.6335  137.5864  153.5247 N   0  0  0  0  0  0  0  0  0  0  0  0
  139.1491  136.6360  154.3369 N   0  0  0  0  0  0  0  0  0  0  0  0
  140.5258  136.5918  154.3247 C   0  0  0  0  0  0  0  0  0  0  0  0
  146.9654  134.1580  154.0948 C   0  0  0  0  0  0  0  0  0  0  0  0
  147.5026  132.8371  153.5097 C   0  0  2  0  0  0  0  0  0  0  0  0
  148.9091  132.9637  152.8974 C   0  0  0  0  0  0  0  0  0  0  0  0
  146.5601  132.2844  152.5911 O   0  0  0  0  0  0  0  0  0  0  0  0
  138.5554  136.0321  154.8875 H   0  0  0  0  0  0  0  0  0  0  0  0
  144.8514  133.0201  149.8069 H   0  0  0  0  0  0  0  0  0  0  0  0
  144.2795  132.1344  151.2199 H   0  0  0  0  0  0  0  0  0  0  0  0
  145.6010  131.4896  150.2502 H   0  0  0  0  0  0  0  0  0  0  0  0
  147.0525  133.3842  150.9122 H   0  0  0  0  0  0  0  0  0  0  0  0
  145.3422  135.1317  151.2927 H   0  0  0  0  0  0  0  0  0  0  0  0
  144.6722  134.2435  152.6500 H   0  0  0  0  0  0  0  0  0  0  0  0
  145.1982  136.2481  154.1351 H   0  0  0  0  0  0  0  0  0  0  0  0
  146.8390  136.8466  154.1751 H   0  0  0  0  0  0  0  0  0  0  0  0
  146.4100  138.2044  152.3080 H   0  0  0  0  0  0  0  0  0  0  0  0
  145.7411  136.8531  151.4236 H   0  0  0  0  0  0  0  0  0  0  0  0
  144.2257  138.8863  152.3352 H   0  0  0  0  0  0  0  0  0  0  0  0
  142.3025  138.9400  152.7854 H   0  0  0  0  0  0  0  0  0  0  0  0
  139.5602  138.9703  152.2779 H   0  0  0  0  0  0  0  0  0  0  0  0
  141.0868  135.8869  154.9199 H   0  0  0  0  0  0  0  0  0  0  0  0
  147.7217  134.6013  154.7414 H   0  0  0  0  0  0  0  0  0  0  0  0
  146.0978  133.9520  154.7238 H   0  0  0  0  0  0  0  0  0  0  0  0
  147.5804  132.1201  154.3276 H   0  0  0  0  0  0  0  0  0  0  0  0
  149.6349  133.2567  153.6562 H   0  0  0  0  0  0  0  0  0  0  0  0
  148.9516  133.7106  152.1050 H   0  0  0  0  0  0  0  0  0  0  0  0
  149.2379  132.0124  152.4788 H   0  0  0  0  0  0  0  0  0  0  0  0
  147.3936  135.2856  152.4654 H   0  0  0  0  0  0  0  0  0  0  0  0
  1  2  1  0  0  0  0
  1 21  1  0  0  0  0
  1 22  1  0  0  0  0
  1 23  1  0  0  0  0
  2 19  1  0  0  0  0
  2  3  1  0  0  0  0
  2 24  1  0  0  0  0
  3  4  1  0  0  0  0
  3 25  1  0  0  0  0
  3 26  1  0  0  0  0
  4  5  1  0  0  0  0
  4 16  1  0  0  0  0
  4 41  1  0  0  0  0
  5  6  1  0  0  0  0
  5 27  1  0  0  0  0
  5 28  1  0  0  0  0
  6  7  1  0  0  0  0
  6 29  1  0  0  0  0
  6 30  1  0  0  0  0
  7  8  1  0  0  0  0
  7 31  1  0  0  0  0
  8  9  2  0  0  0  0
  8 10  1  0  0  0  0
 10 11  1  0  0  0  0
 10 32  1  0  0  0  0
 11 15  2  0  0  0  0
 11 12  1  0  0  0  0
 12 13  2  0  0  0  0
 12 33  1  0  0  0  0
 13 14  1  0  0  0  0
 14 20  1  0  0  0  0
 14 15  1  0  0  0  0
 15 34  1  0  0  0  0
 16 17  1  0  0  0  0
 16 35  1  0  0  0  0
 16 36  1  0  0  0  0
 17 18  1  0  0  0  0
 17 19  1  0  0  0  0
 17 37  1  0  0  0  0
 18 38  1  0  0  0  0
 18 39  1  0  0  0  0
 18 40  1  0  0  0  0
M  CHG  1   4   1
M  END
> <s_m_source_file>
AV-unprocessed.smi

> <i_m_source_file_index>
1715

> <i_lp_mmshare_version>
43012

> <i_f3d_flags>
0

> <s_epik_input>
W0NIM11bQ0BASF0xW0NIMl1OKFtDSDJdW0NASF0oTzEpW0NIM10pW0NIMl1bQ0gyXVtOSF1DKD1PKVtOSF1jMltjSF1uW25IXVtjSF0y

> <s_epik_cmdline>
J2VwaWtfcHl0aG9uJywgJy1waCcsICc3LjAnLCAnLXRuJywgJzgnLCAnLW1hJywgJzIwMCcsICctbWV0YWxfYmluZGluZycsICctaW1hZScsICc8aW5maWxlLm1hZT4nLCAnLW9tYWUnLCAnPG91dGZpbGUubWFlPic=

> <r_lp_tautomer_probability>
0.5

> <r_epik_Ionization_Penalty>
0.646007

> <r_epik_Ionization_Penalty_Charging>
0.645968

> <r_epik_Ionization_Penalty_Neutral>
3.91671e-05

> <r_epik_State_Penalty>
0.664063

> <r_epik_Charging_Adjusted_Penalty>
1.31003

> <i_epik_Tot_Q>
1

> <i_epik_Tot_abs_Q>
1

> <r_epik_Metal_State_Penalty>
0.664064

> <b_epik_Metal_Only>
0

> <s_lp_Force_Field>
OPLS_2005

> <r_lp_Energy>
20.0624

> <b_lp_Chiralities_Consistent>
1

> <s_lp_Variant>
AV-unprocessed.smi:1715-7

> <Gold.Version>
5.8.1

> <Gold.Id.Protein>
6NUR|6NUR_protein|mol2

> <Gold.PLP.Fitness>
45.2959

> <Gold.PLP.PLP>
-29.1724

> <Gold.PLP.part.hbond>
-4.0000

> <Gold.PLP.part.metal>
0.0000

> <Gold.PLP.part.buried>
-6.9541

> <Gold.PLP.part.nonpolar>
-20.1114

> <Gold.PLP.part.repulsive>
0.4834

> <Gold.PLP.ligand.clash>
0.0000

> <Gold.PLP.ligand.torsion>
0.6854

> <Gold.PLP.Chemscore.Hbond>
3.9120

> <Gold.PLP.Chemscore.CHOScore>
1.9130

> <Gold.PLP.Chemscore.Metal>
0.0000

> <Gold.Chemscore.Hbonds>
donor molecule, donor type, donor heavy atom, donor atom, acceptor molecule, acceptor atom, score
      L1  H     4    41       P1  7948  2.00
      L1  H     7    31       P1 10175  1.00
      L1  H    10    32       P1 10175  0.91
      L1  C    12    33       P1 10160  1.00
      L1  C    15    34       P1 11000  0.90

> <Gold.PLP.Chemscore.Internal.Correction>
0.0195

> <Gold.Rescore>
     Score         DG    S(hbond)    S(metal)    S(lipo)     H(rot)  DE(clash)    DE(int)     intcor
     15.52     -17.66       2.93        0.00      56.87       1.67       0.02       2.12       ----

> <Gold.Chemscore.Fitness>
15.5230

> <Gold.Chemscore.DG>
-17.6597

> <Gold.Chemscore.ZeroCoef>
-5.4800

> <Gold.Chemscore.Hbond>
2.9323

> <Gold.Chemscore.Metal>
0.0000

> <Gold.Chemscore.Lipo>
56.8680

> <Gold.Chemscore.Internal_Hbond>
0.0000

> <Gold.Chemscore.DEClash>
0.0174

> <Gold.Chemscore.DEInternal>
2.1193

> <Gold.Chemscore.Rot>
1.6671

> <Gold.Chemscore.Internal.Correction>
   9.000000E+99

> <Gold.Chemscore.Hbonds>
donor molecule, donor type, donor heavy atom, donor atom, acceptor molecule, acceptor atom, score
      L1  H     4    41       P1  7948  0.99
      L1  H     7    31       P1 10175  0.99
      L1  H    10    32       P1 10175  0.85

> <Gold.Chemscore.Hbond.Weighted>
-9.7939

> <Gold.Chemscore.Metal.Weighted>
-0.0000

> <Gold.Chemscore.Lipo.Weighted>
-6.6536

> <Gold.Chemscore.Internal_Hbond.Weighted>
0.0000

> <Gold.Chemscore.DEClash.Weighted>
0.0174

> <Gold.Chemscore.DEInternal.Weighted>
2.1193

> <Gold.Chemscore.Rot.Weighted>
4.2677

> <Gold.Chemscore.Internal.Correction.Weighted>
   9.000000E+99

> <Gold.Protein.RotatedTorsions>
[ 6907 6896 6895 6894 ] final    4.85 input  -60.11 | X-H torsion
[ 7974 7965 7964 7962 ] final -160.16 input  175.53 | X-H torsion
[ 8008 7997 7996 7995 ] final  -84.69 input   59.86 | X-H torsion
[ 10167 10162 10161 10158 ] final -142.51 input  -65.29 | X-H torsion
[ 10718 10713 10712 10709 ] final  -37.99 input   66.30 | X-H torsion
[ 10763 10752 10751 10750 ] final  -36.91 input  -60.55 | X-H torsion
[ 11005 11000 10999 10996 ] final -122.34 input  -57.11 | X-H torsion

> <Gold.Protein.ActiveResidues>
 VAL166  LYS551  ARG553  GLY616  TRP617  ASP618  TYR619  PRO620  LYS621  CYS622 
 ASP623  PHE694  ASN695  SER759  ASP760  ASP761  ALA762  ILE779  LEU786  VAL792 
 PHE793  MET794  SER795  GLU796  ALA797  LYS798  CYS799  TRP800  GLU811  SER814 

> <Gold.Protein.RotatedAtoms>
  151.6479  135.1005  160.0154 H   0  0  0  0  0  0  0  0  0  0  0  0  # atno 6907 bound_to 6896
  152.4017  133.6824  159.6330 H   0  0  0  0  0  0  0  0  0  0  0  0  # atno 6908 bound_to 6896
  150.7916  133.8696  159.3296 H   0  0  0  0  0  0  0  0  0  0  0  0  # atno 6909 bound_to 6896
  144.7437  140.3581  143.6102 H   0  0  0  0  0  0  0  0  0  0  0  0  # atno 7974 bound_to 7965
  154.6326  140.0601  156.9750 H   0  0  0  0  0  0  0  0  0  0  0  0  # atno 8008 bound_to 7997
  155.1642  140.3285  155.4387 H   0  0  0  0  0  0  0  0  0  0  0  0  # atno 8009 bound_to 7997
  156.2490  140.1925  156.6748 H   0  0  0  0  0  0  0  0  0  0  0  0  # atno 8010 bound_to 7997
  139.8081  143.7740  152.2662 H   0  0  0  0  0  0  0  0  0  0  0  0  # atno 10167 bound_to 10162
  156.3089  130.4250  149.8070 H   0  0  0  0  0  0  0  0  0  0  0  0  # atno 10718 bound_to 10713
  153.8875  135.6815  153.4763 H   0  0  0  0  0  0  0  0  0  0  0  0  # atno 10763 bound_to 10752
  153.1199  135.4744  154.9176 H   0  0  0  0  0  0  0  0  0  0  0  0  # atno 10764 bound_to 10752
  154.7638  135.3218  154.8278 H   0  0  0  0  0  0  0  0  0  0  0  0  # atno 10765 bound_to 10752
  141.0003  134.0413  157.3546 H   0  0  0  0  0  0  0  0  0  0  0  0  # atno 11005 bound_to 11000
  145.7206  139.1708  143.2487 LP  0  0  0  0  0  0  0  0  0  0  0  0  # atno 17320 bound_to 7965
  146.1280  140.7223  142.9426 LP  0  0  0  0  0  0  0  0  0  0  0  0  # atno 17321 bound_to 7965
  139.7881  144.7420  150.9994 LP  0  0  0  0  0  0  0  0  0  0  0  0  # atno 17342 bound_to 10162
  140.7818  143.4471  151.0466 LP  0  0  0  0  0  0  0  0  0  0  0  0  # atno 17343 bound_to 10162
  156.5420  130.8304  151.3272 LP  0  0  0  0  0  0  0  0  0  0  0  0  # atno 17370 bound_to 10713
  157.7386  130.9816  150.2263 LP  0  0  0  0  0  0  0  0  0  0  0  0  # atno 17371 bound_to 10713
  139.9035  135.0172  156.7380 LP  0  0  0  0  0  0  0  0  0  0  0  0  # atno 17394 bound_to 11000
  140.6900  133.9398  155.7961 LP  0  0  0  0  0  0  0  0  0  0  0  0  # atno 17395 bound_to 11000

$$$$
