AV-unprocessed.smi:1207|AV-procd|sdf|5050|dock1
  -GOLD-   22720 4 73D 1   1.00000     0.00000
 Structure written by MMmdl.
 51 53  0  0  0  0  0  0  0  0  1 V2000
  153.4039  143.1287  164.0326 C   0  0  0  0  0  0  0  0  0  0  0  0
  152.9825  142.9891  162.5805 C   0  0  0  0  0  0  0  0  0  0  0  0
  152.1400  143.9707  162.0118 C   0  0  0  0  0  0  0  0  0  0  0  0
  151.7266  143.8782  160.6646 C   0  0  0  0  0  0  0  0  0  0  0  0
  150.9178  144.7143  159.9138 N   0  0  0  0  0  0  0  0  0  0  0  0
  150.9099  144.0932  158.7379 C   0  0  0  0  0  0  0  0  0  0  0  0
  151.6180  142.9521  158.6378 N   0  0  0  0  0  0  0  0  0  0  0  0
  151.7530  142.1113  157.4611 C   0  0  0  0  0  0  0  0  0  0  0  0
  150.4007  141.5544  156.9738 C   0  0  1  0  0  0  0  0  0  0  0  0
  149.6435  142.6202  156.4320 O   0  0  0  0  0  0  0  0  0  0  0  0
  150.5795  140.4645  155.8940 C   0  0  0  0  0  0  0  0  0  0  0  0
  149.3543  139.7652  155.5012 N   0  0  0  0  0  0  0  0  0  0  0  0
  148.6235  139.3328  156.6895 C   0  0  0  0  0  0  0  0  0  0  0  0
  149.6227  138.6360  154.6067 C   0  0  0  0  0  0  0  0  0  0  0  0
  150.4054  137.5312  155.2695 C   0  0  0  0  0  0  0  0  0  0  0  0
  149.9395  136.2498  155.6812 C   0  0  0  0  0  0  0  0  0  0  0  0
  148.5580  135.6748  155.5532 C   0  0  0  0  0  0  0  0  0  0  0  0
  150.9017  135.5270  156.2300 N   0  0  0  0  0  0  0  0  0  0  0  0
  152.0480  136.3272  156.1970 O   0  0  0  0  0  0  0  0  0  0  0  0
  151.7273  137.5136  155.6206 C   0  0  0  0  0  0  0  0  0  0  0  0
  152.8267  138.5133  155.4938 C   0  0  0  0  0  0  0  0  0  0  0  0
  152.1811  142.7668  159.8960 C   0  0  0  0  0  0  0  0  0  0  0  0
  153.0199  141.7841  160.4506 C   0  0  0  0  0  0  0  0  0  0  0  0
  153.4247  141.8924  161.7976 C   0  0  0  0  0  0  0  0  0  0  0  0
  154.3323  140.8269  162.3862 C   0  0  0  0  0  0  0  0  0  0  0  0
  152.9698  144.0186  164.4895 H   0  0  0  0  0  0  0  0  0  0  0  0
  154.4884  143.2084  164.1094 H   0  0  0  0  0  0  0  0  0  0  0  0
  153.0778  142.2635  164.6102 H   0  0  0  0  0  0  0  0  0  0  0  0
  151.8035  144.8066  162.6074 H   0  0  0  0  0  0  0  0  0  0  0  0
  150.3581  144.4906  157.8985 H   0  0  0  0  0  0  0  0  0  0  0  0
  152.2398  142.6860  156.6718 H   0  0  0  0  0  0  0  0  0  0  0  0
  152.4285  141.2918  157.7103 H   0  0  0  0  0  0  0  0  0  0  0  0
  149.8649  141.1437  157.8312 H   0  0  0  0  0  0  0  0  0  0  0  0
  149.2775  142.3393  155.6075 H   0  0  0  0  0  0  0  0  0  0  0  0
  151.0869  140.8700  155.0169 H   0  0  0  0  0  0  0  0  0  0  0  0
  151.2657  139.7196  156.2995 H   0  0  0  0  0  0  0  0  0  0  0  0
  147.6673  138.8808  156.4254 H   0  0  0  0  0  0  0  0  0  0  0  0
  148.4076  140.1795  157.3418 H   0  0  0  0  0  0  0  0  0  0  0  0
  149.1981  138.6028  157.2613 H   0  0  0  0  0  0  0  0  0  0  0  0
  148.6806  138.2197  154.2531 H   0  0  0  0  0  0  0  0  0  0  0  0
  150.1329  138.9947  153.7118 H   0  0  0  0  0  0  0  0  0  0  0  0
  147.8126  136.3554  155.9656 H   0  0  0  0  0  0  0  0  0  0  0  0
  148.4638  134.7244  156.0801 H   0  0  0  0  0  0  0  0  0  0  0  0
  148.3059  135.5012  154.5069 H   0  0  0  0  0  0  0  0  0  0  0  0
  152.6085  139.2374  154.7087 H   0  0  0  0  0  0  0  0  0  0  0  0
  153.7698  138.0251  155.2473 H   0  0  0  0  0  0  0  0  0  0  0  0
  152.9608  139.0585  156.4281 H   0  0  0  0  0  0  0  0  0  0  0  0
  153.3515  140.9558  159.8421 H   0  0  0  0  0  0  0  0  0  0  0  0
  154.5820  140.0647  161.6475 H   0  0  0  0  0  0  0  0  0  0  0  0
  153.8453  140.3316  163.2265 H   0  0  0  0  0  0  0  0  0  0  0  0
  155.2644  141.2703  162.7373 H   0  0  0  0  0  0  0  0  0  0  0  0
  1  2  1  0  0  0  0
  1 26  1  0  0  0  0
  1 27  1  0  0  0  0
  1 28  1  0  0  0  0
  2 24  1  0  0  0  0
  2  3  2  0  0  0  0
  3  4  1  0  0  0  0
  3 29  1  0  0  0  0
  4 22  2  0  0  0  0
  4  5  1  0  0  0  0
  5  6  2  0  0  0  0
  6  7  1  0  0  0  0
  6 30  1  0  0  0  0
  7  8  1  0  0  0  0
  7 22  1  0  0  0  0
  8  9  1  0  0  0  0
  8 31  1  0  0  0  0
  8 32  1  0  0  0  0
  9 10  1  0  0  0  0
  9 11  1  0  0  0  0
  9 33  1  0  0  0  0
 10 34  1  0  0  0  0
 11 12  1  0  0  0  0
 11 35  1  0  0  0  0
 11 36  1  0  0  0  0
 12 13  1  0  0  0  0
 12 14  1  0  0  0  0
 13 37  1  0  0  0  0
 13 38  1  0  0  0  0
 13 39  1  0  0  0  0
 14 15  1  0  0  0  0
 14 40  1  0  0  0  0
 14 41  1  0  0  0  0
 15 20  2  0  0  0  0
 15 16  1  0  0  0  0
 16 17  1  0  0  0  0
 16 18  2  0  0  0  0
 17 42  1  0  0  0  0
 17 43  1  0  0  0  0
 17 44  1  0  0  0  0
 18 19  1  0  0  0  0
 19 20  1  0  0  0  0
 20 21  1  0  0  0  0
 21 45  1  0  0  0  0
 21 46  1  0  0  0  0
 21 47  1  0  0  0  0
 22 23  1  0  0  0  0
 23 24  2  0  0  0  0
 23 48  1  0  0  0  0
 24 25  1  0  0  0  0
 25 49  1  0  0  0  0
 25 50  1  0  0  0  0
 25 51  1  0  0  0  0
M  END
> <s_m_source_file>
AV-unprocessed.smi

> <i_m_source_file_index>
1207

> <i_lp_mmshare_version>
43012

> <i_f3d_flags>
0

> <s_epik_input>
W0NIM11jKFtjSF0xKWMoW0NIM10pW2NIXWMoYzEyKW4oW2NIXW4yKVtDSDJdW0NASF0oW09IXSlbQ0gyXU4oW0NIM10pW0NIMl1jM2MoW0NIM10pbm9jM1tDSDNd

> <s_epik_cmdline>
J2VwaWtfcHl0aG9uJywgJy1waCcsICc3LjAnLCAnLXRuJywgJzgnLCAnLW1hJywgJzIwMCcsICctbWV0YWxfYmluZGluZycsICctaW1hZScsICc8aW5maWxlLm1hZT4nLCAnLW9tYWUnLCAnPG91dGZpbGUubWFlPic=

> <r_epik_Ionization_Penalty>
0.374039

> <r_epik_Ionization_Penalty_Charging>
0

> <r_epik_Ionization_Penalty_Neutral>
0.374039

> <r_epik_State_Penalty>
0.350767

> <r_epik_Charging_Adjusted_Penalty>
0.350767

> <i_epik_Tot_Q>
0

> <i_epik_Tot_abs_Q>
0

> <r_epik_Metal_State_Penalty>
0.343187

> <b_epik_Metal_Only>
0

> <s_lp_Force_Field>
OPLS_2005

> <r_lp_Energy>
17.6596

> <b_lp_Chiralities_Consistent>
1

> <s_lp_Variant>
AV-unprocessed.smi:1207-2

> <Gold.Version>
5.8.1

> <Gold.Id.Protein>
6NUR|6NUR_protein|mol2

> <Gold.PLP.Fitness>
59.1268

> <Gold.PLP.PLP>
-53.0307

> <Gold.PLP.part.hbond>
-1.2541

> <Gold.PLP.part.metal>
0.0000

> <Gold.PLP.part.buried>
-6.5460

> <Gold.PLP.part.nonpolar>
-45.5463

> <Gold.PLP.part.repulsive>
0.3362

> <Gold.PLP.ligand.clash>
0.0000

> <Gold.PLP.ligand.torsion>
0.2814

> <Gold.PLP.Chemscore.Hbond>
0.9750

> <Gold.PLP.Chemscore.CHOScore>
1.0950

> <Gold.PLP.Chemscore.Metal>
0.0000

> <Gold.Chemscore.Hbonds>
donor molecule, donor type, donor heavy atom, donor atom, acceptor molecule, acceptor atom, score
      P1  H 10752 10765       L1    19  1.00
      L1  C     6    30       P1  8028  0.69
      L1  C     6    30       P1  8029  0.02

> <Gold.PLP.Chemscore.Internal.Correction>
0.4490

> <Gold.Rescore>
     Score         DG    S(hbond)    S(metal)    S(lipo)     H(rot)  DE(clash)    DE(int)     intcor
     16.76     -19.42       0.95        0.00     143.88       2.38       1.25       1.40       ----

> <Gold.Chemscore.Fitness>
16.7646

> <Gold.Chemscore.DG>
-19.4210

> <Gold.Chemscore.ZeroCoef>
-5.4800

> <Gold.Chemscore.Hbond>
0.9545

> <Gold.Chemscore.Metal>
0.0000

> <Gold.Chemscore.Lipo>
143.8847

> <Gold.Chemscore.Internal_Hbond>
0.0000

> <Gold.Chemscore.DEClash>
1.2544

> <Gold.Chemscore.DEInternal>
1.4020

> <Gold.Chemscore.Rot>
2.3756

> <Gold.Chemscore.Internal.Correction>
   9.000000E+99

> <Gold.Chemscore.Hbonds>
donor molecule, donor type, donor heavy atom, donor atom, acceptor molecule, acceptor atom, score
      P1  H 10752 10765       L1    19  0.22

> <Gold.Chemscore.Hbond.Weighted>
-3.1880

> <Gold.Chemscore.Metal.Weighted>
-0.0000

> <Gold.Chemscore.Lipo.Weighted>
-16.8345

> <Gold.Chemscore.Internal_Hbond.Weighted>
0.0000

> <Gold.Chemscore.DEClash.Weighted>
1.2544

> <Gold.Chemscore.DEInternal.Weighted>
1.4020

> <Gold.Chemscore.Rot.Weighted>
6.0816

> <Gold.Chemscore.Internal.Correction.Weighted>
   9.000000E+99

> <Gold.Protein.RotatedTorsions>
[ 6907 6896 6895 6894 ] final  -13.39 input  -60.11 | X-H torsion
[ 7974 7965 7964 7962 ] final  -15.37 input  175.53 | X-H torsion
[ 8008 7997 7996 7995 ] final  -92.16 input   59.86 | X-H torsion
[ 10167 10162 10161 10158 ] final  137.47 input  -65.29 | X-H torsion
[ 10718 10713 10712 10709 ] final -157.67 input   66.30 | X-H torsion
[ 10763 10752 10751 10750 ] final -155.39 input  -60.55 | X-H torsion
[ 11005 11000 10999 10996 ] final    2.41 input  -57.11 | X-H torsion

> <Gold.Protein.ActiveResidues>
 VAL166  LYS551  ARG553  GLY616  TRP617  ASP618  TYR619  PRO620  LYS621  CYS622 
 ASP623  PHE694  ASN695  SER759  ASP760  ASP761  ALA762  ILE779  LEU786  VAL792 
 PHE793  MET794  SER795  GLU796  ALA797  LYS798  CYS799  TRP800  GLU811  SER814 

> <Gold.Protein.RotatedAtoms>
  151.3556  135.0893  159.9417 H   0  0  0  0  0  0  0  0  0  0  0  0  # atno 6907 bound_to 6896
  152.5175  133.9309  159.7590 H   0  0  0  0  0  0  0  0  0  0  0  0  # atno 6908 bound_to 6896
  150.9693  133.6307  159.2770 H   0  0  0  0  0  0  0  0  0  0  0  0  # atno 6909 bound_to 6896
  146.2035  140.3483  142.8415 H   0  0  0  0  0  0  0  0  0  0  0  0  # atno 7974 bound_to 7965
  154.7197  140.0512  157.0628 H   0  0  0  0  0  0  0  0  0  0  0  0  # atno 8008 bound_to 7997
  155.0443  140.3172  155.4694 H   0  0  0  0  0  0  0  0  0  0  0  0  # atno 8009 bound_to 7997
  156.2813  140.2127  156.5568 H   0  0  0  0  0  0  0  0  0  0  0  0  # atno 8010 bound_to 7997
  139.5143  144.6408  151.5574 H   0  0  0  0  0  0  0  0  0  0  0  0  # atno 10167 bound_to 10162
  156.5435  130.8573  151.2756 H   0  0  0  0  0  0  0  0  0  0  0  0  # atno 10718 bound_to 10713
  154.7790  135.3169  154.8030 H   0  0  0  0  0  0  0  0  0  0  0  0  # atno 10763 bound_to 10752
  153.8746  135.6841  153.4776 H   0  0  0  0  0  0  0  0  0  0  0  0  # atno 10764 bound_to 10752
  153.1422  135.4734  154.9449 H   0  0  0  0  0  0  0  0  0  0  0  0  # atno 10765 bound_to 10752
  140.6046  133.9804  155.8148 H   0  0  0  0  0  0  0  0  0  0  0  0  # atno 11005 bound_to 11000
  144.8737  140.7307  143.6031 LP  0  0  0  0  0  0  0  0  0  0  0  0  # atno 17320 bound_to 7965
  145.3403  139.1734  143.4489 LP  0  0  0  0  0  0  0  0  0  0  0  0  # atno 17321 bound_to 7965
  140.6174  143.9323  150.6499 LP  0  0  0  0  0  0  0  0  0  0  0  0  # atno 17342 bound_to 10162
  140.2585  143.3541  152.1344 LP  0  0  0  0  0  0  0  0  0  0  0  0  # atno 17343 bound_to 10162
  157.7401  130.9844  150.2355 LP  0  0  0  0  0  0  0  0  0  0  0  0  # atno 17370 bound_to 10713
  156.2950  130.3750  149.7805 LP  0  0  0  0  0  0  0  0  0  0  0  0  # atno 17371 bound_to 10713
  141.0849  134.0006  157.3329 LP  0  0  0  0  0  0  0  0  0  0  0  0  # atno 17394 bound_to 11000
  139.9218  135.0200  156.8090 LP  0  0  0  0  0  0  0  0  0  0  0  0  # atno 17395 bound_to 11000

$$$$
