AV-unprocessed.smi:1841|AV-procd|sdf|7497|dock9
  -GOLD-   22720 9203D 1   1.00000     0.00000
 Structure written by MMmdl.
 40 41  0  0  0  0  0  0  0  0  1 V2000
  145.6503  136.0747  151.0734 C   0  0  0  0  0  0  0  0  0  0  0  0
  146.2614  137.3157  151.3797 O   0  0  0  0  0  0  0  0  0  0  0  0
  146.0286  137.7205  152.7185 C   0  0  0  0  0  0  0  0  0  0  0  0
  146.8117  139.0071  152.9962 C   0  0  0  0  0  0  0  0  0  0  0  0
  148.1361  138.6602  153.3893 O   0  0  0  0  0  0  0  0  0  0  0  0
  148.8273  139.5232  154.2143 C   0  0  0  0  0  0  0  0  0  0  0  0
  150.1567  139.2063  154.5567 C   0  0  0  0  0  0  0  0  0  0  0  0
  150.8687  140.0770  155.4034 C   0  0  0  0  0  0  0  0  0  0  0  0
  150.2223  141.2382  155.8902 C   0  0  0  0  0  0  0  0  0  0  0  0
  150.8352  142.1993  156.7389 N   0  0  0  0  0  0  0  0  0  0  0  0
  151.8236  142.0183  157.6343 C   0  0  0  0  0  0  0  0  0  0  0  0
  152.3629  140.9370  157.8701 O   0  0  0  0  0  0  0  0  0  0  0  0
  152.2628  143.2706  158.4108 C   0  0  1  0  0  0  0  0  0  0  0  0
  151.0966  143.8657  159.2268 C   0  0  0  0  0  0  0  0  0  0  0  0
  151.5015  143.6323  160.6728 C   0  0  0  0  0  0  0  0  0  0  0  0
  150.7627  143.8870  161.6227 O   0  0  0  0  0  0  0  0  0  0  0  0
  152.7315  143.1166  160.7474 N   0  0  0  0  0  0  0  0  0  0  0  0
  153.4258  142.7396  161.9713 C   0  0  0  0  0  0  0  0  0  0  0  0
  153.3652  142.9642  159.4491 C   0  0  0  0  0  0  0  0  0  0  0  0
  148.8958  141.4737  155.4730 C   0  0  0  0  0  0  0  0  0  0  0  0
  148.2075  140.6432  154.6618 N   0  0  0  0  0  0  0  0  0  0  0  0
  145.8636  135.8070  150.0386 H   0  0  0  0  0  0  0  0  0  0  0  0
  144.5672  136.1298  151.1902 H   0  0  0  0  0  0  0  0  0  0  0  0
  146.0321  135.2780  151.7131 H   0  0  0  0  0  0  0  0  0  0  0  0
  144.9642  137.8741  152.9031 H   0  0  0  0  0  0  0  0  0  0  0  0
  146.3688  136.9345  153.3941 H   0  0  0  0  0  0  0  0  0  0  0  0
  146.8508  139.6072  152.0856 H   0  0  0  0  0  0  0  0  0  0  0  0
  146.3075  139.5949  153.7652 H   0  0  0  0  0  0  0  0  0  0  0  0
  150.6233  138.3103  154.1745 H   0  0  0  0  0  0  0  0  0  0  0  0
  151.8926  139.8432  155.6500 H   0  0  0  0  0  0  0  0  0  0  0  0
  150.4282  143.1230  156.7105 H   0  0  0  0  0  0  0  0  0  0  0  0
  152.6317  144.0166  157.7046 H   0  0  0  0  0  0  0  0  0  0  0  0
  150.9951  144.9361  159.0457 H   0  0  0  0  0  0  0  0  0  0  0  0
  150.1325  143.3970  159.0214 H   0  0  0  0  0  0  0  0  0  0  0  0
  153.3551  143.5307  162.7191 H   0  0  0  0  0  0  0  0  0  0  0  0
  154.4826  142.5517  161.7793 H   0  0  0  0  0  0  0  0  0  0  0  0
  152.9892  141.8319  162.3886 H   0  0  0  0  0  0  0  0  0  0  0  0
  153.7862  141.9624  159.3448 H   0  0  0  0  0  0  0  0  0  0  0  0
  154.1869  143.6766  159.3629 H   0  0  0  0  0  0  0  0  0  0  0  0
  148.3649  142.3540  155.8053 H   0  0  0  0  0  0  0  0  0  0  0  0
  1  2  1  0  0  0  0
  1 22  1  0  0  0  0
  1 23  1  0  0  0  0
  1 24  1  0  0  0  0
  2  3  1  0  0  0  0
  3  4  1  0  0  0  0
  3 25  1  0  0  0  0
  3 26  1  0  0  0  0
  4  5  1  0  0  0  0
  4 27  1  0  0  0  0
  4 28  1  0  0  0  0
  5  6  1  0  0  0  0
  6 21  1  0  0  0  0
  6  7  2  0  0  0  0
  7  8  1  0  0  0  0
  7 29  1  0  0  0  0
  8  9  2  0  0  0  0
  8 30  1  0  0  0  0
  9 10  1  0  0  0  0
  9 20  1  0  0  0  0
 10 11  1  0  0  0  0
 10 31  1  0  0  0  0
 11 12  2  0  0  0  0
 11 13  1  0  0  0  0
 13 19  1  0  0  0  0
 13 14  1  0  0  0  0
 13 32  1  0  0  0  0
 14 15  1  0  0  0  0
 14 33  1  0  0  0  0
 14 34  1  0  0  0  0
 15 16  2  0  0  0  0
 15 17  1  0  0  0  0
 17 18  1  0  0  0  0
 17 19  1  0  0  0  0
 18 35  1  0  0  0  0
 18 36  1  0  0  0  0
 18 37  1  0  0  0  0
 19 38  1  0  0  0  0
 19 39  1  0  0  0  0
 20 21  2  0  0  0  0
 20 40  1  0  0  0  0
M  END
> <s_m_source_file>
AV-unprocessed.smi

> <i_m_source_file_index>
1841

> <i_lp_mmshare_version>
43012

> <i_f3d_flags>
0

> <s_epik_input>
W0NIM11PW0NIMl1bQ0gyXU9jMVtjSF1bY0hdYyhbY0hdbjEpW05IXUMoPU8pW0NAQEhdMltDSDJdQyg9TylOKFtDSDNdKVtDSDJdMg==

> <s_epik_cmdline>
J2VwaWtfcHl0aG9uJywgJy1waCcsICc3LjAnLCAnLXRuJywgJzgnLCAnLW1hJywgJzIwMCcsICctbWV0YWxfYmluZGluZycsICctaW1hZScsICc8aW5maWxlLm1hZT4nLCAnLW9tYWUnLCAnPG91dGZpbGUubWFlPic=

> <r_lp_tautomer_probability>
1

> <r_epik_Ionization_Penalty>
1.70347e-05

> <r_epik_Ionization_Penalty_Charging>
0

> <r_epik_Ionization_Penalty_Neutral>
1.70347e-05

> <r_epik_State_Penalty>
-0

> <r_epik_Charging_Adjusted_Penalty>
0

> <i_epik_Tot_Q>
0

> <i_epik_Tot_abs_Q>
0

> <r_epik_Metal_State_Penalty>
-0

> <b_epik_Metal_Only>
0

> <s_lp_Force_Field>
OPLS_2005

> <r_lp_Energy>
17.1342

> <b_lp_Chiralities_Consistent>
1

> <s_lp_Variant>
AV-unprocessed.smi:1841-2

> <Gold.Version>
5.8.1

> <Gold.Id.Protein>
6NUR|6NUR_protein|mol2

> <Gold.PLP.Fitness>
46.9614

> <Gold.PLP.PLP>
-40.5349

> <Gold.PLP.part.hbond>
-1.4965

> <Gold.PLP.part.metal>
0.0000

> <Gold.PLP.part.buried>
-4.3294

> <Gold.PLP.part.nonpolar>
-41.0137

> <Gold.PLP.part.repulsive>
7.1205

> <Gold.PLP.ligand.clash>
0.0000

> <Gold.PLP.ligand.torsion>
0.4867

> <Gold.PLP.Chemscore.Hbond>
1.4550

> <Gold.PLP.Chemscore.CHOScore>
1.0000

> <Gold.PLP.Chemscore.Metal>
0.0000

> <Gold.Chemscore.Hbonds>
donor molecule, donor type, donor heavy atom, donor atom, acceptor molecule, acceptor atom, score
      P1  H  6933  6945       L1    16  0.07
      L1  C    20    40       P1  8028  1.00

> <Gold.PLP.Chemscore.Internal.Correction>
0.0350

> <Gold.Rescore>
     Score         DG    S(hbond)    S(metal)    S(lipo)     H(rot)  DE(clash)    DE(int)     intcor
     12.11     -14.34       0.99        0.00      89.96       1.95       0.45       1.78       ----

> <Gold.Chemscore.Fitness>
12.1125

> <Gold.Chemscore.DG>
-14.3408

> <Gold.Chemscore.ZeroCoef>
-5.4800

> <Gold.Chemscore.Hbond>
0.9938

> <Gold.Chemscore.Metal>
0.0000

> <Gold.Chemscore.Lipo>
89.9612

> <Gold.Chemscore.Internal_Hbond>
0.0000

> <Gold.Chemscore.DEClash>
0.4494

> <Gold.Chemscore.DEInternal>
1.7788

> <Gold.Chemscore.Rot>
1.9468

> <Gold.Chemscore.Internal.Correction>
   9.000000E+99

> <Gold.Chemscore.Hbonds>
donor molecule, donor type, donor heavy atom, donor atom, acceptor molecule, acceptor atom, score
      L1  H    10    31       P1  8028  0.04
      P1  H  6933  6945       L1    16  0.02
      P1  H  7954  7966       L1     2  0.02
      P1  H  7997  8010       L1    12  0.02

> <Gold.Chemscore.Hbond.Weighted>
-3.3192

> <Gold.Chemscore.Metal.Weighted>
-0.0000

> <Gold.Chemscore.Lipo.Weighted>
-10.5255

> <Gold.Chemscore.Internal_Hbond.Weighted>
0.0000

> <Gold.Chemscore.DEClash.Weighted>
0.4494

> <Gold.Chemscore.DEInternal.Weighted>
1.7788

> <Gold.Chemscore.Rot.Weighted>
4.9839

> <Gold.Chemscore.Internal.Correction.Weighted>
   9.000000E+99

> <Gold.Protein.RotatedTorsions>
[ 6907 6896 6895 6894 ] final  157.03 input  -60.11 | X-H torsion
[ 7974 7965 7964 7962 ] final  136.98 input  175.53 | X-H torsion
[ 8008 7997 7996 7995 ] final   50.74 input   59.86 | X-H torsion
[ 10167 10162 10161 10158 ] final  -44.37 input  -65.29 | X-H torsion
[ 10718 10713 10712 10709 ] final -167.72 input   66.30 | X-H torsion
[ 10763 10752 10751 10750 ] final  119.97 input  -60.55 | X-H torsion
[ 11005 11000 10999 10996 ] final -143.44 input  -57.11 | X-H torsion

> <Gold.Protein.ActiveResidues>
 VAL166  LYS551  ARG553  GLY616  TRP617  ASP618  TYR619  PRO620  LYS621  CYS622 
 ASP623  PHE694  ASN695  SER759  ASP760  ASP761  ALA762  ILE779  LEU786  VAL792 
 PHE793  MET794  SER795  GLU796  ALA797  LYS798  CYS799  TRP800  GLU811  SER814 

> <Gold.Protein.RotatedAtoms>
  152.0210  133.3898  159.4257 H   0  0  0  0  0  0  0  0  0  0  0  0  # atno 6907 bound_to 6896
  150.6890  134.3626  159.4966 H   0  0  0  0  0  0  0  0  0  0  0  0  # atno 6908 bound_to 6896
  152.1400  134.9069  160.0605 H   0  0  0  0  0  0  0  0  0  0  0  0  # atno 6909 bound_to 6896
  144.9512  139.4816  143.5525 H   0  0  0  0  0  0  0  0  0  0  0  0  # atno 7974 bound_to 7965
  155.4238  140.3447  155.4274 H   0  0  0  0  0  0  0  0  0  0  0  0  # atno 8008 bound_to 7997
  156.1377  140.1533  156.9000 H   0  0  0  0  0  0  0  0  0  0  0  0  # atno 8009 bound_to 7997
  154.4945  140.0831  156.7647 H   0  0  0  0  0  0  0  0  0  0  0  0  # atno 8010 bound_to 7997
  140.6899  143.2934  151.3485 H   0  0  0  0  0  0  0  0  0  0  0  0  # atno 10167 bound_to 10162
  156.6865  130.9142  151.3063 H   0  0  0  0  0  0  0  0  0  0  0  0  # atno 10718 bound_to 10713
  153.5913  135.3465  155.2912 H   0  0  0  0  0  0  0  0  0  0  0  0  # atno 10763 bound_to 10752
  154.8652  135.4205  154.2513 H   0  0  0  0  0  0  0  0  0  0  0  0  # atno 10764 bound_to 10752
  153.3321  135.7045  153.7010 H   0  0  0  0  0  0  0  0  0  0  0  0  # atno 10765 bound_to 10752
  140.8125  134.2727  157.4935 H   0  0  0  0  0  0  0  0  0  0  0  0  # atno 11005 bound_to 11000
  146.3322  139.8599  142.8858 LP  0  0  0  0  0  0  0  0  0  0  0  0  # atno 17320 bound_to 7965
  145.2840  141.0147  143.3701 LP  0  0  0  0  0  0  0  0  0  0  0  0  # atno 17321 bound_to 7965
  139.6292  144.0753  152.2461 LP  0  0  0  0  0  0  0  0  0  0  0  0  # atno 17342 bound_to 10162
  140.0223  144.6144  150.7556 LP  0  0  0  0  0  0  0  0  0  0  0  0  # atno 17343 bound_to 10162
  157.7025  130.9348  150.0827 LP  0  0  0  0  0  0  0  0  0  0  0  0  # atno 17370 bound_to 10713
  156.1829  130.3651  149.9011 LP  0  0  0  0  0  0  0  0  0  0  0  0  # atno 17371 bound_to 10713
  139.8713  134.9491  156.4016 LP  0  0  0  0  0  0  0  0  0  0  0  0  # atno 17394 bound_to 11000
  140.9183  133.7663  155.9875 LP  0  0  0  0  0  0  0  0  0  0  0  0  # atno 17395 bound_to 11000

$$$$
