AV-unprocessed.smi:1876|AV-procd|sdf|7620|dock5
  -GOLD-   22720 9343D 1   1.00000     0.00000
 Structure written by MMmdl.
 31 32  0  0  0  0  0  0  0  0  1 V2000
  146.9855  142.2793  153.6010 C   0  0  0  0  0  0  0  0  0  0  0  0
  146.7970  140.8009  153.6000 C   0  0  0  0  0  0  0  0  0  0  0  0
  147.0765  139.8267  152.6830 C   0  0  0  0  0  0  0  0  0  0  0  0
  146.6365  138.6416  153.3305 C   0  0  0  0  0  0  0  0  0  0  0  0
  146.7539  137.3780  152.6963 N   0  0  0  0  0  0  0  0  0  0  0  0
  145.8393  136.3937  152.6568 C   0  0  0  0  0  0  0  0  0  0  0  0
  144.7219  136.4441  153.1718 O   0  0  0  0  0  0  0  0  0  0  0  0
  146.2945  135.3310  151.9752 N   0  0  0  0  0  0  0  0  0  0  0  0
  145.5415  134.1028  151.7154 C   0  0  2  0  0  0  0  0  0  0  0  0
  146.4401  133.1616  150.8897 C   0  0  0  0  0  0  0  0  0  0  0  0
  145.6609  131.9135  150.4668 C   0  0  0  0  0  0  0  0  0  0  0  0
  144.4627  132.3046  149.5896 C   0  0  0  0  0  0  0  0  0  0  0  0
  143.7747  133.5097  150.0534 N   0  0  0  0  0  0  0  0  0  0  0  0
  144.2383  134.4111  150.9386 C   0  0  0  0  0  0  0  0  0  0  0  0
  143.6117  135.4451  151.1655 O   0  0  0  0  0  0  0  0  0  0  0  0
  146.1361  138.8714  154.5351 N   0  0  0  0  0  0  0  0  0  0  0  0
  146.2365  140.2563  154.7137 O   0  0  0  0  0  0  0  0  0  0  0  0
  147.4220  142.6177  152.6611 H   0  0  0  0  0  0  0  0  0  0  0  0
  147.6487  142.5841  154.4106 H   0  0  0  0  0  0  0  0  0  0  0  0
  146.0314  142.7898  153.7337 H   0  0  0  0  0  0  0  0  0  0  0  0
  147.5226  139.9465  151.7068 H   0  0  0  0  0  0  0  0  0  0  0  0
  147.6275  137.2057  152.2216 H   0  0  0  0  0  0  0  0  0  0  0  0
  147.2235  135.3814  151.5841 H   0  0  0  0  0  0  0  0  0  0  0  0
  145.2720  133.6121  152.6522 H   0  0  0  0  0  0  0  0  0  0  0  0
  146.8244  133.6724  150.0048 H   0  0  0  0  0  0  0  0  0  0  0  0
  147.3092  132.8677  151.4796 H   0  0  0  0  0  0  0  0  0  0  0  0
  146.3080  131.2181  149.9315 H   0  0  0  0  0  0  0  0  0  0  0  0
  145.3096  131.3888  151.3563 H   0  0  0  0  0  0  0  0  0  0  0  0
  144.8053  132.4963  148.5722 H   0  0  0  0  0  0  0  0  0  0  0  0
  143.7508  131.4810  149.5291 H   0  0  0  0  0  0  0  0  0  0  0  0
  142.8966  133.7222  149.6022 H   0  0  0  0  0  0  0  0  0  0  0  0
  1  2  1  0  0  0  0
  1 18  1  0  0  0  0
  1 19  1  0  0  0  0
  1 20  1  0  0  0  0
  2 17  1  0  0  0  0
  2  3  2  0  0  0  0
  3  4  1  0  0  0  0
  3 21  1  0  0  0  0
  4  5  1  0  0  0  0
  4 16  2  0  0  0  0
  5  6  1  0  0  0  0
  5 22  1  0  0  0  0
  6  7  2  0  0  0  0
  6  8  1  0  0  0  0
  8  9  1  0  0  0  0
  8 23  1  0  0  0  0
  9 14  1  0  0  0  0
  9 10  1  0  0  0  0
  9 24  1  0  0  0  0
 10 11  1  0  0  0  0
 10 25  1  0  0  0  0
 10 26  1  0  0  0  0
 11 12  1  0  0  0  0
 11 27  1  0  0  0  0
 11 28  1  0  0  0  0
 12 13  1  0  0  0  0
 12 29  1  0  0  0  0
 12 30  1  0  0  0  0
 13 14  1  0  0  0  0
 13 31  1  0  0  0  0
 14 15  2  0  0  0  0
 16 17  1  0  0  0  0
M  END
> <s_m_source_file>
AV-unprocessed.smi

> <i_m_source_file_index>
1876

> <i_lp_mmshare_version>
43012

> <i_f3d_flags>
0

> <s_epik_input>
W0NIM11jMVtjSF1jKG5vMSlbTkhdQyg9TylbTkhdW0NAQEhdMltDSDJdW0NIMl1bQ0gyXVtOSF1DMj1P

> <s_epik_cmdline>
J2VwaWtfcHl0aG9uJywgJy1waCcsICc3LjAnLCAnLXRuJywgJzgnLCAnLW1hJywgJzIwMCcsICctbWV0YWxfYmluZGluZycsICctaW1hZScsICc8aW5maWxlLm1hZT4nLCAnLW9tYWUnLCAnPG91dGZpbGUubWFlPic=

> <r_lp_tautomer_probability>
1

> <r_epik_Ionization_Penalty>
2.33177e-05

> <r_epik_Ionization_Penalty_Charging>
0

> <r_epik_Ionization_Penalty_Neutral>
2.33177e-05

> <r_epik_State_Penalty>
-0

> <r_epik_Charging_Adjusted_Penalty>
0

> <i_epik_Tot_Q>
0

> <i_epik_Tot_abs_Q>
0

> <r_epik_Metal_State_Penalty>
-0

> <b_epik_Metal_Only>
0

> <s_lp_Force_Field>
OPLS_2005

> <r_lp_Energy>
8.43972

> <b_lp_Chiralities_Consistent>
1

> <s_lp_Variant>
AV-unprocessed.smi:1876-1

> <Gold.Version>
5.8.1

> <Gold.Id.Protein>
6NUR|6NUR_protein|mol2

> <Gold.PLP.Fitness>
34.6662

> <Gold.PLP.PLP>
-26.8316

> <Gold.PLP.part.hbond>
-3.0000

> <Gold.PLP.part.metal>
0.0000

> <Gold.PLP.part.buried>
-4.1973

> <Gold.PLP.part.nonpolar>
-20.2038

> <Gold.PLP.part.repulsive>
0.5247

> <Gold.PLP.ligand.clash>
0.0000

> <Gold.PLP.ligand.torsion>
0.3549

> <Gold.PLP.Chemscore.Hbond>
2.8480

> <Gold.PLP.Chemscore.CHOScore>
0.0000

> <Gold.PLP.Chemscore.Metal>
0.0000

> <Gold.Chemscore.Hbonds>
donor molecule, donor type, donor heavy atom, donor atom, acceptor molecule, acceptor atom, score
      L1  H     5    22       P1  7948  1.00
      L1  H     8    23       P1  7948  0.86
      L1  H    13    31       P1 10186  1.00

> <Gold.PLP.Chemscore.Internal.Correction>
0.0003

> <Gold.Rescore>
     Score         DG    S(hbond)    S(metal)    S(lipo)     H(rot)  DE(clash)    DE(int)     intcor
     15.30     -18.44       2.90        0.00      49.80       1.00       0.08       3.06       ----

> <Gold.Chemscore.Fitness>
15.2951

> <Gold.Chemscore.DG>
-18.4373

> <Gold.Chemscore.ZeroCoef>
-5.4800

> <Gold.Chemscore.Hbond>
2.9015

> <Gold.Chemscore.Metal>
0.0000

> <Gold.Chemscore.Lipo>
49.7977

> <Gold.Chemscore.Internal_Hbond>
0.0000

> <Gold.Chemscore.DEClash>
0.0814

> <Gold.Chemscore.DEInternal>
3.0608

> <Gold.Chemscore.Rot>
1.0000

> <Gold.Chemscore.Internal.Correction>
   9.000000E+99

> <Gold.Chemscore.Hbonds>
donor molecule, donor type, donor heavy atom, donor atom, acceptor molecule, acceptor atom, score
      L1  H     5    22       P1  7948  0.97
      L1  H     8    23       P1  7948  0.84
      L1  H    13    31       P1 10186  0.93

> <Gold.Chemscore.Hbond.Weighted>
-9.6909

> <Gold.Chemscore.Metal.Weighted>
-0.0000

> <Gold.Chemscore.Lipo.Weighted>
-5.8263

> <Gold.Chemscore.Internal_Hbond.Weighted>
0.0000

> <Gold.Chemscore.DEClash.Weighted>
0.0814

> <Gold.Chemscore.DEInternal.Weighted>
3.0608

> <Gold.Chemscore.Rot.Weighted>
2.5600

> <Gold.Chemscore.Internal.Correction.Weighted>
   9.000000E+99

> <Gold.Protein.RotatedTorsions>
[ 6907 6896 6895 6894 ] final  168.58 input  -60.11 | X-H torsion
[ 7974 7965 7964 7962 ] final  -96.19 input  175.53 | X-H torsion
[ 8008 7997 7996 7995 ] final -102.15 input   59.86 | X-H torsion
[ 10167 10162 10161 10158 ] final  -56.11 input  -65.29 | X-H torsion
[ 10718 10713 10712 10709 ] final  -51.36 input   66.30 | X-H torsion
[ 10763 10752 10751 10750 ] final   84.04 input  -60.55 | X-H torsion
[ 11005 11000 10999 10996 ] final  -10.55 input  -57.11 | X-H torsion

> <Gold.Protein.ActiveResidues>
 VAL166  LYS551  ARG553  GLY616  TRP617  ASP618  TYR619  PRO620  LYS621  CYS622 
 ASP623  PHE694  ASN695  SER759  ASP760  ASP761  ALA762  ILE779  LEU786  VAL792 
 PHE793  MET794  SER795  GLU796  ALA797  LYS798  CYS799  TRP800  GLU811  SER814 

> <Gold.Protein.RotatedAtoms>
  151.8454  133.3430  159.3656 H   0  0  0  0  0  0  0  0  0  0  0  0  # atno 6907 bound_to 6896
  150.7222  134.5351  159.5728 H   0  0  0  0  0  0  0  0  0  0  0  0  # atno 6908 bound_to 6896
  152.2833  134.7805  160.0443 H   0  0  0  0  0  0  0  0  0  0  0  0  # atno 6909 bound_to 6896
  145.3502  140.9475  143.2559 H   0  0  0  0  0  0  0  0  0  0  0  0  # atno 7974 bound_to 7965
  154.8526  140.0430  157.1614 H   0  0  0  0  0  0  0  0  0  0  0  0  # atno 8008 bound_to 7997
  154.8926  140.2988  155.5341 H   0  0  0  0  0  0  0  0  0  0  0  0  # atno 8009 bound_to 7997
  156.2996  140.2390  156.3944 H   0  0  0  0  0  0  0  0  0  0  0  0  # atno 8010 bound_to 7997
  140.6336  143.2471  151.5176 H   0  0  0  0  0  0  0  0  0  0  0  0  # atno 10167 bound_to 10162
  156.1717  130.4149  149.9637 H   0  0  0  0  0  0  0  0  0  0  0  0  # atno 10718 bound_to 10713
  153.1346  135.4669  154.9402 H   0  0  0  0  0  0  0  0  0  0  0  0  # atno 10763 bound_to 10752
  154.7694  135.3154  154.8222 H   0  0  0  0  0  0  0  0  0  0  0  0  # atno 10764 bound_to 10752
  153.8757  135.6899  153.4825 H   0  0  0  0  0  0  0  0  0  0  0  0  # atno 10765 bound_to 10752
  140.7459  133.8632  155.9005 H   0  0  0  0  0  0  0  0  0  0  0  0  # atno 11005 bound_to 11000
  144.8724  139.5020  143.6761 LP  0  0  0  0  0  0  0  0  0  0  0  0  # atno 17320 bound_to 7965
  146.2971  139.7312  142.9118 LP  0  0  0  0  0  0  0  0  0  0  0  0  # atno 17321 bound_to 7965
  139.5548  144.2303  152.1593 LP  0  0  0  0  0  0  0  0  0  0  0  0  # atno 17342 bound_to 10162
  140.1554  144.5076  150.6663 LP  0  0  0  0  0  0  0  0  0  0  0  0  # atno 17343 bound_to 10162
  156.7435  130.9088  151.3633 LP  0  0  0  0  0  0  0  0  0  0  0  0  # atno 17370 bound_to 10713
  157.6807  130.9137  150.0261 LP  0  0  0  0  0  0  0  0  0  0  0  0  # atno 17371 bound_to 10713
  140.9795  134.1424  157.4507 LP  0  0  0  0  0  0  0  0  0  0  0  0  # atno 17394 bound_to 11000
  139.8797  135.0006  156.6018 LP  0  0  0  0  0  0  0  0  0  0  0  0  # atno 17395 bound_to 11000

$$$$
