AV-unprocessed.smi:34|AV-procd|sdf|243|dock4
  -GOLD-   2262015593D 1   1.00000     0.00000
 Structure written by MMmdl.
 54 58  0  0  0  0  0  0  0  0  2 V2000
  141.2116  134.6840  153.8704 O   0  0  0  0  0  0  0  0  0  0  0  0
  141.2920  135.8705  153.5449 C   0  0  0  0  0  0  0  0  0  0  0  0
  142.3073  136.4885  152.8899 N   0  5  0  0  0  0  0  0  0  0  0  0
  143.1715  137.2584  153.5687 C   0  0  0  0  0  0  0  0  0  0  0  0
  142.8246  137.7853  154.7706 N   0  0  0  0  0  0  0  0  0  0  0  0
  143.6909  138.5457  155.4499 C   0  0  0  0  0  0  0  0  0  0  0  0
  144.9384  138.8951  155.1224 N   0  0  0  0  0  0  0  0  0  0  0  0
  145.3029  138.3669  153.9181 C   0  0  0  0  0  0  0  0  0  0  0  0
  144.4812  137.5426  153.0943 C   0  0  0  0  0  0  0  0  0  0  0  0
  145.1564  137.1673  151.9423 N   0  0  0  0  0  0  0  0  0  0  0  0
  146.3308  137.7690  152.1121 C   0  0  0  0  0  0  0  0  0  0  0  0
  146.5028  138.4943  153.2352 N   0  0  0  0  0  0  0  0  0  0  0  0
  147.7267  139.2575  153.6356 C   0  0  2  0  0  0  0  0  0  0  0  0
  148.0651  138.9047  154.9432 O   0  0  0  0  0  0  0  0  0  0  0  0
  148.5074  140.0576  155.6554 C   0  0  1  0  0  0  0  0  0  0  0  0
  150.0126  140.2614  155.4159 C   0  0  0  0  0  0  0  0  0  0  0  0
  150.5072  141.2046  156.3523 O   0  0  0  0  0  0  0  0  0  0  0  0
  151.3475  140.8116  157.3295 C   0  0  0  0  0  0  0  0  0  0  0  0
  151.7312  139.6489  157.4734 O   0  0  0  0  0  0  0  0  0  0  0  0
  151.7621  141.9318  158.2226 C   0  0  0  0  0  0  0  0  0  0  0  0
  151.4978  143.2651  157.8308 C   0  0  0  0  0  0  0  0  0  0  0  0
  151.8775  144.3433  158.6537 C   0  0  0  0  0  0  0  0  0  0  0  0
  152.5247  144.1011  159.8793 C   0  0  0  0  0  0  0  0  0  0  0  0
  152.7929  142.7794  160.2807 C   0  0  0  0  0  0  0  0  0  0  0  0
  152.4151  141.7000  159.4584 C   0  0  0  0  0  0  0  0  0  0  0  0
  147.6491  141.1792  155.0679 C   0  0  2  0  0  0  0  0  0  0  0  0
  146.4625  141.1532  155.6778 F   0  0  0  0  0  0  0  0  0  0  0  0
  147.5300  140.7871  153.6009 C   0  0  2  0  0  0  0  0  0  0  0  0
  146.3272  141.2471  153.0105 O   0  0  0  0  0  0  0  0  0  0  0  0
  140.1266  136.7802  153.8268 C   0  0  0  0  0  0  0  0  0  0  0  0
  140.0661  138.0523  153.2131 C   0  0  0  0  0  0  0  0  0  0  0  0
  138.9712  138.9079  153.4443 C   0  0  0  0  0  0  0  0  0  0  0  0
  137.9197  138.4963  154.2844 C   0  0  0  0  0  0  0  0  0  0  0  0
  137.9616  137.2262  154.8894 C   0  0  0  0  0  0  0  0  0  0  0  0
  139.0564  136.3703  154.6592 C   0  0  0  0  0  0  0  0  0  0  0  0
  143.3327  138.9285  156.3940 H   0  0  0  0  0  0  0  0  0  0  0  0
  147.1127  137.6801  151.3724 H   0  0  0  0  0  0  0  0  0  0  0  0
  148.4983  138.9184  152.9430 H   0  0  0  0  0  0  0  0  0  0  0  0
  148.3186  139.9430  156.7238 H   0  0  0  0  0  0  0  0  0  0  0  0
  150.5488  139.3148  155.4963 H   0  0  0  0  0  0  0  0  0  0  0  0
  150.1827  140.6494  154.4108 H   0  0  0  0  0  0  0  0  0  0  0  0
  151.0021  143.4756  156.8940 H   0  0  0  0  0  0  0  0  0  0  0  0
  151.6715  145.3570  158.3435 H   0  0  0  0  0  0  0  0  0  0  0  0
  152.8150  144.9278  160.5107 H   0  0  0  0  0  0  0  0  0  0  0  0
  153.2889  142.5920  161.2216 H   0  0  0  0  0  0  0  0  0  0  0  0
  152.6355  140.6982  159.7969 H   0  0  0  0  0  0  0  0  0  0  0  0
  148.0667  142.1752  155.2179 H   0  0  0  0  0  0  0  0  0  0  0  0
  148.3694  141.2083  153.0462 H   0  0  0  0  0  0  0  0  0  0  0  0
  145.6798  140.5614  153.0687 H   0  0  0  0  0  0  0  0  0  0  0  0
  140.8643  138.3823  152.5639 H   0  0  0  0  0  0  0  0  0  0  0  0
  138.9384  139.8799  152.9750 H   0  0  0  0  0  0  0  0  0  0  0  0
  137.0803  139.1521  154.4610 H   0  0  0  0  0  0  0  0  0  0  0  0
  137.1522  136.9055  155.5285 H   0  0  0  0  0  0  0  0  0  0  0  0
  139.0640  135.3952  155.1248 H   0  0  0  0  0  0  0  0  0  0  0  0
  1  2  2  0  0  0  0
  2  3  1  0  0  0  0
  2 30  1  0  0  0  0
  3  4  1  0  0  0  0
  4  9  1  0  0  0  0
  4  5  2  0  0  0  0
  5  6  1  0  0  0  0
  6  7  2  0  0  0  0
  6 36  1  0  0  0  0
  7  8  1  0  0  0  0
  8 12  1  0  0  0  0
  8  9  2  0  0  0  0
  9 10  1  0  0  0  0
 10 11  2  0  0  0  0
 11 12  1  0  0  0  0
 11 37  1  0  0  0  0
 12 13  1  0  0  0  0
 13 28  1  0  0  0  0
 13 14  1  0  0  0  0
 13 38  1  0  0  0  0
 14 15  1  0  0  0  0
 15 16  1  0  0  0  0
 15 26  1  0  0  0  0
 15 39  1  0  0  0  0
 16 17  1  0  0  0  0
 16 40  1  0  0  0  0
 16 41  1  0  0  0  0
 17 18  1  0  0  0  0
 18 19  2  0  0  0  0
 18 20  1  0  0  0  0
 20 25  1  0  0  0  0
 20 21  2  0  0  0  0
 21 22  1  0  0  0  0
 21 42  1  0  0  0  0
 22 23  2  0  0  0  0
 22 43  1  0  0  0  0
 23 24  1  0  0  0  0
 23 44  1  0  0  0  0
 24 25  2  0  0  0  0
 24 45  1  0  0  0  0
 25 46  1  0  0  0  0
 26 27  1  0  0  0  0
 26 28  1  0  0  0  0
 26 47  1  0  0  0  0
 28 29  1  0  0  0  0
 28 48  1  0  0  0  0
 29 49  1  0  0  0  0
 30 35  1  0  0  0  0
 30 31  2  0  0  0  0
 31 32  1  0  0  0  0
 31 50  1  0  0  0  0
 32 33  2  0  0  0  0
 32 51  1  0  0  0  0
 33 34  1  0  0  0  0
 33 52  1  0  0  0  0
 34 35  2  0  0  0  0
 34 53  1  0  0  0  0
 35 54  1  0  0  0  0
M  CHG  1   3  -1
M  END
> <s_m_source_file>
AV-unprocessed.smi

> <i_m_source_file_index>
34

> <i_lp_mmshare_version>
43012

> <i_f3d_flags>
0

> <s_epik_input>
W2NIXTFbY0hdW2NIXVtjSF1bY0hdYzFDKD1PKVtOSF1jKG5bY0hdbjIpYyhjMjMpbltjSF1uM1tDQEBIXTRPW0NASF0oW0NAQEhdKEYpW0NASF00W09IXSlbQ0gyXU9DKD1PKWM1W2NIXVtjSF1bY0hdW2NIXVtjSF01

> <s_epik_cmdline>
J2VwaWtfcHl0aG9uJywgJy1waCcsICc3LjAnLCAnLXRuJywgJzgnLCAnLW1hJywgJzIwMCcsICctbWV0YWxfYmluZGluZycsICctaW1hZScsICc8aW5maWxlLm1hZT4nLCAnLW9tYWUnLCAnPG91dGZpbGUubWFlPic=

> <r_lp_tautomer_probability>
1

> <r_epik_Ionization_Penalty>
4.33227

> <r_epik_Ionization_Penalty_Charging>
3.41027

> <r_epik_Ionization_Penalty_Neutral>
0.922001

> <r_epik_State_Penalty>
3.41358

> <r_epik_Charging_Adjusted_Penalty>
6.82385

> <i_epik_Tot_Q>
-1

> <i_epik_Tot_abs_Q>
1

> <r_epik_Metal_State_Penalty>
0.496292

> <b_epik_Metal_Only>
1

> <s_epik_Chemistry_Notes>
This compound has an ester and may undergo hydrolysis at high or low pH. This compound contains an acetal/aminal-like group ( X-CH(R)-Y where X, Y are N, S, or O) that may be acid/base labile, releasing an aldehyde.

> <s_lp_Force_Field>
OPLS_2005

> <r_lp_Energy>
51.1701

> <b_lp_Chiralities_Consistent>
1

> <s_lp_Variant>
AV-unprocessed.smi:34-29

> <Gold.Version>
5.8.1

> <Gold.Id.Protein>
6NUR|6NUR_protein|mol2

> <Gold.PLP.Fitness>
60.1039

> <Gold.PLP.PLP>
-55.0519

> <Gold.PLP.part.hbond>
-2.3897

> <Gold.PLP.part.metal>
0.0000

> <Gold.PLP.part.buried>
-1.8646

> <Gold.PLP.part.nonpolar>
-51.8847

> <Gold.PLP.part.repulsive>
1.1441

> <Gold.PLP.ligand.clash>
0.0000

> <Gold.PLP.ligand.torsion>
1.6151

> <Gold.PLP.Chemscore.Hbond>
1.5374

> <Gold.PLP.Chemscore.CHOScore>
0.9979

> <Gold.PLP.Chemscore.Metal>
0.0000

> <Gold.Chemscore.Hbonds>
donor molecule, donor type, donor heavy atom, donor atom, acceptor molecule, acceptor atom, score
      L1  H    29    49       P1 10175  0.55
      P1  H 11000 11005       L1     1  0.86
      L1  C    11    37       P1  7948  0.78

> <Gold.PLP.Chemscore.Internal.Correction>
0.6763

> <Gold.Rescore>
     Score         DG    S(hbond)    S(metal)    S(lipo)     H(rot)  DE(clash)    DE(int)     intcor
     15.90     -19.68       1.57        0.00     135.54       2.69       0.45       3.33       ----

> <Gold.Chemscore.Fitness>
15.8981

> <Gold.Chemscore.DG>
-19.6789

> <Gold.Chemscore.ZeroCoef>
-5.4800

> <Gold.Chemscore.Hbond>
1.5683

> <Gold.Chemscore.Metal>
0.0000

> <Gold.Chemscore.Lipo>
135.5413

> <Gold.Chemscore.Internal_Hbond>
0.0000

> <Gold.Chemscore.DEClash>
0.4472

> <Gold.Chemscore.DEInternal>
3.3336

> <Gold.Chemscore.Rot>
2.6944

> <Gold.Chemscore.Internal.Correction>
   9.000000E+99

> <Gold.Chemscore.Hbonds>
donor molecule, donor type, donor heavy atom, donor atom, acceptor molecule, acceptor atom, score
      L1  H    29    49       P1 10175  0.44
      P1  H 11000 11005       L1     1  0.75

> <Gold.Chemscore.Hbond.Weighted>
-5.2381

> <Gold.Chemscore.Metal.Weighted>
-0.0000

> <Gold.Chemscore.Lipo.Weighted>
-15.8583

> <Gold.Chemscore.Internal_Hbond.Weighted>
0.0000

> <Gold.Chemscore.DEClash.Weighted>
0.4472

> <Gold.Chemscore.DEInternal.Weighted>
3.3336

> <Gold.Chemscore.Rot.Weighted>
6.8975

> <Gold.Chemscore.Internal.Correction.Weighted>
   9.000000E+99

> <Gold.Protein.RotatedTorsions>
[ 6907 6896 6895 6894 ] final   41.57 input  -60.11 | X-H torsion
[ 7974 7965 7964 7962 ] final   59.38 input  175.53 | X-H torsion
[ 8008 7997 7996 7995 ] final  -63.41 input   59.86 | X-H torsion
[ 10167 10162 10161 10158 ] final   64.93 input  -65.29 | X-H torsion
[ 10718 10713 10712 10709 ] final -176.10 input   66.30 | X-H torsion
[ 10763 10752 10751 10750 ] final  -63.10 input  -60.55 | X-H torsion
[ 11005 11000 10999 10996 ] final   30.81 input  -57.11 | X-H torsion

> <Gold.Protein.ActiveResidues>
 VAL166  LYS551  ARG553  GLY616  TRP617  ASP618  TYR619  PRO620  LYS621  CYS622 
 ASP623  PHE694  ASN695  SER759  ASP760  ASP761  ALA762  ILE779  LEU786  VAL792 
 PHE793  MET794  SER795  GLU796  ALA797  LYS798  CYS799  TRP800  GLU811  SER814 

> <Gold.Protein.RotatedAtoms>
  152.1969  134.8622  160.0511 H   0  0  0  0  0  0  0  0  0  0  0  0  # atno 6907 bound_to 6896
  151.9490  133.3655  159.4001 H   0  0  0  0  0  0  0  0  0  0  0  0  # atno 6908 bound_to 6896
  150.6946  134.4284  159.5281 H   0  0  0  0  0  0  0  0  0  0  0  0  # atno 6909 bound_to 6896
  145.9078  139.3631  143.0553 H   0  0  0  0  0  0  0  0  0  0  0  0  # atno 7974 bound_to 7965
  154.4553  140.0975  156.6738 H   0  0  0  0  0  0  0  0  0  0  0  0  # atno 8008 bound_to 7997
  155.5158  140.3477  155.4379 H   0  0  0  0  0  0  0  0  0  0  0  0  # atno 8009 bound_to 7997
  156.0764  140.1362  156.9755 H   0  0  0  0  0  0  0  0  0  0  0  0  # atno 8010 bound_to 7997
  140.1168  144.4768  150.6944 H   0  0  0  0  0  0  0  0  0  0  0  0  # atno 10167 bound_to 10162
  156.8096  130.9581  151.3116 H   0  0  0  0  0  0  0  0  0  0  0  0  # atno 10718 bound_to 10713
  154.3100  135.6217  153.5461 H   0  0  0  0  0  0  0  0  0  0  0  0  # atno 10763 bound_to 10752
  152.9830  135.5699  154.5188 H   0  0  0  0  0  0  0  0  0  0  0  0  # atno 10764 bound_to 10752
  154.4836  135.2864  155.1528 H   0  0  0  0  0  0  0  0  0  0  0  0  # atno 10765 bound_to 10752
  140.2905  134.2870  155.7777 H   0  0  0  0  0  0  0  0  0  0  0  0  # atno 11005 bound_to 11000
  145.8709  140.9420  143.0651 LP  0  0  0  0  0  0  0  0  0  0  0  0  # atno 17320 bound_to 7965
  144.6741  140.0654  143.7475 LP  0  0  0  0  0  0  0  0  0  0  0  0  # atno 17321 bound_to 7965
  140.6895  143.2368  151.5171 LP  0  0  0  0  0  0  0  0  0  0  0  0  # atno 17342 bound_to 10162
  139.5590  144.2204  152.1660 LP  0  0  0  0  0  0  0  0  0  0  0  0  # atno 17343 bound_to 10162
  157.6512  130.8886  149.9638 LP  0  0  0  0  0  0  0  0  0  0  0  0  # atno 17370 bound_to 10713
  156.1052  130.3653  150.0146 LP  0  0  0  0  0  0  0  0  0  0  0  0  # atno 17371 bound_to 10713
  141.2147  133.7582  156.9617 LP  0  0  0  0  0  0  0  0  0  0  0  0  # atno 17394 bound_to 11000
  140.1200  134.9423  157.2189 LP  0  0  0  0  0  0  0  0  0  0  0  0  # atno 17395 bound_to 11000

$$$$
