AV-unprocessed.smi:1897|AV-procd|sdf|7688|dock6
  -GOLD-   22720 9423D 1   1.00000     0.00000
 Structure written by MMmdl.
 39 41  0  0  0  0  0  0  0  0  2 V2000
  150.9931  141.0381  156.0547 C   0  0  0  0  0  0  0  0  0  0  0  0
  149.8748  140.3070  155.3945 C   0  0  0  0  0  0  0  0  0  0  0  0
  148.5882  140.6149  155.5979 N   0  0  0  0  0  0  0  0  0  0  0  0
  147.7318  139.7914  154.8825 N   0  0  0  0  0  0  0  0  0  0  0  0
  148.3980  138.8901  154.1459 C   0  0  0  0  0  0  0  0  0  0  0  0
  147.7761  137.8998  153.3311 N   0  0  0  0  0  0  0  0  0  0  0  0
  146.4752  137.6652  153.0588 C   0  0  0  0  0  0  0  0  0  0  0  0
  145.5872  138.3646  153.5427 O   0  0  0  0  0  0  0  0  0  0  0  0
  146.2220  136.6330  152.2368 N   0  0  0  0  0  0  0  0  0  0  0  0
  144.9057  136.2265  151.7506 C   0  0  2  0  0  0  0  0  0  0  0  0
  143.8536  136.1536  152.8746 C   0  0  0  0  0  0  0  0  0  0  0  0
  143.0768  134.8612  152.6017 C   0  0  0  0  0  0  0  0  0  0  0  0
  144.0929  133.9856  152.0067 N   0  3  1  0  0  0  0  0  0  0  0  0
  143.6533  132.7232  151.3784 C   0  0  0  0  0  0  0  0  0  0  0  0
  144.9052  131.9078  150.9905 C   0  0  0  0  0  0  0  0  0  0  0  0
  145.8993  132.7306  150.1400 C   0  0  0  0  0  0  0  0  0  0  0  0
  146.2197  134.0928  150.7922 C   0  0  0  0  0  0  0  0  0  0  0  0
  144.8998  134.8226  151.1020 C   0  0  2  0  0  0  0  0  0  0  0  0
  150.1460  138.9610  154.2943 S   0  0  0  0  0  0  0  0  0  0  0  0
  150.6930  142.0583  156.2963 H   0  0  0  0  0  0  0  0  0  0  0  0
  151.8588  141.0781  155.3933 H   0  0  0  0  0  0  0  0  0  0  0  0
  151.2778  140.5283  156.9754 H   0  0  0  0  0  0  0  0  0  0  0  0
  148.4123  137.2069  152.9636 H   0  0  0  0  0  0  0  0  0  0  0  0
  147.0140  136.1080  151.8937 H   0  0  0  0  0  0  0  0  0  0  0  0
  144.5567  136.9487  151.0096 H   0  0  0  0  0  0  0  0  0  0  0  0
  144.3425  136.0793  153.8475 H   0  0  0  0  0  0  0  0  0  0  0  0
  143.2055  137.0303  152.9000 H   0  0  0  0  0  0  0  0  0  0  0  0
  142.6438  134.4303  153.5050 H   0  0  0  0  0  0  0  0  0  0  0  0
  142.2755  135.0378  151.8823 H   0  0  0  0  0  0  0  0  0  0  0  0
  143.0377  132.1579  152.0792 H   0  0  0  0  0  0  0  0  0  0  0  0
  143.0384  132.9340  150.5022 H   0  0  0  0  0  0  0  0  0  0  0  0
  145.4082  131.5730  151.8989 H   0  0  0  0  0  0  0  0  0  0  0  0
  144.6119  131.0051  150.4536 H   0  0  0  0  0  0  0  0  0  0  0  0
  146.8178  132.1640  149.9844 H   0  0  0  0  0  0  0  0  0  0  0  0
  145.4713  132.8977  149.1506 H   0  0  0  0  0  0  0  0  0  0  0  0
  146.7963  133.9419  151.7061 H   0  0  0  0  0  0  0  0  0  0  0  0
  146.8380  134.6883  150.1199 H   0  0  0  0  0  0  0  0  0  0  0  0
  144.3453  134.9207  150.1659 H   0  0  0  0  0  0  0  0  0  0  0  0
  144.7054  133.7292  152.7677 H   0  0  0  0  0  0  0  0  0  0  0  0
  1  2  1  0  0  0  0
  1 20  1  0  0  0  0
  1 21  1  0  0  0  0
  1 22  1  0  0  0  0
  2 19  1  0  0  0  0
  2  3  2  0  0  0  0
  3  4  1  0  0  0  0
  4  5  2  0  0  0  0
  5  6  1  0  0  0  0
  5 19  1  0  0  0  0
  6  7  1  0  0  0  0
  6 23  1  0  0  0  0
  7  8  2  0  0  0  0
  7  9  1  0  0  0  0
  9 10  1  0  0  0  0
  9 24  1  0  0  0  0
 10 18  1  0  0  0  0
 10 11  1  0  0  0  0
 10 25  1  0  0  0  0
 11 12  1  0  0  0  0
 11 26  1  0  0  0  0
 11 27  1  0  0  0  0
 12 13  1  0  0  0  0
 12 28  1  0  0  0  0
 12 29  1  0  0  0  0
 13 18  1  0  0  0  0
 13 14  1  0  0  0  0
 13 39  1  0  0  0  0
 14 15  1  0  0  0  0
 14 30  1  0  0  0  0
 14 31  1  0  0  0  0
 15 16  1  0  0  0  0
 15 32  1  0  0  0  0
 15 33  1  0  0  0  0
 16 17  1  0  0  0  0
 16 34  1  0  0  0  0
 16 35  1  0  0  0  0
 17 18  1  0  0  0  0
 17 36  1  0  0  0  0
 17 37  1  0  0  0  0
 18 38  1  0  0  0  0
M  CHG  1  13   1
M  END
> <s_m_source_file>
AV-unprocessed.smi

> <i_m_source_file_index>
1897

> <i_lp_mmshare_version>
43012

> <i_f3d_flags>
0

> <s_epik_input>
W0NIM11jMW5uYyhzMSlbTkhdQyg9TylbTkhdW0NASF0oW0NIMl1bQ0gyXTIpW0NAQEhdKE4yMylbQ0gyXVtDSDJdW0NIMl1bQ0gyXTM=

> <s_epik_cmdline>
J2VwaWtfcHl0aG9uJywgJy1waCcsICc3LjAnLCAnLXRuJywgJzgnLCAnLW1hJywgJzIwMCcsICctbWV0YWxfYmluZGluZycsICctaW1hZScsICc8aW5maWxlLm1hZT4nLCAnLW9tYWUnLCAnPG91dGZpbGUubWFlPic=

> <r_lp_tautomer_probability>
1

> <r_epik_Ionization_Penalty>
0.00228891

> <r_epik_Ionization_Penalty_Charging>
0.00107044

> <r_epik_Ionization_Penalty_Neutral>
0.00121847

> <r_epik_State_Penalty>
-0

> <r_epik_Charging_Adjusted_Penalty>
0.00107044

> <i_epik_Tot_Q>
1

> <i_epik_Tot_abs_Q>
1

> <r_epik_Metal_State_Penalty>
0.304057

> <b_epik_Metal_Only>
0

> <s_lp_Force_Field>
OPLS_2005

> <r_lp_Energy>
42.5593

> <b_lp_Chiralities_Consistent>
1

> <s_lp_Variant>
AV-unprocessed.smi:1897-5

> <Gold.Version>
5.8.1

> <Gold.Id.Protein>
6NUR|6NUR_protein|mol2

> <Gold.PLP.Fitness>
36.2889

> <Gold.PLP.PLP>
-31.1997

> <Gold.PLP.part.hbond>
-1.8602

> <Gold.PLP.part.metal>
0.0000

> <Gold.PLP.part.buried>
-4.3902

> <Gold.PLP.part.nonpolar>
-25.8665

> <Gold.PLP.part.repulsive>
1.2110

> <Gold.PLP.ligand.clash>
0.0000

> <Gold.PLP.ligand.torsion>
0.1559

> <Gold.PLP.Chemscore.Hbond>
1.8000

> <Gold.PLP.Chemscore.CHOScore>
0.0000

> <Gold.PLP.Chemscore.Metal>
0.0000

> <Gold.Chemscore.Hbonds>
donor molecule, donor type, donor heavy atom, donor atom, acceptor molecule, acceptor atom, score
      L1  H     6    23       P1  7948  1.00
      L1  H     9    24       P1  7948  0.80

> <Gold.PLP.Chemscore.Internal.Correction>
0.0011

> <Gold.Rescore>
     Score         DG    S(hbond)    S(metal)    S(lipo)     H(rot)  DE(clash)    DE(int)     intcor
     14.53     -17.61       1.90        0.00      71.30       1.00       0.15       2.92       ----

> <Gold.Chemscore.Fitness>
14.5286

> <Gold.Chemscore.DG>
-17.6064

> <Gold.Chemscore.ZeroCoef>
-5.4800

> <Gold.Chemscore.Hbond>
1.8996

> <Gold.Chemscore.Metal>
0.0000

> <Gold.Chemscore.Lipo>
71.2976

> <Gold.Chemscore.Internal_Hbond>
0.0000

> <Gold.Chemscore.DEClash>
0.1545

> <Gold.Chemscore.DEInternal>
2.9233

> <Gold.Chemscore.Rot>
1.0000

> <Gold.Chemscore.Internal.Correction>
   9.000000E+99

> <Gold.Chemscore.Hbonds>
donor molecule, donor type, donor heavy atom, donor atom, acceptor molecule, acceptor atom, score
      L1  H     6    23       P1  7948  0.94
      L1  H     9    24       P1  7948  0.79

> <Gold.Chemscore.Hbond.Weighted>
-6.3446

> <Gold.Chemscore.Metal.Weighted>
-0.0000

> <Gold.Chemscore.Lipo.Weighted>
-8.3418

> <Gold.Chemscore.Internal_Hbond.Weighted>
0.0000

> <Gold.Chemscore.DEClash.Weighted>
0.1545

> <Gold.Chemscore.DEInternal.Weighted>
2.9233

> <Gold.Chemscore.Rot.Weighted>
2.5600

> <Gold.Chemscore.Internal.Correction.Weighted>
   9.000000E+99

> <Gold.Protein.RotatedTorsions>
[ 6907 6896 6895 6894 ] final  -58.00 input  -60.11 | X-H torsion
[ 7974 7965 7964 7962 ] final   61.83 input  175.53 | X-H torsion
[ 8008 7997 7996 7995 ] final    3.41 input   59.86 | X-H torsion
[ 10167 10162 10161 10158 ] final  -16.25 input  -65.29 | X-H torsion
[ 10718 10713 10712 10709 ] final   17.61 input   66.30 | X-H torsion
[ 10763 10752 10751 10750 ] final    5.40 input  -60.55 | X-H torsion
[ 11005 11000 10999 10996 ] final   45.02 input  -57.11 | X-H torsion

> <Gold.Protein.ActiveResidues>
 VAL166  LYS551  ARG553  GLY616  TRP617  ASP618  TYR619  PRO620  LYS621  CYS622 
 ASP623  PHE694  ASN695  SER759  ASP760  ASP761  ALA762  ILE779  LEU786  VAL792 
 PHE793  MET794  SER795  GLU796  ALA797  LYS798  CYS799  TRP800  GLU811  SER814 

> <Gold.Protein.RotatedAtoms>
  150.8041  134.7154  159.6627 H   0  0  0  0  0  0  0  0  0  0  0  0  # atno 6907 bound_to 6896
  152.4160  134.6038  160.0017 H   0  0  0  0  0  0  0  0  0  0  0  0  # atno 6908 bound_to 6896
  151.6267  133.3298  159.3136 H   0  0  0  0  0  0  0  0  0  0  0  0  # atno 6909 bound_to 6896
  145.8803  139.3439  143.0710 H   0  0  0  0  0  0  0  0  0  0  0  0  # atno 7974 bound_to 7965
  154.7033  140.2677  155.6698 H   0  0  0  0  0  0  0  0  0  0  0  0  # atno 8008 bound_to 7997
  156.2772  140.2768  156.1575 H   0  0  0  0  0  0  0  0  0  0  0  0  # atno 8009 bound_to 7997
  155.0734  140.0372  157.2606 H   0  0  0  0  0  0  0  0  0  0  0  0  # atno 8010 bound_to 7997
  140.7231  143.5135  150.9721 H   0  0  0  0  0  0  0  0  0  0  0  0  # atno 10167 bound_to 10162
  157.0846  130.6402  149.5834 H   0  0  0  0  0  0  0  0  0  0  0  0  # atno 10718 bound_to 10713
  153.2599  135.6922  153.7590 H   0  0  0  0  0  0  0  0  0  0  0  0  # atno 10763 bound_to 10752
  153.6653  135.3353  155.3139 H   0  0  0  0  0  0  0  0  0  0  0  0  # atno 10764 bound_to 10752
  154.8426  135.4487  154.1585 H   0  0  0  0  0  0  0  0  0  0  0  0  # atno 10765 bound_to 10752
  140.1498  134.4476  155.8390 H   0  0  0  0  0  0  0  0  0  0  0  0  # atno 11005 bound_to 11000
  145.9031  140.9230  143.0492 LP  0  0  0  0  0  0  0  0  0  0  0  0  # atno 17320 bound_to 7965
  144.6727  140.1059  143.7458 LP  0  0  0  0  0  0  0  0  0  0  0  0  # atno 17321 bound_to 7965
  139.8850  143.7025  152.3152 LP  0  0  0  0  0  0  0  0  0  0  0  0  # atno 17342 bound_to 10162
  139.7320  144.7580  151.0786 LP  0  0  0  0  0  0  0  0  0  0  0  0  # atno 17343 bound_to 10162
  155.9914  130.4969  150.7299 LP  0  0  0  0  0  0  0  0  0  0  0  0  # atno 17370 bound_to 10713
  157.4772  131.0899  151.0577 LP  0  0  0  0  0  0  0  0  0  0  0  0  # atno 17371 bound_to 10713
  141.2197  133.6867  156.7401 LP  0  0  0  0  0  0  0  0  0  0  0  0  # atno 17394 bound_to 11000
  140.2618  134.8460  157.3766 LP  0  0  0  0  0  0  0  0  0  0  0  0  # atno 17395 bound_to 11000

$$$$
