AV-unprocessed.smi:3290|AV-procd|sdf|12617|dock7
  -GOLD-   2272018553D 1   1.00000     0.00000
 Structure written by MMmdl.
 43 44  0  0  0  0  0  0  0  0  2 V2000
  149.2774  141.3715  154.6079 C   0  0  0  0  0  0  0  0  0  0  0  0
  149.2751  140.0977  155.4777 C   0  0  2  0  0  0  0  0  0  0  0  0
  150.5526  139.9938  156.3378 C   0  0  0  0  0  0  0  0  0  0  0  0
  151.7919  139.6281  155.5034 C   0  0  0  0  0  0  0  0  0  0  0  0
  151.5634  138.3364  154.7051 C   0  0  0  0  0  0  0  0  0  0  0  0
  150.2993  138.4276  153.8358 C   0  0  0  0  0  0  0  0  0  0  0  0
  149.0545  138.7838  154.6809 C   0  0  2  0  0  0  0  0  0  0  0  0
  147.7617  138.8077  153.8409 C   0  0  0  0  0  0  0  0  0  0  0  0
  147.1847  137.4570  153.6957 N   0  3  0  0  0  0  0  0  0  0  0  0
  145.8135  137.4415  153.1478 C   0  0  0  0  0  0  0  0  0  0  0  0
  145.8145  137.1759  151.6315 C   0  0  1  0  0  0  0  0  0  0  0  0
  147.0556  137.6015  151.1091 O   0  0  0  0  0  0  0  0  0  0  0  0
  145.5275  135.7172  151.3066 C   0  0  0  0  0  0  0  0  0  0  0  0
  144.4419  135.3562  150.4798 C   0  0  0  0  0  0  0  0  0  0  0  0
  144.2337  133.9912  150.1985 C   0  0  0  0  0  0  0  0  0  0  0  0
  145.0238  133.0073  150.6784 N   0  0  0  0  0  0  0  0  0  0  0  0
  146.0603  133.3579  151.4692 C   0  0  0  0  0  0  0  0  0  0  0  0
  146.3559  134.6927  151.8111 C   0  0  0  0  0  0  0  0  0  0  0  0
  150.0474  141.3437  153.8376 H   0  0  0  0  0  0  0  0  0  0  0  0
  149.4583  142.2572  155.2175 H   0  0  0  0  0  0  0  0  0  0  0  0
  148.3185  141.5201  154.1121 H   0  0  0  0  0  0  0  0  0  0  0  0
  148.4387  140.2041  156.1699 H   0  0  0  0  0  0  0  0  0  0  0  0
  150.7267  140.9284  156.8727 H   0  0  0  0  0  0  0  0  0  0  0  0
  150.4062  139.2329  157.1056 H   0  0  0  0  0  0  0  0  0  0  0  0
  152.0367  140.4432  154.8220 H   0  0  0  0  0  0  0  0  0  0  0  0
  152.6558  139.5094  156.1583 H   0  0  0  0  0  0  0  0  0  0  0  0
  152.4316  138.1279  154.0791 H   0  0  0  0  0  0  0  0  0  0  0  0
  151.4717  137.4952  155.3934 H   0  0  0  0  0  0  0  0  0  0  0  0
  150.4470  139.1679  153.0492 H   0  0  0  0  0  0  0  0  0  0  0  0
  150.1524  137.4741  153.3280 H   0  0  0  0  0  0  0  0  0  0  0  0
  148.9333  137.9927  155.4233 H   0  0  0  0  0  0  0  0  0  0  0  0
  147.0200  139.4500  154.3180 H   0  0  0  0  0  0  0  0  0  0  0  0
  147.9564  139.2208  152.8504 H   0  0  0  0  0  0  0  0  0  0  0  0
  147.7793  136.9255  153.0755 H   0  0  0  0  0  0  0  0  0  0  0  0
  145.2419  136.6690  153.6644 H   0  0  0  0  0  0  0  0  0  0  0  0
  145.3277  138.3949  153.3617 H   0  0  0  0  0  0  0  0  0  0  0  0
  145.0491  137.7964  151.1628 H   0  0  0  0  0  0  0  0  0  0  0  0
  147.7467  137.2395  151.6429 H   0  0  0  0  0  0  0  0  0  0  0  0
  143.7815  136.1049  150.0673 H   0  0  0  0  0  0  0  0  0  0  0  0
  143.4126  133.6824  149.5685 H   0  0  0  0  0  0  0  0  0  0  0  0
  146.6752  132.5504  151.8382 H   0  0  0  0  0  0  0  0  0  0  0  0
  147.2000  134.9181  152.4463 H   0  0  0  0  0  0  0  0  0  0  0  0
  147.1776  137.0072  154.6001 H   0  0  0  0  0  0  0  0  0  0  0  0
  1  2  1  0  0  0  0
  1 19  1  0  0  0  0
  1 20  1  0  0  0  0
  1 21  1  0  0  0  0
  2  7  1  0  0  0  0
  2  3  1  0  0  0  0
  2 22  1  0  0  0  0
  3  4  1  0  0  0  0
  3 23  1  0  0  0  0
  3 24  1  0  0  0  0
  4  5  1  0  0  0  0
  4 25  1  0  0  0  0
  4 26  1  0  0  0  0
  5  6  1  0  0  0  0
  5 27  1  0  0  0  0
  5 28  1  0  0  0  0
  6  7  1  0  0  0  0
  6 29  1  0  0  0  0
  6 30  1  0  0  0  0
  7  8  1  0  0  0  0
  7 31  1  0  0  0  0
  8  9  1  0  0  0  0
  8 32  1  0  0  0  0
  8 33  1  0  0  0  0
  9 10  1  0  0  0  0
  9 34  1  0  0  0  0
  9 43  1  0  0  0  0
 10 11  1  0  0  0  0
 10 35  1  0  0  0  0
 10 36  1  0  0  0  0
 11 12  1  0  0  0  0
 11 13  1  0  0  0  0
 11 37  1  0  0  0  0
 12 38  1  0  0  0  0
 13 18  1  0  0  0  0
 13 14  2  0  0  0  0
 14 15  1  0  0  0  0
 14 39  1  0  0  0  0
 15 16  2  0  0  0  0
 15 40  1  0  0  0  0
 16 17  1  0  0  0  0
 17 18  2  0  0  0  0
 17 41  1  0  0  0  0
 18 42  1  0  0  0  0
M  CHG  1   9   1
M  END
> <s_m_source_file>
AV-unprocessed.smi

> <i_m_source_file_index>
3290

> <i_lp_mmshare_version>
43012

> <i_f3d_flags>
0

> <s_epik_input>
W0NIM11bQ0BASF0xW0NIMl1bQ0gyXVtDSDJdW0NIMl1bQ0BIXTFbQ0gyXVtOSF1bQ0gyXVtDQEhdKFtPSF0pYzJbY0hdW2NIXW5bY0hdW2NIXTI=

> <s_epik_cmdline>
J2VwaWtfcHl0aG9uJywgJy1waCcsICc3LjAnLCAnLXRuJywgJzgnLCAnLW1hJywgJzIwMCcsICctbWV0YWxfYmluZGluZycsICctaW1hZScsICc8aW5maWxlLm1hZT4nLCAnLW9tYWUnLCAnPG91dGZpbGUubWFlPic=

> <r_lp_tautomer_probability>
1

> <r_epik_Ionization_Penalty>
0.00420552

> <r_epik_Ionization_Penalty_Charging>
0.00207255

> <r_epik_Ionization_Penalty_Neutral>
0.00213297

> <r_epik_State_Penalty>
-0

> <r_epik_Charging_Adjusted_Penalty>
0.00207255

> <i_epik_Tot_Q>
1

> <i_epik_Tot_abs_Q>
1

> <r_epik_Metal_State_Penalty>
-0

> <b_epik_Metal_Only>
0

> <s_lp_Force_Field>
OPLS_2005

> <r_lp_Energy>
19.3175

> <b_lp_Chiralities_Consistent>
1

> <s_lp_Variant>
AV-unprocessed.smi:3290-7

> <Gold.Version>
5.8.1

> <Gold.Id.Protein>
6NUR|6NUR_protein|mol2

> <Gold.PLP.Fitness>
43.4227

> <Gold.PLP.PLP>
-32.1711

> <Gold.PLP.part.hbond>
-2.5485

> <Gold.PLP.part.metal>
0.0000

> <Gold.PLP.part.buried>
1.2410

> <Gold.PLP.part.nonpolar>
-31.3881

> <Gold.PLP.part.repulsive>
0.1254

> <Gold.PLP.ligand.clash>
0.0000

> <Gold.PLP.ligand.torsion>
1.1311

> <Gold.PLP.Chemscore.Hbond>
3.4920

> <Gold.PLP.Chemscore.CHOScore>
1.0000

> <Gold.PLP.Chemscore.Metal>
0.0000

> <Gold.Chemscore.Hbonds>
donor molecule, donor type, donor heavy atom, donor atom, acceptor molecule, acceptor atom, score
      L1  H     9    34       P1  7948  2.00
      L1  H    12    38       P1  7948  0.99
      P1  H  7954  7966       L1    12  0.45
      L1  C    15    40       P1 10186  1.00

> <Gold.PLP.Chemscore.Internal.Correction>
0.0377

> <Gold.Rescore>
     Score         DG    S(hbond)    S(metal)    S(lipo)     H(rot)  DE(clash)    DE(int)     intcor
     16.08     -17.20       1.96        0.00      88.93       2.05       0.03       1.09       ----

> <Gold.Chemscore.Fitness>
16.0774

> <Gold.Chemscore.DG>
-17.1955

> <Gold.Chemscore.ZeroCoef>
-5.4800

> <Gold.Chemscore.Hbond>
1.9637

> <Gold.Chemscore.Metal>
0.0000

> <Gold.Chemscore.Lipo>
88.9262

> <Gold.Chemscore.Internal_Hbond>
0.0000

> <Gold.Chemscore.DEClash>
0.0317

> <Gold.Chemscore.DEInternal>
1.0864

> <Gold.Chemscore.Rot>
2.0498

> <Gold.Chemscore.Internal.Correction>
   9.000000E+99

> <Gold.Chemscore.Hbonds>
donor molecule, donor type, donor heavy atom, donor atom, acceptor molecule, acceptor atom, score
      L1  H     9    34       P1  7948  1.00
      L1  H    12    38       P1  7948  0.90
      P1  H  7954  7966       L1    12  0.02

> <Gold.Chemscore.Hbond.Weighted>
-6.5586

> <Gold.Chemscore.Metal.Weighted>
-0.0000

> <Gold.Chemscore.Lipo.Weighted>
-10.4044

> <Gold.Chemscore.Internal_Hbond.Weighted>
0.0000

> <Gold.Chemscore.DEClash.Weighted>
0.0317

> <Gold.Chemscore.DEInternal.Weighted>
1.0864

> <Gold.Chemscore.Rot.Weighted>
5.2475

> <Gold.Chemscore.Internal.Correction.Weighted>
   9.000000E+99

> <Gold.Protein.RotatedTorsions>
[ 6907 6896 6895 6894 ] final -120.14 input  -60.11 | X-H torsion
[ 7974 7965 7964 7962 ] final  116.53 input  175.53 | X-H torsion
[ 8008 7997 7996 7995 ] final  176.71 input   59.86 | X-H torsion
[ 10167 10162 10161 10158 ] final  104.30 input  -65.29 | X-H torsion
[ 10718 10713 10712 10709 ] final -172.34 input   66.30 | X-H torsion
[ 10763 10752 10751 10750 ] final  115.56 input  -60.55 | X-H torsion
[ 11005 11000 10999 10996 ] final  -80.54 input  -57.11 | X-H torsion

> <Gold.Protein.ActiveResidues>
 VAL166  LYS551  ARG553  GLY616  TRP617  ASP618  TYR619  PRO620  LYS621  CYS622 
 ASP623  PHE694  ASN695  SER759  ASP760  ASP761  ALA762  ILE779  LEU786  VAL792 
 PHE793  MET794  SER795  GLU796  ALA797  LYS798  CYS799  TRP800  GLU811  SER814 

> <Gold.Protein.RotatedAtoms>
  150.8367  133.8002  159.3076 H   0  0  0  0  0  0  0  0  0  0  0  0  # atno 6907 bound_to 6896
  151.5716  135.1060  160.0006 H   0  0  0  0  0  0  0  0  0  0  0  0  # atno 6908 bound_to 6896
  152.4438  133.7456  159.6721 H   0  0  0  0  0  0  0  0  0  0  0  0  # atno 6909 bound_to 6896
  145.1785  139.3063  143.4430 H   0  0  0  0  0  0  0  0  0  0  0  0  # atno 7974 bound_to 7965
  156.0736  140.1377  156.9799 H   0  0  0  0  0  0  0  0  0  0  0  0  # atno 8008 bound_to 7997
  154.4545  140.0967  156.6768 H   0  0  0  0  0  0  0  0  0  0  0  0  # atno 8009 bound_to 7997
  155.5189  140.3455  155.4405 H   0  0  0  0  0  0  0  0  0  0  0  0  # atno 8010 bound_to 7997
  139.7189  144.7062  151.0905 H   0  0  0  0  0  0  0  0  0  0  0  0  # atno 10167 bound_to 10162
  156.7541  130.9389  151.3116 H   0  0  0  0  0  0  0  0  0  0  0  0  # atno 10718 bound_to 10713
  153.5240  135.3592  155.2645 H   0  0  0  0  0  0  0  0  0  0  0  0  # atno 10763 bound_to 10752
  154.8732  135.4052  154.3227 H   0  0  0  0  0  0  0  0  0  0  0  0  # atno 10764 bound_to 10752
  153.3903  135.7071  153.6567 H   0  0  0  0  0  0  0  0  0  0  0  0  # atno 10765 bound_to 10752
  141.1668  133.7155  156.8288 H   0  0  0  0  0  0  0  0  0  0  0  0  # atno 11005 bound_to 11000
  146.3457  140.1956  142.8589 LP  0  0  0  0  0  0  0  0  0  0  0  0  # atno 17320 bound_to 7965
  145.0160  140.8754  143.5195 LP  0  0  0  0  0  0  0  0  0  0  0  0  # atno 17321 bound_to 7965
  140.7749  143.5193  150.9556 LP  0  0  0  0  0  0  0  0  0  0  0  0  # atno 17342 bound_to 10162
  139.8879  143.6990  152.3149 LP  0  0  0  0  0  0  0  0  0  0  0  0  # atno 17343 bound_to 10162
  157.6764  130.9098  150.0160 LP  0  0  0  0  0  0  0  0  0  0  0  0  # atno 17370 bound_to 10713
  156.1382  130.3642  149.9624 LP  0  0  0  0  0  0  0  0  0  0  0  0  # atno 17371 bound_to 10713
  140.2066  134.8858  157.3228 LP  0  0  0  0  0  0  0  0  0  0  0  0  # atno 17394 bound_to 11000
  140.2131  134.4114  155.7603 LP  0  0  0  0  0  0  0  0  0  0  0  0  # atno 17395 bound_to 11000

$$$$
