AV-unprocessed.smi:1298|AV-procd|sdf|5417|dock7
  -GOLD-   22720 4573D 1   1.00000     0.00000
 Structure written by MMmdl.
 30 31  0  0  0  0  0  0  0  0  1 V2000
  152.9707  142.5506  161.3130 C   0  0  0  0  0  0  0  0  0  0  0  0
  153.3061  141.8341  160.2298 C   0  0  0  0  0  0  0  0  0  0  0  0
  154.5476  140.6339  160.2666 Cl  0  0  0  0  0  0  0  0  0  0  0  0
  152.6548  141.9508  158.8676 C   0  0  0  0  0  0  0  0  0  0  0  0
  152.0827  140.3405  158.2507 S   0  0  0  0  0  0  0  0  0  0  0  0
  150.7143  140.8529  157.2528 C   0  0  0  0  0  0  0  0  0  0  0  0
  149.7047  141.6161  157.6843 N   0  0  0  0  0  0  0  0  0  0  0  0
  148.8743  141.7877  156.6006 N   0  0  0  0  0  0  0  0  0  0  0  0
  149.4414  141.0981  155.6096 C   0  0  0  0  0  0  0  0  0  0  0  0
  148.8860  141.0421  154.2215 C   0  0  0  0  0  0  0  0  0  0  0  0
  147.5995  141.7537  153.8634 C   0  0  0  0  0  0  0  0  0  0  0  0
  147.6353  140.2489  153.9115 C   0  0  0  0  0  0  0  0  0  0  0  0
  150.6013  140.5008  155.9539 N   0  0  0  0  0  0  0  0  0  0  0  0
  151.5037  139.7051  155.1306 C   0  0  0  0  0  0  0  0  0  0  0  0
  150.8201  138.4271  154.6401 C   0  0  0  0  0  0  0  0  0  0  0  0
  150.2439  138.4681  153.4361 N   0  0  0  0  0  0  0  0  0  0  0  0
  150.8165  137.4138  155.3358 O   0  0  0  0  0  0  0  0  0  0  0  0
  153.4768  142.4059  162.2562 H   0  0  0  0  0  0  0  0  0  0  0  0
  152.1861  143.2919  161.2704 H   0  0  0  0  0  0  0  0  0  0  0  0
  151.8117  142.6406  158.9234 H   0  0  0  0  0  0  0  0  0  0  0  0
  153.3733  142.3734  158.1640 H   0  0  0  0  0  0  0  0  0  0  0  0
  149.6881  141.0407  153.4859 H   0  0  0  0  0  0  0  0  0  0  0  0
  147.0619  142.2665  154.6588 H   0  0  0  0  0  0  0  0  0  0  0  0
  147.5433  142.2246  152.8842 H   0  0  0  0  0  0  0  0  0  0  0  0
  147.6035  139.7133  152.9650 H   0  0  0  0  0  0  0  0  0  0  0  0
  147.1245  139.7629  154.7405 H   0  0  0  0  0  0  0  0  0  0  0  0
  151.8348  140.2918  154.2737 H   0  0  0  0  0  0  0  0  0  0  0  0
  152.4010  139.4695  155.7030 H   0  0  0  0  0  0  0  0  0  0  0  0
  149.7828  137.6492  153.0674 H   0  0  0  0  0  0  0  0  0  0  0  0
  150.2748  139.3210  152.8961 H   0  0  0  0  0  0  0  0  0  0  0  0
  1  2  2  0  0  0  0
  1 18  1  0  0  0  0
  1 19  1  0  0  0  0
  2  3  1  0  0  0  0
  2  4  1  0  0  0  0
  4  5  1  0  0  0  0
  4 20  1  0  0  0  0
  4 21  1  0  0  0  0
  5  6  1  0  0  0  0
  6 13  1  0  0  0  0
  6  7  2  0  0  0  0
  7  8  1  0  0  0  0
  8  9  2  0  0  0  0
  9 10  1  0  0  0  0
  9 13  1  0  0  0  0
 10 12  1  0  0  0  0
 10 11  1  0  0  0  0
 10 22  1  0  0  0  0
 11 12  1  0  0  0  0
 11 23  1  0  0  0  0
 11 24  1  0  0  0  0
 12 25  1  0  0  0  0
 12 26  1  0  0  0  0
 13 14  1  0  0  0  0
 14 15  1  0  0  0  0
 14 27  1  0  0  0  0
 14 28  1  0  0  0  0
 15 16  1  0  0  0  0
 15 17  2  0  0  0  0
 16 29  1  0  0  0  0
 16 30  1  0  0  0  0
M  END
> <s_m_source_file>
AV-unprocessed.smi

> <i_m_source_file_index>
1298

> <i_lp_mmshare_version>
43012

> <i_f3d_flags>
0

> <s_epik_input>
W0NIMl09QyhDbClbQ0gyXVNjMW5uYyhbQ0hdMltDSDJdW0NIMl0yKW4xW0NIMl1DKD1PKVtOSDJd

> <s_epik_cmdline>
J2VwaWtfcHl0aG9uJywgJy1waCcsICc3LjAnLCAnLXRuJywgJzgnLCAnLW1hJywgJzIwMCcsICctbWV0YWxfYmluZGluZycsICctaW1hZScsICc8aW5maWxlLm1hZT4nLCAnLW9tYWUnLCAnPG91dGZpbGUubWFlPic=

> <r_lp_tautomer_probability>
1

> <r_epik_Ionization_Penalty>
2.01117e-07

> <r_epik_Ionization_Penalty_Charging>
0

> <r_epik_Ionization_Penalty_Neutral>
2.01117e-07

> <r_epik_State_Penalty>
-0

> <r_epik_Charging_Adjusted_Penalty>
0

> <i_epik_Tot_Q>
0

> <i_epik_Tot_abs_Q>
0

> <r_epik_Metal_State_Penalty>
-0

> <b_epik_Metal_Only>
0

> <s_lp_Force_Field>
OPLS_2005

> <r_lp_Energy>
3.32617

> <b_lp_Chiralities_Consistent>
1

> <s_lp_Variant>
AV-unprocessed.smi:1298-1

> <Gold.Version>
5.8.1

> <Gold.Id.Protein>
6NUR|6NUR_protein|mol2

> <Gold.PLP.Fitness>
40.9135

> <Gold.PLP.PLP>
-36.6751

> <Gold.PLP.part.hbond>
-2.1377

> <Gold.PLP.part.metal>
0.0000

> <Gold.PLP.part.buried>
-3.3234

> <Gold.PLP.part.nonpolar>
-31.9580

> <Gold.PLP.part.repulsive>
1.0184

> <Gold.PLP.ligand.clash>
0.0000

> <Gold.PLP.ligand.torsion>
0.7535

> <Gold.PLP.Chemscore.Hbond>
1.8406

> <Gold.PLP.Chemscore.CHOScore>
0.0000

> <Gold.PLP.Chemscore.Metal>
0.0000

> <Gold.Chemscore.Hbonds>
donor molecule, donor type, donor heavy atom, donor atom, acceptor molecule, acceptor atom, score
      L1  H    16    29       P1  7948  1.00
      L1  H    16    30       P1  7957  0.78

> <Gold.PLP.Chemscore.Internal.Correction>
0.2237

> <Gold.Rescore>
     Score         DG    S(hbond)    S(metal)    S(lipo)     H(rot)  DE(clash)    DE(int)     intcor
     12.32     -12.89       1.74        0.00      70.64       2.60       0.04       0.53       ----

> <Gold.Chemscore.Fitness>
12.3197

> <Gold.Chemscore.DG>
-12.8944

> <Gold.Chemscore.ZeroCoef>
-5.4800

> <Gold.Chemscore.Hbond>
1.7375

> <Gold.Chemscore.Metal>
0.0000

> <Gold.Chemscore.Lipo>
70.6376

> <Gold.Chemscore.Internal_Hbond>
0.0000

> <Gold.Chemscore.DEClash>
0.0431

> <Gold.Chemscore.DEInternal>
0.5316

> <Gold.Chemscore.Rot>
2.5990

> <Gold.Chemscore.Internal.Correction>
   9.000000E+99

> <Gold.Chemscore.Hbonds>
donor molecule, donor type, donor heavy atom, donor atom, acceptor molecule, acceptor atom, score
      L1  H    16    29       P1  7948  0.53
      L1  H    16    30       P1  7957  0.65

> <Gold.Chemscore.Hbond.Weighted>
-5.8032

> <Gold.Chemscore.Metal.Weighted>
-0.0000

> <Gold.Chemscore.Lipo.Weighted>
-8.2646

> <Gold.Chemscore.Internal_Hbond.Weighted>
0.0000

> <Gold.Chemscore.DEClash.Weighted>
0.0431

> <Gold.Chemscore.DEInternal.Weighted>
0.5316

> <Gold.Chemscore.Rot.Weighted>
6.6534

> <Gold.Chemscore.Internal.Correction.Weighted>
   9.000000E+99

> <Gold.Protein.RotatedTorsions>
[ 6907 6896 6895 6894 ] final   68.52 input  -60.11 | X-H torsion
[ 7974 7965 7964 7962 ] final  135.29 input  175.53 | X-H torsion
[ 8008 7997 7996 7995 ] final -145.74 input   59.86 | X-H torsion
[ 10167 10162 10161 10158 ] final   -8.56 input  -65.29 | X-H torsion
[ 10718 10713 10712 10709 ] final -129.94 input   66.30 | X-H torsion
[ 10763 10752 10751 10750 ] final    7.46 input  -60.55 | X-H torsion
[ 11005 11000 10999 10996 ] final   19.49 input  -57.11 | X-H torsion

> <Gold.Protein.ActiveResidues>
 VAL166  LYS551  ARG553  GLY616  TRP617  ASP618  TYR619  PRO620  LYS621  CYS622 
 ASP623  PHE694  ASN695  SER759  ASP760  ASP761  ALA762  ILE779  LEU786  VAL792 
 PHE793  MET794  SER795  GLU796  ALA797  LYS798  CYS799  TRP800  GLU811  SER814 

> <Gold.Protein.RotatedAtoms>
  152.4625  134.5150  159.9765 H   0  0  0  0  0  0  0  0  0  0  0  0  # atno 6907 bound_to 6896
  151.5196  133.3463  159.2907 H   0  0  0  0  0  0  0  0  0  0  0  0  # atno 6908 bound_to 6896
  150.8595  134.7972  159.7134 H   0  0  0  0  0  0  0  0  0  0  0  0  # atno 6909 bound_to 6896
  144.9678  139.4639  143.5448 H   0  0  0  0  0  0  0  0  0  0  0  0  # atno 7974 bound_to 7965
  155.5480  140.0614  157.2856 H   0  0  0  0  0  0  0  0  0  0  0  0  # atno 8008 bound_to 7997
  154.4430  140.1907  156.0702 H   0  0  0  0  0  0  0  0  0  0  0  0  # atno 8009 bound_to 7997
  156.0536  140.3281  155.7384 H   0  0  0  0  0  0  0  0  0  0  0  0  # atno 8010 bound_to 7997
  140.7062  143.5955  150.8850 H   0  0  0  0  0  0  0  0  0  0  0  0  # atno 10167 bound_to 10162
  156.2096  130.6910  151.0634 H   0  0  0  0  0  0  0  0  0  0  0  0  # atno 10718 bound_to 10713
  153.2360  135.6898  153.7836 H   0  0  0  0  0  0  0  0  0  0  0  0  # atno 10763 bound_to 10752
  153.6983  135.3301  155.3219 H   0  0  0  0  0  0  0  0  0  0  0  0  # atno 10764 bound_to 10752
  154.8335  135.4562  154.1264 H   0  0  0  0  0  0  0  0  0  0  0  0  # atno 10765 bound_to 10752
  140.4132  134.1597  155.7668 H   0  0  0  0  0  0  0  0  0  0  0  0  # atno 11005 bound_to 11000
  146.3373  139.8870  142.8815 LP  0  0  0  0  0  0  0  0  0  0  0  0  # atno 17320 bound_to 7965
  145.2604  141.0075  143.3829 LP  0  0  0  0  0  0  0  0  0  0  0  0  # atno 17321 bound_to 7965
  139.9680  143.6089  152.2982 LP  0  0  0  0  0  0  0  0  0  0  0  0  # atno 17342 bound_to 10162
  139.6665  144.7662  151.1863 LP  0  0  0  0  0  0  0  0  0  0  0  0  # atno 17343 bound_to 10162
  157.7031  131.0768  150.6756 LP  0  0  0  0  0  0  0  0  0  0  0  0  # atno 17370 bound_to 10713
  156.6815  130.4568  149.5626 LP  0  0  0  0  0  0  0  0  0  0  0  0  # atno 17371 bound_to 10713
  141.1813  133.8408  157.1247 LP  0  0  0  0  0  0  0  0  0  0  0  0  # atno 17394 bound_to 11000
  140.0253  134.9927  157.0673 LP  0  0  0  0  0  0  0  0  0  0  0  0  # atno 17395 bound_to 11000

$$$$
