AV-unprocessed.smi:1715|AV-procd|sdf|6909|dock3
  -GOLD-   22720 8113D 1   1.00000     0.00000
 Structure written by MMmdl.
 40 41  0  0  0  0  0  0  0  0  1 V2000
  151.5311  138.1360  154.6888 C   0  0  0  0  0  0  0  0  0  0  0  0
  150.3293  139.0389  154.9850 C   0  0  2  0  0  0  0  0  0  0  0  0
  149.1586  138.7800  154.0197 C   0  0  0  0  0  0  0  0  0  0  0  0
  148.0473  139.6940  154.2508 N   0  0  0  0  0  0  0  0  0  0  0  0
  146.9355  139.4013  153.3481 C   0  0  0  0  0  0  0  0  0  0  0  0
  146.1038  138.1607  153.7240 C   0  0  0  0  0  0  0  0  0  0  0  0
  146.4664  137.0112  152.9045 N   0  0  0  0  0  0  0  0  0  0  0  0
  145.5982  136.2136  152.2672 C   0  0  0  0  0  0  0  0  0  0  0  0
  144.3769  136.3632  152.3103 O   0  0  0  0  0  0  0  0  0  0  0  0
  146.2348  135.2446  151.5894 N   0  0  0  0  0  0  0  0  0  0  0  0
  145.6545  134.2336  150.7828 C   0  0  0  0  0  0  0  0  0  0  0  0
  146.3012  133.0228  150.4142 C   0  0  0  0  0  0  0  0  0  0  0  0
  145.5200  132.2698  149.6531 N   0  0  0  0  0  0  0  0  0  0  0  0
  144.3812  132.9887  149.5319 N   0  0  0  0  0  0  0  0  0  0  0  0
  144.4174  134.1908  150.2034 C   0  0  0  0  0  0  0  0  0  0  0  0
  148.5289  141.0679  154.1196 C   0  0  0  0  0  0  0  0  0  0  0  0
  149.7281  141.3721  155.0400 C   0  0  1  0  0  0  0  0  0  0  0  0
  149.3377  141.5235  156.5200 C   0  0  0  0  0  0  0  0  0  0  0  0
  150.7540  140.3946  154.8599 O   0  0  0  0  0  0  0  0  0  0  0  0
  143.5971  132.6496  148.9931 H   0  0  0  0  0  0  0  0  0  0  0  0
  151.2645  137.0834  154.7858 H   0  0  0  0  0  0  0  0  0  0  0  0
  152.3488  138.3374  155.3813 H   0  0  0  0  0  0  0  0  0  0  0  0
  151.9049  138.2952  153.6768 H   0  0  0  0  0  0  0  0  0  0  0  0
  150.0054  138.8533  156.0094 H   0  0  0  0  0  0  0  0  0  0  0  0
  149.5064  138.8760  152.9897 H   0  0  0  0  0  0  0  0  0  0  0  0
  148.8189  137.7503  154.1384 H   0  0  0  0  0  0  0  0  0  0  0  0
  146.2820  140.2719  153.2748 H   0  0  0  0  0  0  0  0  0  0  0  0
  147.3346  139.2428  152.3452 H   0  0  0  0  0  0  0  0  0  0  0  0
  146.2273  137.9232  154.7820 H   0  0  0  0  0  0  0  0  0  0  0  0
  145.0414  138.3421  153.5667 H   0  0  0  0  0  0  0  0  0  0  0  0
  147.4517  136.8110  152.8139 H   0  0  0  0  0  0  0  0  0  0  0  0
  147.2425  135.2345  151.6489 H   0  0  0  0  0  0  0  0  0  0  0  0
  147.2910  132.6729  150.6678 H   0  0  0  0  0  0  0  0  0  0  0  0
  143.5852  134.8792  150.2028 H   0  0  0  0  0  0  0  0  0  0  0  0
  148.8260  141.2484  153.0853 H   0  0  0  0  0  0  0  0  0  0  0  0
  147.7315  141.7771  154.3382 H   0  0  0  0  0  0  0  0  0  0  0  0
  150.1562  142.3247  154.7265 H   0  0  0  0  0  0  0  0  0  0  0  0
  148.6384  142.3492  156.6535 H   0  0  0  0  0  0  0  0  0  0  0  0
  150.2144  141.7309  157.1336 H   0  0  0  0  0  0  0  0  0  0  0  0
  148.8594  140.6264  156.9125 H   0  0  0  0  0  0  0  0  0  0  0  0
  1  2  1  0  0  0  0
  1 21  1  0  0  0  0
  1 22  1  0  0  0  0
  1 23  1  0  0  0  0
  2 19  1  0  0  0  0
  2  3  1  0  0  0  0
  2 24  1  0  0  0  0
  3  4  1  0  0  0  0
  3 25  1  0  0  0  0
  3 26  1  0  0  0  0
  4  5  1  0  0  0  0
  4 16  1  0  0  0  0
  5  6  1  0  0  0  0
  5 27  1  0  0  0  0
  5 28  1  0  0  0  0
  6  7  1  0  0  0  0
  6 29  1  0  0  0  0
  6 30  1  0  0  0  0
  7  8  1  0  0  0  0
  7 31  1  0  0  0  0
  8  9  2  0  0  0  0
  8 10  1  0  0  0  0
 10 11  1  0  0  0  0
 10 32  1  0  0  0  0
 11 15  2  0  0  0  0
 11 12  1  0  0  0  0
 12 13  2  0  0  0  0
 12 33  1  0  0  0  0
 13 14  1  0  0  0  0
 14 20  1  0  0  0  0
 14 15  1  0  0  0  0
 15 34  1  0  0  0  0
 16 17  1  0  0  0  0
 16 35  1  0  0  0  0
 16 36  1  0  0  0  0
 17 18  1  0  0  0  0
 17 19  1  0  0  0  0
 17 37  1  0  0  0  0
 18 38  1  0  0  0  0
 18 39  1  0  0  0  0
 18 40  1  0  0  0  0
M  END
> <s_m_source_file>
AV-unprocessed.smi

> <i_m_source_file_index>
1715

> <i_lp_mmshare_version>
43012

> <i_f3d_flags>
0

> <s_epik_input>
W0NIM11bQ0BASF0xW0NIMl1OKFtDSDJdW0NASF0oTzEpW0NIM10pW0NIMl1bQ0gyXVtOSF1DKD1PKVtOSF1jMltjSF1uW25IXVtjSF0y

> <s_epik_cmdline>
J2VwaWtfcHl0aG9uJywgJy1waCcsICc3LjAnLCAnLXRuJywgJzgnLCAnLW1hJywgJzIwMCcsICctbWV0YWxfYmluZGluZycsICctaW1hZScsICc8aW5maWxlLm1hZT4nLCAnLW9tYWUnLCAnPG91dGZpbGUubWFlPic=

> <r_lp_tautomer_probability>
0.5

> <r_epik_Ionization_Penalty>
0.242771

> <r_epik_Ionization_Penalty_Charging>
0

> <r_epik_Ionization_Penalty_Neutral>
0.242771

> <r_epik_State_Penalty>
0.233765

> <r_epik_Charging_Adjusted_Penalty>
0.233765

> <i_epik_Tot_Q>
0

> <i_epik_Tot_abs_Q>
0

> <r_epik_Metal_State_Penalty>
0.233764

> <b_epik_Metal_Only>
0

> <s_lp_Force_Field>
OPLS_2005

> <r_lp_Energy>
24.9441

> <b_lp_Chiralities_Consistent>
1

> <s_lp_Variant>
AV-unprocessed.smi:1715-1

> <Gold.Version>
5.8.1

> <Gold.Id.Protein>
6NUR|6NUR_protein|mol2

> <Gold.PLP.Fitness>
43.9587

> <Gold.PLP.PLP>
-31.1869

> <Gold.PLP.part.hbond>
-3.4967

> <Gold.PLP.part.metal>
0.0000

> <Gold.PLP.part.buried>
-4.2865

> <Gold.PLP.part.nonpolar>
-24.5472

> <Gold.PLP.part.repulsive>
0.7138

> <Gold.PLP.ligand.clash>
0.0000

> <Gold.PLP.ligand.torsion>
0.5757

> <Gold.PLP.Chemscore.Hbond>
3.0000

> <Gold.PLP.Chemscore.CHOScore>
1.6309

> <Gold.PLP.Chemscore.Metal>
0.0000

> <Gold.Chemscore.Hbonds>
donor molecule, donor type, donor heavy atom, donor atom, acceptor molecule, acceptor atom, score
      L1  H     7    31       P1  7948  1.00
      L1  H    10    32       P1  7948  1.00
      P1  H  7989  7998       L1    19  1.00
      L1  C    12    33       P1 10747  1.00
      L1  C    15    34       P1 10186  0.61

> <Gold.PLP.Chemscore.Internal.Correction>
0.0306

> <Gold.Rescore>
     Score         DG    S(hbond)    S(metal)    S(lipo)     H(rot)  DE(clash)    DE(int)     intcor
     17.38     -18.91       2.66        0.00      74.50       1.63       0.17       1.36       ----

> <Gold.Chemscore.Fitness>
17.3790

> <Gold.Chemscore.DG>
-18.9129

> <Gold.Chemscore.ZeroCoef>
-5.4800

> <Gold.Chemscore.Hbond>
2.6605

> <Gold.Chemscore.Metal>
0.0000

> <Gold.Chemscore.Lipo>
74.4975

> <Gold.Chemscore.Internal_Hbond>
0.0000

> <Gold.Chemscore.DEClash>
0.1706

> <Gold.Chemscore.DEInternal>
1.3633

> <Gold.Chemscore.Rot>
1.6287

> <Gold.Chemscore.Internal.Correction>
   9.000000E+99

> <Gold.Chemscore.Hbonds>
donor molecule, donor type, donor heavy atom, donor atom, acceptor molecule, acceptor atom, score
      L1  H     7    31       P1  7948  0.96
      L1  H    10    32       P1  7948  0.88
      P1  H  7989  7998       L1    19  0.53

> <Gold.Chemscore.Hbond.Weighted>
-8.8862

> <Gold.Chemscore.Metal.Weighted>
-0.0000

> <Gold.Chemscore.Lipo.Weighted>
-8.7162

> <Gold.Chemscore.Internal_Hbond.Weighted>
0.0000

> <Gold.Chemscore.DEClash.Weighted>
0.1706

> <Gold.Chemscore.DEInternal.Weighted>
1.3633

> <Gold.Chemscore.Rot.Weighted>
4.1695

> <Gold.Chemscore.Internal.Correction.Weighted>
   9.000000E+99

> <Gold.Protein.RotatedTorsions>
[ 6907 6896 6895 6894 ] final  -83.37 input  -60.11 | X-H torsion
[ 7974 7965 7964 7962 ] final  -50.72 input  175.53 | X-H torsion
[ 8008 7997 7996 7995 ] final  -32.69 input   59.86 | X-H torsion
[ 10167 10162 10161 10158 ] final   22.09 input  -65.29 | X-H torsion
[ 10718 10713 10712 10709 ] final  -32.26 input   66.30 | X-H torsion
[ 10763 10752 10751 10750 ] final   88.37 input  -60.55 | X-H torsion
[ 11005 11000 10999 10996 ] final  135.18 input  -57.11 | X-H torsion

> <Gold.Protein.ActiveResidues>
 VAL166  LYS551  ARG553  GLY616  TRP617  ASP618  TYR619  PRO620  LYS621  CYS622 
 ASP623  PHE694  ASN695  SER759  ASP760  ASP761  ALA762  ILE779  LEU786  VAL792 
 PHE793  MET794  SER795  GLU796  ALA797  LYS798  CYS799  TRP800  GLU811  SER814 

> <Gold.Protein.RotatedAtoms>
  150.6886  134.3523  159.4913 H   0  0  0  0  0  0  0  0  0  0  0  0  # atno 6907 bound_to 6896
  152.1362  134.9094  160.0565 H   0  0  0  0  0  0  0  0  0  0  0  0  # atno 6908 bound_to 6896
  152.0245  133.3877  159.4309 H   0  0  0  0  0  0  0  0  0  0  0  0  # atno 6909 bound_to 6896
  145.9267  140.7785  142.9620 H   0  0  0  0  0  0  0  0  0  0  0  0  # atno 7974 bound_to 7965
  154.4172  140.1730  156.1768 H   0  0  0  0  0  0  0  0  0  0  0  0  # atno 8008 bound_to 7997
  155.9715  140.3385  155.6556 H   0  0  0  0  0  0  0  0  0  0  0  0  # atno 8009 bound_to 7997
  155.6619  140.0702  157.2542 H   0  0  0  0  0  0  0  0  0  0  0  0  # atno 8010 bound_to 7997
  140.5375  143.9734  150.6500 H   0  0  0  0  0  0  0  0  0  0  0  0  # atno 10167 bound_to 10162
  156.3771  130.4349  149.7499 H   0  0  0  0  0  0  0  0  0  0  0  0  # atno 10718 bound_to 10713
  153.1761  135.4509  154.9967 H   0  0  0  0  0  0  0  0  0  0  0  0  # atno 10763 bound_to 10752
  154.7999  135.3252  154.7578 H   0  0  0  0  0  0  0  0  0  0  0  0  # atno 10764 bound_to 10752
  153.8048  135.6959  153.4905 H   0  0  0  0  0  0  0  0  0  0  0  0  # atno 10765 bound_to 10752
  139.9963  134.9496  156.9971 H   0  0  0  0  0  0  0  0  0  0  0  0  # atno 11005 bound_to 11000
  144.6759  140.2063  143.7382 LP  0  0  0  0  0  0  0  0  0  0  0  0  # atno 17320 bound_to 7965
  145.8479  139.2161  143.1789 LP  0  0  0  0  0  0  0  0  0  0  0  0  # atno 17321 bound_to 7965
  140.3126  143.3188  152.0864 LP  0  0  0  0  0  0  0  0  0  0  0  0  # atno 17342 bound_to 10162
  139.4976  144.6626  151.6429 LP  0  0  0  0  0  0  0  0  0  0  0  0  # atno 17343 bound_to 10162
  156.4604  130.7949  151.2969 LP  0  0  0  0  0  0  0  0  0  0  0  0  # atno 17370 bound_to 10713
  157.7489  131.0068  150.3164 LP  0  0  0  0  0  0  0  0  0  0  0  0  # atno 17371 bound_to 10713
  140.4812  134.1287  155.7217 LP  0  0  0  0  0  0  0  0  0  0  0  0  # atno 17394 bound_to 11000
  141.1607  133.8799  157.1856 LP  0  0  0  0  0  0  0  0  0  0  0  0  # atno 17395 bound_to 11000

$$$$
