AV-unprocessed.smi:632|AV-procd|sdf|3129|dock7
  -GOLD-   22720 0 53D 1   1.00000     0.00000
 Structure written by MMmdl.
 41 42  0  0  0  0  0  0  0  0  2 V2000
  156.1454  136.7931  162.7168 C   0  0  0  0  0  0  0  0  0  0  0  0
  154.6816  136.4126  162.4218 C   0  0  0  0  0  0  0  0  0  0  0  0
  154.6052  134.8712  162.3543 C   0  0  0  0  0  0  0  0  0  0  0  0
  153.7596  136.8701  163.5693 C   0  0  0  0  0  0  0  0  0  0  0  0
  154.2393  137.0457  161.1229 C   0  0  0  0  0  0  0  0  0  0  0  0
  153.7185  136.3255  160.1218 N   0  0  0  0  0  0  0  0  0  0  0  0
  153.3773  137.1017  159.0246 N   0  0  0  0  0  0  0  0  0  0  0  0
  153.6267  138.4052  159.2049 C   0  0  0  0  0  0  0  0  0  0  0  0
  153.3696  139.3291  158.2643 N   0  5  0  0  0  0  0  0  0  0  0  0
  152.0979  139.7356  158.0464 C   0  0  0  0  0  0  0  0  0  0  0  0
  151.4095  140.4183  158.8086 O   0  0  0  0  0  0  0  0  0  0  0  0
  151.5953  139.3284  156.8714 N   0  0  0  0  0  0  0  0  0  0  0  0
  150.2594  139.6190  156.3563 C   0  0  2  0  0  0  0  0  0  0  0  0
  150.0037  138.8417  155.0500 C   0  0  0  0  0  0  0  0  0  0  0  0
  148.6276  139.1813  154.4502 C   0  0  0  0  0  0  0  0  0  0  0  0
  148.4327  140.6964  154.2489 C   0  0  2  0  0  0  0  0  0  0  0  0
  149.2560  141.1580  153.1960 O   0  0  0  0  0  0  0  0  0  0  0  0
  148.7343  141.4838  155.5384 C   0  0  0  0  0  0  0  0  0  0  0  0
  150.1128  141.1338  156.1259 C   0  0  0  0  0  0  0  0  0  0  0  0
  154.3398  138.7715  160.7731 S   0  0  0  0  0  0  0  0  0  0  0  0
  156.4964  136.3372  163.6430 H   0  0  0  0  0  0  0  0  0  0  0  0
  156.2647  137.8721  162.8210 H   0  0  0  0  0  0  0  0  0  0  0  0
  156.8087  136.4653  161.9152 H   0  0  0  0  0  0  0  0  0  0  0  0
  155.2525  134.4691  161.5735 H   0  0  0  0  0  0  0  0  0  0  0  0
  153.5893  134.5270  162.1564 H   0  0  0  0  0  0  0  0  0  0  0  0
  154.9197  134.4178  163.2951 H   0  0  0  0  0  0  0  0  0  0  0  0
  154.0460  136.4129  164.5170 H   0  0  0  0  0  0  0  0  0  0  0  0
  152.7207  136.6017  163.3737 H   0  0  0  0  0  0  0  0  0  0  0  0
  153.7988  137.9512  163.7072 H   0  0  0  0  0  0  0  0  0  0  0  0
  152.1959  138.7697  156.2832 H   0  0  0  0  0  0  0  0  0  0  0  0
  149.5146  139.3200  157.0964 H   0  0  0  0  0  0  0  0  0  0  0  0
  150.7850  139.0723  154.3244 H   0  0  0  0  0  0  0  0  0  0  0  0
  150.0646  137.7686  155.2347 H   0  0  0  0  0  0  0  0  0  0  0  0
  148.4891  138.6525  153.5065 H   0  0  0  0  0  0  0  0  0  0  0  0
  147.8518  138.8107  155.1215 H   0  0  0  0  0  0  0  0  0  0  0  0
  147.4012  140.8857  153.9499 H   0  0  0  0  0  0  0  0  0  0  0  0
  149.3444  140.4660  152.5585 H   0  0  0  0  0  0  0  0  0  0  0  0
  148.6670  142.5563  155.3521 H   0  0  0  0  0  0  0  0  0  0  0  0
  147.9676  141.2563  156.2801 H   0  0  0  0  0  0  0  0  0  0  0  0
  150.2550  141.6688  157.0656 H   0  0  0  0  0  0  0  0  0  0  0  0
  150.8962  141.4842  155.4523 H   0  0  0  0  0  0  0  0  0  0  0  0
  1  2  1  0  0  0  0
  1 21  1  0  0  0  0
  1 22  1  0  0  0  0
  1 23  1  0  0  0  0
  2  3  1  0  0  0  0
  2  4  1  0  0  0  0
  2  5  1  0  0  0  0
  3 24  1  0  0  0  0
  3 25  1  0  0  0  0
  3 26  1  0  0  0  0
  4 27  1  0  0  0  0
  4 28  1  0  0  0  0
  4 29  1  0  0  0  0
  5 20  1  0  0  0  0
  5  6  2  0  0  0  0
  6  7  1  0  0  0  0
  7  8  2  0  0  0  0
  8  9  1  0  0  0  0
  8 20  1  0  0  0  0
  9 10  1  0  0  0  0
 10 11  2  0  0  0  0
 10 12  1  0  0  0  0
 12 13  1  0  0  0  0
 12 30  1  0  0  0  0
 13 19  1  0  0  0  0
 13 14  1  0  0  0  0
 13 31  1  0  0  0  0
 14 15  1  0  0  0  0
 14 32  1  0  0  0  0
 14 33  1  0  0  0  0
 15 16  1  0  0  0  0
 15 34  1  0  0  0  0
 15 35  1  0  0  0  0
 16 17  1  0  0  0  0
 16 18  1  0  0  0  0
 16 36  1  0  0  0  0
 17 37  1  0  0  0  0
 18 19  1  0  0  0  0
 18 38  1  0  0  0  0
 18 39  1  0  0  0  0
 19 40  1  0  0  0  0
 19 41  1  0  0  0  0
M  CHG  1   9  -1
M  END
> <s_m_source_file>
AV-unprocessed.smi

> <i_m_source_file_index>
632

> <i_lp_mmshare_version>
43012

> <i_f3d_flags>
0

> <s_epik_input>
W0NIM11DKFtDSDNdKShbQ0gzXSljMW5uYyhzMSlbTkhdQyg9TylbTkhdW0NAQEhdMltDSDJdW0NIMl1bQ0BASF0oW09IXSlbQ0gyXVtDSDJdMg==

> <s_epik_cmdline>
J2VwaWtfcHl0aG9uJywgJy1waCcsICc3LjAnLCAnLXRuJywgJzgnLCAnLW1hJywgJzIwMCcsICctbWV0YWxfYmluZGluZycsICctaW1hZScsICc8aW5maWxlLm1hZT4nLCAnLW9tYWUnLCAnPG91dGZpbGUubWFlPic=

> <r_lp_tautomer_probability>
1

> <r_epik_Ionization_Penalty>
4.62389

> <r_epik_Ionization_Penalty_Charging>
4.45204

> <r_epik_Ionization_Penalty_Neutral>
0.171842

> <r_epik_State_Penalty>
4.45172

> <r_epik_Charging_Adjusted_Penalty>
8.90376

> <i_epik_Tot_Q>
-1

> <i_epik_Tot_abs_Q>
1

> <r_epik_Metal_State_Penalty>
0.795834

> <b_epik_Metal_Only>
1

> <s_lp_Force_Field>
OPLS_2005

> <r_lp_Energy>
3.40986

> <b_lp_Chiralities_Consistent>
1

> <s_lp_Variant>
AV-unprocessed.smi:632-4

> <Gold.Version>
5.8.1

> <Gold.Id.Protein>
6NUR|6NUR_protein|mol2

> <Gold.PLP.Fitness>
40.9548

> <Gold.PLP.PLP>
-29.3615

> <Gold.PLP.part.hbond>
-4.3557

> <Gold.PLP.part.metal>
0.0000

> <Gold.PLP.part.buried>
-4.6418

> <Gold.PLP.part.nonpolar>
-21.1440

> <Gold.PLP.part.repulsive>
0.0768

> <Gold.PLP.ligand.clash>
0.0000

> <Gold.PLP.ligand.torsion>
1.5214

> <Gold.PLP.Chemscore.Hbond>
4.8738

> <Gold.PLP.Chemscore.CHOScore>
0.0000

> <Gold.PLP.Chemscore.Metal>
0.0000

> <Gold.Chemscore.Hbonds>
donor molecule, donor type, donor heavy atom, donor atom, acceptor molecule, acceptor atom, score
      L1  H    17    37       P1  7957  0.86
      P1  H  6896  6908       L1     6  0.98
      P1  H  7997  8010       L1     9  2.00
      P1  H  8011  8017       L1    17  1.00

> <Gold.PLP.Chemscore.Internal.Correction>
0.0148

> <Gold.Rescore>
     Score         DG    S(hbond)    S(metal)    S(lipo)     H(rot)  DE(clash)    DE(int)     intcor
     18.45     -20.08       3.22        0.00      69.62       1.67       0.09       1.54       ----

> <Gold.Chemscore.Fitness>
18.4493

> <Gold.Chemscore.DG>
-20.0809

> <Gold.Chemscore.ZeroCoef>
-5.4800

> <Gold.Chemscore.Hbond>
3.2155

> <Gold.Chemscore.Metal>
0.0000

> <Gold.Chemscore.Lipo>
69.6232

> <Gold.Chemscore.Internal_Hbond>
0.0000

> <Gold.Chemscore.DEClash>
0.0916

> <Gold.Chemscore.DEInternal>
1.5400

> <Gold.Chemscore.Rot>
1.6737

> <Gold.Chemscore.Internal.Correction>
   9.000000E+99

> <Gold.Chemscore.Hbonds>
donor molecule, donor type, donor heavy atom, donor atom, acceptor molecule, acceptor atom, score
      L1  H    17    37       P1  7957  0.80
      P1  H  6896  6908       L1     6  0.27
      P1  H  7997  8010       L1     9  0.95
      P1  H  8011  8017       L1    17  0.25

> <Gold.Chemscore.Hbond.Weighted>
-10.7397

> <Gold.Chemscore.Metal.Weighted>
-0.0000

> <Gold.Chemscore.Lipo.Weighted>
-8.1459

> <Gold.Chemscore.Internal_Hbond.Weighted>
0.0000

> <Gold.Chemscore.DEClash.Weighted>
0.0916

> <Gold.Chemscore.DEInternal.Weighted>
1.5400

> <Gold.Chemscore.Rot.Weighted>
4.2848

> <Gold.Chemscore.Internal.Correction.Weighted>
   9.000000E+99

> <Gold.Protein.RotatedTorsions>
[ 6907 6896 6895 6894 ] final  -76.66 input  -60.11 | X-H torsion
[ 7974 7965 7964 7962 ] final  107.36 input  175.53 | X-H torsion
[ 8008 7997 7996 7995 ] final   23.50 input   59.86 | X-H torsion
[ 10167 10162 10161 10158 ] final  -81.33 input  -65.29 | X-H torsion
[ 10718 10713 10712 10709 ] final -126.76 input   66.30 | X-H torsion
[ 10763 10752 10751 10750 ] final -137.10 input  -60.55 | X-H torsion
[ 11005 11000 10999 10996 ] final  160.59 input  -57.11 | X-H torsion

> <Gold.Protein.ActiveResidues>
 VAL166  LYS551  ARG553  GLY616  TRP617  ASP618  TYR619  PRO620  LYS621  CYS622 
 ASP623  PHE694  ASN695  SER759  ASP760  ASP761  ALA762  ILE779  LEU786  VAL792 
 PHE793  MET794  SER795  GLU796  ALA797  LYS798  CYS799  TRP800  GLU811  SER814 

> <Gold.Protein.RotatedAtoms>
  150.7021  134.4538  159.5348 H   0  0  0  0  0  0  0  0  0  0  0  0  # atno 6907 bound_to 6896
  152.2226  134.8396  160.0493 H   0  0  0  0  0  0  0  0  0  0  0  0  # atno 6908 bound_to 6896
  151.9241  133.3558  159.3944 H   0  0  0  0  0  0  0  0  0  0  0  0  # atno 6909 bound_to 6896
  145.2947  139.2589  143.3846 H   0  0  0  0  0  0  0  0  0  0  0  0  # atno 7974 bound_to 7965
  154.9818  140.3103  155.4943 H   0  0  0  0  0  0  0  0  0  0  0  0  # atno 8008 bound_to 7997
  156.2952  140.2265  156.4857 H   0  0  0  0  0  0  0  0  0  0  0  0  # atno 8009 bound_to 7997
  154.7782  140.0447  157.1094 H   0  0  0  0  0  0  0  0  0  0  0  0  # atno 8010 bound_to 7997
  140.4422  143.2511  151.8610 H   0  0  0  0  0  0  0  0  0  0  0  0  # atno 10167 bound_to 10162
  156.1795  130.6722  151.0286 H   0  0  0  0  0  0  0  0  0  0  0  0  # atno 10718 bound_to 10713
  154.8669  135.3652  154.5168 H   0  0  0  0  0  0  0  0  0  0  0  0  # atno 10763 bound_to 10752
  153.5800  135.7018  153.5472 H   0  0  0  0  0  0  0  0  0  0  0  0  # atno 10764 bound_to 10752
  153.3465  135.4083  155.1576 H   0  0  0  0  0  0  0  0  0  0  0  0  # atno 10765 bound_to 10752
  140.2074  134.8293  157.3084 H   0  0  0  0  0  0  0  0  0  0  0  0  # atno 11005 bound_to 11000
  146.3173  140.3446  142.8651 LP  0  0  0  0  0  0  0  0  0  0  0  0  # atno 17320 bound_to 7965
  144.9143  140.7794  143.5787 LP  0  0  0  0  0  0  0  0  0  0  0  0  # atno 17321 bound_to 7965
  139.4790  144.5216  151.8793 LP  0  0  0  0  0  0  0  0  0  0  0  0  # atno 17342 bound_to 10162
  140.4305  144.2122  150.5888 LP  0  0  0  0  0  0  0  0  0  0  0  0  # atno 17343 bound_to 10162
  157.6858  131.0825  150.7245 LP  0  0  0  0  0  0  0  0  0  0  0  0  # atno 17370 bound_to 10713
  156.7303  130.4707  149.5501 LP  0  0  0  0  0  0  0  0  0  0  0  0  # atno 17371 bound_to 10713
  140.1988  134.4281  155.7674 LP  0  0  0  0  0  0  0  0  0  0  0  0  # atno 17394 bound_to 11000
  141.2227  133.7062  156.8149 LP  0  0  0  0  0  0  0  0  0  0  0  0  # atno 17395 bound_to 11000

$$$$
