AV-unprocessed.smi:1184|AV-procd|sdf|4971|dock1
  -GOLD-   22720 3563D 1   1.00000     0.00000
 Structure written by MMmdl.
 43 44  0  0  0  0  0  0  0  0  2 V2000
  145.3153  132.0408  149.9247 C   0  0  0  0  0  0  0  0  0  0  0  0
  143.9180  132.6165  149.6555 C   0  0  0  0  0  0  0  0  0  0  0  0
  143.6718  133.8673  150.4120 N   0  3  1  0  0  0  0  0  0  0  0  0
  143.5798  133.7006  151.8802 C   0  0  0  0  0  0  0  0  0  0  0  0
  144.1053  135.0048  152.4735 C   0  0  0  0  0  0  0  0  0  0  0  0
  145.2204  135.3841  151.5039 C   0  0  2  0  0  0  0  0  0  0  0  0
  145.6484  136.8617  151.5931 C   0  0  0  0  0  0  0  0  0  0  0  0
  146.5856  137.0972  152.6869 N   0  0  0  0  0  0  0  0  0  0  0  0
  146.3841  137.9224  153.7262 C   0  0  0  0  0  0  0  0  0  0  0  0
  145.3691  138.6040  153.8659 O   0  0  0  0  0  0  0  0  0  0  0  0
  147.4987  137.9902  154.7702 C   0  0  0  0  0  0  0  0  0  0  0  0
  148.4444  139.1145  154.4323 C   0  0  0  0  0  0  0  0  0  0  0  0
  149.8692  139.0892  154.3910 C   0  0  0  0  0  0  0  0  0  0  0  0
  150.8024  137.9463  154.6710 C   0  0  0  0  0  0  0  0  0  0  0  0
  150.3742  140.2629  154.0521 N   0  0  0  0  0  0  0  0  0  0  0  0
  149.2797  141.1102  153.8574 O   0  0  0  0  0  0  0  0  0  0  0  0
  148.1440  140.4048  154.0896 C   0  0  0  0  0  0  0  0  0  0  0  0
  146.8582  141.1436  153.9318 C   0  0  0  0  0  0  0  0  0  0  0  0
  144.6543  134.9451  150.1439 C   0  0  0  0  0  0  0  0  0  0  0  0
  145.4487  131.0942  149.4007 H   0  0  0  0  0  0  0  0  0  0  0  0
  145.4666  131.8546  150.9884 H   0  0  0  0  0  0  0  0  0  0  0  0
  146.1021  132.7152  149.5856 H   0  0  0  0  0  0  0  0  0  0  0  0
  143.7765  132.7922  148.5881 H   0  0  0  0  0  0  0  0  0  0  0  0
  143.1743  131.8764  149.9535 H   0  0  0  0  0  0  0  0  0  0  0  0
  142.5596  133.4801  152.1956 H   0  0  0  0  0  0  0  0  0  0  0  0
  144.2176  132.8760  152.2030 H   0  0  0  0  0  0  0  0  0  0  0  0
  143.3197  135.7618  152.4661 H   0  0  0  0  0  0  0  0  0  0  0  0
  144.4558  134.8899  153.4998 H   0  0  0  0  0  0  0  0  0  0  0  0
  146.0825  134.7545  151.7317 H   0  0  0  0  0  0  0  0  0  0  0  0
  146.0658  137.2025  150.6439 H   0  0  0  0  0  0  0  0  0  0  0  0
  144.7708  137.4818  151.7776 H   0  0  0  0  0  0  0  0  0  0  0  0
  147.4490  136.5738  152.6639 H   0  0  0  0  0  0  0  0  0  0  0  0
  147.0617  138.1153  155.7616 H   0  0  0  0  0  0  0  0  0  0  0  0
  148.0179  137.0313  154.7927 H   0  0  0  0  0  0  0  0  0  0  0  0
  150.2903  137.1232  155.1688 H   0  0  0  0  0  0  0  0  0  0  0  0
  151.6246  138.2579  155.3157 H   0  0  0  0  0  0  0  0  0  0  0  0
  151.2321  137.5588  153.7470 H   0  0  0  0  0  0  0  0  0  0  0  0
  146.0428  140.6233  154.4340 H   0  0  0  0  0  0  0  0  0  0  0  0
  146.5978  141.2425  152.8781 H   0  0  0  0  0  0  0  0  0  0  0  0
  146.9309  142.1439  154.3588 H   0  0  0  0  0  0  0  0  0  0  0  0
  145.4503  134.6354  149.4649 H   0  0  0  0  0  0  0  0  0  0  0  0
  144.1162  135.7637  149.6654 H   0  0  0  0  0  0  0  0  0  0  0  0
  142.7799  134.2277  150.1034 H   0  0  0  0  0  0  0  0  0  0  0  0
  1  2  1  0  0  0  0
  1 20  1  0  0  0  0
  1 21  1  0  0  0  0
  1 22  1  0  0  0  0
  2  3  1  0  0  0  0
  2 23  1  0  0  0  0
  2 24  1  0  0  0  0
  3 19  1  0  0  0  0
  3  4  1  0  0  0  0
  3 43  1  0  0  0  0
  4  5  1  0  0  0  0
  4 25  1  0  0  0  0
  4 26  1  0  0  0  0
  5  6  1  0  0  0  0
  5 27  1  0  0  0  0
  5 28  1  0  0  0  0
  6  7  1  0  0  0  0
  6 19  1  0  0  0  0
  6 29  1  0  0  0  0
  7  8  1  0  0  0  0
  7 30  1  0  0  0  0
  7 31  1  0  0  0  0
  8  9  1  0  0  0  0
  8 32  1  0  0  0  0
  9 10  2  0  0  0  0
  9 11  1  0  0  0  0
 11 12  1  0  0  0  0
 11 33  1  0  0  0  0
 11 34  1  0  0  0  0
 12 17  2  0  0  0  0
 12 13  1  0  0  0  0
 13 14  1  0  0  0  0
 13 15  2  0  0  0  0
 14 35  1  0  0  0  0
 14 36  1  0  0  0  0
 14 37  1  0  0  0  0
 15 16  1  0  0  0  0
 16 17  1  0  0  0  0
 17 18  1  0  0  0  0
 18 38  1  0  0  0  0
 18 39  1  0  0  0  0
 18 40  1  0  0  0  0
 19 41  1  0  0  0  0
 19 42  1  0  0  0  0
M  CHG  1   3   1
M  END
> <s_m_source_file>
AV-unprocessed.smi

> <i_m_source_file_index>
1184

> <i_lp_mmshare_version>
43012

> <i_f3d_flags>
0

> <s_epik_input>
W0NIM11bQ0gyXU4xW0NIMl1bQ0gyXVtDQEhdKFtDSDJdMSlbQ0gyXVtOSF1DKD1PKVtDSDJdYzJjKFtDSDNdKW5vYzJbQ0gzXQ==

> <s_epik_cmdline>
J2VwaWtfcHl0aG9uJywgJy1waCcsICc3LjAnLCAnLXRuJywgJzgnLCAnLW1hJywgJzIwMCcsICctbWV0YWxfYmluZGluZycsICctaW1hZScsICc8aW5maWxlLm1hZT4nLCAnLW9tYWUnLCAnPG91dGZpbGUubWFlPic=

> <r_epik_Ionization_Penalty>
0.000590726

> <r_epik_Ionization_Penalty_Charging>
0.000590692

> <r_epik_Ionization_Penalty_Neutral>
3.44741e-08

> <r_epik_State_Penalty>
0.000371644

> <r_epik_Charging_Adjusted_Penalty>
0.000962336

> <i_epik_Tot_Q>
1

> <i_epik_Tot_abs_Q>
1

> <r_epik_Metal_State_Penalty>
-0

> <b_epik_Metal_Only>
0

> <s_lp_Force_Field>
OPLS_2005

> <r_lp_Energy>
22.6293

> <b_lp_Chiralities_Consistent>
1

> <s_lp_Variant>
AV-unprocessed.smi:1184-3

> <Gold.Version>
5.8.1

> <Gold.Id.Protein>
6NUR|6NUR_protein|mol2

> <Gold.PLP.Fitness>
45.3807

> <Gold.PLP.PLP>
-33.4969

> <Gold.PLP.part.hbond>
-4.4775

> <Gold.PLP.part.metal>
0.0000

> <Gold.PLP.part.buried>
-5.2024

> <Gold.PLP.part.nonpolar>
-26.7454

> <Gold.PLP.part.repulsive>
1.7076

> <Gold.PLP.ligand.clash>
0.0000

> <Gold.PLP.ligand.torsion>
0.7337

> <Gold.PLP.Chemscore.Hbond>
4.4183

> <Gold.PLP.Chemscore.CHOScore>
0.0000

> <Gold.PLP.Chemscore.Metal>
0.0000

> <Gold.Chemscore.Hbonds>
donor molecule, donor type, donor heavy atom, donor atom, acceptor molecule, acceptor atom, score
      L1  H     3    43       P1 10186  2.00
      L1  H     8    32       P1  7948  0.96
      P1  H  7989  7998       L1    15  0.89
      P1  H  8011  8017       L1    16  0.82

> <Gold.PLP.Chemscore.Internal.Correction>
0.0964

> <Gold.Rescore>
     Score         DG    S(hbond)    S(metal)    S(lipo)     H(rot)  DE(clash)    DE(int)     intcor
     18.80     -19.60       2.77        0.00      78.07       1.67       0.08       0.71       ----

> <Gold.Chemscore.Fitness>
18.8046

> <Gold.Chemscore.DG>
-19.5990

> <Gold.Chemscore.ZeroCoef>
-5.4800

> <Gold.Chemscore.Hbond>
2.7714

> <Gold.Chemscore.Metal>
0.0000

> <Gold.Chemscore.Lipo>
78.0673

> <Gold.Chemscore.Internal_Hbond>
0.0000

> <Gold.Chemscore.DEClash>
0.0843

> <Gold.Chemscore.DEInternal>
0.7101

> <Gold.Chemscore.Rot>
1.6684

> <Gold.Chemscore.Internal.Correction>
   9.000000E+99

> <Gold.Chemscore.Hbonds>
donor molecule, donor type, donor heavy atom, donor atom, acceptor molecule, acceptor atom, score
      L1  H     3    43       P1 10186  0.94
      L1  H     8    32       P1  7948  0.92
      P1  H  7989  7998       L1    15  0.60
      P1  H  8011  8017       L1    16  0.46

> <Gold.Chemscore.Hbond.Weighted>
-9.2563

> <Gold.Chemscore.Metal.Weighted>
-0.0000

> <Gold.Chemscore.Lipo.Weighted>
-9.1339

> <Gold.Chemscore.Internal_Hbond.Weighted>
0.0000

> <Gold.Chemscore.DEClash.Weighted>
0.0843

> <Gold.Chemscore.DEInternal.Weighted>
0.7101

> <Gold.Chemscore.Rot.Weighted>
4.2712

> <Gold.Chemscore.Internal.Correction.Weighted>
   9.000000E+99

> <Gold.Protein.RotatedTorsions>
[ 6907 6896 6895 6894 ] final  -20.69 input  -60.11 | X-H torsion
[ 7974 7965 7964 7962 ] final   -4.10 input  175.53 | X-H torsion
[ 8008 7997 7996 7995 ] final   42.09 input   59.86 | X-H torsion
[ 10167 10162 10161 10158 ] final   55.62 input  -65.29 | X-H torsion
[ 10718 10713 10712 10709 ] final   66.31 input   66.30 | X-H torsion
[ 10763 10752 10751 10750 ] final  -67.52 input  -60.55 | X-H torsion
[ 11005 11000 10999 10996 ] final   77.06 input  -57.11 | X-H torsion

> <Gold.Protein.ActiveResidues>
 VAL166  LYS551  ARG553  GLY616  TRP617  ASP618  TYR619  PRO620  LYS621  CYS622 
 ASP623  PHE694  ASN695  SER759  ASP760  ASP761  ALA762  ILE779  LEU786  VAL792 
 PHE793  MET794  SER795  GLU796  ALA797  LYS798  CYS799  TRP800  GLU811  SER814 

> <Gold.Protein.RotatedAtoms>
  151.2444  135.0600  159.9037 H   0  0  0  0  0  0  0  0  0  0  0  0  # atno 6907 bound_to 6896
  152.5389  134.0399  159.8073 H   0  0  0  0  0  0  0  0  0  0  0  0  # atno 6908 bound_to 6896
  151.0598  133.5505  159.2666 H   0  0  0  0  0  0  0  0  0  0  0  0  # atno 6909 bound_to 6896
  146.2378  140.1821  142.8332 H   0  0  0  0  0  0  0  0  0  0  0  0  # atno 7974 bound_to 7965
  155.2804  140.3372  155.4259 H   0  0  0  0  0  0  0  0  0  0  0  0  # atno 8008 bound_to 7997
  156.2092  140.1763  156.7773 H   0  0  0  0  0  0  0  0  0  0  0  0  # atno 8009 bound_to 7997
  154.5663  140.0678  156.8881 H   0  0  0  0  0  0  0  0  0  0  0  0  # atno 8010 bound_to 7997
  140.2175  144.3824  150.6464 H   0  0  0  0  0  0  0  0  0  0  0  0  # atno 10167 bound_to 10162
  157.6161  130.9261  150.0092 H   0  0  0  0  0  0  0  0  0  0  0  0  # atno 10718 bound_to 10713
  154.3757  135.6085  153.5764 H   0  0  0  0  0  0  0  0  0  0  0  0  # atno 10763 bound_to 10752
  152.9789  135.5849  154.4469 H   0  0  0  0  0  0  0  0  0  0  0  0  # atno 10764 bound_to 10752
  154.4230  135.2846  155.1940 H   0  0  0  0  0  0  0  0  0  0  0  0  # atno 10765 bound_to 10752
  139.9271  134.7652  156.1474 H   0  0  0  0  0  0  0  0  0  0  0  0  # atno 11005 bound_to 11000
  144.9926  140.8560  143.5330 LP  0  0  0  0  0  0  0  0  0  0  0  0  # atno 17320 bound_to 7965
  145.1829  139.2342  143.5283 LP  0  0  0  0  0  0  0  0  0  0  0  0  # atno 17321 bound_to 7965
  140.6279  143.2183  151.6557 LP  0  0  0  0  0  0  0  0  0  0  0  0  # atno 17342 bound_to 10162
  139.5157  144.3371  152.0774 LP  0  0  0  0  0  0  0  0  0  0  0  0  # atno 17343 bound_to 10162
  156.1284  130.3644  149.9771 LP  0  0  0  0  0  0  0  0  0  0  0  0  # atno 17370 bound_to 10713
  156.7837  130.9231  151.3646 LP  0  0  0  0  0  0  0  0  0  0  0  0  # atno 17371 bound_to 10713
  141.0835  133.6744  156.2387 LP  0  0  0  0  0  0  0  0  0  0  0  0  # atno 17394 bound_to 11000
  140.6306  134.5268  157.5559 LP  0  0  0  0  0  0  0  0  0  0  0  0  # atno 17395 bound_to 11000

$$$$
