AV-unprocessed.smi:2630|AV-procd|sdf|10247|dock7
  -GOLD-   2272014253D 1   1.00000     0.00000
 Structure written by MMmdl.
 34 35  0  0  0  0  0  0  0  0  2 V2000
  147.5222  134.6628  158.8378 C   0  0  0  0  0  0  0  0  0  0  0  0
  148.9039  134.9387  158.6963 O   0  0  0  0  0  0  0  0  0  0  0  0
  149.1528  136.2483  158.2135 C   0  0  0  0  0  0  0  0  0  0  0  0
  150.5954  136.6645  158.5484 C   0  0  0  0  0  0  0  0  0  0  0  0
  151.1849  137.5085  157.4870 N   0  0  0  0  0  0  0  0  0  0  0  0
  150.7138  138.8388  157.3278 C   0  0  0  0  0  0  0  0  0  0  0  0
  149.7151  139.3253  158.1554 N   0  0  0  0  0  0  0  0  0  0  0  0
  151.2532  139.6223  156.3671 C   0  0  0  0  0  0  0  0  0  0  0  0
  150.8109  141.3125  156.0301 S   0  0  0  0  0  0  0  0  0  0  0  0
  151.5746  142.1346  157.3892 C   0  0  0  0  0  0  0  0  0  0  0  0
  151.6026  143.5426  157.4344 C   0  0  0  0  0  0  0  0  0  0  0  0
  152.2089  144.1978  158.5241 C   0  0  0  0  0  0  0  0  0  0  0  0
  152.7872  143.4459  159.5660 C   0  0  0  0  0  0  0  0  0  0  0  0
  152.7607  142.0381  159.5182 C   0  0  0  0  0  0  0  0  0  0  0  0
  152.1550  141.3814  158.4293 C   0  0  0  0  0  0  0  0  0  0  0  0
  152.3089  139.1069  155.4931 C   0  0  0  0  0  0  0  0  0  0  0  0
  152.8023  139.8047  154.6059 O   0  0  0  0  0  0  0  0  0  0  0  0
  152.7125  137.8265  155.7151 N   0  5  0  0  0  0  0  0  0  0  0  0
  152.1864  137.0224  156.6868 C   0  0  0  0  0  0  0  0  0  0  0  0
  152.5917  135.8722  156.8594 O   0  0  0  0  0  0  0  0  0  0  0  0
  147.3888  133.6482  159.2129 H   0  0  0  0  0  0  0  0  0  0  0  0
  147.0046  134.7393  157.8810 H   0  0  0  0  0  0  0  0  0  0  0  0
  147.0542  135.3476  159.5462 H   0  0  0  0  0  0  0  0  0  0  0  0
  149.0124  136.2655  157.1318 H   0  0  0  0  0  0  0  0  0  0  0  0
  148.4399  136.9543  158.6422 H   0  0  0  0  0  0  0  0  0  0  0  0
  150.6160  137.1542  159.5231 H   0  0  0  0  0  0  0  0  0  0  0  0
  151.2068  135.7746  158.6981 H   0  0  0  0  0  0  0  0  0  0  0  0
  149.3051  138.7541  158.8801 H   0  0  0  0  0  0  0  0  0  0  0  0
  149.4417  140.2971  158.1407 H   0  0  0  0  0  0  0  0  0  0  0  0
  151.1586  144.1212  156.6378 H   0  0  0  0  0  0  0  0  0  0  0  0
  152.2299  145.2768  158.5613 H   0  0  0  0  0  0  0  0  0  0  0  0
  153.2509  143.9487  160.4018 H   0  0  0  0  0  0  0  0  0  0  0  0
  153.2036  141.4613  160.3167 H   0  0  0  0  0  0  0  0  0  0  0  0
  152.1333  140.3018  158.3960 H   0  0  0  0  0  0  0  0  0  0  0  0
  1  2  1  0  0  0  0
  1 21  1  0  0  0  0
  1 22  1  0  0  0  0
  1 23  1  0  0  0  0
  2  3  1  0  0  0  0
  3  4  1  0  0  0  0
  3 24  1  0  0  0  0
  3 25  1  0  0  0  0
  4  5  1  0  0  0  0
  4 26  1  0  0  0  0
  4 27  1  0  0  0  0
  5 19  1  0  0  0  0
  5  6  1  0  0  0  0
  6  7  1  0  0  0  0
  6  8  2  0  0  0  0
  7 28  1  0  0  0  0
  7 29  1  0  0  0  0
  8  9  1  0  0  0  0
  8 16  1  0  0  0  0
  9 10  1  0  0  0  0
 10 15  1  0  0  0  0
 10 11  2  0  0  0  0
 11 12  1  0  0  0  0
 11 30  1  0  0  0  0
 12 13  2  0  0  0  0
 12 31  1  0  0  0  0
 13 14  1  0  0  0  0
 13 32  1  0  0  0  0
 14 15  2  0  0  0  0
 14 33  1  0  0  0  0
 15 34  1  0  0  0  0
 16 17  2  0  0  0  0
 16 18  1  0  0  0  0
 18 19  1  0  0  0  0
 19 20  2  0  0  0  0
M  CHG  1  18  -1
M  END
> <s_m_source_file>
AV-unprocessed.smi

> <i_m_source_file_index>
2630

> <i_lp_mmshare_version>
43012

> <i_f3d_flags>
0

> <s_epik_input>
W0NIM11PW0NIMl1bQ0gyXW4xYyhbTkgyXSljKGMoPU8pW25IXWMxPU8pU2MyW2NIXVtjSF1bY0hdW2NIXVtjSF0y

> <s_epik_cmdline>
J2VwaWtfcHl0aG9uJywgJy1waCcsICc3LjAnLCAnLXRuJywgJzgnLCAnLW1hJywgJzIwMCcsICctbWV0YWxfYmluZGluZycsICctaW1hZScsICc8aW5maWxlLm1hZT4nLCAnLW9tYWUnLCAnPG91dGZpbGUubWFlPic=

> <r_lp_tautomer_probability>
1

> <r_epik_Ionization_Penalty>
6.52921

> <r_epik_Ionization_Penalty_Charging>
0.111036

> <r_epik_Ionization_Penalty_Neutral>
6.41817

> <r_epik_State_Penalty>
6.41816

> <r_epik_Charging_Adjusted_Penalty>
6.5292

> <i_epik_Tot_Q>
-1

> <i_epik_Tot_abs_Q>
1

> <r_epik_Metal_State_Penalty>
2.337

> <b_epik_Metal_Only>
1

> <s_epik_Chemistry_Notes>
This compound has an imine and may undergo hydrolysis.

> <s_lp_Force_Field>
OPLS_2005

> <r_lp_Energy>
30.4306

> <b_lp_Chiralities_Consistent>
1

> <s_lp_Variant>
AV-unprocessed.smi:2630-2

> <Gold.Version>
5.8.1

> <Gold.Id.Protein>
6NUR|6NUR_protein|mol2

> <Gold.PLP.Fitness>
42.3451

> <Gold.PLP.PLP>
-33.6651

> <Gold.PLP.part.hbond>
-4.1080

> <Gold.PLP.part.metal>
0.0000

> <Gold.PLP.part.buried>
-0.9553

> <Gold.PLP.part.nonpolar>
-27.7437

> <Gold.PLP.part.repulsive>
0.2266

> <Gold.PLP.ligand.clash>
0.0000

> <Gold.PLP.ligand.torsion>
0.6665

> <Gold.PLP.Chemscore.Hbond>
3.3265

> <Gold.PLP.Chemscore.CHOScore>
0.0000

> <Gold.PLP.Chemscore.Metal>
0.0000

> <Gold.Chemscore.Hbonds>
donor molecule, donor type, donor heavy atom, donor atom, acceptor molecule, acceptor atom, score
      P1  H  6896  6908       L1     2  1.00
      P1  H  7989  7998       L1    17  0.40
      P1  H  7997  8010       L1    17  0.53
      P1  H 10752 10764       L1    20  1.00

> <Gold.PLP.Chemscore.Internal.Correction>
0.0335

> <Gold.Rescore>
     Score         DG    S(hbond)    S(metal)    S(lipo)     H(rot)  DE(clash)    DE(int)     intcor
     16.38     -18.28       2.27        0.00      88.91       2.02       1.15       0.75       ----

> <Gold.Chemscore.Fitness>
16.3783

> <Gold.Chemscore.DG>
-18.2789

> <Gold.Chemscore.ZeroCoef>
-5.4800

> <Gold.Chemscore.Hbond>
2.2684

> <Gold.Chemscore.Metal>
0.0000

> <Gold.Chemscore.Lipo>
88.9064

> <Gold.Chemscore.Internal_Hbond>
0.0000

> <Gold.Chemscore.DEClash>
1.1542

> <Gold.Chemscore.DEInternal>
0.7464

> <Gold.Chemscore.Rot>
2.0234

> <Gold.Chemscore.Internal.Correction>
   9.000000E+99

> <Gold.Chemscore.Hbonds>
donor molecule, donor type, donor heavy atom, donor atom, acceptor molecule, acceptor atom, score
      P1  H  6896  6908       L1     2  0.29
      P1  H  7989  7998       L1    17  0.39
      P1  H  7997  8010       L1    17  0.10
      P1  H 10752 10764       L1    20  0.60

> <Gold.Chemscore.Hbond.Weighted>
-7.5766

> <Gold.Chemscore.Metal.Weighted>
-0.0000

> <Gold.Chemscore.Lipo.Weighted>
-10.4020

> <Gold.Chemscore.Internal_Hbond.Weighted>
0.0000

> <Gold.Chemscore.DEClash.Weighted>
1.1542

> <Gold.Chemscore.DEInternal.Weighted>
0.7464

> <Gold.Chemscore.Rot.Weighted>
5.1798

> <Gold.Chemscore.Internal.Correction.Weighted>
   9.000000E+99

> <Gold.Protein.RotatedTorsions>
[ 6907 6896 6895 6894 ] final  164.37 input  -60.11 | X-H torsion
[ 7974 7965 7964 7962 ] final  -27.17 input  175.53 | X-H torsion
[ 8008 7997 7996 7995 ] final  129.01 input   59.86 | X-H torsion
[ 10167 10162 10161 10158 ] final  117.15 input  -65.29 | X-H torsion
[ 10718 10713 10712 10709 ] final  -22.21 input   66.30 | X-H torsion
[ 10763 10752 10751 10750 ] final   -5.25 input  -60.55 | X-H torsion
[ 11005 11000 10999 10996 ] final  138.45 input  -57.11 | X-H torsion

> <Gold.Protein.ActiveResidues>
 VAL166  LYS551  ARG553  GLY616  TRP617  ASP618  TYR619  PRO620  LYS621  CYS622 
 ASP623  PHE694  ASN695  SER759  ASP760  ASP761  ALA762  ILE779  LEU786  VAL792 
 PHE793  MET794  SER795  GLU796  ALA797  LYS798  CYS799  TRP800  GLU811  SER814 

> <Gold.Protein.RotatedAtoms>
  151.9109  133.3561  159.3863 H   0  0  0  0  0  0  0  0  0  0  0  0  # atno 6907 bound_to 6896
  150.7058  134.4733  159.5445 H   0  0  0  0  0  0  0  0  0  0  0  0  # atno 6908 bound_to 6896
  152.2339  134.8295  160.0520 H   0  0  0  0  0  0  0  0  0  0  0  0  # atno 6909 bound_to 6896
  146.1376  140.5117  142.8666 H   0  0  0  0  0  0  0  0  0  0  0  0  # atno 7974 bound_to 7965
  156.2927  140.2631  156.2529 H   0  0  0  0  0  0  0  0  0  0  0  0  # atno 8008 bound_to 7997
  154.9865  140.0389  157.2319 H   0  0  0  0  0  0  0  0  0  0  0  0  # atno 8009 bound_to 7997
  154.7725  140.2780  155.6132 H   0  0  0  0  0  0  0  0  0  0  0  0  # atno 8010 bound_to 7997
  139.6198  144.7099  151.2659 H   0  0  0  0  0  0  0  0  0  0  0  0  # atno 10167 bound_to 10162
  156.5077  130.4602  149.6665 H   0  0  0  0  0  0  0  0  0  0  0  0  # atno 10718 bound_to 10713
  153.3960  135.7003  153.6460 H   0  0  0  0  0  0  0  0  0  0  0  0  # atno 10763 bound_to 10752
  153.5013  135.3651  155.2542 H   0  0  0  0  0  0  0  0  0  0  0  0  # atno 10764 bound_to 10752
  154.8706  135.4112  154.3286 H   0  0  0  0  0  0  0  0  0  0  0  0  # atno 10765 bound_to 10752
  140.0185  134.9407  157.0425 H   0  0  0  0  0  0  0  0  0  0  0  0  # atno 11005 bound_to 11000
  144.7756  140.5733  143.6640 LP  0  0  0  0  0  0  0  0  0  0  0  0  # atno 17320 bound_to 7965
  145.5121  139.1479  143.3599 LP  0  0  0  0  0  0  0  0  0  0  0  0  # atno 17321 bound_to 7965
  140.7375  143.6677  150.8109 LP  0  0  0  0  0  0  0  0  0  0  0  0  # atno 17342 bound_to 10162
  140.0286  143.5467  152.2770 LP  0  0  0  0  0  0  0  0  0  0  0  0  # atno 17343 bound_to 10162
  156.3271  130.7311  151.2234 LP  0  0  0  0  0  0  0  0  0  0  0  0  # atno 17370 bound_to 10713
  157.7455  131.0440  150.4771 LP  0  0  0  0  0  0  0  0  0  0  0  0  # atno 17371 bound_to 10713
  140.4429  134.1662  155.7175 LP  0  0  0  0  0  0  0  0  0  0  0  0  # atno 17394 bound_to 11000
  141.1758  133.8516  157.1424 LP  0  0  0  0  0  0  0  0  0  0  0  0  # atno 17395 bound_to 11000

$$$$
