AV-unprocessed.smi:2445|AV-procd|sdf|9640|dock2
  -GOLD-   2272013273D 1   1.00000     0.00000
 Structure written by MMmdl.
 40 41  0  0  0  0  0  0  0  0  1 V2000
  152.0980  141.4373  158.8135 C   0  0  0  0  0  0  0  0  0  0  0  0
  151.3887  141.1411  157.5361 C   0  0  0  0  0  0  0  0  0  0  0  0
  150.6387  142.0010  156.7730 C   0  0  0  0  0  0  0  0  0  0  0  0
  150.1024  141.4150  155.6247 N   0  0  0  0  0  0  0  0  0  0  0  0
  150.4350  140.1270  155.5033 C   0  0  0  0  0  0  0  0  0  0  0  0
  149.9677  139.2573  154.3743 C   0  0  1  0  0  0  0  0  0  0  0  0
  150.5276  137.8318  154.4785 C   0  0  0  0  0  0  0  0  0  0  0  0
  148.4318  139.2720  154.1997 C   0  0  0  0  0  0  0  0  0  0  0  0
  147.9606  138.2796  153.2377 N   0  0  0  0  0  0  0  0  0  0  0  0
  146.6752  138.0533  152.9364 C   0  0  0  0  0  0  0  0  0  0  0  0
  145.7354  138.7085  153.3870 O   0  0  0  0  0  0  0  0  0  0  0  0
  146.5365  137.0082  152.1103 N   0  0  0  0  0  0  0  0  0  0  0  0
  145.2593  136.4496  151.6792 C   0  0  1  0  0  0  0  0  0  0  0  0
  145.4465  135.2013  150.8424 C   0  0  0  0  0  0  0  0  0  0  0  0
  144.1099  134.4876  151.0248 C   0  0  0  0  0  0  0  0  0  0  0  0
  143.6157  134.8850  152.3003 O   0  0  0  0  0  0  0  0  0  0  0  0
  144.4419  135.9032  152.8567 C   0  0  2  0  0  0  0  0  0  0  0  0
  143.5827  136.9491  153.5778 C   0  0  0  0  0  0  0  0  0  0  0  0
  151.4407  139.5480  156.8285 S   0  0  0  0  0  0  0  0  0  0  0  0
  152.0913  142.5063  159.0283 H   0  0  0  0  0  0  0  0  0  0  0  0
  153.1372  141.1118  158.7641 H   0  0  0  0  0  0  0  0  0  0  0  0
  151.6214  140.9223  159.6477 H   0  0  0  0  0  0  0  0  0  0  0  0
  150.4345  143.0427  156.9716 H   0  0  0  0  0  0  0  0  0  0  0  0
  150.3928  139.6806  153.4629 H   0  0  0  0  0  0  0  0  0  0  0  0
  151.6175  137.8408  154.5146 H   0  0  0  0  0  0  0  0  0  0  0  0
  150.2312  137.2304  153.6187 H   0  0  0  0  0  0  0  0  0  0  0  0
  150.1682  137.3265  155.3752 H   0  0  0  0  0  0  0  0  0  0  0  0
  147.9345  139.1279  155.1600 H   0  0  0  0  0  0  0  0  0  0  0  0
  148.1151  140.2489  153.8333 H   0  0  0  0  0  0  0  0  0  0  0  0
  148.6601  137.6876  152.8142 H   0  0  0  0  0  0  0  0  0  0  0  0
  147.3707  136.5347  151.7953 H   0  0  0  0  0  0  0  0  0  0  0  0
  144.6736  137.1742  151.1094 H   0  0  0  0  0  0  0  0  0  0  0  0
  145.6765  135.4144  149.7981 H   0  0  0  0  0  0  0  0  0  0  0  0
  146.2494  134.5840  151.2489 H   0  0  0  0  0  0  0  0  0  0  0  0
  143.3987  134.8131  150.2647 H   0  0  0  0  0  0  0  0  0  0  0  0
  144.2062  133.4039  150.9550 H   0  0  0  0  0  0  0  0  0  0  0  0
  145.1068  135.4188  153.5739 H   0  0  0  0  0  0  0  0  0  0  0  0
  144.2031  137.7160  154.0420 H   0  0  0  0  0  0  0  0  0  0  0  0
  142.9871  136.4864  154.3648 H   0  0  0  0  0  0  0  0  0  0  0  0
  142.8982  137.4426  152.8875 H   0  0  0  0  0  0  0  0  0  0  0  0
  1  2  1  0  0  0  0
  1 20  1  0  0  0  0
  1 21  1  0  0  0  0
  1 22  1  0  0  0  0
  2 19  1  0  0  0  0
  2  3  2  0  0  0  0
  3  4  1  0  0  0  0
  3 23  1  0  0  0  0
  4  5  2  0  0  0  0
  5  6  1  0  0  0  0
  5 19  1  0  0  0  0
  6  7  1  0  0  0  0
  6  8  1  0  0  0  0
  6 24  1  0  0  0  0
  7 25  1  0  0  0  0
  7 26  1  0  0  0  0
  7 27  1  0  0  0  0
  8  9  1  0  0  0  0
  8 28  1  0  0  0  0
  8 29  1  0  0  0  0
  9 10  1  0  0  0  0
  9 30  1  0  0  0  0
 10 11  2  0  0  0  0
 10 12  1  0  0  0  0
 12 13  1  0  0  0  0
 12 31  1  0  0  0  0
 13 17  1  0  0  0  0
 13 14  1  0  0  0  0
 13 32  1  0  0  0  0
 14 15  1  0  0  0  0
 14 33  1  0  0  0  0
 14 34  1  0  0  0  0
 15 16  1  0  0  0  0
 15 35  1  0  0  0  0
 15 36  1  0  0  0  0
 16 17  1  0  0  0  0
 17 18  1  0  0  0  0
 17 37  1  0  0  0  0
 18 38  1  0  0  0  0
 18 39  1  0  0  0  0
 18 40  1  0  0  0  0
M  END
> <s_m_source_file>
AV-unprocessed.smi

> <i_m_source_file_index>
2445

> <i_lp_mmshare_version>
43012

> <i_f3d_flags>
0

> <s_epik_input>
W0NIM11jMVtjSF1uYyhzMSlbQ0BIXShbQ0gzXSlbQ0gyXVtOSF1DKD1PKVtOSF1bQ0BASF0yW0NIMl1bQ0gyXU9bQ0BIXTJbQ0gzXQ==

> <s_epik_cmdline>
J2VwaWtfcHl0aG9uJywgJy1waCcsICc3LjAnLCAnLXRuJywgJzgnLCAnLW1hJywgJzIwMCcsICctbWV0YWxfYmluZGluZycsICctaW1hZScsICc8aW5maWxlLm1hZT4nLCAnLW9tYWUnLCAnPG91dGZpbGUubWFlPic=

> <r_epik_Ionization_Penalty>
0.000649483

> <r_epik_Ionization_Penalty_Charging>
0

> <r_epik_Ionization_Penalty_Neutral>
0.000649483

> <r_epik_State_Penalty>
0.000379895

> <r_epik_Charging_Adjusted_Penalty>
0.000379895

> <i_epik_Tot_Q>
0

> <i_epik_Tot_abs_Q>
0

> <r_epik_Metal_State_Penalty>
-0

> <b_epik_Metal_Only>
0

> <s_lp_Force_Field>
OPLS_2005

> <r_lp_Energy>
5.35471

> <b_lp_Chiralities_Consistent>
1

> <s_lp_Variant>
AV-unprocessed.smi:2445-8

> <Gold.Version>
5.8.1

> <Gold.Id.Protein>
6NUR|6NUR_protein|mol2

> <Gold.PLP.Fitness>
38.3586

> <Gold.PLP.PLP>
-29.7337

> <Gold.PLP.part.hbond>
-3.2878

> <Gold.PLP.part.metal>
0.0000

> <Gold.PLP.part.buried>
-1.9094

> <Gold.PLP.part.nonpolar>
-27.7412

> <Gold.PLP.part.repulsive>
2.4037

> <Gold.PLP.ligand.clash>
0.0000

> <Gold.PLP.ligand.torsion>
0.1406

> <Gold.PLP.Chemscore.Hbond>
1.9280

> <Gold.PLP.Chemscore.CHOScore>
1.0000

> <Gold.PLP.Chemscore.Metal>
0.0000

> <Gold.Chemscore.Hbonds>
donor molecule, donor type, donor heavy atom, donor atom, acceptor molecule, acceptor atom, score
      L1  H     9    30       P1  7948  0.93
      L1  H    12    31       P1  7948  1.00
      L1  C     3    23       P1  8028  0.76

> <Gold.PLP.Chemscore.Internal.Correction>
0.1221

> <Gold.Rescore>
     Score         DG    S(hbond)    S(metal)    S(lipo)     H(rot)  DE(clash)    DE(int)     intcor
     14.43     -17.32       1.90        0.00      80.47       1.53       1.58       1.32       ----

> <Gold.Chemscore.Fitness>
14.4253

> <Gold.Chemscore.DG>
-17.3230

> <Gold.Chemscore.ZeroCoef>
-5.4800

> <Gold.Chemscore.Hbond>
1.9016

> <Gold.Chemscore.Metal>
0.0000

> <Gold.Chemscore.Lipo>
80.4703

> <Gold.Chemscore.Internal_Hbond>
0.0000

> <Gold.Chemscore.DEClash>
1.5771

> <Gold.Chemscore.DEInternal>
1.3206

> <Gold.Chemscore.Rot>
1.5325

> <Gold.Chemscore.Internal.Correction>
   9.000000E+99

> <Gold.Chemscore.Hbonds>
donor molecule, donor type, donor heavy atom, donor atom, acceptor molecule, acceptor atom, score
      L1  H     9    30       P1  7948  0.91
      L1  H    12    31       P1  7948  0.95

> <Gold.Chemscore.Hbond.Weighted>
-6.3513

> <Gold.Chemscore.Metal.Weighted>
-0.0000

> <Gold.Chemscore.Lipo.Weighted>
-9.4150

> <Gold.Chemscore.Internal_Hbond.Weighted>
0.0000

> <Gold.Chemscore.DEClash.Weighted>
1.5771

> <Gold.Chemscore.DEInternal.Weighted>
1.3206

> <Gold.Chemscore.Rot.Weighted>
3.9233

> <Gold.Chemscore.Internal.Correction.Weighted>
   9.000000E+99

> <Gold.Protein.RotatedTorsions>
[ 6907 6896 6895 6894 ] final   60.68 input  -60.11 | X-H torsion
[ 7974 7965 7964 7962 ] final   55.47 input  175.53 | X-H torsion
[ 8008 7997 7996 7995 ] final -179.92 input   59.86 | X-H torsion
[ 10167 10162 10161 10158 ] final  -32.88 input  -65.29 | X-H torsion
[ 10718 10713 10712 10709 ] final  -17.61 input   66.30 | X-H torsion
[ 10763 10752 10751 10750 ] final  159.77 input  -60.55 | X-H torsion
[ 11005 11000 10999 10996 ] final  -49.83 input  -57.11 | X-H torsion

> <Gold.Protein.ActiveResidues>
 VAL166  LYS551  ARG553  GLY616  TRP617  ASP618  TYR619  PRO620  LYS621  CYS622 
 ASP623  PHE694  ASN695  SER759  ASP760  ASP761  ALA762  ILE779  LEU786  VAL792 
 PHE793  MET794  SER795  GLU796  ALA797  LYS798  CYS799  TRP800  GLU811  SER814 

> <Gold.Protein.RotatedAtoms>
  152.4023  134.6265  160.0064 H   0  0  0  0  0  0  0  0  0  0  0  0  # atno 6907 bound_to 6896
  151.6466  133.3317  159.3150 H   0  0  0  0  0  0  0  0  0  0  0  0  # atno 6908 bound_to 6896
  150.7922  134.6997  159.6588 H   0  0  0  0  0  0  0  0  0  0  0  0  # atno 6909 bound_to 6896
  145.9501  139.3964  143.0311 H   0  0  0  0  0  0  0  0  0  0  0  0  # atno 7974 bound_to 7965
  156.0361  140.1293  157.0206 H   0  0  0  0  0  0  0  0  0  0  0  0  # atno 8008 bound_to 7997
  154.4370  140.1040  156.6240 H   0  0  0  0  0  0  0  0  0  0  0  0  # atno 8009 bound_to 7997
  155.5736  140.3467  155.4524 H   0  0  0  0  0  0  0  0  0  0  0  0  # atno 8010 bound_to 7997
  140.7214  143.3662  151.1867 H   0  0  0  0  0  0  0  0  0  0  0  0  # atno 10167 bound_to 10162
  156.5711  130.4750  149.6362 H   0  0  0  0  0  0  0  0  0  0  0  0  # atno 10718 bound_to 10713
  154.2369  135.2776  155.2869 H   0  0  0  0  0  0  0  0  0  0  0  0  # atno 10763 bound_to 10752
  154.5577  135.5656  153.6982 H   0  0  0  0  0  0  0  0  0  0  0  0  # atno 10764 bound_to 10752
  153.0008  135.6290  154.2512 H   0  0  0  0  0  0  0  0  0  0  0  0  # atno 10765 bound_to 10752
  141.0781  133.6660  156.3642 H   0  0  0  0  0  0  0  0  0  0  0  0  # atno 11005 bound_to 11000
  145.8183  140.9692  143.0912 LP  0  0  0  0  0  0  0  0  0  0  0  0  # atno 17320 bound_to 7965
  144.6794  140.0009  143.7484 LP  0  0  0  0  0  0  0  0  0  0  0  0  # atno 17321 bound_to 7965
  139.7224  143.9202  152.2990 LP  0  0  0  0  0  0  0  0  0  0  0  0  # atno 17342 bound_to 10162
  139.8964  144.6937  150.8714 LP  0  0  0  0  0  0  0  0  0  0  0  0  # atno 17343 bound_to 10162
  156.2713  130.7019  151.1817 LP  0  0  0  0  0  0  0  0  0  0  0  0  # atno 17370 bound_to 10713
  157.7348  131.0578  150.5506 LP  0  0  0  0  0  0  0  0  0  0  0  0  # atno 17371 bound_to 10713
  140.5528  134.6011  157.5412 LP  0  0  0  0  0  0  0  0  0  0  0  0  # atno 17394 bound_to 11000
  139.9594  134.7478  156.0270 LP  0  0  0  0  0  0  0  0  0  0  0  0  # atno 17395 bound_to 11000

$$$$
