AV-unprocessed.smi:1108|AV-procd|sdf|4787|dock1
  -GOLD-   22720 3333D 1   1.00000     0.00000
 Structure written by MMmdl.
 31 32  0  0  0  0  0  0  0  0  1 V2000
  150.7295  140.0557  155.2005 C   0  0  0  0  0  0  0  0  0  0  0  0
  149.5174  140.9538  155.4825 C   0  0  2  0  0  0  0  0  0  0  0  0
  148.6380  141.1198  154.2245 C   0  0  0  0  0  0  0  0  0  0  0  0
  147.3536  141.7332  154.5121 N   0  0  0  0  0  0  0  0  0  0  0  0
  146.7491  142.7966  153.8752 C   0  0  0  0  0  0  0  0  0  0  0  0
  145.5589  143.0236  154.5046 C   0  0  0  0  0  0  0  0  0  0  0  0
  145.5217  142.0317  155.5241 C   0  0  0  0  0  0  0  0  0  0  0  0
  146.5951  141.2580  155.5233 N   0  0  0  0  0  0  0  0  0  0  0  0
  149.9920  142.2517  155.9616 N   0  0  0  0  0  0  0  0  0  0  0  0
  151.0035  142.4473  156.8205 C   0  0  0  0  0  0  0  0  0  0  0  0
  151.6723  141.5421  157.3195 O   0  0  0  0  0  0  0  0  0  0  0  0
  151.1891  143.7489  157.0766 N   0  0  0  0  0  0  0  0  0  0  0  0
  152.1742  144.2849  157.9587 C   0  0  0  0  0  0  0  0  0  0  0  0
  152.4830  143.5100  159.2214 C   0  0  0  0  0  0  0  0  0  0  0  0
  151.7080  144.7961  159.3048 C   0  0  0  0  0  0  0  0  0  0  0  0
  150.4147  139.0650  154.8714 H   0  0  0  0  0  0  0  0  0  0  0  0
  151.3387  139.9252  156.0956 H   0  0  0  0  0  0  0  0  0  0  0  0
  151.3657  140.4778  154.4218 H   0  0  0  0  0  0  0  0  0  0  0  0
  148.9300  140.4635  156.2612 H   0  0  0  0  0  0  0  0  0  0  0  0
  149.1527  141.7199  153.4730 H   0  0  0  0  0  0  0  0  0  0  0  0
  148.4497  140.1470  153.7677 H   0  0  0  0  0  0  0  0  0  0  0  0
  147.2147  143.3016  153.0417 H   0  0  0  0  0  0  0  0  0  0  0  0
  144.8272  143.7831  154.2734 H   0  0  0  0  0  0  0  0  0  0  0  0
  144.7514  141.8515  156.2591 H   0  0  0  0  0  0  0  0  0  0  0  0
  149.5074  143.0653  155.6118 H   0  0  0  0  0  0  0  0  0  0  0  0
  150.5841  144.4134  156.6163 H   0  0  0  0  0  0  0  0  0  0  0  0
  153.0100  144.8198  157.5092 H   0  0  0  0  0  0  0  0  0  0  0  0
  151.9392  142.5839  159.3971 H   0  0  0  0  0  0  0  0  0  0  0  0
  153.5118  143.5192  159.5756 H   0  0  0  0  0  0  0  0  0  0  0  0
  152.2188  145.6645  159.7155 H   0  0  0  0  0  0  0  0  0  0  0  0
  150.6464  144.7285  159.5355 H   0  0  0  0  0  0  0  0  0  0  0  0
  1  2  1  0  0  0  0
  1 16  1  0  0  0  0
  1 17  1  0  0  0  0
  1 18  1  0  0  0  0
  2  3  1  0  0  0  0
  2  9  1  0  0  0  0
  2 19  1  0  0  0  0
  3  4  1  0  0  0  0
  3 20  1  0  0  0  0
  3 21  1  0  0  0  0
  4  8  1  0  0  0  0
  4  5  1  0  0  0  0
  5  6  2  0  0  0  0
  5 22  1  0  0  0  0
  6  7  1  0  0  0  0
  6 23  1  0  0  0  0
  7  8  2  0  0  0  0
  7 24  1  0  0  0  0
  9 10  1  0  0  0  0
  9 25  1  0  0  0  0
 10 11  2  0  0  0  0
 10 12  1  0  0  0  0
 12 13  1  0  0  0  0
 12 26  1  0  0  0  0
 13 15  1  0  0  0  0
 13 14  1  0  0  0  0
 13 27  1  0  0  0  0
 14 15  1  0  0  0  0
 14 28  1  0  0  0  0
 14 29  1  0  0  0  0
 15 30  1  0  0  0  0
 15 31  1  0  0  0  0
M  END
> <s_m_source_file>
AV-unprocessed.smi

> <i_m_source_file_index>
1108

> <i_lp_mmshare_version>
43012

> <i_f3d_flags>
0

> <s_epik_input>
W0NIMl0xW0NIMl1bQ0hdMVtOSF1DKD1PKVtOSF1bQ0BIXShbQ0gzXSlbQ0gyXW4yW2NIXVtjSF1bY0hdbjI=

> <s_epik_cmdline>
J2VwaWtfcHl0aG9uJywgJy1waCcsICc3LjAnLCAnLXRuJywgJzgnLCAnLW1hJywgJzIwMCcsICctbWV0YWxfYmluZGluZycsICctaW1hZScsICc8aW5maWxlLm1hZT4nLCAnLW9tYWUnLCAnPG91dGZpbGUubWFlPic=

> <r_lp_tautomer_probability>
1

> <r_epik_Ionization_Penalty>
7.55353e-05

> <r_epik_Ionization_Penalty_Charging>
0

> <r_epik_Ionization_Penalty_Neutral>
7.55353e-05

> <r_epik_State_Penalty>
-0

> <r_epik_Charging_Adjusted_Penalty>
0

> <i_epik_Tot_Q>
0

> <i_epik_Tot_abs_Q>
0

> <r_epik_Metal_State_Penalty>
-0

> <b_epik_Metal_Only>
0

> <s_lp_Force_Field>
OPLS_2005

> <r_lp_Energy>
13.7116

> <b_lp_Chiralities_Consistent>
1

> <s_lp_Variant>
AV-unprocessed.smi:1108-1

> <Gold.Version>
5.8.1

> <Gold.Id.Protein>
6NUR|6NUR_protein|mol2

> <Gold.PLP.Fitness>
42.2960

> <Gold.PLP.PLP>
-37.7362

> <Gold.PLP.part.hbond>
-2.0000

> <Gold.PLP.part.metal>
0.0000

> <Gold.PLP.part.buried>
-3.8625

> <Gold.PLP.part.nonpolar>
-31.6912

> <Gold.PLP.part.repulsive>
0.2450

> <Gold.PLP.ligand.clash>
0.0000

> <Gold.PLP.ligand.torsion>
0.6596

> <Gold.PLP.Chemscore.Hbond>
1.9440

> <Gold.PLP.Chemscore.CHOScore>
0.0000

> <Gold.PLP.Chemscore.Metal>
0.0000

> <Gold.Chemscore.Hbonds>
donor molecule, donor type, donor heavy atom, donor atom, acceptor molecule, acceptor atom, score
      L1  H     9    25       P1  8028  1.00
      L1  H    12    26       P1  8028  0.98

> <Gold.PLP.Chemscore.Internal.Correction>
0.0470

> <Gold.Rescore>
     Score         DG    S(hbond)    S(metal)    S(lipo)     H(rot)  DE(clash)    DE(int)     intcor
     14.31     -16.21       1.95        0.00      73.57       1.71       0.00       1.91       ----

> <Gold.Chemscore.Fitness>
14.3061

> <Gold.Chemscore.DG>
-16.2148

> <Gold.Chemscore.ZeroCoef>
-5.4800

> <Gold.Chemscore.Hbond>
1.9455

> <Gold.Chemscore.Metal>
0.0000

> <Gold.Chemscore.Lipo>
73.5727

> <Gold.Chemscore.Internal_Hbond>
0.0000

> <Gold.Chemscore.DEClash>
0.0025

> <Gold.Chemscore.DEInternal>
1.9061

> <Gold.Chemscore.Rot>
1.7075

> <Gold.Chemscore.Internal.Correction>
   9.000000E+99

> <Gold.Chemscore.Hbonds>
donor molecule, donor type, donor heavy atom, donor atom, acceptor molecule, acceptor atom, score
      L1  H     9    25       P1  8028  0.99
      L1  H    12    26       P1  8028  0.92

> <Gold.Chemscore.Hbond.Weighted>
-6.4980

> <Gold.Chemscore.Metal.Weighted>
-0.0000

> <Gold.Chemscore.Lipo.Weighted>
-8.6080

> <Gold.Chemscore.Internal_Hbond.Weighted>
0.0000

> <Gold.Chemscore.DEClash.Weighted>
0.0025

> <Gold.Chemscore.DEInternal.Weighted>
1.9061

> <Gold.Chemscore.Rot.Weighted>
4.3713

> <Gold.Chemscore.Internal.Correction.Weighted>
   9.000000E+99

> <Gold.Protein.RotatedTorsions>
[ 6907 6896 6895 6894 ] final -109.14 input  -60.11 | X-H torsion
[ 7974 7965 7964 7962 ] final   13.33 input  175.53 | X-H torsion
[ 8008 7997 7996 7995 ] final -179.08 input   59.86 | X-H torsion
[ 10167 10162 10161 10158 ] final   31.03 input  -65.29 | X-H torsion
[ 10718 10713 10712 10709 ] final  113.62 input   66.30 | X-H torsion
[ 10763 10752 10751 10750 ] final   36.79 input  -60.55 | X-H torsion
[ 11005 11000 10999 10996 ] final  134.07 input  -57.11 | X-H torsion

> <Gold.Protein.ActiveResidues>
 VAL166  LYS551  ARG553  GLY616  TRP617  ASP618  TYR619  PRO620  LYS621  CYS622 
 ASP623  PHE694  ASN695  SER759  ASP760  ASP761  ALA762  ILE779  LEU786  VAL792 
 PHE793  MET794  SER795  GLU796  ALA797  LYS798  CYS799  TRP800  GLU811  SER814 

> <Gold.Protein.RotatedAtoms>
  150.7544  133.9573  159.3504 H   0  0  0  0  0  0  0  0  0  0  0  0  # atno 6907 bound_to 6896
  151.7496  135.0834  160.0338 H   0  0  0  0  0  0  0  0  0  0  0  0  # atno 6908 bound_to 6896
  152.3475  133.6103  159.5957 H   0  0  0  0  0  0  0  0  0  0  0  0  # atno 6909 bound_to 6896
  146.2331  139.9204  142.8511 H   0  0  0  0  0  0  0  0  0  0  0  0  # atno 7974 bound_to 7965
  156.0264  140.1272  157.0304 H   0  0  0  0  0  0  0  0  0  0  0  0  # atno 8008 bound_to 7997
  154.4332  140.1058  156.6107 H   0  0  0  0  0  0  0  0  0  0  0  0  # atno 8009 bound_to 7997
  155.5871  140.3469  155.4558 H   0  0  0  0  0  0  0  0  0  0  0  0  # atno 8010 bound_to 7997
  140.4625  144.0886  150.6216 H   0  0  0  0  0  0  0  0  0  0  0  0  # atno 10167 bound_to 10162
  157.6328  131.0986  150.7067 H   0  0  0  0  0  0  0  0  0  0  0  0  # atno 10718 bound_to 10713
  153.0063  135.6296  154.2041 H   0  0  0  0  0  0  0  0  0  0  0  0  # atno 10763 bound_to 10752
  154.1785  135.2814  155.3061 H   0  0  0  0  0  0  0  0  0  0  0  0  # atno 10764 bound_to 10752
  154.5853  135.5634  153.7285 H   0  0  0  0  0  0  0  0  0  0  0  0  # atno 10765 bound_to 10752
  139.9891  134.9521  156.9814 H   0  0  0  0  0  0  0  0  0  0  0  0  # atno 11005 bound_to 11000
  145.2142  140.9908  143.4083 LP  0  0  0  0  0  0  0  0  0  0  0  0  # atno 17320 bound_to 7965
  144.9665  139.3924  143.6330 LP  0  0  0  0  0  0  0  0  0  0  0  0  # atno 17321 bound_to 7965
  140.4076  143.2672  151.9871 LP  0  0  0  0  0  0  0  0  0  0  0  0  # atno 17342 bound_to 10162
  139.4808  144.5943  151.7717 LP  0  0  0  0  0  0  0  0  0  0  0  0  # atno 17343 bound_to 10162
  156.7404  130.4737  149.5479 LP  0  0  0  0  0  0  0  0  0  0  0  0  # atno 17370 bound_to 10713
  156.1543  130.6331  151.0637 LP  0  0  0  0  0  0  0  0  0  0  0  0  # atno 17371 bound_to 10713
  140.4943  134.1161  155.7238 LP  0  0  0  0  0  0  0  0  0  0  0  0  # atno 17394 bound_to 11000
  141.1551  133.8898  157.1999 LP  0  0  0  0  0  0  0  0  0  0  0  0  # atno 17395 bound_to 11000

$$$$
