AV-unprocessed.smi:232|AV-procd|sdf|1771|dock10
  -GOLD-   2262020313D 1   1.00000     0.00000
 Structure written by MMmdl.
 52 55  0  0  0  0  0  0  0  0  1 V2000
  149.5930  133.3162  154.3521 C   0  0  0  0  0  0  0  0  0  0  0  0
  148.5707  134.4266  154.6274 C   0  0  0  0  0  0  0  0  0  0  0  0
  149.0883  135.4932  155.6123 C   0  0  2  0  0  0  0  0  0  0  0  0
  149.0115  135.0188  157.0815 C   0  0  0  0  0  0  0  0  0  0  0  0
  148.0145  135.9577  157.7684 C   0  0  0  0  0  0  0  0  0  0  0  0
  147.2840  136.6066  156.5949 C   0  0  1  0  0  0  0  0  0  0  0  0
  146.5253  137.9013  156.9450 C   0  0  0  0  0  0  0  0  0  0  0  0
  148.2896  136.7187  155.5394 N   0  0  0  0  0  0  0  0  0  0  0  0
  148.9901  137.8786  155.4767 C   0  0  0  0  0  0  0  0  0  0  0  0
  148.9873  138.6339  154.3456 N   0  0  0  0  0  0  0  0  0  0  0  0
  149.7011  139.7627  154.2931 C   0  0  0  0  0  0  0  0  0  0  0  0
  150.4735  140.3069  155.2364 N   0  0  0  0  0  0  0  0  0  0  0  0
  150.4776  139.5497  156.3708 C   0  0  0  0  0  0  0  0  0  0  0  0
  149.7695  138.3326  156.5730 C   0  0  0  0  0  0  0  0  0  0  0  0
  150.0162  137.8423  157.8491 N   0  0  0  0  0  0  0  0  0  0  0  0
  150.8281  138.7204  158.3728 C   0  0  0  0  0  0  0  0  0  0  0  0
  151.1591  139.7760  157.5534 N   0  0  0  0  0  0  0  0  0  0  0  0
  152.0413  140.8822  157.8810 C   0  0  0  0  0  0  0  0  0  0  0  0
  152.6930  140.7227  159.2686 C   0  0  1  0  0  0  0  0  0  0  0  0
  153.9715  140.1356  159.1197 O   0  0  0  0  0  0  0  0  0  0  0  0
  152.8472  142.0702  159.9974 C   0  0  2  0  0  0  0  0  0  0  0  0
  153.2368  141.9565  161.4729 C   0  0  0  0  0  0  0  0  0  0  0  0
  152.6900  143.2335  162.0929 C   0  0  0  0  0  0  0  0  0  0  0  0
  151.7402  143.7880  161.0284 C   0  0  0  0  0  0  0  0  0  0  0  0
  151.5987  142.7405  160.0796 O   0  0  0  0  0  0  0  0  0  0  0  0
  149.1794  132.5685  153.6754 H   0  0  0  0  0  0  0  0  0  0  0  0
  149.8801  132.8090  155.2735 H   0  0  0  0  0  0  0  0  0  0  0  0
  150.4984  133.7130  153.8918 H   0  0  0  0  0  0  0  0  0  0  0  0
  148.2723  134.8904  153.6865 H   0  0  0  0  0  0  0  0  0  0  0  0
  147.6703  133.9689  155.0386 H   0  0  0  0  0  0  0  0  0  0  0  0
  150.1311  135.6970  155.3622 H   0  0  0  0  0  0  0  0  0  0  0  0
  148.6698  133.9850  157.1470 H   0  0  0  0  0  0  0  0  0  0  0  0
  149.9866  135.0678  157.5673 H   0  0  0  0  0  0  0  0  0  0  0  0
  147.3384  135.4347  158.4451 H   0  0  0  0  0  0  0  0  0  0  0  0
  148.5516  136.7108  158.3465 H   0  0  0  0  0  0  0  0  0  0  0  0
  146.5429  135.8961  156.2265 H   0  0  0  0  0  0  0  0  0  0  0  0
  145.7490  137.7026  157.6841 H   0  0  0  0  0  0  0  0  0  0  0  0
  146.0394  138.3229  156.0647 H   0  0  0  0  0  0  0  0  0  0  0  0
  147.1853  138.6619  157.3640 H   0  0  0  0  0  0  0  0  0  0  0  0
  149.6481  140.3062  153.3613 H   0  0  0  0  0  0  0  0  0  0  0  0
  151.2133  138.6205  159.3773 H   0  0  0  0  0  0  0  0  0  0  0  0
  152.8036  140.9675  157.1052 H   0  0  0  0  0  0  0  0  0  0  0  0
  151.4561  141.8016  157.8422 H   0  0  0  0  0  0  0  0  0  0  0  0
  152.0845  140.0520  159.8769 H   0  0  0  0  0  0  0  0  0  0  0  0
  154.0809  139.4812  159.7926 H   0  0  0  0  0  0  0  0  0  0  0  0
  153.5585  142.7112  159.4723 H   0  0  0  0  0  0  0  0  0  0  0  0
  152.7479  141.0938  161.9278 H   0  0  0  0  0  0  0  0  0  0  0  0
  154.3121  141.8444  161.6144 H   0  0  0  0  0  0  0  0  0  0  0  0
  152.1676  143.0179  163.0255 H   0  0  0  0  0  0  0  0  0  0  0  0
  153.4851  143.9476  162.3103 H   0  0  0  0  0  0  0  0  0  0  0  0
  150.7738  144.0799  161.4392 H   0  0  0  0  0  0  0  0  0  0  0  0
  152.1794  144.6580  160.5384 H   0  0  0  0  0  0  0  0  0  0  0  0
  1  2  1  0  0  0  0
  1 26  1  0  0  0  0
  1 27  1  0  0  0  0
  1 28  1  0  0  0  0
  2  3  1  0  0  0  0
  2 29  1  0  0  0  0
  2 30  1  0  0  0  0
  3  8  1  0  0  0  0
  3  4  1  0  0  0  0
  3 31  1  0  0  0  0
  4  5  1  0  0  0  0
  4 32  1  0  0  0  0
  4 33  1  0  0  0  0
  5  6  1  0  0  0  0
  5 34  1  0  0  0  0
  5 35  1  0  0  0  0
  6  7  1  0  0  0  0
  6  8  1  0  0  0  0
  6 36  1  0  0  0  0
  7 37  1  0  0  0  0
  7 38  1  0  0  0  0
  7 39  1  0  0  0  0
  8  9  1  0  0  0  0
  9 14  1  0  0  0  0
  9 10  2  0  0  0  0
 10 11  1  0  0  0  0
 11 12  2  0  0  0  0
 11 40  1  0  0  0  0
 12 13  1  0  0  0  0
 13 17  1  0  0  0  0
 13 14  2  0  0  0  0
 14 15  1  0  0  0  0
 15 16  2  0  0  0  0
 16 17  1  0  0  0  0
 16 41  1  0  0  0  0
 17 18  1  0  0  0  0
 18 19  1  0  0  0  0
 18 42  1  0  0  0  0
 18 43  1  0  0  0  0
 19 20  1  0  0  0  0
 19 21  1  0  0  0  0
 19 44  1  0  0  0  0
 20 45  1  0  0  0  0
 21 25  1  0  0  0  0
 21 22  1  0  0  0  0
 21 46  1  0  0  0  0
 22 23  1  0  0  0  0
 22 47  1  0  0  0  0
 22 48  1  0  0  0  0
 23 24  1  0  0  0  0
 23 49  1  0  0  0  0
 23 50  1  0  0  0  0
 24 25  1  0  0  0  0
 24 51  1  0  0  0  0
 24 52  1  0  0  0  0
M  END
> <s_m_source_file>
AV-unprocessed.smi

> <i_m_source_file_index>
232

> <i_lp_mmshare_version>
43012

> <i_f3d_flags>
0

> <s_epik_input>
W0NIM11bQ0gyXVtDQEBIXTFbQ0gyXVtDSDJdW0NAQEhdKFtDSDNdKU4xYyhuW2NIXW4yKWMoYzIzKW5bY0hdbjNbQ0gyXVtDQEhdKFtPSF0pW0NAQEhdNFtDSDJdW0NIMl1bQ0gyXU80

> <s_epik_cmdline>
J2VwaWtfcHl0aG9uJywgJy1waCcsICc3LjAnLCAnLXRuJywgJzgnLCAnLW1hJywgJzIwMCcsICctbWV0YWxfYmluZGluZycsICctaW1hZScsICc8aW5maWxlLm1hZT4nLCAnLW9tYWUnLCAnPG91dGZpbGUubWFlPic=

> <r_lp_tautomer_probability>
1

> <r_epik_Ionization_Penalty>
0.00258048

> <r_epik_Ionization_Penalty_Charging>
0

> <r_epik_Ionization_Penalty_Neutral>
0.00258048

> <r_epik_State_Penalty>
0.00168551

> <r_epik_Charging_Adjusted_Penalty>
0.00168551

> <i_epik_Tot_Q>
0

> <i_epik_Tot_abs_Q>
0

> <r_epik_Metal_State_Penalty>
-0

> <b_epik_Metal_Only>
0

> <s_lp_Force_Field>
OPLS_2005

> <r_lp_Energy>
56.5001

> <b_lp_Chiralities_Consistent>
1

> <s_lp_Variant>
AV-unprocessed.smi:232-5

> <Gold.Version>
5.8.1

> <Gold.Id.Protein>
6NUR|6NUR_protein|mol2

> <Gold.PLP.Fitness>
37.6830

> <Gold.PLP.PLP>
-36.1790

> <Gold.PLP.part.hbond>
-1.9969

> <Gold.PLP.part.metal>
0.0000

> <Gold.PLP.part.buried>
-5.2041

> <Gold.PLP.part.nonpolar>
-27.5703

> <Gold.PLP.part.repulsive>
0.3022

> <Gold.PLP.ligand.clash>
0.0000

> <Gold.PLP.ligand.torsion>
0.7920

> <Gold.PLP.Chemscore.Hbond>
0.0000

> <Gold.PLP.Chemscore.CHOScore>
1.0000

> <Gold.PLP.Chemscore.Metal>
0.0000

> <Gold.Chemscore.Hbonds>
donor molecule, donor type, donor heavy atom, donor atom, acceptor molecule, acceptor atom, score
      P1  H  7989  7998       L1    12  0.03
      L1  C    11    40       P1  7957  1.00

> <Gold.PLP.Chemscore.Internal.Correction>
0.0881

> <Gold.Rescore>
     Score         DG    S(hbond)    S(metal)    S(lipo)     H(rot)  DE(clash)    DE(int)     intcor
      6.84      -9.12       0.00        0.00      84.21       2.43       0.03       2.26       ----

> <Gold.Chemscore.Fitness>
6.8354

> <Gold.Chemscore.DG>
-9.1231

> <Gold.Chemscore.ZeroCoef>
-5.4800

> <Gold.Chemscore.Hbond>
0.0004

> <Gold.Chemscore.Metal>
0.0000

> <Gold.Chemscore.Lipo>
84.2086

> <Gold.Chemscore.Internal_Hbond>
0.0000

> <Gold.Chemscore.DEClash>
0.0258

> <Gold.Chemscore.DEInternal>
2.2620

> <Gold.Chemscore.Rot>
2.4260

> <Gold.Chemscore.Internal.Correction>
   9.000000E+99

> <Gold.Chemscore.Hbonds>
donor molecule, donor type, donor heavy atom, donor atom, acceptor molecule, acceptor atom, score
      P1  H  7997  8010       L1    20  0.01

> <Gold.Chemscore.Hbond.Weighted>
-0.0014

> <Gold.Chemscore.Metal.Weighted>
-0.0000

> <Gold.Chemscore.Lipo.Weighted>
-9.8524

> <Gold.Chemscore.Internal_Hbond.Weighted>
0.0000

> <Gold.Chemscore.DEClash.Weighted>
0.0258

> <Gold.Chemscore.DEInternal.Weighted>
2.2620

> <Gold.Chemscore.Rot.Weighted>
6.2107

> <Gold.Chemscore.Internal.Correction.Weighted>
   9.000000E+99

> <Gold.Protein.RotatedTorsions>
[ 6907 6896 6895 6894 ] final  -49.35 input  -60.11 | X-H torsion
[ 7974 7965 7964 7962 ] final -176.72 input  175.53 | X-H torsion
[ 8008 7997 7996 7995 ] final   58.42 input   59.86 | X-H torsion
[ 10167 10162 10161 10158 ] final   89.15 input  -65.29 | X-H torsion
[ 10718 10713 10712 10709 ] final  -40.80 input   66.30 | X-H torsion
[ 10763 10752 10751 10750 ] final   97.29 input  -60.55 | X-H torsion
[ 11005 11000 10999 10996 ] final  -66.15 input  -57.11 | X-H torsion

> <Gold.Protein.ActiveResidues>
 VAL166  LYS551  ARG553  GLY616  TRP617  ASP618  TYR619  PRO620  LYS621  CYS622 
 ASP623  PHE694  ASN695  SER759  ASP760  ASP761  ALA762  ILE779  LEU786  VAL792 
 PHE793  MET794  SER795  GLU796  ALA797  LYS798  CYS799  TRP800  GLU811  SER814 

> <Gold.Protein.RotatedAtoms>
  150.8814  134.8206  159.7227 H   0  0  0  0  0  0  0  0  0  0  0  0  # atno 6907 bound_to 6896
  152.4780  134.4790  159.9669 H   0  0  0  0  0  0  0  0  0  0  0  0  # atno 6908 bound_to 6896
  151.4864  133.3496  159.2882 H   0  0  0  0  0  0  0  0  0  0  0  0  # atno 6909 bound_to 6896
  144.7127  140.1128  143.6410 H   0  0  0  0  0  0  0  0  0  0  0  0  # atno 7974 bound_to 7965
  155.5497  140.3486  155.4465 H   0  0  0  0  0  0  0  0  0  0  0  0  # atno 8008 bound_to 7997
  156.0592  140.1336  156.9987 H   0  0  0  0  0  0  0  0  0  0  0  0  # atno 8009 bound_to 7997
  154.4471  140.0989  156.6476 H   0  0  0  0  0  0  0  0  0  0  0  0  # atno 8010 bound_to 7997
  139.8602  144.6548  150.9067 H   0  0  0  0  0  0  0  0  0  0  0  0  # atno 10167 bound_to 10162
  156.2773  130.4213  149.8374 H   0  0  0  0  0  0  0  0  0  0  0  0  # atno 10718 bound_to 10713
  153.2752  135.4188  155.1026 H   0  0  0  0  0  0  0  0  0  0  0  0  # atno 10763 bound_to 10752
  154.8470  135.3482  154.6189 H   0  0  0  0  0  0  0  0  0  0  0  0  # atno 10764 bound_to 10752
  153.6609  135.7048  153.5235 H   0  0  0  0  0  0  0  0  0  0  0  0  # atno 10765 bound_to 10752
  141.1474  133.6694  156.6095 H   0  0  0  0  0  0  0  0  0  0  0  0  # atno 11005 bound_to 11000
  145.9440  139.2688  143.1252 LP  0  0  0  0  0  0  0  0  0  0  0  0  # atno 17320 bound_to 7965
  145.9394  140.8991  143.0316 LP  0  0  0  0  0  0  0  0  0  0  0  0  # atno 17321 bound_to 7965
  140.7776  143.3751  151.1578 LP  0  0  0  0  0  0  0  0  0  0  0  0  # atno 17342 bound_to 10162
  139.7381  143.8967  152.3041 LP  0  0  0  0  0  0  0  0  0  0  0  0  # atno 17343 bound_to 10162
  156.5834  130.8475  151.3389 LP  0  0  0  0  0  0  0  0  0  0  0  0  # atno 17370 bound_to 10713
  157.7303  130.9684  150.1828 LP  0  0  0  0  0  0  0  0  0  0  0  0  # atno 17371 bound_to 10713
  140.3626  134.7675  157.4544 LP  0  0  0  0  0  0  0  0  0  0  0  0  # atno 17394 bound_to 11000
  140.0773  134.5779  155.8577 LP  0  0  0  0  0  0  0  0  0  0  0  0  # atno 17395 bound_to 11000

$$$$
