AV-unprocessed.smi:2166|AV-procd|sdf|8815|dock4
  -GOLD-   2272012 03D 1   1.00000     0.00000
 Structure written by MMmdl.
 38 39  0  0  0  0  0  0  0  0  1 V2000
  149.8648  131.9377  155.4287 C   0  0  0  0  0  0  0  0  0  0  0  0
  150.0386  133.1394  156.7763 S   0  0  0  0  0  0  0  0  0  0  0  0
  150.5529  134.6225  155.8587 C   0  0  1  0  0  0  0  0  0  0  0  0
  149.6012  134.8731  154.6779 C   0  0  0  0  0  0  0  0  0  0  0  0
  150.6504  135.8531  156.7704 C   0  0  0  0  0  0  0  0  0  0  0  0
  150.2849  135.7767  157.9440 O   0  0  0  0  0  0  0  0  0  0  0  0
  151.1544  136.9636  156.1991 N   0  0  0  0  0  0  0  0  0  0  0  0
  151.3946  138.2298  156.7944 C   0  0  0  0  0  0  0  0  0  0  0  0
  151.3302  139.3276  155.9108 C   0  0  0  0  0  0  0  0  0  0  0  0
  151.5650  140.6261  156.4010 C   0  0  0  0  0  0  0  0  0  0  0  0
  151.8635  140.8138  157.7690 C   0  0  0  0  0  0  0  0  0  0  0  0
  152.1082  142.1074  158.2786 N   0  0  0  0  0  0  0  0  0  0  0  0
  151.4477  143.2387  157.6337 C   0  0  0  0  0  0  0  0  0  0  0  0
  152.0565  144.5644  158.1222 C   0  0  0  0  0  0  0  0  0  0  0  0
  151.9910  144.6272  159.5429 O   0  0  0  0  0  0  0  0  0  0  0  0
  152.7356  143.5782  160.1532 C   0  0  0  0  0  0  0  0  0  0  0  0
  152.1568  142.2151  159.7348 C   0  0  0  0  0  0  0  0  0  0  0  0
  151.8950  139.6510  158.5768 C   0  0  0  0  0  0  0  0  0  0  0  0
  151.6718  138.4051  158.1083 N   0  0  0  0  0  0  0  0  0  0  0  0
  149.5069  130.9861  155.8214 H   0  0  0  0  0  0  0  0  0  0  0  0
  150.8220  131.7645  154.9374 H   0  0  0  0  0  0  0  0  0  0  0  0
  149.1505  132.2957  154.6873 H   0  0  0  0  0  0  0  0  0  0  0  0
  151.5404  134.4176  155.4420 H   0  0  0  0  0  0  0  0  0  0  0  0
  149.8834  135.7682  154.1222 H   0  0  0  0  0  0  0  0  0  0  0  0
  148.5699  134.9970  155.0111 H   0  0  0  0  0  0  0  0  0  0  0  0
  149.6217  134.0358  153.9795 H   0  0  0  0  0  0  0  0  0  0  0  0
  151.4129  136.8853  155.2266 H   0  0  0  0  0  0  0  0  0  0  0  0
  151.1035  139.1820  154.8646 H   0  0  0  0  0  0  0  0  0  0  0  0
  151.5020  141.4642  155.7231 H   0  0  0  0  0  0  0  0  0  0  0  0
  151.5546  143.1708  156.5505 H   0  0  0  0  0  0  0  0  0  0  0  0
  150.3812  143.2147  157.8627 H   0  0  0  0  0  0  0  0  0  0  0  0
  153.0913  144.6636  157.7898 H   0  0  0  0  0  0  0  0  0  0  0  0
  151.5057  145.4068  157.7036 H   0  0  0  0  0  0  0  0  0  0  0  0
  153.7880  143.6552  159.8752 H   0  0  0  0  0  0  0  0  0  0  0  0
  152.6842  143.6907  161.2363 H   0  0  0  0  0  0  0  0  0  0  0  0
  151.1457  142.1039  160.1291 H   0  0  0  0  0  0  0  0  0  0  0  0
  152.7584  141.4233  160.1791 H   0  0  0  0  0  0  0  0  0  0  0  0
  152.1194  139.6977  159.6318 H   0  0  0  0  0  0  0  0  0  0  0  0
  1  2  1  0  0  0  0
  1 20  1  0  0  0  0
  1 21  1  0  0  0  0
  1 22  1  0  0  0  0
  2  3  1  0  0  0  0
  3  4  1  0  0  0  0
  3  5  1  0  0  0  0
  3 23  1  0  0  0  0
  4 24  1  0  0  0  0
  4 25  1  0  0  0  0
  4 26  1  0  0  0  0
  5  6  2  0  0  0  0
  5  7  1  0  0  0  0
  7  8  1  0  0  0  0
  7 27  1  0  0  0  0
  8 19  1  0  0  0  0
  8  9  2  0  0  0  0
  9 10  1  0  0  0  0
  9 28  1  0  0  0  0
 10 11  2  0  0  0  0
 10 29  1  0  0  0  0
 11 12  1  0  0  0  0
 11 18  1  0  0  0  0
 12 17  1  0  0  0  0
 12 13  1  0  0  0  0
 13 14  1  0  0  0  0
 13 30  1  0  0  0  0
 13 31  1  0  0  0  0
 14 15  1  0  0  0  0
 14 32  1  0  0  0  0
 14 33  1  0  0  0  0
 15 16  1  0  0  0  0
 16 17  1  0  0  0  0
 16 34  1  0  0  0  0
 16 35  1  0  0  0  0
 17 36  1  0  0  0  0
 17 37  1  0  0  0  0
 18 19  2  0  0  0  0
 18 38  1  0  0  0  0
M  END
> <s_m_source_file>
AV-unprocessed.smi

> <i_m_source_file_index>
2166

> <i_lp_mmshare_version>
43012

> <i_f3d_flags>
0

> <s_epik_input>
W0NIM11TW0NASF0oW0NIM10pQyg9TylbTkhdYzFbY0hdW2NIXWMoW2NIXW4xKU4yW0NIMl1bQ0gyXU9bQ0gyXVtDSDJdMg==

> <s_epik_cmdline>
J2VwaWtfcHl0aG9uJywgJy1waCcsICc3LjAnLCAnLXRuJywgJzgnLCAnLW1hJywgJzIwMCcsICctbWV0YWxfYmluZGluZycsICctaW1hZScsICc8aW5maWxlLm1hZT4nLCAnLW9tYWUnLCAnPG91dGZpbGUubWFlPic=

> <r_lp_tautomer_probability>
1

> <r_epik_Ionization_Penalty>
0.0038652

> <r_epik_Ionization_Penalty_Charging>
0

> <r_epik_Ionization_Penalty_Neutral>
0.0038652

> <r_epik_State_Penalty>
0.00681294

> <r_epik_Charging_Adjusted_Penalty>
0.00681294

> <i_epik_Tot_Q>
0

> <i_epik_Tot_abs_Q>
0

> <r_epik_Metal_State_Penalty>
-0

> <b_epik_Metal_Only>
0

> <s_lp_Force_Field>
OPLS_2005

> <r_lp_Energy>
24.7489

> <b_lp_Chiralities_Consistent>
1

> <s_lp_Variant>
AV-unprocessed.smi:2166-2

> <Gold.Version>
5.8.1

> <Gold.Id.Protein>
6NUR|6NUR_protein|mol2

> <Gold.PLP.Fitness>
34.0545

> <Gold.PLP.PLP>
-33.2475

> <Gold.PLP.part.hbond>
-1.0000

> <Gold.PLP.part.metal>
0.0000

> <Gold.PLP.part.buried>
-4.2839

> <Gold.PLP.part.nonpolar>
-28.4241

> <Gold.PLP.part.repulsive>
0.1238

> <Gold.PLP.ligand.clash>
0.0000

> <Gold.PLP.ligand.torsion>
0.7264

> <Gold.PLP.Chemscore.Hbond>
0.6240

> <Gold.PLP.Chemscore.CHOScore>
0.0000

> <Gold.PLP.Chemscore.Metal>
0.0000

> <Gold.Chemscore.Hbonds>
donor molecule, donor type, donor heavy atom, donor atom, acceptor molecule, acceptor atom, score
      P1  H  6896  6908       L1     6  0.75

> <Gold.PLP.Chemscore.Internal.Correction>
0.3878

> <Gold.Rescore>
     Score         DG    S(hbond)    S(metal)    S(lipo)     H(rot)  DE(clash)    DE(int)     intcor
     13.73     -15.53       0.93        0.00      87.89       1.31       0.00       1.79       ----

> <Gold.Chemscore.Fitness>
13.7330

> <Gold.Chemscore.DG>
-15.5280

> <Gold.Chemscore.ZeroCoef>
-5.4800

> <Gold.Chemscore.Hbond>
0.9339

> <Gold.Chemscore.Metal>
0.0000

> <Gold.Chemscore.Lipo>
87.8945

> <Gold.Chemscore.Internal_Hbond>
0.0000

> <Gold.Chemscore.DEClash>
0.0000

> <Gold.Chemscore.DEInternal>
1.7950

> <Gold.Chemscore.Rot>
1.3105

> <Gold.Chemscore.Internal.Correction>
   9.000000E+99

> <Gold.Chemscore.Hbonds>
donor molecule, donor type, donor heavy atom, donor atom, acceptor molecule, acceptor atom, score
      P1  H  6896  6908       L1     6  0.72

> <Gold.Chemscore.Hbond.Weighted>
-3.1193

> <Gold.Chemscore.Metal.Weighted>
-0.0000

> <Gold.Chemscore.Lipo.Weighted>
-10.2837

> <Gold.Chemscore.Internal_Hbond.Weighted>
0.0000

> <Gold.Chemscore.DEClash.Weighted>
0.0000

> <Gold.Chemscore.DEInternal.Weighted>
1.7950

> <Gold.Chemscore.Rot.Weighted>
3.3549

> <Gold.Chemscore.Internal.Correction.Weighted>
   9.000000E+99

> <Gold.Protein.RotatedTorsions>
[ 6907 6896 6895 6894 ] final  179.68 input  -60.11 | X-H torsion
[ 7974 7965 7964 7962 ] final  138.23 input  175.53 | X-H torsion
[ 8008 7997 7996 7995 ] final   97.56 input   59.86 | X-H torsion
[ 10167 10162 10161 10158 ] final   -6.68 input  -65.29 | X-H torsion
[ 10718 10713 10712 10709 ] final    4.55 input   66.30 | X-H torsion
[ 10763 10752 10751 10750 ] final  -12.37 input  -60.55 | X-H torsion
[ 11005 11000 10999 10996 ] final  113.43 input  -57.11 | X-H torsion

> <Gold.Protein.ActiveResidues>
 VAL166  LYS551  ARG553  GLY616  TRP617  ASP618  TYR619  PRO620  LYS621  CYS622 
 ASP623  PHE694  ASN695  SER759  ASP760  ASP761  ALA762  ILE779  LEU786  VAL792 
 PHE793  MET794  SER795  GLU796  ALA797  LYS798  CYS799  TRP800  GLU811  SER814 

> <Gold.Protein.RotatedAtoms>
  151.6677  133.3315  159.3188 H   0  0  0  0  0  0  0  0  0  0  0  0  # atno 6907 bound_to 6896
  150.7883  134.6889  159.6495 H   0  0  0  0  0  0  0  0  0  0  0  0  # atno 6908 bound_to 6896
  152.3957  134.6373  160.0142 H   0  0  0  0  0  0  0  0  0  0  0  0  # atno 6909 bound_to 6896
  144.9392  139.4952  143.5580 H   0  0  0  0  0  0  0  0  0  0  0  0  # atno 7974 bound_to 7965
  156.0914  140.3256  155.7821 H   0  0  0  0  0  0  0  0  0  0  0  0  # atno 8008 bound_to 7997
  155.4989  140.0567  157.2959 H   0  0  0  0  0  0  0  0  0  0  0  0  # atno 8009 bound_to 7997
  154.4640  140.1980  156.0183 H   0  0  0  0  0  0  0  0  0  0  0  0  # atno 8010 bound_to 7997
  140.7005  143.6167  150.8652 H   0  0  0  0  0  0  0  0  0  0  0  0  # atno 10167 bound_to 10162
  156.8942  130.5698  149.5649 H   0  0  0  0  0  0  0  0  0  0  0  0  # atno 10718 bound_to 10713
  153.4975  135.7017  153.5850 H   0  0  0  0  0  0  0  0  0  0  0  0  # atno 10763 bound_to 10752
  153.3996  135.3875  155.1978 H   0  0  0  0  0  0  0  0  0  0  0  0  # atno 10764 bound_to 10752
  154.8713  135.3878  154.4442 H   0  0  0  0  0  0  0  0  0  0  0  0  # atno 10765 bound_to 10752
  139.8953  134.9549  156.6738 H   0  0  0  0  0  0  0  0  0  0  0  0  # atno 11005 bound_to 11000
  146.3279  139.8398  142.8892 LP  0  0  0  0  0  0  0  0  0  0  0  0  # atno 17320 bound_to 7965
  145.3018  141.0196  143.3604 LP  0  0  0  0  0  0  0  0  0  0  0  0  # atno 17321 bound_to 7965
  139.9888  143.5869  152.2917 LP  0  0  0  0  0  0  0  0  0  0  0  0  # atno 17342 bound_to 10162
  139.6517  144.7661  151.2135 LP  0  0  0  0  0  0  0  0  0  0  0  0  # atno 17343 bound_to 10162
  156.0614  130.5665  150.9199 LP  0  0  0  0  0  0  0  0  0  0  0  0  # atno 17370 bound_to 10713
  157.6065  131.0938  150.8870 LP  0  0  0  0  0  0  0  0  0  0  0  0  # atno 17371 bound_to 10713
  140.7353  133.9024  155.8239 LP  0  0  0  0  0  0  0  0  0  0  0  0  # atno 17394 bound_to 11000
  141.0121  134.1006  157.4210 LP  0  0  0  0  0  0  0  0  0  0  0  0  # atno 17395 bound_to 11000

$$$$
