AV-unprocessed.smi:72|AV-procd|sdf|703|dock9
  -GOLD-   2262017 23D 1   1.00000     0.00000
 Structure written by MMmdl.
 30 31  0  0  0  0  0  0  0  0  2 V2000
  152.6777  141.4988  158.7979 N   0  0  0  0  0  0  0  0  0  0  0  0
  151.9952  141.2259  157.6305 C   0  0  0  0  0  0  0  0  0  0  0  0
  150.8079  141.8987  157.4073 N   0  3  0  0  0  0  0  0  0  0  0  0
  150.0191  141.7301  156.3379 C   0  0  0  0  0  0  0  0  0  0  0  0
  150.3464  140.8323  155.4315 N   0  0  0  0  0  0  0  0  0  0  0  0
  149.4823  140.6597  154.2064 C   0  0  2  0  0  0  0  0  0  0  0  0
  148.7499  141.8335  154.0624 O   0  0  0  0  0  0  0  0  0  0  0  0
  147.4368  141.5126  153.6247 C   0  0  2  0  0  0  0  0  0  0  0  0
  146.4679  142.6470  153.9930 C   0  0  0  0  0  0  0  0  0  0  0  0
  146.5415  142.9131  155.3771 O   0  0  0  0  0  0  0  0  0  0  0  0
  147.1444  140.1944  154.3504 C   0  0  1  0  0  0  0  0  0  0  0  0
  146.1676  139.4521  153.6488 O   0  0  0  0  0  0  0  0  0  0  0  0
  148.4913  139.4815  154.3177 C   0  0  2  0  0  0  0  0  0  0  0  0
  148.6761  138.6576  155.4552 O   0  0  0  0  0  0  0  0  0  0  0  0
  151.5927  140.1595  155.5288 C   0  0  0  0  0  0  0  0  0  0  0  0
  151.9701  139.3945  154.6427 O   0  0  0  0  0  0  0  0  0  0  0  0
  152.3492  140.3996  156.6856 N   0  0  0  0  0  0  0  0  0  0  0  0
  150.1391  140.5293  153.3468 H   0  0  0  0  0  0  0  0  0  0  0  0
  147.4557  141.3431  152.5455 H   0  0  0  0  0  0  0  0  0  0  0  0
  146.8218  140.3847  155.3754 H   0  0  0  0  0  0  0  0  0  0  0  0
  148.5900  138.8800  153.4125 H   0  0  0  0  0  0  0  0  0  0  0  0
  153.5567  141.0625  159.0393 H   0  0  0  0  0  0  0  0  0  0  0  0
  152.3569  142.1488  159.5011 H   0  0  0  0  0  0  0  0  0  0  0  0
  149.1355  142.3450  156.2221 H   0  0  0  0  0  0  0  0  0  0  0  0
  146.7455  143.5627  153.4702 H   0  0  0  0  0  0  0  0  0  0  0  0
  145.4444  142.4061  153.7044 H   0  0  0  0  0  0  0  0  0  0  0  0
  147.2800  143.4810  155.5365 H   0  0  0  0  0  0  0  0  0  0  0  0
  145.5987  140.0546  153.1943 H   0  0  0  0  0  0  0  0  0  0  0  0
  148.8883  139.2072  156.1947 H   0  0  0  0  0  0  0  0  0  0  0  0
  150.5200  142.5724  158.1026 H   0  0  0  0  0  0  0  0  0  0  0  0
  1  2  1  0  0  0  0
  1 22  1  0  0  0  0
  1 23  1  0  0  0  0
  2 17  2  0  0  0  0
  2  3  1  0  0  0  0
  3  4  2  0  0  0  0
  3 30  1  0  0  0  0
  4  5  1  0  0  0  0
  4 24  1  0  0  0  0
  5  6  1  0  0  0  0
  5 15  1  0  0  0  0
  6 18  1  0  0  0  0
  6 13  1  0  0  0  0
  6  7  1  0  0  0  0
  7  8  1  0  0  0  0
  8 19  1  0  0  0  0
  8  9  1  0  0  0  0
  8 11  1  0  0  0  0
  9 10  1  0  0  0  0
  9 25  1  0  0  0  0
  9 26  1  0  0  0  0
 10 27  1  0  0  0  0
 11 20  1  0  0  0  0
 11 12  1  0  0  0  0
 11 13  1  0  0  0  0
 12 28  1  0  0  0  0
 13 21  1  0  0  0  0
 13 14  1  0  0  0  0
 14 29  1  0  0  0  0
 15 16  2  0  0  0  0
 15 17  1  0  0  0  0
M  CHG  1   3   1
M  END
> <s_m_source_file>
AV-unprocessed.smi

> <i_m_source_file_index>
72

> <i_lp_mmshare_version>
43012

> <i_f3d_flags>
0

> <s_epik_input>
W05IMl1jMW5bY0hdbihjKD1PKW4xKVtDQEBIXTJPW0NASF0oW0NIMl1bT0hdKVtDQEBIXShbT0hdKVtDQEhdMltPSF0=

> <s_epik_cmdline>
J2VwaWtfcHl0aG9uJywgJy1waCcsICc3LjAnLCAnLXRuJywgJzgnLCAnLW1hJywgJzIwMCcsICctbWV0YWxfYmluZGluZycsICctaW1hZScsICc8aW5maWxlLm1hZT4nLCAnLW9tYWUnLCAnPG91dGZpbGUubWFlPic=

> <r_lp_tautomer_probability>
4.77166e-05

> <r_epik_Ionization_Penalty>
0.104979

> <r_epik_Ionization_Penalty_Charging>
0.0999619

> <r_epik_Ionization_Penalty_Neutral>
0.00501745

> <r_epik_State_Penalty>
2.51541

> <r_epik_Charging_Adjusted_Penalty>
2.61537

> <i_epik_Tot_Q>
1

> <i_epik_Tot_abs_Q>
1

> <r_epik_Metal_State_Penalty>
3.53763

> <b_epik_Metal_Only>
0

> <s_epik_Chemistry_Notes>
This compound contains an acetal/aminal-like group ( X-CH(R)-Y where X, Y are N, S, or O) that may be acid/base labile, releasing an aldehyde.

> <s_lp_Force_Field>
OPLS_2005

> <r_lp_Energy>
34.5598

> <b_lp_Chiralities_Consistent>
1

> <s_lp_Variant>
AV-unprocessed.smi:72-41

> <Gold.Version>
5.8.1

> <Gold.Id.Protein>
6NUR|6NUR_protein|mol2

> <Gold.PLP.Fitness>
36.6209

> <Gold.PLP.PLP>
-26.7117

> <Gold.PLP.part.hbond>
-5.0000

> <Gold.PLP.part.metal>
0.0000

> <Gold.PLP.part.buried>
-0.6220

> <Gold.PLP.part.nonpolar>
-19.7586

> <Gold.PLP.part.repulsive>
0.3827

> <Gold.PLP.ligand.clash>
0.0000

> <Gold.PLP.ligand.torsion>
0.6845

> <Gold.PLP.Chemscore.Hbond>
2.7191

> <Gold.PLP.Chemscore.CHOScore>
0.9980

> <Gold.PLP.Chemscore.Metal>
0.0000

> <Gold.Chemscore.Hbonds>
donor molecule, donor type, donor heavy atom, donor atom, acceptor molecule, acceptor atom, score
      L1  H    10    27       P1  8028  0.40
      L1  H    12    28       P1 10175  0.81
      P1  H  7989  7998       L1    16  0.23
      P1  H  7997  8010       L1    17  0.98
      P1  H  8011  8017       L1     7  0.29
      L1  C     4    24       P1  8028  1.00

> <Gold.PLP.Chemscore.Internal.Correction>
0.1271

> <Gold.Rescore>
     Score         DG    S(hbond)    S(metal)    S(lipo)     H(rot)  DE(clash)    DE(int)     intcor
      2.04      -2.79       1.52        0.00      22.74       4.08       0.03       0.72       ----

> <Gold.Chemscore.Fitness>
2.0394

> <Gold.Chemscore.DG>
-2.7919

> <Gold.Chemscore.ZeroCoef>
-5.4800

> <Gold.Chemscore.Hbond>
1.5246

> <Gold.Chemscore.Metal>
0.0000

> <Gold.Chemscore.Lipo>
22.7369

> <Gold.Chemscore.Internal_Hbond>
0.0000

> <Gold.Chemscore.DEClash>
0.0339

> <Gold.Chemscore.DEInternal>
0.7186

> <Gold.Chemscore.Rot>
4.0783

> <Gold.Chemscore.Internal.Correction>
   9.000000E+99

> <Gold.Chemscore.Hbonds>
donor molecule, donor type, donor heavy atom, donor atom, acceptor molecule, acceptor atom, score
      L1  H    10    27       P1  8028  0.01
      L1  H    12    28       P1 10175  0.77
      P1  H  7997  8010       L1    17  0.74
      P1  H  8011  8017       L1     7  0.02

> <Gold.Chemscore.Hbond.Weighted>
-5.0921

> <Gold.Chemscore.Metal.Weighted>
-0.0000

> <Gold.Chemscore.Lipo.Weighted>
-2.6602

> <Gold.Chemscore.Internal_Hbond.Weighted>
0.0000

> <Gold.Chemscore.DEClash.Weighted>
0.0339

> <Gold.Chemscore.DEInternal.Weighted>
0.7186

> <Gold.Chemscore.Rot.Weighted>
10.4404

> <Gold.Chemscore.Internal.Correction.Weighted>
   9.000000E+99

> <Gold.Protein.RotatedTorsions>
[ 6907 6896 6895 6894 ] final  170.11 input  -60.11 | X-H torsion
[ 7974 7965 7964 7962 ] final   40.74 input  175.53 | X-H torsion
[ 8008 7997 7996 7995 ] final   67.57 input   59.86 | X-H torsion
[ 10167 10162 10161 10158 ] final -107.11 input  -65.29 | X-H torsion
[ 10718 10713 10712 10709 ] final  173.04 input   66.30 | X-H torsion
[ 10763 10752 10751 10750 ] final   49.30 input  -60.55 | X-H torsion
[ 11005 11000 10999 10996 ] final  114.22 input  -57.11 | X-H torsion

> <Gold.Protein.ActiveResidues>
 VAL166  LYS551  ARG553  GLY616  TRP617  ASP618  TYR619  PRO620  LYS621  CYS622 
 ASP623  PHE694  ASN695  SER759  ASP760  ASP761  ALA762  ILE779  LEU786  VAL792 
 PHE793  MET794  SER795  GLU796  ALA797  LYS798  CYS799  TRP800  GLU811  SER814 

> <Gold.Protein.RotatedAtoms>
  151.8212  133.3395  159.3584 H   0  0  0  0  0  0  0  0  0  0  0  0  # atno 6907 bound_to 6896
  150.7294  134.5571  159.5833 H   0  0  0  0  0  0  0  0  0  0  0  0  # atno 6908 bound_to 6896
  152.3004  134.7618  160.0410 H   0  0  0  0  0  0  0  0  0  0  0  0  # atno 6909 bound_to 6896
  146.0881  139.5498  142.9494 H   0  0  0  0  0  0  0  0  0  0  0  0  # atno 7974 bound_to 7965
  155.6949  140.3496  155.4909 H   0  0  0  0  0  0  0  0  0  0  0  0  # atno 8008 bound_to 7997
  155.9492  140.1116  157.1013 H   0  0  0  0  0  0  0  0  0  0  0  0  # atno 8009 bound_to 7997
  154.4118  140.1197  156.5016 H   0  0  0  0  0  0  0  0  0  0  0  0  # atno 8010 bound_to 7997
  140.1805  143.3970  152.1285 H   0  0  0  0  0  0  0  0  0  0  0  0  # atno 10167 bound_to 10162
  156.9700  131.0087  151.2907 H   0  0  0  0  0  0  0  0  0  0  0  0  # atno 10718 bound_to 10713
  152.9787  135.5916  154.4066 H   0  0  0  0  0  0  0  0  0  0  0  0  # atno 10763 bound_to 10752
  154.3706  135.2767  155.2270 H   0  0  0  0  0  0  0  0  0  0  0  0  # atno 10764 bound_to 10752
  154.4228  135.6055  153.6075 H   0  0  0  0  0  0  0  0  0  0  0  0  # atno 10765 bound_to 10752
  139.8974  134.9564  156.6858 H   0  0  0  0  0  0  0  0  0  0  0  0  # atno 11005 bound_to 11000
  145.6092  141.0342  143.1976 LP  0  0  0  0  0  0  0  0  0  0  0  0  # atno 17320 bound_to 7965
  144.7340  139.7641  143.7336 LP  0  0  0  0  0  0  0  0  0  0  0  0  # atno 17321 bound_to 7965
  139.5298  144.7146  151.5097 LP  0  0  0  0  0  0  0  0  0  0  0  0  # atno 17342 bound_to 10162
  140.6522  143.8672  150.6798 LP  0  0  0  0  0  0  0  0  0  0  0  0  # atno 17343 bound_to 10162
  157.5599  130.8238  149.8252 LP  0  0  0  0  0  0  0  0  0  0  0  0  # atno 17370 bound_to 10713
  156.0286  130.3771  150.1750 LP  0  0  0  0  0  0  0  0  0  0  0  0  # atno 17371 bound_to 10713
  140.7263  133.9097  155.8181 LP  0  0  0  0  0  0  0  0  0  0  0  0  # atno 17394 bound_to 11000
  141.0188  134.0918  157.4143 LP  0  0  0  0  0  0  0  0  0  0  0  0  # atno 17395 bound_to 11000

$$$$
