AV-unprocessed.smi:2469|AV-procd|sdf|9733|dock4
  -GOLD-   2272013373D 1   1.00000     0.00000
 Structure written by MMmdl.
 32 33  0  0  0  0  0  0  0  0  1 V2000
  149.0206  136.4002  154.7177 O   0  0  0  0  0  0  0  0  0  0  0  0
  150.1095  136.6993  155.5649 C   0  0  0  0  0  0  0  0  0  0  0  0
  151.2821  137.2543  154.7472 C   0  0  0  0  0  0  0  0  0  0  0  0
  150.8761  138.4676  154.1200 O   0  0  0  0  0  0  0  0  0  0  0  0
  150.7883  139.6101  154.8887 C   0  0  0  0  0  0  0  0  0  0  0  0
  151.6384  139.7376  156.0049 C   0  0  0  0  0  0  0  0  0  0  0  0
  151.5533  140.9015  156.7922 C   0  0  0  0  0  0  0  0  0  0  0  0
  150.6254  141.9039  156.4442 C   0  0  0  0  0  0  0  0  0  0  0  0
  150.5496  143.0599  157.2359 N   0  0  0  0  0  0  0  0  0  0  0  0
  151.1082  143.1008  158.5814 C   0  0  2  0  0  0  0  0  0  0  0  0
  150.8615  144.4110  159.3047 C   0  0  0  0  0  0  0  0  0  0  0  0
  151.9375  144.3699  160.3849 C   0  0  0  0  0  0  0  0  0  0  0  0
  153.0314  143.6541  159.8164 O   0  0  0  0  0  0  0  0  0  0  0  0
  152.6349  143.0505  158.5881 C   0  0  0  0  0  0  0  0  0  0  0  0
  149.8141  141.6782  155.3063 C   0  0  0  0  0  0  0  0  0  0  0  0
  149.8894  140.5654  154.5461 N   0  0  0  0  0  0  0  0  0  0  0  0
  149.3102  136.4679  153.8208 H   0  0  0  0  0  0  0  0  0  0  0  0
  149.7719  137.4495  156.2805 H   0  0  0  0  0  0  0  0  0  0  0  0
  150.4039  135.8180  156.1354 H   0  0  0  0  0  0  0  0  0  0  0  0
  152.1621  137.3972  155.3772 H   0  0  0  0  0  0  0  0  0  0  0  0
  151.5429  136.5304  153.9732 H   0  0  0  0  0  0  0  0  0  0  0  0
  152.3431  138.9574  156.2523 H   0  0  0  0  0  0  0  0  0  0  0  0
  152.1964  141.0201  157.6522 H   0  0  0  0  0  0  0  0  0  0  0  0
  149.9204  143.8004  156.9608 H   0  0  0  0  0  0  0  0  0  0  0  0
  150.7310  142.2676  159.1758 H   0  0  0  0  0  0  0  0  0  0  0  0
  151.0370  145.2568  158.6378 H   0  0  0  0  0  0  0  0  0  0  0  0
  149.8552  144.5020  159.7139 H   0  0  0  0  0  0  0  0  0  0  0  0
  152.2377  145.3656  160.7118 H   0  0  0  0  0  0  0  0  0  0  0  0
  151.5802  143.8201  161.2565 H   0  0  0  0  0  0  0  0  0  0  0  0
  153.0212  142.0350  158.4972 H   0  0  0  0  0  0  0  0  0  0  0  0
  153.0484  143.6438  157.7710 H   0  0  0  0  0  0  0  0  0  0  0  0
  149.0782  142.3988  154.9834 H   0  0  0  0  0  0  0  0  0  0  0  0
  1  2  1  0  0  0  0
  1 17  1  0  0  0  0
  2  3  1  0  0  0  0
  2 18  1  0  0  0  0
  2 19  1  0  0  0  0
  3  4  1  0  0  0  0
  3 20  1  0  0  0  0
  3 21  1  0  0  0  0
  4  5  1  0  0  0  0
  5 16  1  0  0  0  0
  5  6  2  0  0  0  0
  6  7  1  0  0  0  0
  6 22  1  0  0  0  0
  7  8  2  0  0  0  0
  7 23  1  0  0  0  0
  8  9  1  0  0  0  0
  8 15  1  0  0  0  0
  9 10  1  0  0  0  0
  9 24  1  0  0  0  0
 10 14  1  0  0  0  0
 10 11  1  0  0  0  0
 10 25  1  0  0  0  0
 11 12  1  0  0  0  0
 11 26  1  0  0  0  0
 11 27  1  0  0  0  0
 12 13  1  0  0  0  0
 12 28  1  0  0  0  0
 12 29  1  0  0  0  0
 13 14  1  0  0  0  0
 14 30  1  0  0  0  0
 14 31  1  0  0  0  0
 15 16  2  0  0  0  0
 15 32  1  0  0  0  0
M  END
> <s_m_source_file>
AV-unprocessed.smi

> <i_m_source_file_index>
2469

> <i_lp_mmshare_version>
43012

> <i_f3d_flags>
0

> <s_epik_input>
W09IXVtDSDJdW0NIMl1PYzFbY0hdW2NIXWMoW2NIXW4xKVtOSF1bQ0BASF0yW0NIMl1bQ0gyXU9bQ0gyXTI=

> <s_epik_cmdline>
J2VwaWtfcHl0aG9uJywgJy1waCcsICc3LjAnLCAnLXRuJywgJzgnLCAnLW1hJywgJzIwMCcsICctbWV0YWxfYmluZGluZycsICctaW1hZScsICc8aW5maWxlLm1hZT4nLCAnLW9tYWUnLCAnPG91dGZpbGUubWFlPic=

> <r_lp_tautomer_probability>
1

> <r_epik_Ionization_Penalty>
0.000432265

> <r_epik_Ionization_Penalty_Charging>
0

> <r_epik_Ionization_Penalty_Neutral>
0.000432265

> <r_epik_State_Penalty>
-0

> <r_epik_Charging_Adjusted_Penalty>
0

> <i_epik_Tot_Q>
0

> <i_epik_Tot_abs_Q>
0

> <r_epik_Metal_State_Penalty>
-0

> <b_epik_Metal_Only>
0

> <s_lp_Force_Field>
OPLS_2005

> <r_lp_Energy>
22.9309

> <b_lp_Chiralities_Consistent>
1

> <s_lp_Variant>
AV-unprocessed.smi:2469-1

> <Gold.Version>
5.8.1

> <Gold.Id.Protein>
6NUR|6NUR_protein|mol2

> <Gold.PLP.Fitness>
39.7924

> <Gold.PLP.PLP>
-31.8910

> <Gold.PLP.part.hbond>
-3.0000

> <Gold.PLP.part.metal>
0.0000

> <Gold.PLP.part.buried>
-3.4468

> <Gold.PLP.part.nonpolar>
-25.3670

> <Gold.PLP.part.repulsive>
0.3355

> <Gold.PLP.ligand.clash>
0.0000

> <Gold.PLP.ligand.torsion>
0.5493

> <Gold.PLP.Chemscore.Hbond>
2.0000

> <Gold.PLP.Chemscore.CHOScore>
0.9720

> <Gold.PLP.Chemscore.Metal>
0.0000

> <Gold.Chemscore.Hbonds>
donor molecule, donor type, donor heavy atom, donor atom, acceptor molecule, acceptor atom, score
      L1  H     1    17       P1  7948  1.00
      L1  H     9    24       P1  8028  1.00
      L1  C    15    32       P1  8028  0.97

> <Gold.PLP.Chemscore.Internal.Correction>
0.0840

> <Gold.Rescore>
     Score         DG    S(hbond)    S(metal)    S(lipo)     H(rot)  DE(clash)    DE(int)     intcor
     14.73     -15.41       1.93        0.00      80.56       2.32       0.00       0.68       ----

> <Gold.Chemscore.Fitness>
14.7295

> <Gold.Chemscore.DG>
-15.4127

> <Gold.Chemscore.ZeroCoef>
-5.4800

> <Gold.Chemscore.Hbond>
1.9321

> <Gold.Chemscore.Metal>
0.0000

> <Gold.Chemscore.Lipo>
80.5553

> <Gold.Chemscore.Internal_Hbond>
0.0000

> <Gold.Chemscore.DEClash>
0.0004

> <Gold.Chemscore.DEInternal>
0.6828

> <Gold.Chemscore.Rot>
2.3225

> <Gold.Chemscore.Internal.Correction>
   9.000000E+99

> <Gold.Chemscore.Hbonds>
donor molecule, donor type, donor heavy atom, donor atom, acceptor molecule, acceptor atom, score
      L1  H     1    17       P1  7948  0.86
      L1  H     9    24       P1  8028  0.94

> <Gold.Chemscore.Hbond.Weighted>
-6.4534

> <Gold.Chemscore.Metal.Weighted>
-0.0000

> <Gold.Chemscore.Lipo.Weighted>
-9.4250

> <Gold.Chemscore.Internal_Hbond.Weighted>
0.0000

> <Gold.Chemscore.DEClash.Weighted>
0.0004

> <Gold.Chemscore.DEInternal.Weighted>
0.6828

> <Gold.Chemscore.Rot.Weighted>
5.9456

> <Gold.Chemscore.Internal.Correction.Weighted>
   9.000000E+99

> <Gold.Protein.RotatedTorsions>
[ 6907 6896 6895 6894 ] final -169.10 input  -60.11 | X-H torsion
[ 7974 7965 7964 7962 ] final   -2.41 input  175.53 | X-H torsion
[ 8008 7997 7996 7995 ] final -105.72 input   59.86 | X-H torsion
[ 10167 10162 10161 10158 ] final  158.75 input  -65.29 | X-H torsion
[ 10718 10713 10712 10709 ] final -111.82 input   66.30 | X-H torsion
[ 10763 10752 10751 10750 ] final  135.79 input  -60.55 | X-H torsion
[ 11005 11000 10999 10996 ] final   40.73 input  -57.11 | X-H torsion

> <Gold.Protein.ActiveResidues>
 VAL166  LYS551  ARG553  GLY616  TRP617  ASP618  TYR619  PRO620  LYS621  CYS622 
 ASP623  PHE694  ASN695  SER759  ASP760  ASP761  ALA762  ILE779  LEU786  VAL792 
 PHE793  MET794  SER795  GLU796  ALA797  LYS798  CYS799  TRP800  GLU811  SER814 

> <Gold.Protein.RotatedAtoms>
  151.4862  133.3535  159.2845 H   0  0  0  0  0  0  0  0  0  0  0  0  # atno 6907 bound_to 6896
  150.8864  134.8265  159.7273 H   0  0  0  0  0  0  0  0  0  0  0  0  # atno 6908 bound_to 6896
  152.4796  134.4766  159.9704 H   0  0  0  0  0  0  0  0  0  0  0  0  # atno 6909 bound_to 6896
  146.2405  140.1567  142.8333 H   0  0  0  0  0  0  0  0  0  0  0  0  # atno 7974 bound_to 7965
  154.9041  140.0412  157.1909 H   0  0  0  0  0  0  0  0  0  0  0  0  # atno 8008 bound_to 7997
  154.8414  140.2915  155.5635 H   0  0  0  0  0  0  0  0  0  0  0  0  # atno 8009 bound_to 7997
  156.2992  140.2482  156.3358 H   0  0  0  0  0  0  0  0  0  0  0  0  # atno 8010 bound_to 7997
  139.4828  144.4795  151.8464 H   0  0  0  0  0  0  0  0  0  0  0  0  # atno 10167 bound_to 10162
  156.0669  130.5887  150.8425 H   0  0  0  0  0  0  0  0  0  0  0  0  # atno 10718 bound_to 10713
  153.8459  135.3085  155.3429 H   0  0  0  0  0  0  0  0  0  0  0  0  # atno 10763 bound_to 10752
  154.7912  135.4781  154.0061 H   0  0  0  0  0  0  0  0  0  0  0  0  # atno 10764 bound_to 10752
  153.1548  135.6850  153.8922 H   0  0  0  0  0  0  0  0  0  0  0  0  # atno 10765 bound_to 10752
  140.1903  134.3995  155.8150 H   0  0  0  0  0  0  0  0  0  0  0  0  # atno 11005 bound_to 11000
  145.0123  140.8724  143.5217 LP  0  0  0  0  0  0  0  0  0  0  0  0  # atno 17320 bound_to 7965
  145.1603  139.2462  143.5395 LP  0  0  0  0  0  0  0  0  0  0  0  0  # atno 17321 bound_to 7965
  140.4270  144.2167  150.5887 LP  0  0  0  0  0  0  0  0  0  0  0  0  # atno 17342 bound_to 10162
  140.4817  143.2377  151.8945 LP  0  0  0  0  0  0  0  0  0  0  0  0  # atno 17343 bound_to 10162
  157.5716  131.0946  150.9408 LP  0  0  0  0  0  0  0  0  0  0  0  0  # atno 17370 bound_to 10713
  156.9623  130.5460  149.5286 LP  0  0  0  0  0  0  0  0  0  0  0  0  # atno 17371 bound_to 10713
  141.2226  133.7043  156.8083 LP  0  0  0  0  0  0  0  0  0  0  0  0  # atno 17394 bound_to 11000
  140.2167  134.8787  157.3334 LP  0  0  0  0  0  0  0  0  0  0  0  0  # atno 17395 bound_to 11000

$$$$
