AV-unprocessed.smi:39|AV-procd|sdf|351|dock9
  -GOLD-   2262016193D 1   1.00000     0.00000
 Structure written by MMmdl.
 32 33  0  0  0  0  0  0  0  0  3 V2000
  150.7753  144.6086  159.2993 C   0  0  0  0  0  0  0  0  0  0  0  0
  151.3583  143.2685  158.8827 C   0  0  0  0  0  0  0  0  0  0  0  0
  151.1083  142.7120  157.6699 C   0  0  0  0  0  0  0  0  0  0  0  0
  151.6255  141.4897  157.2609 N   0  0  0  0  0  0  0  0  0  0  0  0
  151.3070  140.9119  155.8994 C   0  0  1  0  0  0  0  0  0  0  0  0
  150.7641  139.4865  156.0366 C   0  0  0  0  0  0  0  0  0  0  0  0
  149.2693  139.7020  155.8850 C   0  0  2  0  0  0  0  0  0  0  0  0
  148.5699  138.5118  155.3962 N   0  0  0  0  0  0  0  0  0  0  0  0
  149.2620  137.5009  155.2169 N   0  3  0  0  0  0  0  0  0  0  0  0
  149.9975  136.6432  155.0804 N   0  5  0  0  0  0  0  0  0  0  0  0
  149.2325  140.8576  154.8815 C   0  0  1  0  0  0  0  0  0  0  0  0
  147.9187  141.6541  154.9095 C   0  0  0  0  0  0  0  0  0  0  0  0
  148.0472  142.8290  154.1380 O   0  0  0  0  0  0  0  0  0  0  0  0
  150.3135  141.6883  155.2975 O   0  0  0  0  0  0  0  0  0  0  0  0
  152.4377  140.7528  158.1480 C   0  0  0  0  0  0  0  0  0  0  0  0
  152.9028  139.6481  157.8701 O   0  0  0  0  0  0  0  0  0  0  0  0
  152.7000  141.3267  159.3906 N   0  0  0  0  0  0  0  0  0  0  0  0
  152.2165  142.5593  159.8358 C   0  0  0  0  0  0  0  0  0  0  0  0
  152.5222  142.9628  160.9567 O   0  0  0  0  0  0  0  0  0  0  0  0
  152.2174  140.9776  155.3013 H   0  0  0  0  0  0  0  0  0  0  0  0
  148.8528  140.0399  156.8362 H   0  0  0  0  0  0  0  0  0  0  0  0
  149.4416  140.4768  153.8794 H   0  0  0  0  0  0  0  0  0  0  0  0
  153.2869  140.8051  160.0253 H   0  0  0  0  0  0  0  0  0  0  0  0
  150.1468  145.0371  158.5182 H   0  0  0  0  0  0  0  0  0  0  0  0
  151.5731  145.3204  159.5143 H   0  0  0  0  0  0  0  0  0  0  0  0
  150.1643  144.4966  160.1956 H   0  0  0  0  0  0  0  0  0  0  0  0
  150.4663  143.2549  156.9925 H   0  0  0  0  0  0  0  0  0  0  0  0
  151.1594  138.8869  155.2153 H   0  0  0  0  0  0  0  0  0  0  0  0
  151.0505  139.0222  156.9811 H   0  0  0  0  0  0  0  0  0  0  0  0
  147.1124  141.0644  154.4721 H   0  0  0  0  0  0  0  0  0  0  0  0
  147.6234  141.8989  155.9301 H   0  0  0  0  0  0  0  0  0  0  0  0
  148.5430  143.4622  154.6344 H   0  0  0  0  0  0  0  0  0  0  0  0
  1  2  1  0  0  0  0
  1 24  1  0  0  0  0
  1 25  1  0  0  0  0
  1 26  1  0  0  0  0
  2 18  1  0  0  0  0
  2  3  2  0  0  0  0
  3  4  1  0  0  0  0
  3 27  1  0  0  0  0
  4  5  1  0  0  0  0
  4 15  1  0  0  0  0
  5 20  1  0  0  0  0
  5 14  1  0  0  0  0
  5  6  1  0  0  0  0
  6  7  1  0  0  0  0
  6 28  1  0  0  0  0
  6 29  1  0  0  0  0
  7 21  1  0  0  0  0
  7  8  1  0  0  0  0
  7 11  1  0  0  0  0
  8  9  2  0  0  0  0
  9 10  2  0  0  0  0
 11 22  1  0  0  0  0
 11 12  1  0  0  0  0
 11 14  1  0  0  0  0
 12 13  1  0  0  0  0
 12 30  1  0  0  0  0
 12 31  1  0  0  0  0
 13 32  1  0  0  0  0
 15 16  2  0  0  0  0
 15 17  1  0  0  0  0
 17 23  1  0  0  0  0
 17 18  1  0  0  0  0
 18 19  2  0  0  0  0
M  CHG  1   9   1
M  CHG  1  10  -1
M  END
> <s_m_source_file>
AV-unprocessed.smi

> <i_m_source_file_index>
39

> <i_lp_mmshare_version>
43012

> <i_f3d_flags>
0

> <s_epik_input>
Tz1jMVtuSF1jKD1PKW4oW2NIXWMxW0NIM10pW0NASF0yW0NIMl1bQ0BIXShOPVtOK109W04tXSlbQ0BIXShPMilbQ0gyXVtPSF0=

> <s_epik_cmdline>
J2VwaWtfcHl0aG9uJywgJy1waCcsICc3LjAnLCAnLXRuJywgJzgnLCAnLW1hJywgJzIwMCcsICctbWV0YWxfYmluZGluZycsICctaW1hZScsICc8aW5maWxlLm1hZT4nLCAnLW9tYWUnLCAnPG91dGZpbGUubWFlPic=

> <r_lp_tautomer_probability>
0.999537

> <r_epik_Ionization_Penalty>
0.00127512

> <r_epik_Ionization_Penalty_Charging>
0.00127507

> <r_epik_Ionization_Penalty_Neutral>
5.43433e-08

> <r_epik_State_Penalty>
0.000844892

> <r_epik_Charging_Adjusted_Penalty>
0.00211996

> <i_epik_Tot_Q>
0

> <i_epik_Tot_abs_Q>
2

> <r_epik_Metal_State_Penalty>
0.680636

> <b_epik_Metal_Only>
0

> <s_epik_Chemistry_Notes>
This compound contains an acetal/aminal-like group ( X-CH(R)-Y where X, Y are N, S, or O) that may be acid/base labile, releasing an aldehyde.

> <s_lp_Force_Field>
OPLS_2005

> <r_lp_Energy>
24.0553

> <b_lp_Chiralities_Consistent>
1

> <s_lp_Variant>
AV-unprocessed.smi:39-1

> <Gold.Version>
5.8.1

> <Gold.Id.Protein>
6NUR|6NUR_protein|mol2

> <Gold.PLP.Fitness>
37.2800

> <Gold.PLP.PLP>
-28.6211

> <Gold.PLP.part.hbond>
-4.9704

> <Gold.PLP.part.metal>
0.0000

> <Gold.PLP.part.buried>
-1.9653

> <Gold.PLP.part.nonpolar>
-20.4942

> <Gold.PLP.part.repulsive>
0.5593

> <Gold.PLP.ligand.clash>
0.0000

> <Gold.PLP.ligand.torsion>
0.1866

> <Gold.PLP.Chemscore.Hbond>
2.0000

> <Gold.PLP.Chemscore.CHOScore>
1.0000

> <Gold.PLP.Chemscore.Metal>
0.0000

> <Gold.Chemscore.Hbonds>
donor molecule, donor type, donor heavy atom, donor atom, acceptor molecule, acceptor atom, score
      L1  H    13    32       P1  8028  1.00
      P1  H  7997  8008       L1    16  1.00
      L1  C     3    27       P1  8028  1.00

> <Gold.PLP.Chemscore.Internal.Correction>
0.0321

> <Gold.Rescore>
     Score         DG    S(hbond)    S(metal)    S(lipo)     H(rot)  DE(clash)    DE(int)     intcor
      8.97     -10.28       1.95        0.00      45.42       2.75       0.08       1.23       ----

> <Gold.Chemscore.Fitness>
8.9675

> <Gold.Chemscore.DG>
-10.2751

> <Gold.Chemscore.ZeroCoef>
-5.4800

> <Gold.Chemscore.Hbond>
1.9542

> <Gold.Chemscore.Metal>
0.0000

> <Gold.Chemscore.Lipo>
45.4205

> <Gold.Chemscore.Internal_Hbond>
0.0000

> <Gold.Chemscore.DEClash>
0.0777

> <Gold.Chemscore.DEInternal>
1.2299

> <Gold.Chemscore.Rot>
2.7524

> <Gold.Chemscore.Internal.Correction>
   9.000000E+99

> <Gold.Chemscore.Hbonds>
donor molecule, donor type, donor heavy atom, donor atom, acceptor molecule, acceptor atom, score
      L1  H    13    32       P1  8028  0.99
      P1  H  7997  8008       L1    16  0.45

> <Gold.Chemscore.Hbond.Weighted>
-6.5270

> <Gold.Chemscore.Metal.Weighted>
-0.0000

> <Gold.Chemscore.Lipo.Weighted>
-5.3142

> <Gold.Chemscore.Internal_Hbond.Weighted>
0.0000

> <Gold.Chemscore.DEClash.Weighted>
0.0777

> <Gold.Chemscore.DEInternal.Weighted>
1.2299

> <Gold.Chemscore.Rot.Weighted>
7.0461

> <Gold.Chemscore.Internal.Correction.Weighted>
   9.000000E+99

> <Gold.Protein.RotatedTorsions>
[ 6907 6896 6895 6894 ] final  -26.56 input  -60.11 | X-H torsion
[ 7974 7965 7964 7962 ] final  -61.38 input  175.53 | X-H torsion
[ 8008 7997 7996 7995 ] final  -73.09 input   59.86 | X-H torsion
[ 10167 10162 10161 10158 ] final -119.75 input  -65.29 | X-H torsion
[ 10718 10713 10712 10709 ] final   62.82 input   66.30 | X-H torsion
[ 10763 10752 10751 10750 ] final  -37.19 input  -60.55 | X-H torsion
[ 11005 11000 10999 10996 ] final -165.01 input  -57.11 | X-H torsion

> <Gold.Protein.ActiveResidues>
 VAL166  LYS551  ARG553  GLY616  TRP617  ASP618  TYR619  PRO620  LYS621  CYS622 
 ASP623  PHE694  ASN695  SER759  ASP760  ASP761  ALA762  ILE779  LEU786  VAL792 
 PHE793  MET794  SER795  GLU796  ALA797  LYS798  CYS799  TRP800  GLU811  SER814 

> <Gold.Protein.RotatedAtoms>
  151.1593  135.0265  159.8702 H   0  0  0  0  0  0  0  0  0  0  0  0  # atno 6907 bound_to 6896
  152.5452  134.1298  159.8444 H   0  0  0  0  0  0  0  0  0  0  0  0  # atno 6908 bound_to 6896
  151.1391  133.4937  159.2630 H   0  0  0  0  0  0  0  0  0  0  0  0  # atno 6909 bound_to 6896
  145.8042  140.8637  143.0216 H   0  0  0  0  0  0  0  0  0  0  0  0  # atno 7974 bound_to 7965
  154.5219  140.0785  156.8187 H   0  0  0  0  0  0  0  0  0  0  0  0  # atno 8008 bound_to 7997
  155.3558  140.3415  155.4222 H   0  0  0  0  0  0  0  0  0  0  0  0  # atno 8009 bound_to 7997
  156.1690  140.1613  156.8467 H   0  0  0  0  0  0  0  0  0  0  0  0  # atno 8010 bound_to 7997
  140.0432  143.5132  152.2119 H   0  0  0  0  0  0  0  0  0  0  0  0  # atno 10167 bound_to 10162
  157.5928  130.9071  149.9636 H   0  0  0  0  0  0  0  0  0  0  0  0  # atno 10718 bound_to 10713
  153.8922  135.6811  153.4760 H   0  0  0  0  0  0  0  0  0  0  0  0  # atno 10763 bound_to 10752
  153.1174  135.4755  154.9137 H   0  0  0  0  0  0  0  0  0  0  0  0  # atno 10764 bound_to 10752
  154.7616  135.3212  154.8319 H   0  0  0  0  0  0  0  0  0  0  0  0  # atno 10765 bound_to 10752
  140.5805  134.5146  157.5177 H   0  0  0  0  0  0  0  0  0  0  0  0  # atno 11005 bound_to 11000
  144.6765  140.0302  143.7482 LP  0  0  0  0  0  0  0  0  0  0  0  0  # atno 17320 bound_to 7965
  145.9846  139.2967  143.1021 LP  0  0  0  0  0  0  0  0  0  0  0  0  # atno 17321 bound_to 7965
  139.6000  144.7579  151.3194 LP  0  0  0  0  0  0  0  0  0  0  0  0  # atno 17342 bound_to 10162
  140.7250  143.7028  150.7831 LP  0  0  0  0  0  0  0  0  0  0  0  0  # atno 17343 bound_to 10162
  156.0985  130.3657  150.0262 LP  0  0  0  0  0  0  0  0  0  0  0  0  # atno 17370 bound_to 10713
  156.8381  130.9416  151.3633 LP  0  0  0  0  0  0  0  0  0  0  0  0  # atno 17371 bound_to 10713
  139.9319  134.7947  156.0906 LP  0  0  0  0  0  0  0  0  0  0  0  0  # atno 17394 bound_to 11000
  141.0999  133.6681  156.2731 LP  0  0  0  0  0  0  0  0  0  0  0  0  # atno 17395 bound_to 11000

$$$$
