AV-unprocessed.smi:798|AV-procd|sdf|3774|dock5
  -GOLD-   22720 1203D 1   1.00000     0.00000
 Structure written by MMmdl.
 34 36  0  0  0  0  0  0  0  0  1 V2000
  145.3067  137.6556  153.6321 O   0  0  0  0  0  0  0  0  0  0  0  0
  146.3826  137.2873  153.1600 C   0  0  0  0  0  0  0  0  0  0  0  0
  147.4952  138.0382  153.0843 N   0  0  0  0  0  0  0  0  0  0  0  0
  147.6834  139.3788  153.5128 C   0  0  0  0  0  0  0  0  0  0  0  0
  146.8010  140.3644  153.2857 N   0  0  0  0  0  0  0  0  0  0  0  0
  147.2297  141.5767  153.8107 N   0  0  0  0  0  0  0  0  0  0  0  0
  148.4169  141.4579  154.4118 C   0  0  0  0  0  0  0  0  0  0  0  0
  149.1283  139.8537  154.3941 S   0  0  0  0  0  0  0  0  0  0  0  0
  146.5903  136.0656  152.6494 N   0  0  0  0  0  0  0  0  0  0  0  0
  145.6011  134.9916  152.5970 C   0  0  1  0  0  0  0  0  0  0  0  0
  144.2712  135.5104  152.0064 C   0  0  2  0  0  0  0  0  0  0  0  0
  143.1598  134.4950  152.3260 C   0  0  0  0  0  0  0  0  0  0  0  0
  143.5042  133.3207  151.3906 C   0  0  0  0  0  0  0  0  0  0  0  0
  144.7706  133.8183  150.6606 C   0  0  1  0  0  0  0  0  0  0  0  0
  144.4563  135.3008  150.5062 C   0  0  0  0  0  0  0  0  0  0  0  0
  145.9981  133.8705  151.6016 C   0  0  2  0  0  0  0  0  0  0  0  0
  146.3765  132.5262  152.2529 C   0  0  0  0  0  0  0  0  0  0  0  0
  146.6026  131.5508  151.2582 O   0  0  0  0  0  0  0  0  0  0  0  0
  148.3045  137.5981  152.6726 H   0  0  0  0  0  0  0  0  0  0  0  0
  148.8771  142.3213  154.8689 H   0  0  0  0  0  0  0  0  0  0  0  0
  147.5059  135.8538  152.2815 H   0  0  0  0  0  0  0  0  0  0  0  0
  145.4290  134.5977  153.6008 H   0  0  0  0  0  0  0  0  0  0  0  0
  144.0191  136.5290  152.3038 H   0  0  0  0  0  0  0  0  0  0  0  0
  143.1478  134.2037  153.3769 H   0  0  0  0  0  0  0  0  0  0  0  0
  142.1784  134.9037  152.0820 H   0  0  0  0  0  0  0  0  0  0  0  0
  143.6542  132.3849  151.9276 H   0  0  0  0  0  0  0  0  0  0  0  0
  142.6946  133.1575  150.6781 H   0  0  0  0  0  0  0  0  0  0  0  0
  144.9654  133.2967  149.7232 H   0  0  0  0  0  0  0  0  0  0  0  0
  143.5520  135.4960  149.9270 H   0  0  0  0  0  0  0  0  0  0  0  0
  145.2803  135.8790  150.0843 H   0  0  0  0  0  0  0  0  0  0  0  0
  146.8457  134.1986  150.9958 H   0  0  0  0  0  0  0  0  0  0  0  0
  147.2714  132.6146  152.8685 H   0  0  0  0  0  0  0  0  0  0  0  0
  145.5694  132.1766  152.8970 H   0  0  0  0  0  0  0  0  0  0  0  0
  147.5149  131.5749  151.0130 H   0  0  0  0  0  0  0  0  0  0  0  0
  1  2  2  0  0  0  0
  2  3  1  0  0  0  0
  2  9  1  0  0  0  0
  3  4  1  0  0  0  0
  3 19  1  0  0  0  0
  4  8  1  0  0  0  0
  4  5  2  0  0  0  0
  5  6  1  0  0  0  0
  6  7  2  0  0  0  0
  7  8  1  0  0  0  0
  7 20  1  0  0  0  0
  9 10  1  0  0  0  0
  9 21  1  0  0  0  0
 10 16  1  0  0  0  0
 10 11  1  0  0  0  0
 10 22  1  0  0  0  0
 11 15  1  0  0  0  0
 11 12  1  0  0  0  0
 11 23  1  0  0  0  0
 12 13  1  0  0  0  0
 12 24  1  0  0  0  0
 12 25  1  0  0  0  0
 13 14  1  0  0  0  0
 13 26  1  0  0  0  0
 13 27  1  0  0  0  0
 14 15  1  0  0  0  0
 14 16  1  0  0  0  0
 14 28  1  0  0  0  0
 15 29  1  0  0  0  0
 15 30  1  0  0  0  0
 16 17  1  0  0  0  0
 16 31  1  0  0  0  0
 17 18  1  0  0  0  0
 17 32  1  0  0  0  0
 17 33  1  0  0  0  0
 18 34  1  0  0  0  0
M  END
> <s_m_source_file>
AV-unprocessed.smi

> <i_m_source_file_index>
798

> <i_lp_mmshare_version>
43012

> <i_f3d_flags>
0

> <s_epik_input>
W0NIMl0xW0NIMl1bQ0BASF0oW0NIMl0yKVtDQEBIXShbQ0gyXVtPSF0pW0NAQEhdKFtDQEhdMTIpW05IXUMoPU8pW05IXWMzbm5bY0hdczM=

> <s_epik_cmdline>
J2VwaWtfcHl0aG9uJywgJy1waCcsICc3LjAnLCAnLXRuJywgJzgnLCAnLW1hJywgJzIwMCcsICctbWV0YWxfYmluZGluZycsICctaW1hZScsICc8aW5maWxlLm1hZT4nLCAnLW9tYWUnLCAnPG91dGZpbGUubWFlPic=

> <r_lp_tautomer_probability>
1

> <r_epik_Ionization_Penalty>
0.000329046

> <r_epik_Ionization_Penalty_Charging>
0

> <r_epik_Ionization_Penalty_Neutral>
0.000329046

> <r_epik_State_Penalty>
-0

> <r_epik_Charging_Adjusted_Penalty>
0

> <i_epik_Tot_Q>
0

> <i_epik_Tot_abs_Q>
0

> <r_epik_Metal_State_Penalty>
0.173433

> <b_epik_Metal_Only>
0

> <s_lp_Force_Field>
OPLS_2005

> <r_lp_Energy>
48.4277

> <b_lp_Chiralities_Consistent>
1

> <s_lp_Variant>
AV-unprocessed.smi:798-6

> <Gold.Version>
5.8.1

> <Gold.Id.Protein>
6NUR|6NUR_protein|mol2

> <Gold.PLP.Fitness>
39.5764

> <Gold.PLP.PLP>
-28.6907

> <Gold.PLP.part.hbond>
-2.8298

> <Gold.PLP.part.metal>
0.0000

> <Gold.PLP.part.buried>
-3.8589

> <Gold.PLP.part.nonpolar>
-22.3772

> <Gold.PLP.part.repulsive>
0.5857

> <Gold.PLP.ligand.clash>
0.0000

> <Gold.PLP.ligand.torsion>
0.5319

> <Gold.PLP.Chemscore.Hbond>
2.9760

> <Gold.PLP.Chemscore.CHOScore>
1.0000

> <Gold.PLP.Chemscore.Metal>
0.0000

> <Gold.Chemscore.Hbonds>
donor molecule, donor type, donor heavy atom, donor atom, acceptor molecule, acceptor atom, score
      L1  H     3    19       P1  7948  0.98
      L1  H     9    21       P1  7948  1.00
      L1  H    18    34       P1 10747  1.00
      L1  C     7    20       P1  8028  1.00

> <Gold.PLP.Chemscore.Internal.Correction>
0.0216

> <Gold.Rescore>
     Score         DG    S(hbond)    S(metal)    S(lipo)     H(rot)  DE(clash)    DE(int)     intcor
     15.32     -17.01       2.92        0.00      57.88       1.94       0.07       1.63       ----

> <Gold.Chemscore.Fitness>
15.3171

> <Gold.Chemscore.DG>
-17.0134

> <Gold.Chemscore.ZeroCoef>
-5.4800

> <Gold.Chemscore.Hbond>
2.9156

> <Gold.Chemscore.Metal>
0.0000

> <Gold.Chemscore.Lipo>
57.8827

> <Gold.Chemscore.Internal_Hbond>
0.0000

> <Gold.Chemscore.DEClash>
0.0673

> <Gold.Chemscore.DEInternal>
1.6290

> <Gold.Chemscore.Rot>
1.9442

> <Gold.Chemscore.Internal.Correction>
   9.000000E+99

> <Gold.Chemscore.Hbonds>
donor molecule, donor type, donor heavy atom, donor atom, acceptor molecule, acceptor atom, score
      L1  H     3    19       P1  7948  0.93
      L1  H     9    21       P1  7948  0.91
      L1  H    18    34       P1 10747  0.96

> <Gold.Chemscore.Hbond.Weighted>
-9.7382

> <Gold.Chemscore.Metal.Weighted>
-0.0000

> <Gold.Chemscore.Lipo.Weighted>
-6.7723

> <Gold.Chemscore.Internal_Hbond.Weighted>
0.0000

> <Gold.Chemscore.DEClash.Weighted>
0.0673

> <Gold.Chemscore.DEInternal.Weighted>
1.6290

> <Gold.Chemscore.Rot.Weighted>
4.9771

> <Gold.Chemscore.Internal.Correction.Weighted>
   9.000000E+99

> <Gold.Protein.RotatedTorsions>
[ 6907 6896 6895 6894 ] final  149.66 input  -60.11 | X-H torsion
[ 7974 7965 7964 7962 ] final  -12.18 input  175.53 | X-H torsion
[ 8008 7997 7996 7995 ] final -146.28 input   59.86 | X-H torsion
[ 10167 10162 10161 10158 ] final -129.90 input  -65.29 | X-H torsion
[ 10718 10713 10712 10709 ] final  153.64 input   66.30 | X-H torsion
[ 10763 10752 10751 10750 ] final  -25.76 input  -60.55 | X-H torsion
[ 11005 11000 10999 10996 ] final   22.47 input  -57.11 | X-H torsion

> <Gold.Protein.ActiveResidues>
 VAL166  LYS551  ARG553  GLY616  TRP617  ASP618  TYR619  PRO620  LYS621  CYS622 
 ASP623  PHE694  ASN695  SER759  ASP760  ASP761  ALA762  ILE779  LEU786  VAL792 
 PHE793  MET794  SER795  GLU796  ALA797  LYS798  CYS799  TRP800  GLU811  SER814 

> <Gold.Protein.RotatedAtoms>
  152.1250  133.4375  159.4693 H   0  0  0  0  0  0  0  0  0  0  0  0  # atno 6907 bound_to 6896
  150.6874  134.2489  159.4512 H   0  0  0  0  0  0  0  0  0  0  0  0  # atno 6908 bound_to 6896
  152.0368  134.9734  160.0624 H   0  0  0  0  0  0  0  0  0  0  0  0  # atno 6909 bound_to 6896
  146.2161  140.3019  142.8376 H   0  0  0  0  0  0  0  0  0  0  0  0  # atno 7974 bound_to 7965
  155.5568  140.0621  157.2838 H   0  0  0  0  0  0  0  0  0  0  0  0  # atno 8008 bound_to 7997
  154.4403  140.1893  156.0787 H   0  0  0  0  0  0  0  0  0  0  0  0  # atno 8009 bound_to 7997
  156.0476  140.3288  155.7318 H   0  0  0  0  0  0  0  0  0  0  0  0  # atno 8010 bound_to 7997
  139.9349  143.6229  152.2519 H   0  0  0  0  0  0  0  0  0  0  0  0  # atno 10167 bound_to 10162
  157.2421  131.0761  151.1785 H   0  0  0  0  0  0  0  0  0  0  0  0  # atno 10718 bound_to 10713
  153.7051  135.6954  153.5052 H   0  0  0  0  0  0  0  0  0  0  0  0  # atno 10763 bound_to 10752
  153.2314  135.4336  155.0598 H   0  0  0  0  0  0  0  0  0  0  0  0  # atno 10764 bound_to 10752
  154.8332  135.3485  154.6589 H   0  0  0  0  0  0  0  0  0  0  0  0  # atno 10765 bound_to 10752
  140.3802  134.1928  155.7664 H   0  0  0  0  0  0  0  0  0  0  0  0  # atno 11005 bound_to 11000
  144.9051  140.7689  143.5843 LP  0  0  0  0  0  0  0  0  0  0  0  0  # atno 17320 bound_to 7965
  145.2947  139.1871  143.4721 LP  0  0  0  0  0  0  0  0  0  0  0  0  # atno 17321 bound_to 7965
  139.6752  144.7659  151.1710 LP  0  0  0  0  0  0  0  0  0  0  0  0  # atno 17342 bound_to 10162
  140.7627  143.5806  150.8899 LP  0  0  0  0  0  0  0  0  0  0  0  0  # atno 17343 bound_to 10162
  157.3367  130.7012  149.6357 LP  0  0  0  0  0  0  0  0  0  0  0  0  # atno 17370 bound_to 10713
  155.9669  130.4291  150.4820 LP  0  0  0  0  0  0  0  0  0  0  0  0  # atno 17371 bound_to 10713
  141.1926  133.8170  157.0834 LP  0  0  0  0  0  0  0  0  0  0  0  0  # atno 17394 bound_to 11000
  140.0484  134.9818  157.1091 LP  0  0  0  0  0  0  0  0  0  0  0  0  # atno 17395 bound_to 11000

$$$$
