AV-unprocessed.smi:726|AV-procd|sdf|3513|dock4
  -GOLD-   22720 0513D 1   1.00000     0.00000
 Structure written by MMmdl.
 23 23  0  0  0  0  0  0  0  0  3 V2000
  152.9461  139.5603  158.9316 C   0  0  0  0  0  0  0  0  0  0  0  0
  152.1060  140.4372  158.0094 C   0  0  0  0  0  0  0  0  0  0  0  0
  151.8122  141.7014  158.3887 C   0  0  0  0  0  0  0  0  0  0  0  0
  151.0878  142.5616  157.5781 C   0  0  0  0  0  0  0  0  0  0  0  0
  150.8058  143.7283  157.9310 O   0  5  0  0  0  0  0  0  0  0  0  0
  150.7041  142.0484  156.3490 C   0  0  0  0  0  0  0  0  0  0  0  0
  151.0072  140.7045  155.8717 C   0  0  0  0  0  0  0  0  0  0  0  0
  150.6716  140.3420  154.7439 O   0  0  0  0  0  0  0  0  0  0  0  0
  151.6801  139.9041  156.7547 N   0  0  0  0  0  0  0  0  0  0  0  0
  151.9062  138.4615  156.4298 C   0  0  1  0  0  0  0  0  0  0  0  0
  150.6895  137.5562  156.7475 C   0  0  0  0  0  0  0  0  0  0  0  0
  152.5065  138.2571  155.0264 C   0  0  0  0  0  0  0  0  0  0  0  0
  153.5168  138.9274  154.7173 O   0  0  0  0  0  0  0  0  0  0  0  0
  151.9359  137.4346  154.2763 O   0  5  0  0  0  0  0  0  0  0  0  0
  153.3752  140.1481  159.7435 H   0  0  0  0  0  0  0  0  0  0  0  0
  153.7834  139.1057  158.4025 H   0  0  0  0  0  0  0  0  0  0  0  0
  152.3350  138.7796  159.3849 H   0  0  0  0  0  0  0  0  0  0  0  0
  152.1550  142.0526  159.3514 H   0  0  0  0  0  0  0  0  0  0  0  0
  150.1412  142.6852  155.6816 H   0  0  0  0  0  0  0  0  0  0  0  0
  152.6550  138.0337  157.0885 H   0  0  0  0  0  0  0  0  0  0  0  0
  150.9668  136.5043  156.6723 H   0  0  0  0  0  0  0  0  0  0  0  0
  149.8474  137.7031  156.0727 H   0  0  0  0  0  0  0  0  0  0  0  0
  150.3356  137.7243  157.7649 H   0  0  0  0  0  0  0  0  0  0  0  0
  1  2  1  0  0  0  0
  1 15  1  0  0  0  0
  1 16  1  0  0  0  0
  1 17  1  0  0  0  0
  2  9  1  0  0  0  0
  2  3  2  0  0  0  0
  3  4  1  0  0  0  0
  3 18  1  0  0  0  0
  4  5  1  0  0  0  0
  4  6  2  0  0  0  0
  6  7  1  0  0  0  0
  6 19  1  0  0  0  0
  7  8  2  0  0  0  0
  7  9  1  0  0  0  0
  9 10  1  0  0  0  0
 10 11  1  0  0  0  0
 10 12  1  0  0  0  0
 10 20  1  0  0  0  0
 11 21  1  0  0  0  0
 11 22  1  0  0  0  0
 11 23  1  0  0  0  0
 12 13  2  0  0  0  0
 12 14  1  0  0  0  0
M  CHG  1   5  -1
M  CHG  1  14  -1
M  END
> <s_m_source_file>
AV-unprocessed.smi

> <i_m_source_file_index>
726

> <i_lp_mmshare_version>
43012

> <i_f3d_flags>
0

> <s_epik_input>
W0NIM11jMVtjSF1jKFtPSF0pW2NIXWMoPU8pbjFbQ0BIXShbQ0gzXSlDKD1PKVtPSF0=

> <s_epik_cmdline>
J2VwaWtfcHl0aG9uJywgJy1waCcsICc3LjAnLCAnLXRuJywgJzgnLCAnLW1hJywgJzIwMCcsICctbWV0YWxfYmluZGluZycsICctaW1hZScsICc8aW5maWxlLm1hZT4nLCAnLW9tYWUnLCAnPG91dGZpbGUubWFlPic=

> <r_lp_tautomer_probability>
1

> <r_epik_Ionization_Penalty>
0.657059

> <r_epik_Ionization_Penalty_Charging>
0.657059

> <r_epik_Ionization_Penalty_Neutral>
1.59975e-13

> <r_epik_State_Penalty>
0.584419

> <r_epik_Charging_Adjusted_Penalty>
1.24148

> <i_epik_Tot_Q>
-2

> <i_epik_Tot_abs_Q>
2

> <r_epik_Metal_State_Penalty>
0.584419

> <b_epik_Metal_Only>
0

> <s_lp_Force_Field>
OPLS_2005

> <r_lp_Energy>
32.5185

> <b_lp_Chiralities_Consistent>
1

> <s_lp_Variant>
AV-unprocessed.smi:726-4

> <Gold.Version>
5.8.1

> <Gold.Id.Protein>
6NUR|6NUR_protein|mol2

> <Gold.PLP.Fitness>
37.9415

> <Gold.PLP.PLP>
-23.9584

> <Gold.PLP.part.hbond>
-3.0000

> <Gold.PLP.part.metal>
0.0000

> <Gold.PLP.part.buried>
-5.1412

> <Gold.PLP.part.nonpolar>
-17.8042

> <Gold.PLP.part.repulsive>
0.5311

> <Gold.PLP.ligand.clash>
0.0000

> <Gold.PLP.ligand.torsion>
0.5372

> <Gold.PLP.Chemscore.Hbond>
4.9200

> <Gold.PLP.Chemscore.CHOScore>
0.0000

> <Gold.PLP.Chemscore.Metal>
0.0000

> <Gold.Chemscore.Hbonds>
donor molecule, donor type, donor heavy atom, donor atom, acceptor molecule, acceptor atom, score
      P1  H  7989  7998       L1     8  1.00
      P1  H  7997  8009       L1    13  2.00
      P1  H 10752 10765       L1    14  1.92

> <Gold.PLP.Chemscore.Internal.Correction>
0.2976

> <Gold.Rescore>
     Score         DG    S(hbond)    S(metal)    S(lipo)     H(rot)  DE(clash)    DE(int)     intcor
     14.58     -16.44       2.75        0.00      47.02       1.45       0.00       1.87       ----

> <Gold.Chemscore.Fitness>
14.5752

> <Gold.Chemscore.DG>
-16.4420

> <Gold.Chemscore.ZeroCoef>
-5.4800

> <Gold.Chemscore.Hbond>
2.7501

> <Gold.Chemscore.Metal>
0.0000

> <Gold.Chemscore.Lipo>
47.0153

> <Gold.Chemscore.Internal_Hbond>
0.0000

> <Gold.Chemscore.DEClash>
0.0000

> <Gold.Chemscore.DEInternal>
1.8668

> <Gold.Chemscore.Rot>
1.4548

> <Gold.Chemscore.Internal.Correction>
   9.000000E+99

> <Gold.Chemscore.Hbonds>
donor molecule, donor type, donor heavy atom, donor atom, acceptor molecule, acceptor atom, score
      P1  H  7989  7998       L1     8  0.91
      P1  H  7997  8009       L1    13  0.97
      P1  H 10752 10765       L1    14  0.64

> <Gold.Chemscore.Hbond.Weighted>
-9.1854

> <Gold.Chemscore.Metal.Weighted>
-0.0000

> <Gold.Chemscore.Lipo.Weighted>
-5.5008

> <Gold.Chemscore.Internal_Hbond.Weighted>
0.0000

> <Gold.Chemscore.DEClash.Weighted>
0.0000

> <Gold.Chemscore.DEInternal.Weighted>
1.8668

> <Gold.Chemscore.Rot.Weighted>
3.7242

> <Gold.Chemscore.Internal.Correction.Weighted>
   9.000000E+99

> <Gold.Protein.RotatedTorsions>
[ 6907 6896 6895 6894 ] final  -90.90 input  -60.11 | X-H torsion
[ 7974 7965 7964 7962 ] final   -2.01 input  175.53 | X-H torsion
[ 8008 7997 7996 7995 ] final -126.11 input   59.86 | X-H torsion
[ 10167 10162 10161 10158 ] final  -70.11 input  -65.29 | X-H torsion
[ 10718 10713 10712 10709 ] final -108.32 input   66.30 | X-H torsion
[ 10763 10752 10751 10750 ] final  158.93 input  -60.55 | X-H torsion
[ 11005 11000 10999 10996 ] final  105.42 input  -57.11 | X-H torsion

> <Gold.Protein.ActiveResidues>
 VAL166  LYS551  ARG553  GLY616  TRP617  ASP618  TYR619  PRO620  LYS621  CYS622 
 ASP623  PHE694  ASN695  SER759  ASP760  ASP761  ALA762  ILE779  LEU786  VAL792 
 PHE793  MET794  SER795  GLU796  ALA797  LYS798  CYS799  TRP800  GLU811  SER814 

> <Gold.Protein.RotatedAtoms>
  150.6886  134.2360  159.4453 H   0  0  0  0  0  0  0  0  0  0  0  0  # atno 6907 bound_to 6896
  152.0308  134.9766  160.0582 H   0  0  0  0  0  0  0  0  0  0  0  0  # atno 6908 bound_to 6896
  152.1307  133.4371  159.4756 H   0  0  0  0  0  0  0  0  0  0  0  0  # atno 6909 bound_to 6896
  146.2410  140.1507  142.8334 H   0  0  0  0  0  0  0  0  0  0  0  0  # atno 7974 bound_to 7965
  155.2243  140.0423  157.2953 H   0  0  0  0  0  0  0  0  0  0  0  0  # atno 8008 bound_to 7997
  154.5929  140.2431  155.7867 H   0  0  0  0  0  0  0  0  0  0  0  0  # atno 8009 bound_to 7997
  156.2271  140.2951  156.0103 H   0  0  0  0  0  0  0  0  0  0  0  0  # atno 8010 bound_to 7997
  140.5378  143.2317  151.7144 H   0  0  0  0  0  0  0  0  0  0  0  0  # atno 10167 bound_to 10162
  156.0480  130.5707  150.7944 H   0  0  0  0  0  0  0  0  0  0  0  0  # atno 10718 bound_to 10713
  154.2237  135.2781  155.2915 H   0  0  0  0  0  0  0  0  0  0  0  0  # atno 10763 bound_to 10752
  154.5680  135.5627  153.7072 H   0  0  0  0  0  0  0  0  0  0  0  0  # atno 10764 bound_to 10752
  153.0036  135.6314  154.2378 H   0  0  0  0  0  0  0  0  0  0  0  0  # atno 10765 bound_to 10752
  139.8802  134.9335  156.5511 H   0  0  0  0  0  0  0  0  0  0  0  0  # atno 11005 bound_to 11000
  145.0170  140.8762  143.5190 LP  0  0  0  0  0  0  0  0  0  0  0  0  # atno 17320 bound_to 7965
  145.1549  139.2492  143.5421 LP  0  0  0  0  0  0  0  0  0  0  0  0  # atno 17321 bound_to 7965
  139.4977  144.4015  152.0176 LP  0  0  0  0  0  0  0  0  0  0  0  0  # atno 17342 bound_to 10162
  140.3122  144.3525  150.6031 LP  0  0  0  0  0  0  0  0  0  0  0  0  # atno 17343 bound_to 10162
  157.5376  131.0939  150.9872 LP  0  0  0  0  0  0  0  0  0  0  0  0  # atno 17370 bound_to 10713
  157.0162  130.5656  149.5326 LP  0  0  0  0  0  0  0  0  0  0  0  0  # atno 17371 bound_to 10713
  140.8239  133.8332  155.8921 LP  0  0  0  0  0  0  0  0  0  0  0  0  # atno 17394 bound_to 11000
  140.9392  134.1922  157.4809 LP  0  0  0  0  0  0  0  0  0  0  0  0  # atno 17395 bound_to 11000

$$$$
