AV-unprocessed.smi:240|AV-procd|sdf|1829|dock2
  -GOLD-   2262020433D 1   1.00000     0.00000
 Structure written by MMmdl.
 55 59  0  0  0  0  0  0  0  0  1 V2000
  153.1116  143.9094  158.8135 O   0  0  0  0  0  0  0  0  0  0  0  0
  152.0794  143.3817  159.6280 C   0  0  1  0  0  0  0  0  0  0  0  0
  150.7525  144.0127  159.2026 C   0  0  0  0  0  0  0  0  0  0  0  0
  150.2557  143.1635  158.0288 C   0  0  0  0  0  0  0  0  0  0  0  0
  151.0777  141.8669  158.0576 C   0  0  0  0  0  0  0  0  0  0  0  0
  151.8778  141.8723  159.3771 C   0  0  1  0  0  0  0  0  0  0  0  0
  153.1752  140.9967  159.4303 C   0  0  1  0  0  0  0  0  0  0  0  0
  153.9371  141.2489  160.7595 C   0  0  0  0  0  0  0  0  0  0  0  0
  155.0985  140.4346  160.8562 O   0  0  0  0  0  0  0  0  0  0  0  0
  154.7708  139.0546  160.8599 C   0  0  0  0  0  0  0  0  0  0  0  0
  154.0998  138.7162  159.5260 C   0  0  0  0  0  0  0  0  0  0  0  0
  152.9181  139.5492  159.3205 N   0  0  0  0  0  0  0  0  0  0  0  0
  152.2493  139.1105  158.2321 C   0  0  0  0  0  0  0  0  0  0  0  0
  152.7265  139.4919  157.0218 N   0  0  0  0  0  0  0  0  0  0  0  0
  152.1056  139.0977  155.9059 C   0  0  0  0  0  0  0  0  0  0  0  0
  151.0111  138.3438  155.7808 N   0  0  0  0  0  0  0  0  0  0  0  0
  150.5210  137.9722  156.9983 C   0  0  0  0  0  0  0  0  0  0  0  0
  151.0723  138.3097  158.2660 C   0  0  0  0  0  0  0  0  0  0  0  0
  150.3034  137.7540  159.2812 N   0  0  0  0  0  0  0  0  0  0  0  0
  149.3529  137.1212  158.6491 C   0  0  0  0  0  0  0  0  0  0  0  0
  149.4018  137.2070  157.2757 N   0  0  0  0  0  0  0  0  0  0  0  0
  148.4700  136.6095  156.3313 C   0  0  0  0  0  0  0  0  0  0  0  0
  149.1583  135.7129  155.2760 C   0  0  1  0  0  0  0  0  0  0  0  0
  149.8714  136.5369  154.3695 O   0  0  0  0  0  0  0  0  0  0  0  0
  150.1246  134.6863  155.8601 C   0  0  0  0  0  0  0  0  0  0  0  0
  150.0215  133.5274  154.8790 C   0  0  0  0  0  0  0  0  0  0  0  0
  148.6374  133.5025  154.5750 O   0  0  0  0  0  0  0  0  0  0  0  0
  148.1714  134.8444  154.4704 C   0  0  0  0  0  0  0  0  0  0  0  0
  153.7107  143.2117  158.5959 H   0  0  0  0  0  0  0  0  0  0  0  0
  152.3006  143.6037  160.6724 H   0  0  0  0  0  0  0  0  0  0  0  0
  150.0399  143.9346  160.0247 H   0  0  0  0  0  0  0  0  0  0  0  0
  150.8405  145.0707  158.9521 H   0  0  0  0  0  0  0  0  0  0  0  0
  149.1882  142.9623  158.1234 H   0  0  0  0  0  0  0  0  0  0  0  0
  150.4077  143.6832  157.0822 H   0  0  0  0  0  0  0  0  0  0  0  0
  150.4253  140.9994  157.9676 H   0  0  0  0  0  0  0  0  0  0  0  0
  151.7593  141.8574  157.2063 H   0  0  0  0  0  0  0  0  0  0  0  0
  151.2091  141.5145  160.1620 H   0  0  0  0  0  0  0  0  0  0  0  0
  153.8326  141.2902  158.6115 H   0  0  0  0  0  0  0  0  0  0  0  0
  154.2734  142.2823  160.8296 H   0  0  0  0  0  0  0  0  0  0  0  0
  153.2890  141.0699  161.6192 H   0  0  0  0  0  0  0  0  0  0  0  0
  155.6828  138.4705  160.9828 H   0  0  0  0  0  0  0  0  0  0  0  0
  154.1189  138.8168  161.7021 H   0  0  0  0  0  0  0  0  0  0  0  0
  154.8089  138.8707  158.7115 H   0  0  0  0  0  0  0  0  0  0  0  0
  153.8220  137.6610  159.5146 H   0  0  0  0  0  0  0  0  0  0  0  0
  152.5488  139.4356  154.9808 H   0  0  0  0  0  0  0  0  0  0  0  0
  148.5795  136.5764  159.1709 H   0  0  0  0  0  0  0  0  0  0  0  0
  147.7395  136.0286  156.8957 H   0  0  0  0  0  0  0  0  0  0  0  0
  147.9119  137.4102  155.8444 H   0  0  0  0  0  0  0  0  0  0  0  0
  149.5182  136.4032  153.5032 H   0  0  0  0  0  0  0  0  0  0  0  0
  151.1425  135.0582  155.9857 H   0  0  0  0  0  0  0  0  0  0  0  0
  149.7715  134.3484  156.8348 H   0  0  0  0  0  0  0  0  0  0  0  0
  150.5961  133.7258  153.9729 H   0  0  0  0  0  0  0  0  0  0  0  0
  150.3582  132.5818  155.3043 H   0  0  0  0  0  0  0  0  0  0  0  0
  147.1557  134.8972  154.8634 H   0  0  0  0  0  0  0  0  0  0  0  0
  148.1287  135.1359  153.4196 H   0  0  0  0  0  0  0  0  0  0  0  0
  1  2  1  0  0  0  0
  1 29  1  0  0  0  0
  2  6  1  0  0  0  0
  2  3  1  0  0  0  0
  2 30  1  0  0  0  0
  3  4  1  0  0  0  0
  3 31  1  0  0  0  0
  3 32  1  0  0  0  0
  4  5  1  0  0  0  0
  4 33  1  0  0  0  0
  4 34  1  0  0  0  0
  5  6  1  0  0  0  0
  5 35  1  0  0  0  0
  5 36  1  0  0  0  0
  6  7  1  0  0  0  0
  6 37  1  0  0  0  0
  7 12  1  0  0  0  0
  7  8  1  0  0  0  0
  7 38  1  0  0  0  0
  8  9  1  0  0  0  0
  8 39  1  0  0  0  0
  8 40  1  0  0  0  0
  9 10  1  0  0  0  0
 10 11  1  0  0  0  0
 10 41  1  0  0  0  0
 10 42  1  0  0  0  0
 11 12  1  0  0  0  0
 11 43  1  0  0  0  0
 11 44  1  0  0  0  0
 12 13  1  0  0  0  0
 13 18  1  0  0  0  0
 13 14  2  0  0  0  0
 14 15  1  0  0  0  0
 15 16  2  0  0  0  0
 15 45  1  0  0  0  0
 16 17  1  0  0  0  0
 17 21  1  0  0  0  0
 17 18  2  0  0  0  0
 18 19  1  0  0  0  0
 19 20  2  0  0  0  0
 20 21  1  0  0  0  0
 20 46  1  0  0  0  0
 21 22  1  0  0  0  0
 22 23  1  0  0  0  0
 22 47  1  0  0  0  0
 22 48  1  0  0  0  0
 23 28  1  0  0  0  0
 23 24  1  0  0  0  0
 23 25  1  0  0  0  0
 24 49  1  0  0  0  0
 25 26  1  0  0  0  0
 25 50  1  0  0  0  0
 25 51  1  0  0  0  0
 26 27  1  0  0  0  0
 26 52  1  0  0  0  0
 26 53  1  0  0  0  0
 27 28  1  0  0  0  0
 28 54  1  0  0  0  0
 28 55  1  0  0  0  0
M  END
> <s_m_source_file>
AV-unprocessed.smi

> <i_m_source_file_index>
240

> <i_lp_mmshare_version>
43012

> <i_f3d_flags>
0

> <s_epik_input>
W09IXVtDQEBIXTFbQ0gyXVtDSDJdW0NIMl1bQ0BIXTFbQ0BASF0yW0NIMl1PW0NIMl1bQ0gyXU4yYyhuW2NIXW4zKWMoYzM0KW5bY0hdbjRbQ0gyXVtDQEBdNShbT0hdKVtDSDJdW0NIMl1PW0NIMl01

> <s_epik_cmdline>
J2VwaWtfcHl0aG9uJywgJy1waCcsICc3LjAnLCAnLXRuJywgJzgnLCAnLW1hJywgJzIwMCcsICctbWV0YWxfYmluZGluZycsICctaW1hZScsICc8aW5maWxlLm1hZT4nLCAnLW9tYWUnLCAnPG91dGZpbGUubWFlPic=

> <r_lp_tautomer_probability>
1

> <r_epik_Ionization_Penalty>
0.000130618

> <r_epik_Ionization_Penalty_Charging>
0

> <r_epik_Ionization_Penalty_Neutral>
0.000130618

> <r_epik_State_Penalty>
-0

> <r_epik_Charging_Adjusted_Penalty>
0

> <i_epik_Tot_Q>
0

> <i_epik_Tot_abs_Q>
0

> <r_epik_Metal_State_Penalty>
-0

> <b_epik_Metal_Only>
0

> <s_lp_Force_Field>
OPLS_2005

> <r_lp_Energy>
62.2831

> <b_lp_Chiralities_Consistent>
1

> <s_lp_Variant>
AV-unprocessed.smi:240-6

> <Gold.Version>
5.8.1

> <Gold.Id.Protein>
6NUR|6NUR_protein|mol2

> <Gold.PLP.Fitness>
44.7036

> <Gold.PLP.PLP>
-39.3894

> <Gold.PLP.part.hbond>
-3.9704

> <Gold.PLP.part.metal>
0.0000

> <Gold.PLP.part.buried>
-6.8596

> <Gold.PLP.part.nonpolar>
-29.1277

> <Gold.PLP.part.repulsive>
0.0475

> <Gold.PLP.ligand.clash>
0.0000

> <Gold.PLP.ligand.torsion>
0.4799

> <Gold.PLP.Chemscore.Hbond>
1.9913

> <Gold.PLP.Chemscore.CHOScore>
0.0000

> <Gold.PLP.Chemscore.Metal>
0.0000

> <Gold.Chemscore.Hbonds>
donor molecule, donor type, donor heavy atom, donor atom, acceptor molecule, acceptor atom, score
      L1  H    24    49       P1  7948  1.00
      P1  H  7997  8010       L1    14  0.94

> <Gold.PLP.Chemscore.Internal.Correction>
0.3002

> <Gold.Rescore>
     Score         DG    S(hbond)    S(metal)    S(lipo)     H(rot)  DE(clash)    DE(int)     intcor
     13.83     -15.42       1.89        0.00      96.59       3.00       0.03       1.55       ----

> <Gold.Chemscore.Fitness>
13.8313

> <Gold.Chemscore.DG>
-15.4184

> <Gold.Chemscore.ZeroCoef>
-5.4800

> <Gold.Chemscore.Hbond>
1.8944

> <Gold.Chemscore.Metal>
0.0000

> <Gold.Chemscore.Lipo>
96.5905

> <Gold.Chemscore.Internal_Hbond>
0.0000

> <Gold.Chemscore.DEClash>
0.0345

> <Gold.Chemscore.DEInternal>
1.5526

> <Gold.Chemscore.Rot>
3.0039

> <Gold.Chemscore.Internal.Correction>
   9.000000E+99

> <Gold.Chemscore.Hbonds>
donor molecule, donor type, donor heavy atom, donor atom, acceptor molecule, acceptor atom, score
      L1  H    24    49       P1  7948  0.65
      P1  H  7997  8010       L1    14  0.85

> <Gold.Chemscore.Hbond.Weighted>
-6.3272

> <Gold.Chemscore.Metal.Weighted>
-0.0000

> <Gold.Chemscore.Lipo.Weighted>
-11.3011

> <Gold.Chemscore.Internal_Hbond.Weighted>
0.0000

> <Gold.Chemscore.DEClash.Weighted>
0.0345

> <Gold.Chemscore.DEInternal.Weighted>
1.5526

> <Gold.Chemscore.Rot.Weighted>
7.6899

> <Gold.Chemscore.Internal.Correction.Weighted>
   9.000000E+99

> <Gold.Protein.RotatedTorsions>
[ 6907 6896 6895 6894 ] final -173.84 input  -60.11 | X-H torsion
[ 7974 7965 7964 7962 ] final -153.02 input  175.53 | X-H torsion
[ 8008 7997 7996 7995 ] final   38.18 input   59.86 | X-H torsion
[ 10167 10162 10161 10158 ] final   47.92 input  -65.29 | X-H torsion
[ 10718 10713 10712 10709 ] final  133.83 input   66.30 | X-H torsion
[ 10763 10752 10751 10750 ] final  127.17 input  -60.55 | X-H torsion
[ 11005 11000 10999 10996 ] final  -45.06 input  -57.11 | X-H torsion

> <Gold.Protein.ActiveResidues>
 VAL166  LYS551  ARG553  GLY616  TRP617  ASP618  TYR619  PRO620  LYS621  CYS622 
 ASP623  PHE694  ASN695  SER759  ASP760  ASP761  ALA762  ILE779  LEU786  VAL792 
 PHE793  MET794  SER795  GLU796  ALA797  LYS798  CYS799  TRP800  GLU811  SER814 

> <Gold.Protein.RotatedAtoms>
  151.5627  133.3401  159.2973 H   0  0  0  0  0  0  0  0  0  0  0  0  # atno 6907 bound_to 6896
  150.8413  134.7709  159.6946 H   0  0  0  0  0  0  0  0  0  0  0  0  # atno 6908 bound_to 6896
  152.4480  134.5461  159.9905 H   0  0  0  0  0  0  0  0  0  0  0  0  # atno 6909 bound_to 6896
  144.7763  140.4583  143.5871 H   0  0  0  0  0  0  0  0  0  0  0  0  # atno 7974 bound_to 7965
  155.2159  140.3327  155.4322 H   0  0  0  0  0  0  0  0  0  0  0  0  # atno 8008 bound_to 7997
  156.2352  140.1869  156.7185 H   0  0  0  0  0  0  0  0  0  0  0  0  # atno 8009 bound_to 7997
  154.6047  140.0618  156.9401 H   0  0  0  0  0  0  0  0  0  0  0  0  # atno 8010 bound_to 7997
  140.2987  144.2960  150.6224 H   0  0  0  0  0  0  0  0  0  0  0  0  # atno 10167 bound_to 10162
  157.4733  131.1081  150.9775 H   0  0  0  0  0  0  0  0  0  0  0  0  # atno 10718 bound_to 10713
  153.7051  135.3277  155.3233 H   0  0  0  0  0  0  0  0  0  0  0  0  # atno 10763 bound_to 10752
  154.8401  135.4463  154.1371 H   0  0  0  0  0  0  0  0  0  0  0  0  # atno 10764 bound_to 10752
  153.2449  135.6975  153.7821 H   0  0  0  0  0  0  0  0  0  0  0  0  # atno 10765 bound_to 10752
  141.0491  133.6750  156.2960 H   0  0  0  0  0  0  0  0  0  0  0  0  # atno 11005 bound_to 11000
  145.6177  139.1520  143.3040 LP  0  0  0  0  0  0  0  0  0  0  0  0  # atno 17320 bound_to 7965
  146.1944  140.6289  142.9131 LP  0  0  0  0  0  0  0  0  0  0  0  0  # atno 17321 bound_to 7965
  140.5670  143.2185  151.7666 LP  0  0  0  0  0  0  0  0  0  0  0  0  # atno 17342 bound_to 10162
  139.4920  144.4270  151.9915 LP  0  0  0  0  0  0  0  0  0  0  0  0  # atno 17343 bound_to 10162
  157.0532  130.5795  149.5374 LP  0  0  0  0  0  0  0  0  0  0  0  0  # atno 17370 bound_to 10713
  156.0084  130.5173  150.7908 LP  0  0  0  0  0  0  0  0  0  0  0  0  # atno 17371 bound_to 10713
  140.6090  134.5478  157.5530 LP  0  0  0  0  0  0  0  0  0  0  0  0  # atno 17394 bound_to 11000
  139.9335  134.7918  156.0864 LP  0  0  0  0  0  0  0  0  0  0  0  0  # atno 17395 bound_to 11000

$$$$
