AV-unprocessed.smi:688|AV-procd|sdf|3357|dock9
  -GOLD-   22720 0333D 1   1.00000     0.00000
 Structure written by MMmdl.
 35 36  0  0  0  0  0  0  0  0  2 V2000
  147.7989  136.5099  159.6792 O   0  0  0  0  0  0  0  0  0  0  0  0
  148.5734  136.8324  158.7798 C   0  0  0  0  0  0  0  0  0  0  0  0
  149.7725  136.2109  158.5826 N   0  5  0  0  0  0  0  0  0  0  0  0
  150.6509  136.5597  157.5927 C   0  0  0  0  0  0  0  0  0  0  0  0
  151.7268  135.9824  157.4364 O   0  0  0  0  0  0  0  0  0  0  0  0
  150.3225  137.5847  156.7506 N   0  0  0  0  0  0  0  0  0  0  0  0
  151.2172  138.0335  155.6693 C   0  0  0  0  0  0  0  0  0  0  0  0
  152.0200  139.2994  156.0477 C   0  0  1  0  0  0  0  0  0  0  0  0
  152.9554  139.5555  155.0204 O   0  0  0  0  0  0  0  0  0  0  0  0
  151.1453  140.5527  156.2461 C   0  0  0  0  0  0  0  0  0  0  0  0
  151.1511  140.9069  157.6227 O   0  0  0  0  0  0  0  0  0  0  0  0
  151.7790  142.1527  157.8904 C   0  0  0  0  0  0  0  0  0  0  0  0
  152.3683  142.2204  159.2902 C   0  0  0  0  0  0  0  0  0  0  0  0
  152.0520  143.3038  160.1370 C   0  0  0  0  0  0  0  0  0  0  0  0
  152.6061  143.3778  161.4293 C   0  0  0  0  0  0  0  0  0  0  0  0
  153.4810  142.3703  161.8795 C   0  0  0  0  0  0  0  0  0  0  0  0
  154.1730  142.4687  163.4566 Cl  0  0  0  0  0  0  0  0  0  0  0  0
  153.7942  141.2841  161.0392 C   0  0  0  0  0  0  0  0  0  0  0  0
  153.2358  141.2067  159.7483 C   0  0  0  0  0  0  0  0  0  0  0  0
  149.0946  138.2522  156.9069 C   0  0  0  0  0  0  0  0  0  0  0  0
  148.2199  137.9261  157.8778 C   0  0  0  0  0  0  0  0  0  0  0  0
  146.7304  138.7825  158.0600 Cl  0  0  0  0  0  0  0  0  0  0  0  0
  151.9032  137.2213  155.4210 H   0  0  0  0  0  0  0  0  0  0  0  0
  150.6532  138.2155  154.7533 H   0  0  0  0  0  0  0  0  0  0  0  0
  152.5844  139.1008  156.9593 H   0  0  0  0  0  0  0  0  0  0  0  0
  152.7424  139.0053  154.2823 H   0  0  0  0  0  0  0  0  0  0  0  0
  151.4818  141.3908  155.6337 H   0  0  0  0  0  0  0  0  0  0  0  0
  150.1259  140.3428  155.9285 H   0  0  0  0  0  0  0  0  0  0  0  0
  152.5926  142.2830  157.1768 H   0  0  0  0  0  0  0  0  0  0  0  0
  151.0786  142.9723  157.7204 H   0  0  0  0  0  0  0  0  0  0  0  0
  151.3917  144.0871  159.7939 H   0  0  0  0  0  0  0  0  0  0  0  0
  152.3688  144.2151  162.0692 H   0  0  0  0  0  0  0  0  0  0  0  0
  154.4656  140.5109  161.3826 H   0  0  0  0  0  0  0  0  0  0  0  0
  153.4840  140.3722  159.1089 H   0  0  0  0  0  0  0  0  0  0  0  0
  148.9142  139.0505  156.2021 H   0  0  0  0  0  0  0  0  0  0  0  0
  1  2  2  0  0  0  0
  2 21  1  0  0  0  0
  2  3  1  0  0  0  0
  3  4  1  0  0  0  0
  4  5  2  0  0  0  0
  4  6  1  0  0  0  0
  6  7  1  0  0  0  0
  6 20  1  0  0  0  0
  7  8  1  0  0  0  0
  7 23  1  0  0  0  0
  7 24  1  0  0  0  0
  8  9  1  0  0  0  0
  8 10  1  0  0  0  0
  8 25  1  0  0  0  0
  9 26  1  0  0  0  0
 10 11  1  0  0  0  0
 10 27  1  0  0  0  0
 10 28  1  0  0  0  0
 11 12  1  0  0  0  0
 12 13  1  0  0  0  0
 12 29  1  0  0  0  0
 12 30  1  0  0  0  0
 13 19  1  0  0  0  0
 13 14  2  0  0  0  0
 14 15  1  0  0  0  0
 14 31  1  0  0  0  0
 15 16  2  0  0  0  0
 15 32  1  0  0  0  0
 16 17  1  0  0  0  0
 16 18  1  0  0  0  0
 18 19  2  0  0  0  0
 18 33  1  0  0  0  0
 19 34  1  0  0  0  0
 20 21  2  0  0  0  0
 20 35  1  0  0  0  0
 21 22  1  0  0  0  0
M  CHG  1   3  -1
M  END
> <s_m_source_file>
AV-unprocessed.smi

> <i_m_source_file_index>
688

> <i_lp_mmshare_version>
43012

> <i_f3d_flags>
0

> <s_epik_input>
Tz1jMVtuSF1jKD1PKW4oW2NIXWMxQ2wpW0NIMl1bQ0BIXShbT0hdKVtDSDJdT1tDSDJdYzJbY0hdW2NIXWMoQ2wpW2NIXVtjSF0y

> <s_epik_cmdline>
J2VwaWtfcHl0aG9uJywgJy1waCcsICc3LjAnLCAnLXRuJywgJzgnLCAnLW1hJywgJzIwMCcsICctbWV0YWxfYmluZGluZycsICctaW1hZScsICc8aW5maWxlLm1hZT4nLCAnLW9tYWUnLCAnPG91dGZpbGUubWFlPic=

> <r_epik_Ionization_Penalty>
1.82111

> <r_epik_Ionization_Penalty_Charging>
5.03334e-08

> <r_epik_Ionization_Penalty_Neutral>
1.82111

> <r_epik_State_Penalty>
1.93633

> <r_epik_Charging_Adjusted_Penalty>
1.93633

> <i_epik_Tot_Q>
-1

> <i_epik_Tot_abs_Q>
1

> <r_epik_Metal_State_Penalty>
0.0147818

> <b_epik_Metal_Only>
0

> <s_lp_Force_Field>
OPLS_2005

> <r_lp_Energy>
20.5354

> <b_lp_Chiralities_Consistent>
1

> <s_lp_Variant>
AV-unprocessed.smi:688-4

> <Gold.Version>
5.8.1

> <Gold.Id.Protein>
6NUR|6NUR_protein|mol2

> <Gold.PLP.Fitness>
46.6010

> <Gold.PLP.PLP>
-40.6632

> <Gold.PLP.part.hbond>
-3.8031

> <Gold.PLP.part.metal>
0.0000

> <Gold.PLP.part.buried>
-5.5804

> <Gold.PLP.part.nonpolar>
-31.5705

> <Gold.PLP.part.repulsive>
0.0070

> <Gold.PLP.ligand.clash>
0.0000

> <Gold.PLP.ligand.torsion>
1.6104

> <Gold.PLP.Chemscore.Hbond>
3.0000

> <Gold.PLP.Chemscore.CHOScore>
0.0000

> <Gold.PLP.Chemscore.Metal>
0.0000

> <Gold.Chemscore.Hbonds>
donor molecule, donor type, donor heavy atom, donor atom, acceptor molecule, acceptor atom, score
      P1  H  6896  6908       L1     3  1.72
      P1  H  7997  8008       L1     9  0.95

> <Gold.PLP.Chemscore.Internal.Correction>
0.1586

> <Gold.Rescore>
     Score         DG    S(hbond)    S(metal)    S(lipo)     H(rot)  DE(clash)    DE(int)     intcor
     13.64     -15.48       1.55        0.00     103.55       2.85       0.26       1.58       ----

> <Gold.Chemscore.Fitness>
13.6375

> <Gold.Chemscore.DG>
-15.4782

> <Gold.Chemscore.ZeroCoef>
-5.4800

> <Gold.Chemscore.Hbond>
1.5537

> <Gold.Chemscore.Metal>
0.0000

> <Gold.Chemscore.Lipo>
103.5516

> <Gold.Chemscore.Internal_Hbond>
0.0000

> <Gold.Chemscore.DEClash>
0.2627

> <Gold.Chemscore.DEInternal>
1.5780

> <Gold.Chemscore.Rot>
2.8542

> <Gold.Chemscore.Internal.Correction>
   9.000000E+99

> <Gold.Chemscore.Hbonds>
donor molecule, donor type, donor heavy atom, donor atom, acceptor molecule, acceptor atom, score
      P1  H  6896  6908       L1     3  0.36
      P1  H  7997  8008       L1     9  0.22

> <Gold.Chemscore.Hbond.Weighted>
-5.1894

> <Gold.Chemscore.Metal.Weighted>
-0.0000

> <Gold.Chemscore.Lipo.Weighted>
-12.1155

> <Gold.Chemscore.Internal_Hbond.Weighted>
0.0000

> <Gold.Chemscore.DEClash.Weighted>
0.2627

> <Gold.Chemscore.DEInternal.Weighted>
1.5780

> <Gold.Chemscore.Rot.Weighted>
7.3067

> <Gold.Chemscore.Internal.Correction.Weighted>
   9.000000E+99

> <Gold.Protein.RotatedTorsions>
[ 6907 6896 6895 6894 ] final  169.92 input  -60.11 | X-H torsion
[ 7974 7965 7964 7962 ] final -122.19 input  175.53 | X-H torsion
[ 8008 7997 7996 7995 ] final  -29.08 input   59.86 | X-H torsion
[ 10167 10162 10161 10158 ] final -153.10 input  -65.29 | X-H torsion
[ 10718 10713 10712 10709 ] final -179.71 input   66.30 | X-H torsion
[ 10763 10752 10751 10750 ] final    8.09 input  -60.55 | X-H torsion
[ 11005 11000 10999 10996 ] final   97.37 input  -57.11 | X-H torsion

> <Gold.Protein.ActiveResidues>
 VAL166  LYS551  ARG553  GLY616  TRP617  ASP618  TYR619  PRO620  LYS621  CYS622 
 ASP623  PHE694  ASN695  SER759  ASP760  ASP761  ALA762  ILE779  LEU786  VAL792 
 PHE793  MET794  SER795  GLU796  ALA797  LYS798  CYS799  TRP800  GLU811  SER814 

> <Gold.Protein.RotatedAtoms>
  151.8243  133.3399  159.3593 H   0  0  0  0  0  0  0  0  0  0  0  0  # atno 6907 bound_to 6896
  150.7284  134.5544  159.5820 H   0  0  0  0  0  0  0  0  0  0  0  0  # atno 6908 bound_to 6896
  152.2983  134.7642  160.0414 H   0  0  0  0  0  0  0  0  0  0  0  0  # atno 6909 bound_to 6896
  145.0321  140.8076  143.4317 H   0  0  0  0  0  0  0  0  0  0  0  0  # atno 7974 bound_to 7965
  154.4305  140.1828  156.1191 H   0  0  0  0  0  0  0  0  0  0  0  0  # atno 8008 bound_to 7997
  156.0157  140.3346  155.6961 H   0  0  0  0  0  0  0  0  0  0  0  0  # atno 8009 bound_to 7997
  155.6048  140.0644  157.2713 H   0  0  0  0  0  0  0  0  0  0  0  0  # atno 8010 bound_to 7997
  139.7125  143.9086  152.2473 H   0  0  0  0  0  0  0  0  0  0  0  0  # atno 10167 bound_to 10162
  156.8631  130.9758  151.3081 H   0  0  0  0  0  0  0  0  0  0  0  0  # atno 10718 bound_to 10713
  153.2290  135.6890  153.7912 H   0  0  0  0  0  0  0  0  0  0  0  0  # atno 10763 bound_to 10752
  153.7084  135.3286  155.3241 H   0  0  0  0  0  0  0  0  0  0  0  0  # atno 10764 bound_to 10752
  154.8305  135.4584  154.1167 H   0  0  0  0  0  0  0  0  0  0  0  0  # atno 10765 bound_to 10752
  139.8776  134.8997  156.4296 H   0  0  0  0  0  0  0  0  0  0  0  0  # atno 11005 bound_to 11000
  145.1757  139.2379  143.5319 LP  0  0  0  0  0  0  0  0  0  0  0  0  # atno 17320 bound_to 7965
  146.3500  140.1518  142.8592 LP  0  0  0  0  0  0  0  0  0  0  0  0  # atno 17321 bound_to 7965
  139.8959  144.6939  150.8719 LP  0  0  0  0  0  0  0  0  0  0  0  0  # atno 17342 bound_to 10162
  140.7736  143.3551  151.1938 LP  0  0  0  0  0  0  0  0  0  0  0  0  # atno 17343 bound_to 10162
  157.6238  130.8676  149.9155 LP  0  0  0  0  0  0  0  0  0  0  0  0  # atno 17370 bound_to 10713
  156.0766  130.3678  150.0666 LP  0  0  0  0  0  0  0  0  0  0  0  0  # atno 17371 bound_to 10713
  140.9076  133.7735  155.9753 LP  0  0  0  0  0  0  0  0  0  0  0  0  # atno 17394 bound_to 11000
  140.8582  134.2872  157.5246 LP  0  0  0  0  0  0  0  0  0  0  0  0  # atno 17395 bound_to 11000

$$$$
