AV-unprocessed.smi:1403|AV-procd|sdf|5701|dock10
  -GOLD-   22720 5333D 1   1.00000     0.00000
 Structure written by MMmdl.
 35 36  0  0  0  0  0  0  0  0  2 V2000
  150.9291  141.6682  155.7542 C   0  0  0  0  0  0  0  0  0  0  0  0
  151.8149  141.4883  156.9951 C   0  0  2  0  0  0  0  0  0  0  0  0
  151.5946  140.1590  157.5606 N   0  0  0  0  0  0  0  0  0  0  0  0
  152.3771  139.5438  158.4601 C   0  0  0  0  0  0  0  0  0  0  0  0
  153.4528  139.9955  158.8520 O   0  0  0  0  0  0  0  0  0  0  0  0
  151.8452  138.2207  159.0167 C   0  0  0  0  0  0  0  0  0  0  0  0
  151.7192  137.2234  157.9432 N   0  0  0  0  0  0  0  0  0  0  0  0
  150.4548  136.6347  157.7627 C   0  0  0  0  0  0  0  0  0  0  0  0
  150.2390  135.6798  156.8388 C   0  0  0  0  0  0  0  0  0  0  0  0
  151.3600  135.2589  156.0084 C   0  0  0  0  0  0  0  0  0  0  0  0
  151.1817  134.3885  155.1586 O   0  0  0  0  0  0  0  0  0  0  0  0
  152.5673  135.8605  156.2197 N   0  5  0  0  0  0  0  0  0  0  0  0
  152.7737  136.8264  157.1686 C   0  0  0  0  0  0  0  0  0  0  0  0
  153.8747  137.3468  157.3481 O   0  0  0  0  0  0  0  0  0  0  0  0
  151.5540  142.5791  158.0575 C   0  0  2  0  0  0  0  0  0  0  0  0
  152.0258  143.9920  157.6890 C   0  0  0  0  0  0  0  0  0  0  0  0
  152.2815  144.6000  159.0486 C   0  0  0  0  0  0  0  0  0  0  0  0
  152.8711  143.4144  159.8032 C   0  0  0  0  0  0  0  0  0  0  0  0
  152.2047  142.2649  159.2898 O   0  0  0  0  0  0  0  0  0  0  0  0
  151.0875  142.6458  155.2980 H   0  0  0  0  0  0  0  0  0  0  0  0
  149.8708  141.5851  156.0040 H   0  0  0  0  0  0  0  0  0  0  0  0
  151.1537  140.9136  154.9997 H   0  0  0  0  0  0  0  0  0  0  0  0
  152.8500  141.5867  156.6641 H   0  0  0  0  0  0  0  0  0  0  0  0
  150.7330  139.7005  157.3022 H   0  0  0  0  0  0  0  0  0  0  0  0
  152.5098  137.8488  159.7984 H   0  0  0  0  0  0  0  0  0  0  0  0
  150.8907  138.3999  159.5139 H   0  0  0  0  0  0  0  0  0  0  0  0
  149.6819  136.9978  158.4243 H   0  0  0  0  0  0  0  0  0  0  0  0
  149.2628  135.2338  156.7189 H   0  0  0  0  0  0  0  0  0  0  0  0
  150.4848  142.6273  158.2690 H   0  0  0  0  0  0  0  0  0  0  0  0
  152.9578  143.9760  157.1246 H   0  0  0  0  0  0  0  0  0  0  0  0
  151.2899  144.5447  157.1047 H   0  0  0  0  0  0  0  0  0  0  0  0
  152.9515  145.4599  159.0157 H   0  0  0  0  0  0  0  0  0  0  0  0
  151.3414  144.9110  159.5055 H   0  0  0  0  0  0  0  0  0  0  0  0
  153.9365  143.3220  159.5901 H   0  0  0  0  0  0  0  0  0  0  0  0
  152.7479  143.5007  160.8828 H   0  0  0  0  0  0  0  0  0  0  0  0
  1  2  1  0  0  0  0
  1 20  1  0  0  0  0
  1 21  1  0  0  0  0
  1 22  1  0  0  0  0
  2  3  1  0  0  0  0
  2 15  1  0  0  0  0
  2 23  1  0  0  0  0
  3  4  1  0  0  0  0
  3 24  1  0  0  0  0
  4  5  2  0  0  0  0
  4  6  1  0  0  0  0
  6  7  1  0  0  0  0
  6 25  1  0  0  0  0
  6 26  1  0  0  0  0
  7 13  1  0  0  0  0
  7  8  1  0  0  0  0
  8  9  2  0  0  0  0
  8 27  1  0  0  0  0
  9 10  1  0  0  0  0
  9 28  1  0  0  0  0
 10 11  2  0  0  0  0
 10 12  1  0  0  0  0
 12 13  1  0  0  0  0
 13 14  2  0  0  0  0
 15 19  1  0  0  0  0
 15 16  1  0  0  0  0
 15 29  1  0  0  0  0
 16 17  1  0  0  0  0
 16 30  1  0  0  0  0
 16 31  1  0  0  0  0
 17 18  1  0  0  0  0
 17 32  1  0  0  0  0
 17 33  1  0  0  0  0
 18 19  1  0  0  0  0
 18 34  1  0  0  0  0
 18 35  1  0  0  0  0
M  CHG  1  12  -1
M  END
> <s_m_source_file>
AV-unprocessed.smi

> <i_m_source_file_index>
1403

> <i_lp_mmshare_version>
43012

> <i_f3d_flags>
0

> <s_epik_input>
TzFbQ0gyXVtDSDJdW0NIMl1bQ0BIXTFbQ0BIXShbQ0gzXSlbTkhdQyg9TylbQ0gyXW4yW2NIXVtjSF1jKD1PKVtuSF1jMj1P

> <s_epik_cmdline>
J2VwaWtfcHl0aG9uJywgJy1waCcsICc3LjAnLCAnLXRuJywgJzgnLCAnLW1hJywgJzIwMCcsICctbWV0YWxfYmluZGluZycsICctaW1hZScsICc8aW5maWxlLm1hZT4nLCAnLW9tYWUnLCAnPG91dGZpbGUubWFlPic=

> <r_lp_tautomer_probability>
0.999537

> <r_epik_Ionization_Penalty>
3.07438

> <r_epik_Ionization_Penalty_Charging>
2.82466e-08

> <r_epik_Ionization_Penalty_Neutral>
3.07438

> <r_epik_State_Penalty>
3.07341

> <r_epik_Charging_Adjusted_Penalty>
3.07341

> <i_epik_Tot_Q>
-1

> <i_epik_Tot_abs_Q>
1

> <r_epik_Metal_State_Penalty>
0.45947

> <b_epik_Metal_Only>
1

> <s_lp_Force_Field>
OPLS_2005

> <r_lp_Energy>
29.4252

> <b_lp_Chiralities_Consistent>
1

> <s_lp_Variant>
AV-unprocessed.smi:1403-5

> <Gold.Version>
5.8.1

> <Gold.Id.Protein>
6NUR|6NUR_protein|mol2

> <Gold.PLP.Fitness>
39.5844

> <Gold.PLP.PLP>
-31.1783

> <Gold.PLP.part.hbond>
-2.0000

> <Gold.PLP.part.metal>
0.0000

> <Gold.PLP.part.buried>
-5.2625

> <Gold.PLP.part.nonpolar>
-24.5721

> <Gold.PLP.part.repulsive>
0.1313

> <Gold.PLP.ligand.clash>
0.0000

> <Gold.PLP.ligand.torsion>
0.2954

> <Gold.PLP.Chemscore.Hbond>
2.9920

> <Gold.PLP.Chemscore.CHOScore>
0.0000

> <Gold.PLP.Chemscore.Metal>
0.0000

> <Gold.Chemscore.Hbonds>
donor molecule, donor type, donor heavy atom, donor atom, acceptor molecule, acceptor atom, score
      P1  H  7997  8008       L1     5  0.78
      P1  H 10752 10765       L1    12  0.80

> <Gold.PLP.Chemscore.Internal.Correction>
0.0210

> <Gold.Rescore>
     Score         DG    S(hbond)    S(metal)    S(lipo)     H(rot)  DE(clash)    DE(int)     intcor
     11.66     -14.85       1.80        0.00      72.31       1.99       0.04       3.15       ----

> <Gold.Chemscore.Fitness>
11.6592

> <Gold.Chemscore.DG>
-14.8498

> <Gold.Chemscore.ZeroCoef>
-5.4800

> <Gold.Chemscore.Hbond>
1.8008

> <Gold.Chemscore.Metal>
0.0000

> <Gold.Chemscore.Lipo>
72.3057

> <Gold.Chemscore.Internal_Hbond>
0.0000

> <Gold.Chemscore.DEClash>
0.0389

> <Gold.Chemscore.DEInternal>
3.1517

> <Gold.Chemscore.Rot>
1.9940

> <Gold.Chemscore.Internal.Correction>
   9.000000E+99

> <Gold.Chemscore.Hbonds>
donor molecule, donor type, donor heavy atom, donor atom, acceptor molecule, acceptor atom, score
      P1  H  7997  8008       L1     5  0.45
      P1  H 10752 10765       L1    12  0.03

> <Gold.Chemscore.Hbond.Weighted>
-6.0147

> <Gold.Chemscore.Metal.Weighted>
-0.0000

> <Gold.Chemscore.Lipo.Weighted>
-8.4598

> <Gold.Chemscore.Internal_Hbond.Weighted>
0.0000

> <Gold.Chemscore.DEClash.Weighted>
0.0389

> <Gold.Chemscore.DEInternal.Weighted>
3.1517

> <Gold.Chemscore.Rot.Weighted>
5.1047

> <Gold.Chemscore.Internal.Correction.Weighted>
   9.000000E+99

> <Gold.Protein.RotatedTorsions>
[ 6907 6896 6895 6894 ] final   28.12 input  -60.11 | X-H torsion
[ 7974 7965 7964 7962 ] final  124.94 input  175.53 | X-H torsion
[ 8008 7997 7996 7995 ] final  -96.83 input   59.86 | X-H torsion
[ 10167 10162 10161 10158 ] final -148.14 input  -65.29 | X-H torsion
[ 10718 10713 10712 10709 ] final  -85.42 input   66.30 | X-H torsion
[ 10763 10752 10751 10750 ] final -168.88 input  -60.55 | X-H torsion
[ 11005 11000 10999 10996 ] final  112.08 input  -57.11 | X-H torsion

> <Gold.Protein.ActiveResidues>
 VAL166  LYS551  ARG553  GLY616  TRP617  ASP618  TYR619  PRO620  LYS621  CYS622 
 ASP623  PHE694  ASN695  SER759  ASP760  ASP761  ALA762  ILE779  LEU786  VAL792 
 PHE793  MET794  SER795  GLU796  ALA797  LYS798  CYS799  TRP800  GLU811  SER814 

> <Gold.Protein.RotatedAtoms>
  152.0123  134.9869  160.0568 H   0  0  0  0  0  0  0  0  0  0  0  0  # atno 6907 bound_to 6896
  152.1417  133.4463  159.4778 H   0  0  0  0  0  0  0  0  0  0  0  0  # atno 6908 bound_to 6896
  150.6866  134.2215  159.4442 H   0  0  0  0  0  0  0  0  0  0  0  0  # atno 6909 bound_to 6896
  145.0787  139.3674  143.4920 H   0  0  0  0  0  0  0  0  0  0  0  0  # atno 7974 bound_to 7965
  154.7797  140.0468  157.1117 H   0  0  0  0  0  0  0  0  0  0  0  0  # atno 8008 bound_to 7997
  154.9720  140.3091  155.4964 H   0  0  0  0  0  0  0  0  0  0  0  0  # atno 8009 bound_to 7997
  156.2934  140.2251  156.4813 H   0  0  0  0  0  0  0  0  0  0  0  0  # atno 8010 bound_to 7997
  139.7558  143.8450  152.2597 H   0  0  0  0  0  0  0  0  0  0  0  0  # atno 10167 bound_to 10162
  155.9997  130.4730  150.4559 H   0  0  0  0  0  0  0  0  0  0  0  0  # atno 10718 bound_to 10713
  154.6582  135.2921  154.9901 H   0  0  0  0  0  0  0  0  0  0  0  0  # atno 10763 bound_to 10752
  154.0970  135.6582  153.4866 H   0  0  0  0  0  0  0  0  0  0  0  0  # atno 10764 bound_to 10752
  153.0414  135.5233  154.7520 H   0  0  0  0  0  0  0  0  0  0  0  0  # atno 10765 bound_to 10752
  139.8918  134.9522  156.6530 H   0  0  0  0  0  0  0  0  0  0  0  0  # atno 11005 bound_to 11000
  146.3530  140.0566  142.8632 LP  0  0  0  0  0  0  0  0  0  0  0  0  # atno 17320 bound_to 7965
  145.1205  140.9459  143.4603 LP  0  0  0  0  0  0  0  0  0  0  0  0  # atno 17321 bound_to 7965
  139.8441  144.7196  150.9294 LP  0  0  0  0  0  0  0  0  0  0  0  0  # atno 17342 bound_to 10162
  140.7802  143.3957  151.1234 LP  0  0  0  0  0  0  0  0  0  0  0  0  # atno 17343 bound_to 10162
  157.2588  131.0562  151.2333 LP  0  0  0  0  0  0  0  0  0  0  0  0  # atno 17370 bound_to 10713
  157.3456  130.7055  149.6408 LP  0  0  0  0  0  0  0  0  0  0  0  0  # atno 17371 bound_to 10713
  140.7506  133.8901  155.8344 LP  0  0  0  0  0  0  0  0  0  0  0  0  # atno 17394 bound_to 11000
  141.0004  134.1158  157.4323 LP  0  0  0  0  0  0  0  0  0  0  0  0  # atno 17395 bound_to 11000

$$$$
