AV-unprocessed.smi:1234|AV-procd|sdf|5174|dock4
  -GOLD-   22720 4253D 1   1.00000     0.00000
 Structure written by MMmdl.
 32 33  0  0  0  0  0  0  0  0  2 V2000
  149.4161  135.8917  158.8153 O   0  0  0  0  0  0  0  0  0  0  0  0
  149.1739  136.9672  159.3680 C   0  0  0  0  0  0  0  0  0  0  0  0
  149.7292  138.0950  158.9049 N   0  0  0  0  0  0  0  0  0  0  0  0
  150.6380  138.1799  157.7687 C   0  0  0  0  0  0  0  0  0  0  0  0
  151.0004  139.6475  157.4795 C   0  0  0  0  0  0  0  0  0  0  0  0
  151.8602  140.3026  158.5740 C   0  0  0  0  0  0  0  0  0  0  0  0
  152.4226  139.6017  159.4169 O   0  0  0  0  0  0  0  0  0  0  0  0
  151.9725  141.6473  158.5742 N   0  0  0  0  0  0  0  0  0  0  0  0
  152.7723  142.3908  159.5458 C   0  0  0  0  0  0  0  0  0  0  0  0
  152.8362  143.8246  159.0197 C   0  0  0  0  0  0  0  0  0  0  0  0
  151.5811  143.9657  158.1698 C   0  0  0  0  0  0  0  0  0  0  0  0
  151.3358  142.5586  157.6234 C   0  0  0  0  0  0  0  0  0  0  0  0
  148.3734  137.1546  160.4420 N   0  5  0  0  0  0  0  0  0  0  0  0
  147.8955  136.0956  161.1161 C   0  0  0  0  0  0  0  0  0  0  0  0
  147.6738  134.9100  160.5256 N   0  0  0  0  0  0  0  0  0  0  0  0
  147.1838  133.9481  161.3986 N   0  0  0  0  0  0  0  0  0  0  0  0
  147.0556  134.4333  162.6334 C   0  0  0  0  0  0  0  0  0  0  0  0
  147.5253  136.1072  162.8429 S   0  0  0  0  0  0  0  0  0  0  0  0
  149.5061  138.9556  159.3829 H   0  0  0  0  0  0  0  0  0  0  0  0
  151.5395  137.6037  157.9853 H   0  0  0  0  0  0  0  0  0  0  0  0
  150.1609  137.7254  156.8988 H   0  0  0  0  0  0  0  0  0  0  0  0
  151.5348  139.7046  156.5304 H   0  0  0  0  0  0  0  0  0  0  0  0
  150.0840  140.2279  157.3658 H   0  0  0  0  0  0  0  0  0  0  0  0
  152.2714  142.3593  160.5147 H   0  0  0  0  0  0  0  0  0  0  0  0
  153.7709  141.9680  159.6663 H   0  0  0  0  0  0  0  0  0  0  0  0
  152.8934  144.5655  159.8176 H   0  0  0  0  0  0  0  0  0  0  0  0
  153.7185  143.9440  158.3892 H   0  0  0  0  0  0  0  0  0  0  0  0
  150.7443  144.2629  158.8035 H   0  0  0  0  0  0  0  0  0  0  0  0
  151.6852  144.7129  157.3826 H   0  0  0  0  0  0  0  0  0  0  0  0
  151.8076  142.4422  156.6468 H   0  0  0  0  0  0  0  0  0  0  0  0
  150.2682  142.3643  157.5129 H   0  0  0  0  0  0  0  0  0  0  0  0
  146.6851  133.8009  163.4261 H   0  0  0  0  0  0  0  0  0  0  0  0
  1  2  2  0  0  0  0
  2  3  1  0  0  0  0
  2 13  1  0  0  0  0
  3  4  1  0  0  0  0
  3 19  1  0  0  0  0
  4  5  1  0  0  0  0
  4 20  1  0  0  0  0
  4 21  1  0  0  0  0
  5  6  1  0  0  0  0
  5 22  1  0  0  0  0
  5 23  1  0  0  0  0
  6  7  2  0  0  0  0
  6  8  1  0  0  0  0
  8 12  1  0  0  0  0
  8  9  1  0  0  0  0
  9 10  1  0  0  0  0
  9 24  1  0  0  0  0
  9 25  1  0  0  0  0
 10 11  1  0  0  0  0
 10 26  1  0  0  0  0
 10 27  1  0  0  0  0
 11 12  1  0  0  0  0
 11 28  1  0  0  0  0
 11 29  1  0  0  0  0
 12 30  1  0  0  0  0
 12 31  1  0  0  0  0
 13 14  1  0  0  0  0
 14 18  1  0  0  0  0
 14 15  2  0  0  0  0
 15 16  1  0  0  0  0
 16 17  2  0  0  0  0
 17 18  1  0  0  0  0
 17 32  1  0  0  0  0
M  CHG  1  13  -1
M  END
> <s_m_source_file>
AV-unprocessed.smi

> <i_m_source_file_index>
1234

> <i_lp_mmshare_version>
43012

> <i_f3d_flags>
0

> <s_epik_input>
czFbY0hdbm5jMVtOSF1DKD1PKVtOSF1bQ0gyXVtDSDJdQyg9TylOMltDSDJdW0NIMl1bQ0gyXVtDSDJdMg==

> <s_epik_cmdline>
J2VwaWtfcHl0aG9uJywgJy1waCcsICc3LjAnLCAnLXRuJywgJzgnLCAnLW1hJywgJzIwMCcsICctbWV0YWxfYmluZGluZycsICctaW1hZScsICc8aW5maWxlLm1hZT4nLCAnLW9tYWUnLCAnPG91dGZpbGUubWFlPic=

> <r_lp_tautomer_probability>
1

> <r_epik_Ionization_Penalty>
3.2941

> <r_epik_Ionization_Penalty_Charging>
3.25456

> <r_epik_Ionization_Penalty_Neutral>
0.039538

> <r_epik_State_Penalty>
3.25212

> <r_epik_Charging_Adjusted_Penalty>
6.50668

> <i_epik_Tot_Q>
-1

> <i_epik_Tot_abs_Q>
1

> <r_epik_Metal_State_Penalty>
0.477003

> <b_epik_Metal_Only>
1

> <s_lp_Force_Field>
OPLS_2005

> <r_lp_Energy>
26.7799

> <b_lp_Chiralities_Consistent>
1

> <s_lp_Variant>
AV-unprocessed.smi:1234-2

> <Gold.Version>
5.8.1

> <Gold.Id.Protein>
6NUR|6NUR_protein|mol2

> <Gold.PLP.Fitness>
46.3903

> <Gold.PLP.PLP>
-38.0333

> <Gold.PLP.part.hbond>
-3.0000

> <Gold.PLP.part.metal>
0.0000

> <Gold.PLP.part.buried>
-5.4317

> <Gold.PLP.part.nonpolar>
-30.3575

> <Gold.PLP.part.repulsive>
0.2154

> <Gold.PLP.ligand.clash>
0.0000

> <Gold.PLP.ligand.torsion>
0.4076

> <Gold.PLP.Chemscore.Hbond>
3.0429

> <Gold.PLP.Chemscore.CHOScore>
0.0000

> <Gold.PLP.Chemscore.Metal>
0.0000

> <Gold.Chemscore.Hbonds>
donor molecule, donor type, donor heavy atom, donor atom, acceptor molecule, acceptor atom, score
      P1  H  6896  6909       L1     1  1.00
      P1  H  6931  6943       L1    13  1.47
      P1  H  6934  6947       L1    13  0.52

> <Gold.PLP.Chemscore.Internal.Correction>
0.0434

> <Gold.Rescore>
     Score         DG    S(hbond)    S(metal)    S(lipo)     H(rot)  DE(clash)    DE(int)     intcor
     13.68     -15.71       1.91        0.00      71.46       1.76       0.01       2.02       ----

> <Gold.Chemscore.Fitness>
13.6764

> <Gold.Chemscore.DG>
-15.7090

> <Gold.Chemscore.ZeroCoef>
-5.4800

> <Gold.Chemscore.Hbond>
1.9082

> <Gold.Chemscore.Metal>
0.0000

> <Gold.Chemscore.Lipo>
71.4557

> <Gold.Chemscore.Internal_Hbond>
0.0000

> <Gold.Chemscore.DEClash>
0.0110

> <Gold.Chemscore.DEInternal>
2.0216

> <Gold.Chemscore.Rot>
1.7596

> <Gold.Chemscore.Internal.Correction>
   9.000000E+99

> <Gold.Chemscore.Hbonds>
donor molecule, donor type, donor heavy atom, donor atom, acceptor molecule, acceptor atom, score
      P1  H  6896  6909       L1     1  0.95
      P1  H  6931  6943       L1    13  0.24
      P1  H  6934  6947       L1    13  0.21

> <Gold.Chemscore.Hbond.Weighted>
-6.3733

> <Gold.Chemscore.Metal.Weighted>
-0.0000

> <Gold.Chemscore.Lipo.Weighted>
-8.3603

> <Gold.Chemscore.Internal_Hbond.Weighted>
0.0000

> <Gold.Chemscore.DEClash.Weighted>
0.0110

> <Gold.Chemscore.DEInternal.Weighted>
2.0216

> <Gold.Chemscore.Rot.Weighted>
4.5046

> <Gold.Chemscore.Internal.Correction.Weighted>
   9.000000E+99

> <Gold.Protein.RotatedTorsions>
[ 6907 6896 6895 6894 ] final   59.50 input  -60.11 | X-H torsion
[ 7974 7965 7964 7962 ] final   91.16 input  175.53 | X-H torsion
[ 8008 7997 7996 7995 ] final   31.39 input   59.86 | X-H torsion
[ 10167 10162 10161 10158 ] final -179.59 input  -65.29 | X-H torsion
[ 10718 10713 10712 10709 ] final  -51.15 input   66.30 | X-H torsion
[ 10763 10752 10751 10750 ] final   18.42 input  -60.55 | X-H torsion
[ 11005 11000 10999 10996 ] final  -75.71 input  -57.11 | X-H torsion

> <Gold.Protein.ActiveResidues>
 VAL166  LYS551  ARG553  GLY616  TRP617  ASP618  TYR619  PRO620  LYS621  CYS622 
 ASP623  PHE694  ASN695  SER759  ASP760  ASP761  ALA762  ILE779  LEU786  VAL792 
 PHE793  MET794  SER795  GLU796  ALA797  LYS798  CYS799  TRP800  GLU811  SER814 

> <Gold.Protein.RotatedAtoms>
  152.3920  134.6425  160.0103 H   0  0  0  0  0  0  0  0  0  0  0  0  # atno 6907 bound_to 6896
  151.6656  133.3310  159.3192 H   0  0  0  0  0  0  0  0  0  0  0  0  # atno 6908 bound_to 6896
  150.7835  134.6843  159.6506 H   0  0  0  0  0  0  0  0  0  0  0  0  # atno 6909 bound_to 6896
  145.5093  139.2276  143.2733 H   0  0  0  0  0  0  0  0  0  0  0  0  # atno 7974 bound_to 7965
  155.1056  140.3234  155.4535 H   0  0  0  0  0  0  0  0  0  0  0  0  # atno 8008 bound_to 7997
  156.2705  140.2053  156.6129 H   0  0  0  0  0  0  0  0  0  0  0  0  # atno 8009 bound_to 7997
  154.6795  140.0528  157.0238 H   0  0  0  0  0  0  0  0  0  0  0  0  # atno 8010 bound_to 7997
  139.5379  144.2444  152.0834 H   0  0  0  0  0  0  0  0  0  0  0  0  # atno 10167 bound_to 10162
  156.1736  130.4149  149.9610 H   0  0  0  0  0  0  0  0  0  0  0  0  # atno 10718 bound_to 10713
  153.1251  135.6728  153.9271 H   0  0  0  0  0  0  0  0  0  0  0  0  # atno 10763 bound_to 10752
  153.8775  135.3062  155.3445 H   0  0  0  0  0  0  0  0  0  0  0  0  # atno 10764 bound_to 10752
  154.7657  135.4965  153.9630 H   0  0  0  0  0  0  0  0  0  0  0  0  # atno 10765 bound_to 10752
  141.1648  133.6956  156.7558 H   0  0  0  0  0  0  0  0  0  0  0  0  # atno 11005 bound_to 11000
  146.2176  140.5899  142.9031 LP  0  0  0  0  0  0  0  0  0  0  0  0  # atno 17320 bound_to 7965
  144.7736  140.5691  143.6653 LP  0  0  0  0  0  0  0  0  0  0  0  0  # atno 17321 bound_to 7965
  140.1918  144.4744  150.6475 LP  0  0  0  0  0  0  0  0  0  0  0  0  # atno 17342 bound_to 10162
  140.6595  143.2248  151.5889 LP  0  0  0  0  0  0  0  0  0  0  0  0  # atno 17343 bound_to 10162
  156.7403  130.9077  151.3631 LP  0  0  0  0  0  0  0  0  0  0  0  0  # atno 17370 bound_to 10713
  157.6820  130.9149  150.0291 LP  0  0  0  0  0  0  0  0  0  0  0  0  # atno 17371 bound_to 10713
  140.2570  134.8496  157.3723 LP  0  0  0  0  0  0  0  0  0  0  0  0  # atno 17394 bound_to 11000
  140.1647  134.4684  155.7871 LP  0  0  0  0  0  0  0  0  0  0  0  0  # atno 17395 bound_to 11000

$$$$
