AV-unprocessed.smi:1509|AV-procd|sdf|6091|dock2
  -GOLD-   22720 6213D 1   1.00000     0.00000
 Structure written by MMmdl.
 42 43  0  0  0  0  0  0  0  0  2 V2000
  146.2129  131.8107  149.1164 C   0  0  0  0  0  0  0  0  0  0  0  0
  145.5112  132.4568  150.3238 C   0  0  1  0  0  0  0  0  0  0  0  0
  144.6974  131.4458  151.1522 C   0  0  0  0  0  0  0  0  0  0  0  0
  145.6164  130.5414  151.9848 C   0  0  0  0  0  0  0  0  0  0  0  0
  146.5829  131.3755  152.8402 C   0  0  0  0  0  0  0  0  0  0  0  0
  147.3755  132.3110  152.0009 N   0  3  2  0  0  0  0  0  0  0  0  0
  148.4161  133.0220  152.7863 C   0  0  0  0  0  0  0  0  0  0  0  0
  149.0004  132.1550  153.9148 C   0  0  0  0  0  0  0  0  0  0  0  0
  149.7820  132.9916  154.9416 C   0  0  0  0  0  0  0  0  0  0  0  0
  149.1558  134.2877  155.1750 N   0  0  0  0  0  0  0  0  0  0  0  0
  149.7561  135.4752  154.9962 C   0  0  0  0  0  0  0  0  0  0  0  0
  150.9281  135.5935  154.6395 O   0  0  0  0  0  0  0  0  0  0  0  0
  148.9080  136.7200  155.2600 C   0  0  0  0  0  0  0  0  0  0  0  0
  149.6962  137.9297  155.1163 N   0  0  0  0  0  0  0  0  0  0  0  0
  150.0168  138.6449  154.0360 C   0  0  0  0  0  0  0  0  0  0  0  0
  150.7722  139.6873  154.3459 N   0  0  0  0  0  0  0  0  0  0  0  0
  150.9088  139.5792  155.7198 N   0  0  0  0  0  0  0  0  0  0  0  0
  150.2726  138.5383  156.1825 N   0  0  0  0  0  0  0  0  0  0  0  0
  146.4958  133.2293  151.2265 C   0  0  0  0  0  0  0  0  0  0  0  0
  146.9636  131.0819  149.4218 H   0  0  0  0  0  0  0  0  0  0  0  0
  146.7150  132.5634  148.5081 H   0  0  0  0  0  0  0  0  0  0  0  0
  145.4953  131.2982  148.4749 H   0  0  0  0  0  0  0  0  0  0  0  0
  144.8061  133.1817  149.9152 H   0  0  0  0  0  0  0  0  0  0  0  0
  144.0292  131.9875  151.8232 H   0  0  0  0  0  0  0  0  0  0  0  0
  144.0575  130.8450  150.5051 H   0  0  0  0  0  0  0  0  0  0  0  0
  145.0160  129.8964  152.6270 H   0  0  0  0  0  0  0  0  0  0  0  0
  146.1817  129.8777  151.3299 H   0  0  0  0  0  0  0  0  0  0  0  0
  146.0299  131.9400  153.5927 H   0  0  0  0  0  0  0  0  0  0  0  0
  147.2522  130.7020  153.3771 H   0  0  0  0  0  0  0  0  0  0  0  0
  149.2049  133.3778  152.1215 H   0  0  0  0  0  0  0  0  0  0  0  0
  147.9758  133.9097  153.2429 H   0  0  0  0  0  0  0  0  0  0  0  0
  148.1929  131.6232  154.4199 H   0  0  0  0  0  0  0  0  0  0  0  0
  149.6601  131.3932  153.5005 H   0  0  0  0  0  0  0  0  0  0  0  0
  149.8762  132.4496  155.8842 H   0  0  0  0  0  0  0  0  0  0  0  0
  150.7968  133.1678  154.5837 H   0  0  0  0  0  0  0  0  0  0  0  0
  148.1910  134.2818  155.4736 H   0  0  0  0  0  0  0  0  0  0  0  0
  148.0692  136.7582  154.5638 H   0  0  0  0  0  0  0  0  0  0  0  0
  148.4897  136.6831  156.2671 H   0  0  0  0  0  0  0  0  0  0  0  0
  149.7027  138.4026  153.0314 H   0  0  0  0  0  0  0  0  0  0  0  0
  147.0892  133.9051  150.6119 H   0  0  0  0  0  0  0  0  0  0  0  0
  145.9390  133.8576  151.9239 H   0  0  0  0  0  0  0  0  0  0  0  0
  147.8656  131.7371  151.3295 H   0  0  0  0  0  0  0  0  0  0  0  0
  1  2  1  0  0  0  0
  1 20  1  0  0  0  0
  1 21  1  0  0  0  0
  1 22  1  0  0  0  0
  2 19  1  0  0  0  0
  2  3  1  0  0  0  0
  2 23  1  0  0  0  0
  3  4  1  0  0  0  0
  3 24  1  0  0  0  0
  3 25  1  0  0  0  0
  4  5  1  0  0  0  0
  4 26  1  0  0  0  0
  4 27  1  0  0  0  0
  5  6  1  0  0  0  0
  5 28  1  0  0  0  0
  5 29  1  0  0  0  0
  6  7  1  0  0  0  0
  6 19  1  0  0  0  0
  6 42  1  0  0  0  0
  7  8  1  0  0  0  0
  7 30  1  0  0  0  0
  7 31  1  0  0  0  0
  8  9  1  0  0  0  0
  8 32  1  0  0  0  0
  8 33  1  0  0  0  0
  9 10  1  0  0  0  0
  9 34  1  0  0  0  0
  9 35  1  0  0  0  0
 10 11  1  0  0  0  0
 10 36  1  0  0  0  0
 11 12  2  0  0  0  0
 11 13  1  0  0  0  0
 13 14  1  0  0  0  0
 13 37  1  0  0  0  0
 13 38  1  0  0  0  0
 14 18  1  0  0  0  0
 14 15  1  0  0  0  0
 15 16  2  0  0  0  0
 15 39  1  0  0  0  0
 16 17  1  0  0  0  0
 17 18  2  0  0  0  0
 19 40  1  0  0  0  0
 19 41  1  0  0  0  0
M  CHG  1   6   1
M  END
> <s_m_source_file>
AV-unprocessed.smi

> <i_m_source_file_index>
1509

> <i_lp_mmshare_version>
43012

> <i_f3d_flags>
0

> <s_epik_input>
W0NIM11bQ0BASF0xW0NIMl1bQ0gyXVtDSDJdTihbQ0gyXTEpW0NIMl1bQ0gyXVtDSDJdW05IXUMoPU8pW0NIMl1uMltjSF1ubm4y

> <s_epik_cmdline>
J2VwaWtfcHl0aG9uJywgJy1waCcsICc3LjAnLCAnLXRuJywgJzgnLCAnLW1hJywgJzIwMCcsICctbWV0YWxfYmluZGluZycsICctaW1hZScsICc8aW5maWxlLm1hZT4nLCAnLW9tYWUnLCAnPG91dGZpbGUubWFlPic=

> <r_lp_tautomer_probability>
1

> <r_epik_Ionization_Penalty>
0.00044216

> <r_epik_Ionization_Penalty_Charging>
0.000440775

> <r_epik_Ionization_Penalty_Neutral>
1.38512e-06

> <r_epik_State_Penalty>
0.000271914

> <r_epik_Charging_Adjusted_Penalty>
0.000712689

> <i_epik_Tot_Q>
1

> <i_epik_Tot_abs_Q>
1

> <r_epik_Metal_State_Penalty>
-0

> <b_epik_Metal_Only>
0

> <s_lp_Force_Field>
OPLS_2005

> <r_lp_Energy>
22.736

> <b_lp_Chiralities_Consistent>
1

> <s_lp_Variant>
AV-unprocessed.smi:1509-2

> <Gold.Version>
5.8.1

> <Gold.Id.Protein>
6NUR|6NUR_protein|mol2

> <Gold.PLP.Fitness>
47.3215

> <Gold.PLP.PLP>
-34.0689

> <Gold.PLP.part.hbond>
-3.0000

> <Gold.PLP.part.metal>
0.0000

> <Gold.PLP.part.buried>
-4.6050

> <Gold.PLP.part.nonpolar>
-27.2334

> <Gold.PLP.part.repulsive>
0.3227

> <Gold.PLP.ligand.clash>
0.0000

> <Gold.PLP.ligand.torsion>
0.7725

> <Gold.PLP.Chemscore.Hbond>
3.0000

> <Gold.PLP.Chemscore.CHOScore>
1.9013

> <Gold.PLP.Chemscore.Metal>
0.0000

> <Gold.Chemscore.Hbonds>
donor molecule, donor type, donor heavy atom, donor atom, acceptor molecule, acceptor atom, score
      L1  H     6    42       P1 10747  1.00
      P1  H  7989  7998       L1    16  1.00
      P1  H 10752 10764       L1    12  1.00
      L1  C    15    39       P1  7948  0.99
      L1  C    15    39       P1  7957  0.90

> <Gold.PLP.Chemscore.Internal.Correction>
0.0935

> <Gold.Rescore>
     Score         DG    S(hbond)    S(metal)    S(lipo)     H(rot)  DE(clash)    DE(int)     intcor
     15.50     -16.52       2.95        0.00      75.14       2.97       0.21       0.81       ----

> <Gold.Chemscore.Fitness>
15.5025

> <Gold.Chemscore.DG>
-16.5189

> <Gold.Chemscore.ZeroCoef>
-5.4800

> <Gold.Chemscore.Hbond>
2.9478

> <Gold.Chemscore.Metal>
0.0000

> <Gold.Chemscore.Lipo>
75.1375

> <Gold.Chemscore.Internal_Hbond>
0.0000

> <Gold.Chemscore.DEClash>
0.2077

> <Gold.Chemscore.DEInternal>
0.8087

> <Gold.Chemscore.Rot>
2.9680

> <Gold.Chemscore.Internal.Correction>
   9.000000E+99

> <Gold.Chemscore.Hbonds>
donor molecule, donor type, donor heavy atom, donor atom, acceptor molecule, acceptor atom, score
      L1  H     6    42       P1 10747  1.00
      P1  H  7989  7998       L1    16  0.98
      P1  H 10752 10764       L1    12  0.92

> <Gold.Chemscore.Hbond.Weighted>
-9.8458

> <Gold.Chemscore.Metal.Weighted>
-0.0000

> <Gold.Chemscore.Lipo.Weighted>
-8.7911

> <Gold.Chemscore.Internal_Hbond.Weighted>
0.0000

> <Gold.Chemscore.DEClash.Weighted>
0.2077

> <Gold.Chemscore.DEInternal.Weighted>
0.8087

> <Gold.Chemscore.Rot.Weighted>
7.5980

> <Gold.Chemscore.Internal.Correction.Weighted>
   9.000000E+99

> <Gold.Protein.RotatedTorsions>
[ 6907 6896 6895 6894 ] final   81.56 input  -60.11 | X-H torsion
[ 7974 7965 7964 7962 ] final  142.30 input  175.53 | X-H torsion
[ 8008 7997 7996 7995 ] final -103.05 input   59.86 | X-H torsion
[ 10167 10162 10161 10158 ] final  125.89 input  -65.29 | X-H torsion
[ 10718 10713 10712 10709 ] final   59.32 input   66.30 | X-H torsion
[ 10763 10752 10751 10750 ] final  -74.78 input  -60.55 | X-H torsion
[ 11005 11000 10999 10996 ] final  141.05 input  -57.11 | X-H torsion

> <Gold.Protein.ActiveResidues>
 VAL166  LYS551  ARG553  GLY616  TRP617  ASP618  TYR619  PRO620  LYS621  CYS622 
 ASP623  PHE694  ASN695  SER759  ASP760  ASP761  ALA762  ILE779  LEU786  VAL792 
 PHE793  MET794  SER795  GLU796  ALA797  LYS798  CYS799  TRP800  GLU811  SER814 

> <Gold.Protein.RotatedAtoms>
  152.5272  134.3185  159.9139 H   0  0  0  0  0  0  0  0  0  0  0  0  # atno 6907 bound_to 6896
  151.3134  133.4064  159.2656 H   0  0  0  0  0  0  0  0  0  0  0  0  # atno 6908 bound_to 6896
  151.0019  134.9346  159.8016 H   0  0  0  0  0  0  0  0  0  0  0  0  # atno 6909 bound_to 6896
  144.9020  139.5410  143.5749 H   0  0  0  0  0  0  0  0  0  0  0  0  # atno 7974 bound_to 7965
  154.8654  140.0425  157.1691 H   0  0  0  0  0  0  0  0  0  0  0  0  # atno 8008 bound_to 7997
  154.8795  140.2970  155.5413 H   0  0  0  0  0  0  0  0  0  0  0  0  # atno 8009 bound_to 7997
  156.2999  140.2414  156.3796 H   0  0  0  0  0  0  0  0  0  0  0  0  # atno 8010 bound_to 7997
  139.5661  144.6912  151.3907 H   0  0  0  0  0  0  0  0  0  0  0  0  # atno 10167 bound_to 10162
  157.5666  130.8876  149.9198 H   0  0  0  0  0  0  0  0  0  0  0  0  # atno 10718 bound_to 10713
  154.4778  135.5853  153.6367 H   0  0  0  0  0  0  0  0  0  0  0  0  # atno 10763 bound_to 10752
  152.9843  135.6082  154.3285 H   0  0  0  0  0  0  0  0  0  0  0  0  # atno 10764 bound_to 10752
  154.3173  135.2844  155.2516 H   0  0  0  0  0  0  0  0  0  0  0  0  # atno 10765 bound_to 10752
  140.0373  134.9322  157.0776 H   0  0  0  0  0  0  0  0  0  0  0  0  # atno 11005 bound_to 11000
  146.3113  139.7758  142.9017 LP  0  0  0  0  0  0  0  0  0  0  0  0  # atno 17320 bound_to 7965
  145.3600  141.0324  143.3290 LP  0  0  0  0  0  0  0  0  0  0  0  0  # atno 17321 bound_to 7965
  140.6944  143.7784  150.7304 LP  0  0  0  0  0  0  0  0  0  0  0  0  # atno 17342 bound_to 10162
  140.1276  143.4555  152.2274 LP  0  0  0  0  0  0  0  0  0  0  0  0  # atno 17343 bound_to 10162
  156.0714  130.3684  150.0768 LP  0  0  0  0  0  0  0  0  0  0  0  0  # atno 17370 bound_to 10713
  156.8925  130.9593  151.3586 LP  0  0  0  0  0  0  0  0  0  0  0  0  # atno 17371 bound_to 10713
  140.4127  134.1964  155.7163 LP  0  0  0  0  0  0  0  0  0  0  0  0  # atno 17394 bound_to 11000
  141.1864  133.8303  157.1070 LP  0  0  0  0  0  0  0  0  0  0  0  0  # atno 17395 bound_to 11000

$$$$
