AV-unprocessed.smi:1484|AV-procd|sdf|5997|dock3
  -GOLD-   22720 6 93D 1   1.00000     0.00000
 Structure written by MMmdl.
 38 39  0  0  0  0  0  0  0  0  1 V2000
  151.2951  145.6329  160.1302 C   0  0  0  0  0  0  0  0  0  0  0  0
  151.7611  144.1707  160.1698 C   0  0  2  0  0  0  0  0  0  0  0  0
  152.3269  143.7972  161.5532 C   0  0  0  0  0  0  0  0  0  0  0  0
  152.7979  142.3350  161.5955 C   0  0  0  0  0  0  0  0  0  0  0  0
  153.8283  142.0452  160.4901 C   0  0  0  0  0  0  0  0  0  0  0  0
  153.3014  142.4206  159.0918 C   0  0  1  0  0  0  0  0  0  0  0  0
  152.2541  141.4874  158.6796 N   0  0  0  0  0  0  0  0  0  0  0  0
  152.4220  140.1761  158.4521 C   0  0  0  0  0  0  0  0  0  0  0  0
  153.5078  139.6052  158.5644 O   0  0  0  0  0  0  0  0  0  0  0  0
  151.1673  139.4087  158.0103 C   0  0  0  0  0  0  0  0  0  0  0  0
  150.2809  140.1881  157.1343 N   0  0  0  0  0  0  0  0  0  0  0  0
  149.0881  140.5688  157.7303 N   0  0  0  0  0  0  0  0  0  0  0  0
  148.2313  141.2700  157.0680 C   0  0  0  0  0  0  0  0  0  0  0  0
  147.0644  141.6282  157.6973 O   0  0  0  0  0  0  0  0  0  0  0  0
  148.4872  141.6687  155.7013 C   0  0  0  0  0  0  0  0  0  0  0  0
  149.6499  141.2891  155.1279 C   0  0  0  0  0  0  0  0  0  0  0  0
  150.6445  140.4945  155.8511 C   0  0  0  0  0  0  0  0  0  0  0  0
  151.7113  140.1352  155.3536 O   0  0  0  0  0  0  0  0  0  0  0  0
  152.8002  143.8814  159.0663 C   0  0  0  0  0  0  0  0  0  0  0  0
  146.7656  142.4050  157.2504 H   0  0  0  0  0  0  0  0  0  0  0  0
  152.1232  146.3184  160.3135 H   0  0  0  0  0  0  0  0  0  0  0  0
  150.5317  145.8225  160.8854 H   0  0  0  0  0  0  0  0  0  0  0  0
  150.8658  145.8812  159.1591 H   0  0  0  0  0  0  0  0  0  0  0  0
  150.8854  143.5472  159.9841 H   0  0  0  0  0  0  0  0  0  0  0  0
  153.1624  144.4541  161.7998 H   0  0  0  0  0  0  0  0  0  0  0  0
  151.5707  143.9589  162.3221 H   0  0  0  0  0  0  0  0  0  0  0  0
  153.2312  142.1144  162.5714 H   0  0  0  0  0  0  0  0  0  0  0  0
  151.9394  141.6714  161.4846 H   0  0  0  0  0  0  0  0  0  0  0  0
  154.7356  142.6156  160.6938 H   0  0  0  0  0  0  0  0  0  0  0  0
  154.1199  140.9946  160.5150 H   0  0  0  0  0  0  0  0  0  0  0  0
  154.1310  142.3261  158.3887 H   0  0  0  0  0  0  0  0  0  0  0  0
  151.3287  141.8723  158.5568 H   0  0  0  0  0  0  0  0  0  0  0  0
  151.4643  138.4839  157.5119 H   0  0  0  0  0  0  0  0  0  0  0  0
  150.6296  139.0966  158.9074 H   0  0  0  0  0  0  0  0  0  0  0  0
  147.7604  142.2558  155.1594 H   0  0  0  0  0  0  0  0  0  0  0  0
  149.8544  141.5796  154.1081 H   0  0  0  0  0  0  0  0  0  0  0  0
  152.3833  144.1194  158.0869 H   0  0  0  0  0  0  0  0  0  0  0  0
  153.6542  144.5479  159.1962 H   0  0  0  0  0  0  0  0  0  0  0  0
  1  2  1  0  0  0  0
  1 21  1  0  0  0  0
  1 22  1  0  0  0  0
  1 23  1  0  0  0  0
  2 19  1  0  0  0  0
  2  3  1  0  0  0  0
  2 24  1  0  0  0  0
  3  4  1  0  0  0  0
  3 25  1  0  0  0  0
  3 26  1  0  0  0  0
  4  5  1  0  0  0  0
  4 27  1  0  0  0  0
  4 28  1  0  0  0  0
  5  6  1  0  0  0  0
  5 29  1  0  0  0  0
  5 30  1  0  0  0  0
  6  7  1  0  0  0  0
  6 19  1  0  0  0  0
  6 31  1  0  0  0  0
  7  8  1  0  0  0  0
  7 32  1  0  0  0  0
  8  9  2  0  0  0  0
  8 10  1  0  0  0  0
 10 33  1  0  0  0  0
 10 34  1  0  0  0  0
 10 11  1  0  0  0  0
 11 12  1  0  0  0  0
 11 17  1  0  0  0  0
 12 13  2  0  0  0  0
 13 14  1  0  0  0  0
 13 15  1  0  0  0  0
 14 20  1  0  0  0  0
 15 35  1  0  0  0  0
 15 16  2  0  0  0  0
 16 36  1  0  0  0  0
 16 17  1  0  0  0  0
 17 18  2  0  0  0  0
 19 37  1  0  0  0  0
 19 38  1  0  0  0  0
M  END
> <s_m_source_file>
AV-unprocessed.smi

> <i_m_source_file_index>
1484

> <i_lp_mmshare_version>
43012

> <i_f3d_flags>
0

> <s_epik_input>
W0NIM11bQ0BASF0xW0NIMl1bQ0gyXVtDSDJdW0NASF0oW0NIMl0xKVtOSF1DKD1PKVtDSDJdbjJbbkhdYyg9TylbY0hdW2NIXWMyPU8=

> <s_epik_cmdline>
J2VwaWtfcHl0aG9uJywgJy1waCcsICc3LjAnLCAnLXRuJywgJzgnLCAnLW1hJywgJzIwMCcsICctbWV0YWxfYmluZGluZycsICctaW1hZScsICc8aW5maWxlLm1hZT4nLCAnLW9tYWUnLCAnPG91dGZpbGUubWFlPic=

> <r_lp_tautomer_probability>
0.9996

> <r_epik_Ionization_Penalty>
2.10343

> <r_epik_Ionization_Penalty_Charging>
3.97871e-08

> <r_epik_Ionization_Penalty_Neutral>
2.10343

> <r_epik_State_Penalty>
1.67966

> <r_epik_Charging_Adjusted_Penalty>
1.67966

> <i_epik_Tot_Q>
0

> <i_epik_Tot_abs_Q>
0

> <r_epik_Metal_State_Penalty>
1.67966

> <b_epik_Metal_Only>
0

> <s_lp_Force_Field>
OPLS_2005

> <r_lp_Energy>
17.3635

> <b_lp_Chiralities_Consistent>
1

> <s_lp_Variant>
AV-unprocessed.smi:1484-5

> <Gold.Version>
5.8.1

> <Gold.Id.Protein>
6NUR|6NUR_protein|mol2

> <Gold.PLP.Fitness>
45.8959

> <Gold.PLP.PLP>
-41.1910

> <Gold.PLP.part.hbond>
-2.0000

> <Gold.PLP.part.metal>
0.0000

> <Gold.PLP.part.buried>
-4.1705

> <Gold.PLP.part.nonpolar>
-34.3531

> <Gold.PLP.part.repulsive>
0.1235

> <Gold.PLP.ligand.clash>
0.0000

> <Gold.PLP.ligand.torsion>
0.4713

> <Gold.PLP.Chemscore.Hbond>
1.8800

> <Gold.PLP.Chemscore.CHOScore>
0.0000

> <Gold.PLP.Chemscore.Metal>
0.0000

> <Gold.Chemscore.Hbonds>
donor molecule, donor type, donor heavy atom, donor atom, acceptor molecule, acceptor atom, score
      P1  H  7989  7998       L1    18  0.91
      P1  H  7997  8009       L1     9  1.00

> <Gold.PLP.Chemscore.Internal.Correction>
0.0075

> <Gold.Rescore>
     Score         DG    S(hbond)    S(metal)    S(lipo)     H(rot)  DE(clash)    DE(int)     intcor
     17.86     -18.89       2.40        0.00      95.26       2.24       0.33       0.69       ----

> <Gold.Chemscore.Fitness>
17.8604

> <Gold.Chemscore.DG>
-18.8853

> <Gold.Chemscore.ZeroCoef>
-5.4800

> <Gold.Chemscore.Hbond>
2.3952

> <Gold.Chemscore.Metal>
0.0000

> <Gold.Chemscore.Lipo>
95.2570

> <Gold.Chemscore.Internal_Hbond>
0.0000

> <Gold.Chemscore.DEClash>
0.3337

> <Gold.Chemscore.DEInternal>
0.6912

> <Gold.Chemscore.Rot>
2.2421

> <Gold.Chemscore.Internal.Correction>
   9.000000E+99

> <Gold.Chemscore.Hbonds>
donor molecule, donor type, donor heavy atom, donor atom, acceptor molecule, acceptor atom, score
      P1  H  7989  7998       L1    18  0.38
      P1  H  7997  8009       L1     9  0.88

> <Gold.Chemscore.Hbond.Weighted>
-8.0000

> <Gold.Chemscore.Metal.Weighted>
-0.0000

> <Gold.Chemscore.Lipo.Weighted>
-11.1451

> <Gold.Chemscore.Internal_Hbond.Weighted>
0.0000

> <Gold.Chemscore.DEClash.Weighted>
0.3337

> <Gold.Chemscore.DEInternal.Weighted>
0.6912

> <Gold.Chemscore.Rot.Weighted>
5.7398

> <Gold.Chemscore.Internal.Correction.Weighted>
   9.000000E+99

> <Gold.Protein.RotatedTorsions>
[ 6907 6896 6895 6894 ] final -174.66 input  -60.11 | X-H torsion
[ 7974 7965 7964 7962 ] final  142.10 input  175.53 | X-H torsion
[ 8008 7997 7996 7995 ] final  142.86 input   59.86 | X-H torsion
[ 10167 10162 10161 10158 ] final -147.67 input  -65.29 | X-H torsion
[ 10718 10713 10712 10709 ] final   91.43 input   66.30 | X-H torsion
[ 10763 10752 10751 10750 ] final   -4.85 input  -60.55 | X-H torsion
[ 11005 11000 10999 10996 ] final -126.32 input  -57.11 | X-H torsion

> <Gold.Protein.ActiveResidues>
 VAL166  LYS551  ARG553  GLY616  TRP617  ASP618  TYR619  PRO620  LYS621  CYS622 
 ASP623  PHE694  ASN695  SER759  ASP760  ASP761  ALA762  ILE779  LEU786  VAL792 
 PHE793  MET794  SER795  GLU796  ALA797  LYS798  CYS799  TRP800  GLU811  SER814 

> <Gold.Protein.RotatedAtoms>
  151.5760  133.3383  159.2998 H   0  0  0  0  0  0  0  0  0  0  0  0  # atno 6907 bound_to 6896
  150.8340  134.7608  159.6889 H   0  0  0  0  0  0  0  0  0  0  0  0  # atno 6908 bound_to 6896
  152.4419  134.5579  159.9937 H   0  0  0  0  0  0  0  0  0  0  0  0  # atno 6909 bound_to 6896
  144.9038  139.5387  143.5741 H   0  0  0  0  0  0  0  0  0  0  0  0  # atno 7974 bound_to 7965
  156.2941  140.2277  156.4797 H   0  0  0  0  0  0  0  0  0  0  0  0  # atno 8008 bound_to 7997
  154.7864  140.0457  157.1188 H   0  0  0  0  0  0  0  0  0  0  0  0  # atno 8009 bound_to 7997
  154.9698  140.3065  155.4996 H   0  0  0  0  0  0  0  0  0  0  0  0  # atno 8010 bound_to 7997
  139.7601  143.8390  152.2605 H   0  0  0  0  0  0  0  0  0  0  0  0  # atno 10167 bound_to 10162
  157.6960  131.0407  150.3729 H   0  0  0  0  0  0  0  0  0  0  0  0  # atno 10718 bound_to 10713
  153.3904  135.7001  153.6499 H   0  0  0  0  0  0  0  0  0  0  0  0  # atno 10763 bound_to 10752
  153.5073  135.3639  155.2570 H   0  0  0  0  0  0  0  0  0  0  0  0  # atno 10764 bound_to 10752
  154.8702  135.4126  154.3220 H   0  0  0  0  0  0  0  0  0  0  0  0  # atno 10765 bound_to 10752
  140.9691  134.0830  157.3888 H   0  0  0  0  0  0  0  0  0  0  0  0  # atno 11005 bound_to 11000
  146.3122  139.7789  142.9011 LP  0  0  0  0  0  0  0  0  0  0  0  0  # atno 17320 bound_to 7965
  145.3571  141.0319  143.3305 LP  0  0  0  0  0  0  0  0  0  0  0  0  # atno 17321 bound_to 7965
  139.8393  144.7217  150.9351 LP  0  0  0  0  0  0  0  0  0  0  0  0  # atno 17342 bound_to 10162
  140.7806  143.3998  151.1169 LP  0  0  0  0  0  0  0  0  0  0  0  0  # atno 17343 bound_to 10162
  156.4152  130.3942  149.6863 LP  0  0  0  0  0  0  0  0  0  0  0  0  # atno 17370 bound_to 10713
  156.4134  130.7733  151.2747 LP  0  0  0  0  0  0  0  0  0  0  0  0  # atno 17371 bound_to 10713
  139.8905  135.0113  156.6742 LP  0  0  0  0  0  0  0  0  0  0  0  0  # atno 17394 bound_to 11000
  140.7355  133.9022  155.8241 LP  0  0  0  0  0  0  0  0  0  0  0  0  # atno 17395 bound_to 11000

$$$$
