AV-unprocessed.smi:2450|AV-procd|sdf|9666|dock6
  -GOLD-   2272013303D 1   1.00000     0.00000
 Structure written by MMmdl.
 41 42  0  0  0  0  0  0  0  0  1 V2000
  152.3773  143.8366  160.7464 C   0  0  0  0  0  0  0  0  0  0  0  0
  151.7164  143.1296  159.5543 C   0  0  0  0  0  0  0  0  0  0  0  0
  151.7131  143.9587  158.2543 C   0  0  1  0  0  0  0  0  0  0  0  0
  153.1269  144.4269  157.8822 C   0  0  0  0  0  0  0  0  0  0  0  0
  151.1607  143.1857  157.1427 N   0  0  0  0  0  0  0  0  0  0  0  0
  151.4146  141.8960  156.8768 C   0  0  0  0  0  0  0  0  0  0  0  0
  152.1808  141.1977  157.5406 O   0  0  0  0  0  0  0  0  0  0  0  0
  150.7425  141.4879  155.7875 N   0  0  0  0  0  0  0  0  0  0  0  0
  150.7715  140.2100  155.1608 C   0  0  0  0  0  0  0  0  0  0  0  0
  151.9611  139.4439  155.0933 C   0  0  0  0  0  0  0  0  0  0  0  0
  151.9232  138.1578  154.5280 C   0  0  0  0  0  0  0  0  0  0  0  0
  150.6899  137.6733  154.0621 C   0  0  0  0  0  0  0  0  0  0  0  0
  149.5463  138.3833  154.1311 N   0  0  0  0  0  0  0  0  0  0  0  0
  149.5693  139.6314  154.6611 C   0  0  0  0  0  0  0  0  0  0  0  0
  148.3417  140.3324  154.6950 N   0  0  0  0  0  0  0  0  0  0  0  0
  148.1217  141.4810  153.8229 C   0  0  0  0  0  0  0  0  0  0  0  0
  146.8905  142.1786  154.3932 C   0  0  0  0  0  0  0  0  0  0  0  0
  147.0651  141.9700  155.8945 C   0  0  0  0  0  0  0  0  0  0  0  0
  147.7348  140.5952  155.9970 C   0  0  0  0  0  0  0  0  0  0  0  0
  152.4079  143.1801  161.6161 H   0  0  0  0  0  0  0  0  0  0  0  0
  151.8318  144.7354  161.0339 H   0  0  0  0  0  0  0  0  0  0  0  0
  153.4022  144.1260  160.5124 H   0  0  0  0  0  0  0  0  0  0  0  0
  152.2444  142.1922  159.3757 H   0  0  0  0  0  0  0  0  0  0  0  0
  150.6951  142.8539  159.8202 H   0  0  0  0  0  0  0  0  0  0  0  0
  151.1114  144.8536  158.4215 H   0  0  0  0  0  0  0  0  0  0  0  0
  153.5601  145.0353  158.6767 H   0  0  0  0  0  0  0  0  0  0  0  0
  153.1143  145.0325  156.9752 H   0  0  0  0  0  0  0  0  0  0  0  0
  153.7941  143.5814  157.7096 H   0  0  0  0  0  0  0  0  0  0  0  0
  150.5238  143.6740  156.5303 H   0  0  0  0  0  0  0  0  0  0  0  0
  150.2270  142.1996  155.2904 H   0  0  0  0  0  0  0  0  0  0  0  0
  152.8966  139.8103  155.4876 H   0  0  0  0  0  0  0  0  0  0  0  0
  152.8156  137.5530  154.4660 H   0  0  0  0  0  0  0  0  0  0  0  0
  150.6173  136.6868  153.6286 H   0  0  0  0  0  0  0  0  0  0  0  0
  148.9727  142.1626  153.8581 H   0  0  0  0  0  0  0  0  0  0  0  0
  147.9707  141.1723  152.7880 H   0  0  0  0  0  0  0  0  0  0  0  0
  146.8277  143.2298  154.1105 H   0  0  0  0  0  0  0  0  0  0  0  0
  145.9842  141.6778  154.0498 H   0  0  0  0  0  0  0  0  0  0  0  0
  147.7339  142.7339  156.2938 H   0  0  0  0  0  0  0  0  0  0  0  0
  146.1255  142.0259  156.4448 H   0  0  0  0  0  0  0  0  0  0  0  0
  146.9828  139.8311  156.1965 H   0  0  0  0  0  0  0  0  0  0  0  0
  148.4668  140.5682  156.8056 H   0  0  0  0  0  0  0  0  0  0  0  0
  1  2  1  0  0  0  0
  1 20  1  0  0  0  0
  1 21  1  0  0  0  0
  1 22  1  0  0  0  0
  2  3  1  0  0  0  0
  2 23  1  0  0  0  0
  2 24  1  0  0  0  0
  3  4  1  0  0  0  0
  3  5  1  0  0  0  0
  3 25  1  0  0  0  0
  4 26  1  0  0  0  0
  4 27  1  0  0  0  0
  4 28  1  0  0  0  0
  5  6  1  0  0  0  0
  5 29  1  0  0  0  0
  6  7  2  0  0  0  0
  6  8  1  0  0  0  0
  8  9  1  0  0  0  0
  8 30  1  0  0  0  0
  9 14  1  0  0  0  0
  9 10  2  0  0  0  0
 10 11  1  0  0  0  0
 10 31  1  0  0  0  0
 11 12  2  0  0  0  0
 11 32  1  0  0  0  0
 12 13  1  0  0  0  0
 12 33  1  0  0  0  0
 13 14  2  0  0  0  0
 14 15  1  0  0  0  0
 15 19  1  0  0  0  0
 15 16  1  0  0  0  0
 16 17  1  0  0  0  0
 16 34  1  0  0  0  0
 16 35  1  0  0  0  0
 17 18  1  0  0  0  0
 17 36  1  0  0  0  0
 17 37  1  0  0  0  0
 18 19  1  0  0  0  0
 18 38  1  0  0  0  0
 18 39  1  0  0  0  0
 19 40  1  0  0  0  0
 19 41  1  0  0  0  0
M  END
> <s_m_source_file>
AV-unprocessed.smi

> <i_m_source_file_index>
2450

> <i_lp_mmshare_version>
43012

> <i_f3d_flags>
0

> <s_epik_input>
W0NIM11bQ0gyXVtDQEhdKFtDSDNdKVtOSF1DKD1PKVtOSF1jMVtjSF1bY0hdW2NIXW5jMU4yW0NIMl1bQ0gyXVtDSDJdW0NIMl0y

> <s_epik_cmdline>
J2VwaWtfcHl0aG9uJywgJy1waCcsICc3LjAnLCAnLXRuJywgJzgnLCAnLW1hJywgJzIwMCcsICctbWV0YWxfYmluZGluZycsICctaW1hZScsICc8aW5maWxlLm1hZT4nLCAnLW9tYWUnLCAnPG91dGZpbGUubWFlPic=

> <r_lp_tautomer_probability>
1

> <r_epik_Ionization_Penalty>
0.103391

> <r_epik_Ionization_Penalty_Charging>
0

> <r_epik_Ionization_Penalty_Neutral>
0.103391

> <r_epik_State_Penalty>
0.0927616

> <r_epik_Charging_Adjusted_Penalty>
0.0927616

> <i_epik_Tot_Q>
0

> <i_epik_Tot_abs_Q>
0

> <r_epik_Metal_State_Penalty>
0.0789158

> <b_epik_Metal_Only>
0

> <s_lp_Force_Field>
OPLS_2005

> <r_lp_Energy>
32.3159

> <b_lp_Chiralities_Consistent>
1

> <s_lp_Variant>
AV-unprocessed.smi:2450-2

> <Gold.Version>
5.8.1

> <Gold.Id.Protein>
6NUR|6NUR_protein|mol2

> <Gold.PLP.Fitness>
45.1955

> <Gold.PLP.PLP>
-40.3943

> <Gold.PLP.part.hbond>
-1.0000

> <Gold.PLP.part.metal>
0.0000

> <Gold.PLP.part.buried>
-2.3228

> <Gold.PLP.part.nonpolar>
-36.2670

> <Gold.PLP.part.repulsive>
0.4517

> <Gold.PLP.ligand.clash>
0.0000

> <Gold.PLP.ligand.torsion>
0.7285

> <Gold.PLP.Chemscore.Hbond>
1.0000

> <Gold.PLP.Chemscore.CHOScore>
0.9726

> <Gold.PLP.Chemscore.Metal>
0.0000

> <Gold.Chemscore.Hbonds>
donor molecule, donor type, donor heavy atom, donor atom, acceptor molecule, acceptor atom, score
      L1  H     5    29       P1  8028  0.78
      L1  C    12    33       P1  7948  0.28
      L1  C    12    33       P1  7949  0.56

> <Gold.PLP.Chemscore.Internal.Correction>
0.3405

> <Gold.Rescore>
     Score         DG    S(hbond)    S(metal)    S(lipo)     H(rot)  DE(clash)    DE(int)     intcor
     14.33     -17.04       1.00        0.00      99.08       1.32       0.14       2.56       ----

> <Gold.Chemscore.Fitness>
14.3337

> <Gold.Chemscore.DG>
-17.0372

> <Gold.Chemscore.ZeroCoef>
-5.4800

> <Gold.Chemscore.Hbond>
0.9983

> <Gold.Chemscore.Metal>
0.0000

> <Gold.Chemscore.Lipo>
99.0804

> <Gold.Chemscore.Internal_Hbond>
0.0000

> <Gold.Chemscore.DEClash>
0.1442

> <Gold.Chemscore.DEInternal>
2.5593

> <Gold.Chemscore.Rot>
1.3163

> <Gold.Chemscore.Internal.Correction>
   9.000000E+99

> <Gold.Chemscore.Hbonds>
donor molecule, donor type, donor heavy atom, donor atom, acceptor molecule, acceptor atom, score
      L1  H     5    29       P1  8028  0.79

> <Gold.Chemscore.Hbond.Weighted>
-3.3344

> <Gold.Chemscore.Metal.Weighted>
-0.0000

> <Gold.Chemscore.Lipo.Weighted>
-11.5924

> <Gold.Chemscore.Internal_Hbond.Weighted>
0.0000

> <Gold.Chemscore.DEClash.Weighted>
0.1442

> <Gold.Chemscore.DEInternal.Weighted>
2.5593

> <Gold.Chemscore.Rot.Weighted>
3.3696

> <Gold.Chemscore.Internal.Correction.Weighted>
   9.000000E+99

> <Gold.Protein.RotatedTorsions>
[ 6907 6896 6895 6894 ] final   45.97 input  -60.11 | X-H torsion
[ 7974 7965 7964 7962 ] final -104.10 input  175.53 | X-H torsion
[ 8008 7997 7996 7995 ] final -173.28 input   59.86 | X-H torsion
[ 10167 10162 10161 10158 ] final  154.46 input  -65.29 | X-H torsion
[ 10718 10713 10712 10709 ] final -166.35 input   66.30 | X-H torsion
[ 10763 10752 10751 10750 ] final  171.18 input  -60.55 | X-H torsion
[ 11005 11000 10999 10996 ] final  -95.86 input  -57.11 | X-H torsion

> <Gold.Protein.ActiveResidues>
 VAL166  LYS551  ARG553  GLY616  TRP617  ASP618  TYR619  PRO620  LYS621  CYS622 
 ASP623  PHE694  ASN695  SER759  ASP760  ASP761  ALA762  ILE779  LEU786  VAL792 
 PHE793  MET794  SER795  GLU796  ALA797  LYS798  CYS799  TRP800  GLU811  SER814 

> <Gold.Protein.RotatedAtoms>
  152.2509  134.8134  160.0445 H   0  0  0  0  0  0  0  0  0  0  0  0  # atno 6907 bound_to 6896
  151.8814  133.3491  159.3776 H   0  0  0  0  0  0  0  0  0  0  0  0  # atno 6908 bound_to 6896
  150.7083  134.4941  159.5574 H   0  0  0  0  0  0  0  0  0  0  0  0  # atno 6909 bound_to 6896
  145.2474  140.9226  143.3115 H   0  0  0  0  0  0  0  0  0  0  0  0  # atno 7974 bound_to 7965
  155.9554  140.1134  157.0941 H   0  0  0  0  0  0  0  0  0  0  0  0  # atno 8008 bound_to 7997
  154.4119  140.1192  156.5175 H   0  0  0  0  0  0  0  0  0  0  0  0  # atno 8009 bound_to 7997
  155.6788  140.3473  155.4849 H   0  0  0  0  0  0  0  0  0  0  0  0  # atno 8010 bound_to 7997
  139.4823  144.5185  151.7914 H   0  0  0  0  0  0  0  0  0  0  0  0  # atno 10167 bound_to 10162
  156.6666  130.9067  151.3037 H   0  0  0  0  0  0  0  0  0  0  0  0  # atno 10718 bound_to 10713
  154.4082  135.2756  155.2053 H   0  0  0  0  0  0  0  0  0  0  0  0  # atno 10763 bound_to 10752
  154.4050  135.6035  153.5923 H   0  0  0  0  0  0  0  0  0  0  0  0  # atno 10764 bound_to 10752
  152.9831  135.5935  154.4360 H   0  0  0  0  0  0  0  0  0  0  0  0  # atno 10765 bound_to 10752
  141.1429  133.8056  157.0493 H   0  0  0  0  0  0  0  0  0  0  0  0  # atno 11005 bound_to 11000
  144.9534  139.4058  143.6391 LP  0  0  0  0  0  0  0  0  0  0  0  0  # atno 17320 bound_to 7965
  146.3312  139.8552  142.8866 LP  0  0  0  0  0  0  0  0  0  0  0  0  # atno 17321 bound_to 7965
  140.4696  144.1606  150.5916 LP  0  0  0  0  0  0  0  0  0  0  0  0  # atno 17342 bound_to 10162
  140.4397  143.2532  151.9489 LP  0  0  0  0  0  0  0  0  0  0  0  0  # atno 17343 bound_to 10162
  157.7092  130.9420  150.1030 LP  0  0  0  0  0  0  0  0  0  0  0  0  # atno 17370 bound_to 10713
  156.1970  130.3658  149.8836 LP  0  0  0  0  0  0  0  0  0  0  0  0  # atno 17371 bound_to 10713
  140.0642  134.9738  157.1357 LP  0  0  0  0  0  0  0  0  0  0  0  0  # atno 17394 bound_to 11000
  140.3804  134.2293  155.7171 LP  0  0  0  0  0  0  0  0  0  0  0  0  # atno 17395 bound_to 11000

$$$$
