AV-unprocessed.smi:658|AV-procd|sdf|3233|dock7
  -GOLD-   22720 0173D 1   1.00000     0.00000
 Structure written by MMmdl.
 38 38  0  0  0  0  0  0  0  0  2 V2000
  154.3249  140.4083  160.2871 C   0  0  0  0  0  0  0  0  0  0  0  0
  153.3606  141.3996  159.6151 C   0  0  1  0  0  0  0  0  0  0  0  0
  152.5009  140.6599  158.6620 N   0  3  0  0  0  0  0  0  0  0  0  0
  151.5434  141.4975  157.9132 C   0  0  0  0  0  0  0  0  0  0  0  0
  151.0633  140.7821  156.6453 C   0  0  0  0  0  0  0  0  0  0  0  0
  150.3451  141.7303  155.6753 C   0  0  0  0  0  0  0  0  0  0  0  0
  149.0823  140.8412  154.6672 S   0  0  0  0  0  0  0  0  0  0  0  0
  150.0528  139.7718  153.7337 N   0  0  0  0  0  0  0  0  0  0  0  0
  148.2472  140.0170  155.5539 O   0  0  0  0  0  0  0  0  0  0  0  0
  148.4729  141.7994  153.7332 O   0  0  0  0  0  0  0  0  0  0  0  0
  152.4837  142.1788  160.6288 C   0  0  1  0  0  0  0  0  0  0  0  0
  153.2373  142.5722  161.9133 C   0  0  0  0  0  0  0  0  0  0  0  0
  151.9093  143.3661  160.0044 N   0  0  0  0  0  0  0  0  0  0  0  0
  152.5531  144.4095  159.3682 C   0  0  0  0  0  0  0  0  0  0  0  0
  151.5921  145.2592  158.9009 C   0  0  0  0  0  0  0  0  0  0  0  0
  150.3734  144.6407  159.2948 C   0  0  0  0  0  0  0  0  0  0  0  0
  150.5662  143.5044  159.9450 N   0  0  0  0  0  0  0  0  0  0  0  0
  155.0561  140.9183  160.9137 H   0  0  0  0  0  0  0  0  0  0  0  0
  154.8858  139.8432  159.5418 H   0  0  0  0  0  0  0  0  0  0  0  0
  153.7889  139.6926  160.9115 H   0  0  0  0  0  0  0  0  0  0  0  0
  153.9627  142.1241  159.0635 H   0  0  0  0  0  0  0  0  0  0  0  0
  153.0892  140.1637  158.0080 H   0  0  0  0  0  0  0  0  0  0  0  0
  150.6895  141.7231  158.5539 H   0  0  0  0  0  0  0  0  0  0  0  0
  152.0183  142.4453  157.6565 H   0  0  0  0  0  0  0  0  0  0  0  0
  151.9151  140.3245  156.1407 H   0  0  0  0  0  0  0  0  0  0  0  0
  150.3914  139.9688  156.9224 H   0  0  0  0  0  0  0  0  0  0  0  0
  149.8270  142.5092  156.2356 H   0  0  0  0  0  0  0  0  0  0  0  0
  151.0416  142.2240  154.9971 H   0  0  0  0  0  0  0  0  0  0  0  0
  151.0318  139.7661  154.0197 H   0  0  0  0  0  0  0  0  0  0  0  0
  149.8965  139.8604  152.7297 H   0  0  0  0  0  0  0  0  0  0  0  0
  151.6555  141.5335  160.9292 H   0  0  0  0  0  0  0  0  0  0  0  0
  153.5270  141.6964  162.4933 H   0  0  0  0  0  0  0  0  0  0  0  0
  152.6111  143.1877  162.5603 H   0  0  0  0  0  0  0  0  0  0  0  0
  154.1423  143.1385  161.6913 H   0  0  0  0  0  0  0  0  0  0  0  0
  153.6296  144.4597  159.2973 H   0  0  0  0  0  0  0  0  0  0  0  0
  151.7374  146.1806  158.3566 H   0  0  0  0  0  0  0  0  0  0  0  0
  149.3616  144.9777  159.1230 H   0  0  0  0  0  0  0  0  0  0  0  0
  151.9694  139.9823  159.1912 H   0  0  0  0  0  0  0  0  0  0  0  0
  1  2  1  0  0  0  0
  1 18  1  0  0  0  0
  1 19  1  0  0  0  0
  1 20  1  0  0  0  0
  2  3  1  0  0  0  0
  2 11  1  0  0  0  0
  2 21  1  0  0  0  0
  3  4  1  0  0  0  0
  3 22  1  0  0  0  0
  3 38  1  0  0  0  0
  4  5  1  0  0  0  0
  4 23  1  0  0  0  0
  4 24  1  0  0  0  0
  5  6  1  0  0  0  0
  5 25  1  0  0  0  0
  5 26  1  0  0  0  0
  6  7  1  0  0  0  0
  6 27  1  0  0  0  0
  6 28  1  0  0  0  0
  7  8  1  0  0  0  0
  7  9  2  0  0  0  0
  7 10  2  0  0  0  0
  8 29  1  0  0  0  0
  8 30  1  0  0  0  0
 11 12  1  0  0  0  0
 11 13  1  0  0  0  0
 11 31  1  0  0  0  0
 12 32  1  0  0  0  0
 12 33  1  0  0  0  0
 12 34  1  0  0  0  0
 13 17  1  0  0  0  0
 13 14  1  0  0  0  0
 14 15  2  0  0  0  0
 14 35  1  0  0  0  0
 15 16  1  0  0  0  0
 15 36  1  0  0  0  0
 16 17  2  0  0  0  0
 16 37  1  0  0  0  0
M  CHG  1   3   1
M  END
> <s_m_source_file>
AV-unprocessed.smi

> <i_m_source_file_index>
658

> <i_lp_mmshare_version>
43012

> <i_f3d_flags>
0

> <s_epik_input>
bjFbY0hdW2NIXVtjSF1uMVtDQEBIXShbQ0gzXSlbQ0BIXShbQ0gzXSlbTkhdW0NIMl1bQ0gyXVtDSDJdUyg9TykoPU8pW05IMl0=

> <s_epik_cmdline>
J2VwaWtfcHl0aG9uJywgJy1waCcsICc3LjAnLCAnLXRuJywgJzgnLCAnLW1hJywgJzIwMCcsICctbWV0YWxfYmluZGluZycsICctaW1hZScsICc8aW5maWxlLm1hZT4nLCAnLW9tYWUnLCAnPG91dGZpbGUubWFlPic=

> <r_lp_tautomer_probability>
1

> <r_epik_Ionization_Penalty>
0.00535781

> <r_epik_Ionization_Penalty_Charging>
0.00511015

> <r_epik_Ionization_Penalty_Neutral>
0.000247661

> <r_epik_State_Penalty>
-0

> <r_epik_Charging_Adjusted_Penalty>
0.00511015

> <i_epik_Tot_Q>
1

> <i_epik_Tot_abs_Q>
1

> <r_epik_Metal_State_Penalty>
0.149106

> <b_epik_Metal_Only>
0

> <s_lp_Force_Field>
OPLS_2005

> <r_lp_Energy>
6.97458

> <b_lp_Chiralities_Consistent>
1

> <s_lp_Variant>
AV-unprocessed.smi:658-4

> <Gold.Version>
5.8.1

> <Gold.Id.Protein>
6NUR|6NUR_protein|mol2

> <Gold.PLP.Fitness>
48.7686

> <Gold.PLP.PLP>
-42.3158

> <Gold.PLP.part.hbond>
-4.0000

> <Gold.PLP.part.metal>
0.0000

> <Gold.PLP.part.buried>
-5.2324

> <Gold.PLP.part.nonpolar>
-32.2232

> <Gold.PLP.part.repulsive>
0.4001

> <Gold.PLP.ligand.clash>
0.0000

> <Gold.PLP.ligand.torsion>
0.8058

> <Gold.PLP.Chemscore.Hbond>
1.6080

> <Gold.PLP.Chemscore.CHOScore>
0.9961

> <Gold.PLP.Chemscore.Metal>
0.0000

> <Gold.Chemscore.Hbonds>
donor molecule, donor type, donor heavy atom, donor atom, acceptor molecule, acceptor atom, score
      L1  H     8    30       P1  7957  1.00
      P1  H  8011  8017       L1    10  0.54
      L1  C    16    37       P1  8029  0.96

> <Gold.PLP.Chemscore.Internal.Correction>
0.2521

> <Gold.Rescore>
     Score         DG    S(hbond)    S(metal)    S(lipo)     H(rot)  DE(clash)    DE(int)     intcor
     11.90     -14.37       1.59        0.00      99.13       3.13       0.14       2.34       ----

> <Gold.Chemscore.Fitness>
11.8952

> <Gold.Chemscore.DG>
-14.3750

> <Gold.Chemscore.ZeroCoef>
-5.4800

> <Gold.Chemscore.Hbond>
1.5908

> <Gold.Chemscore.Metal>
0.0000

> <Gold.Chemscore.Lipo>
99.1256

> <Gold.Chemscore.Internal_Hbond>
0.0000

> <Gold.Chemscore.DEClash>
0.1407

> <Gold.Chemscore.DEInternal>
2.3391

> <Gold.Chemscore.Rot>
3.1312

> <Gold.Chemscore.Internal.Correction>
   9.000000E+99

> <Gold.Chemscore.Hbonds>
donor molecule, donor type, donor heavy atom, donor atom, acceptor molecule, acceptor atom, score
      L1  H     8    30       P1  7957  0.99
      P1  H  8011  8017       L1    10  0.42

> <Gold.Chemscore.Hbond.Weighted>
-5.3132

> <Gold.Chemscore.Metal.Weighted>
-0.0000

> <Gold.Chemscore.Lipo.Weighted>
-11.5977

> <Gold.Chemscore.Internal_Hbond.Weighted>
0.0000

> <Gold.Chemscore.DEClash.Weighted>
0.1407

> <Gold.Chemscore.DEInternal.Weighted>
2.3391

> <Gold.Chemscore.Rot.Weighted>
8.0160

> <Gold.Chemscore.Internal.Correction.Weighted>
   9.000000E+99

> <Gold.Protein.RotatedTorsions>
[ 6907 6896 6895 6894 ] final -122.43 input  -60.11 | X-H torsion
[ 7974 7965 7964 7962 ] final    3.80 input  175.53 | X-H torsion
[ 8008 7997 7996 7995 ] final   50.65 input   59.86 | X-H torsion
[ 10167 10162 10161 10158 ] final  -73.68 input  -65.29 | X-H torsion
[ 10718 10713 10712 10709 ] final   36.20 input   66.30 | X-H torsion
[ 10763 10752 10751 10750 ] final  166.43 input  -60.55 | X-H torsion
[ 11005 11000 10999 10996 ] final -106.71 input  -57.11 | X-H torsion

> <Gold.Protein.ActiveResidues>
 VAL166  LYS551  ARG553  GLY616  TRP617  ASP618  TYR619  PRO620  LYS621  CYS622 
 ASP623  PHE694  ASN695  SER759  ASP760  ASP761  ALA762  ILE779  LEU786  VAL792 
 PHE793  MET794  SER795  GLU796  ALA797  LYS798  CYS799  TRP800  GLU811  SER814 

> <Gold.Protein.RotatedAtoms>
  150.8575  133.7693  159.3003 H   0  0  0  0  0  0  0  0  0  0  0  0  # atno 6907 bound_to 6896
  151.5346  135.1067  159.9921 H   0  0  0  0  0  0  0  0  0  0  0  0  # atno 6908 bound_to 6896
  152.4601  133.7760  159.6881 H   0  0  0  0  0  0  0  0  0  0  0  0  # atno 6909 bound_to 6896
  146.2445  140.0631  142.8367 H   0  0  0  0  0  0  0  0  0  0  0  0  # atno 7974 bound_to 7965
  155.4223  140.3447  155.4272 H   0  0  0  0  0  0  0  0  0  0  0  0  # atno 8008 bound_to 7997
  156.1385  140.1535  156.8988 H   0  0  0  0  0  0  0  0  0  0  0  0  # atno 8009 bound_to 7997
  154.4952  140.0830  156.7661 H   0  0  0  0  0  0  0  0  0  0  0  0  # atno 8010 bound_to 7997
  140.5090  143.2348  151.7625 H   0  0  0  0  0  0  0  0  0  0  0  0  # atno 10167 bound_to 10162
  157.3320  130.7503  149.6854 H   0  0  0  0  0  0  0  0  0  0  0  0  # atno 10718 bound_to 10713
  154.3388  135.2754  155.2433 H   0  0  0  0  0  0  0  0  0  0  0  0  # atno 10763 bound_to 10752
  154.4713  135.5882  153.6327 H   0  0  0  0  0  0  0  0  0  0  0  0  # atno 10764 bound_to 10752
  152.9859  135.6089  154.3588 H   0  0  0  0  0  0  0  0  0  0  0  0  # atno 10765 bound_to 10752
  141.0991  133.8917  157.1889 H   0  0  0  0  0  0  0  0  0  0  0  0  # atno 11005 bound_to 11000
  145.0882  140.9267  143.4785 LP  0  0  0  0  0  0  0  0  0  0  0  0  # atno 17320 bound_to 7965
  145.0798  139.2968  143.5789 LP  0  0  0  0  0  0  0  0  0  0  0  0  # atno 17321 bound_to 7965
  139.4891  144.4416  151.9757 LP  0  0  0  0  0  0  0  0  0  0  0  0  # atno 17342 bound_to 10162
  140.3508  144.3091  150.5949 LP  0  0  0  0  0  0  0  0  0  0  0  0  # atno 17343 bound_to 10162
  155.9697  130.4192  150.4366 LP  0  0  0  0  0  0  0  0  0  0  0  0  # atno 17370 bound_to 10713
  157.2399  131.0523  151.2442 LP  0  0  0  0  0  0  0  0  0  0  0  0  # atno 17371 bound_to 10713
  139.9836  135.0090  156.9809 LP  0  0  0  0  0  0  0  0  0  0  0  0  # atno 17394 bound_to 11000
  140.5068  134.1042  155.7261 LP  0  0  0  0  0  0  0  0  0  0  0  0  # atno 17395 bound_to 11000

$$$$
