AV-unprocessed.smi:1765|AV-procd|sdf|7134|dock8
  -GOLD-   22720 8373D 1   1.00000     0.00000
 Structure written by MMmdl.
 39 40  0  0  0  0  0  0  0  0  1 V2000
  146.8875  140.6877  152.8295 C   0  0  0  0  0  0  0  0  0  0  0  0
  148.1191  140.3395  153.5216 N   0  0  0  0  0  0  0  0  0  0  0  0
  148.2724  140.3531  154.8561 C   0  0  0  0  0  0  0  0  0  0  0  0
  147.3515  140.6741  155.6095 O   0  0  0  0  0  0  0  0  0  0  0  0
  149.6097  139.9551  155.3028 C   0  0  0  0  0  0  0  0  0  0  0  0
  150.5940  139.3441  154.4216 C   0  0  0  0  0  0  0  0  0  0  0  0
  151.8116  139.0021  154.8867 C   0  0  0  0  0  0  0  0  0  0  0  0
  152.1954  139.2257  156.2833 C   0  0  0  0  0  0  0  0  0  0  0  0
  153.3072  138.9160  156.7125 O   0  0  0  0  0  0  0  0  0  0  0  0
  151.2407  139.7975  157.0781 N   0  0  0  0  0  0  0  0  0  0  0  0
  151.5112  140.0686  158.5000 C   0  0  0  0  0  0  0  0  0  0  0  0
  151.5601  141.5667  158.8311 C   0  0  0  0  0  0  0  0  0  0  0  0
  150.5254  142.2319  158.8950 O   0  0  0  0  0  0  0  0  0  0  0  0
  152.7787  142.0776  159.0628 N   0  0  0  0  0  0  0  0  0  0  0  0
  153.0590  143.4714  159.3967 C   0  0  0  0  0  0  0  0  0  0  0  0
  152.3732  143.8660  160.7193 C   0  0  0  0  0  0  0  0  0  0  0  0
  151.6344  145.1762  160.4410 C   0  0  0  0  0  0  0  0  0  0  0  0
  151.2910  145.1100  158.9565 C   0  0  0  0  0  0  0  0  0  0  0  0
  152.5046  144.4293  158.3238 C   0  0  0  0  0  0  0  0  0  0  0  0
  149.9702  140.1560  156.5857 C   0  0  0  0  0  0  0  0  0  0  0  0
  147.0202  140.5719  151.7539 H   0  0  0  0  0  0  0  0  0  0  0  0
  146.6090  141.7231  153.0294 H   0  0  0  0  0  0  0  0  0  0  0  0
  146.0686  140.0391  153.1433 H   0  0  0  0  0  0  0  0  0  0  0  0
  148.9071  140.0673  152.9523 H   0  0  0  0  0  0  0  0  0  0  0  0
  150.3757  139.1526  153.3815 H   0  0  0  0  0  0  0  0  0  0  0  0
  152.5260  138.5510  154.2136 H   0  0  0  0  0  0  0  0  0  0  0  0
  150.7500  139.6084  159.1315 H   0  0  0  0  0  0  0  0  0  0  0  0
  152.4496  139.5968  158.7983 H   0  0  0  0  0  0  0  0  0  0  0  0
  153.5724  141.4569  158.9969 H   0  0  0  0  0  0  0  0  0  0  0  0
  154.1370  143.6166  159.4917 H   0  0  0  0  0  0  0  0  0  0  0  0
  151.6497  143.1069  161.0213 H   0  0  0  0  0  0  0  0  0  0  0  0
  153.0873  143.9705  161.5367 H   0  0  0  0  0  0  0  0  0  0  0  0
  150.7543  145.3041  161.0719 H   0  0  0  0  0  0  0  0  0  0  0  0
  152.3013  146.0198  160.6245 H   0  0  0  0  0  0  0  0  0  0  0  0
  150.4044  144.4915  158.8111 H   0  0  0  0  0  0  0  0  0  0  0  0
  151.0882  146.0915  158.5269 H   0  0  0  0  0  0  0  0  0  0  0  0
  153.2590  145.1828  158.0938 H   0  0  0  0  0  0  0  0  0  0  0  0
  152.2524  143.9344  157.3851 H   0  0  0  0  0  0  0  0  0  0  0  0
  149.3192  140.6075  157.3213 H   0  0  0  0  0  0  0  0  0  0  0  0
  1  2  1  0  0  0  0
  1 21  1  0  0  0  0
  1 22  1  0  0  0  0
  1 23  1  0  0  0  0
  2  3  1  0  0  0  0
  2 24  1  0  0  0  0
  3  4  2  0  0  0  0
  3  5  1  0  0  0  0
  5 20  2  0  0  0  0
  5  6  1  0  0  0  0
  6  7  2  0  0  0  0
  6 25  1  0  0  0  0
  7  8  1  0  0  0  0
  7 26  1  0  0  0  0
  8  9  2  0  0  0  0
  8 10  1  0  0  0  0
 10 11  1  0  0  0  0
 10 20  1  0  0  0  0
 11 12  1  0  0  0  0
 11 27  1  0  0  0  0
 11 28  1  0  0  0  0
 12 13  2  0  0  0  0
 12 14  1  0  0  0  0
 14 15  1  0  0  0  0
 14 29  1  0  0  0  0
 15 19  1  0  0  0  0
 15 16  1  0  0  0  0
 15 30  1  0  0  0  0
 16 17  1  0  0  0  0
 16 31  1  0  0  0  0
 16 32  1  0  0  0  0
 17 18  1  0  0  0  0
 17 33  1  0  0  0  0
 17 34  1  0  0  0  0
 18 19  1  0  0  0  0
 18 35  1  0  0  0  0
 18 36  1  0  0  0  0
 19 37  1  0  0  0  0
 19 38  1  0  0  0  0
 20 39  1  0  0  0  0
M  END
> <s_m_source_file>
AV-unprocessed.smi

> <i_m_source_file_index>
1765

> <i_lp_mmshare_version>
43012

> <i_f3d_flags>
0

> <s_epik_input>
W0NIM11bTkhdQyg9TyljMVtjSF1bY0hdYyg9TyluKFtjSF0xKVtDSDJdQyg9TylbTkhdW0NIXTJbQ0gyXVtDSDJdW0NIMl1bQ0gyXTI=

> <s_epik_cmdline>
J2VwaWtfcHl0aG9uJywgJy1waCcsICc3LjAnLCAnLXRuJywgJzgnLCAnLW1hJywgJzIwMCcsICctbWV0YWxfYmluZGluZycsICctaW1hZScsICc8aW5maWxlLm1hZT4nLCAnLW9tYWUnLCAnPG91dGZpbGUubWFlPic=

> <r_lp_tautomer_probability>
1

> <r_epik_Ionization_Penalty>
3.69544e-07

> <r_epik_Ionization_Penalty_Charging>
4.98828e-08

> <r_epik_Ionization_Penalty_Neutral>
3.19661e-07

> <r_epik_State_Penalty>
-0

> <r_epik_Charging_Adjusted_Penalty>
4.98828e-08

> <i_epik_Tot_Q>
0

> <i_epik_Tot_abs_Q>
0

> <r_epik_Metal_State_Penalty>
-0

> <b_epik_Metal_Only>
0

> <s_lp_Force_Field>
OPLS_2005

> <r_lp_Energy>
30.5558

> <b_lp_Chiralities_Consistent>
1

> <s_lp_Variant>
AV-unprocessed.smi:1765-1

> <Gold.Version>
5.8.1

> <Gold.Id.Protein>
6NUR|6NUR_protein|mol2

> <Gold.PLP.Fitness>
48.1471

> <Gold.PLP.PLP>
-43.0285

> <Gold.PLP.part.hbond>
-2.1607

> <Gold.PLP.part.metal>
0.0000

> <Gold.PLP.part.buried>
-4.3180

> <Gold.PLP.part.nonpolar>
-37.1984

> <Gold.PLP.part.repulsive>
0.2624

> <Gold.PLP.ligand.clash>
0.0000

> <Gold.PLP.ligand.torsion>
0.2890

> <Gold.PLP.Chemscore.Hbond>
1.8960

> <Gold.PLP.Chemscore.CHOScore>
0.0000

> <Gold.PLP.Chemscore.Metal>
0.0000

> <Gold.Chemscore.Hbonds>
donor molecule, donor type, donor heavy atom, donor atom, acceptor molecule, acceptor atom, score
      L1  H     2    24       P1  7957  0.88
      P1  H  7997  8010       L1     9  1.00

> <Gold.PLP.Chemscore.Internal.Correction>
0.0087

> <Gold.Rescore>
     Score         DG    S(hbond)    S(metal)    S(lipo)     H(rot)  DE(clash)    DE(int)     intcor
     17.47     -20.33       1.92        0.00     105.51       1.52       0.32       2.55       ----

> <Gold.Chemscore.Fitness>
17.4713

> <Gold.Chemscore.DG>
-20.3332

> <Gold.Chemscore.ZeroCoef>
-5.4800

> <Gold.Chemscore.Hbond>
1.9199

> <Gold.Chemscore.Metal>
0.0000

> <Gold.Chemscore.Lipo>
105.5106

> <Gold.Chemscore.Internal_Hbond>
0.0000

> <Gold.Chemscore.DEClash>
0.3158

> <Gold.Chemscore.DEInternal>
2.5461

> <Gold.Chemscore.Rot>
1.5250

> <Gold.Chemscore.Internal.Correction>
   9.000000E+99

> <Gold.Chemscore.Hbonds>
donor molecule, donor type, donor heavy atom, donor atom, acceptor molecule, acceptor atom, score
      L1  H     2    24       P1  7957  0.86
      P1  H  7997  8010       L1     9  0.82

> <Gold.Chemscore.Hbond.Weighted>
-6.4124

> <Gold.Chemscore.Metal.Weighted>
-0.0000

> <Gold.Chemscore.Lipo.Weighted>
-12.3447

> <Gold.Chemscore.Internal_Hbond.Weighted>
0.0000

> <Gold.Chemscore.DEClash.Weighted>
0.3158

> <Gold.Chemscore.DEInternal.Weighted>
2.5461

> <Gold.Chemscore.Rot.Weighted>
3.9039

> <Gold.Chemscore.Internal.Correction.Weighted>
   9.000000E+99

> <Gold.Protein.RotatedTorsions>
[ 6907 6896 6895 6894 ] final -108.60 input  -60.11 | X-H torsion
[ 7974 7965 7964 7962 ] final  144.61 input  175.53 | X-H torsion
[ 8008 7997 7996 7995 ] final   65.44 input   59.86 | X-H torsion
[ 10167 10162 10161 10158 ] final  -38.28 input  -65.29 | X-H torsion
[ 10718 10713 10712 10709 ] final   19.48 input   66.30 | X-H torsion
[ 10763 10752 10751 10750 ] final   19.06 input  -60.55 | X-H torsion
[ 11005 11000 10999 10996 ] final  163.49 input  -57.11 | X-H torsion

> <Gold.Protein.ActiveResidues>
 VAL166  LYS551  ARG553  GLY616  TRP617  ASP618  TYR619  PRO620  LYS621  CYS622 
 ASP623  PHE694  ASN695  SER759  ASP760  ASP761  ALA762  ILE779  LEU786  VAL792 
 PHE793  MET794  SER795  GLU796  ALA797  LYS798  CYS799  TRP800  GLU811  SER814 

> <Gold.Protein.RotatedAtoms>
  150.7511  133.9653  159.3528 H   0  0  0  0  0  0  0  0  0  0  0  0  # atno 6907 bound_to 6896
  151.7582  135.0814  160.0351 H   0  0  0  0  0  0  0  0  0  0  0  0  # atno 6908 bound_to 6896
  152.3421  133.6042  159.5920 H   0  0  0  0  0  0  0  0  0  0  0  0  # atno 6909 bound_to 6896
  144.8821  139.5684  143.5838 H   0  0  0  0  0  0  0  0  0  0  0  0  # atno 7974 bound_to 7965
  155.6619  140.3497  155.4785 H   0  0  0  0  0  0  0  0  0  0  0  0  # atno 8008 bound_to 7997
  155.9762  140.1165  157.0791 H   0  0  0  0  0  0  0  0  0  0  0  0  # atno 8009 bound_to 7997
  154.4179  140.1147  156.5359 H   0  0  0  0  0  0  0  0  0  0  0  0  # atno 8010 bound_to 7997
  140.7096  143.3287  151.2619 H   0  0  0  0  0  0  0  0  0  0  0  0  # atno 10167 bound_to 10162
  157.1110  130.6509  149.5897 H   0  0  0  0  0  0  0  0  0  0  0  0  # atno 10718 bound_to 10713
  153.1195  135.6716  153.9361 H   0  0  0  0  0  0  0  0  0  0  0  0  # atno 10763 bound_to 10752
  153.8880  135.3050  155.3448 H   0  0  0  0  0  0  0  0  0  0  0  0  # atno 10764 bound_to 10752
  154.7608  135.4989  153.9539 H   0  0  0  0  0  0  0  0  0  0  0  0  # atno 10765 bound_to 10752
  140.2364  134.8085  157.3367 H   0  0  0  0  0  0  0  0  0  0  0  0  # atno 11005 bound_to 11000
  146.3001  139.7399  142.9098 LP  0  0  0  0  0  0  0  0  0  0  0  0  # atno 17320 bound_to 7965
  145.3936  141.0376  143.3110 LP  0  0  0  0  0  0  0  0  0  0  0  0  # atno 17321 bound_to 7965
  139.6763  143.9932  152.2783 LP  0  0  0  0  0  0  0  0  0  0  0  0  # atno 17342 bound_to 10162
  139.9547  144.6597  150.8137 LP  0  0  0  0  0  0  0  0  0  0  0  0  # atno 17343 bound_to 10162
  155.9850  130.4878  150.7012 LP  0  0  0  0  0  0  0  0  0  0  0  0  # atno 17370 bound_to 10713
  157.4559  131.0878  151.0797 LP  0  0  0  0  0  0  0  0  0  0  0  0  # atno 17371 bound_to 10713
  140.1698  134.4623  155.7839 LP  0  0  0  0  0  0  0  0  0  0  0  0  # atno 17394 bound_to 11000
  141.2214  133.6937  156.7688 LP  0  0  0  0  0  0  0  0  0  0  0  0  # atno 17395 bound_to 11000

$$$$
