AV-unprocessed.smi:72|AV-procd|sdf|756|dock1
  -GOLD-   2262017 93D 1   1.00000     0.00000
 Structure written by MMmdl.
 29 30  0  0  0  0  0  0  0  0  1 V2000
  145.6981  135.5177  150.3478 N   0  0  0  0  0  0  0  0  0  0  0  0
  145.9324  136.5265  151.2583 C   0  0  0  0  0  0  0  0  0  0  0  0
  146.5654  137.6753  150.7660 N   0  0  0  0  0  0  0  0  0  0  0  0
  146.7790  138.6297  151.6154 C   0  0  0  0  0  0  0  0  0  0  0  0
  146.3589  138.5170  153.0041 N   0  0  0  0  0  0  0  0  0  0  0  0
  146.6117  139.6078  154.0346 C   0  0  1  0  0  0  0  0  0  0  0  0
  147.6100  139.2013  154.9257 O   0  0  0  0  0  0  0  0  0  0  0  0
  148.8664  139.7337  154.5170 C   0  0  2  0  0  0  0  0  0  0  0  0
  149.9000  139.6637  155.6545 C   0  0  0  0  0  0  0  0  0  0  0  0
  151.1414  140.1659  155.2076 O   0  0  0  0  0  0  0  0  0  0  0  0
  148.4758  141.1401  154.0534 C   0  0  2  0  0  0  0  0  0  0  0  0
  148.3762  142.0222  155.1609 O   0  0  0  0  0  0  0  0  0  0  0  0
  147.1310  140.9000  153.3640 C   0  0  2  0  0  0  0  0  0  0  0  0
  146.2487  141.9973  153.5071 O   0  0  0  0  0  0  0  0  0  0  0  0
  145.7582  137.3028  153.4405 C   0  0  0  0  0  0  0  0  0  0  0  0
  145.4458  137.1572  154.6221 O   0  0  0  0  0  0  0  0  0  0  0  0
  145.5448  136.3062  152.4811 N   0  0  0  0  0  0  0  0  0  0  0  0
  145.6660  139.7197  154.5681 H   0  0  0  0  0  0  0  0  0  0  0  0
  149.2328  139.1827  153.6487 H   0  0  0  0  0  0  0  0  0  0  0  0
  149.2115  141.5518  153.3616 H   0  0  0  0  0  0  0  0  0  0  0  0
  147.3012  140.7155  152.3021 H   0  0  0  0  0  0  0  0  0  0  0  0
  145.2517  134.6447  150.5888 H   0  0  0  0  0  0  0  0  0  0  0  0
  145.9514  135.5790  149.3726 H   0  0  0  0  0  0  0  0  0  0  0  0
  147.2809  139.5567  151.3389 H   0  0  0  0  0  0  0  0  0  0  0  0
  149.5798  140.2840  156.4921 H   0  0  0  0  0  0  0  0  0  0  0  0
  150.0161  138.6454  156.0268 H   0  0  0  0  0  0  0  0  0  0  0  0
  151.6238  140.4832  155.9556 H   0  0  0  0  0  0  0  0  0  0  0  0
  148.6985  142.8698  154.8944 H   0  0  0  0  0  0  0  0  0  0  0  0
  145.3623  141.6744  153.4472 H   0  0  0  0  0  0  0  0  0  0  0  0
  1  2  1  0  0  0  0
  1 22  1  0  0  0  0
  1 23  1  0  0  0  0
  2 17  2  0  0  0  0
  2  3  1  0  0  0  0
  3  4  2  0  0  0  0
  4  5  1  0  0  0  0
  4 24  1  0  0  0  0
  5  6  1  0  0  0  0
  5 15  1  0  0  0  0
  6 18  1  0  0  0  0
  6 13  1  0  0  0  0
  6  7  1  0  0  0  0
  7  8  1  0  0  0  0
  8 19  1  0  0  0  0
  8  9  1  0  0  0  0
  8 11  1  0  0  0  0
  9 10  1  0  0  0  0
  9 25  1  0  0  0  0
  9 26  1  0  0  0  0
 10 27  1  0  0  0  0
 11 20  1  0  0  0  0
 11 12  1  0  0  0  0
 11 13  1  0  0  0  0
 12 28  1  0  0  0  0
 13 21  1  0  0  0  0
 13 14  1  0  0  0  0
 14 29  1  0  0  0  0
 15 16  2  0  0  0  0
 15 17  1  0  0  0  0
M  END
> <s_m_source_file>
AV-unprocessed.smi

> <i_m_source_file_index>
72

> <i_lp_mmshare_version>
43012

> <i_f3d_flags>
0

> <s_epik_input>
W05IMl1jMW5bY0hdbihjKD1PKW4xKVtDQEBIXTJPW0NASF0oW0NIMl1bT0hdKVtDQEBIXShbT0hdKVtDQEhdMltPSF0=

> <s_epik_cmdline>
J2VwaWtfcHl0aG9uJywgJy1waCcsICc3LjAnLCAnLXRuJywgJzgnLCAnLW1hJywgJzIwMCcsICctbWV0YWxfYmluZGluZycsICctaW1hZScsICc8aW5maWxlLm1hZT4nLCAnLW9tYWUnLCAnPG91dGZpbGUubWFlPic=

> <r_lp_tautomer_probability>
4.77166e-05

> <r_epik_Ionization_Penalty>
1.3546

> <r_epik_Ionization_Penalty_Charging>
1.46833e-10

> <r_epik_Ionization_Penalty_Neutral>
1.3546

> <r_epik_State_Penalty>
3.51908

> <r_epik_Charging_Adjusted_Penalty>
3.51908

> <i_epik_Tot_Q>
0

> <i_epik_Tot_abs_Q>
0

> <r_epik_Metal_State_Penalty>
3.44088

> <b_epik_Metal_Only>
1

> <s_epik_Chemistry_Notes>
This compound contains an acetal/aminal-like group ( X-CH(R)-Y where X, Y are N, S, or O) that may be acid/base labile, releasing an aldehyde.

> <s_lp_Force_Field>
OPLS_2005

> <r_lp_Energy>
31.1202

> <b_lp_Chiralities_Consistent>
1

> <s_lp_Variant>
AV-unprocessed.smi:72-94

> <Gold.Version>
5.8.1

> <Gold.Id.Protein>
6NUR|6NUR_protein|mol2

> <Gold.PLP.Fitness>
37.1192

> <Gold.PLP.PLP>
-22.6009

> <Gold.PLP.part.hbond>
-4.6666

> <Gold.PLP.part.metal>
0.0000

> <Gold.PLP.part.buried>
-3.3363

> <Gold.PLP.part.nonpolar>
-18.8114

> <Gold.PLP.part.repulsive>
2.7119

> <Gold.PLP.ligand.clash>
0.0000

> <Gold.PLP.ligand.torsion>
0.1762

> <Gold.PLP.Chemscore.Hbond>
3.9824

> <Gold.PLP.Chemscore.CHOScore>
0.9654

> <Gold.PLP.Chemscore.Metal>
0.0000

> <Gold.Chemscore.Hbonds>
donor molecule, donor type, donor heavy atom, donor atom, acceptor molecule, acceptor atom, score
      L1  H     1    23       P1  7921  1.00
      L1  H    12    28       P1  8028  0.78
      L1  H    14    29       P1 10175  0.26
      P1  H  7954  7966       L1     3  0.80
      P1  H  7989  7998       L1    10  1.00
      L1  C     4    24       P1  7957  1.00

> <Gold.PLP.Chemscore.Internal.Correction>
0.0275

> <Gold.Rescore>
     Score         DG    S(hbond)    S(metal)    S(lipo)     H(rot)  DE(clash)    DE(int)     intcor
      6.85      -8.78       3.28        0.00      23.51       4.06       1.52       0.41       ----

> <Gold.Chemscore.Fitness>
6.8537

> <Gold.Chemscore.DG>
-8.7844

> <Gold.Chemscore.ZeroCoef>
-5.4800

> <Gold.Chemscore.Hbond>
3.2776

> <Gold.Chemscore.Metal>
0.0000

> <Gold.Chemscore.Lipo>
23.5131

> <Gold.Chemscore.Internal_Hbond>
0.0000

> <Gold.Chemscore.DEClash>
1.5207

> <Gold.Chemscore.DEInternal>
0.4101

> <Gold.Chemscore.Rot>
4.0600

> <Gold.Chemscore.Internal.Correction>
   9.000000E+99

> <Gold.Chemscore.Hbonds>
donor molecule, donor type, donor heavy atom, donor atom, acceptor molecule, acceptor atom, score
      L1  H     1    23       P1  7921  0.95
      L1  H    12    28       P1  8028  0.75
      L1  H    14    29       P1 10175  0.02
      P1  H  7954  7966       L1     3  0.12
      P1  H  7989  7998       L1    10  0.91

> <Gold.Chemscore.Hbond.Weighted>
-10.9470

> <Gold.Chemscore.Metal.Weighted>
-0.0000

> <Gold.Chemscore.Lipo.Weighted>
-2.7510

> <Gold.Chemscore.Internal_Hbond.Weighted>
0.0000

> <Gold.Chemscore.DEClash.Weighted>
1.5207

> <Gold.Chemscore.DEInternal.Weighted>
0.4101

> <Gold.Chemscore.Rot.Weighted>
10.3936

> <Gold.Chemscore.Internal.Correction.Weighted>
   9.000000E+99

> <Gold.Protein.RotatedTorsions>
[ 6907 6896 6895 6894 ] final  -32.46 input  -60.11 | X-H torsion
[ 7974 7965 7964 7962 ] final -114.71 input  175.53 | X-H torsion
[ 8008 7997 7996 7995 ] final   76.99 input   59.86 | X-H torsion
[ 10167 10162 10161 10158 ] final  140.99 input  -65.29 | X-H torsion
[ 10718 10713 10712 10709 ] final  145.58 input   66.30 | X-H torsion
[ 10763 10752 10751 10750 ] final  -54.44 input  -60.55 | X-H torsion
[ 11005 11000 10999 10996 ] final  -37.64 input  -57.11 | X-H torsion

> <Gold.Protein.ActiveResidues>
 VAL166  LYS551  ARG553  GLY616  TRP617  ASP618  TYR619  PRO620  LYS621  CYS622 
 ASP623  PHE694  ASN695  SER759  ASP760  ASP761  ALA762  ILE779  LEU786  VAL792 
 PHE793  MET794  SER795  GLU796  ALA797  LYS798  CYS799  TRP800  GLU811  SER814 

> <Gold.Protein.RotatedAtoms>
  151.0784  134.9843  159.8343 H   0  0  0  0  0  0  0  0  0  0  0  0  # atno 6907 bound_to 6896
  152.5417  134.2212  159.8798 H   0  0  0  0  0  0  0  0  0  0  0  0  # atno 6908 bound_to 6896
  151.2240  133.4443  159.2635 H   0  0  0  0  0  0  0  0  0  0  0  0  # atno 6909 bound_to 6896
  145.1170  140.8646  143.3836 H   0  0  0  0  0  0  0  0  0  0  0  0  # atno 7974 bound_to 7965
  155.8352  140.3464  155.5597 H   0  0  0  0  0  0  0  0  0  0  0  0  # atno 8008 bound_to 7997
  155.8200  140.0911  157.1874 H   0  0  0  0  0  0  0  0  0  0  0  0  # atno 8009 bound_to 7997
  154.4004  140.1432  156.3476 H   0  0  0  0  0  0  0  0  0  0  0  0  # atno 8010 bound_to 7997
  139.5033  144.6200  151.6074 H   0  0  0  0  0  0  0  0  0  0  0  0  # atno 10167 bound_to 10162
  157.3435  131.0939  151.1062 H   0  0  0  0  0  0  0  0  0  0  0  0  # atno 10718 bound_to 10713
  154.1749  135.6453  153.5019 H   0  0  0  0  0  0  0  0  0  0  0  0  # atno 10763 bound_to 10752
  153.0074  135.5392  154.6575 H   0  0  0  0  0  0  0  0  0  0  0  0  # atno 10764 bound_to 10752
  154.5924  135.2935  155.0594 H   0  0  0  0  0  0  0  0  0  0  0  0  # atno 10765 bound_to 10752
  140.9967  133.6976  156.1948 H   0  0  0  0  0  0  0  0  0  0  0  0  # atno 11005 bound_to 11000
  145.0783  139.2979  143.5797 LP  0  0  0  0  0  0  0  0  0  0  0  0  # atno 17320 bound_to 7965
  146.3523  140.0280  142.8653 LP  0  0  0  0  0  0  0  0  0  0  0  0  # atno 17321 bound_to 7965
  140.5899  143.9798  150.6318 LP  0  0  0  0  0  0  0  0  0  0  0  0  # atno 17342 bound_to 10162
  140.2975  143.3283  152.1004 LP  0  0  0  0  0  0  0  0  0  0  0  0  # atno 17343 bound_to 10162
  157.2264  130.6505  149.5832 LP  0  0  0  0  0  0  0  0  0  0  0  0  # atno 17370 bound_to 10713
  155.9711  130.4612  150.6103 LP  0  0  0  0  0  0  0  0  0  0  0  0  # atno 17371 bound_to 10713
  140.6954  134.4621  157.5588 LP  0  0  0  0  0  0  0  0  0  0  0  0  # atno 17394 bound_to 11000
  139.9018  134.8538  156.1864 LP  0  0  0  0  0  0  0  0  0  0  0  0  # atno 17395 bound_to 11000

$$$$
