AV-unprocessed.smi:2087|AV-procd|sdf|8521|dock3
  -GOLD-   2272011233D 1   1.00000     0.00000
 Structure written by MMmdl.
 51 52  0  0  0  0  0  0  0  0  2 V2000
  153.0670  143.4876  158.9100 C   0  0  0  0  0  0  0  0  0  0  0  0
  151.8526  143.6717  157.9876 C   0  0  0  0  0  0  0  0  0  0  0  0
  151.0579  144.9252  158.3915 C   0  0  0  0  0  0  0  0  0  0  0  0
  150.9709  142.4038  157.9917 C   0  0  0  0  0  0  0  0  0  0  0  0
  149.9250  142.4176  156.9326 N   0  3  2  0  0  0  0  0  0  0  0  0
  148.5880  141.9931  157.4131 C   0  0  0  0  0  0  0  0  0  0  0  0
  148.5083  140.4629  157.5504 C   0  0  0  0  0  0  0  0  0  0  0  0
  148.8139  139.8624  156.2983 O   0  0  0  0  0  0  0  0  0  0  0  0
  150.1348  140.1562  155.8557 C   0  0  1  0  0  0  0  0  0  0  0  0
  150.3623  139.3897  154.5434 C   0  0  0  0  0  0  0  0  0  0  0  0
  149.1928  139.4596  153.6761 N   0  0  0  0  0  0  0  0  0  0  0  0
  148.0537  138.7845  153.8825 C   0  0  0  0  0  0  0  0  0  0  0  0
  147.8780  138.0401  154.8479 O   0  0  0  0  0  0  0  0  0  0  0  0
  146.9426  139.0071  152.8472 C   0  0  0  0  0  0  0  0  0  0  0  0
  145.9745  137.9041  152.7930 N   0  0  0  0  0  0  0  0  0  0  0  0
  145.1987  137.6200  153.9024 C   0  0  0  0  0  0  0  0  0  0  0  0
  144.2965  136.6155  153.9431 C   0  0  0  0  0  0  0  0  0  0  0  0
  144.0849  135.7548  152.7861 C   0  0  0  0  0  0  0  0  0  0  0  0
  143.2845  134.8184  152.7756 O   0  0  0  0  0  0  0  0  0  0  0  0
  144.8821  136.0719  151.6622 N   0  0  0  0  0  0  0  0  0  0  0  0
  144.7149  135.2345  150.4926 C   0  0  0  0  0  0  0  0  0  0  0  0
  145.8342  137.1176  151.6285 C   0  0  0  0  0  0  0  0  0  0  0  0
  146.5284  137.3481  150.6357 O   0  0  0  0  0  0  0  0  0  0  0  0
  150.2838  141.6881  155.6888 C   0  0  0  0  0  0  0  0  0  0  0  0
  152.7610  143.3333  159.9454 H   0  0  0  0  0  0  0  0  0  0  0  0
  153.7177  144.3623  158.8830 H   0  0  0  0  0  0  0  0  0  0  0  0
  153.6647  142.6270  158.6078 H   0  0  0  0  0  0  0  0  0  0  0  0
  152.2455  143.8338  156.9846 H   0  0  0  0  0  0  0  0  0  0  0  0
  150.6341  144.8222  159.3911 H   0  0  0  0  0  0  0  0  0  0  0  0
  150.2377  145.1194  157.6999 H   0  0  0  0  0  0  0  0  0  0  0  0
  151.6956  145.8097  158.3920 H   0  0  0  0  0  0  0  0  0  0  0  0
  151.5887  141.5112  157.8939 H   0  0  0  0  0  0  0  0  0  0  0  0
  150.4930  142.3294  158.9696 H   0  0  0  0  0  0  0  0  0  0  0  0
  148.3416  142.4827  158.3560 H   0  0  0  0  0  0  0  0  0  0  0  0
  147.8418  142.3286  156.6916 H   0  0  0  0  0  0  0  0  0  0  0  0
  149.1851  140.0962  158.3236 H   0  0  0  0  0  0  0  0  0  0  0  0
  147.5015  140.1659  157.8445 H   0  0  0  0  0  0  0  0  0  0  0  0
  150.8441  139.7847  156.5968 H   0  0  0  0  0  0  0  0  0  0  0  0
  151.2149  139.8123  154.0097 H   0  0  0  0  0  0  0  0  0  0  0  0
  150.6084  138.3491  154.7618 H   0  0  0  0  0  0  0  0  0  0  0  0
  149.2562  140.0493  152.8589 H   0  0  0  0  0  0  0  0  0  0  0  0
  146.4313  139.9384  153.0940 H   0  0  0  0  0  0  0  0  0  0  0  0
  147.3832  139.1662  151.8612 H   0  0  0  0  0  0  0  0  0  0  0  0
  145.3224  138.2279  154.7869 H   0  0  0  0  0  0  0  0  0  0  0  0
  143.7261  136.4447  154.8442 H   0  0  0  0  0  0  0  0  0  0  0  0
  145.2114  135.6671  149.6245 H   0  0  0  0  0  0  0  0  0  0  0  0
  143.6459  135.1610  150.2836 H   0  0  0  0  0  0  0  0  0  0  0  0
  145.1417  134.2602  150.7356 H   0  0  0  0  0  0  0  0  0  0  0  0
  149.6149  142.0292  154.8975 H   0  0  0  0  0  0  0  0  0  0  0  0
  151.2894  141.9496  155.3633 H   0  0  0  0  0  0  0  0  0  0  0  0
  149.8274  143.3904  156.6783 H   0  0  0  0  0  0  0  0  0  0  0  0
  1  2  1  0  0  0  0
  1 25  1  0  0  0  0
  1 26  1  0  0  0  0
  1 27  1  0  0  0  0
  2  3  1  0  0  0  0
  2  4  1  0  0  0  0
  2 28  1  0  0  0  0
  3 29  1  0  0  0  0
  3 30  1  0  0  0  0
  3 31  1  0  0  0  0
  4  5  1  0  0  0  0
  4 32  1  0  0  0  0
  4 33  1  0  0  0  0
  5 24  1  0  0  0  0
  5  6  1  0  0  0  0
  5 51  1  0  0  0  0
  6  7  1  0  0  0  0
  6 34  1  0  0  0  0
  6 35  1  0  0  0  0
  7  8  1  0  0  0  0
  7 36  1  0  0  0  0
  7 37  1  0  0  0  0
  8  9  1  0  0  0  0
  9 10  1  0  0  0  0
  9 24  1  0  0  0  0
  9 38  1  0  0  0  0
 10 11  1  0  0  0  0
 10 39  1  0  0  0  0
 10 40  1  0  0  0  0
 11 12  1  0  0  0  0
 11 41  1  0  0  0  0
 12 13  2  0  0  0  0
 12 14  1  0  0  0  0
 14 15  1  0  0  0  0
 14 42  1  0  0  0  0
 14 43  1  0  0  0  0
 15 22  1  0  0  0  0
 15 16  1  0  0  0  0
 16 17  2  0  0  0  0
 16 44  1  0  0  0  0
 17 18  1  0  0  0  0
 17 45  1  0  0  0  0
 18 19  2  0  0  0  0
 18 20  1  0  0  0  0
 20 21  1  0  0  0  0
 20 22  1  0  0  0  0
 21 46  1  0  0  0  0
 21 47  1  0  0  0  0
 21 48  1  0  0  0  0
 22 23  2  0  0  0  0
 24 49  1  0  0  0  0
 24 50  1  0  0  0  0
M  CHG  1   5   1
M  END
> <s_m_source_file>
AV-unprocessed.smi

> <i_m_source_file_index>
2087

> <i_lp_mmshare_version>
43012

> <i_f3d_flags>
0

> <s_epik_input>
W0NIM11bQ0hdKFtDSDNdKVtDSDJdTjFbQ0gyXVtDSDJdT1tDQEhdKFtDSDJdMSlbQ0gyXVtOSF1DKD1PKVtDSDJdbjJbY0hdW2NIXWMoPU8pbihbQ0gzXSljMj1P

> <s_epik_cmdline>
J2VwaWtfcHl0aG9uJywgJy1waCcsICc3LjAnLCAnLXRuJywgJzgnLCAnLW1hJywgJzIwMCcsICctbWV0YWxfYmluZGluZycsICctaW1hZScsICc8aW5maWxlLm1hZT4nLCAnLW9tYWUnLCAnPG91dGZpbGUubWFlPic=

> <r_lp_tautomer_probability>
1

> <r_epik_Ionization_Penalty>
0.097593

> <r_epik_Ionization_Penalty_Charging>
0.097593

> <r_epik_Ionization_Penalty_Neutral>
6.27044e-08

> <r_epik_State_Penalty>
0.0877056

> <r_epik_Charging_Adjusted_Penalty>
0.185299

> <i_epik_Tot_Q>
1

> <i_epik_Tot_abs_Q>
1

> <r_epik_Metal_State_Penalty>
0.0877109

> <b_epik_Metal_Only>
0

> <s_lp_Force_Field>
OPLS_2005

> <r_lp_Energy>
29.4179

> <b_lp_Chiralities_Consistent>
1

> <s_lp_Variant>
AV-unprocessed.smi:2087-2

> <Gold.Version>
5.8.1

> <Gold.Id.Protein>
6NUR|6NUR_protein|mol2

> <Gold.PLP.Fitness>
47.2500

> <Gold.PLP.PLP>
-38.0586

> <Gold.PLP.part.hbond>
-3.0000

> <Gold.PLP.part.metal>
0.0000

> <Gold.PLP.part.buried>
-4.0476

> <Gold.PLP.part.nonpolar>
-34.0486

> <Gold.PLP.part.repulsive>
2.8449

> <Gold.PLP.ligand.clash>
0.0000

> <Gold.PLP.ligand.torsion>
1.2026

> <Gold.PLP.Chemscore.Hbond>
3.8160

> <Gold.PLP.Chemscore.CHOScore>
0.0000

> <Gold.PLP.Chemscore.Metal>
0.0000

> <Gold.Chemscore.Hbonds>
donor molecule, donor type, donor heavy atom, donor atom, acceptor molecule, acceptor atom, score
      L1  H     5    51       P1  8028  1.95
      L1  H    11    41       P1  7957  0.86
      P1  H  7954  7966       L1    23  1.00

> <Gold.PLP.Chemscore.Internal.Correction>
0.1485

> <Gold.Rescore>
     Score         DG    S(hbond)    S(metal)    S(lipo)     H(rot)  DE(clash)    DE(int)     intcor
     12.23     -19.35       2.77        0.00      88.25       2.22       1.49       5.63       ----

> <Gold.Chemscore.Fitness>
12.2327

> <Gold.Chemscore.DG>
-19.3501

> <Gold.Chemscore.ZeroCoef>
-5.4800

> <Gold.Chemscore.Hbond>
2.7665

> <Gold.Chemscore.Metal>
0.0000

> <Gold.Chemscore.Lipo>
88.2541

> <Gold.Chemscore.Internal_Hbond>
0.0000

> <Gold.Chemscore.DEClash>
1.4875

> <Gold.Chemscore.DEInternal>
5.6299

> <Gold.Chemscore.Rot>
2.2249

> <Gold.Chemscore.Internal.Correction>
   9.000000E+99

> <Gold.Chemscore.Hbonds>
donor molecule, donor type, donor heavy atom, donor atom, acceptor molecule, acceptor atom, score
      L1  H     5    51       P1  8028  0.93
      L1  H    11    41       P1  7957  0.85
      P1  H  7954  7966       L1    23  0.94

> <Gold.Chemscore.Hbond.Weighted>
-9.2400

> <Gold.Chemscore.Metal.Weighted>
-0.0000

> <Gold.Chemscore.Lipo.Weighted>
-10.3257

> <Gold.Chemscore.Internal_Hbond.Weighted>
0.0000

> <Gold.Chemscore.DEClash.Weighted>
1.4875

> <Gold.Chemscore.DEInternal.Weighted>
5.6299

> <Gold.Chemscore.Rot.Weighted>
5.6957

> <Gold.Chemscore.Internal.Correction.Weighted>
   9.000000E+99

> <Gold.Protein.RotatedTorsions>
[ 6907 6896 6895 6894 ] final  -98.66 input  -60.11 | X-H torsion
[ 7974 7965 7964 7962 ] final -159.60 input  175.53 | X-H torsion
[ 8008 7997 7996 7995 ] final   98.69 input   59.86 | X-H torsion
[ 10167 10162 10161 10158 ] final  153.83 input  -65.29 | X-H torsion
[ 10718 10713 10712 10709 ] final   76.64 input   66.30 | X-H torsion
[ 10763 10752 10751 10750 ] final  -13.45 input  -60.55 | X-H torsion
[ 11005 11000 10999 10996 ] final  -72.76 input  -57.11 | X-H torsion

> <Gold.Protein.ActiveResidues>
 VAL166  LYS551  ARG553  GLY616  TRP617  ASP618  TYR619  PRO620  LYS621  CYS622 
 ASP623  PHE694  ASN695  SER759  ASP760  ASP761  ALA762  ILE779  LEU786  VAL792 
 PHE793  MET794  SER795  GLU796  ALA797  LYS798  CYS799  TRP800  GLU811  SER814 

> <Gold.Protein.RotatedAtoms>
  150.7054  134.1161  159.4017 H   0  0  0  0  0  0  0  0  0  0  0  0  # atno 6907 bound_to 6896
  151.9147  135.0321  160.0526 H   0  0  0  0  0  0  0  0  0  0  0  0  # atno 6908 bound_to 6896
  152.2306  133.5020  159.5250 H   0  0  0  0  0  0  0  0  0  0  0  0  # atno 6909 bound_to 6896
  144.7459  140.3661  143.6086 H   0  0  0  0  0  0  0  0  0  0  0  0  # atno 7974 bound_to 7965
  156.1030  140.3240  155.7967 H   0  0  0  0  0  0  0  0  0  0  0  0  # atno 8008 bound_to 7997
  155.4804  140.0553  157.2985 H   0  0  0  0  0  0  0  0  0  0  0  0  # atno 8009 bound_to 7997
  154.4709  140.2011  156.0012 H   0  0  0  0  0  0  0  0  0  0  0  0  # atno 8010 bound_to 7997
  139.4825  144.5239  151.7832 H   0  0  0  0  0  0  0  0  0  0  0  0  # atno 10167 bound_to 10162
  157.6681  130.9784  150.1525 H   0  0  0  0  0  0  0  0  0  0  0  0  # atno 10718 bound_to 10713
  153.5135  135.7016  153.5768 H   0  0  0  0  0  0  0  0  0  0  0  0  # atno 10763 bound_to 10752
  153.3848  135.3911  155.1882 H   0  0  0  0  0  0  0  0  0  0  0  0  # atno 10764 bound_to 10752
  154.8701  135.3844  154.4617 H   0  0  0  0  0  0  0  0  0  0  0  0  # atno 10765 bound_to 10752
  141.1613  133.6857  156.7107 H   0  0  0  0  0  0  0  0  0  0  0  0  # atno 11005 bound_to 11000
  145.7126  139.1689  143.2530 LP  0  0  0  0  0  0  0  0  0  0  0  0  # atno 17320 bound_to 7965
  146.1335  140.7153  142.9400 LP  0  0  0  0  0  0  0  0  0  0  0  0  # atno 17321 bound_to 7965
  140.4756  144.1523  150.5924 LP  0  0  0  0  0  0  0  0  0  0  0  0  # atno 17342 bound_to 10162
  140.4334  143.2558  151.9566 LP  0  0  0  0  0  0  0  0  0  0  0  0  # atno 17343 bound_to 10162
  156.2321  130.3683  149.8433 LP  0  0  0  0  0  0  0  0  0  0  0  0  # atno 17370 bound_to 10713
  156.6256  130.8644  151.3485 LP  0  0  0  0  0  0  0  0  0  0  0  0  # atno 17371 bound_to 10713
  140.2889  134.8257  157.3999 LP  0  0  0  0  0  0  0  0  0  0  0  0  # atno 17394 bound_to 11000
  140.1365  134.5027  155.8064 LP  0  0  0  0  0  0  0  0  0  0  0  0  # atno 17395 bound_to 11000

$$$$
