AV-unprocessed.smi:2321|AV-procd|sdf|9282|dock7
  -GOLD-   2272012503D 1   1.00000     0.00000
 Structure written by MMmdl.
 36 37  0  0  0  0  0  0  0  0  1 V2000
  150.2097  136.3415  158.6239 O   0  0  0  0  0  0  0  0  0  0  0  0
  149.1043  136.8433  158.4326 C   0  0  0  0  0  0  0  0  0  0  0  0
  148.8348  137.7794  157.5017 N   0  0  0  0  0  0  0  0  0  0  0  0
  149.7100  138.3863  156.5609 C   0  0  0  0  0  0  0  0  0  0  0  0
  151.0855  138.6290  156.7937 C   0  0  0  0  0  0  0  0  0  0  0  0
  151.8479  139.2238  155.7682 C   0  0  0  0  0  0  0  0  0  0  0  0
  151.3387  139.5690  154.5665 N   0  0  0  0  0  0  0  0  0  0  0  0
  150.0304  139.3226  154.3433 C   0  0  0  0  0  0  0  0  0  0  0  0
  149.1799  138.7331  155.3000 C   0  0  0  0  0  0  0  0  0  0  0  0
  147.8751  138.5091  155.0103 F   0  0  0  0  0  0  0  0  0  0  0  0
  148.0455  136.4972  159.1883 N   0  0  0  0  0  0  0  0  0  0  0  0
  147.9842  135.5219  160.2797 C   0  0  1  0  0  0  0  0  0  0  0  0
  147.7294  136.2572  161.6075 C   0  0  0  0  0  0  0  0  0  0  0  0
  147.6052  135.2693  162.7769 C   0  0  0  0  0  0  0  0  0  0  0  0
  146.5092  134.2258  162.5105 C   0  0  0  0  0  0  0  0  0  0  0  0
  146.7520  133.4712  161.1864 C   0  0  1  0  0  0  0  0  0  0  0  0
  145.6664  132.4083  160.9188 C   0  0  0  0  0  0  0  0  0  0  0  0
  145.6319  131.5070  161.9009 F   0  0  0  0  0  0  0  0  0  0  0  0
  144.4707  132.9905  160.8255 F   0  0  0  0  0  0  0  0  0  0  0  0
  145.9142  131.7824  159.7682 F   0  0  0  0  0  0  0  0  0  0  0  0
  146.8804  134.4743  160.0198 C   0  0  0  0  0  0  0  0  0  0  0  0
  147.8969  138.1527  157.5151 H   0  0  0  0  0  0  0  0  0  0  0  0
  151.5698  138.3636  157.7205 H   0  0  0  0  0  0  0  0  0  0  0  0
  152.8992  139.4217  155.9161 H   0  0  0  0  0  0  0  0  0  0  0  0
  149.6499  139.6019  153.3718 H   0  0  0  0  0  0  0  0  0  0  0  0
  147.1822  136.9830  158.9921 H   0  0  0  0  0  0  0  0  0  0  0  0
  148.9464  135.0134  160.3654 H   0  0  0  0  0  0  0  0  0  0  0  0
  148.5383  136.9610  161.8075 H   0  0  0  0  0  0  0  0  0  0  0  0
  146.8154  136.8488  161.5355 H   0  0  0  0  0  0  0  0  0  0  0  0
  148.5599  134.7661  162.9346 H   0  0  0  0  0  0  0  0  0  0  0  0
  147.3862  135.8109  163.6976 H   0  0  0  0  0  0  0  0  0  0  0  0
  146.4714  133.5220  163.3425 H   0  0  0  0  0  0  0  0  0  0  0  0
  145.5377  134.7208  162.4813 H   0  0  0  0  0  0  0  0  0  0  0  0
  147.7042  132.9458  161.2757 H   0  0  0  0  0  0  0  0  0  0  0  0
  145.9260  134.9797  159.8655 H   0  0  0  0  0  0  0  0  0  0  0  0
  147.0916  133.9341  159.0965 H   0  0  0  0  0  0  0  0  0  0  0  0
  1  2  2  0  0  0  0
  2  3  1  0  0  0  0
  2 11  1  0  0  0  0
  3  4  1  0  0  0  0
  3 22  1  0  0  0  0
  4  9  1  0  0  0  0
  4  5  2  0  0  0  0
  5  6  1  0  0  0  0
  5 23  1  0  0  0  0
  6  7  2  0  0  0  0
  6 24  1  0  0  0  0
  7  8  1  0  0  0  0
  8  9  2  0  0  0  0
  8 25  1  0  0  0  0
  9 10  1  0  0  0  0
 11 12  1  0  0  0  0
 11 26  1  0  0  0  0
 12 21  1  0  0  0  0
 12 13  1  0  0  0  0
 12 27  1  0  0  0  0
 13 14  1  0  0  0  0
 13 28  1  0  0  0  0
 13 29  1  0  0  0  0
 14 15  1  0  0  0  0
 14 30  1  0  0  0  0
 14 31  1  0  0  0  0
 15 16  1  0  0  0  0
 15 32  1  0  0  0  0
 15 33  1  0  0  0  0
 16 17  1  0  0  0  0
 16 21  1  0  0  0  0
 16 34  1  0  0  0  0
 17 18  1  0  0  0  0
 17 19  1  0  0  0  0
 17 20  1  0  0  0  0
 21 35  1  0  0  0  0
 21 36  1  0  0  0  0
M  END
> <s_m_source_file>
AV-unprocessed.smi

> <i_m_source_file_index>
2321

> <i_lp_mmshare_version>
43012

> <i_f3d_flags>
0

> <s_epik_input>
RkMoRikoRilbQ0BASF0oW0NIMl0xKVtDSDJdW0NIMl1bQ0gyXVtDQEhdMVtOSF1DKD1PKVtOSF1jMltjSF1bY0hdbltjSF1jMkY=

> <s_epik_cmdline>
J2VwaWtfcHl0aG9uJywgJy1waCcsICc3LjAnLCAnLXRuJywgJzgnLCAnLW1hJywgJzIwMCcsICctbWV0YWxfYmluZGluZycsICctaW1hZScsICc8aW5maWxlLm1hZT4nLCAnLW9tYWUnLCAnPG91dGZpbGUubWFlPic=

> <r_epik_Ionization_Penalty>
0.00319438

> <r_epik_Ionization_Penalty_Charging>
0

> <r_epik_Ionization_Penalty_Neutral>
0.00319438

> <r_epik_State_Penalty>
0.00222511

> <r_epik_Charging_Adjusted_Penalty>
0.00222511

> <i_epik_Tot_Q>
0

> <i_epik_Tot_abs_Q>
0

> <r_epik_Metal_State_Penalty>
-0

> <b_epik_Metal_Only>
0

> <s_lp_Force_Field>
OPLS_2005

> <r_lp_Energy>
26.7556

> <b_lp_Chiralities_Consistent>
1

> <s_lp_Variant>
AV-unprocessed.smi:2321-2

> <Gold.Version>
5.8.1

> <Gold.Id.Protein>
6NUR|6NUR_protein|mol2

> <Gold.PLP.Fitness>
39.1614

> <Gold.PLP.PLP>
-30.7119

> <Gold.PLP.part.hbond>
-2.0000

> <Gold.PLP.part.metal>
0.0000

> <Gold.PLP.part.buried>
-4.8426

> <Gold.PLP.part.nonpolar>
-24.6485

> <Gold.PLP.part.repulsive>
0.2569

> <Gold.PLP.ligand.clash>
0.0000

> <Gold.PLP.ligand.torsion>
0.2735

> <Gold.PLP.Chemscore.Hbond>
1.9920

> <Gold.PLP.Chemscore.CHOScore>
1.0000

> <Gold.PLP.Chemscore.Metal>
0.0000

> <Gold.Chemscore.Hbonds>
donor molecule, donor type, donor heavy atom, donor atom, acceptor molecule, acceptor atom, score
      P1  H  6896  6909       L1     1  1.00
      P1  H  7989  7998       L1     7  1.00
      L1  C     8    25       P1  7957  1.00

> <Gold.PLP.Chemscore.Internal.Correction>
0.0204

> <Gold.Rescore>
     Score         DG    S(hbond)    S(metal)    S(lipo)     H(rot)  DE(clash)    DE(int)     intcor
     17.22     -17.54       1.95        0.00      69.16       1.00       0.02       0.30       ----

> <Gold.Chemscore.Fitness>
17.2152

> <Gold.Chemscore.DG>
-17.5364

> <Gold.Chemscore.ZeroCoef>
-5.4800

> <Gold.Chemscore.Hbond>
1.9534

> <Gold.Chemscore.Metal>
0.0000

> <Gold.Chemscore.Lipo>
69.1618

> <Gold.Chemscore.Internal_Hbond>
0.0000

> <Gold.Chemscore.DEClash>
0.0223

> <Gold.Chemscore.DEInternal>
0.2989

> <Gold.Chemscore.Rot>
1.0000

> <Gold.Chemscore.Internal.Correction>
   9.000000E+99

> <Gold.Chemscore.Hbonds>
donor molecule, donor type, donor heavy atom, donor atom, acceptor molecule, acceptor atom, score
      P1  H  6896  6909       L1     1  0.95
      P1  H  7989  7998       L1     7  0.35

> <Gold.Chemscore.Hbond.Weighted>
-6.5245

> <Gold.Chemscore.Metal.Weighted>
-0.0000

> <Gold.Chemscore.Lipo.Weighted>
-8.0919

> <Gold.Chemscore.Internal_Hbond.Weighted>
0.0000

> <Gold.Chemscore.DEClash.Weighted>
0.0223

> <Gold.Chemscore.DEInternal.Weighted>
0.2989

> <Gold.Chemscore.Rot.Weighted>
2.5600

> <Gold.Chemscore.Internal.Correction.Weighted>
   9.000000E+99

> <Gold.Protein.RotatedTorsions>
[ 6907 6896 6895 6894 ] final   64.30 input  -60.11 | X-H torsion
[ 7974 7965 7964 7962 ] final -101.31 input  175.53 | X-H torsion
[ 8008 7997 7996 7995 ] final  148.79 input   59.86 | X-H torsion
[ 10167 10162 10161 10158 ] final  160.34 input  -65.29 | X-H torsion
[ 10718 10713 10712 10709 ] final -158.93 input   66.30 | X-H torsion
[ 10763 10752 10751 10750 ] final  -44.58 input  -60.55 | X-H torsion
[ 11005 11000 10999 10996 ] final  -61.63 input  -57.11 | X-H torsion

> <Gold.Protein.ActiveResidues>
 VAL166  LYS551  ARG553  GLY616  TRP617  ASP618  TYR619  PRO620  LYS621  CYS622 
 ASP623  PHE694  ASN695  SER759  ASP760  ASP761  ALA762  ILE779  LEU786  VAL792 
 PHE793  MET794  SER795  GLU796  ALA797  LYS798  CYS799  TRP800  GLU811  SER814 

> <Gold.Protein.RotatedAtoms>
  152.4321  134.5758  159.9933 H   0  0  0  0  0  0  0  0  0  0  0  0  # atno 6907 bound_to 6896
  151.5879  133.3364  159.3029 H   0  0  0  0  0  0  0  0  0  0  0  0  # atno 6908 bound_to 6896
  150.8214  134.7460  159.6840 H   0  0  0  0  0  0  0  0  0  0  0  0  # atno 6909 bound_to 6896
  145.2832  140.9332  143.2920 H   0  0  0  0  0  0  0  0  0  0  0  0  # atno 7974 bound_to 7965
  156.2778  140.2119  156.5755 H   0  0  0  0  0  0  0  0  0  0  0  0  # atno 8008 bound_to 7997
  154.7101  140.0513  157.0565 H   0  0  0  0  0  0  0  0  0  0  0  0  # atno 8009 bound_to 7997
  155.0617  140.3167  155.4661 H   0  0  0  0  0  0  0  0  0  0  0  0  # atno 8010 bound_to 7997
  139.4839  144.4643  151.8663 H   0  0  0  0  0  0  0  0  0  0  0  0  # atno 10167 bound_to 10162
  156.5610  130.8647  151.2809 H   0  0  0  0  0  0  0  0  0  0  0  0  # atno 10718 bound_to 10713
  154.0144  135.6677  153.4767 H   0  0  0  0  0  0  0  0  0  0  0  0  # atno 10763 bound_to 10752
  153.0607  135.5030  154.8082 H   0  0  0  0  0  0  0  0  0  0  0  0  # atno 10764 bound_to 10752
  154.6976  135.3072  154.9353 H   0  0  0  0  0  0  0  0  0  0  0  0  # atno 10765 bound_to 10752
  141.1331  133.6632  156.5405 H   0  0  0  0  0  0  0  0  0  0  0  0  # atno 11005 bound_to 11000
  144.9235  139.4383  143.6529 LP  0  0  0  0  0  0  0  0  0  0  0  0  # atno 17320 bound_to 7965
  146.3209  139.8108  142.8946 LP  0  0  0  0  0  0  0  0  0  0  0  0  # atno 17321 bound_to 7965
  140.4107  144.2372  150.5889 LP  0  0  0  0  0  0  0  0  0  0  0  0  # atno 17342 bound_to 10162
  140.4969  143.2330  151.8737 LP  0  0  0  0  0  0  0  0  0  0  0  0  # atno 17343 bound_to 10162
  157.7368  130.9786  150.2159 LP  0  0  0  0  0  0  0  0  0  0  0  0  # atno 17370 bound_to 10713
  156.2799  130.3732  149.7946 LP  0  0  0  0  0  0  0  0  0  0  0  0  # atno 17371 bound_to 10713
  140.4143  134.7244  157.4854 LP  0  0  0  0  0  0  0  0  0  0  0  0  # atno 17394 bound_to 11000
  140.0405  134.6275  155.8987 LP  0  0  0  0  0  0  0  0  0  0  0  0  # atno 17395 bound_to 11000

$$$$
