AV-unprocessed.smi:49|AV-procd|sdf|489|dock6
  -GOLD-   2262016353D 1   1.00000     0.00000
 Structure written by MMmdl.
 26 27  0  0  0  0  0  0  0  0  2 V2000
  152.1172  142.1485  159.1847 C   0  0  0  0  0  0  0  0  0  0  0  0
  151.7946  140.7058  158.7829 C   0  0  0  0  0  0  0  0  0  0  0  0
  151.4569  140.5855  157.3130 C   0  0  0  0  0  0  0  0  0  0  0  0
  150.3114  140.9486  156.7445 N   0  0  0  0  0  0  0  0  0  0  0  0
  150.4624  140.7128  155.4334 C   0  0  0  0  0  0  0  0  0  0  0  0
  149.3764  140.9452  154.3996 C   0  0  2  0  0  0  0  0  0  0  0  0
  148.0770  141.4719  155.0209 C   0  0  0  0  0  0  0  0  0  0  0  0
  147.0222  140.9788  154.0420 C   0  0  2  0  0  0  0  0  0  0  0  0
  145.7312  140.9069  154.6090 O   0  0  0  0  0  0  0  0  0  0  0  0
  147.5649  139.6068  153.6514 C   0  0  0  0  0  0  0  0  0  0  0  0
  149.0193  139.7447  153.6335 N   0  0  0  0  0  0  0  0  0  0  0  0
  151.6779  140.2002  155.1815 N   0  0  0  0  0  0  0  0  0  0  0  0
  152.2834  140.1409  156.3502 N   0  5  0  0  0  0  0  0  0  0  0  0
  149.7443  141.6962  153.6995 H   0  0  0  0  0  0  0  0  0  0  0  0
  146.9965  141.6306  153.1674 H   0  0  0  0  0  0  0  0  0  0  0  0
  152.3638  142.2115  160.2446 H   0  0  0  0  0  0  0  0  0  0  0  0
  151.2676  142.8061  158.9988 H   0  0  0  0  0  0  0  0  0  0  0  0
  152.9676  142.5316  158.6198 H   0  0  0  0  0  0  0  0  0  0  0  0
  152.6441  140.0586  159.0025 H   0  0  0  0  0  0  0  0  0  0  0  0
  150.9547  140.3336  159.3701 H   0  0  0  0  0  0  0  0  0  0  0  0
  147.9152  141.0091  155.9964 H   0  0  0  0  0  0  0  0  0  0  0  0
  148.0771  142.5535  155.1585 H   0  0  0  0  0  0  0  0  0  0  0  0
  145.0985  140.8674  153.9082 H   0  0  0  0  0  0  0  0  0  0  0  0
  147.2849  138.8715  154.4070 H   0  0  0  0  0  0  0  0  0  0  0  0
  147.1768  139.2593  152.6937 H   0  0  0  0  0  0  0  0  0  0  0  0
  149.3203  139.8791  152.6740 H   0  0  0  0  0  0  0  0  0  0  0  0
  1  2  1  0  0  0  0
  1 16  1  0  0  0  0
  1 17  1  0  0  0  0
  1 18  1  0  0  0  0
  2  3  1  0  0  0  0
  2 19  1  0  0  0  0
  2 20  1  0  0  0  0
  3 13  1  0  0  0  0
  3  4  2  0  0  0  0
  4  5  1  0  0  0  0
  5  6  1  0  0  0  0
  5 12  2  0  0  0  0
  6 14  1  0  0  0  0
  6 11  1  0  0  0  0
  6  7  1  0  0  0  0
  7  8  1  0  0  0  0
  7 21  1  0  0  0  0
  7 22  1  0  0  0  0
  8 15  1  0  0  0  0
  8  9  1  0  0  0  0
  8 10  1  0  0  0  0
  9 23  1  0  0  0  0
 10 11  1  0  0  0  0
 10 24  1  0  0  0  0
 10 25  1  0  0  0  0
 11 26  1  0  0  0  0
 12 13  1  0  0  0  0
M  CHG  1  13  -1
M  END
> <s_m_source_file>
AV-unprocessed.smi

> <i_m_source_file_index>
49

> <i_lp_mmshare_version>
43012

> <i_f3d_flags>
0

> <s_epik_input>
W0NIM11bQ0gyXWMxbmMobltuSF0xKVtDQEBIXTJbQ0gyXVtDQEBIXShbT0hdKVtDSDJdW05IXTI=

> <s_epik_cmdline>
J2VwaWtfcHl0aG9uJywgJy1waCcsICc3LjAnLCAnLXRuJywgJzgnLCAnLW1hJywgJzIwMCcsICctbWV0YWxfYmluZGluZycsICctaW1hZScsICc8aW5maWxlLm1hZT4nLCAnLW9tYWUnLCAnPG91dGZpbGUubWFlPic=

> <r_lp_tautomer_probability>
0.948284

> <r_epik_Ionization_Penalty>
20.726

> <r_epik_Ionization_Penalty_Charging>
17.6814

> <r_epik_Ionization_Penalty_Neutral>
3.04463

> <r_epik_State_Penalty>
7.95092

> <r_epik_Charging_Adjusted_Penalty>
25.6323

> <i_epik_Tot_Q>
-1

> <i_epik_Tot_abs_Q>
1

> <r_epik_Metal_State_Penalty>
4.146

> <b_epik_Metal_Only>
1

> <s_lp_Force_Field>
OPLS_2005

> <r_lp_Energy>
18.025

> <b_lp_Chiralities_Consistent>
1

> <s_lp_Variant>
AV-unprocessed.smi:49-27

> <Gold.Version>
5.8.1

> <Gold.Id.Protein>
6NUR|6NUR_protein|mol2

> <Gold.PLP.Fitness>
35.5504

> <Gold.PLP.PLP>
-22.4638

> <Gold.PLP.part.hbond>
-4.0000

> <Gold.PLP.part.metal>
0.0000

> <Gold.PLP.part.buried>
-1.2675

> <Gold.PLP.part.nonpolar>
-16.9445

> <Gold.PLP.part.repulsive>
0.0718

> <Gold.PLP.ligand.clash>
0.0000

> <Gold.PLP.ligand.torsion>
0.2449

> <Gold.PLP.Chemscore.Hbond>
4.5210

> <Gold.PLP.Chemscore.CHOScore>
0.0000

> <Gold.PLP.Chemscore.Metal>
0.0000

> <Gold.Chemscore.Hbonds>
donor molecule, donor type, donor heavy atom, donor atom, acceptor molecule, acceptor atom, score
      L1  H     9    23       P1 10175  0.98
      L1  H    11    26       P1  7957  1.00
      P1  H  7989  7998       L1    12  0.51
      P1  H  7997  8008       L1    13  1.92

> <Gold.PLP.Chemscore.Internal.Correction>
0.0137

> <Gold.Rescore>
     Score         DG    S(hbond)    S(metal)    S(lipo)     H(rot)  DE(clash)    DE(int)     intcor
     15.09     -15.39       2.84        0.00      43.57       1.82       0.12       0.19       ----

> <Gold.Chemscore.Fitness>
15.0859

> <Gold.Chemscore.DG>
-15.3938

> <Gold.Chemscore.ZeroCoef>
-5.4800

> <Gold.Chemscore.Hbond>
2.8387

> <Gold.Chemscore.Metal>
0.0000

> <Gold.Chemscore.Lipo>
43.5742

> <Gold.Chemscore.Internal_Hbond>
0.0000

> <Gold.Chemscore.DEClash>
0.1217

> <Gold.Chemscore.DEInternal>
0.1862

> <Gold.Chemscore.Rot>
1.8226

> <Gold.Chemscore.Internal.Correction>
   9.000000E+99

> <Gold.Chemscore.Hbonds>
donor molecule, donor type, donor heavy atom, donor atom, acceptor molecule, acceptor atom, score
      L1  H     9    23       P1 10175  0.85
      L1  H    11    26       P1  7957  0.95
      P1  H  7989  7998       L1    12  0.03
      P1  H  7997  8008       L1    13  0.85

> <Gold.Chemscore.Hbond.Weighted>
-9.4814

> <Gold.Chemscore.Metal.Weighted>
-0.0000

> <Gold.Chemscore.Lipo.Weighted>
-5.0982

> <Gold.Chemscore.Internal_Hbond.Weighted>
0.0000

> <Gold.Chemscore.DEClash.Weighted>
0.1217

> <Gold.Chemscore.DEInternal.Weighted>
0.1862

> <Gold.Chemscore.Rot.Weighted>
4.6658

> <Gold.Chemscore.Internal.Correction.Weighted>
   9.000000E+99

> <Gold.Protein.RotatedTorsions>
[ 6907 6896 6895 6894 ] final  175.41 input  -60.11 | X-H torsion
[ 7974 7965 7964 7962 ] final  -23.98 input  175.53 | X-H torsion
[ 8008 7997 7996 7995 ] final  -42.43 input   59.86 | X-H torsion
[ 10167 10162 10161 10158 ] final  155.48 input  -65.29 | X-H torsion
[ 10718 10713 10712 10709 ] final   98.14 input   66.30 | X-H torsion
[ 10763 10752 10751 10750 ] final -131.95 input  -60.55 | X-H torsion
[ 11005 11000 10999 10996 ] final -107.23 input  -57.11 | X-H torsion

> <Gold.Protein.ActiveResidues>
 VAL166  LYS551  ARG553  GLY616  TRP617  ASP618  TYR619  PRO620  LYS621  CYS622 
 ASP623  PHE694  ASN695  SER759  ASP760  ASP761  ALA762  ILE779  LEU786  VAL792 
 PHE793  MET794  SER795  GLU796  ALA797  LYS798  CYS799  TRP800  GLU811  SER814 

> <Gold.Protein.RotatedAtoms>
  151.7366  133.3320  159.3354 H   0  0  0  0  0  0  0  0  0  0  0  0  # atno 6907 bound_to 6896
  150.7590  134.6316  159.6198 H   0  0  0  0  0  0  0  0  0  0  0  0  # atno 6908 bound_to 6896
  152.3558  134.6945  160.0274 H   0  0  0  0  0  0  0  0  0  0  0  0  # atno 6909 bound_to 6896
  146.1583  140.4690  142.8582 H   0  0  0  0  0  0  0  0  0  0  0  0  # atno 7974 bound_to 7965
  154.3999  140.1474  156.3353 H   0  0  0  0  0  0  0  0  0  0  0  0  # atno 8008 bound_to 7997
  155.8406  140.3462  155.5608 H   0  0  0  0  0  0  0  0  0  0  0  0  # atno 8009 bound_to 7997
  155.8091  140.0881  157.1904 H   0  0  0  0  0  0  0  0  0  0  0  0  # atno 8010 bound_to 7997
  139.4821  144.5095  151.8047 H   0  0  0  0  0  0  0  0  0  0  0  0  # atno 10167 bound_to 10162
  157.6901  131.0631  150.4751 H   0  0  0  0  0  0  0  0  0  0  0  0  # atno 10718 bound_to 10713
  154.8747  135.3813  154.4330 H   0  0  0  0  0  0  0  0  0  0  0  0  # atno 10763 bound_to 10752
  153.5023  135.7030  153.5830 H   0  0  0  0  0  0  0  0  0  0  0  0  # atno 10764 bound_to 10752
  153.4157  135.3914  155.2045 H   0  0  0  0  0  0  0  0  0  0  0  0  # atno 10765 bound_to 10752
  141.0964  133.8963  157.1951 H   0  0  0  0  0  0  0  0  0  0  0  0  # atno 11005 bound_to 11000
  144.7992  140.6181  143.6489 LP  0  0  0  0  0  0  0  0  0  0  0  0  # atno 17320 bound_to 7965
  145.4653  139.1508  143.3844 LP  0  0  0  0  0  0  0  0  0  0  0  0  # atno 17321 bound_to 7965
  140.4596  144.1740  150.5905 LP  0  0  0  0  0  0  0  0  0  0  0  0  # atno 17342 bound_to 10162
  140.4498  143.2491  151.9362 LP  0  0  0  0  0  0  0  0  0  0  0  0  # atno 17343 bound_to 10162
  156.5086  130.4134  149.6313 LP  0  0  0  0  0  0  0  0  0  0  0  0  # atno 17370 bound_to 10713
  156.3261  130.7307  151.2228 LP  0  0  0  0  0  0  0  0  0  0  0  0  # atno 17371 bound_to 10713
  139.9802  135.0100  156.9732 LP  0  0  0  0  0  0  0  0  0  0  0  0  # atno 17394 bound_to 11000
  140.5129  134.0984  155.7274 LP  0  0  0  0  0  0  0  0  0  0  0  0  # atno 17395 bound_to 11000

$$$$
