AV-unprocessed.smi:608|AV-procd|sdf|3044|dock7
  -GOLD-   2262023563D 1   1.00000     0.00000
 Structure written by MMmdl.
 40 41  0  0  0  0  0  0  0  0  1 V2000
  151.3842  144.9496  159.3626 C   0  0  0  0  0  0  0  0  0  0  0  0
  152.0702  143.8054  158.6080 C   0  0  0  0  0  0  0  0  0  0  0  0
  153.0391  143.0431  159.4509 C   0  0  0  0  0  0  0  0  0  0  0  0
  153.2701  143.1849  160.7971 C   0  0  0  0  0  0  0  0  0  0  0  0
  154.2511  142.3247  161.2960 N   0  0  0  0  0  0  0  0  0  0  0  0
  154.7751  141.5446  160.3476 C   0  0  0  0  0  0  0  0  0  0  0  0
  155.8292  140.5216  160.6104 C   0  0  0  0  0  0  0  0  0  0  0  0
  155.2531  139.1118  160.7952 C   0  0  0  0  0  0  0  0  0  0  0  0
  156.1005  138.3308  161.6854 N   0  0  0  0  0  0  0  0  0  0  0  0
  156.4932  137.0669  161.4569 C   0  0  0  0  0  0  0  0  0  0  0  0
  156.1589  136.4534  160.4423 O   0  0  0  0  0  0  0  0  0  0  0  0
  157.2833  136.5325  162.4246 N   0  0  0  0  0  0  0  0  0  0  0  0
  157.4346  137.0488  163.7921 C   0  0  0  0  0  0  0  0  0  0  0  0
  156.3887  136.3788  164.7013 C   0  0  0  0  0  0  0  0  0  0  0  0
  156.8393  135.0706  165.1653 N   0  0  0  0  0  0  0  0  0  0  0  0
  157.1955  134.0194  164.4042 C   0  0  0  0  0  0  0  0  0  0  0  0
  157.5921  132.9760  164.9182 O   0  0  0  0  0  0  0  0  0  0  0  0
  157.0857  134.1046  162.8708 C   0  0  0  0  0  0  0  0  0  0  0  0
  157.9382  135.2305  162.2466 C   0  0  0  0  0  0  0  0  0  0  0  0
  154.0551  141.8018  158.7630 S   0  0  0  0  0  0  0  0  0  0  0  0
  150.6781  145.4729  158.7178 H   0  0  0  0  0  0  0  0  0  0  0  0
  152.1117  145.6795  159.7189 H   0  0  0  0  0  0  0  0  0  0  0  0
  150.8334  144.5762  160.2264 H   0  0  0  0  0  0  0  0  0  0  0  0
  151.3108  143.1256  158.2203 H   0  0  0  0  0  0  0  0  0  0  0  0
  152.5877  144.2071  157.7363 H   0  0  0  0  0  0  0  0  0  0  0  0
  152.7847  143.8723  161.4742 H   0  0  0  0  0  0  0  0  0  0  0  0
  156.5344  140.5328  159.7785 H   0  0  0  0  0  0  0  0  0  0  0  0
  156.3898  140.8173  161.4985 H   0  0  0  0  0  0  0  0  0  0  0  0
  154.2450  139.1698  161.2094 H   0  0  0  0  0  0  0  0  0  0  0  0
  155.1792  138.6062  159.8310 H   0  0  0  0  0  0  0  0  0  0  0  0
  156.4109  138.7792  162.5348 H   0  0  0  0  0  0  0  0  0  0  0  0
  158.4435  136.8727  164.1693 H   0  0  0  0  0  0  0  0  0  0  0  0
  157.3183  138.1322  163.8303 H   0  0  0  0  0  0  0  0  0  0  0  0
  156.2387  136.9956  165.5877 H   0  0  0  0  0  0  0  0  0  0  0  0
  155.4153  136.2979  164.2145 H   0  0  0  0  0  0  0  0  0  0  0  0
  156.9133  134.9554  166.1659 H   0  0  0  0  0  0  0  0  0  0  0  0
  157.4154  133.1501  162.4587 H   0  0  0  0  0  0  0  0  0  0  0  0
  156.0378  134.2065  162.5857 H   0  0  0  0  0  0  0  0  0  0  0  0
  158.1082  135.0143  161.1909 H   0  0  0  0  0  0  0  0  0  0  0  0
  158.9356  135.2437  162.6890 H   0  0  0  0  0  0  0  0  0  0  0  0
  1  2  1  0  0  0  0
  1 21  1  0  0  0  0
  1 22  1  0  0  0  0
  1 23  1  0  0  0  0
  2  3  1  0  0  0  0
  2 24  1  0  0  0  0
  2 25  1  0  0  0  0
  3 20  1  0  0  0  0
  3  4  2  0  0  0  0
  4  5  1  0  0  0  0
  4 26  1  0  0  0  0
  5  6  2  0  0  0  0
  6  7  1  0  0  0  0
  6 20  1  0  0  0  0
  7  8  1  0  0  0  0
  7 27  1  0  0  0  0
  7 28  1  0  0  0  0
  8  9  1  0  0  0  0
  8 29  1  0  0  0  0
  8 30  1  0  0  0  0
  9 10  1  0  0  0  0
  9 31  1  0  0  0  0
 10 11  2  0  0  0  0
 10 12  1  0  0  0  0
 12 19  1  0  0  0  0
 12 13  1  0  0  0  0
 13 14  1  0  0  0  0
 13 32  1  0  0  0  0
 13 33  1  0  0  0  0
 14 15  1  0  0  0  0
 14 34  1  0  0  0  0
 14 35  1  0  0  0  0
 15 16  1  0  0  0  0
 15 36  1  0  0  0  0
 16 17  2  0  0  0  0
 16 18  1  0  0  0  0
 18 19  1  0  0  0  0
 18 37  1  0  0  0  0
 18 38  1  0  0  0  0
 19 39  1  0  0  0  0
 19 40  1  0  0  0  0
M  END
> <s_m_source_file>
AV-unprocessed.smi

> <i_m_source_file_index>
608

> <i_lp_mmshare_version>
43012

> <i_f3d_flags>
0

> <s_epik_input>
W0NIM11bQ0gyXWMxW2NIXW5jKHMxKVtDSDJdW0NIMl1bTkhdQyg9TylOMltDSDJdW0NIMl1bTkhdQyg9TylbQ0gyXVtDSDJdMg==

> <s_epik_cmdline>
J2VwaWtfcHl0aG9uJywgJy1waCcsICc3LjAnLCAnLXRuJywgJzgnLCAnLW1hJywgJzIwMCcsICctbWV0YWxfYmluZGluZycsICctaW1hZScsICc8aW5maWxlLm1hZT4nLCAnLW9tYWUnLCAnPG91dGZpbGUubWFlPic=

> <r_epik_Ionization_Penalty>
0.000937608

> <r_epik_Ionization_Penalty_Charging>
0

> <r_epik_Ionization_Penalty_Neutral>
0.000937608

> <r_epik_State_Penalty>
0.000579253

> <r_epik_Charging_Adjusted_Penalty>
0.000579253

> <i_epik_Tot_Q>
0

> <i_epik_Tot_abs_Q>
0

> <r_epik_Metal_State_Penalty>
-0

> <b_epik_Metal_Only>
0

> <s_lp_Force_Field>
OPLS_2005

> <r_lp_Energy>
19.2261

> <b_lp_Chiralities_Consistent>
1

> <s_lp_Variant>
AV-unprocessed.smi:608-1

> <Gold.Version>
5.8.1

> <Gold.Id.Protein>
6NUR|6NUR_protein|mol2

> <Gold.PLP.Fitness>
42.1045

> <Gold.PLP.PLP>
-40.4420

> <Gold.PLP.part.hbond>
-1.8554

> <Gold.PLP.part.metal>
0.0000

> <Gold.PLP.part.buried>
-4.1982

> <Gold.PLP.part.nonpolar>
-35.2256

> <Gold.PLP.part.repulsive>
0.0706

> <Gold.PLP.ligand.clash>
0.0000

> <Gold.PLP.ligand.torsion>
0.6979

> <Gold.PLP.Chemscore.Hbond>
1.0000

> <Gold.PLP.Chemscore.CHOScore>
0.0000

> <Gold.PLP.Chemscore.Metal>
0.0000

> <Gold.PLP.Chemscore.Internal.Correction>
0.0584

> <Gold.Rescore>
     Score         DG    S(hbond)    S(metal)    S(lipo)     H(rot)  DE(clash)    DE(int)     intcor
     16.20     -16.62       1.00        0.00     101.96       1.61       0.01       0.41       ----

> <Gold.Chemscore.Fitness>
16.1980

> <Gold.Chemscore.DG>
-16.6186

> <Gold.Chemscore.ZeroCoef>
-5.4800

> <Gold.Chemscore.Hbond>
0.9987

> <Gold.Chemscore.Metal>
0.0000

> <Gold.Chemscore.Lipo>
101.9638

> <Gold.Chemscore.Internal_Hbond>
0.0000

> <Gold.Chemscore.DEClash>
0.0136

> <Gold.Chemscore.DEInternal>
0.4070

> <Gold.Chemscore.Rot>
1.6120

> <Gold.Chemscore.Internal.Correction>
   9.000000E+99

> <Gold.Chemscore.Hbond.Weighted>
-3.3356

> <Gold.Chemscore.Metal.Weighted>
-0.0000

> <Gold.Chemscore.Lipo.Weighted>
-11.9298

> <Gold.Chemscore.Internal_Hbond.Weighted>
0.0000

> <Gold.Chemscore.DEClash.Weighted>
0.0136

> <Gold.Chemscore.DEInternal.Weighted>
0.4070

> <Gold.Chemscore.Rot.Weighted>
4.1267

> <Gold.Chemscore.Internal.Correction.Weighted>
   9.000000E+99

> <Gold.Protein.RotatedTorsions>
[ 6907 6896 6895 6894 ] final   55.21 input  -60.11 | X-H torsion
[ 7974 7965 7964 7962 ] final  139.74 input  175.53 | X-H torsion
[ 8008 7997 7996 7995 ] final   23.46 input   59.86 | X-H torsion
[ 10167 10162 10161 10158 ] final  116.04 input  -65.29 | X-H torsion
[ 10718 10713 10712 10709 ] final  -79.27 input   66.30 | X-H torsion
[ 10763 10752 10751 10750 ] final  -22.52 input  -60.55 | X-H torsion
[ 11005 11000 10999 10996 ] final  109.84 input  -57.11 | X-H torsion

> <Gold.Protein.ActiveResidues>
 VAL166  LYS551  ARG553  GLY616  TRP617  ASP618  TYR619  PRO620  LYS621  CYS622 
 ASP623  PHE694  ASN695  SER759  ASP760  ASP761  ALA762  ILE779  LEU786  VAL792 
 PHE793  MET794  SER795  GLU796  ALA797  LYS798  CYS799  TRP800  GLU811  SER814 

> <Gold.Protein.RotatedAtoms>
  152.3516  134.6998  160.0234 H   0  0  0  0  0  0  0  0  0  0  0  0  # atno 6907 bound_to 6896
  151.7350  133.3314  159.3358 H   0  0  0  0  0  0  0  0  0  0  0  0  # atno 6908 bound_to 6896
  150.7544  134.6263  159.6207 H   0  0  0  0  0  0  0  0  0  0  0  0  # atno 6909 bound_to 6896
  144.9250  139.5119  143.5645 H   0  0  0  0  0  0  0  0  0  0  0  0  # atno 7974 bound_to 7965
  154.9812  140.3102  155.4945 H   0  0  0  0  0  0  0  0  0  0  0  0  # atno 8008 bound_to 7997
  156.2953  140.2266  156.4851 H   0  0  0  0  0  0  0  0  0  0  0  0  # atno 8009 bound_to 7997
  154.7788  140.0447  157.1098 H   0  0  0  0  0  0  0  0  0  0  0  0  # atno 8010 bound_to 7997
  139.6274  144.7110  151.2503 H   0  0  0  0  0  0  0  0  0  0  0  0  # atno 10167 bound_to 10162
  156.0097  130.4541  150.3623 H   0  0  0  0  0  0  0  0  0  0  0  0  # atno 10718 bound_to 10713
  153.6533  135.6980  153.5201 H   0  0  0  0  0  0  0  0  0  0  0  0  # atno 10763 bound_to 10752
  153.2689  135.4221  155.0968 H   0  0  0  0  0  0  0  0  0  0  0  0  # atno 10764 bound_to 10752
  154.8471  135.3573  154.6078 H   0  0  0  0  0  0  0  0  0  0  0  0  # atno 10765 bound_to 10752
  139.8870  134.9469  156.6187 H   0  0  0  0  0  0  0  0  0  0  0  0  # atno 11005 bound_to 11000
  146.3222  139.8158  142.8936 LP  0  0  0  0  0  0  0  0  0  0  0  0  # atno 17320 bound_to 7965
  145.3234  141.0249  143.3487 LP  0  0  0  0  0  0  0  0  0  0  0  0  # atno 17321 bound_to 7965
  140.7419  143.6542  150.8222 LP  0  0  0  0  0  0  0  0  0  0  0  0  # atno 17342 bound_to 10162
  140.0162  143.5591  152.2819 LP  0  0  0  0  0  0  0  0  0  0  0  0  # atno 17343 bound_to 10162
  157.1711  131.0369  151.2795 LP  0  0  0  0  0  0  0  0  0  0  0  0  # atno 17370 bound_to 10713
  157.4228  130.7447  149.6927 LP  0  0  0  0  0  0  0  0  0  0  0  0  # atno 17371 bound_to 10713
  140.7756  133.8702  155.8526 LP  0  0  0  0  0  0  0  0  0  0  0  0  # atno 17394 bound_to 11000
  140.9805  134.1412  157.4499 LP  0  0  0  0  0  0  0  0  0  0  0  0  # atno 17395 bound_to 11000

$$$$
