AV-unprocessed.smi:876|AV-procd|sdf|4019|dock7
  -GOLD-   22720 1503D 1   1.00000     0.00000
 Structure written by MMmdl.
 41 42  0  0  0  0  0  0  0  0  2 V2000
  153.5160  142.7361  162.8957 C   0  0  0  0  0  0  0  0  0  0  0  0
  153.6280  141.9125  161.6990 N   0  0  0  0  0  0  0  0  0  0  0  0
  154.5820  140.8099  161.6504 C   0  0  0  0  0  0  0  0  0  0  0  0
  152.8306  142.2010  160.5703 C   0  0  0  0  0  0  0  0  0  0  0  0
  152.3085  143.4892  160.2980 C   0  0  0  0  0  0  0  0  0  0  0  0
  151.5194  143.7018  159.1486 C   0  0  0  0  0  0  0  0  0  0  0  0
  151.2619  142.6229  158.2678 C   0  0  0  0  0  0  0  0  0  0  0  0
  150.4682  142.7228  157.0931 N   0  0  0  0  0  0  0  0  0  0  0  0
  150.1680  141.7635  156.2003 C   0  0  0  0  0  0  0  0  0  0  0  0
  150.5258  140.5880  156.2714 O   0  0  0  0  0  0  0  0  0  0  0  0
  149.3995  142.2428  155.2123 N   0  0  0  0  0  0  0  0  0  0  0  0
  148.8921  141.4536  154.0952 C   0  0  2  0  0  0  0  0  0  0  0  0
  147.6065  142.0371  153.5767 C   0  0  0  0  0  0  0  0  0  0  0  0
  146.6130  141.1515  153.5533 C   0  0  0  0  0  0  0  0  0  0  0  0
  147.0280  139.7934  154.0590 C   0  0  2  0  0  0  0  0  0  0  0  0
  146.1213  139.2691  155.1860 C   0  0  0  0  0  0  0  0  0  0  0  0
  144.8141  139.0356  154.7048 O   0  0  0  0  0  0  0  0  0  0  0  0
  148.4958  140.0110  154.5071 C   0  0  0  0  0  0  0  0  0  0  0  0
  151.7926  141.3583  158.5922 C   0  0  0  0  0  0  0  0  0  0  0  0
  152.5432  141.1994  159.7033 N   0  3  0  0  0  0  0  0  0  0  0  0
  149.6161  141.4417  153.2787 H   0  0  0  0  0  0  0  0  0  0  0  0
  147.0046  139.1011  153.2162 H   0  0  0  0  0  0  0  0  0  0  0  0
  152.5043  142.6900  163.2998 H   0  0  0  0  0  0  0  0  0  0  0  0
  153.7547  143.7757  162.6697 H   0  0  0  0  0  0  0  0  0  0  0  0
  154.2005  142.3996  163.6742 H   0  0  0  0  0  0  0  0  0  0  0  0
  155.3144  140.9714  160.8585 H   0  0  0  0  0  0  0  0  0  0  0  0
  154.0684  139.8664  161.4620 H   0  0  0  0  0  0  0  0  0  0  0  0
  155.1238  140.7121  162.5912 H   0  0  0  0  0  0  0  0  0  0  0  0
  152.4955  144.3237  160.9570 H   0  0  0  0  0  0  0  0  0  0  0  0
  151.1178  144.6881  158.9759 H   0  0  0  0  0  0  0  0  0  0  0  0
  150.0324  143.6203  156.9397 H   0  0  0  0  0  0  0  0  0  0  0  0
  149.1451  143.2196  155.2316 H   0  0  0  0  0  0  0  0  0  0  0  0
  147.5304  143.0633  153.2481 H   0  0  0  0  0  0  0  0  0  0  0  0
  145.6111  141.3535  153.2040 H   0  0  0  0  0  0  0  0  0  0  0  0
  146.5150  138.3328  155.5826 H   0  0  0  0  0  0  0  0  0  0  0  0
  146.0787  139.9788  156.0133 H   0  0  0  0  0  0  0  0  0  0  0  0
  144.6327  139.6550  154.0143 H   0  0  0  0  0  0  0  0  0  0  0  0
  149.1584  139.2782  154.0453 H   0  0  0  0  0  0  0  0  0  0  0  0
  148.5883  139.8760  155.5861 H   0  0  0  0  0  0  0  0  0  0  0  0
  151.6460  140.4695  157.9957 H   0  0  0  0  0  0  0  0  0  0  0  0
  152.9151  140.2704  159.9012 H   0  0  0  0  0  0  0  0  0  0  0  0
  1  2  1  0  0  0  0
  1 23  1  0  0  0  0
  1 24  1  0  0  0  0
  1 25  1  0  0  0  0
  2  3  1  0  0  0  0
  2  4  1  0  0  0  0
  3 26  1  0  0  0  0
  3 27  1  0  0  0  0
  3 28  1  0  0  0  0
  4 20  1  0  0  0  0
  4  5  2  0  0  0  0
  5  6  1  0  0  0  0
  5 29  1  0  0  0  0
  6  7  2  0  0  0  0
  6 30  1  0  0  0  0
  7  8  1  0  0  0  0
  7 19  1  0  0  0  0
  8  9  1  0  0  0  0
  8 31  1  0  0  0  0
  9 10  2  0  0  0  0
  9 11  1  0  0  0  0
 11 12  1  0  0  0  0
 11 32  1  0  0  0  0
 12 21  1  0  0  0  0
 12 18  1  0  0  0  0
 12 13  1  0  0  0  0
 13 14  2  0  0  0  0
 13 33  1  0  0  0  0
 14 15  1  0  0  0  0
 14 34  1  0  0  0  0
 15 22  1  0  0  0  0
 15 16  1  0  0  0  0
 15 18  1  0  0  0  0
 16 17  1  0  0  0  0
 16 35  1  0  0  0  0
 16 36  1  0  0  0  0
 17 37  1  0  0  0  0
 18 38  1  0  0  0  0
 18 39  1  0  0  0  0
 19 20  2  0  0  0  0
 19 40  1  0  0  0  0
 20 41  1  0  0  0  0
M  CHG  1  20   1
M  END
> <s_m_source_file>
AV-unprocessed.smi

> <i_m_source_file_index>
876

> <i_lp_mmshare_version>
43012

> <i_f3d_flags>
0

> <s_epik_input>
W0NIM11OKFtDSDNdKWMxW2NIXVtjSF1jKFtjSF1uMSlbTkhdQyg9TylbTkhdW0NAQEhdMltDSF09W0NIXVtDQEBIXShbQ0gyXTIpW0NIMl1bT0hd

> <s_epik_cmdline>
J2VwaWtfcHl0aG9uJywgJy1waCcsICc3LjAnLCAnLXRuJywgJzgnLCAnLW1hJywgJzIwMCcsICctbWV0YWxfYmluZGluZycsICctaW1hZScsICc8aW5maWxlLm1hZT4nLCAnLW9tYWUnLCAnPG91dGZpbGUubWFlPic=

> <r_lp_tautomer_probability>
0.999994

> <r_epik_Ionization_Penalty>
0.257994

> <r_epik_Ionization_Penalty_Charging>
0.257974

> <r_epik_Ionization_Penalty_Neutral>
1.95938e-05

> <r_epik_State_Penalty>
0.249586

> <r_epik_Charging_Adjusted_Penalty>
0.50756

> <i_epik_Tot_Q>
1

> <i_epik_Tot_abs_Q>
1

> <r_epik_Metal_State_Penalty>
0.538508

> <b_epik_Metal_Only>
0

> <s_lp_Force_Field>
OPLS_2005

> <r_lp_Energy>
26.1458

> <b_lp_Chiralities_Consistent>
1

> <s_lp_Variant>
AV-unprocessed.smi:876-1

> <Gold.Version>
5.8.1

> <Gold.Id.Protein>
6NUR|6NUR_protein|mol2

> <Gold.PLP.Fitness>
47.9060

> <Gold.PLP.PLP>
-40.4082

> <Gold.PLP.part.hbond>
-3.0000

> <Gold.PLP.part.metal>
0.0000

> <Gold.PLP.part.buried>
-2.4174

> <Gold.PLP.part.nonpolar>
-34.3810

> <Gold.PLP.part.repulsive>
0.3733

> <Gold.PLP.ligand.clash>
0.0000

> <Gold.PLP.ligand.torsion>
0.6427

> <Gold.PLP.Chemscore.Hbond>
2.9199

> <Gold.PLP.Chemscore.CHOScore>
0.0000

> <Gold.PLP.Chemscore.Metal>
0.0000

> <Gold.Chemscore.Hbonds>
donor molecule, donor type, donor heavy atom, donor atom, acceptor molecule, acceptor atom, score
      L1  H     8    31       P1  8028  0.91
      L1  H    11    32       P1  8028  1.00
      L1  H    17    37       P1 10175  1.00

> <Gold.PLP.Chemscore.Internal.Correction>
0.0237

> <Gold.Rescore>
     Score         DG    S(hbond)    S(metal)    S(lipo)     H(rot)  DE(clash)    DE(int)     intcor
     16.58     -21.47       2.87        0.00      94.54       1.82       1.44       3.45       ----

> <Gold.Chemscore.Fitness>
16.5763

> <Gold.Chemscore.DG>
-21.4686

> <Gold.Chemscore.ZeroCoef>
-5.4800

> <Gold.Chemscore.Hbond>
2.8700

> <Gold.Chemscore.Metal>
0.0000

> <Gold.Chemscore.Lipo>
94.5425

> <Gold.Chemscore.Internal_Hbond>
0.0000

> <Gold.Chemscore.DEClash>
1.4408

> <Gold.Chemscore.DEInternal>
3.4515

> <Gold.Chemscore.Rot>
1.8197

> <Gold.Chemscore.Internal.Correction>
   9.000000E+99

> <Gold.Chemscore.Hbonds>
donor molecule, donor type, donor heavy atom, donor atom, acceptor molecule, acceptor atom, score
      L1  H     8    31       P1  8028  0.83
      L1  H    11    32       P1  8028  0.97
      L1  H    17    37       P1 10175  0.97

> <Gold.Chemscore.Hbond.Weighted>
-9.5857

> <Gold.Chemscore.Metal.Weighted>
-0.0000

> <Gold.Chemscore.Lipo.Weighted>
-11.0615

> <Gold.Chemscore.Internal_Hbond.Weighted>
0.0000

> <Gold.Chemscore.DEClash.Weighted>
1.4408

> <Gold.Chemscore.DEInternal.Weighted>
3.4515

> <Gold.Chemscore.Rot.Weighted>
4.6585

> <Gold.Chemscore.Internal.Correction.Weighted>
   9.000000E+99

> <Gold.Protein.RotatedTorsions>
[ 6907 6896 6895 6894 ] final  157.80 input  -60.11 | X-H torsion
[ 7974 7965 7964 7962 ] final  165.08 input  175.53 | X-H torsion
[ 8008 7997 7996 7995 ] final -131.22 input   59.86 | X-H torsion
[ 10167 10162 10161 10158 ] final   57.52 input  -65.29 | X-H torsion
[ 10718 10713 10712 10709 ] final  109.67 input   66.30 | X-H torsion
[ 10763 10752 10751 10750 ] final  -49.12 input  -60.55 | X-H torsion
[ 11005 11000 10999 10996 ] final   27.88 input  -57.11 | X-H torsion

> <Gold.Protein.ActiveResidues>
 VAL166  LYS551  ARG553  GLY616  TRP617  ASP618  TYR619  PRO620  LYS621  CYS622 
 ASP623  PHE694  ASN695  SER759  ASP760  ASP761  ALA762  ILE779  LEU786  VAL792 
 PHE793  MET794  SER795  GLU796  ALA797  LYS798  CYS799  TRP800  GLU811  SER814 

> <Gold.Protein.RotatedAtoms>
  152.0097  133.3857  159.4214 H   0  0  0  0  0  0  0  0  0  0  0  0  # atno 6907 bound_to 6896
  150.6901  134.3743  159.5015 H   0  0  0  0  0  0  0  0  0  0  0  0  # atno 6908 bound_to 6896
  152.1502  134.8993  160.0599 H   0  0  0  0  0  0  0  0  0  0  0  0  # atno 6909 bound_to 6896
  144.7518  139.8418  143.6364 H   0  0  0  0  0  0  0  0  0  0  0  0  # atno 7974 bound_to 7965
  155.3087  140.0456  157.3033 H   0  0  0  0  0  0  0  0  0  0  0  0  # atno 8008 bound_to 7997
  154.5445  140.2298  155.8552 H   0  0  0  0  0  0  0  0  0  0  0  0  # atno 8009 bound_to 7997
  156.1912  140.3050  155.9342 H   0  0  0  0  0  0  0  0  0  0  0  0  # atno 8010 bound_to 7997
  140.1971  144.4026  150.6545 H   0  0  0  0  0  0  0  0  0  0  0  0  # atno 10167 bound_to 10162
  157.6530  131.0918  150.6488 H   0  0  0  0  0  0  0  0  0  0  0  0  # atno 10718 bound_to 10713
  154.0888  135.6580  153.4849 H   0  0  0  0  0  0  0  0  0  0  0  0  # atno 10763 bound_to 10752
  153.0329  135.5197  154.7401 H   0  0  0  0  0  0  0  0  0  0  0  0  # atno 10764 bound_to 10752
  154.6518  135.3002  154.9946 H   0  0  0  0  0  0  0  0  0  0  0  0  # atno 10765 bound_to 10752
  140.3215  134.2538  155.7716 H   0  0  0  0  0  0  0  0  0  0  0  0  # atno 11005 bound_to 11000
  146.1477  139.4551  143.0068 LP  0  0  0  0  0  0  0  0  0  0  0  0  # atno 17320 bound_to 7965
  145.6919  141.0162  143.1551 LP  0  0  0  0  0  0  0  0  0  0  0  0  # atno 17321 bound_to 7965
  140.6416  143.2205  151.6277 LP  0  0  0  0  0  0  0  0  0  0  0  0  # atno 17342 bound_to 10162
  139.5232  144.3140  152.0969 LP  0  0  0  0  0  0  0  0  0  0  0  0  # atno 17343 bound_to 10162
  156.6797  130.4563  149.5631 LP  0  0  0  0  0  0  0  0  0  0  0  0  # atno 17370 bound_to 10713
  156.1938  130.6576  151.1091 LP  0  0  0  0  0  0  0  0  0  0  0  0  # atno 17371 bound_to 10713
  141.2085  133.7775  157.0053 LP  0  0  0  0  0  0  0  0  0  0  0  0  # atno 17394 bound_to 11000
  140.0938  134.9577  157.1817 LP  0  0  0  0  0  0  0  0  0  0  0  0  # atno 17395 bound_to 11000

$$$$
