AV-unprocessed.smi:221|AV-procd|sdf|1689|dock7
  -GOLD-   2262020133D 1   1.00000     0.00000
 Structure written by MMmdl.
 50 53  0  0  0  0  0  0  0  0  1 V2000
  148.1423  132.5623  151.9679 N   0  0  0  0  0  0  0  0  0  0  0  0
  147.0408  133.2408  152.3068 C   0  0  0  0  0  0  0  0  0  0  0  0
  146.9365  133.7898  153.4014 O   0  0  0  0  0  0  0  0  0  0  0  0
  145.8788  133.3271  151.2972 C   0  0  1  0  0  0  0  0  0  0  0  0
  145.6944  131.9925  150.5563 C   0  0  0  0  0  0  0  0  0  0  0  0
  144.2304  132.0091  150.1308 C   0  0  2  0  0  0  0  0  0  0  0  0
  144.0990  132.7283  149.0150 F   0  0  0  0  0  0  0  0  0  0  0  0
  143.5382  132.7323  151.2855 C   0  0  0  0  0  0  0  0  0  0  0  0
  144.5582  133.5831  151.8898 N   0  0  0  0  0  0  0  0  0  0  0  0
  144.1929  134.8099  152.3524 C   0  0  0  0  0  0  0  0  0  0  0  0
  145.0956  135.8264  152.3417 N   0  0  0  0  0  0  0  0  0  0  0  0
  144.7596  137.0384  152.7916 C   0  0  0  0  0  0  0  0  0  0  0  0
  143.5941  137.4468  153.2943 N   0  0  0  0  0  0  0  0  0  0  0  0
  142.6851  136.4310  153.3231 C   0  0  0  0  0  0  0  0  0  0  0  0
  142.8978  135.0957  152.8753 C   0  0  0  0  0  0  0  0  0  0  0  0
  141.7434  134.3458  153.0737 N   0  0  0  0  0  0  0  0  0  0  0  0
  140.8966  135.1899  153.5959 C   0  0  0  0  0  0  0  0  0  0  0  0
  141.3823  136.4624  153.7889 N   0  0  0  0  0  0  0  0  0  0  0  0
  140.6576  137.5899  154.3482 C   0  0  0  0  0  0  0  0  0  0  0  0
  139.1375  137.5393  154.0303 C   0  0  2  0  0  0  0  0  0  0  0  0
  138.8204  138.3243  152.7393 C   0  0  0  0  0  0  0  0  0  0  0  0
  139.0391  139.7085  152.9165 O   0  0  0  0  0  0  0  0  0  0  0  0
  138.2420  137.9810  155.2203 C   0  0  2  0  0  0  0  0  0  0  0  0
  138.4890  137.2354  156.5348 C   0  0  0  0  0  0  0  0  0  0  0  0
  137.0852  136.9237  157.0444 C   0  0  0  0  0  0  0  0  0  0  0  0
  136.3388  136.7605  155.8510 O   0  0  0  0  0  0  0  0  0  0  0  0
  136.7354  137.8032  154.9735 C   0  0  0  0  0  0  0  0  0  0  0  0
  146.1028  134.1037  150.5638 H   0  0  0  0  0  0  0  0  0  0  0  0
  143.8219  131.0174  149.9344 H   0  0  0  0  0  0  0  0  0  0  0  0
  148.9084  132.4909  152.6216 H   0  0  0  0  0  0  0  0  0  0  0  0
  148.2004  132.1181  151.0631 H   0  0  0  0  0  0  0  0  0  0  0  0
  146.3753  131.8822  149.7114 H   0  0  0  0  0  0  0  0  0  0  0  0
  145.8618  131.1487  151.2285 H   0  0  0  0  0  0  0  0  0  0  0  0
  142.6668  133.2877  150.9341 H   0  0  0  0  0  0  0  0  0  0  0  0
  143.2014  132.0159  152.0356 H   0  0  0  0  0  0  0  0  0  0  0  0
  145.5356  137.7878  152.7420 H   0  0  0  0  0  0  0  0  0  0  0  0
  139.8897  134.9048  153.8647 H   0  0  0  0  0  0  0  0  0  0  0  0
  140.8458  137.6174  155.4210 H   0  0  0  0  0  0  0  0  0  0  0  0
  141.1101  138.5000  153.9527 H   0  0  0  0  0  0  0  0  0  0  0  0
  138.8743  136.5005  153.8221 H   0  0  0  0  0  0  0  0  0  0  0  0
  139.4203  137.9670  151.9019 H   0  0  0  0  0  0  0  0  0  0  0  0
  137.7741  138.1890  152.4628 H   0  0  0  0  0  0  0  0  0  0  0  0
  139.7272  139.9826  152.3293 H   0  0  0  0  0  0  0  0  0  0  0  0
  138.4072  139.0453  155.3945 H   0  0  0  0  0  0  0  0  0  0  0  0
  139.0319  136.3045  156.3725 H   0  0  0  0  0  0  0  0  0  0  0  0
  139.0641  137.8254  157.2489 H   0  0  0  0  0  0  0  0  0  0  0  0
  137.0516  136.0293  157.6669 H   0  0  0  0  0  0  0  0  0  0  0  0
  136.6821  137.7599  157.6182 H   0  0  0  0  0  0  0  0  0  0  0  0
  136.1963  138.7128  155.2422 H   0  0  0  0  0  0  0  0  0  0  0  0
  136.4874  137.5706  153.9383 H   0  0  0  0  0  0  0  0  0  0  0  0
  1  2  1  0  0  0  0
  1 30  1  0  0  0  0
  1 31  1  0  0  0  0
  2  3  2  0  0  0  0
  2  4  1  0  0  0  0
  4 28  1  0  0  0  0
  4  9  1  0  0  0  0
  4  5  1  0  0  0  0
  5  6  1  0  0  0  0
  5 32  1  0  0  0  0
  5 33  1  0  0  0  0
  6 29  1  0  0  0  0
  6  7  1  0  0  0  0
  6  8  1  0  0  0  0
  8  9  1  0  0  0  0
  8 34  1  0  0  0  0
  8 35  1  0  0  0  0
  9 10  1  0  0  0  0
 10 15  1  0  0  0  0
 10 11  2  0  0  0  0
 11 12  1  0  0  0  0
 12 13  2  0  0  0  0
 12 36  1  0  0  0  0
 13 14  1  0  0  0  0
 14 18  1  0  0  0  0
 14 15  2  0  0  0  0
 15 16  1  0  0  0  0
 16 17  2  0  0  0  0
 17 18  1  0  0  0  0
 17 37  1  0  0  0  0
 18 19  1  0  0  0  0
 19 20  1  0  0  0  0
 19 38  1  0  0  0  0
 19 39  1  0  0  0  0
 20 21  1  0  0  0  0
 20 23  1  0  0  0  0
 20 40  1  0  0  0  0
 21 22  1  0  0  0  0
 21 41  1  0  0  0  0
 21 42  1  0  0  0  0
 22 43  1  0  0  0  0
 23 27  1  0  0  0  0
 23 24  1  0  0  0  0
 23 44  1  0  0  0  0
 24 25  1  0  0  0  0
 24 45  1  0  0  0  0
 24 46  1  0  0  0  0
 25 26  1  0  0  0  0
 25 47  1  0  0  0  0
 25 48  1  0  0  0  0
 26 27  1  0  0  0  0
 27 49  1  0  0  0  0
 27 50  1  0  0  0  0
M  END
> <s_m_source_file>
AV-unprocessed.smi

> <i_m_source_file_index>
221

> <i_lp_mmshare_version>
43012

> <i_f3d_flags>
0

> <s_epik_input>
W05IMl1DKD1PKVtDQEBIXTFbQ0gyXVtDQEBIXShGKVtDSDJdTjFjKG5bY0hdbjIpYyhjMjMpbltjSF1uM1tDSDJdW0NASF0oW0NIMl1bT0hdKVtDQEBIXTRbQ0gyXVtDSDJdT1tDSDJdNA==

> <s_epik_cmdline>
J2VwaWtfcHl0aG9uJywgJy1waCcsICc3LjAnLCAnLXRuJywgJzgnLCAnLW1hJywgJzIwMCcsICctbWV0YWxfYmluZGluZycsICctaW1hZScsICc8aW5maWxlLm1hZT4nLCAnLW9tYWUnLCAnPG91dGZpbGUubWFlPic=

> <r_lp_tautomer_probability>
1

> <r_epik_Ionization_Penalty>
0.000818822

> <r_epik_Ionization_Penalty_Charging>
0

> <r_epik_Ionization_Penalty_Neutral>
0.000818822

> <r_epik_State_Penalty>
0.000440551

> <r_epik_Charging_Adjusted_Penalty>
0.000440551

> <i_epik_Tot_Q>
0

> <i_epik_Tot_abs_Q>
0

> <r_epik_Metal_State_Penalty>
-0

> <b_epik_Metal_Only>
0

> <s_lp_Force_Field>
OPLS_2005

> <r_lp_Energy>
52.2348

> <b_lp_Chiralities_Consistent>
1

> <s_lp_Variant>
AV-unprocessed.smi:221-4

> <Gold.Version>
5.8.1

> <Gold.Id.Protein>
6NUR|6NUR_protein|mol2

> <Gold.PLP.Fitness>
50.1192

> <Gold.PLP.PLP>
-47.4818

> <Gold.PLP.part.hbond>
-1.7081

> <Gold.PLP.part.metal>
0.0000

> <Gold.PLP.part.buried>
-9.4239

> <Gold.PLP.part.nonpolar>
-37.0985

> <Gold.PLP.part.repulsive>
1.1822

> <Gold.PLP.ligand.clash>
0.0000

> <Gold.PLP.ligand.torsion>
1.7229

> <Gold.PLP.Chemscore.Hbond>
1.8640

> <Gold.PLP.Chemscore.CHOScore>
0.0000

> <Gold.PLP.Chemscore.Metal>
0.0000

> <Gold.Chemscore.Hbonds>
donor molecule, donor type, donor heavy atom, donor atom, acceptor molecule, acceptor atom, score
      L1  H     1    31       P1 10747  0.82
      L1  H    22    43       P1 10160  1.00
      L1  C    17    37       P1 11000  0.02

> <Gold.PLP.Chemscore.Internal.Correction>
0.4912

> <Gold.Rescore>
     Score         DG    S(hbond)    S(metal)    S(lipo)     H(rot)  DE(clash)    DE(int)     intcor
     10.44     -12.08       2.00        0.00      71.81       3.31       0.10       1.54       ----

> <Gold.Chemscore.Fitness>
10.4426

> <Gold.Chemscore.DG>
-12.0819

> <Gold.Chemscore.ZeroCoef>
-5.4800

> <Gold.Chemscore.Hbond>
1.9972

> <Gold.Chemscore.Metal>
0.0000

> <Gold.Chemscore.Lipo>
71.8132

> <Gold.Chemscore.Internal_Hbond>
0.0000

> <Gold.Chemscore.DEClash>
0.1036

> <Gold.Chemscore.DEInternal>
1.5358

> <Gold.Chemscore.Rot>
3.3089

> <Gold.Chemscore.Internal.Correction>
   9.000000E+99

> <Gold.Chemscore.Hbonds>
donor molecule, donor type, donor heavy atom, donor atom, acceptor molecule, acceptor atom, score
      L1  H     1    31       P1 10747  0.81
      L1  H    22    43       P1 10160  0.99

> <Gold.Chemscore.Hbond.Weighted>
-6.6707

> <Gold.Chemscore.Metal.Weighted>
-0.0000

> <Gold.Chemscore.Lipo.Weighted>
-8.4021

> <Gold.Chemscore.Internal_Hbond.Weighted>
0.0000

> <Gold.Chemscore.DEClash.Weighted>
0.1036

> <Gold.Chemscore.DEInternal.Weighted>
1.5358

> <Gold.Chemscore.Rot.Weighted>
8.4709

> <Gold.Chemscore.Internal.Correction.Weighted>
   9.000000E+99

> <Gold.Protein.RotatedTorsions>
[ 6907 6896 6895 6894 ] final -168.64 input  -60.11 | X-H torsion
[ 7974 7965 7964 7962 ] final  -99.05 input  175.53 | X-H torsion
[ 8008 7997 7996 7995 ] final   66.08 input   59.86 | X-H torsion
[ 10167 10162 10161 10158 ] final   20.58 input  -65.29 | X-H torsion
[ 10718 10713 10712 10709 ] final  -56.22 input   66.30 | X-H torsion
[ 10763 10752 10751 10750 ] final  -80.63 input  -60.55 | X-H torsion
[ 11005 11000 10999 10996 ] final -119.86 input  -57.11 | X-H torsion

> <Gold.Protein.ActiveResidues>
 VAL166  LYS551  ARG553  GLY616  TRP617  ASP618  TYR619  PRO620  LYS621  CYS622 
 ASP623  PHE694  ASN695  SER759  ASP760  ASP761  ALA762  ILE779  LEU786  VAL792 
 PHE793  MET794  SER795  GLU796  ALA797  LYS798  CYS799  TRP800  GLU811  SER814 

> <Gold.Protein.RotatedAtoms>
  151.4788  133.3551  159.2834 H   0  0  0  0  0  0  0  0  0  0  0  0  # atno 6907 bound_to 6896
  150.8911  134.8317  159.7305 H   0  0  0  0  0  0  0  0  0  0  0  0  # atno 6908 bound_to 6896
  152.4823  134.4698  159.9683 H   0  0  0  0  0  0  0  0  0  0  0  0  # atno 6909 bound_to 6896
  145.3126  140.9404  143.2761 H   0  0  0  0  0  0  0  0  0  0  0  0  # atno 7974 bound_to 7965
  155.6719  140.3497  155.4821 H   0  0  0  0  0  0  0  0  0  0  0  0  # atno 8008 bound_to 7997
  155.9681  140.1150  157.0859 H   0  0  0  0  0  0  0  0  0  0  0  0  # atno 8009 bound_to 7997
  154.4159  140.1162  156.5256 H   0  0  0  0  0  0  0  0  0  0  0  0  # atno 8010 bound_to 7997
  140.5493  143.9538  150.6567 H   0  0  0  0  0  0  0  0  0  0  0  0  # atno 10167 bound_to 10162
  156.1306  130.4160  150.0276 H   0  0  0  0  0  0  0  0  0  0  0  0  # atno 10718 bound_to 10713
  154.5536  135.5654  153.6944 H   0  0  0  0  0  0  0  0  0  0  0  0  # atno 10763 bound_to 10752
  152.9997  135.6256  154.2341 H   0  0  0  0  0  0  0  0  0  0  0  0  # atno 10764 bound_to 10752
  154.2277  135.2867  155.2881 H   0  0  0  0  0  0  0  0  0  0  0  0  # atno 10765 bound_to 10752
  141.0185  134.0159  157.3315 H   0  0  0  0  0  0  0  0  0  0  0  0  # atno 11005 bound_to 11000
  144.9004  139.4657  143.6635 LP  0  0  0  0  0  0  0  0  0  0  0  0  # atno 17320 bound_to 7965
  146.3112  139.7754  142.9018 LP  0  0  0  0  0  0  0  0  0  0  0  0  # atno 17321 bound_to 7965
  140.2960  143.3292  152.1017 LP  0  0  0  0  0  0  0  0  0  0  0  0  # atno 17342 bound_to 10162
  139.5020  144.6726  151.6205 LP  0  0  0  0  0  0  0  0  0  0  0  0  # atno 17343 bound_to 10162
  156.8189  130.9351  151.3642 LP  0  0  0  0  0  0  0  0  0  0  0  0  # atno 17370 bound_to 10713
  157.6484  130.8863  149.9584 LP  0  0  0  0  0  0  0  0  0  0  0  0  # atno 17371 bound_to 10713
  139.9132  135.0193  156.7775 LP  0  0  0  0  0  0  0  0  0  0  0  0  # atno 17394 bound_to 11000
  140.6613  133.9643  155.7806 LP  0  0  0  0  0  0  0  0  0  0  0  0  # atno 17395 bound_to 11000

$$$$
