AV-unprocessed.smi:1088|AV-procd|sdf|4733|dock3
  -GOLD-   22720 3273D 1   1.00000     0.00000
 Structure written by MMmdl.
 47 48  0  0  0  0  0  0  0  0  1 V2000
  151.8942  144.6694  158.4256 C   0  0  0  0  0  0  0  0  0  0  0  0
  151.2574  143.4326  158.6922 O   0  0  0  0  0  0  0  0  0  0  0  0
  150.9924  142.6915  157.5121 C   0  0  0  0  0  0  0  0  0  0  0  0
  149.8823  141.6599  157.7677 C   0  0  0  0  0  0  0  0  0  0  0  0
  149.7377  140.6288  156.7371 N   0  0  0  0  0  0  0  0  0  0  0  0
  149.5044  141.1793  155.4123 C   0  0  0  0  0  0  0  0  0  0  0  0
  149.8143  140.0605  154.4166 C   0  0  0  0  0  0  0  0  0  0  0  0
  150.6859  139.0859  155.2169 C   0  0  0  0  0  0  0  0  0  0  0  0
  150.9239  139.7961  156.5571 C   0  0  2  0  0  0  0  0  0  0  0  0
  151.2128  138.7890  157.6904 C   0  0  0  0  0  0  0  0  0  0  0  0
  150.2471  137.6959  157.6884 N   0  0  0  0  0  0  0  0  0  0  0  0
  150.2499  136.6516  158.5295 C   0  0  0  0  0  0  0  0  0  0  0  0
  151.0533  136.5248  159.4542 O   0  0  0  0  0  0  0  0  0  0  0  0
  149.1663  135.5928  158.2889 C   0  0  0  0  0  0  0  0  0  0  0  0
  148.5573  135.1134  159.5359 N   0  0  0  0  0  0  0  0  0  0  0  0
  148.4793  133.7550  159.7827 C   0  0  0  0  0  0  0  0  0  0  0  0
  147.9173  133.2312  160.8938 C   0  0  0  0  0  0  0  0  0  0  0  0
  147.3489  134.0929  161.9232 C   0  0  0  0  0  0  0  0  0  0  0  0
  146.8066  133.6569  162.9394 O   0  0  0  0  0  0  0  0  0  0  0  0
  147.4579  135.4785  161.6546 N   0  0  0  0  0  0  0  0  0  0  0  0
  146.9015  136.4108  162.6133 C   0  0  0  0  0  0  0  0  0  0  0  0
  148.0323  136.0200  160.4825 C   0  0  0  0  0  0  0  0  0  0  0  0
  148.0737  137.2360  160.2776 O   0  0  0  0  0  0  0  0  0  0  0  0
  152.0681  145.2007  159.3614 H   0  0  0  0  0  0  0  0  0  0  0  0
  151.2763  145.3032  157.7885 H   0  0  0  0  0  0  0  0  0  0  0  0
  152.8592  144.5183  157.9405 H   0  0  0  0  0  0  0  0  0  0  0  0
  150.6685  143.3785  156.7287 H   0  0  0  0  0  0  0  0  0  0  0  0
  151.8952  142.1947  157.1531 H   0  0  0  0  0  0  0  0  0  0  0  0
  150.0149  141.2043  158.7500 H   0  0  0  0  0  0  0  0  0  0  0  0
  148.9549  142.2255  157.8206 H   0  0  0  0  0  0  0  0  0  0  0  0
  148.4833  141.5458  155.3037 H   0  0  0  0  0  0  0  0  0  0  0  0
  150.1801  142.0173  155.2320 H   0  0  0  0  0  0  0  0  0  0  0  0
  148.9000  139.5686  154.0828 H   0  0  0  0  0  0  0  0  0  0  0  0
  150.3301  140.4466  153.5371 H   0  0  0  0  0  0  0  0  0  0  0  0
  150.1440  138.1505  155.3663 H   0  0  0  0  0  0  0  0  0  0  0  0
  151.6213  138.8507  154.7082 H   0  0  0  0  0  0  0  0  0  0  0  0
  151.7940  140.4422  156.4238 H   0  0  0  0  0  0  0  0  0  0  0  0
  152.2441  138.4367  157.6288 H   0  0  0  0  0  0  0  0  0  0  0  0
  151.1151  139.2851  158.6567 H   0  0  0  0  0  0  0  0  0  0  0  0
  149.5438  137.7155  156.9643 H   0  0  0  0  0  0  0  0  0  0  0  0
  148.4040  136.0287  157.6419 H   0  0  0  0  0  0  0  0  0  0  0  0
  149.5806  134.7507  157.7313 H   0  0  0  0  0  0  0  0  0  0  0  0
  148.8816  133.0737  159.0473 H   0  0  0  0  0  0  0  0  0  0  0  0
  147.8836  132.1590  161.0209 H   0  0  0  0  0  0  0  0  0  0  0  0
  147.5509  137.2859  162.6730 H   0  0  0  0  0  0  0  0  0  0  0  0
  146.8590  135.9546  163.6028 H   0  0  0  0  0  0  0  0  0  0  0  0
  145.9054  136.6756  162.2555 H   0  0  0  0  0  0  0  0  0  0  0  0
  1  2  1  0  0  0  0
  1 24  1  0  0  0  0
  1 25  1  0  0  0  0
  1 26  1  0  0  0  0
  2  3  1  0  0  0  0
  3  4  1  0  0  0  0
  3 27  1  0  0  0  0
  3 28  1  0  0  0  0
  4  5  1  0  0  0  0
  4 29  1  0  0  0  0
  4 30  1  0  0  0  0
  5  9  1  0  0  0  0
  5  6  1  0  0  0  0
  6  7  1  0  0  0  0
  6 31  1  0  0  0  0
  6 32  1  0  0  0  0
  7  8  1  0  0  0  0
  7 33  1  0  0  0  0
  7 34  1  0  0  0  0
  8  9  1  0  0  0  0
  8 35  1  0  0  0  0
  8 36  1  0  0  0  0
  9 10  1  0  0  0  0
  9 37  1  0  0  0  0
 10 11  1  0  0  0  0
 10 38  1  0  0  0  0
 10 39  1  0  0  0  0
 11 12  1  0  0  0  0
 11 40  1  0  0  0  0
 12 13  2  0  0  0  0
 12 14  1  0  0  0  0
 14 15  1  0  0  0  0
 14 41  1  0  0  0  0
 14 42  1  0  0  0  0
 15 22  1  0  0  0  0
 15 16  1  0  0  0  0
 16 17  2  0  0  0  0
 16 43  1  0  0  0  0
 17 18  1  0  0  0  0
 17 44  1  0  0  0  0
 18 19  2  0  0  0  0
 18 20  1  0  0  0  0
 20 21  1  0  0  0  0
 20 22  1  0  0  0  0
 21 45  1  0  0  0  0
 21 46  1  0  0  0  0
 21 47  1  0  0  0  0
 22 23  2  0  0  0  0
M  END
> <s_m_source_file>
AV-unprocessed.smi

> <i_m_source_file_index>
1088

> <i_lp_mmshare_version>
43012

> <i_f3d_flags>
0

> <s_epik_input>
W0NIM11PW0NIMl1bQ0gyXU4xW0NIMl1bQ0gyXVtDSDJdW0NASF0xW0NIMl1bTkhdQyg9TylbQ0gyXW4yW2NIXVtjSF1jKD1PKW4oW0NIM10pYzI9Tw==

> <s_epik_cmdline>
J2VwaWtfcHl0aG9uJywgJy1waCcsICc3LjAnLCAnLXRuJywgJzgnLCAnLW1hJywgJzIwMCcsICctbWV0YWxfYmluZGluZycsICctaW1hZScsICc8aW5maWxlLm1hZT4nLCAnLW9tYWUnLCAnPG91dGZpbGUubWFlPic=

> <r_lp_tautomer_probability>
1

> <r_epik_Ionization_Penalty>
2.28131

> <r_epik_Ionization_Penalty_Charging>
1.22971e-08

> <r_epik_Ionization_Penalty_Neutral>
2.28131

> <r_epik_State_Penalty>
2.43063

> <r_epik_Charging_Adjusted_Penalty>
2.43063

> <i_epik_Tot_Q>
0

> <i_epik_Tot_abs_Q>
0

> <r_epik_Metal_State_Penalty>
2.43056

> <b_epik_Metal_Only>
0

> <s_lp_Force_Field>
OPLS_2005

> <r_lp_Energy>
54.0247

> <b_lp_Chiralities_Consistent>
1

> <s_lp_Variant>
AV-unprocessed.smi:1088-6

> <Gold.Version>
5.8.1

> <Gold.Id.Protein>
6NUR|6NUR_protein|mol2

> <Gold.PLP.Fitness>
46.9497

> <Gold.PLP.PLP>
-41.5507

> <Gold.PLP.part.hbond>
-3.8863

> <Gold.PLP.part.metal>
0.0000

> <Gold.PLP.part.buried>
-3.4114

> <Gold.PLP.part.nonpolar>
-35.0417

> <Gold.PLP.part.repulsive>
0.1447

> <Gold.PLP.ligand.clash>
0.0000

> <Gold.PLP.ligand.torsion>
0.5421

> <Gold.PLP.Chemscore.Hbond>
2.1040

> <Gold.PLP.Chemscore.CHOScore>
0.0000

> <Gold.PLP.Chemscore.Metal>
0.0000

> <Gold.Chemscore.Hbonds>
donor molecule, donor type, donor heavy atom, donor atom, acceptor molecule, acceptor atom, score
      P1  H  6896  6908       L1    13  0.86
      P1  H  6931  6943       L1    23  0.50
      P1  H  6934  6947       L1    23  0.59

> <Gold.PLP.Chemscore.Internal.Correction>
0.1711

> <Gold.Rescore>
     Score         DG    S(hbond)    S(metal)    S(lipo)     H(rot)  DE(clash)    DE(int)     intcor
     14.00     -16.09       2.35        0.00      78.16       2.49       0.27       1.82       ----

> <Gold.Chemscore.Fitness>
14.0012

> <Gold.Chemscore.DG>
-16.0947

> <Gold.Chemscore.ZeroCoef>
-5.4800

> <Gold.Chemscore.Hbond>
2.3517

> <Gold.Chemscore.Metal>
0.0000

> <Gold.Chemscore.Lipo>
78.1563

> <Gold.Chemscore.Internal_Hbond>
0.0000

> <Gold.Chemscore.DEClash>
0.2747

> <Gold.Chemscore.DEInternal>
1.8188

> <Gold.Chemscore.Rot>
2.4938

> <Gold.Chemscore.Internal.Correction>
   9.000000E+99

> <Gold.Chemscore.Hbonds>
donor molecule, donor type, donor heavy atom, donor atom, acceptor molecule, acceptor atom, score
      P1  H  6896  6908       L1    13  0.80
      P1  H  6931  6943       L1    23  0.39
      P1  H  6934  6947       L1    23  0.58

> <Gold.Chemscore.Hbond.Weighted>
-7.8545

> <Gold.Chemscore.Metal.Weighted>
-0.0000

> <Gold.Chemscore.Lipo.Weighted>
-9.1443

> <Gold.Chemscore.Internal_Hbond.Weighted>
0.0000

> <Gold.Chemscore.DEClash.Weighted>
0.2747

> <Gold.Chemscore.DEInternal.Weighted>
1.8188

> <Gold.Chemscore.Rot.Weighted>
6.3841

> <Gold.Chemscore.Internal.Correction.Weighted>
   9.000000E+99

> <Gold.Protein.RotatedTorsions>
[ 6907 6896 6895 6894 ] final -132.93 input  -60.11 | X-H torsion
[ 7974 7965 7964 7962 ] final    1.50 input  175.53 | X-H torsion
[ 8008 7997 7996 7995 ] final   80.80 input   59.86 | X-H torsion
[ 10167 10162 10161 10158 ] final -120.15 input  -65.29 | X-H torsion
[ 10718 10713 10712 10709 ] final  158.64 input   66.30 | X-H torsion
[ 10763 10752 10751 10750 ] final  -92.64 input  -60.55 | X-H torsion
[ 11005 11000 10999 10996 ] final  -24.82 input  -57.11 | X-H torsion

> <Gold.Protein.ActiveResidues>
 VAL166  LYS551  ARG553  GLY616  TRP617  ASP618  TYR619  PRO620  LYS621  CYS622 
 ASP623  PHE694  ASN695  SER759  ASP760  ASP761  ALA762  ILE779  LEU786  VAL792 
 PHE793  MET794  SER795  GLU796  ALA797  LYS798  CYS799  TRP800  GLU811  SER814 

> <Gold.Protein.RotatedAtoms>
  150.9681  133.6373  159.2742 H   0  0  0  0  0  0  0  0  0  0  0  0  # atno 6907 bound_to 6896
  151.3672  135.0914  159.9463 H   0  0  0  0  0  0  0  0  0  0  0  0  # atno 6908 bound_to 6896
  152.5173  133.9243  159.7604 H   0  0  0  0  0  0  0  0  0  0  0  0  # atno 6909 bound_to 6896
  146.2440  140.0977  142.8349 H   0  0  0  0  0  0  0  0  0  0  0  0  # atno 7974 bound_to 7965
  155.8884  140.3440  155.5938 H   0  0  0  0  0  0  0  0  0  0  0  0  # atno 8008 bound_to 7997
  155.7639  140.0836  157.2160 H   0  0  0  0  0  0  0  0  0  0  0  0  # atno 8009 bound_to 7997
  154.4031  140.1530  156.2852 H   0  0  0  0  0  0  0  0  0  0  0  0  # atno 8010 bound_to 7997
  140.0390  143.5172  152.2139 H   0  0  0  0  0  0  0  0  0  0  0  0  # atno 10167 bound_to 10162
  157.1751  131.0619  151.2162 H   0  0  0  0  0  0  0  0  0  0  0  0  # atno 10718 bound_to 10713
  154.6881  135.5223  153.8355 H   0  0  0  0  0  0  0  0  0  0  0  0  # atno 10763 bound_to 10752
  153.0612  135.6569  154.0467 H   0  0  0  0  0  0  0  0  0  0  0  0  # atno 10764 bound_to 10752
  154.0345  135.2982  155.3343 H   0  0  0  0  0  0  0  0  0  0  0  0  # atno 10765 bound_to 10752
  140.8881  133.7607  156.0386 H   0  0  0  0  0  0  0  0  0  0  0  0  # atno 11005 bound_to 11000
  145.0596  140.9077  143.4947 LP  0  0  0  0  0  0  0  0  0  0  0  0  # atno 17320 bound_to 7965
  145.1090  139.2770  143.5647 LP  0  0  0  0  0  0  0  0  0  0  0  0  # atno 17321 bound_to 7965
  139.6026  144.7587  151.3135 LP  0  0  0  0  0  0  0  0  0  0  0  0  # atno 17342 bound_to 10162
  140.7269  143.6979  150.7869 LP  0  0  0  0  0  0  0  0  0  0  0  0  # atno 17343 bound_to 10162
  157.4006  130.7331  149.6764 LP  0  0  0  0  0  0  0  0  0  0  0  0  # atno 17370 bound_to 10713
  155.9732  130.4121  150.4018 LP  0  0  0  0  0  0  0  0  0  0  0  0  # atno 17371 bound_to 10713
  140.8380  134.3100  157.5324 LP  0  0  0  0  0  0  0  0  0  0  0  0  # atno 17394 bound_to 11000
  139.8726  134.9400  156.3758 LP  0  0  0  0  0  0  0  0  0  0  0  0  # atno 17395 bound_to 11000

$$$$
