AV-unprocessed.smi:2304|AV-procd|sdf|9245|dock10
  -GOLD-   2272012463D 1   1.00000     0.00000
 Structure written by MMmdl.
 37 38  0  0  0  0  0  0  0  0  1 V2000
  151.9889  139.2952  155.4487 C   0  0  0  0  0  0  0  0  0  0  0  0
  150.9405  140.1302  154.9901 O   0  0  0  0  0  0  0  0  0  0  0  0
  149.6665  139.7024  155.4439 C   0  0  0  0  0  0  0  0  0  0  0  0
  148.6748  140.8760  155.3763 C   0  0  1  0  0  0  0  0  0  0  0  0
  149.2504  142.0401  156.0457 N   0  0  0  0  0  0  0  0  0  0  0  0
  149.8531  142.0385  157.2442 C   0  0  0  0  0  0  0  0  0  0  0  0
  150.0069  141.0274  157.9299 O   0  0  0  0  0  0  0  0  0  0  0  0
  150.2563  143.2756  157.5837 N   0  0  0  0  0  0  0  0  0  0  0  0
  150.8933  143.6937  158.7824 C   0  0  0  0  0  0  0  0  0  0  0  0
  150.9422  145.0923  158.9791 C   0  0  0  0  0  0  0  0  0  0  0  0
  151.5487  145.6080  160.1406 C   0  0  0  0  0  0  0  0  0  0  0  0
  152.0916  144.7116  161.0784 C   0  0  0  0  0  0  0  0  0  0  0  0
  152.0009  143.3322  160.8074 C   0  0  0  0  0  0  0  0  0  0  0  0
  152.5633  142.3091  161.7718 C   0  0  0  0  0  0  0  0  0  0  0  0
  151.4202  142.8375  159.6931 N   0  0  0  0  0  0  0  0  0  0  0  0
  148.2866  141.1753  153.9405 C   0  0  0  0  0  0  0  0  0  0  0  0
  147.0162  141.9242  153.6175 C   0  0  0  0  0  0  0  0  0  0  0  0
  147.1367  140.4556  153.2770 C   0  0  0  0  0  0  0  0  0  0  0  0
  152.9416  139.6575  155.0628 H   0  0  0  0  0  0  0  0  0  0  0  0
  151.8550  138.2684  155.1058 H   0  0  0  0  0  0  0  0  0  0  0  0
  152.0450  139.2964  156.5380 H   0  0  0  0  0  0  0  0  0  0  0  0
  149.3087  138.8618  154.8469 H   0  0  0  0  0  0  0  0  0  0  0  0
  149.7554  139.3538  156.4742 H   0  0  0  0  0  0  0  0  0  0  0  0
  147.7624  140.5663  155.8895 H   0  0  0  0  0  0  0  0  0  0  0  0
  149.1777  142.9198  155.5568 H   0  0  0  0  0  0  0  0  0  0  0  0
  150.0723  144.0066  156.9131 H   0  0  0  0  0  0  0  0  0  0  0  0
  150.5196  145.7676  158.2493 H   0  0  0  0  0  0  0  0  0  0  0  0
  151.5961  146.6739  160.3083 H   0  0  0  0  0  0  0  0  0  0  0  0
  152.5636  145.0758  161.9792 H   0  0  0  0  0  0  0  0  0  0  0  0
  152.8884  142.7779  162.7010 H   0  0  0  0  0  0  0  0  0  0  0  0
  153.4199  141.8029  161.3262 H   0  0  0  0  0  0  0  0  0  0  0  0
  151.8092  141.5602  162.0160 H   0  0  0  0  0  0  0  0  0  0  0  0
  149.1377  141.3902  153.2968 H   0  0  0  0  0  0  0  0  0  0  0  0
  146.3646  142.1973  154.4454 H   0  0  0  0  0  0  0  0  0  0  0  0
  147.0482  142.6355  152.7948 H   0  0  0  0  0  0  0  0  0  0  0  0
  147.2490  140.1896  152.2282 H   0  0  0  0  0  0  0  0  0  0  0  0
  146.5623  139.7531  153.8778 H   0  0  0  0  0  0  0  0  0  0  0  0
  1  2  1  0  0  0  0
  1 19  1  0  0  0  0
  1 20  1  0  0  0  0
  1 21  1  0  0  0  0
  2  3  1  0  0  0  0
  3  4  1  0  0  0  0
  3 22  1  0  0  0  0
  3 23  1  0  0  0  0
  4  5  1  0  0  0  0
  4 16  1  0  0  0  0
  4 24  1  0  0  0  0
  5  6  1  0  0  0  0
  5 25  1  0  0  0  0
  6  7  2  0  0  0  0
  6  8  1  0  0  0  0
  8  9  1  0  0  0  0
  8 26  1  0  0  0  0
  9 15  1  0  0  0  0
  9 10  2  0  0  0  0
 10 11  1  0  0  0  0
 10 27  1  0  0  0  0
 11 12  2  0  0  0  0
 11 28  1  0  0  0  0
 12 13  1  0  0  0  0
 12 29  1  0  0  0  0
 13 14  1  0  0  0  0
 13 15  2  0  0  0  0
 14 30  1  0  0  0  0
 14 31  1  0  0  0  0
 14 32  1  0  0  0  0
 16 18  1  0  0  0  0
 16 17  1  0  0  0  0
 16 33  1  0  0  0  0
 17 18  1  0  0  0  0
 17 34  1  0  0  0  0
 17 35  1  0  0  0  0
 18 36  1  0  0  0  0
 18 37  1  0  0  0  0
M  END
> <s_m_source_file>
AV-unprocessed.smi

> <i_m_source_file_index>
2304

> <i_lp_mmshare_version>
43012

> <i_f3d_flags>
0

> <s_epik_input>
W0NIM11PW0NIMl1bQ0BASF0oW0NIXTFbQ0gyXVtDSDJdMSlbTkhdQyg9TylbTkhdYzJbY0hdW2NIXVtjSF1jKG4yKVtDSDNd

> <s_epik_cmdline>
J2VwaWtfcHl0aG9uJywgJy1waCcsICc3LjAnLCAnLXRuJywgJzgnLCAnLW1hJywgJzIwMCcsICctbWV0YWxfYmluZGluZycsICctaW1hZScsICc8aW5maWxlLm1hZT4nLCAnLW9tYWUnLCAnPG91dGZpbGUubWFlPic=

> <r_lp_tautomer_probability>
1

> <r_epik_Ionization_Penalty>
8.58396e-05

> <r_epik_Ionization_Penalty_Charging>
0

> <r_epik_Ionization_Penalty_Neutral>
8.58396e-05

> <r_epik_State_Penalty>
-0

> <r_epik_Charging_Adjusted_Penalty>
0

> <i_epik_Tot_Q>
0

> <i_epik_Tot_abs_Q>
0

> <r_epik_Metal_State_Penalty>
-0

> <b_epik_Metal_Only>
0

> <s_lp_Force_Field>
OPLS_2005

> <r_lp_Energy>
16.7335

> <b_lp_Chiralities_Consistent>
1

> <s_lp_Variant>
AV-unprocessed.smi:2304-2

> <Gold.Version>
5.8.1

> <Gold.Id.Protein>
6NUR|6NUR_protein|mol2

> <Gold.PLP.Fitness>
50.5709

> <Gold.PLP.PLP>
-42.2343

> <Gold.PLP.part.hbond>
-3.0000

> <Gold.PLP.part.metal>
0.0000

> <Gold.PLP.part.buried>
-7.1729

> <Gold.PLP.part.nonpolar>
-32.9837

> <Gold.PLP.part.repulsive>
0.1923

> <Gold.PLP.ligand.clash>
0.0000

> <Gold.PLP.ligand.torsion>
0.8596

> <Gold.PLP.Chemscore.Hbond>
2.9920

> <Gold.PLP.Chemscore.CHOScore>
0.0000

> <Gold.PLP.Chemscore.Metal>
0.0000

> <Gold.Chemscore.Hbonds>
donor molecule, donor type, donor heavy atom, donor atom, acceptor molecule, acceptor atom, score
      L1  H     5    25       P1  8028  0.96
      L1  H     8    26       P1  8028  0.96
      P1  H  7989  7998       L1     2  1.00

> <Gold.PLP.Chemscore.Internal.Correction>
1.0798

> <Gold.Rescore>
     Score         DG    S(hbond)    S(metal)    S(lipo)     H(rot)  DE(clash)    DE(int)     intcor
     18.06     -21.71       2.69        0.00      97.22       1.61       0.01       3.64       ----

> <Gold.Chemscore.Fitness>
18.0598

> <Gold.Chemscore.DG>
-21.7088

> <Gold.Chemscore.ZeroCoef>
-5.4800

> <Gold.Chemscore.Hbond>
2.6906

> <Gold.Chemscore.Metal>
0.0000

> <Gold.Chemscore.Lipo>
97.2188

> <Gold.Chemscore.Internal_Hbond>
0.0000

> <Gold.Chemscore.DEClash>
0.0119

> <Gold.Chemscore.DEInternal>
3.6371

> <Gold.Chemscore.Rot>
1.6142

> <Gold.Chemscore.Internal.Correction>
   9.000000E+99

> <Gold.Chemscore.Hbonds>
donor molecule, donor type, donor heavy atom, donor atom, acceptor molecule, acceptor atom, score
      L1  H     5    25       P1  8028  0.92
      L1  H     8    26       P1  8028  0.89
      P1  H  7989  7998       L1     2  0.40

> <Gold.Chemscore.Hbond.Weighted>
-8.9865

> <Gold.Chemscore.Metal.Weighted>
-0.0000

> <Gold.Chemscore.Lipo.Weighted>
-11.3746

> <Gold.Chemscore.Internal_Hbond.Weighted>
0.0000

> <Gold.Chemscore.DEClash.Weighted>
0.0119

> <Gold.Chemscore.DEInternal.Weighted>
3.6371

> <Gold.Chemscore.Rot.Weighted>
4.1323

> <Gold.Chemscore.Internal.Correction.Weighted>
   9.000000E+99

> <Gold.Protein.RotatedTorsions>
[ 6907 6896 6895 6894 ] final  167.66 input  -60.11 | X-H torsion
[ 7974 7965 7964 7962 ] final  104.22 input  175.53 | X-H torsion
[ 8008 7997 7996 7995 ] final   65.35 input   59.86 | X-H torsion
[ 10167 10162 10161 10158 ] final  149.53 input  -65.29 | X-H torsion
[ 10718 10713 10712 10709 ] final   61.31 input   66.30 | X-H torsion
[ 10763 10752 10751 10750 ] final  -86.49 input  -60.55 | X-H torsion
[ 11005 11000 10999 10996 ] final   67.76 input  -57.11 | X-H torsion

> <Gold.Protein.ActiveResidues>
 VAL166  LYS551  ARG553  GLY616  TRP617  ASP618  TYR619  PRO620  LYS621  CYS622 
 ASP623  PHE694  ASN695  SER759  ASP760  ASP761  ALA762  ILE779  LEU786  VAL792 
 PHE793  MET794  SER795  GLU796  ALA797  LYS798  CYS799  TRP800  GLU811  SER814 

> <Gold.Protein.RotatedAtoms>
  151.8598  133.3455  159.3699 H   0  0  0  0  0  0  0  0  0  0  0  0  # atno 6907 bound_to 6896
  150.7182  134.5217  159.5666 H   0  0  0  0  0  0  0  0  0  0  0  0  # atno 6908 bound_to 6896
  152.2728  134.7914  160.0462 H   0  0  0  0  0  0  0  0  0  0  0  0  # atno 6909 bound_to 6896
  145.3357  139.2475  143.3636 H   0  0  0  0  0  0  0  0  0  0  0  0  # atno 7974 bound_to 7965
  155.6604  140.3497  155.4781 H   0  0  0  0  0  0  0  0  0  0  0  0  # atno 8008 bound_to 7997
  155.9773  140.1167  157.0781 H   0  0  0  0  0  0  0  0  0  0  0  0  # atno 8009 bound_to 7997
  154.4182  140.1145  156.5374 H   0  0  0  0  0  0  0  0  0  0  0  0  # atno 8010 bound_to 7997
  139.4860  144.5594  151.7258 H   0  0  0  0  0  0  0  0  0  0  0  0  # atno 10167 bound_to 10162
  157.5819  130.8988  149.9445 H   0  0  0  0  0  0  0  0  0  0  0  0  # atno 10718 bound_to 10713
  154.6230  135.5447  153.7596 H   0  0  0  0  0  0  0  0  0  0  0  0  # atno 10763 bound_to 10752
  153.0247  135.6417  154.1412 H   0  0  0  0  0  0  0  0  0  0  0  0  # atno 10764 bound_to 10752
  154.1346  135.2912  155.3156 H   0  0  0  0  0  0  0  0  0  0  0  0  # atno 10765 bound_to 10752
  139.9752  134.6835  156.0369 H   0  0  0  0  0  0  0  0  0  0  0  0  # atno 11005 bound_to 11000
  146.3028  140.3944  142.8698 LP  0  0  0  0  0  0  0  0  0  0  0  0  # atno 17320 bound_to 7965
  144.8829  140.7424  143.5975 LP  0  0  0  0  0  0  0  0  0  0  0  0  # atno 17321 bound_to 7965
  140.5162  144.0950  150.6009 LP  0  0  0  0  0  0  0  0  0  0  0  0  # atno 17342 bound_to 10162
  140.3892  143.2761  152.0080 LP  0  0  0  0  0  0  0  0  0  0  0  0  # atno 17343 bound_to 10162
  156.0865  130.3667  150.0477 LP  0  0  0  0  0  0  0  0  0  0  0  0  # atno 17370 bound_to 10713
  156.8615  130.9493  151.3617 LP  0  0  0  0  0  0  0  0  0  0  0  0  # atno 17371 bound_to 10713
  141.1429  133.6561  156.3782 LP  0  0  0  0  0  0  0  0  0  0  0  0  # atno 17394 bound_to 11000
  140.5211  134.6304  157.5318 LP  0  0  0  0  0  0  0  0  0  0  0  0  # atno 17395 bound_to 11000

$$$$
