AV-unprocessed.smi:3068|AV-procd|sdf|11709|dock8
  -GOLD-   2272017113D 1   1.00000     0.00000
 Structure written by MMmdl.
 39 41  0  0  0  0  0  0  0  0  1 V2000
  153.8566  136.9073  162.9637 N   0  0  0  0  0  0  0  0  0  0  0  0
  154.0081  137.0026  161.8204 C   0  0  0  0  0  0  0  0  0  0  0  0
  154.1995  137.1228  160.3807 C   0  0  0  0  0  0  0  0  0  0  0  0
  153.8270  136.0619  159.6277 N   0  0  0  0  0  0  0  0  0  0  0  0
  153.9996  136.1603  158.2924 C   0  0  0  0  0  0  0  0  0  0  0  0
  154.5428  137.3178  157.7022 C   0  0  0  0  0  0  0  0  0  0  0  0
  154.9156  138.3810  158.4455 N   0  0  0  0  0  0  0  0  0  0  0  0
  154.7513  138.2946  159.7895 C   0  0  0  0  0  0  0  0  0  0  0  0
  155.1338  139.3956  160.5783 N   0  0  0  0  0  0  0  0  0  0  0  0
  154.2104  140.0255  161.5150 C   0  0  0  0  0  0  0  0  0  0  0  0
  153.9490  141.5029  161.1790 C   0  0  1  0  0  0  0  0  0  0  0  0
  153.2153  141.6585  159.8345 C   0  0  0  0  0  0  0  0  0  0  0  0
  152.8993  143.0517  159.5463 N   0  0  0  0  0  0  0  0  0  0  0  0
  152.1971  143.1851  158.2711 C   0  0  0  0  0  0  0  0  0  0  0  0
  151.8832  144.6495  157.9261 C   0  0  0  0  0  0  0  0  0  0  0  0
  151.0674  145.2993  159.0528 C   0  0  0  0  0  0  0  0  0  0  0  0
  151.7825  145.1083  160.3992 C   0  0  0  0  0  0  0  0  0  0  0  0
  152.1114  143.6210  160.6437 C   0  0  2  0  0  0  0  0  0  0  0  0
  152.8341  143.4377  161.9938 C   0  0  0  0  0  0  0  0  0  0  0  0
  153.1288  142.0603  162.2031 O   0  0  0  0  0  0  0  0  0  0  0  0
  153.7020  135.3128  157.6926 H   0  0  0  0  0  0  0  0  0  0  0  0
  154.6781  137.3914  156.6334 H   0  0  0  0  0  0  0  0  0  0  0  0
  155.9805  139.8939  160.3433 H   0  0  0  0  0  0  0  0  0  0  0  0
  153.2731  139.4682  161.5323 H   0  0  0  0  0  0  0  0  0  0  0  0
  154.6286  139.9440  162.5187 H   0  0  0  0  0  0  0  0  0  0  0  0
  154.8938  142.0473  161.1344 H   0  0  0  0  0  0  0  0  0  0  0  0
  153.8346  141.2506  159.0346 H   0  0  0  0  0  0  0  0  0  0  0  0
  152.2984  141.0671  159.8510 H   0  0  0  0  0  0  0  0  0  0  0  0
  152.8025  142.7536  157.4730 H   0  0  0  0  0  0  0  0  0  0  0  0
  151.2688  142.6125  158.2978 H   0  0  0  0  0  0  0  0  0  0  0  0
  152.8142  145.1989  157.7809 H   0  0  0  0  0  0  0  0  0  0  0  0
  151.3368  144.7061  156.9845 H   0  0  0  0  0  0  0  0  0  0  0  0
  150.9168  146.3598  158.8498 H   0  0  0  0  0  0  0  0  0  0  0  0
  150.0772  144.8442  159.0968 H   0  0  0  0  0  0  0  0  0  0  0  0
  152.7021  145.6951  160.4082 H   0  0  0  0  0  0  0  0  0  0  0  0
  151.1590  145.4953  161.2060 H   0  0  0  0  0  0  0  0  0  0  0  0
  151.1659  143.0792  160.7056 H   0  0  0  0  0  0  0  0  0  0  0  0
  153.7569  144.0194  162.0261 H   0  0  0  0  0  0  0  0  0  0  0  0
  152.2063  143.7889  162.8129 H   0  0  0  0  0  0  0  0  0  0  0  0
  1  2  3  0  0  0  0
  2  3  1  0  0  0  0
  3  8  1  0  0  0  0
  3  4  2  0  0  0  0
  4  5  1  0  0  0  0
  5  6  2  0  0  0  0
  5 21  1  0  0  0  0
  6  7  1  0  0  0  0
  6 22  1  0  0  0  0
  7  8  2  0  0  0  0
  8  9  1  0  0  0  0
  9 10  1  0  0  0  0
  9 23  1  0  0  0  0
 10 11  1  0  0  0  0
 10 24  1  0  0  0  0
 10 25  1  0  0  0  0
 11 20  1  0  0  0  0
 11 12  1  0  0  0  0
 11 26  1  0  0  0  0
 12 13  1  0  0  0  0
 12 27  1  0  0  0  0
 12 28  1  0  0  0  0
 13 18  1  0  0  0  0
 13 14  1  0  0  0  0
 14 15  1  0  0  0  0
 14 29  1  0  0  0  0
 14 30  1  0  0  0  0
 15 16  1  0  0  0  0
 15 31  1  0  0  0  0
 15 32  1  0  0  0  0
 16 17  1  0  0  0  0
 16 33  1  0  0  0  0
 16 34  1  0  0  0  0
 17 18  1  0  0  0  0
 17 35  1  0  0  0  0
 17 36  1  0  0  0  0
 18 19  1  0  0  0  0
 18 37  1  0  0  0  0
 19 20  1  0  0  0  0
 19 38  1  0  0  0  0
 19 39  1  0  0  0  0
M  END
> <s_m_source_file>
AV-unprocessed.smi

> <i_m_source_file_index>
3068

> <i_lp_mmshare_version>
43012

> <i_f3d_flags>
0

> <s_epik_input>
TiNDYzFuW2NIXVtjSF1uYzFbTkhdW0NIMl1bQ0BIXShbQ0gyXTIpT1tDSDJdW0NAQEhdKE4yMylbQ0gyXVtDSDJdW0NIMl1bQ0gyXTM=

> <s_epik_cmdline>
J2VwaWtfcHl0aG9uJywgJy1waCcsICc3LjAnLCAnLXRuJywgJzgnLCAnLW1hJywgJzIwMCcsICctbWV0YWxfYmluZGluZycsICctaW1hZScsICc8aW5maWxlLm1hZT4nLCAnLW9tYWUnLCAnPG91dGZpbGUubWFlPic=

> <r_epik_Ionization_Penalty>
1.22359

> <r_epik_Ionization_Penalty_Charging>
0

> <r_epik_Ionization_Penalty_Neutral>
1.22359

> <r_epik_State_Penalty>
1.29103

> <r_epik_Charging_Adjusted_Penalty>
1.29103

> <i_epik_Tot_Q>
0

> <i_epik_Tot_abs_Q>
0

> <r_epik_Metal_State_Penalty>
1.29103

> <b_epik_Metal_Only>
0

> <s_lp_Force_Field>
OPLS_2005

> <r_lp_Energy>
45.8407

> <b_lp_Chiralities_Consistent>
1

> <s_lp_Variant>
AV-unprocessed.smi:3068-12

> <Gold.Version>
5.8.1

> <Gold.Id.Protein>
6NUR|6NUR_protein|mol2

> <Gold.PLP.Fitness>
47.1903

> <Gold.PLP.PLP>
-42.2016

> <Gold.PLP.part.hbond>
-2.0000

> <Gold.PLP.part.metal>
0.0000

> <Gold.PLP.part.buried>
-7.3195

> <Gold.PLP.part.nonpolar>
-32.3481

> <Gold.PLP.part.repulsive>
0.0928

> <Gold.PLP.ligand.clash>
0.0000

> <Gold.PLP.ligand.torsion>
0.5062

> <Gold.PLP.Chemscore.Hbond>
2.0000

> <Gold.PLP.Chemscore.CHOScore>
0.0000

> <Gold.PLP.Chemscore.Metal>
0.0000

> <Gold.Chemscore.Hbonds>
donor molecule, donor type, donor heavy atom, donor atom, acceptor molecule, acceptor atom, score
      P1  H  6896  6908       L1     4  1.00
      P1  H  7997  8010       L1     7  1.00

> <Gold.PLP.Chemscore.Internal.Correction>
0.0011

> <Gold.Rescore>
     Score         DG    S(hbond)    S(metal)    S(lipo)     H(rot)  DE(clash)    DE(int)     intcor
     20.53     -21.26       1.79        0.00     112.32       1.30       0.16       0.57       ----

> <Gold.Chemscore.Fitness>
20.5257

> <Gold.Chemscore.DG>
-21.2603

> <Gold.Chemscore.ZeroCoef>
-5.4800

> <Gold.Chemscore.Hbond>
1.7877

> <Gold.Chemscore.Metal>
0.0000

> <Gold.Chemscore.Lipo>
112.3250

> <Gold.Chemscore.Internal_Hbond>
0.0000

> <Gold.Chemscore.DEClash>
0.1611

> <Gold.Chemscore.DEInternal>
0.5736

> <Gold.Chemscore.Rot>
1.3019

> <Gold.Chemscore.Internal.Correction>
   9.000000E+99

> <Gold.Chemscore.Hbonds>
donor molecule, donor type, donor heavy atom, donor atom, acceptor molecule, acceptor atom, score
      P1  H  6896  6908       L1     4  0.71
      P1  H  7997  8010       L1     7  0.75

> <Gold.Chemscore.Hbond.Weighted>
-5.9710

> <Gold.Chemscore.Metal.Weighted>
-0.0000

> <Gold.Chemscore.Lipo.Weighted>
-13.1420

> <Gold.Chemscore.Internal_Hbond.Weighted>
0.0000

> <Gold.Chemscore.DEClash.Weighted>
0.1611

> <Gold.Chemscore.DEInternal.Weighted>
0.5736

> <Gold.Chemscore.Rot.Weighted>
3.3327

> <Gold.Chemscore.Internal.Correction.Weighted>
   9.000000E+99

> <Gold.Protein.RotatedTorsions>
[ 6907 6896 6895 6894 ] final  -77.72 input  -60.11 | X-H torsion
[ 7974 7965 7964 7962 ] final -125.42 input  175.53 | X-H torsion
[ 8008 7997 7996 7995 ] final   -2.39 input   59.86 | X-H torsion
[ 10167 10162 10161 10158 ] final -157.73 input  -65.29 | X-H torsion
[ 10718 10713 10712 10709 ] final -138.63 input   66.30 | X-H torsion
[ 10763 10752 10751 10750 ] final   15.97 input  -60.55 | X-H torsion
[ 11005 11000 10999 10996 ] final   -8.12 input  -57.11 | X-H torsion

> <Gold.Protein.ActiveResidues>
 VAL166  LYS551  ARG553  GLY616  TRP617  ASP618  TYR619  PRO620  LYS621  CYS622 
 ASP623  PHE694  ASN695  SER759  ASP760  ASP761  ALA762  ILE779  LEU786  VAL792 
 PHE793  MET794  SER795  GLU796  ALA797  LYS798  CYS799  TRP800  GLU811  SER814 

> <Gold.Protein.RotatedAtoms>
  150.6991  134.4380  159.5278 H   0  0  0  0  0  0  0  0  0  0  0  0  # atno 6907 bound_to 6896
  152.2095  134.8512  160.0508 H   0  0  0  0  0  0  0  0  0  0  0  0  # atno 6908 bound_to 6896
  151.9402  133.3601  159.3999 H   0  0  0  0  0  0  0  0  0  0  0  0  # atno 6909 bound_to 6896
  144.9977  140.7792  143.4515 H   0  0  0  0  0  0  0  0  0  0  0  0  # atno 7974 bound_to 7965
  154.6363  140.2535  155.7374 H   0  0  0  0  0  0  0  0  0  0  0  0  # atno 8008 bound_to 7997
  156.2506  140.2896  156.0657 H   0  0  0  0  0  0  0  0  0  0  0  0  # atno 8009 bound_to 7997
  155.1666  140.0385  157.2844 H   0  0  0  0  0  0  0  0  0  0  0  0  # atno 8010 bound_to 7997
  139.6747  143.9683  152.2304 H   0  0  0  0  0  0  0  0  0  0  0  0  # atno 10167 bound_to 10162
  156.3015  130.7431  151.1484 H   0  0  0  0  0  0  0  0  0  0  0  0  # atno 10718 bound_to 10713
  153.1475  135.6772  153.8932 H   0  0  0  0  0  0  0  0  0  0  0  0  # atno 10763 bound_to 10752
  153.8369  135.3110  155.3424 H   0  0  0  0  0  0  0  0  0  0  0  0  # atno 10764 bound_to 10752
  154.7836  135.4874  153.9984 H   0  0  0  0  0  0  0  0  0  0  0  0  # atno 10765 bound_to 10752
  140.7200  133.8836  155.8814 H   0  0  0  0  0  0  0  0  0  0  0  0  # atno 11005 bound_to 11000
  145.2196  139.2165  143.5100 LP  0  0  0  0  0  0  0  0  0  0  0  0  # atno 17320 bound_to 7965
  146.3445  140.2051  142.8589 LP  0  0  0  0  0  0  0  0  0  0  0  0  # atno 17321 bound_to 7965
  139.9457  144.6653  150.8221 LP  0  0  0  0  0  0  0  0  0  0  0  0  # atno 17342 bound_to 10162
  140.7631  143.3215  151.2612 LP  0  0  0  0  0  0  0  0  0  0  0  0  # atno 17343 bound_to 10162
  157.7369  131.0557  150.5386 LP  0  0  0  0  0  0  0  0  0  0  0  0  # atno 17370 bound_to 10713
  156.5514  130.4232  149.6106 LP  0  0  0  0  0  0  0  0  0  0  0  0  # atno 17371 bound_to 10713
  141.0011  134.1148  157.4316 LP  0  0  0  0  0  0  0  0  0  0  0  0  # atno 17394 bound_to 11000
  139.8850  135.0068  156.6408 LP  0  0  0  0  0  0  0  0  0  0  0  0  # atno 17395 bound_to 11000

$$$$
