AV-unprocessed.smi:2049|AV-procd|sdf|8323|dock3
  -GOLD-   2272010583D 1   1.00000     0.00000
 Structure written by MMmdl.
 50 52  0  0  0  0  0  0  0  0  1 V2000
  149.4044  141.0091  158.6252 O   0  0  0  0  0  0  0  0  0  0  0  0
  149.4122  141.9101  157.7863 C   0  0  0  0  0  0  0  0  0  0  0  0
  150.6539  142.7920  157.6087 C   0  0  0  0  0  0  0  0  0  0  0  0
  151.6986  142.4865  158.5986 N   0  0  0  0  0  0  0  0  0  0  0  0
  152.0172  143.4807  159.5387 C   0  0  0  0  0  0  0  0  0  0  0  0
  152.9539  143.2680  160.4740 C   0  0  0  0  0  0  0  0  0  0  0  0
  153.6119  141.9552  160.4527 C   0  0  0  0  0  0  0  0  0  0  0  0
  153.3213  141.0452  159.5995 N   0  0  0  0  0  0  0  0  0  0  0  0
  152.3354  141.2697  158.6200 C   0  0  0  0  0  0  0  0  0  0  0  0
  152.0475  140.3975  157.7993 O   0  0  0  0  0  0  0  0  0  0  0  0
  148.3737  142.1879  156.9850 N   0  0  0  0  0  0  0  0  0  0  0  0
  147.1264  141.4294  156.8977 C   0  0  0  0  0  0  0  0  0  0  0  0
  146.2526  141.8517  155.6672 C   0  0  0  0  0  0  0  0  0  0  0  0
  145.3869  143.0183  156.0394 N   0  0  0  0  0  0  0  0  0  0  0  0
  144.6228  142.8458  157.2837 C   0  0  0  0  0  0  0  0  0  0  0  0
  143.8739  144.1244  157.6934 C   0  0  0  0  0  0  0  0  0  0  0  0
  143.0061  144.5251  156.6421 O   0  0  0  0  0  0  0  0  0  0  0  0
  143.7097  144.7710  155.4320 C   0  0  0  0  0  0  0  0  0  0  0  0
  144.4678  143.5039  154.9991 C   0  0  0  0  0  0  0  0  0  0  0  0
  147.2176  142.2206  154.4888 C   0  0  0  0  0  0  0  0  0  0  0  0
  148.0685  141.0523  153.9555 C   0  0  0  0  0  0  0  0  0  0  0  0
  147.1797  139.8782  153.5278 C   0  0  0  0  0  0  0  0  0  0  0  0
  146.2525  139.4410  154.6690 C   0  0  0  0  0  0  0  0  0  0  0  0
  145.4139  140.6175  155.2069 C   0  0  0  0  0  0  0  0  0  0  0  0
  151.0561  142.6796  156.5998 H   0  0  0  0  0  0  0  0  0  0  0  0
  150.3428  143.8350  157.6807 H   0  0  0  0  0  0  0  0  0  0  0  0
  151.4586  144.4015  159.4538 H   0  0  0  0  0  0  0  0  0  0  0  0
  153.2448  143.9863  161.2261 H   0  0  0  0  0  0  0  0  0  0  0  0
  154.3746  141.8026  161.2204 H   0  0  0  0  0  0  0  0  0  0  0  0
  148.4800  142.9490  156.3302 H   0  0  0  0  0  0  0  0  0  0  0  0
  147.3410  140.3626  156.9054 H   0  0  0  0  0  0  0  0  0  0  0  0
  146.5832  141.5816  157.8294 H   0  0  0  0  0  0  0  0  0  0  0  0
  143.8988  142.0386  157.1715 H   0  0  0  0  0  0  0  0  0  0  0  0
  145.2722  142.5746  158.1130 H   0  0  0  0  0  0  0  0  0  0  0  0
  143.2843  143.9464  158.5926 H   0  0  0  0  0  0  0  0  0  0  0  0
  144.5767  144.9265  157.9242 H   0  0  0  0  0  0  0  0  0  0  0  0
  142.9973  145.0667  154.6616 H   0  0  0  0  0  0  0  0  0  0  0  0
  144.3996  145.6057  155.5668 H   0  0  0  0  0  0  0  0  0  0  0  0
  145.0006  143.7632  154.0881 H   0  0  0  0  0  0  0  0  0  0  0  0
  143.7426  142.7330  154.7402 H   0  0  0  0  0  0  0  0  0  0  0  0
  146.6537  142.5627  153.6242 H   0  0  0  0  0  0  0  0  0  0  0  0
  147.8648  143.0535  154.7644 H   0  0  0  0  0  0  0  0  0  0  0  0
  148.6534  141.3927  153.1007 H   0  0  0  0  0  0  0  0  0  0  0  0
  148.7975  140.7234  154.6943 H   0  0  0  0  0  0  0  0  0  0  0  0
  146.5808  140.1709  152.6644 H   0  0  0  0  0  0  0  0  0  0  0  0
  147.7976  139.0396  153.2053 H   0  0  0  0  0  0  0  0  0  0  0  0
  145.5871  138.6537  154.3137 H   0  0  0  0  0  0  0  0  0  0  0  0
  146.8386  138.9935  155.4713 H   0  0  0  0  0  0  0  0  0  0  0  0
  144.7954  140.2492  156.0254 H   0  0  0  0  0  0  0  0  0  0  0  0
  144.7216  140.9082  154.4177 H   0  0  0  0  0  0  0  0  0  0  0  0
  1  2  2  0  0  0  0
  2  3  1  0  0  0  0
  2 11  1  0  0  0  0
  3  4  1  0  0  0  0
  3 25  1  0  0  0  0
  3 26  1  0  0  0  0
  4  9  1  0  0  0  0
  4  5  1  0  0  0  0
  5  6  2  0  0  0  0
  5 27  1  0  0  0  0
  6  7  1  0  0  0  0
  6 28  1  0  0  0  0
  7  8  2  0  0  0  0
  7 29  1  0  0  0  0
  8  9  1  0  0  0  0
  9 10  2  0  0  0  0
 11 12  1  0  0  0  0
 11 30  1  0  0  0  0
 12 13  1  0  0  0  0
 12 31  1  0  0  0  0
 12 32  1  0  0  0  0
 13 24  1  0  0  0  0
 13 14  1  0  0  0  0
 13 20  1  0  0  0  0
 14 19  1  0  0  0  0
 14 15  1  0  0  0  0
 15 16  1  0  0  0  0
 15 33  1  0  0  0  0
 15 34  1  0  0  0  0
 16 17  1  0  0  0  0
 16 35  1  0  0  0  0
 16 36  1  0  0  0  0
 17 18  1  0  0  0  0
 18 19  1  0  0  0  0
 18 37  1  0  0  0  0
 18 38  1  0  0  0  0
 19 39  1  0  0  0  0
 19 40  1  0  0  0  0
 20 21  1  0  0  0  0
 20 41  1  0  0  0  0
 20 42  1  0  0  0  0
 21 22  1  0  0  0  0
 21 43  1  0  0  0  0
 21 44  1  0  0  0  0
 22 23  1  0  0  0  0
 22 45  1  0  0  0  0
 22 46  1  0  0  0  0
 23 24  1  0  0  0  0
 23 47  1  0  0  0  0
 23 48  1  0  0  0  0
 24 49  1  0  0  0  0
 24 50  1  0  0  0  0
M  END
> <s_m_source_file>
AV-unprocessed.smi

> <i_m_source_file_index>
2049

> <i_lp_mmshare_version>
43012

> <i_f3d_flags>
0

> <s_epik_input>
Tz1jMW5bY0hdW2NIXVtjSF1uMVtDSDJdQyg9TylbTkhdW0NIMl1DMihbQ0gyXVtDSDJdW0NIMl1bQ0gyXVtDSDJdMilOM1tDSDJdW0NIMl1PW0NIMl1bQ0gyXTM=

> <s_epik_cmdline>
J2VwaWtfcHl0aG9uJywgJy1waCcsICc3LjAnLCAnLXRuJywgJzgnLCAnLW1hJywgJzIwMCcsICctbWV0YWxfYmluZGluZycsICctaW1hZScsICc8aW5maWxlLm1hZT4nLCAnLW9tYWUnLCAnPG91dGZpbGUubWFlPic=

> <r_lp_tautomer_probability>
1

> <r_epik_Ionization_Penalty>
0.421133

> <r_epik_Ionization_Penalty_Charging>
1.67008e-08

> <r_epik_Ionization_Penalty_Neutral>
0.421133

> <r_epik_State_Penalty>
0.421833

> <r_epik_Charging_Adjusted_Penalty>
0.421833

> <i_epik_Tot_Q>
0

> <i_epik_Tot_abs_Q>
0

> <r_epik_Metal_State_Penalty>
0.421832

> <b_epik_Metal_Only>
0

> <s_lp_Force_Field>
OPLS_2005

> <r_lp_Energy>
55.5371

> <b_lp_Chiralities_Consistent>
1

> <s_lp_Variant>
AV-unprocessed.smi:2049-2

> <Gold.Version>
5.8.1

> <Gold.Id.Protein>
6NUR|6NUR_protein|mol2

> <Gold.PLP.Fitness>
39.5659

> <Gold.PLP.PLP>
-37.8040

> <Gold.PLP.part.hbond>
-1.8145

> <Gold.PLP.part.metal>
0.0000

> <Gold.PLP.part.buried>
-4.0463

> <Gold.PLP.part.nonpolar>
-32.5197

> <Gold.PLP.part.repulsive>
0.2077

> <Gold.PLP.ligand.clash>
0.0000

> <Gold.PLP.ligand.torsion>
0.6641

> <Gold.PLP.Chemscore.Hbond>
1.0000

> <Gold.PLP.Chemscore.CHOScore>
0.0000

> <Gold.PLP.Chemscore.Metal>
0.0000

> <Gold.Chemscore.Hbonds>
donor molecule, donor type, donor heavy atom, donor atom, acceptor molecule, acceptor atom, score
      L1  H    11    30       P1  8028  1.00

> <Gold.PLP.Chemscore.Internal.Correction>
0.0902

> <Gold.Rescore>
     Score         DG    S(hbond)    S(metal)    S(lipo)     H(rot)  DE(clash)    DE(int)     intcor
     13.25     -14.08       0.94        0.00      89.50       1.95       0.19       0.64       ----

> <Gold.Chemscore.Fitness>
13.2477

> <Gold.Chemscore.DG>
-14.0779

> <Gold.Chemscore.ZeroCoef>
-5.4800

> <Gold.Chemscore.Hbond>
0.9361

> <Gold.Chemscore.Metal>
0.0000

> <Gold.Chemscore.Lipo>
89.4991

> <Gold.Chemscore.Internal_Hbond>
0.0000

> <Gold.Chemscore.DEClash>
0.1944

> <Gold.Chemscore.DEInternal>
0.6357

> <Gold.Chemscore.Rot>
1.9531

> <Gold.Chemscore.Internal.Correction>
   9.000000E+99

> <Gold.Chemscore.Hbonds>
donor molecule, donor type, donor heavy atom, donor atom, acceptor molecule, acceptor atom, score
      L1  H    11    30       P1  8028  0.87

> <Gold.Chemscore.Hbond.Weighted>
-3.1264

> <Gold.Chemscore.Metal.Weighted>
-0.0000

> <Gold.Chemscore.Lipo.Weighted>
-10.4714

> <Gold.Chemscore.Internal_Hbond.Weighted>
0.0000

> <Gold.Chemscore.DEClash.Weighted>
0.1944

> <Gold.Chemscore.DEInternal.Weighted>
0.6357

> <Gold.Chemscore.Rot.Weighted>
5.0000

> <Gold.Chemscore.Internal.Correction.Weighted>
   9.000000E+99

> <Gold.Protein.RotatedTorsions>
[ 6907 6896 6895 6894 ] final   10.88 input  -60.11 | X-H torsion
[ 7974 7965 7964 7962 ] final   32.02 input  175.53 | X-H torsion
[ 8008 7997 7996 7995 ] final  163.45 input   59.86 | X-H torsion
[ 10167 10162 10161 10158 ] final  -30.74 input  -65.29 | X-H torsion
[ 10718 10713 10712 10709 ] final   99.81 input   66.30 | X-H torsion
[ 10763 10752 10751 10750 ] final  -34.28 input  -60.55 | X-H torsion
[ 11005 11000 10999 10996 ] final  -38.91 input  -57.11 | X-H torsion

> <Gold.Protein.ActiveResidues>
 VAL166  LYS551  ARG553  GLY616  TRP617  ASP618  TYR619  PRO620  LYS621  CYS622 
 ASP623  PHE694  ASN695  SER759  ASP760  ASP761  ALA762  ILE779  LEU786  VAL792 
 PHE793  MET794  SER795  GLU796  ALA797  LYS798  CYS799  TRP800  GLU811  SER814 

> <Gold.Protein.RotatedAtoms>
  151.7453  135.0845  160.0322 H   0  0  0  0  0  0  0  0  0  0  0  0  # atno 6907 bound_to 6896
  152.3452  133.6110  159.5913 H   0  0  0  0  0  0  0  0  0  0  0  0  # atno 6908 bound_to 6896
  150.7504  133.9576  159.3547 H   0  0  0  0  0  0  0  0  0  0  0  0  # atno 6909 bound_to 6896
  146.1513  139.6580  142.9097 H   0  0  0  0  0  0  0  0  0  0  0  0  # atno 7974 bound_to 7965
  156.1956  140.1723  156.8005 H   0  0  0  0  0  0  0  0  0  0  0  0  # atno 8008 bound_to 7997
  154.5525  140.0715  156.8723 H   0  0  0  0  0  0  0  0  0  0  0  0  # atno 8009 bound_to 7997
  155.3001  140.3361  155.4250 H   0  0  0  0  0  0  0  0  0  0  0  0  # atno 8010 bound_to 7997
  140.7245  143.3825  151.1575 H   0  0  0  0  0  0  0  0  0  0  0  0  # atno 10167 bound_to 10162
  157.6868  131.0680  150.5005 H   0  0  0  0  0  0  0  0  0  0  0  0  # atno 10718 bound_to 10713
  153.8441  135.6855  153.4799 H   0  0  0  0  0  0  0  0  0  0  0  0  # atno 10763 bound_to 10752
  153.1436  135.4647  154.9530 H   0  0  0  0  0  0  0  0  0  0  0  0  # atno 10764 bound_to 10752
  154.7831  135.3275  154.7892 H   0  0  0  0  0  0  0  0  0  0  0  0  # atno 10765 bound_to 10752
  141.0062  133.6930  156.2115 H   0  0  0  0  0  0  0  0  0  0  0  0  # atno 11005 bound_to 11000
  145.4816  141.0438  143.2642 LP  0  0  0  0  0  0  0  0  0  0  0  0  # atno 17320 bound_to 7965
  144.7908  139.6333  143.7114 LP  0  0  0  0  0  0  0  0  0  0  0  0  # atno 17321 bound_to 7965
  139.7416  143.8915  152.3051 LP  0  0  0  0  0  0  0  0  0  0  0  0  # atno 17342 bound_to 10162
  139.8739  144.7054  150.8956 LP  0  0  0  0  0  0  0  0  0  0  0  0  # atno 17343 bound_to 10162
  156.5327  130.4189  149.6193 LP  0  0  0  0  0  0  0  0  0  0  0  0  # atno 17370 bound_to 10713
  156.3055  130.7200  151.2081 LP  0  0  0  0  0  0  0  0  0  0  0  0  # atno 17371 bound_to 10713
  140.6808  134.4769  157.5589 LP  0  0  0  0  0  0  0  0  0  0  0  0  # atno 17394 bound_to 11000
  139.9065  134.8438  156.1688 LP  0  0  0  0  0  0  0  0  0  0  0  0  # atno 17395 bound_to 11000

$$$$
