AV-unprocessed.smi:707|AV-procd|sdf|3453|dock5
  -GOLD-   22720 0443D 1   1.00000     0.00000
 Structure written by MMmdl.
 44 45  0  0  0  0  0  0  0  0  1 V2000
  144.2091  141.5860  158.7655 C   0  0  0  0  0  0  0  0  0  0  0  0
  145.5650  142.1928  158.9269 C   0  0  0  0  0  0  0  0  0  0  0  0
  146.1808  142.3369  160.1064 N   0  0  0  0  0  0  0  0  0  0  0  0
  147.3952  142.9296  159.8211 N   0  0  0  0  0  0  0  0  0  0  0  0
  147.3903  143.0844  158.4975 C   0  0  0  0  0  0  0  0  0  0  0  0
  146.2823  142.6477  157.8795 N   0  0  0  0  0  0  0  0  0  0  0  0
  145.9695  142.6664  156.4626 C   0  0  0  0  0  0  0  0  0  0  0  0
  146.8822  141.7192  155.6721 C   0  0  0  0  0  0  0  0  0  0  0  0
  148.2714  142.1433  155.7723 N   0  0  0  0  0  0  0  0  0  0  0  0
  149.3031  141.3112  155.9742 C   0  0  0  0  0  0  0  0  0  0  0  0
  149.1779  140.0929  156.0960 O   0  0  0  0  0  0  0  0  0  0  0  0
  150.6890  141.9457  156.0419 C   0  0  0  0  0  0  0  0  0  0  0  0
  151.3831  141.3755  157.1412 O   0  0  0  0  0  0  0  0  0  0  0  0
  150.8894  141.7547  158.4211 C   0  0  2  0  0  0  0  0  0  0  0  0
  150.8871  143.2926  158.4845 C   0  0  0  0  0  0  0  0  0  0  0  0
  152.3138  143.8672  158.4833 C   0  0  0  0  0  0  0  0  0  0  0  0
  153.1620  143.2667  159.6150 C   0  0  0  0  0  0  0  0  0  0  0  0
  153.1877  141.7279  159.5473 C   0  0  1  0  0  0  0  0  0  0  0  0
  154.0356  141.1294  160.6786 C   0  0  0  0  0  0  0  0  0  0  0  0
  151.7514  141.1678  159.5608 C   0  0  0  0  0  0  0  0  0  0  0  0
  143.8313  141.2358  159.7266 H   0  0  0  0  0  0  0  0  0  0  0  0
  144.2534  140.7375  158.0824 H   0  0  0  0  0  0  0  0  0  0  0  0
  143.5119  142.3236  158.3675 H   0  0  0  0  0  0  0  0  0  0  0  0
  148.2189  143.5274  157.9645 H   0  0  0  0  0  0  0  0  0  0  0  0
  144.9220  142.3946  156.3285 H   0  0  0  0  0  0  0  0  0  0  0  0
  146.0785  143.6893  156.0994 H   0  0  0  0  0  0  0  0  0  0  0  0
  146.7811  140.7012  156.0521 H   0  0  0  0  0  0  0  0  0  0  0  0
  146.5916  141.7011  154.6208 H   0  0  0  0  0  0  0  0  0  0  0  0
  148.4637  143.1298  155.6741 H   0  0  0  0  0  0  0  0  0  0  0  0
  151.2322  141.7680  155.1120 H   0  0  0  0  0  0  0  0  0  0  0  0
  150.5743  143.0233  156.1577 H   0  0  0  0  0  0  0  0  0  0  0  0
  149.8596  141.4087  158.5243 H   0  0  0  0  0  0  0  0  0  0  0  0
  150.3202  143.7002  157.6469 H   0  0  0  0  0  0  0  0  0  0  0  0
  150.3713  143.6156  159.3896 H   0  0  0  0  0  0  0  0  0  0  0  0
  152.7904  143.6643  157.5235 H   0  0  0  0  0  0  0  0  0  0  0  0
  152.2763  144.9521  158.5846 H   0  0  0  0  0  0  0  0  0  0  0  0
  154.1774  143.6604  159.5579 H   0  0  0  0  0  0  0  0  0  0  0  0
  152.7608  143.5867  160.5777 H   0  0  0  0  0  0  0  0  0  0  0  0
  153.6537  141.4396  158.6037 H   0  0  0  0  0  0  0  0  0  0  0  0
  153.6246  141.3793  161.6572 H   0  0  0  0  0  0  0  0  0  0  0  0
  155.0591  141.5032  160.6412 H   0  0  0  0  0  0  0  0  0  0  0  0
  154.0798  140.0427  160.6028 H   0  0  0  0  0  0  0  0  0  0  0  0
  151.2825  141.4082  160.5159 H   0  0  0  0  0  0  0  0  0  0  0  0
  151.7720  140.0798  159.5105 H   0  0  0  0  0  0  0  0  0  0  0  0
  1  2  1  0  0  0  0
  1 21  1  0  0  0  0
  1 22  1  0  0  0  0
  1 23  1  0  0  0  0
  2  6  1  0  0  0  0
  2  3  2  0  0  0  0
  3  4  1  0  0  0  0
  4  5  2  0  0  0  0
  5  6  1  0  0  0  0
  5 24  1  0  0  0  0
  6  7  1  0  0  0  0
  7  8  1  0  0  0  0
  7 25  1  0  0  0  0
  7 26  1  0  0  0  0
  8  9  1  0  0  0  0
  8 27  1  0  0  0  0
  8 28  1  0  0  0  0
  9 10  1  0  0  0  0
  9 29  1  0  0  0  0
 10 11  2  0  0  0  0
 10 12  1  0  0  0  0
 12 13  1  0  0  0  0
 12 30  1  0  0  0  0
 12 31  1  0  0  0  0
 13 14  1  0  0  0  0
 14 20  1  0  0  0  0
 14 15  1  0  0  0  0
 14 32  1  0  0  0  0
 15 16  1  0  0  0  0
 15 33  1  0  0  0  0
 15 34  1  0  0  0  0
 16 17  1  0  0  0  0
 16 35  1  0  0  0  0
 16 36  1  0  0  0  0
 17 18  1  0  0  0  0
 17 37  1  0  0  0  0
 17 38  1  0  0  0  0
 18 19  1  0  0  0  0
 18 20  1  0  0  0  0
 18 39  1  0  0  0  0
 19 40  1  0  0  0  0
 19 41  1  0  0  0  0
 19 42  1  0  0  0  0
 20 43  1  0  0  0  0
 20 44  1  0  0  0  0
M  END
> <s_m_source_file>
AV-unprocessed.smi

> <i_m_source_file_index>
707

> <i_lp_mmshare_version>
43012

> <i_f3d_flags>
0

> <s_epik_input>
W0NIM11jMW5uW2NIXW4xW0NIMl1bQ0gyXVtOSF1DKD1PKVtDSDJdT1tDQEBIXTJbQ0gyXVtDSDJdW0NIMl1bQ0BASF0oW0NIM10pW0NIMl0y

> <s_epik_cmdline>
J2VwaWtfcHl0aG9uJywgJy1waCcsICc3LjAnLCAnLXRuJywgJzgnLCAnLW1hJywgJzIwMCcsICctbWV0YWxfYmluZGluZycsICctaW1hZScsICc8aW5maWxlLm1hZT4nLCAnLW9tYWUnLCAnPG91dGZpbGUubWFlPic=

> <r_lp_tautomer_probability>
1

> <r_epik_Ionization_Penalty>
0.000271783

> <r_epik_Ionization_Penalty_Charging>
0

> <r_epik_Ionization_Penalty_Neutral>
0.000271783

> <r_epik_State_Penalty>
-0

> <r_epik_Charging_Adjusted_Penalty>
0

> <i_epik_Tot_Q>
0

> <i_epik_Tot_abs_Q>
0

> <r_epik_Metal_State_Penalty>
-0

> <b_epik_Metal_Only>
0

> <s_lp_Force_Field>
OPLS_2005

> <r_lp_Energy>
13.9065

> <b_lp_Chiralities_Consistent>
1

> <s_lp_Variant>
AV-unprocessed.smi:707-1

> <Gold.Version>
5.8.1

> <Gold.Id.Protein>
6NUR|6NUR_protein|mol2

> <Gold.PLP.Fitness>
43.1562

> <Gold.PLP.PLP>
-34.3713

> <Gold.PLP.part.hbond>
-3.8522

> <Gold.PLP.part.metal>
0.0000

> <Gold.PLP.part.buried>
-3.8566

> <Gold.PLP.part.nonpolar>
-26.5004

> <Gold.PLP.part.repulsive>
0.1849

> <Gold.PLP.ligand.clash>
0.0000

> <Gold.PLP.ligand.torsion>
0.3916

> <Gold.PLP.Chemscore.Hbond>
2.6184

> <Gold.PLP.Chemscore.CHOScore>
0.5316

> <Gold.PLP.Chemscore.Metal>
0.0000

> <Gold.Chemscore.Hbonds>
donor molecule, donor type, donor heavy atom, donor atom, acceptor molecule, acceptor atom, score
      L1  H     9    29       P1  8028  1.00
      P1  H  6933  6944       L1     4  0.81
      P1  H  6934  6946       L1     3  0.70
      L1  C     5    24       P1  8028  0.16
      L1  C     5    24       P1  8029  0.36

> <Gold.PLP.Chemscore.Internal.Correction>
0.1181

> <Gold.Rescore>
     Score         DG    S(hbond)    S(metal)    S(lipo)     H(rot)  DE(clash)    DE(int)     intcor
     14.68     -15.09       1.70        0.00      86.62       2.42       0.00       0.41       ----

> <Gold.Chemscore.Fitness>
14.6773

> <Gold.Chemscore.DG>
-15.0906

> <Gold.Chemscore.ZeroCoef>
-5.4800

> <Gold.Chemscore.Hbond>
1.6974

> <Gold.Chemscore.Metal>
0.0000

> <Gold.Chemscore.Lipo>
86.6170

> <Gold.Chemscore.Internal_Hbond>
0.0000

> <Gold.Chemscore.DEClash>
0.0038

> <Gold.Chemscore.DEInternal>
0.4095

> <Gold.Chemscore.Rot>
2.4191

> <Gold.Chemscore.Internal.Correction>
   9.000000E+99

> <Gold.Chemscore.Hbonds>
donor molecule, donor type, donor heavy atom, donor atom, acceptor molecule, acceptor atom, score
      L1  H     9    29       P1  8028  0.98
      P1  H  6933  6944       L1     4  0.23
      P1  H  6934  6946       L1     3  0.06

> <Gold.Chemscore.Hbond.Weighted>
-5.6694

> <Gold.Chemscore.Metal.Weighted>
-0.0000

> <Gold.Chemscore.Lipo.Weighted>
-10.1342

> <Gold.Chemscore.Internal_Hbond.Weighted>
0.0000

> <Gold.Chemscore.DEClash.Weighted>
0.0038

> <Gold.Chemscore.DEInternal.Weighted>
0.4095

> <Gold.Chemscore.Rot.Weighted>
6.1929

> <Gold.Chemscore.Internal.Correction.Weighted>
   9.000000E+99

> <Gold.Protein.RotatedTorsions>
[ 6907 6896 6895 6894 ] final   38.88 input  -60.11 | X-H torsion
[ 7974 7965 7964 7962 ] final  -58.62 input  175.53 | X-H torsion
[ 8008 7997 7996 7995 ] final   65.96 input   59.86 | X-H torsion
[ 10167 10162 10161 10158 ] final  140.21 input  -65.29 | X-H torsion
[ 10718 10713 10712 10709 ] final -137.33 input   66.30 | X-H torsion
[ 10763 10752 10751 10750 ] final -101.02 input  -60.55 | X-H torsion
[ 11005 11000 10999 10996 ] final -125.85 input  -57.11 | X-H torsion

> <Gold.Protein.ActiveResidues>
 VAL166  LYS551  ARG553  GLY616  TRP617  ASP618  TYR619  PRO620  LYS621  CYS622 
 ASP623  PHE694  ASN695  SER759  ASP760  ASP761  ALA762  ILE779  LEU786  VAL792 
 PHE793  MET794  SER795  GLU796  ALA797  LYS798  CYS799  TRP800  GLU811  SER814 

> <Gold.Protein.RotatedAtoms>
  152.1623  134.8902  160.0540 H   0  0  0  0  0  0  0  0  0  0  0  0  # atno 6907 bound_to 6896
  151.9893  133.3780  159.4146 H   0  0  0  0  0  0  0  0  0  0  0  0  # atno 6908 bound_to 6896
  150.6889  134.3876  159.5106 H   0  0  0  0  0  0  0  0  0  0  0  0  # atno 6909 bound_to 6896
  145.8371  140.8442  143.0053 H   0  0  0  0  0  0  0  0  0  0  0  0  # atno 7974 bound_to 7965
  155.6699  140.3497  155.4814 H   0  0  0  0  0  0  0  0  0  0  0  0  # atno 8008 bound_to 7997
  155.9697  140.1153  157.0846 H   0  0  0  0  0  0  0  0  0  0  0  0  # atno 8009 bound_to 7997
  154.4163  140.1159  156.5276 H   0  0  0  0  0  0  0  0  0  0  0  0  # atno 8010 bound_to 7997
  139.5055  144.6248  151.5963 H   0  0  0  0  0  0  0  0  0  0  0  0  # atno 10167 bound_to 10162
  156.2870  130.7353  151.1367 H   0  0  0  0  0  0  0  0  0  0  0  0  # atno 10718 bound_to 10713
  154.7625  135.4913  153.9492 H   0  0  0  0  0  0  0  0  0  0  0  0  # atno 10763 bound_to 10752
  153.1268  135.6744  153.9251 H   0  0  0  0  0  0  0  0  0  0  0  0  # atno 10764 bound_to 10752
  153.8966  135.3114  155.3427 H   0  0  0  0  0  0  0  0  0  0  0  0  # atno 10765 bound_to 10752
  140.9729  134.0781  157.3850 H   0  0  0  0  0  0  0  0  0  0  0  0  # atno 11005 bound_to 11000
  144.6736  140.0757  143.7471 LP  0  0  0  0  0  0  0  0  0  0  0  0  # atno 17320 bound_to 7965
  145.9506  139.2731  143.1214 LP  0  0  0  0  0  0  0  0  0  0  0  0  # atno 17321 bound_to 7965
  140.5962  143.9692  150.6356 LP  0  0  0  0  0  0  0  0  0  0  0  0  # atno 17342 bound_to 10162
  140.2889  143.3338  152.1081 LP  0  0  0  0  0  0  0  0  0  0  0  0  # atno 17343 bound_to 10162
  157.7331  131.0594  150.5593 LP  0  0  0  0  0  0  0  0  0  0  0  0  # atno 17370 bound_to 10713
  156.5705  130.4278  149.6021 LP  0  0  0  0  0  0  0  0  0  0  0  0  # atno 17371 bound_to 10713
  139.8919  135.0121  156.6817 LP  0  0  0  0  0  0  0  0  0  0  0  0  # atno 17394 bound_to 11000
  140.7302  133.9065  155.8206 LP  0  0  0  0  0  0  0  0  0  0  0  0  # atno 17395 bound_to 11000

$$$$
