AV-unprocessed.smi:1696|AV-procd|sdf|6802|dock10
  -GOLD-   22720 7573D 1   1.00000     0.00000
 Structure written by MMmdl.
 38 39  0  0  0  0  0  0  0  0  3 V2000
  145.8622  133.5740  156.1573 C   0  0  0  0  0  0  0  0  0  0  0  0
  145.7162  133.9385  154.6713 C   0  0  0  0  0  0  0  0  0  0  0  0
  146.9147  134.7258  154.0752 C   0  0  1  0  0  0  0  0  0  0  0  0
  148.2810  134.0648  154.3926 C   0  0  0  0  0  0  0  0  0  0  0  0
  149.3837  135.0169  154.2926 N   0  0  0  0  0  0  0  0  0  0  0  0
  150.3705  135.1946  155.1823 C   0  0  0  0  0  0  0  0  0  0  0  0
  150.4218  134.4998  156.1994 O   0  0  0  0  0  0  0  0  0  0  0  0
  151.2367  136.1726  154.8357 N   0  5  0  0  0  0  0  0  0  0  0  0
  150.8447  137.4568  154.8603 C   0  0  0  0  0  0  0  0  0  0  0  0
  149.5612  137.8298  154.7998 N   0  0  0  0  0  0  0  0  0  0  0  0
  149.3835  139.2141  154.8344 C   0  0  0  0  0  0  0  0  0  0  0  0
  150.5596  139.9116  154.9139 C   0  0  0  0  0  0  0  0  0  0  0  0
  151.9339  138.8440  154.9484 S   0  0  0  0  0  0  0  0  0  0  0  0
  146.7311  134.9502  152.6111 N   0  3  0  0  0  0  0  0  0  0  0  0
  146.5863  133.7183  151.7935 C   0  0  0  0  0  0  0  0  0  0  0  0
  145.5529  134.0168  150.6983 C   0  0  0  0  0  0  0  0  0  0  0  0
  145.3455  135.5253  150.7601 C   0  0  0  0  0  0  0  0  0  0  0  0
  145.6198  135.8465  152.2243 C   0  0  0  0  0  0  0  0  0  0  0  0
  144.9954  133.0081  156.4988 H   0  0  0  0  0  0  0  0  0  0  0  0
  145.9370  134.4612  156.7849 H   0  0  0  0  0  0  0  0  0  0  0  0
  146.7454  132.9605  156.3356 H   0  0  0  0  0  0  0  0  0  0  0  0
  145.5489  133.0235  154.1038 H   0  0  0  0  0  0  0  0  0  0  0  0
  144.7977  134.5112  154.5416 H   0  0  0  0  0  0  0  0  0  0  0  0
  146.9225  135.7098  154.5475 H   0  0  0  0  0  0  0  0  0  0  0  0
  148.2486  133.5794  155.3690 H   0  0  0  0  0  0  0  0  0  0  0  0
  148.5035  133.2768  153.6735 H   0  0  0  0  0  0  0  0  0  0  0  0
  149.3964  135.6108  153.4762 H   0  0  0  0  0  0  0  0  0  0  0  0
  148.3824  139.6172  154.7952 H   0  0  0  0  0  0  0  0  0  0  0  0
  150.7018  140.9810  154.9527 H   0  0  0  0  0  0  0  0  0  0  0  0
  147.5547  133.4584  151.3650 H   0  0  0  0  0  0  0  0  0  0  0  0
  146.2497  132.8708  152.3926 H   0  0  0  0  0  0  0  0  0  0  0  0
  145.8758  133.6804  149.7125 H   0  0  0  0  0  0  0  0  0  0  0  0
  144.6158  133.5084  150.9305 H   0  0  0  0  0  0  0  0  0  0  0  0
  146.0776  136.0279  150.1264 H   0  0  0  0  0  0  0  0  0  0  0  0
  144.3505  135.8325  150.4364 H   0  0  0  0  0  0  0  0  0  0  0  0
  144.7360  135.6177  152.8223 H   0  0  0  0  0  0  0  0  0  0  0  0
  145.8719  136.8973  152.3710 H   0  0  0  0  0  0  0  0  0  0  0  0
  147.5709  135.4047  152.2815 H   0  0  0  0  0  0  0  0  0  0  0  0
  1  2  1  0  0  0  0
  1 19  1  0  0  0  0
  1 20  1  0  0  0  0
  1 21  1  0  0  0  0
  2  3  1  0  0  0  0
  2 22  1  0  0  0  0
  2 23  1  0  0  0  0
  3  4  1  0  0  0  0
  3 14  1  0  0  0  0
  3 24  1  0  0  0  0
  4  5  1  0  0  0  0
  4 25  1  0  0  0  0
  4 26  1  0  0  0  0
  5  6  1  0  0  0  0
  5 27  1  0  0  0  0
  6  7  2  0  0  0  0
  6  8  1  0  0  0  0
  8  9  1  0  0  0  0
  9 13  1  0  0  0  0
  9 10  2  0  0  0  0
 10 11  1  0  0  0  0
 11 12  2  0  0  0  0
 11 28  1  0  0  0  0
 12 13  1  0  0  0  0
 12 29  1  0  0  0  0
 14 18  1  0  0  0  0
 14 15  1  0  0  0  0
 14 38  1  0  0  0  0
 15 16  1  0  0  0  0
 15 30  1  0  0  0  0
 15 31  1  0  0  0  0
 16 17  1  0  0  0  0
 16 32  1  0  0  0  0
 16 33  1  0  0  0  0
 17 18  1  0  0  0  0
 17 34  1  0  0  0  0
 17 35  1  0  0  0  0
 18 36  1  0  0  0  0
 18 37  1  0  0  0  0
M  CHG  1   8  -1
M  CHG  1  14   1
M  END
> <s_m_source_file>
AV-unprocessed.smi

> <i_m_source_file_index>
1696

> <i_lp_mmshare_version>
43012

> <i_f3d_flags>
0

> <s_epik_input>
W0NIMl0xW0NIMl1bQ0gyXVtDSDJdTjFbQ0BIXShbQ0gyXVtDSDNdKVtDSDJdW05IXUMoPU8pW05IXWMybltjSF1bY0hdczI=

> <s_epik_cmdline>
J2VwaWtfcHl0aG9uJywgJy1waCcsICc3LjAnLCAnLXRuJywgJzgnLCAnLW1hJywgJzIwMCcsICctbWV0YWxfYmluZGluZycsICctaW1hZScsICc8aW5maWxlLm1hZT4nLCAnLW9tYWUnLCAnPG91dGZpbGUubWFlPic=

> <r_lp_tautomer_probability>
1

> <r_epik_Ionization_Penalty>
7.71903

> <r_epik_Ionization_Penalty_Charging>
6.3282

> <r_epik_Ionization_Penalty_Neutral>
1.39083

> <r_epik_State_Penalty>
6.32705

> <r_epik_Charging_Adjusted_Penalty>
12.6552

> <i_epik_Tot_Q>
0

> <i_epik_Tot_abs_Q>
2

> <r_epik_Metal_State_Penalty>
2.26116

> <b_epik_Metal_Only>
1

> <s_lp_Force_Field>
OPLS_2005

> <r_lp_Energy>
23.2163

> <b_lp_Chiralities_Consistent>
1

> <s_lp_Variant>
AV-unprocessed.smi:1696-4

> <Gold.Version>
5.8.1

> <Gold.Id.Protein>
6NUR|6NUR_protein|mol2

> <Gold.PLP.Fitness>
40.8914

> <Gold.PLP.PLP>
-27.8166

> <Gold.PLP.part.hbond>
-3.0000

> <Gold.PLP.part.metal>
0.0000

> <Gold.PLP.part.buried>
-1.7738

> <Gold.PLP.part.nonpolar>
-23.6306

> <Gold.PLP.part.repulsive>
0.3897

> <Gold.PLP.ligand.clash>
0.0000

> <Gold.PLP.ligand.torsion>
1.1025

> <Gold.PLP.Chemscore.Hbond>
5.0000

> <Gold.PLP.Chemscore.CHOScore>
0.0000

> <Gold.PLP.Chemscore.Metal>
0.0000

> <Gold.Chemscore.Hbonds>
donor molecule, donor type, donor heavy atom, donor atom, acceptor molecule, acceptor atom, score
      L1  H     5    27       P1  7948  1.00
      L1  H    14    38       P1  7948  2.00
      P1  H 10752 10763       L1     8  2.00

> <Gold.PLP.Chemscore.Internal.Correction>
0.2798

> <Gold.Rescore>
     Score         DG    S(hbond)    S(metal)    S(lipo)     H(rot)  DE(clash)    DE(int)     intcor
     13.82     -15.12       2.53        0.00      47.95       1.73       0.02       1.28       ----

> <Gold.Chemscore.Fitness>
13.8183

> <Gold.Chemscore.DG>
-15.1193

> <Gold.Chemscore.ZeroCoef>
-5.4800

> <Gold.Chemscore.Hbond>
2.5301

> <Gold.Chemscore.Metal>
0.0000

> <Gold.Chemscore.Lipo>
47.9485

> <Gold.Chemscore.Internal_Hbond>
0.0000

> <Gold.Chemscore.DEClash>
0.0207

> <Gold.Chemscore.DEInternal>
1.2803

> <Gold.Chemscore.Rot>
1.7270

> <Gold.Chemscore.Internal.Correction>
   9.000000E+99

> <Gold.Chemscore.Hbonds>
donor molecule, donor type, donor heavy atom, donor atom, acceptor molecule, acceptor atom, score
      L1  H     5    27       P1  7948  0.30
      L1  H    14    38       P1  7948  1.00
      P1  H 10752 10763       L1     8  0.82

> <Gold.Chemscore.Hbond.Weighted>
-8.4505

> <Gold.Chemscore.Metal.Weighted>
-0.0000

> <Gold.Chemscore.Lipo.Weighted>
-5.6100

> <Gold.Chemscore.Internal_Hbond.Weighted>
0.0000

> <Gold.Chemscore.DEClash.Weighted>
0.0207

> <Gold.Chemscore.DEInternal.Weighted>
1.2803

> <Gold.Chemscore.Rot.Weighted>
4.4212

> <Gold.Chemscore.Internal.Correction.Weighted>
   9.000000E+99

> <Gold.Protein.RotatedTorsions>
[ 6907 6896 6895 6894 ] final   -1.28 input  -60.11 | X-H torsion
[ 7974 7965 7964 7962 ] final   -2.85 input  175.53 | X-H torsion
[ 8008 7997 7996 7995 ] final   -5.25 input   59.86 | X-H torsion
[ 10167 10162 10161 10158 ] final   97.83 input  -65.29 | X-H torsion
[ 10718 10713 10712 10709 ] final  131.59 input   66.30 | X-H torsion
[ 10763 10752 10751 10750 ] final   68.24 input  -60.55 | X-H torsion
[ 11005 11000 10999 10996 ] final  -50.19 input  -57.11 | X-H torsion

> <Gold.Protein.ActiveResidues>
 VAL166  LYS551  ARG553  GLY616  TRP617  ASP618  TYR619  PRO620  LYS621  CYS622 
 ASP623  PHE694  ASN695  SER759  ASP760  ASP761  ALA762  ILE779  LEU786  VAL792 
 PHE793  MET794  SER795  GLU796  ALA797  LYS798  CYS799  TRP800  GLU811  SER814 

> <Gold.Protein.RotatedAtoms>
  151.5487  135.1067  159.9943 H   0  0  0  0  0  0  0  0  0  0  0  0  # atno 6907 bound_to 6896
  152.4502  133.7609  159.6757 H   0  0  0  0  0  0  0  0  0  0  0  0  # atno 6908 bound_to 6896
  150.8428  133.7842  159.3078 H   0  0  0  0  0  0  0  0  0  0  0  0  # atno 6909 bound_to 6896
  146.2398  140.1633  142.8332 H   0  0  0  0  0  0  0  0  0  0  0  0  # atno 7974 bound_to 7965
  154.6059  140.2463  155.7732 H   0  0  0  0  0  0  0  0  0  0  0  0  # atno 8008 bound_to 7997
  156.2340  140.2956  156.0215 H   0  0  0  0  0  0  0  0  0  0  0  0  # atno 8009 bound_to 7997
  155.2133  140.0398  157.2927 H   0  0  0  0  0  0  0  0  0  0  0  0  # atno 8010 bound_to 7997
  139.7765  144.6904  151.0083 H   0  0  0  0  0  0  0  0  0  0  0  0  # atno 10167 bound_to 10162
  157.4953  131.1092  150.9502 H   0  0  0  0  0  0  0  0  0  0  0  0  # atno 10718 bound_to 10713
  153.0225  135.5254  154.7103 H   0  0  0  0  0  0  0  0  0  0  0  0  # atno 10763 bound_to 10752
  154.6187  135.2886  155.0352 H   0  0  0  0  0  0  0  0  0  0  0  0  # atno 10764 bound_to 10752
  154.1347  135.6587  153.4982 H   0  0  0  0  0  0  0  0  0  0  0  0  # atno 10765 bound_to 10752
  141.0802  133.6655  156.3694 H   0  0  0  0  0  0  0  0  0  0  0  0  # atno 11005 bound_to 11000
  145.0071  140.8682  143.5246 LP  0  0  0  0  0  0  0  0  0  0  0  0  # atno 17320 bound_to 7965
  145.1661  139.2430  143.5366 LP  0  0  0  0  0  0  0  0  0  0  0  0  # atno 17321 bound_to 7965
  140.7816  143.4531  151.0385 LP  0  0  0  0  0  0  0  0  0  0  0  0  # atno 17342 bound_to 10162
  139.8213  143.7817  152.3177 LP  0  0  0  0  0  0  0  0  0  0  0  0  # atno 17343 bound_to 10162
  157.0190  130.5666  149.5329 LP  0  0  0  0  0  0  0  0  0  0  0  0  # atno 17370 bound_to 10713
  156.0197  130.5291  150.8238 LP  0  0  0  0  0  0  0  0  0  0  0  0  # atno 17371 bound_to 10713
  140.5486  134.6050  157.5401 LP  0  0  0  0  0  0  0  0  0  0  0  0  # atno 17394 bound_to 11000
  139.9615  134.7444  156.0227 LP  0  0  0  0  0  0  0  0  0  0  0  0  # atno 17395 bound_to 11000

$$$$
