AV-unprocessed.smi:898|AV-procd|sdf|4083|dock10
  -GOLD-   22720 1573D 1   1.00000     0.00000
 Structure written by MMmdl.
 34 36  0  0  0  0  0  0  0  0  1 V2000
  153.5640  139.8451  158.7691 O   0  0  0  0  0  0  0  0  0  0  0  0
  153.4406  140.2110  159.9381 C   0  0  0  0  0  0  0  0  0  0  0  0
  153.6580  139.4437  161.0206 N   0  0  0  0  0  0  0  0  0  0  0  0
  154.0709  138.0858  161.0690 C   0  0  0  0  0  0  0  0  0  0  0  0
  154.5930  137.4279  160.0247 N   0  0  0  0  0  0  0  0  0  0  0  0
  154.9122  136.1160  160.3462 N   0  0  0  0  0  0  0  0  0  0  0  0
  154.6231  135.8196  161.6191 C   0  0  0  0  0  0  0  0  0  0  0  0
  154.8810  134.4691  162.2002 C   0  0  0  0  0  0  0  0  0  0  0  0
  153.7350  133.5621  162.5853 C   0  0  0  0  0  0  0  0  0  0  0  0
  154.6066  134.1652  163.6570 C   0  0  0  0  0  0  0  0  0  0  0  0
  153.9225  137.1446  162.5431 S   0  0  0  0  0  0  0  0  0  0  0  0
  153.0709  141.4514  160.2900 N   0  0  0  0  0  0  0  0  0  0  0  0
  152.7672  142.5380  159.3624 C   0  0  2  0  0  0  0  0  0  0  0  0
  152.5038  143.8452  160.1394 C   0  0  0  0  0  0  0  0  0  0  0  0
  152.2279  145.0399  159.2120 C   0  0  0  0  0  0  0  0  0  0  0  0
  150.9912  144.8238  158.3284 C   0  0  0  0  0  0  0  0  0  0  0  0
  151.2089  143.3961  157.2322 S   0  0  0  0  0  0  0  0  0  0  0  0
  151.5624  142.1398  158.4920 C   0  0  0  0  0  0  0  0  0  0  0  0
  153.5208  139.8860  161.9172 H   0  0  0  0  0  0  0  0  0  0  0  0
  155.7588  134.0161  161.7434 H   0  0  0  0  0  0  0  0  0  0  0  0
  152.7240  133.9524  162.4827 H   0  0  0  0  0  0  0  0  0  0  0  0
  153.8475  132.4988  162.3837 H   0  0  0  0  0  0  0  0  0  0  0  0
  155.3008  133.5028  164.1703 H   0  0  0  0  0  0  0  0  0  0  0  0
  154.1670  134.9465  164.2737 H   0  0  0  0  0  0  0  0  0  0  0  0
  152.9953  141.6626  161.2741 H   0  0  0  0  0  0  0  0  0  0  0  0
  153.6251  142.6844  158.7028 H   0  0  0  0  0  0  0  0  0  0  0  0
  151.6628  143.7098  160.8209 H   0  0  0  0  0  0  0  0  0  0  0  0
  153.3661  144.0812  160.7644 H   0  0  0  0  0  0  0  0  0  0  0  0
  152.0846  145.9365  159.8159 H   0  0  0  0  0  0  0  0  0  0  0  0
  153.1001  145.2303  158.5854 H   0  0  0  0  0  0  0  0  0  0  0  0
  150.1051  144.6678  158.9444 H   0  0  0  0  0  0  0  0  0  0  0  0
  150.8046  145.7076  157.7177 H   0  0  0  0  0  0  0  0  0  0  0  0
  151.7544  141.1936  157.9848 H   0  0  0  0  0  0  0  0  0  0  0  0
  150.6733  141.9983  159.1077 H   0  0  0  0  0  0  0  0  0  0  0  0
  1  2  2  0  0  0  0
  2  3  1  0  0  0  0
  2 12  1  0  0  0  0
  3  4  1  0  0  0  0
  3 19  1  0  0  0  0
  4 11  1  0  0  0  0
  4  5  2  0  0  0  0
  5  6  1  0  0  0  0
  6  7  2  0  0  0  0
  7  8  1  0  0  0  0
  7 11  1  0  0  0  0
  8 10  1  0  0  0  0
  8  9  1  0  0  0  0
  8 20  1  0  0  0  0
  9 10  1  0  0  0  0
  9 21  1  0  0  0  0
  9 22  1  0  0  0  0
 10 23  1  0  0  0  0
 10 24  1  0  0  0  0
 12 13  1  0  0  0  0
 12 25  1  0  0  0  0
 13 18  1  0  0  0  0
 13 14  1  0  0  0  0
 13 26  1  0  0  0  0
 14 15  1  0  0  0  0
 14 27  1  0  0  0  0
 14 28  1  0  0  0  0
 15 16  1  0  0  0  0
 15 29  1  0  0  0  0
 15 30  1  0  0  0  0
 16 17  1  0  0  0  0
 16 31  1  0  0  0  0
 16 32  1  0  0  0  0
 17 18  1  0  0  0  0
 18 33  1  0  0  0  0
 18 34  1  0  0  0  0
M  END
> <s_m_source_file>
AV-unprocessed.smi

> <i_m_source_file_index>
898

> <i_lp_mmshare_version>
43012

> <i_f3d_flags>
0

> <s_epik_input>
W0NIMl0xU1tDSDJdW0NIMl1bQ0gyXVtDQEhdMVtOSF1DKD1PKVtOSF1jMm5uYyhzMilbQ0hdM1tDSDJdW0NIMl0z

> <s_epik_cmdline>
J2VwaWtfcHl0aG9uJywgJy1waCcsICc3LjAnLCAnLXRuJywgJzgnLCAnLW1hJywgJzIwMCcsICctbWV0YWxfYmluZGluZycsICctaW1hZScsICc8aW5maWxlLm1hZT4nLCAnLW9tYWUnLCAnPG91dGZpbGUubWFlPic=

> <r_lp_tautomer_probability>
1

> <r_epik_Ionization_Penalty>
0.000291725

> <r_epik_Ionization_Penalty_Charging>
0

> <r_epik_Ionization_Penalty_Neutral>
0.000291725

> <r_epik_State_Penalty>
-0

> <r_epik_Charging_Adjusted_Penalty>
0

> <i_epik_Tot_Q>
0

> <i_epik_Tot_abs_Q>
0

> <r_epik_Metal_State_Penalty>
0.160962

> <b_epik_Metal_Only>
0

> <s_lp_Force_Field>
OPLS_2005

> <r_lp_Energy>
2.16534

> <b_lp_Chiralities_Consistent>
1

> <s_lp_Variant>
AV-unprocessed.smi:898-1

> <Gold.Version>
5.8.1

> <Gold.Id.Protein>
6NUR|6NUR_protein|mol2

> <Gold.PLP.Fitness>
36.8716

> <Gold.PLP.PLP>
-34.0502

> <Gold.PLP.part.hbond>
-1.0000

> <Gold.PLP.part.metal>
0.0000

> <Gold.PLP.part.buried>
-4.5301

> <Gold.PLP.part.nonpolar>
-28.8125

> <Gold.PLP.part.repulsive>
0.0943

> <Gold.PLP.ligand.clash>
0.0000

> <Gold.PLP.ligand.torsion>
0.1431

> <Gold.PLP.Chemscore.Hbond>
0.9913

> <Gold.PLP.Chemscore.CHOScore>
0.0000

> <Gold.PLP.Chemscore.Metal>
0.0000

> <Gold.Chemscore.Hbonds>
donor molecule, donor type, donor heavy atom, donor atom, acceptor molecule, acceptor atom, score
      P1  H  7997  8010       L1     1  1.00

> <Gold.PLP.Chemscore.Internal.Correction>
0.1339

> <Gold.Rescore>
     Score         DG    S(hbond)    S(metal)    S(lipo)     H(rot)  DE(clash)    DE(int)     intcor
     15.70     -17.23       1.00        0.00      98.29       1.20       0.12       1.41       ----

> <Gold.Chemscore.Fitness>
15.7011

> <Gold.Chemscore.DG>
-17.2288

> <Gold.Chemscore.ZeroCoef>
-5.4800

> <Gold.Chemscore.Hbond>
0.9981

> <Gold.Chemscore.Metal>
0.0000

> <Gold.Chemscore.Lipo>
98.2899

> <Gold.Chemscore.Internal_Hbond>
0.0000

> <Gold.Chemscore.DEClash>
0.1164

> <Gold.Chemscore.DEInternal>
1.4112

> <Gold.Chemscore.Rot>
1.2050

> <Gold.Chemscore.Internal.Correction>
   9.000000E+99

> <Gold.Chemscore.Hbonds>
donor molecule, donor type, donor heavy atom, donor atom, acceptor molecule, acceptor atom, score
      P1  H  7997  8010       L1     1  0.96

> <Gold.Chemscore.Hbond.Weighted>
-3.3336

> <Gold.Chemscore.Metal.Weighted>
-0.0000

> <Gold.Chemscore.Lipo.Weighted>
-11.4999

> <Gold.Chemscore.Internal_Hbond.Weighted>
0.0000

> <Gold.Chemscore.DEClash.Weighted>
0.1164

> <Gold.Chemscore.DEInternal.Weighted>
1.4112

> <Gold.Chemscore.Rot.Weighted>
3.0847

> <Gold.Chemscore.Internal.Correction.Weighted>
   9.000000E+99

> <Gold.Protein.RotatedTorsions>
[ 6907 6896 6895 6894 ] final -169.64 input  -60.11 | X-H torsion
[ 7974 7965 7964 7962 ] final  118.47 input  175.53 | X-H torsion
[ 8008 7997 7996 7995 ] final   23.83 input   59.86 | X-H torsion
[ 10167 10162 10161 10158 ] final -116.95 input  -65.29 | X-H torsion
[ 10718 10713 10712 10709 ] final   76.93 input   66.30 | X-H torsion
[ 10763 10752 10751 10750 ] final  -48.50 input  -60.55 | X-H torsion
[ 11005 11000 10999 10996 ] final  -16.49 input  -57.11 | X-H torsion

> <Gold.Protein.ActiveResidues>
 VAL166  LYS551  ARG553  GLY616  TRP617  ASP618  TYR619  PRO620  LYS621  CYS622 
 ASP623  PHE694  ASN695  SER759  ASP760  ASP761  ALA762  ILE779  LEU786  VAL792 
 PHE793  MET794  SER795  GLU796  ALA797  LYS798  CYS799  TRP800  GLU811  SER814 

> <Gold.Protein.RotatedAtoms>
  151.4949  133.3517  159.2859 H   0  0  0  0  0  0  0  0  0  0  0  0  # atno 6907 bound_to 6896
  150.8811  134.8204  159.7236 H   0  0  0  0  0  0  0  0  0  0  0  0  # atno 6908 bound_to 6896
  152.4763  134.4846  159.9728 H   0  0  0  0  0  0  0  0  0  0  0  0  # atno 6909 bound_to 6896
  145.1548  139.3189  143.4547 H   0  0  0  0  0  0  0  0  0  0  0  0  # atno 7974 bound_to 7965
  154.9870  140.3109  155.4922 H   0  0  0  0  0  0  0  0  0  0  0  0  # atno 8008 bound_to 7997
  156.2945  140.2256  156.4912 H   0  0  0  0  0  0  0  0  0  0  0  0  # atno 8009 bound_to 7997
  154.7738  140.0450  157.1060 H   0  0  0  0  0  0  0  0  0  0  0  0  # atno 8010 bound_to 7997
  140.0737  143.4853  152.1965 H   0  0  0  0  0  0  0  0  0  0  0  0  # atno 10167 bound_to 10162
  157.6692  130.9798  150.1568 H   0  0  0  0  0  0  0  0  0  0  0  0  # atno 10718 bound_to 10713
  154.0787  135.6594  153.4834 H   0  0  0  0  0  0  0  0  0  0  0  0  # atno 10763 bound_to 10752
  153.0364  135.5174  154.7495 H   0  0  0  0  0  0  0  0  0  0  0  0  # atno 10764 bound_to 10752
  154.6583  135.3011  154.9867 H   0  0  0  0  0  0  0  0  0  0  0  0  # atno 10765 bound_to 10752
  140.8073  133.8167  155.9529 H   0  0  0  0  0  0  0  0  0  0  0  0  # atno 11005 bound_to 11000
  146.3490  140.1637  142.8590 LP  0  0  0  0  0  0  0  0  0  0  0  0  # atno 17320 bound_to 7965
  145.0392  140.8932  143.5062 LP  0  0  0  0  0  0  0  0  0  0  0  0  # atno 17321 bound_to 7965
  139.5821  144.7515  151.3614 LP  0  0  0  0  0  0  0  0  0  0  0  0  # atno 17342 bound_to 10162
  140.7113  143.7384  150.7572 LP  0  0  0  0  0  0  0  0  0  0  0  0  # atno 17343 bound_to 10162
  156.2354  130.3686  149.8397 LP  0  0  0  0  0  0  0  0  0  0  0  0  # atno 17370 bound_to 10713
  156.6212  130.8627  151.3476 LP  0  0  0  0  0  0  0  0  0  0  0  0  # atno 17371 bound_to 10713
  140.9234  134.2113  157.4912 LP  0  0  0  0  0  0  0  0  0  0  0  0  # atno 17394 bound_to 11000
  139.8717  134.9802  156.5066 LP  0  0  0  0  0  0  0  0  0  0  0  0  # atno 17395 bound_to 11000

$$$$
