AV-unprocessed.smi:1360|AV-procd|sdf|5551|dock7
  -GOLD-   22720 5143D 1   1.00000     0.00000
 Structure written by MMmdl.
 36 37  0  0  0  0  0  0  0  0  1 V2000
  152.5830  138.6410  155.3818 C   0  0  0  0  0  0  0  0  0  0  0  0
  151.1305  139.0619  155.6529 C   0  0  2  0  0  0  0  0  0  0  0  0
  150.3586  139.3049  154.3417 C   0  0  0  0  0  0  0  0  0  0  0  0
  149.2531  140.2307  154.5164 N   0  0  0  0  0  0  0  0  0  0  0  0
  148.0604  140.0227  155.1763 C   0  0  0  0  0  0  0  0  0  0  0  0
  147.3391  141.1785  155.0857 C   0  0  0  0  0  0  0  0  0  0  0  0
  148.1853  142.0474  154.3415 C   0  0  0  0  0  0  0  0  0  0  0  0
  149.3299  141.4771  154.0010 N   0  0  0  0  0  0  0  0  0  0  0  0
  151.1087  140.2673  156.4783 N   0  0  0  0  0  0  0  0  0  0  0  0
  151.9041  140.5066  157.5321 C   0  0  0  0  0  0  0  0  0  0  0  0
  152.7737  139.7230  157.9144 O   0  0  0  0  0  0  0  0  0  0  0  0
  151.6798  141.8337  158.2685 C   0  0  2  0  0  0  0  0  0  0  0  0
  151.6357  143.0215  157.2792 C   0  0  0  0  0  0  0  0  0  0  0  0
  151.6778  144.3625  157.9906 C   0  0  0  0  0  0  0  0  0  0  0  0
  152.0468  144.5070  159.2750 C   0  0  0  0  0  0  0  0  0  0  0  0
  152.4689  143.3465  160.1590 C   0  0  0  0  0  0  0  0  0  0  0  0
  152.7561  142.0691  159.3472 C   0  0  0  0  0  0  0  0  0  0  0  0
  152.6215  137.7292  154.7853 H   0  0  0  0  0  0  0  0  0  0  0  0
  153.1183  138.4460  156.3117 H   0  0  0  0  0  0  0  0  0  0  0  0
  153.1261  139.4162  154.8403 H   0  0  0  0  0  0  0  0  0  0  0  0
  150.6364  138.2481  156.1875 H   0  0  0  0  0  0  0  0  0  0  0  0
  151.0249  139.6821  153.5639 H   0  0  0  0  0  0  0  0  0  0  0  0
  149.9488  138.3650  153.9696 H   0  0  0  0  0  0  0  0  0  0  0  0
  147.8289  139.0810  155.6517 H   0  0  0  0  0  0  0  0  0  0  0  0
  146.3573  141.3742  155.4904 H   0  0  0  0  0  0  0  0  0  0  0  0
  148.0026  143.0685  154.0405 H   0  0  0  0  0  0  0  0  0  0  0  0
  150.4178  140.9652  156.2424 H   0  0  0  0  0  0  0  0  0  0  0  0
  150.7141  141.7813  158.7752 H   0  0  0  0  0  0  0  0  0  0  0  0
  152.4706  142.9877  156.5778 H   0  0  0  0  0  0  0  0  0  0  0  0
  150.7216  142.9720  156.6863 H   0  0  0  0  0  0  0  0  0  0  0  0
  151.4043  145.2311  157.4094 H   0  0  0  0  0  0  0  0  0  0  0  0
  152.0424  145.4877  159.7276 H   0  0  0  0  0  0  0  0  0  0  0  0
  153.3538  143.6309  160.7288 H   0  0  0  0  0  0  0  0  0  0  0  0
  151.6715  143.1638  160.8798 H   0  0  0  0  0  0  0  0  0  0  0  0
  152.8228  141.2140  160.0215 H   0  0  0  0  0  0  0  0  0  0  0  0
  153.7339  142.1624  158.8718 H   0  0  0  0  0  0  0  0  0  0  0  0
  1  2  1  0  0  0  0
  1 18  1  0  0  0  0
  1 19  1  0  0  0  0
  1 20  1  0  0  0  0
  2  3  1  0  0  0  0
  2  9  1  0  0  0  0
  2 21  1  0  0  0  0
  3  4  1  0  0  0  0
  3 22  1  0  0  0  0
  3 23  1  0  0  0  0
  4  8  1  0  0  0  0
  4  5  1  0  0  0  0
  5  6  2  0  0  0  0
  5 24  1  0  0  0  0
  6  7  1  0  0  0  0
  6 25  1  0  0  0  0
  7  8  2  0  0  0  0
  7 26  1  0  0  0  0
  9 10  1  0  0  0  0
  9 27  1  0  0  0  0
 10 11  2  0  0  0  0
 10 12  1  0  0  0  0
 12 17  1  0  0  0  0
 12 13  1  0  0  0  0
 12 28  1  0  0  0  0
 13 14  1  0  0  0  0
 13 29  1  0  0  0  0
 13 30  1  0  0  0  0
 14 15  2  0  0  0  0
 14 31  1  0  0  0  0
 15 16  1  0  0  0  0
 15 32  1  0  0  0  0
 16 17  1  0  0  0  0
 16 33  1  0  0  0  0
 16 34  1  0  0  0  0
 17 35  1  0  0  0  0
 17 36  1  0  0  0  0
M  END
> <s_m_source_file>
AV-unprocessed.smi

> <i_m_source_file_index>
1360

> <i_lp_mmshare_version>
43012

> <i_f3d_flags>
0

> <s_epik_input>
bjFbY0hdW2NIXVtjSF1uMVtDSDJdW0NAQEhdKFtDSDNdKVtOSF1DKD1PKVtDQEBIXTJbQ0gyXVtDSF09W0NIXVtDSDJdW0NIMl0y

> <s_epik_cmdline>
J2VwaWtfcHl0aG9uJywgJy1waCcsICc3LjAnLCAnLXRuJywgJzgnLCAnLW1hJywgJzIwMCcsICctbWV0YWxfYmluZGluZycsICctaW1hZScsICc8aW5maWxlLm1hZT4nLCAnLW9tYWUnLCAnPG91dGZpbGUubWFlPic=

> <r_lp_tautomer_probability>
1

> <r_epik_Ionization_Penalty>
0.000315076

> <r_epik_Ionization_Penalty_Charging>
0

> <r_epik_Ionization_Penalty_Neutral>
0.000315076

> <r_epik_State_Penalty>
-0

> <r_epik_Charging_Adjusted_Penalty>
0

> <i_epik_Tot_Q>
0

> <i_epik_Tot_abs_Q>
0

> <r_epik_Metal_State_Penalty>
-0

> <b_epik_Metal_Only>
0

> <s_lp_Force_Field>
OPLS_2005

> <r_lp_Energy>
8.39031

> <b_lp_Chiralities_Consistent>
1

> <s_lp_Variant>
AV-unprocessed.smi:1360-1

> <Gold.Version>
5.8.1

> <Gold.Id.Protein>
6NUR|6NUR_protein|mol2

> <Gold.PLP.Fitness>
44.6884

> <Gold.PLP.PLP>
-39.1107

> <Gold.PLP.part.hbond>
-3.0000

> <Gold.PLP.part.metal>
0.0000

> <Gold.PLP.part.buried>
-3.0884

> <Gold.PLP.part.nonpolar>
-33.8201

> <Gold.PLP.part.repulsive>
0.2924

> <Gold.PLP.ligand.clash>
0.0000

> <Gold.PLP.ligand.torsion>
0.8002

> <Gold.PLP.Chemscore.Hbond>
1.7200

> <Gold.PLP.Chemscore.CHOScore>
0.6627

> <Gold.PLP.Chemscore.Metal>
0.0000

> <Gold.Chemscore.Hbonds>
donor molecule, donor type, donor heavy atom, donor atom, acceptor molecule, acceptor atom, score
      P1  H  7989  7998       L1     8  0.01
      P1  H  7997  8010       L1    11  1.00
      P1  H  8011  8017       L1     8  0.69
      L1  C     7    26       P1  8028  0.69

> <Gold.PLP.Chemscore.Internal.Correction>
0.0300

> <Gold.Rescore>
     Score         DG    S(hbond)    S(metal)    S(lipo)     H(rot)  DE(clash)    DE(int)     intcor
     15.40     -18.36       1.41        0.00     102.90       1.51       0.90       2.06       ----

> <Gold.Chemscore.Fitness>
15.4009

> <Gold.Chemscore.DG>
-18.3583

> <Gold.Chemscore.ZeroCoef>
-5.4800

> <Gold.Chemscore.Hbond>
1.4052

> <Gold.Chemscore.Metal>
0.0000

> <Gold.Chemscore.Lipo>
102.9015

> <Gold.Chemscore.Internal_Hbond>
0.0000

> <Gold.Chemscore.DEClash>
0.8976

> <Gold.Chemscore.DEInternal>
2.0598

> <Gold.Chemscore.Rot>
1.5057

> <Gold.Chemscore.Internal.Correction>
   9.000000E+99

> <Gold.Chemscore.Hbonds>
donor molecule, donor type, donor heavy atom, donor atom, acceptor molecule, acceptor atom, score
      P1  H  7997  8010       L1    11  0.65
      P1  H  8011  8017       L1     8  0.24

> <Gold.Chemscore.Hbond.Weighted>
-4.6935

> <Gold.Chemscore.Metal.Weighted>
-0.0000

> <Gold.Chemscore.Lipo.Weighted>
-12.0395

> <Gold.Chemscore.Internal_Hbond.Weighted>
0.0000

> <Gold.Chemscore.DEClash.Weighted>
0.8976

> <Gold.Chemscore.DEInternal.Weighted>
2.0598

> <Gold.Chemscore.Rot.Weighted>
3.8546

> <Gold.Chemscore.Internal.Correction.Weighted>
   9.000000E+99

> <Gold.Protein.RotatedTorsions>
[ 6907 6896 6895 6894 ] final -147.77 input  -60.11 | X-H torsion
[ 7974 7965 7964 7962 ] final   42.86 input  175.53 | X-H torsion
[ 8008 7997 7996 7995 ] final   45.30 input   59.86 | X-H torsion
[ 10167 10162 10161 10158 ] final  -69.53 input  -65.29 | X-H torsion
[ 10718 10713 10712 10709 ] final  -23.13 input   66.30 | X-H torsion
[ 10763 10752 10751 10750 ] final  152.70 input  -60.55 | X-H torsion
[ 11005 11000 10999 10996 ] final   -2.33 input  -57.11 | X-H torsion

> <Gold.Protein.ActiveResidues>
 VAL166  LYS551  ARG553  GLY616  TRP617  ASP618  TYR619  PRO620  LYS621  CYS622 
 ASP623  PHE694  ASN695  SER759  ASP760  ASP761  ALA762  ILE779  LEU786  VAL792 
 PHE793  MET794  SER795  GLU796  ALA797  LYS798  CYS799  TRP800  GLU811  SER814 

> <Gold.Protein.RotatedAtoms>
  151.1604  133.4849  159.2594 H   0  0  0  0  0  0  0  0  0  0  0  0  # atno 6907 bound_to 6896
  151.1460  135.0203  159.8657 H   0  0  0  0  0  0  0  0  0  0  0  0  # atno 6908 bound_to 6896
  152.5463  134.1492  159.8564 H   0  0  0  0  0  0  0  0  0  0  0  0  # atno 6909 bound_to 6896
  146.0704  139.5252  142.9601 H   0  0  0  0  0  0  0  0  0  0  0  0  # atno 7974 bound_to 7965
  155.3336  140.3404  155.4239 H   0  0  0  0  0  0  0  0  0  0  0  0  # atno 8008 bound_to 7997
  156.1849  140.1677  156.8241 H   0  0  0  0  0  0  0  0  0  0  0  0  # atno 8009 bound_to 7997
  154.5375  140.0732  156.8436 H   0  0  0  0  0  0  0  0  0  0  0  0  # atno 8010 bound_to 7997
  140.5423  143.2314  151.7066 H   0  0  0  0  0  0  0  0  0  0  0  0  # atno 10167 bound_to 10162
  156.4952  130.4575  149.6732 H   0  0  0  0  0  0  0  0  0  0  0  0  # atno 10718 bound_to 10713
  154.1242  135.2831  155.3201 H   0  0  0  0  0  0  0  0  0  0  0  0  # atno 10763 bound_to 10752
  154.6401  135.5405  153.7783 H   0  0  0  0  0  0  0  0  0  0  0  0  # atno 10764 bound_to 10752
  153.0303  135.6484  154.1395 H   0  0  0  0  0  0  0  0  0  0  0  0  # atno 10765 bound_to 10752
  140.6572  133.9352  155.8414 H   0  0  0  0  0  0  0  0  0  0  0  0  # atno 11005 bound_to 11000
  145.6401  141.0286  143.1816 LP  0  0  0  0  0  0  0  0  0  0  0  0  # atno 17320 bound_to 7965
  144.7228  139.7973  143.7376 LP  0  0  0  0  0  0  0  0  0  0  0  0  # atno 17321 bound_to 7965
  139.4994  144.3949  152.0241 LP  0  0  0  0  0  0  0  0  0  0  0  0  # atno 17342 bound_to 10162
  140.3059  144.3593  150.6047 LP  0  0  0  0  0  0  0  0  0  0  0  0  # atno 17343 bound_to 10162
  156.3387  130.7370  151.2312 LP  0  0  0  0  0  0  0  0  0  0  0  0  # atno 17370 bound_to 10713
  157.7469  131.0410  150.4624 LP  0  0  0  0  0  0  0  0  0  0  0  0  # atno 17371 bound_to 10713
  141.0493  134.0509  157.3804 LP  0  0  0  0  0  0  0  0  0  0  0  0  # atno 17394 bound_to 11000
  139.9025  135.0169  156.7337 LP  0  0  0  0  0  0  0  0  0  0  0  0  # atno 17395 bound_to 11000

$$$$
