AV-unprocessed.smi:2488|AV-procd|sdf|9794|dock1
  -GOLD-   2272013433D 1   1.00000     0.00000
 Structure written by MMmdl.
 33 34  0  0  0  0  0  0  0  0  1 V2000
  151.8000  144.3900  158.6858 C   0  0  0  0  0  0  0  0  0  0  0  0
  151.6214  143.0529  159.4139 C   0  0  0  0  0  0  0  0  0  0  0  0
  150.8297  142.0516  158.5931 C   0  0  0  0  0  0  0  0  0  0  0  0
  149.5158  142.3147  158.4161 N   0  0  0  0  0  0  0  0  0  0  0  0
  148.8160  141.4299  157.7025 C   0  0  0  0  0  0  0  0  0  0  0  0
  149.2791  140.3083  157.1458 N   0  0  0  0  0  0  0  0  0  0  0  0
  150.5954  140.0284  157.3098 C   0  0  0  0  0  0  0  0  0  0  0  0
  151.1245  138.8464  156.7515 N   0  0  0  0  0  0  0  0  0  0  0  0
  151.4473  137.8907  157.8090 C   0  0  0  0  0  0  0  0  0  0  0  0
  152.1683  136.6639  157.2352 C   0  0  0  0  0  0  0  0  0  0  0  0
  151.3560  136.0813  156.2261 O   0  0  0  0  0  0  0  0  0  0  0  0
  151.1548  136.9752  155.1385 C   0  0  0  0  0  0  0  0  0  0  0  0
  150.4141  138.2520  155.6044 C   0  0  2  0  0  0  0  0  0  0  0  0
  150.2268  139.1610  154.3710 C   0  0  0  0  0  0  0  0  0  0  0  0
  149.6758  138.6400  153.2694 N   0  0  0  0  0  0  0  0  0  0  0  0
  150.5914  140.3339  154.4147 O   0  0  0  0  0  0  0  0  0  0  0  0
  151.4310  140.8945  158.0521 C   0  0  0  0  0  0  0  0  0  0  0  0
  152.7481  140.6290  158.2318 F   0  0  0  0  0  0  0  0  0  0  0  0
  152.3676  145.0921  159.2966 H   0  0  0  0  0  0  0  0  0  0  0  0
  150.8353  144.8467  158.4622 H   0  0  0  0  0  0  0  0  0  0  0  0
  152.3354  144.2585  157.7451 H   0  0  0  0  0  0  0  0  0  0  0  0
  152.5980  142.6276  159.6484 H   0  0  0  0  0  0  0  0  0  0  0  0
  151.1240  143.2167  160.3702 H   0  0  0  0  0  0  0  0  0  0  0  0
  147.7664  141.6417  157.5629 H   0  0  0  0  0  0  0  0  0  0  0  0
  152.0786  138.3536  158.5688 H   0  0  0  0  0  0  0  0  0  0  0  0
  150.5277  137.5783  158.3075 H   0  0  0  0  0  0  0  0  0  0  0  0
  153.1448  136.9350  156.8300 H   0  0  0  0  0  0  0  0  0  0  0  0
  152.3414  135.9279  158.0203 H   0  0  0  0  0  0  0  0  0  0  0  0
  152.1182  137.2209  154.6869 H   0  0  0  0  0  0  0  0  0  0  0  0
  150.5754  136.4538  154.3753 H   0  0  0  0  0  0  0  0  0  0  0  0
  149.4211  137.9498  155.9428 H   0  0  0  0  0  0  0  0  0  0  0  0
  149.5480  139.2165  152.4503 H   0  0  0  0  0  0  0  0  0  0  0  0
  149.3936  137.6708  153.2607 H   0  0  0  0  0  0  0  0  0  0  0  0
  1  2  1  0  0  0  0
  1 19  1  0  0  0  0
  1 20  1  0  0  0  0
  1 21  1  0  0  0  0
  2  3  1  0  0  0  0
  2 22  1  0  0  0  0
  2 23  1  0  0  0  0
  3 17  1  0  0  0  0
  3  4  2  0  0  0  0
  4  5  1  0  0  0  0
  5  6  2  0  0  0  0
  5 24  1  0  0  0  0
  6  7  1  0  0  0  0
  7  8  1  0  0  0  0
  7 17  2  0  0  0  0
  8 13  1  0  0  0  0
  8  9  1  0  0  0  0
  9 10  1  0  0  0  0
  9 25  1  0  0  0  0
  9 26  1  0  0  0  0
 10 11  1  0  0  0  0
 10 27  1  0  0  0  0
 10 28  1  0  0  0  0
 11 12  1  0  0  0  0
 12 13  1  0  0  0  0
 12 29  1  0  0  0  0
 12 30  1  0  0  0  0
 13 14  1  0  0  0  0
 13 31  1  0  0  0  0
 14 15  1  0  0  0  0
 14 16  2  0  0  0  0
 15 32  1  0  0  0  0
 15 33  1  0  0  0  0
 17 18  1  0  0  0  0
M  END
> <s_m_source_file>
AV-unprocessed.smi

> <i_m_source_file_index>
2488

> <i_lp_mmshare_version>
43012

> <i_f3d_flags>
0

> <s_epik_input>
W0NIM11bQ0gyXWMxbltjSF1uYyhjMUYpTjJbQ0gyXVtDSDJdT1tDSDJdW0NASF0yQyg9TylbTkgyXQ==

> <s_epik_cmdline>
J2VwaWtfcHl0aG9uJywgJy1waCcsICc3LjAnLCAnLXRuJywgJzgnLCAnLW1hJywgJzIwMCcsICctbWV0YWxfYmluZGluZycsICctaW1hZScsICc8aW5maWxlLm1hZT4nLCAnLW9tYWUnLCAnPG91dGZpbGUubWFlPic=

> <r_lp_tautomer_probability>
1

> <r_epik_Ionization_Penalty>
2.73136e-05

> <r_epik_Ionization_Penalty_Charging>
0

> <r_epik_Ionization_Penalty_Neutral>
2.73136e-05

> <r_epik_State_Penalty>
-0

> <r_epik_Charging_Adjusted_Penalty>
0

> <i_epik_Tot_Q>
0

> <i_epik_Tot_abs_Q>
0

> <r_epik_Metal_State_Penalty>
-0

> <b_epik_Metal_Only>
0

> <s_lp_Force_Field>
OPLS_2005

> <r_lp_Energy>
13.0675

> <b_lp_Chiralities_Consistent>
1

> <s_lp_Variant>
AV-unprocessed.smi:2488-2

> <Gold.Version>
5.8.1

> <Gold.Id.Protein>
6NUR|6NUR_protein|mol2

> <Gold.PLP.Fitness>
32.4862

> <Gold.PLP.PLP>
-25.5111

> <Gold.PLP.part.hbond>
-2.9715

> <Gold.PLP.part.metal>
0.0000

> <Gold.PLP.part.buried>
-5.4310

> <Gold.PLP.part.nonpolar>
-18.0864

> <Gold.PLP.part.repulsive>
0.3647

> <Gold.PLP.ligand.clash>
0.0000

> <Gold.PLP.ligand.torsion>
0.5931

> <Gold.PLP.Chemscore.Hbond>
2.6574

> <Gold.PLP.Chemscore.CHOScore>
0.0000

> <Gold.PLP.Chemscore.Metal>
0.0000

> <Gold.Chemscore.Hbonds>
donor molecule, donor type, donor heavy atom, donor atom, acceptor molecule, acceptor atom, score
      L1  H    15    32       P1  7957  0.98
      L1  H    15    33       P1  7948  0.74
      P1  H  7989  7998       L1    16  0.88

> <Gold.PLP.Chemscore.Internal.Correction>
0.1891

> <Gold.Rescore>
     Score         DG    S(hbond)    S(metal)    S(lipo)     H(rot)  DE(clash)    DE(int)     intcor
     13.23     -15.08       2.65        0.00      47.06       1.86       0.00       1.85       ----

> <Gold.Chemscore.Fitness>
13.2295

> <Gold.Chemscore.DG>
-15.0833

> <Gold.Chemscore.ZeroCoef>
-5.4800

> <Gold.Chemscore.Hbond>
2.6509

> <Gold.Chemscore.Metal>
0.0000

> <Gold.Chemscore.Lipo>
47.0609

> <Gold.Chemscore.Internal_Hbond>
0.0000

> <Gold.Chemscore.DEClash>
0.0000

> <Gold.Chemscore.DEInternal>
1.8538

> <Gold.Chemscore.Rot>
1.8582

> <Gold.Chemscore.Internal.Correction>
   9.000000E+99

> <Gold.Chemscore.Hbonds>
donor molecule, donor type, donor heavy atom, donor atom, acceptor molecule, acceptor atom, score
      L1  H    15    32       P1  7957  0.89
      L1  H    15    33       P1  7948  0.66
      P1  H  7989  7998       L1    16  0.84

> <Gold.Chemscore.Hbond.Weighted>
-8.8541

> <Gold.Chemscore.Metal.Weighted>
-0.0000

> <Gold.Chemscore.Lipo.Weighted>
-5.5061

> <Gold.Chemscore.Internal_Hbond.Weighted>
0.0000

> <Gold.Chemscore.DEClash.Weighted>
0.0000

> <Gold.Chemscore.DEInternal.Weighted>
1.8538

> <Gold.Chemscore.Rot.Weighted>
4.7570

> <Gold.Chemscore.Internal.Correction.Weighted>
   9.000000E+99

> <Gold.Protein.RotatedTorsions>
[ 6907 6896 6895 6894 ] final  -86.10 input  -60.11 | X-H torsion
[ 7974 7965 7964 7962 ] final  111.26 input  175.53 | X-H torsion
[ 8008 7997 7996 7995 ] final   19.03 input   59.86 | X-H torsion
[ 10167 10162 10161 10158 ] final -172.26 input  -65.29 | X-H torsion
[ 10718 10713 10712 10709 ] final   13.93 input   66.30 | X-H torsion
[ 10763 10752 10751 10750 ] final  -90.92 input  -60.55 | X-H torsion
[ 11005 11000 10999 10996 ] final  -86.49 input  -57.11 | X-H torsion

> <Gold.Protein.ActiveResidues>
 VAL166  LYS551  ARG553  GLY616  TRP617  ASP618  TYR619  PRO620  LYS621  CYS622 
 ASP623  PHE694  ASN695  SER759  ASP760  ASP761  ALA762  ILE779  LEU786  VAL792 
 PHE793  MET794  SER795  GLU796  ALA797  LYS798  CYS799  TRP800  GLU811  SER814 

> <Gold.Protein.RotatedAtoms>
  150.6868  134.3103  159.4743 H   0  0  0  0  0  0  0  0  0  0  0  0  # atno 6907 bound_to 6896
  152.0989  134.9353  160.0579 H   0  0  0  0  0  0  0  0  0  0  0  0  # atno 6908 bound_to 6896
  152.0639  133.4040  159.4467 H   0  0  0  0  0  0  0  0  0  0  0  0  # atno 6909 bound_to 6896
  145.2445  139.2765  143.4100 H   0  0  0  0  0  0  0  0  0  0  0  0  # atno 7974 bound_to 7965
  154.9147  140.3019  155.5247 H   0  0  0  0  0  0  0  0  0  0  0  0  # atno 8008 bound_to 7997
  156.3013  140.2382  156.4126 H   0  0  0  0  0  0  0  0  0  0  0  0  # atno 8009 bound_to 7997
  154.8390  140.0414  157.1517 H   0  0  0  0  0  0  0  0  0  0  0  0  # atno 8010 bound_to 7997
  139.5755  144.1543  152.1444 H   0  0  0  0  0  0  0  0  0  0  0  0  # atno 10167 bound_to 10162
  157.0318  130.6196  149.5736 H   0  0  0  0  0  0  0  0  0  0  0  0  # atno 10718 bound_to 10713
  154.6707  135.5287  153.8135 H   0  0  0  0  0  0  0  0  0  0  0  0  # atno 10763 bound_to 10752
  153.0500  135.6528  154.0729 H   0  0  0  0  0  0  0  0  0  0  0  0  # atno 10764 bound_to 10752
  154.0628  135.2960  155.3302 H   0  0  0  0  0  0  0  0  0  0  0  0  # atno 10765 bound_to 10752
  141.1629  133.7457  156.9168 H   0  0  0  0  0  0  0  0  0  0  0  0  # atno 11005 bound_to 11000
  146.3319  140.2818  142.8610 LP  0  0  0  0  0  0  0  0  0  0  0  0  # atno 17320 bound_to 7965
  144.9559  140.8226  143.5543 LP  0  0  0  0  0  0  0  0  0  0  0  0  # atno 17321 bound_to 7965
  140.1085  144.5478  150.6941 LP  0  0  0  0  0  0  0  0  0  0  0  0  # atno 17342 bound_to 10162
  140.7037  143.2453  151.4788 LP  0  0  0  0  0  0  0  0  0  0  0  0  # atno 17343 bound_to 10162
  156.0067  130.5154  150.7853 LP  0  0  0  0  0  0  0  0  0  0  0  0  # atno 17370 bound_to 10713
  157.5171  131.0929  151.0125 LP  0  0  0  0  0  0  0  0  0  0  0  0  # atno 17371 bound_to 10713
  140.1479  134.9250  157.2553 LP  0  0  0  0  0  0  0  0  0  0  0  0  # atno 17394 bound_to 11000
  140.2758  134.3407  155.7358 LP  0  0  0  0  0  0  0  0  0  0  0  0  # atno 17395 bound_to 11000

$$$$
