AV-unprocessed.smi:148|AV-procd|sdf|1209|dock9
  -GOLD-   2262018383D 1   1.00000     0.00000
 Structure written by MMmdl.
 63 67  0  0  0  0  0  0  0  0  1 V2000
  150.4591  133.9937  157.3477 O   0  0  0  0  0  0  0  0  0  0  0  0
  150.3496  135.2141  156.6455 C   0  0  0  0  0  0  0  0  0  0  0  0
  149.0139  135.2788  155.8678 C   0  0  1  0  0  0  0  0  0  0  0  0
  148.5619  136.7504  155.6920 C   0  0  0  0  0  0  0  0  0  0  0  0
  149.3439  137.6906  156.4749 N   0  0  0  0  0  0  0  0  0  0  0  0
  148.9700  138.2965  157.6539 C   0  0  0  0  0  0  0  0  0  0  0  0
  149.8582  139.1000  158.1727 N   0  0  0  0  0  0  0  0  0  0  0  0
  150.9191  139.0473  157.2782 C   0  0  0  0  0  0  0  0  0  0  0  0
  152.1923  139.6706  157.2213 C   0  0  0  0  0  0  0  0  0  0  0  0
  152.6104  140.5243  158.1803 N   0  0  0  0  0  0  0  0  0  0  0  0
  151.8475  141.7725  158.1185 C   0  0  0  0  0  0  0  0  0  0  0  0
  152.5028  142.8677  158.9650 C   0  0  0  0  0  0  0  0  0  0  0  0
  152.6709  142.3786  160.4045 C   0  0  0  0  0  0  0  0  0  0  0  0
  153.4655  141.0658  160.4227 C   0  0  0  0  0  0  0  0  0  0  0  0
  152.8293  139.9653  159.5303 C   0  0  2  0  0  0  0  0  0  0  0  0
  153.7109  138.6666  159.5425 C   0  0  1  0  0  0  0  0  0  0  0  0
  154.1926  138.2086  160.9319 C   0  0  0  0  0  0  0  0  0  0  0  0
  154.6442  136.7523  160.7730 C   0  0  0  0  0  0  0  0  0  0  0  0
  154.0007  136.2445  159.4778 C   0  0  0  0  0  0  0  0  0  0  0  0
  153.0773  137.3671  158.9922 C   0  0  1  0  0  0  0  0  0  0  0  0
  151.7847  137.1575  159.5299 O   0  0  0  0  0  0  0  0  0  0  0  0
  152.9996  139.3820  156.1662 N   0  0  0  0  0  0  0  0  0  0  0  0
  152.5775  138.5405  155.2173 C   0  0  0  0  0  0  0  0  0  0  0  0
  151.4149  137.8885  155.1358 N   0  0  0  0  0  0  0  0  0  0  0  0
  150.6103  138.1738  156.1999 C   0  0  0  0  0  0  0  0  0  0  0  0
  149.0388  134.4949  154.5252 C   0  0  2  0  0  0  0  0  0  0  0  0
  147.6795  134.2905  153.8530 C   0  0  0  0  0  0  0  0  0  0  0  0
  147.6303  132.7917  153.5577 C   0  0  0  0  0  0  0  0  0  0  0  0
  148.9940  132.4040  153.5212 O   0  0  0  0  0  0  0  0  0  0  0  0
  149.6341  133.0822  154.5888 C   0  0  0  0  0  0  0  0  0  0  0  0
  149.8864  133.3601  156.9430 H   0  0  0  0  0  0  0  0  0  0  0  0
  150.4327  136.0356  157.3570 H   0  0  0  0  0  0  0  0  0  0  0  0
  151.2081  135.2850  155.9795 H   0  0  0  0  0  0  0  0  0  0  0  0
  148.2625  134.7827  156.4841 H   0  0  0  0  0  0  0  0  0  0  0  0
  148.6335  137.0501  154.6460 H   0  0  0  0  0  0  0  0  0  0  0  0
  147.5132  136.8582  155.9719 H   0  0  0  0  0  0  0  0  0  0  0  0
  148.0153  138.1158  158.1259 H   0  0  0  0  0  0  0  0  0  0  0  0
  151.7699  142.1123  157.0841 H   0  0  0  0  0  0  0  0  0  0  0  0
  150.8306  141.5963  158.4728 H   0  0  0  0  0  0  0  0  0  0  0  0
  153.4749  143.1282  158.5445 H   0  0  0  0  0  0  0  0  0  0  0  0
  151.8967  143.7737  158.9422 H   0  0  0  0  0  0  0  0  0  0  0  0
  153.1799  143.1355  161.0017 H   0  0  0  0  0  0  0  0  0  0  0  0
  151.6920  142.2243  160.8600 H   0  0  0  0  0  0  0  0  0  0  0  0
  154.4864  141.2601  160.0904 H   0  0  0  0  0  0  0  0  0  0  0  0
  153.5348  140.7344  161.4583 H   0  0  0  0  0  0  0  0  0  0  0  0
  151.8512  139.7346  159.9535 H   0  0  0  0  0  0  0  0  0  0  0  0
  154.6100  138.8706  158.9577 H   0  0  0  0  0  0  0  0  0  0  0  0
  154.9947  138.8348  161.3243 H   0  0  0  0  0  0  0  0  0  0  0  0
  153.3657  138.2492  161.6427 H   0  0  0  0  0  0  0  0  0  0  0  0
  155.7307  136.6916  160.6988 H   0  0  0  0  0  0  0  0  0  0  0  0
  154.3412  136.1552  161.6334 H   0  0  0  0  0  0  0  0  0  0  0  0
  154.7819  136.0749  158.7356 H   0  0  0  0  0  0  0  0  0  0  0  0
  153.4795  135.2958  159.6124 H   0  0  0  0  0  0  0  0  0  0  0  0
  153.0105  137.3439  157.9067 H   0  0  0  0  0  0  0  0  0  0  0  0
  151.1887  137.7681  159.1239 H   0  0  0  0  0  0  0  0  0  0  0  0
  153.2695  138.3665  154.4065 H   0  0  0  0  0  0  0  0  0  0  0  0
  149.6313  135.0573  153.8030 H   0  0  0  0  0  0  0  0  0  0  0  0
  146.8299  134.6104  154.4555 H   0  0  0  0  0  0  0  0  0  0  0  0
  147.6413  134.8583  152.9223 H   0  0  0  0  0  0  0  0  0  0  0  0
  147.1243  132.2567  154.3629 H   0  0  0  0  0  0  0  0  0  0  0  0
  147.1201  132.5631  152.6219 H   0  0  0  0  0  0  0  0  0  0  0  0
  150.7178  133.0786  154.4706 H   0  0  0  0  0  0  0  0  0  0  0  0
  149.3938  132.5712  155.5209 H   0  0  0  0  0  0  0  0  0  0  0  0
  1  2  1  0  0  0  0
  1 31  1  0  0  0  0
  2  3  1  0  0  0  0
  2 32  1  0  0  0  0
  2 33  1  0  0  0  0
  3  4  1  0  0  0  0
  3 26  1  0  0  0  0
  3 34  1  0  0  0  0
  4  5  1  0  0  0  0
  4 35  1  0  0  0  0
  4 36  1  0  0  0  0
  5 25  1  0  0  0  0
  5  6  1  0  0  0  0
  6  7  2  0  0  0  0
  6 37  1  0  0  0  0
  7  8  1  0  0  0  0
  8 25  2  0  0  0  0
  8  9  1  0  0  0  0
  9 10  1  0  0  0  0
  9 22  2  0  0  0  0
 10 15  1  0  0  0  0
 10 11  1  0  0  0  0
 11 12  1  0  0  0  0
 11 38  1  0  0  0  0
 11 39  1  0  0  0  0
 12 13  1  0  0  0  0
 12 40  1  0  0  0  0
 12 41  1  0  0  0  0
 13 14  1  0  0  0  0
 13 42  1  0  0  0  0
 13 43  1  0  0  0  0
 14 15  1  0  0  0  0
 14 44  1  0  0  0  0
 14 45  1  0  0  0  0
 15 16  1  0  0  0  0
 15 46  1  0  0  0  0
 16 20  1  0  0  0  0
 16 17  1  0  0  0  0
 16 47  1  0  0  0  0
 17 18  1  0  0  0  0
 17 48  1  0  0  0  0
 17 49  1  0  0  0  0
 18 19  1  0  0  0  0
 18 50  1  0  0  0  0
 18 51  1  0  0  0  0
 19 20  1  0  0  0  0
 19 52  1  0  0  0  0
 19 53  1  0  0  0  0
 20 21  1  0  0  0  0
 20 54  1  0  0  0  0
 21 55  1  0  0  0  0
 22 23  1  0  0  0  0
 23 24  2  0  0  0  0
 23 56  1  0  0  0  0
 24 25  1  0  0  0  0
 26 30  1  0  0  0  0
 26 27  1  0  0  0  0
 26 57  1  0  0  0  0
 27 28  1  0  0  0  0
 27 58  1  0  0  0  0
 27 59  1  0  0  0  0
 28 29  1  0  0  0  0
 28 60  1  0  0  0  0
 28 61  1  0  0  0  0
 29 30  1  0  0  0  0
 30 62  1  0  0  0  0
 30 63  1  0  0  0  0
M  END
> <s_m_source_file>
AV-unprocessed.smi

> <i_m_source_file_index>
148

> <i_lp_mmshare_version>
43012

> <i_f3d_flags>
0

> <s_epik_input>
W0NIMl0xT1tDSDJdW0NIMl1bQ0BIXTFbQ0BIXShbQ0gyXVtPSF0pW0NIMl1uKFtjSF1uMiljKGMyMyluW2NIXW5jM040W0NIMl1bQ0gyXVtDSDJdW0NIMl1bQ0BIXTRbQ0BASF01W0NIMl1bQ0gyXVtDSDJdW0NASF01W09IXQ==

> <s_epik_cmdline>
J2VwaWtfcHl0aG9uJywgJy1waCcsICc3LjAnLCAnLXRuJywgJzgnLCAnLW1hJywgJzIwMCcsICctbWV0YWxfYmluZGluZycsICctaW1hZScsICc8aW5maWxlLm1hZT4nLCAnLW9tYWUnLCAnPG91dGZpbGUubWFlPic=

> <r_lp_tautomer_probability>
1

> <r_epik_Ionization_Penalty>
0.00556303

> <r_epik_Ionization_Penalty_Charging>
0

> <r_epik_Ionization_Penalty_Neutral>
0.00556303

> <r_epik_State_Penalty>
0.00401767

> <r_epik_Charging_Adjusted_Penalty>
0.00401767

> <i_epik_Tot_Q>
0

> <i_epik_Tot_abs_Q>
0

> <r_epik_Metal_State_Penalty>
-0

> <b_epik_Metal_Only>
0

> <s_lp_Force_Field>
OPLS_2005

> <r_lp_Energy>
71.0858

> <b_lp_Chiralities_Consistent>
1

> <s_lp_Variant>
AV-unprocessed.smi:148-8

> <Gold.Version>
5.8.1

> <Gold.Id.Protein>
6NUR|6NUR_protein|mol2

> <Gold.PLP.Fitness>
46.1151

> <Gold.PLP.PLP>
-40.5166

> <Gold.PLP.part.hbond>
-3.5016

> <Gold.PLP.part.metal>
0.0000

> <Gold.PLP.part.buried>
-5.7550

> <Gold.PLP.part.nonpolar>
-32.0028

> <Gold.PLP.part.repulsive>
0.2109

> <Gold.PLP.ligand.clash>
0.0000

> <Gold.PLP.ligand.torsion>
1.5280

> <Gold.PLP.Chemscore.Hbond>
2.6560

> <Gold.PLP.Chemscore.CHOScore>
0.0000

> <Gold.PLP.Chemscore.Metal>
0.0000

> <Gold.Chemscore.Hbonds>
donor molecule, donor type, donor heavy atom, donor atom, acceptor molecule, acceptor atom, score
      P1  H  6896  6908       L1     1  0.75
      P1  H  6896  6909       L1    21  0.96
      P1  H  7997  8010       L1    22  1.00

> <Gold.PLP.Chemscore.Internal.Correction>
0.6864

> <Gold.Rescore>
     Score         DG    S(hbond)    S(metal)    S(lipo)     H(rot)  DE(clash)    DE(int)     intcor
     14.79     -17.38       2.65        0.00      98.78       3.32       0.06       2.53       ----

> <Gold.Chemscore.Fitness>
14.7874

> <Gold.Chemscore.DG>
-17.3771

> <Gold.Chemscore.ZeroCoef>
-5.4800

> <Gold.Chemscore.Hbond>
2.6465

> <Gold.Chemscore.Metal>
0.0000

> <Gold.Chemscore.Lipo>
98.7840

> <Gold.Chemscore.Internal_Hbond>
0.0000

> <Gold.Chemscore.DEClash>
0.0638

> <Gold.Chemscore.DEInternal>
2.5259

> <Gold.Chemscore.Rot>
3.3203

> <Gold.Chemscore.Internal.Correction>
   9.000000E+99

> <Gold.Chemscore.Hbonds>
donor molecule, donor type, donor heavy atom, donor atom, acceptor molecule, acceptor atom, score
      P1  H  6896  6908       L1     1  0.72
      P1  H  6896  6909       L1    21  0.64
      P1  H  7997  8010       L1    22  0.38

> <Gold.Chemscore.Hbond.Weighted>
-8.8394

> <Gold.Chemscore.Metal.Weighted>
-0.0000

> <Gold.Chemscore.Lipo.Weighted>
-11.5577

> <Gold.Chemscore.Internal_Hbond.Weighted>
0.0000

> <Gold.Chemscore.DEClash.Weighted>
0.0638

> <Gold.Chemscore.DEInternal.Weighted>
2.5259

> <Gold.Chemscore.Rot.Weighted>
8.5000

> <Gold.Chemscore.Internal.Correction.Weighted>
   9.000000E+99

> <Gold.Protein.RotatedTorsions>
[ 6907 6896 6895 6894 ] final  118.67 input  -60.11 | X-H torsion
[ 7974 7965 7964 7962 ] final  -34.70 input  175.53 | X-H torsion
[ 8008 7997 7996 7995 ] final   61.42 input   59.86 | X-H torsion
[ 10167 10162 10161 10158 ] final   84.38 input  -65.29 | X-H torsion
[ 10718 10713 10712 10709 ] final  163.66 input   66.30 | X-H torsion
[ 10763 10752 10751 10750 ] final  -77.13 input  -60.55 | X-H torsion
[ 11005 11000 10999 10996 ] final   68.25 input  -57.11 | X-H torsion

> <Gold.Protein.ActiveResidues>
 VAL166  LYS551  ARG553  GLY616  TRP617  ASP618  TYR619  PRO620  LYS621  CYS622 
 ASP623  PHE694  ASN695  SER759  ASP760  ASP761  ALA762  ILE779  LEU786  VAL792 
 PHE793  MET794  SER795  GLU796  ALA797  LYS798  CYS799  TRP800  GLU811  SER814 

> <Gold.Protein.RotatedAtoms>
  152.4526  133.7660  159.6772 H   0  0  0  0  0  0  0  0  0  0  0  0  # atno 6907 bound_to 6896
  150.8443  133.7876  159.3055 H   0  0  0  0  0  0  0  0  0  0  0  0  # atno 6908 bound_to 6896
  151.5492  135.1070  159.9997 H   0  0  0  0  0  0  0  0  0  0  0  0  # atno 6909 bound_to 6896
  146.0808  140.6070  142.8909 H   0  0  0  0  0  0  0  0  0  0  0  0  # atno 7974 bound_to 7965
  155.5981  140.3493  155.4586 H   0  0  0  0  0  0  0  0  0  0  0  0  # atno 8008 bound_to 7997
  156.0250  140.1262  157.0343 H   0  0  0  0  0  0  0  0  0  0  0  0  # atno 8009 bound_to 7997
  154.4329  140.1055  156.6003 H   0  0  0  0  0  0  0  0  0  0  0  0  # atno 8010 bound_to 7997
  139.9086  144.6286  150.8561 H   0  0  0  0  0  0  0  0  0  0  0  0  # atno 10167 bound_to 10162
  157.1054  131.0454  151.2480 H   0  0  0  0  0  0  0  0  0  0  0  0  # atno 10718 bound_to 10713
  154.5090  135.5774  153.6590 H   0  0  0  0  0  0  0  0  0  0  0  0  # atno 10763 bound_to 10752
  152.9893  135.6154  154.2904 H   0  0  0  0  0  0  0  0  0  0  0  0  # atno 10764 bound_to 10752
  154.2817  135.2851  155.2673 H   0  0  0  0  0  0  0  0  0  0  0  0  # atno 10765 bound_to 10752
  139.9722  134.6880  156.0423 H   0  0  0  0  0  0  0  0  0  0  0  0  # atno 11005 bound_to 11000
  144.7292  140.4619  143.6950 LP  0  0  0  0  0  0  0  0  0  0  0  0  # atno 17320 bound_to 7965
  145.6222  139.1525  143.3016 LP  0  0  0  0  0  0  0  0  0  0  0  0  # atno 17321 bound_to 7965
  140.7690  143.3382  151.2263 LP  0  0  0  0  0  0  0  0  0  0  0  0  # atno 17342 bound_to 10162
  139.6962  143.9609  152.2884 LP  0  0  0  0  0  0  0  0  0  0  0  0  # atno 17343 bound_to 10162
  157.4605  130.7650  149.7231 LP  0  0  0  0  0  0  0  0  0  0  0  0  # atno 17370 bound_to 10713
  155.9863  130.3976  150.3218 LP  0  0  0  0  0  0  0  0  0  0  0  0  # atno 17371 bound_to 10713
  141.1402  133.6566  156.3707 LP  0  0  0  0  0  0  0  0  0  0  0  0  # atno 17394 bound_to 11000
  140.5268  134.6251  157.5337 LP  0  0  0  0  0  0  0  0  0  0  0  0  # atno 17395 bound_to 11000

$$$$
