AV-unprocessed.smi:437|AV-procd|sdf|2562|dock5
  -GOLD-   2262022533D 1   1.00000     0.00000
 Structure written by MMmdl.
 48 49  0  0  0  0  0  0  0  0  1 V2000
  148.6508  136.1809  163.7396 C   0  0  0  0  0  0  0  0  0  0  0  0
  148.9790  135.3257  162.5454 C   0  0  0  0  0  0  0  0  0  0  0  0
  149.1029  135.9350  161.4124 N   0  0  0  0  0  0  0  0  0  0  0  0
  149.3963  135.2446  160.2523 N   0  0  0  0  0  0  0  0  0  0  0  0
  149.4907  136.0964  159.0573 C   0  0  0  0  0  0  0  0  0  0  0  0
  150.8032  136.8917  158.9783 C   0  0  0  0  0  0  0  0  0  0  0  0
  151.8839  136.3037  158.8822 O   0  0  0  0  0  0  0  0  0  0  0  0
  150.6543  138.2313  159.0127 N   0  0  0  0  0  0  0  0  0  0  0  0
  151.6211  139.1674  158.9589 C   0  0  0  0  0  0  0  0  0  0  0  0
  152.8254  138.9512  158.8061 O   0  0  0  0  0  0  0  0  0  0  0  0
  151.1042  140.3978  159.0919 N   0  0  0  0  0  0  0  0  0  0  0  0
  151.8003  141.6474  158.7911 C   0  0  1  0  0  0  0  0  0  0  0  0
  150.7930  142.7033  158.2862 C   0  0  0  0  0  0  0  0  0  0  0  0
  151.4737  144.0526  158.0154 C   0  0  0  0  0  0  0  0  0  0  0  0
  152.2103  144.5571  159.2633 C   0  0  0  0  0  0  0  0  0  0  0  0
  153.2251  143.5171  159.7613 C   0  0  0  0  0  0  0  0  0  0  0  0
  152.5616  142.1534  160.0423 C   0  0  2  0  0  0  0  0  0  0  0  0
  153.6044  141.1409  160.5490 C   0  0  0  0  0  0  0  0  0  0  0  0
  149.5857  133.8958  160.1779 C   0  0  0  0  0  0  0  0  0  0  0  0
  149.8469  133.3209  159.1200 O   0  0  0  0  0  0  0  0  0  0  0  0
  149.4461  133.2120  161.4656 C   0  0  0  0  0  0  0  0  0  0  0  0
  149.6309  131.7971  161.4320 C   0  0  0  0  0  0  0  0  0  0  0  0
  149.7969  130.6515  161.4180 N   0  0  0  0  0  0  0  0  0  0  0  0
  149.1592  133.8790  162.6116 C   0  0  0  0  0  0  0  0  0  0  0  0
  149.0046  133.2157  163.9734 C   0  0  0  0  0  0  0  0  0  0  0  0
  149.4736  136.1768  164.4548 H   0  0  0  0  0  0  0  0  0  0  0  0
  147.7587  135.8131  164.2472 H   0  0  0  0  0  0  0  0  0  0  0  0
  148.4631  137.2183  163.4581 H   0  0  0  0  0  0  0  0  0  0  0  0
  149.4100  135.4853  158.1564 H   0  0  0  0  0  0  0  0  0  0  0  0
  148.6458  136.7866  159.0166 H   0  0  0  0  0  0  0  0  0  0  0  0
  149.7068  138.5715  159.0849 H   0  0  0  0  0  0  0  0  0  0  0  0
  150.1588  140.4811  159.4359 H   0  0  0  0  0  0  0  0  0  0  0  0
  152.5325  141.4605  158.0028 H   0  0  0  0  0  0  0  0  0  0  0  0
  150.3061  142.3559  157.3742 H   0  0  0  0  0  0  0  0  0  0  0  0
  150.0009  142.8408  159.0238 H   0  0  0  0  0  0  0  0  0  0  0  0
  152.1791  143.9477  157.1901 H   0  0  0  0  0  0  0  0  0  0  0  0
  150.7323  144.7867  157.6984 H   0  0  0  0  0  0  0  0  0  0  0  0
  152.7185  145.4956  159.0409 H   0  0  0  0  0  0  0  0  0  0  0  0
  151.4894  144.7742  160.0525 H   0  0  0  0  0  0  0  0  0  0  0  0
  154.0139  143.3964  159.0177 H   0  0  0  0  0  0  0  0  0  0  0  0
  153.7093  143.8892  160.6649 H   0  0  0  0  0  0  0  0  0  0  0  0
  151.8345  142.3013  160.8427 H   0  0  0  0  0  0  0  0  0  0  0  0
  154.3473  140.9216  159.7815 H   0  0  0  0  0  0  0  0  0  0  0  0
  153.1426  140.1985  160.8440 H   0  0  0  0  0  0  0  0  0  0  0  0
  154.1329  141.5272  161.4210 H   0  0  0  0  0  0  0  0  0  0  0  0
  149.2644  132.1577  163.9478 H   0  0  0  0  0  0  0  0  0  0  0  0
  147.9738  133.2954  164.3200 H   0  0  0  0  0  0  0  0  0  0  0  0
  149.6531  133.6903  164.7104 H   0  0  0  0  0  0  0  0  0  0  0  0
  1  2  1  0  0  0  0
  1 26  1  0  0  0  0
  1 27  1  0  0  0  0
  1 28  1  0  0  0  0
  2 24  1  0  0  0  0
  2  3  2  0  0  0  0
  3  4  1  0  0  0  0
  4  5  1  0  0  0  0
  4 19  1  0  0  0  0
  5  6  1  0  0  0  0
  5 29  1  0  0  0  0
  5 30  1  0  0  0  0
  6  7  2  0  0  0  0
  6  8  1  0  0  0  0
  8  9  1  0  0  0  0
  8 31  1  0  0  0  0
  9 10  2  0  0  0  0
  9 11  1  0  0  0  0
 11 12  1  0  0  0  0
 11 32  1  0  0  0  0
 12 17  1  0  0  0  0
 12 13  1  0  0  0  0
 12 33  1  0  0  0  0
 13 14  1  0  0  0  0
 13 34  1  0  0  0  0
 13 35  1  0  0  0  0
 14 15  1  0  0  0  0
 14 36  1  0  0  0  0
 14 37  1  0  0  0  0
 15 16  1  0  0  0  0
 15 38  1  0  0  0  0
 15 39  1  0  0  0  0
 16 17  1  0  0  0  0
 16 40  1  0  0  0  0
 16 41  1  0  0  0  0
 17 18  1  0  0  0  0
 17 42  1  0  0  0  0
 18 43  1  0  0  0  0
 18 44  1  0  0  0  0
 18 45  1  0  0  0  0
 19 20  2  0  0  0  0
 19 21  1  0  0  0  0
 21 22  1  0  0  0  0
 21 24  2  0  0  0  0
 22 23  3  0  0  0  0
 24 25  1  0  0  0  0
 25 46  1  0  0  0  0
 25 47  1  0  0  0  0
 25 48  1  0  0  0  0
M  END
> <s_m_source_file>
AV-unprocessed.smi

> <i_m_source_file_index>
437

> <i_lp_mmshare_version>
43012

> <i_f3d_flags>
0

> <s_epik_input>
TiNDYyhjMVtDSDNdKWMoPU8pbihuYzFbQ0gzXSlbQ0gyXUMoPU8pW05IXUMoPU8pW05IXVtDQEBIXTJbQ0gyXVtDSDJdW0NIMl1bQ0gyXVtDQEhdMltDSDNd

> <s_epik_cmdline>
J2VwaWtfcHl0aG9uJywgJy1waCcsICc3LjAnLCAnLXRuJywgJzgnLCAnLW1hJywgJzIwMCcsICctbWV0YWxfYmluZGluZycsICctaW1hZScsICc8aW5maWxlLm1hZT4nLCAnLW9tYWUnLCAnPG91dGZpbGUubWFlPic=

> <r_lp_tautomer_probability>
1

> <r_epik_Ionization_Penalty>
3.27035e-05

> <r_epik_Ionization_Penalty_Charging>
1.6965e-11

> <r_epik_Ionization_Penalty_Neutral>
3.27035e-05

> <r_epik_State_Penalty>
-0

> <r_epik_Charging_Adjusted_Penalty>
1.6965e-11

> <i_epik_Tot_Q>
0

> <i_epik_Tot_abs_Q>
0

> <r_epik_Metal_State_Penalty>
-0

> <b_epik_Metal_Only>
0

> <s_lp_Force_Field>
OPLS_2005

> <r_lp_Energy>
26.7465

> <b_lp_Chiralities_Consistent>
1

> <s_lp_Variant>
AV-unprocessed.smi:437-4

> <Gold.Version>
5.8.1

> <Gold.Id.Protein>
6NUR|6NUR_protein|mol2

> <Gold.PLP.Fitness>
52.4793

> <Gold.PLP.PLP>
-47.9668

> <Gold.PLP.part.hbond>
-3.6875

> <Gold.PLP.part.metal>
0.0000

> <Gold.PLP.part.buried>
-1.5172

> <Gold.PLP.part.nonpolar>
-42.8523

> <Gold.PLP.part.repulsive>
0.3564

> <Gold.PLP.ligand.clash>
0.0000

> <Gold.PLP.ligand.torsion>
0.6463

> <Gold.PLP.Chemscore.Hbond>
1.9271

> <Gold.PLP.Chemscore.CHOScore>
0.0000

> <Gold.PLP.Chemscore.Metal>
0.0000

> <Gold.Chemscore.Hbonds>
donor molecule, donor type, donor heavy atom, donor atom, acceptor molecule, acceptor atom, score
      P1  H  6896  6907       L1    20  0.03
      P1  H  6896  6908       L1     7  0.26
      P1  H  6931  6943       L1     3  0.19

> <Gold.PLP.Chemscore.Internal.Correction>
0.0237

> <Gold.Rescore>
     Score         DG    S(hbond)    S(metal)    S(lipo)     H(rot)  DE(clash)    DE(int)     intcor
     13.03     -16.31       0.19        0.00     121.30       1.57       0.16       3.12       ----

> <Gold.Chemscore.Fitness>
13.0283

> <Gold.Chemscore.DG>
-16.3065

> <Gold.Chemscore.ZeroCoef>
-5.4800

> <Gold.Chemscore.Hbond>
0.1922

> <Gold.Chemscore.Metal>
0.0000

> <Gold.Chemscore.Lipo>
121.3035

> <Gold.Chemscore.Internal_Hbond>
0.0000

> <Gold.Chemscore.DEClash>
0.1579

> <Gold.Chemscore.DEInternal>
3.1202

> <Gold.Chemscore.Rot>
1.5656

> <Gold.Chemscore.Internal.Correction>
   9.000000E+99

> <Gold.Chemscore.Hbonds>
donor molecule, donor type, donor heavy atom, donor atom, acceptor molecule, acceptor atom, score
      P1  H  6896  6908       L1     7  0.01
      P1  H  6931  6943       L1     3  0.12

> <Gold.Chemscore.Hbond.Weighted>
-0.6418

> <Gold.Chemscore.Metal.Weighted>
-0.0000

> <Gold.Chemscore.Lipo.Weighted>
-14.1925

> <Gold.Chemscore.Internal_Hbond.Weighted>
0.0000

> <Gold.Chemscore.DEClash.Weighted>
0.1579

> <Gold.Chemscore.DEInternal.Weighted>
3.1202

> <Gold.Chemscore.Rot.Weighted>
4.0079

> <Gold.Chemscore.Internal.Correction.Weighted>
   9.000000E+99

> <Gold.Protein.RotatedTorsions>
[ 6907 6896 6895 6894 ] final -139.33 input  -60.11 | X-H torsion
[ 7974 7965 7964 7962 ] final -115.53 input  175.53 | X-H torsion
[ 8008 7997 7996 7995 ] final   43.39 input   59.86 | X-H torsion
[ 10167 10162 10161 10158 ] final  125.56 input  -65.29 | X-H torsion
[ 10718 10713 10712 10709 ] final  174.05 input   66.30 | X-H torsion
[ 10763 10752 10751 10750 ] final  -53.08 input  -60.55 | X-H torsion
[ 11005 11000 10999 10996 ] final   10.19 input  -57.11 | X-H torsion

> <Gold.Protein.ActiveResidues>
 VAL166  LYS551  ARG553  GLY616  TRP617  ASP618  TYR619  PRO620  LYS621  CYS622 
 ASP623  PHE694  ASN695  SER759  ASP760  ASP761  ALA762  ILE779  LEU786  VAL792 
 PHE793  MET794  SER795  GLU796  ALA797  LYS798  CYS799  TRP800  GLU811  SER814 

> <Gold.Protein.RotatedAtoms>
  151.0465  133.5661  159.2646 H   0  0  0  0  0  0  0  0  0  0  0  0  # atno 6907 bound_to 6896
  151.2688  135.0677  159.9136 H   0  0  0  0  0  0  0  0  0  0  0  0  # atno 6908 bound_to 6896
  152.5374  134.0198  159.8030 H   0  0  0  0  0  0  0  0  0  0  0  0  # atno 6909 bound_to 6896
  145.1073  140.8589  143.3891 H   0  0  0  0  0  0  0  0  0  0  0  0  # atno 7974 bound_to 7965
  155.3019  140.3385  155.4247 H   0  0  0  0  0  0  0  0  0  0  0  0  # atno 8008 bound_to 7997
  156.1997  140.1728  156.7964 H   0  0  0  0  0  0  0  0  0  0  0  0  # atno 8009 bound_to 7997
  154.5543  140.0699  156.8702 H   0  0  0  0  0  0  0  0  0  0  0  0  # atno 8010 bound_to 7997
  139.5678  144.6922  151.3861 H   0  0  0  0  0  0  0  0  0  0  0  0  # atno 10167 bound_to 10162
  156.9553  131.0044  151.2939 H   0  0  0  0  0  0  0  0  0  0  0  0  # atno 10718 bound_to 10713
  154.1530  135.6487  153.4968 H   0  0  0  0  0  0  0  0  0  0  0  0  # atno 10763 bound_to 10752
  153.0132  135.5342  154.6788 H   0  0  0  0  0  0  0  0  0  0  0  0  # atno 10764 bound_to 10752
  154.6081  135.2951  155.0433 H   0  0  0  0  0  0  0  0  0  0  0  0  # atno 10765 bound_to 10752
  140.5173  134.0593  155.7835 H   0  0  0  0  0  0  0  0  0  0  0  0  # atno 11005 bound_to 11000
  145.0887  139.2906  143.5746 LP  0  0  0  0  0  0  0  0  0  0  0  0  # atno 17320 bound_to 7965
  146.3527  140.0417  142.8642 LP  0  0  0  0  0  0  0  0  0  0  0  0  # atno 17321 bound_to 7965
  140.6962  143.7742  150.7331 LP  0  0  0  0  0  0  0  0  0  0  0  0  # atno 17342 bound_to 10162
  140.1239  143.4587  152.2296 LP  0  0  0  0  0  0  0  0  0  0  0  0  # atno 17343 bound_to 10162
  157.5694  130.8300  149.8371 LP  0  0  0  0  0  0  0  0  0  0  0  0  # atno 17370 bound_to 10713
  156.0345  130.3755  150.1597 LP  0  0  0  0  0  0  0  0  0  0  0  0  # atno 17371 bound_to 10713
  141.1353  133.9232  157.2447 LP  0  0  0  0  0  0  0  0  0  0  0  0  # atno 17394 bound_to 11000
  139.9625  135.0150  156.9300 LP  0  0  0  0  0  0  0  0  0  0  0  0  # atno 17395 bound_to 11000

$$$$
