AV-unprocessed.smi:1764|AV-procd|sdf|7133|dock7
  -GOLD-   22720 8373D 1   1.00000     0.00000
 Structure written by MMmdl.
 31 32  0  0  0  0  0  0  0  0  1 V2000
  144.4107  136.4937  152.7034 O   0  0  0  0  0  0  0  0  0  0  0  0
  145.6168  136.4059  152.4713 C   0  0  0  0  0  0  0  0  0  0  0  0
  146.5210  137.2951  152.9069 N   0  0  0  0  0  0  0  0  0  0  0  0
  146.2246  138.4830  153.7014 C   0  0  0  0  0  0  0  0  0  0  0  0
  147.2044  139.6296  153.3997 C   0  0  1  0  0  0  0  0  0  0  0  0
  146.8621  140.9675  154.0562 C   0  0  0  0  0  0  0  0  0  0  0  0
  148.2148  141.6399  154.0933 C   0  0  0  0  0  0  0  0  0  0  0  0
  149.1365  140.4681  154.4192 C   0  0  0  0  0  0  0  0  0  0  0  0
  148.5041  139.3065  153.8863 O   0  0  0  0  0  0  0  0  0  0  0  0
  146.2018  135.4302  151.7543 N   0  0  0  0  0  0  0  0  0  0  0  0
  145.5910  134.3035  151.1416 C   0  0  0  0  0  0  0  0  0  0  0  0
  146.4891  133.3642  150.5862 C   0  0  0  0  0  0  0  0  0  0  0  0
  145.9836  132.2094  149.9583 C   0  0  0  0  0  0  0  0  0  0  0  0
  144.5910  132.0227  149.9026 C   0  0  0  0  0  0  0  0  0  0  0  0
  143.7665  133.0059  150.4800 C   0  0  0  0  0  0  0  0  0  0  0  0
  144.2490  134.1137  151.0816 N   0  0  0  0  0  0  0  0  0  0  0  0
  147.4897  137.1437  152.6666 H   0  0  0  0  0  0  0  0  0  0  0  0
  145.1942  138.8111  153.5534 H   0  0  0  0  0  0  0  0  0  0  0  0
  146.3052  138.2058  154.7525 H   0  0  0  0  0  0  0  0  0  0  0  0
  147.2888  139.7720  152.3210 H   0  0  0  0  0  0  0  0  0  0  0  0
  146.1155  141.5376  153.5024 H   0  0  0  0  0  0  0  0  0  0  0  0
  146.4941  140.8159  155.0720 H   0  0  0  0  0  0  0  0  0  0  0  0
  148.4562  142.0477  153.1108 H   0  0  0  0  0  0  0  0  0  0  0  0
  148.2755  142.4468  154.8240 H   0  0  0  0  0  0  0  0  0  0  0  0
  150.1366  140.6018  154.0063 H   0  0  0  0  0  0  0  0  0  0  0  0
  149.2301  140.3456  155.4989 H   0  0  0  0  0  0  0  0  0  0  0  0
  147.2016  135.4989  151.6363 H   0  0  0  0  0  0  0  0  0  0  0  0
  147.5566  133.5227  150.6382 H   0  0  0  0  0  0  0  0  0  0  0  0
  146.6537  131.4802  149.5275 H   0  0  0  0  0  0  0  0  0  0  0  0
  144.1659  131.1495  149.4301 H   0  0  0  0  0  0  0  0  0  0  0  0
  142.6920  132.9001  150.4594 H   0  0  0  0  0  0  0  0  0  0  0  0
  1  2  2  0  0  0  0
  2  3  1  0  0  0  0
  2 10  1  0  0  0  0
  3  4  1  0  0  0  0
  3 17  1  0  0  0  0
  4  5  1  0  0  0  0
  4 18  1  0  0  0  0
  4 19  1  0  0  0  0
  5  9  1  0  0  0  0
  5  6  1  0  0  0  0
  5 20  1  0  0  0  0
  6  7  1  0  0  0  0
  6 21  1  0  0  0  0
  6 22  1  0  0  0  0
  7  8  1  0  0  0  0
  7 23  1  0  0  0  0
  7 24  1  0  0  0  0
  8  9  1  0  0  0  0
  8 25  1  0  0  0  0
  8 26  1  0  0  0  0
 10 11  1  0  0  0  0
 10 27  1  0  0  0  0
 11 16  1  0  0  0  0
 11 12  2  0  0  0  0
 12 13  1  0  0  0  0
 12 28  1  0  0  0  0
 13 14  2  0  0  0  0
 13 29  1  0  0  0  0
 14 15  1  0  0  0  0
 14 30  1  0  0  0  0
 15 16  2  0  0  0  0
 15 31  1  0  0  0  0
M  END
> <s_m_source_file>
AV-unprocessed.smi

> <i_m_source_file_index>
1764

> <i_lp_mmshare_version>
43012

> <i_f3d_flags>
0

> <s_epik_input>
bjFbY0hdW2NIXVtjSF1bY0hdYzFbTkhdQyg9TylbTkhdW0NIMl1bQ0BASF0yW0NIMl1bQ0gyXVtDSDJdTzI=

> <s_epik_cmdline>
J2VwaWtfcHl0aG9uJywgJy1waCcsICc3LjAnLCAnLXRuJywgJzgnLCAnLW1hJywgJzIwMCcsICctbWV0YWxfYmluZGluZycsICctaW1hZScsICc8aW5maWxlLm1hZT4nLCAnLW9tYWUnLCAnPG91dGZpbGUubWFlPic=

> <r_lp_tautomer_probability>
1

> <r_epik_Ionization_Penalty>
4.47751e-05

> <r_epik_Ionization_Penalty_Charging>
0

> <r_epik_Ionization_Penalty_Neutral>
4.47751e-05

> <r_epik_State_Penalty>
-0

> <r_epik_Charging_Adjusted_Penalty>
0

> <i_epik_Tot_Q>
0

> <i_epik_Tot_abs_Q>
0

> <r_epik_Metal_State_Penalty>
-0

> <b_epik_Metal_Only>
0

> <s_lp_Force_Field>
OPLS_2005

> <r_lp_Energy>
18.9713

> <b_lp_Chiralities_Consistent>
1

> <s_lp_Variant>
AV-unprocessed.smi:1764-2

> <Gold.Version>
5.8.1

> <Gold.Id.Protein>
6NUR|6NUR_protein|mol2

> <Gold.PLP.Fitness>
37.8977

> <Gold.PLP.PLP>
-29.3793

> <Gold.PLP.part.hbond>
-2.0000

> <Gold.PLP.part.metal>
0.0000

> <Gold.PLP.part.buried>
-4.3693

> <Gold.PLP.part.nonpolar>
-24.2901

> <Gold.PLP.part.repulsive>
1.2877

> <Gold.PLP.ligand.clash>
0.0000

> <Gold.PLP.ligand.torsion>
0.2328

> <Gold.PLP.Chemscore.Hbond>
2.0000

> <Gold.PLP.Chemscore.CHOScore>
0.9943

> <Gold.PLP.Chemscore.Metal>
0.0000

> <Gold.Chemscore.Hbonds>
donor molecule, donor type, donor heavy atom, donor atom, acceptor molecule, acceptor atom, score
      L1  H     3    17       P1  7948  1.00
      L1  H    10    27       P1  7948  1.00
      L1  C    15    31       P1 10186  0.99

> <Gold.PLP.Chemscore.Internal.Correction>
0.0011

> <Gold.Rescore>
     Score         DG    S(hbond)    S(metal)    S(lipo)     H(rot)  DE(clash)    DE(int)     intcor
     15.55     -17.11       1.96        0.00      71.14       1.27       0.03       1.53       ----

> <Gold.Chemscore.Fitness>
15.5451

> <Gold.Chemscore.DG>
-17.1052

> <Gold.Chemscore.ZeroCoef>
-5.4800

> <Gold.Chemscore.Hbond>
1.9603

> <Gold.Chemscore.Metal>
0.0000

> <Gold.Chemscore.Lipo>
71.1382

> <Gold.Chemscore.Internal_Hbond>
0.0000

> <Gold.Chemscore.DEClash>
0.0308

> <Gold.Chemscore.DEInternal>
1.5293

> <Gold.Chemscore.Rot>
1.2678

> <Gold.Chemscore.Internal.Correction>
   9.000000E+99

> <Gold.Chemscore.Hbonds>
donor molecule, donor type, donor heavy atom, donor atom, acceptor molecule, acceptor atom, score
      L1  H     3    17       P1  7948  0.98
      L1  H    10    27       P1  7948  0.98

> <Gold.Chemscore.Hbond.Weighted>
-6.5475

> <Gold.Chemscore.Metal.Weighted>
-0.0000

> <Gold.Chemscore.Lipo.Weighted>
-8.3232

> <Gold.Chemscore.Internal_Hbond.Weighted>
0.0000

> <Gold.Chemscore.DEClash.Weighted>
0.0308

> <Gold.Chemscore.DEInternal.Weighted>
1.5293

> <Gold.Chemscore.Rot.Weighted>
3.2455

> <Gold.Chemscore.Internal.Correction.Weighted>
   9.000000E+99

> <Gold.Protein.RotatedTorsions>
[ 6907 6896 6895 6894 ] final  -53.85 input  -60.11 | X-H torsion
[ 7974 7965 7964 7962 ] final  176.52 input  175.53 | X-H torsion
[ 8008 7997 7996 7995 ] final   24.10 input   59.86 | X-H torsion
[ 10167 10162 10161 10158 ] final   47.59 input  -65.29 | X-H torsion
[ 10718 10713 10712 10709 ] final  -21.44 input   66.30 | X-H torsion
[ 10763 10752 10751 10750 ] final -106.56 input  -60.55 | X-H torsion
[ 11005 11000 10999 10996 ] final  -85.52 input  -57.11 | X-H torsion

> <Gold.Protein.ActiveResidues>
 VAL166  LYS551  ARG553  GLY616  TRP617  ASP618  TYR619  PRO620  LYS621  CYS622 
 ASP623  PHE694  ASN695  SER759  ASP760  ASP761  ALA762  ILE779  LEU786  VAL792 
 PHE793  MET794  SER795  GLU796  ALA797  LYS798  CYS799  TRP800  GLU811  SER814 

> <Gold.Protein.RotatedAtoms>
  150.8390  134.7675  159.6916 H   0  0  0  0  0  0  0  0  0  0  0  0  # atno 6907 bound_to 6896
  152.4481  134.5448  159.9859 H   0  0  0  0  0  0  0  0  0  0  0  0  # atno 6908 bound_to 6896
  151.5592  133.3368  159.3003 H   0  0  0  0  0  0  0  0  0  0  0  0  # atno 6909 bound_to 6896
  144.7183  140.0109  143.6440 H   0  0  0  0  0  0  0  0  0  0  0  0  # atno 7974 bound_to 7965
  154.9911  140.3114  155.4906 H   0  0  0  0  0  0  0  0  0  0  0  0  # atno 8008 bound_to 7997
  156.2939  140.2249  156.4956 H   0  0  0  0  0  0  0  0  0  0  0  0  # atno 8009 bound_to 7997
  154.7702  140.0453  157.1033 H   0  0  0  0  0  0  0  0  0  0  0  0  # atno 8010 bound_to 7997
  140.3020  144.2922  150.6217 H   0  0  0  0  0  0  0  0  0  0  0  0  # atno 10167 bound_to 10162
  156.5182  130.4626  149.6611 H   0  0  0  0  0  0  0  0  0  0  0  0  # atno 10718 bound_to 10713
  154.8020  135.4707  154.0298 H   0  0  0  0  0  0  0  0  0  0  0  0  # atno 10763 bound_to 10752
  153.1796  135.6838  153.8502 H   0  0  0  0  0  0  0  0  0  0  0  0  # atno 10764 bound_to 10752
  153.8057  135.3224  155.3373 H   0  0  0  0  0  0  0  0  0  0  0  0  # atno 10765 bound_to 10752
  141.1640  133.7404  156.9027 H   0  0  0  0  0  0  0  0  0  0  0  0  # atno 11005 bound_to 11000
  146.0259  139.3291  143.0785 LP  0  0  0  0  0  0  0  0  0  0  0  0  # atno 17320 bound_to 7965
  145.8512  140.9527  143.0748 LP  0  0  0  0  0  0  0  0  0  0  0  0  # atno 17321 bound_to 7965
  140.5642  143.2188  151.7712 LP  0  0  0  0  0  0  0  0  0  0  0  0  # atno 17342 bound_to 10162
  139.4913  144.4306  151.9876 LP  0  0  0  0  0  0  0  0  0  0  0  0  # atno 17343 bound_to 10162
  156.3175  130.7262  151.2168 LP  0  0  0  0  0  0  0  0  0  0  0  0  # atno 17370 bound_to 10713
  157.7441  131.0464  150.4894 LP  0  0  0  0  0  0  0  0  0  0  0  0  # atno 17371 bound_to 10713
  140.1571  134.9190  157.2668 LP  0  0  0  0  0  0  0  0  0  0  0  0  # atno 17394 bound_to 11000
  140.2654  134.3522  155.7392 LP  0  0  0  0  0  0  0  0  0  0  0  0  # atno 17395 bound_to 11000

$$$$
