AV-unprocessed.smi:20|AV-procd|sdf|120|dock10
  -GOLD-   2262015293D 1   1.00000     0.00000
 Structure written by MMmdl.
 57 61  0  0  0  0  0  0  0  0  1 V2000
  149.3493  144.6759  161.1129 O   0  0  0  0  0  0  0  0  0  0  0  0
  150.0700  144.4222  160.1506 C   0  0  0  0  0  0  0  0  0  0  0  0
  150.2914  143.0210  159.6080 C   0  0  0  0  0  0  0  0  0  0  0  0
  151.5271  143.1827  158.6897 C   0  0  1  0  0  0  0  0  0  0  0  0
  152.8456  142.8432  159.4358 C   0  0  0  0  0  0  0  0  0  0  0  0
  153.0062  141.3311  159.6740 C   0  0  0  0  0  0  0  0  0  0  0  0
  152.8465  140.5451  158.3653 C   0  0  0  0  0  0  0  0  0  0  0  0
  151.5944  140.8996  157.7013 N   0  0  0  0  0  0  0  0  0  0  0  0
  151.1739  140.0092  156.7684 C   0  0  0  0  0  0  0  0  0  0  0  0
  150.9686  140.4137  155.4861 N   0  0  0  0  0  0  0  0  0  0  0  0
  150.5562  139.5420  154.5611 C   0  0  0  0  0  0  0  0  0  0  0  0
  150.2882  138.2424  154.7002 N   0  0  0  0  0  0  0  0  0  0  0  0
  150.4884  137.8319  155.9849 C   0  0  0  0  0  0  0  0  0  0  0  0
  150.9270  138.6407  157.0709 C   0  0  0  0  0  0  0  0  0  0  0  0
  151.0004  137.8766  158.2299 N   0  0  0  0  0  0  0  0  0  0  0  0
  150.6317  136.6836  157.8502 C   0  0  0  0  0  0  0  0  0  0  0  0
  150.2974  136.5702  156.5200 N   0  0  0  0  0  0  0  0  0  0  0  0
  149.8439  135.3697  155.8407 C   0  0  0  0  0  0  0  0  0  0  0  0
  150.9464  134.6644  155.0069 C   0  0  1  0  0  0  0  0  0  0  0  0
  152.2389  134.4115  155.8253 C   0  0  0  0  0  0  0  0  0  0  0  0
  151.9776  133.7211  157.0298 O   0  0  0  0  0  0  0  0  0  0  0  0
  150.4063  133.3398  154.4073 C   0  0  1  0  0  0  0  0  0  0  0  0
  149.2714  133.4995  153.4091 C   0  0  0  0  0  0  0  0  0  0  0  0
  149.2944  132.1616  152.6818 C   0  0  0  0  0  0  0  0  0  0  0  0
  150.6676  131.8027  152.6093 O   0  0  0  0  0  0  0  0  0  0  0  0
  151.4176  132.5572  153.5568 C   0  0  0  0  0  0  0  0  0  0  0  0
  151.4298  142.3242  157.4084 C   0  0  0  0  0  0  0  0  0  0  0  0
  151.4964  144.6916  158.3481 C   0  0  0  0  0  0  0  0  0  0  0  0
  150.7622  145.3064  159.4367 N   0  0  0  0  0  0  0  0  0  0  0  0
  150.4330  142.3021  160.4141 H   0  0  0  0  0  0  0  0  0  0  0  0
  149.4055  142.7258  159.0443 H   0  0  0  0  0  0  0  0  0  0  0  0
  153.6950  143.1869  158.8441 H   0  0  0  0  0  0  0  0  0  0  0  0
  152.9029  143.3770  160.3853 H   0  0  0  0  0  0  0  0  0  0  0  0
  153.9837  141.1256  160.1109 H   0  0  0  0  0  0  0  0  0  0  0  0
  152.2715  140.9814  160.3991 H   0  0  0  0  0  0  0  0  0  0  0  0
  153.6739  140.7740  157.6923 H   0  0  0  0  0  0  0  0  0  0  0  0
  152.9024  139.4775  158.5758 H   0  0  0  0  0  0  0  0  0  0  0  0
  150.4208  139.9437  153.5678 H   0  0  0  0  0  0  0  0  0  0  0  0
  150.5825  135.8498  158.5358 H   0  0  0  0  0  0  0  0  0  0  0  0
  149.4394  134.6817  156.5841 H   0  0  0  0  0  0  0  0  0  0  0  0
  149.0070  135.6588  155.2050 H   0  0  0  0  0  0  0  0  0  0  0  0
  151.2020  135.3152  154.1689 H   0  0  0  0  0  0  0  0  0  0  0  0
  152.9698  133.8577  155.2352 H   0  0  0  0  0  0  0  0  0  0  0  0
  152.7158  135.3475  156.1117 H   0  0  0  0  0  0  0  0  0  0  0  0
  151.0755  133.4395  157.0241 H   0  0  0  0  0  0  0  0  0  0  0  0
  150.0598  132.6932  155.2155 H   0  0  0  0  0  0  0  0  0  0  0  0
  148.3072  133.6957  153.8785 H   0  0  0  0  0  0  0  0  0  0  0  0
  149.4854  134.3095  152.7102 H   0  0  0  0  0  0  0  0  0  0  0  0
  148.7650  131.4047  153.2619 H   0  0  0  0  0  0  0  0  0  0  0  0
  148.8400  132.2125  151.6923 H   0  0  0  0  0  0  0  0  0  0  0  0
  152.0723  133.2349  153.0077 H   0  0  0  0  0  0  0  0  0  0  0  0
  152.0443  131.8992  154.1589 H   0  0  0  0  0  0  0  0  0  0  0  0
  150.4691  142.4992  156.9214 H   0  0  0  0  0  0  0  0  0  0  0  0
  152.2030  142.6269  156.7005 H   0  0  0  0  0  0  0  0  0  0  0  0
  152.4905  145.1281  158.2453 H   0  0  0  0  0  0  0  0  0  0  0  0
  150.9535  144.8810  157.4208 H   0  0  0  0  0  0  0  0  0  0  0  0
  150.7707  146.3008  159.6124 H   0  0  0  0  0  0  0  0  0  0  0  0
  1  2  2  0  0  0  0
  2 29  1  0  0  0  0
  2  3  1  0  0  0  0
  3  4  1  0  0  0  0
  3 30  1  0  0  0  0
  3 31  1  0  0  0  0
  4 27  1  0  0  0  0
  4  5  1  0  0  0  0
  4 28  1  0  0  0  0
  5  6  1  0  0  0  0
  5 32  1  0  0  0  0
  5 33  1  0  0  0  0
  6  7  1  0  0  0  0
  6 34  1  0  0  0  0
  6 35  1  0  0  0  0
  7  8  1  0  0  0  0
  7 36  1  0  0  0  0
  7 37  1  0  0  0  0
  8  9  1  0  0  0  0
  8 27  1  0  0  0  0
  9 14  1  0  0  0  0
  9 10  2  0  0  0  0
 10 11  1  0  0  0  0
 11 12  2  0  0  0  0
 11 38  1  0  0  0  0
 12 13  1  0  0  0  0
 13 17  1  0  0  0  0
 13 14  2  0  0  0  0
 14 15  1  0  0  0  0
 15 16  2  0  0  0  0
 16 17  1  0  0  0  0
 16 39  1  0  0  0  0
 17 18  1  0  0  0  0
 18 19  1  0  0  0  0
 18 40  1  0  0  0  0
 18 41  1  0  0  0  0
 19 20  1  0  0  0  0
 19 22  1  0  0  0  0
 19 42  1  0  0  0  0
 20 21  1  0  0  0  0
 20 43  1  0  0  0  0
 20 44  1  0  0  0  0
 21 45  1  0  0  0  0
 22 26  1  0  0  0  0
 22 23  1  0  0  0  0
 22 46  1  0  0  0  0
 23 24  1  0  0  0  0
 23 47  1  0  0  0  0
 23 48  1  0  0  0  0
 24 25  1  0  0  0  0
 24 49  1  0  0  0  0
 24 50  1  0  0  0  0
 25 26  1  0  0  0  0
 26 51  1  0  0  0  0
 26 52  1  0  0  0  0
 27 53  1  0  0  0  0
 27 54  1  0  0  0  0
 28 29  1  0  0  0  0
 28 55  1  0  0  0  0
 28 56  1  0  0  0  0
 29 57  1  0  0  0  0
M  END
> <s_m_source_file>
AV-unprocessed.smi

> <i_m_source_file_index>
20

> <i_lp_mmshare_version>
43012

> <i_f3d_flags>
0

> <s_epik_input>
W0NIMl0xW05IXUMoPU8pW0NIMl1bQ0BAXTEyW0NIMl1bQ0gyXVtDSDJdTihbQ0gyXTIpYyhuW2NIXW4zKWMoYzM0KW5bY0hdbjRbQ0gyXVtDQEhdKFtDSDJdW09IXSlbQ0BASF01W0NIMl1bQ0gyXU9bQ0gyXTU=

> <s_epik_cmdline>
J2VwaWtfcHl0aG9uJywgJy1waCcsICc3LjAnLCAnLXRuJywgJzgnLCAnLW1hJywgJzIwMCcsICctbWV0YWxfYmluZGluZycsICctaW1hZScsICc8aW5maWxlLm1hZT4nLCAnLW9tYWUnLCAnPG91dGZpbGUubWFlPic=

> <r_lp_tautomer_probability>
1

> <r_epik_Ionization_Penalty>
0.0019697

> <r_epik_Ionization_Penalty_Charging>
0

> <r_epik_Ionization_Penalty_Neutral>
0.0019697

> <r_epik_State_Penalty>
0.00113613

> <r_epik_Charging_Adjusted_Penalty>
0.00113613

> <i_epik_Tot_Q>
0

> <i_epik_Tot_abs_Q>
0

> <r_epik_Metal_State_Penalty>
-0

> <b_epik_Metal_Only>
0

> <s_lp_Force_Field>
OPLS_2005

> <r_lp_Energy>
57.3449

> <b_lp_Chiralities_Consistent>
1

> <s_lp_Variant>
AV-unprocessed.smi:20-8

> <Gold.Version>
5.8.1

> <Gold.Id.Protein>
6NUR|6NUR_protein|mol2

> <Gold.PLP.Fitness>
47.6230

> <Gold.PLP.PLP>
-42.3740

> <Gold.PLP.part.hbond>
-3.0000

> <Gold.PLP.part.metal>
0.0000

> <Gold.PLP.part.buried>
-5.4800

> <Gold.PLP.part.nonpolar>
-33.9029

> <Gold.PLP.part.repulsive>
2.0228

> <Gold.PLP.ligand.clash>
0.0000

> <Gold.PLP.ligand.torsion>
0.6098

> <Gold.PLP.Chemscore.Hbond>
1.0000

> <Gold.PLP.Chemscore.CHOScore>
1.0000

> <Gold.PLP.Chemscore.Metal>
0.0000

> <Gold.Chemscore.Hbonds>
donor molecule, donor type, donor heavy atom, donor atom, acceptor molecule, acceptor atom, score
      L1  C    11    38       P1  7957  0.99

> <Gold.PLP.Chemscore.Internal.Correction>
0.4686

> <Gold.Rescore>
     Score         DG    S(hbond)    S(metal)    S(lipo)     H(rot)  DE(clash)    DE(int)     intcor
     12.33     -13.58       0.97        0.00     101.49       2.74       0.22       1.03       ----

> <Gold.Chemscore.Fitness>
12.3348

> <Gold.Chemscore.DG>
-13.5817

> <Gold.Chemscore.ZeroCoef>
-5.4800

> <Gold.Chemscore.Hbond>
0.9717

> <Gold.Chemscore.Metal>
0.0000

> <Gold.Chemscore.Lipo>
101.4906

> <Gold.Chemscore.Internal_Hbond>
0.0000

> <Gold.Chemscore.DEClash>
0.2173

> <Gold.Chemscore.DEInternal>
1.0297

> <Gold.Chemscore.Rot>
2.7415

> <Gold.Chemscore.Internal.Correction>
   9.000000E+99

> <Gold.Chemscore.Hbond.Weighted>
-3.2455

> <Gold.Chemscore.Metal.Weighted>
-0.0000

> <Gold.Chemscore.Lipo.Weighted>
-11.8744

> <Gold.Chemscore.Internal_Hbond.Weighted>
0.0000

> <Gold.Chemscore.DEClash.Weighted>
0.2173

> <Gold.Chemscore.DEInternal.Weighted>
1.0297

> <Gold.Chemscore.Rot.Weighted>
7.0182

> <Gold.Chemscore.Internal.Correction.Weighted>
   9.000000E+99

> <Gold.Protein.RotatedTorsions>
[ 6907 6896 6895 6894 ] final -114.62 input  -60.11 | X-H torsion
[ 7974 7965 7964 7962 ] final  -33.11 input  175.53 | X-H torsion
[ 8008 7997 7996 7995 ] final -166.17 input   59.86 | X-H torsion
[ 10167 10162 10161 10158 ] final   74.38 input  -65.29 | X-H torsion
[ 10718 10713 10712 10709 ] final  158.25 input   66.30 | X-H torsion
[ 10763 10752 10751 10750 ] final   40.76 input  -60.55 | X-H torsion
[ 11005 11000 10999 10996 ] final  117.23 input  -57.11 | X-H torsion

> <Gold.Protein.ActiveResidues>
 VAL166  LYS551  ARG553  GLY616  TRP617  ASP618  TYR619  PRO620  LYS621  CYS622 
 ASP623  PHE694  ASN695  SER759  ASP760  ASP761  ALA762  ILE779  LEU786  VAL792 
 PHE793  MET794  SER795  GLU796  ALA797  LYS798  CYS799  TRP800  GLU811  SER814 

> <Gold.Protein.RotatedAtoms>
  150.7915  133.8776  159.3276 H   0  0  0  0  0  0  0  0  0  0  0  0  # atno 6907 bound_to 6896
  151.6612  135.0987  160.0189 H   0  0  0  0  0  0  0  0  0  0  0  0  # atno 6908 bound_to 6896
  152.3990  133.6751  159.6336 H   0  0  0  0  0  0  0  0  0  0  0  0  # atno 6909 bound_to 6896
  146.0937  140.5876  142.8853 H   0  0  0  0  0  0  0  0  0  0  0  0  # atno 7974 bound_to 7965
  155.8601  140.0976  157.1619 H   0  0  0  0  0  0  0  0  0  0  0  0  # atno 8008 bound_to 7997
  154.3990  140.1367  156.4012 H   0  0  0  0  0  0  0  0  0  0  0  0  # atno 8009 bound_to 7997
  155.7866  140.3457  155.5329 H   0  0  0  0  0  0  0  0  0  0  0  0  # atno 8010 bound_to 7997
  140.0144  144.5589  150.7632 H   0  0  0  0  0  0  0  0  0  0  0  0  # atno 10167 bound_to 10162
  157.1804  131.0631  151.2134 H   0  0  0  0  0  0  0  0  0  0  0  0  # atno 10718 bound_to 10713
  152.9927  135.6182  154.2678 H   0  0  0  0  0  0  0  0  0  0  0  0  # atno 10763 bound_to 10752
  154.2412  135.2788  155.2855 H   0  0  0  0  0  0  0  0  0  0  0  0  # atno 10764 bound_to 10752
  154.5368  135.5772  153.6863 H   0  0  0  0  0  0  0  0  0  0  0  0  # atno 10765 bound_to 10752
  139.9067  134.9607  156.7318 H   0  0  0  0  0  0  0  0  0  0  0  0  # atno 11005 bound_to 11000
  144.7379  140.4860  143.6890 LP  0  0  0  0  0  0  0  0  0  0  0  0  # atno 17320 bound_to 7965
  145.5990  139.1502  143.3139 LP  0  0  0  0  0  0  0  0  0  0  0  0  # atno 17321 bound_to 7965
  140.7368  143.2758  151.3747 LP  0  0  0  0  0  0  0  0  0  0  0  0  # atno 17342 bound_to 10162
  139.6183  144.0958  152.2367 LP  0  0  0  0  0  0  0  0  0  0  0  0  # atno 17343 bound_to 10162
  157.3957  130.7306  149.6730 LP  0  0  0  0  0  0  0  0  0  0  0  0  # atno 17370 bound_to 10713
  155.9725  130.4134  150.4081 LP  0  0  0  0  0  0  0  0  0  0  0  0  # atno 17371 bound_to 10713
  140.6919  133.9383  155.7971 LP  0  0  0  0  0  0  0  0  0  0  0  0  # atno 17394 bound_to 11000
  141.0435  134.0587  157.3872 LP  0  0  0  0  0  0  0  0  0  0  0  0  # atno 17395 bound_to 11000

$$$$
