AV-unprocessed.smi:1379|AV-procd|sdf|5598|dock3
  -GOLD-   22720 5203D 1   1.00000     0.00000
 Structure written by MMmdl.
 34 35  0  0  0  0  0  0  0  0  1 V2000
  155.4814  144.6619  167.9806 C   0  0  0  0  0  0  0  0  0  0  0  0
  155.1461  143.3079  167.7350 O   0  0  0  0  0  0  0  0  0  0  0  0
  155.7028  142.8212  166.5231 C   0  0  0  0  0  0  0  0  0  0  0  0
  154.9878  143.4615  165.3313 C   0  0  0  0  0  0  0  0  0  0  0  0
  154.9434  144.6870  165.2218 O   0  0  0  0  0  0  0  0  0  0  0  0
  154.4227  142.5951  164.4707 N   0  0  0  0  0  0  0  0  0  0  0  0
  153.6935  142.8692  163.2816 C   0  0  0  0  0  0  0  0  0  0  0  0
  152.9419  144.0475  163.0582 C   0  0  0  0  0  0  0  0  0  0  0  0
  152.2756  144.2069  161.8282 C   0  0  0  0  0  0  0  0  0  0  0  0
  152.3873  143.1933  160.8547 C   0  0  0  0  0  0  0  0  0  0  0  0
  151.7176  143.3551  159.6324 N   0  0  0  0  0  0  0  0  0  0  0  0
  152.1667  144.4648  158.8075 C   0  0  0  0  0  0  0  0  0  0  0  0
  151.5767  144.2029  157.4197 C   0  0  0  0  0  0  0  0  0  0  0  0
  151.3064  142.6936  157.3868 C   0  0  0  0  0  0  0  0  0  0  0  0
  151.7314  142.1869  158.7680 C   0  0  0  0  0  0  0  0  0  0  0  0
  153.1157  142.0694  161.0569 N   0  0  0  0  0  0  0  0  0  0  0  0
  153.7512  141.9218  162.2387 C   0  0  0  0  0  0  0  0  0  0  0  0
  155.0364  144.9845  168.9217 H   0  0  0  0  0  0  0  0  0  0  0  0
  155.1036  145.3109  167.1895 H   0  0  0  0  0  0  0  0  0  0  0  0
  156.5615  144.7935  168.0561 H   0  0  0  0  0  0  0  0  0  0  0  0
  156.7672  143.0572  166.4739 H   0  0  0  0  0  0  0  0  0  0  0  0
  155.5939  141.7368  166.4660 H   0  0  0  0  0  0  0  0  0  0  0  0
  154.4732  141.6206  164.7312 H   0  0  0  0  0  0  0  0  0  0  0  0
  152.8724  144.8341  163.7929 H   0  0  0  0  0  0  0  0  0  0  0  0
  151.6936  145.0964  161.6357 H   0  0  0  0  0  0  0  0  0  0  0  0
  151.8291  145.4185  159.2141 H   0  0  0  0  0  0  0  0  0  0  0  0
  153.2559  144.4884  158.7519 H   0  0  0  0  0  0  0  0  0  0  0  0
  150.6403  144.7489  157.2976 H   0  0  0  0  0  0  0  0  0  0  0  0
  152.2541  144.5224  156.6272 H   0  0  0  0  0  0  0  0  0  0  0  0
  150.2436  142.5100  157.2242 H   0  0  0  0  0  0  0  0  0  0  0  0
  151.8564  142.1912  156.5907 H   0  0  0  0  0  0  0  0  0  0  0  0
  152.7344  141.7603  158.7194 H   0  0  0  0  0  0  0  0  0  0  0  0
  151.0558  141.4155  159.1387 H   0  0  0  0  0  0  0  0  0  0  0  0
  154.3214  141.0118  162.3560 H   0  0  0  0  0  0  0  0  0  0  0  0
  1  2  1  0  0  0  0
  1 18  1  0  0  0  0
  1 19  1  0  0  0  0
  1 20  1  0  0  0  0
  2  3  1  0  0  0  0
  3  4  1  0  0  0  0
  3 21  1  0  0  0  0
  3 22  1  0  0  0  0
  4  5  2  0  0  0  0
  4  6  1  0  0  0  0
  6  7  1  0  0  0  0
  6 23  1  0  0  0  0
  7 17  1  0  0  0  0
  7  8  2  0  0  0  0
  8  9  1  0  0  0  0
  8 24  1  0  0  0  0
  9 10  2  0  0  0  0
  9 25  1  0  0  0  0
 10 11  1  0  0  0  0
 10 16  1  0  0  0  0
 11 15  1  0  0  0  0
 11 12  1  0  0  0  0
 12 13  1  0  0  0  0
 12 26  1  0  0  0  0
 12 27  1  0  0  0  0
 13 14  1  0  0  0  0
 13 28  1  0  0  0  0
 13 29  1  0  0  0  0
 14 15  1  0  0  0  0
 14 30  1  0  0  0  0
 14 31  1  0  0  0  0
 15 32  1  0  0  0  0
 15 33  1  0  0  0  0
 16 17  2  0  0  0  0
 17 34  1  0  0  0  0
M  END
> <s_m_source_file>
AV-unprocessed.smi

> <i_m_source_file_index>
1379

> <i_lp_mmshare_version>
43012

> <i_f3d_flags>
0

> <s_epik_input>
W0NIM11PW0NIMl1DKD1PKVtOSF1jMVtjSF1bY0hdYyhuW2NIXTEpTjJbQ0gyXVtDSDJdW0NIMl1bQ0gyXTI=

> <s_epik_cmdline>
J2VwaWtfcHl0aG9uJywgJy1waCcsICc3LjAnLCAnLXRuJywgJzgnLCAnLW1hJywgJzIwMCcsICctbWV0YWxfYmluZGluZycsICctaW1hZScsICc8aW5maWxlLm1hZT4nLCAnLW9tYWUnLCAnPG91dGZpbGUubWFlPic=

> <r_lp_tautomer_probability>
1

> <r_epik_Ionization_Penalty>
0.0264378

> <r_epik_Ionization_Penalty_Charging>
0

> <r_epik_Ionization_Penalty_Neutral>
0.0264378

> <r_epik_State_Penalty>
0.0211097

> <r_epik_Charging_Adjusted_Penalty>
0.0211097

> <i_epik_Tot_Q>
0

> <i_epik_Tot_abs_Q>
0

> <r_epik_Metal_State_Penalty>
0.0201313

> <b_epik_Metal_Only>
0

> <s_lp_Force_Field>
OPLS_2005

> <r_lp_Energy>
37.8316

> <b_lp_Chiralities_Consistent>
1

> <s_lp_Variant>
AV-unprocessed.smi:1379-1

> <Gold.Version>
5.8.1

> <Gold.Id.Protein>
6NUR|6NUR_protein|mol2

> <Gold.PLP.Fitness>
41.5791

> <Gold.PLP.PLP>
-42.1602

> <Gold.PLP.part.hbond>
-0.3948

> <Gold.PLP.part.metal>
0.0000

> <Gold.PLP.part.buried>
-6.5481

> <Gold.PLP.part.nonpolar>
-35.2886

> <Gold.PLP.part.repulsive>
0.2560

> <Gold.PLP.ligand.clash>
0.0000

> <Gold.PLP.ligand.torsion>
0.3030

> <Gold.PLP.Chemscore.Hbond>
0.0000

> <Gold.PLP.Chemscore.CHOScore>
0.0000

> <Gold.PLP.Chemscore.Metal>
0.0000

> <Gold.PLP.Chemscore.Internal.Correction>
0.0249

> <Gold.Rescore>
     Score         DG    S(hbond)    S(metal)    S(lipo)     H(rot)  DE(clash)    DE(int)     intcor
     12.67     -14.22       0.00        0.00     105.67       1.42       0.31       1.24       ----

> <Gold.Chemscore.Fitness>
12.6707

> <Gold.Chemscore.DG>
-14.2202

> <Gold.Chemscore.ZeroCoef>
-5.4800

> <Gold.Chemscore.Hbond>
0.0000

> <Gold.Chemscore.Metal>
0.0000

> <Gold.Chemscore.Lipo>
105.6694

> <Gold.Chemscore.Internal_Hbond>
0.0000

> <Gold.Chemscore.DEClash>
0.3053

> <Gold.Chemscore.DEInternal>
1.2442

> <Gold.Chemscore.Rot>
1.4153

> <Gold.Chemscore.Internal.Correction>
   9.000000E+99

> <Gold.Chemscore.Hbond.Weighted>
-0.0000

> <Gold.Chemscore.Metal.Weighted>
-0.0000

> <Gold.Chemscore.Lipo.Weighted>
-12.3633

> <Gold.Chemscore.Internal_Hbond.Weighted>
0.0000

> <Gold.Chemscore.DEClash.Weighted>
0.3053

> <Gold.Chemscore.DEInternal.Weighted>
1.2442

> <Gold.Chemscore.Rot.Weighted>
3.6231

> <Gold.Chemscore.Internal.Correction.Weighted>
   9.000000E+99

> <Gold.Protein.RotatedTorsions>
[ 6907 6896 6895 6894 ] final -113.36 input  -60.11 | X-H torsion
[ 7974 7965 7964 7962 ] final -129.57 input  175.53 | X-H torsion
[ 8008 7997 7996 7995 ] final  -11.29 input   59.86 | X-H torsion
[ 10167 10162 10161 10158 ] final  -31.59 input  -65.29 | X-H torsion
[ 10718 10713 10712 10709 ] final  137.09 input   66.30 | X-H torsion
[ 10763 10752 10751 10750 ] final  -72.70 input  -60.55 | X-H torsion
[ 11005 11000 10999 10996 ] final   76.85 input  -57.11 | X-H torsion

> <Gold.Protein.ActiveResidues>
 VAL166  LYS551  ARG553  GLY616  TRP617  ASP618  TYR619  PRO620  LYS621  CYS622 
 ASP623  PHE694  ASN695  SER759  ASP760  ASP761  ALA762  ILE779  LEU786  VAL792 
 PHE793  MET794  SER795  GLU796  ALA797  LYS798  CYS799  TRP800  GLU811  SER814 

> <Gold.Protein.RotatedAtoms>
  150.7823  133.8956  159.3326 H   0  0  0  0  0  0  0  0  0  0  0  0  # atno 6907 bound_to 6896
  151.6816  135.0959  160.0226 H   0  0  0  0  0  0  0  0  0  0  0  0  # atno 6908 bound_to 6896
  152.3878  133.6597  159.6248 H   0  0  0  0  0  0  0  0  0  0  0  0  # atno 6909 bound_to 6896
  144.9559  140.7394  143.4759 H   0  0  0  0  0  0  0  0  0  0  0  0  # atno 7974 bound_to 7965
  154.5478  140.2306  155.8534 H   0  0  0  0  0  0  0  0  0  0  0  0  # atno 8008 bound_to 7997
  156.1919  140.3075  155.9311 H   0  0  0  0  0  0  0  0  0  0  0  0  # atno 8009 bound_to 7997
  155.3130  140.0436  157.3026 H   0  0  0  0  0  0  0  0  0  0  0  0  # atno 8010 bound_to 7997
  140.7234  143.3759  151.1691 H   0  0  0  0  0  0  0  0  0  0  0  0  # atno 10167 bound_to 10162
  157.4398  131.1056  151.0156 H   0  0  0  0  0  0  0  0  0  0  0  0  # atno 10718 bound_to 10713
  154.4494  135.5921  153.6181 H   0  0  0  0  0  0  0  0  0  0  0  0  # atno 10763 bound_to 10752
  152.9812  135.6017  154.3624 H   0  0  0  0  0  0  0  0  0  0  0  0  # atno 10764 bound_to 10752
  154.3483  135.2841  155.2364 H   0  0  0  0  0  0  0  0  0  0  0  0  # atno 10765 bound_to 10752
  139.9280  134.7634  156.1447 H   0  0  0  0  0  0  0  0  0  0  0  0  # atno 11005 bound_to 11000
  145.2774  139.1931  143.4809 LP  0  0  0  0  0  0  0  0  0  0  0  0  # atno 17320 bound_to 7965
  146.3337  140.2730  142.8606 LP  0  0  0  0  0  0  0  0  0  0  0  0  # atno 17321 bound_to 7965
  139.7339  143.9030  152.3028 LP  0  0  0  0  0  0  0  0  0  0  0  0  # atno 17342 bound_to 10162
  139.8828  144.7008  150.8858 LP  0  0  0  0  0  0  0  0  0  0  0  0  # atno 17343 bound_to 10162
  157.1023  130.5987  149.5463 LP  0  0  0  0  0  0  0  0  0  0  0  0  # atno 17370 bound_to 10713
  155.9944  130.5008  150.7419 LP  0  0  0  0  0  0  0  0  0  0  0  0  # atno 17371 bound_to 10713
  141.0851  133.6738  156.2418 LP  0  0  0  0  0  0  0  0  0  0  0  0  # atno 17394 bound_to 11000
  140.6281  134.5292  157.5556 LP  0  0  0  0  0  0  0  0  0  0  0  0  # atno 17395 bound_to 11000

$$$$
