AV-unprocessed.smi:1605|AV-procd|sdf|6459|dock8
  -GOLD-   22720 7113D 1   1.00000     0.00000
 Structure written by MMmdl.
 50 52  0  0  0  0  0  0  0  0  1 V2000
  143.9855  145.6156  153.2470 C   0  0  0  0  0  0  0  0  0  0  0  0
  144.1191  145.0440  154.5392 O   0  0  0  0  0  0  0  0  0  0  0  0
  144.6065  143.7081  154.5409 C   0  0  0  0  0  0  0  0  0  0  0  0
  144.9348  143.2231  155.9665 C   0  0  0  0  0  0  0  0  0  0  0  0
  145.6499  141.8612  155.9257 C   0  0  0  0  0  0  0  0  0  0  0  0
  146.8780  141.8902  155.1286 N   0  0  0  0  0  0  0  0  0  0  0  0
  147.5720  140.5985  155.1872 C   0  0  0  0  0  0  0  0  0  0  0  0
  148.7561  140.4118  154.2117 C   0  0  2  0  0  0  0  0  0  0  0  0
  148.9322  139.0305  153.9663 O   0  0  0  0  0  0  0  0  0  0  0  0
  150.0919  141.0619  154.6204 C   0  0  0  0  0  0  0  0  0  0  0  0
  150.4727  140.7248  155.9802 N   0  0  0  0  0  0  0  0  0  0  0  0
  150.4178  139.5117  156.5633 C   0  0  0  0  0  0  0  0  0  0  0  0
  150.8179  139.4256  157.8288 N   0  0  0  0  0  0  0  0  0  0  0  0
  151.1756  140.7358  158.0974 C   0  0  0  0  0  0  0  0  0  0  0  0
  151.6864  141.3234  159.2754 C   0  0  0  0  0  0  0  0  0  0  0  0
  151.9867  142.7034  159.3257 C   0  0  0  0  0  0  0  0  0  0  0  0
  152.5340  143.2932  160.6133 C   0  0  0  0  0  0  0  0  0  0  0  0
  151.7768  143.5183  158.1841 C   0  0  0  0  0  0  0  0  0  0  0  0
  152.0946  145.0028  158.2142 C   0  0  0  0  0  0  0  0  0  0  0  0
  151.2659  142.9477  156.9995 C   0  0  0  0  0  0  0  0  0  0  0  0
  150.9712  141.5733  156.9622 C   0  0  0  0  0  0  0  0  0  0  0  0
  146.5395  142.2804  153.7551 C   0  0  0  0  0  0  0  0  0  0  0  0
  145.8830  143.6689  153.6853 C   0  0  0  0  0  0  0  0  0  0  0  0
  143.6572  146.6505  153.3420 H   0  0  0  0  0  0  0  0  0  0  0  0
  143.2451  145.0893  152.6447 H   0  0  0  0  0  0  0  0  0  0  0  0
  144.9369  145.6159  152.7137 H   0  0  0  0  0  0  0  0  0  0  0  0
  143.8690  143.0438  154.0863 H   0  0  0  0  0  0  0  0  0  0  0  0
  145.5717  143.9534  156.4673 H   0  0  0  0  0  0  0  0  0  0  0  0
  144.0282  143.1371  156.5649 H   0  0  0  0  0  0  0  0  0  0  0  0
  145.8846  141.5665  156.9493 H   0  0  0  0  0  0  0  0  0  0  0  0
  144.9706  141.1021  155.5343 H   0  0  0  0  0  0  0  0  0  0  0  0
  147.9768  140.4520  156.1900 H   0  0  0  0  0  0  0  0  0  0  0  0
  146.8536  139.7883  155.0551 H   0  0  0  0  0  0  0  0  0  0  0  0
  148.4511  140.8524  153.2616 H   0  0  0  0  0  0  0  0  0  0  0  0
  149.2527  138.9247  153.0834 H   0  0  0  0  0  0  0  0  0  0  0  0
  150.8919  140.7366  153.9543 H   0  0  0  0  0  0  0  0  0  0  0  0
  150.0303  142.1481  154.5476 H   0  0  0  0  0  0  0  0  0  0  0  0
  150.0659  138.6422  156.0275 H   0  0  0  0  0  0  0  0  0  0  0  0
  151.8471  140.7018  160.1441 H   0  0  0  0  0  0  0  0  0  0  0  0
  151.8746  144.0780  160.9849 H   0  0  0  0  0  0  0  0  0  0  0  0
  153.5235  143.7204  160.4475 H   0  0  0  0  0  0  0  0  0  0  0  0
  152.6231  142.5354  161.3924 H   0  0  0  0  0  0  0  0  0  0  0  0
  151.8726  145.4770  157.2578 H   0  0  0  0  0  0  0  0  0  0  0  0
  153.1513  145.1631  158.4297 H   0  0  0  0  0  0  0  0  0  0  0  0
  151.5038  145.5048  158.9809 H   0  0  0  0  0  0  0  0  0  0  0  0
  151.1012  143.5561  156.1226 H   0  0  0  0  0  0  0  0  0  0  0  0
  147.4229  142.2891  153.1227 H   0  0  0  0  0  0  0  0  0  0  0  0
  145.8663  141.5418  153.3170 H   0  0  0  0  0  0  0  0  0  0  0  0
  145.6475  143.9196  152.6506 H   0  0  0  0  0  0  0  0  0  0  0  0
  146.5897  144.4226  154.0356 H   0  0  0  0  0  0  0  0  0  0  0  0
  1  2  1  0  0  0  0
  1 24  1  0  0  0  0
  1 25  1  0  0  0  0
  1 26  1  0  0  0  0
  2  3  1  0  0  0  0
  3 23  1  0  0  0  0
  3  4  1  0  0  0  0
  3 27  1  0  0  0  0
  4  5  1  0  0  0  0
  4 28  1  0  0  0  0
  4 29  1  0  0  0  0
  5  6  1  0  0  0  0
  5 30  1  0  0  0  0
  5 31  1  0  0  0  0
  6  7  1  0  0  0  0
  6 22  1  0  0  0  0
  7  8  1  0  0  0  0
  7 32  1  0  0  0  0
  7 33  1  0  0  0  0
  8  9  1  0  0  0  0
  8 10  1  0  0  0  0
  8 34  1  0  0  0  0
  9 35  1  0  0  0  0
 10 11  1  0  0  0  0
 10 36  1  0  0  0  0
 10 37  1  0  0  0  0
 11 21  1  0  0  0  0
 11 12  1  0  0  0  0
 12 13  2  0  0  0  0
 12 38  1  0  0  0  0
 13 14  1  0  0  0  0
 14 21  2  0  0  0  0
 14 15  1  0  0  0  0
 15 16  2  0  0  0  0
 15 39  1  0  0  0  0
 16 17  1  0  0  0  0
 16 18  1  0  0  0  0
 17 40  1  0  0  0  0
 17 41  1  0  0  0  0
 17 42  1  0  0  0  0
 18 19  1  0  0  0  0
 18 20  2  0  0  0  0
 19 43  1  0  0  0  0
 19 44  1  0  0  0  0
 19 45  1  0  0  0  0
 20 21  1  0  0  0  0
 20 46  1  0  0  0  0
 22 23  1  0  0  0  0
 22 47  1  0  0  0  0
 22 48  1  0  0  0  0
 23 49  1  0  0  0  0
 23 50  1  0  0  0  0
M  END
> <s_m_source_file>
AV-unprocessed.smi

> <i_m_source_file_index>
1605

> <i_lp_mmshare_version>
43012

> <i_f3d_flags>
0

> <s_epik_input>
W0NIM11PW0NIXTFbQ0gyXVtDSDJdTihbQ0gyXVtDSDJdMSlbQ0gyXVtDQEhdKFtPSF0pW0NIMl1uKFtjSF1uMiljKGMyMylbY0hdYyhbQ0gzXSljKFtjSF0zKVtDSDNd

> <s_epik_cmdline>
J2VwaWtfcHl0aG9uJywgJy1waCcsICc3LjAnLCAnLXRuJywgJzgnLCAnLW1hJywgJzIwMCcsICctbWV0YWxfYmluZGluZycsICctaW1hZScsICc8aW5maWxlLm1hZT4nLCAnLW9tYWUnLCAnPG91dGZpbGUubWFlPic=

> <r_epik_Ionization_Penalty>
2.02119

> <r_epik_Ionization_Penalty_Charging>
0

> <r_epik_Ionization_Penalty_Neutral>
2.02119

> <r_epik_State_Penalty>
2.11303

> <r_epik_Charging_Adjusted_Penalty>
2.11303

> <i_epik_Tot_Q>
0

> <i_epik_Tot_abs_Q>
0

> <r_epik_Metal_State_Penalty>
2.04251

> <b_epik_Metal_Only>
0

> <s_lp_Force_Field>
OPLS_2005

> <r_lp_Energy>
37.9414

> <b_lp_Chiralities_Consistent>
1

> <s_lp_Variant>
AV-unprocessed.smi:1605-9

> <Gold.Version>
5.8.1

> <Gold.Id.Protein>
6NUR|6NUR_protein|mol2

> <Gold.PLP.Fitness>
46.1031

> <Gold.PLP.PLP>
-44.2598

> <Gold.PLP.part.hbond>
-1.0000

> <Gold.PLP.part.metal>
0.0000

> <Gold.PLP.part.buried>
-3.7158

> <Gold.PLP.part.nonpolar>
-39.7224

> <Gold.PLP.part.repulsive>
0.1994

> <Gold.PLP.ligand.clash>
0.0000

> <Gold.PLP.ligand.torsion>
0.6055

> <Gold.PLP.Chemscore.Hbond>
1.0000

> <Gold.PLP.Chemscore.CHOScore>
0.0000

> <Gold.PLP.Chemscore.Metal>
0.0000

> <Gold.Chemscore.Hbonds>
donor molecule, donor type, donor heavy atom, donor atom, acceptor molecule, acceptor atom, score
      L1  H     9    35       P1  7957  0.41

> <Gold.PLP.Chemscore.Internal.Correction>
0.0543

> <Gold.Rescore>
     Score         DG    S(hbond)    S(metal)    S(lipo)     H(rot)  DE(clash)    DE(int)     intcor
     15.57     -17.76       0.96        0.00     124.32       2.14       1.56       0.63       ----

> <Gold.Chemscore.Fitness>
15.5728

> <Gold.Chemscore.DG>
-17.7582

> <Gold.Chemscore.ZeroCoef>
-5.4800

> <Gold.Chemscore.Hbond>
0.9645

> <Gold.Chemscore.Metal>
0.0000

> <Gold.Chemscore.Lipo>
124.3168

> <Gold.Chemscore.Internal_Hbond>
0.0000

> <Gold.Chemscore.DEClash>
1.5594

> <Gold.Chemscore.DEInternal>
0.6260

> <Gold.Chemscore.Rot>
2.1438

> <Gold.Chemscore.Internal.Correction>
   9.000000E+99

> <Gold.Chemscore.Hbonds>
donor molecule, donor type, donor heavy atom, donor atom, acceptor molecule, acceptor atom, score
      L1  H     9    35       P1  7957  0.41

> <Gold.Chemscore.Hbond.Weighted>
-3.2213

> <Gold.Chemscore.Metal.Weighted>
-0.0000

> <Gold.Chemscore.Lipo.Weighted>
-14.5451

> <Gold.Chemscore.Internal_Hbond.Weighted>
0.0000

> <Gold.Chemscore.DEClash.Weighted>
1.5594

> <Gold.Chemscore.DEInternal.Weighted>
0.6260

> <Gold.Chemscore.Rot.Weighted>
5.4881

> <Gold.Chemscore.Internal.Correction.Weighted>
   9.000000E+99

> <Gold.Protein.RotatedTorsions>
[ 6907 6896 6895 6894 ] final  109.35 input  -60.11 | X-H torsion
[ 7974 7965 7964 7962 ] final   63.57 input  175.53 | X-H torsion
[ 8008 7997 7996 7995 ] final  114.83 input   59.86 | X-H torsion
[ 10167 10162 10161 10158 ] final  170.83 input  -65.29 | X-H torsion
[ 10718 10713 10712 10709 ] final   16.21 input   66.30 | X-H torsion
[ 10763 10752 10751 10750 ] final   76.73 input  -60.55 | X-H torsion
[ 11005 11000 10999 10996 ] final   24.96 input  -57.11 | X-H torsion

> <Gold.Protein.ActiveResidues>
 VAL166  LYS551  ARG553  GLY616  TRP617  ASP618  TYR619  PRO620  LYS621  CYS622 
 ASP623  PHE694  ASN695  SER759  ASP760  ASP761  ALA762  ILE779  LEU786  VAL792 
 PHE793  MET794  SER795  GLU796  ALA797  LYS798  CYS799  TRP800  GLU811  SER814 

> <Gold.Protein.RotatedAtoms>
  152.5071  133.8957  159.7415 H   0  0  0  0  0  0  0  0  0  0  0  0  # atno 6907 bound_to 6896
  150.9385  133.6675  159.2802 H   0  0  0  0  0  0  0  0  0  0  0  0  # atno 6908 bound_to 6896
  151.3995  135.0973  159.9604 H   0  0  0  0  0  0  0  0  0  0  0  0  # atno 6909 bound_to 6896
  145.8603  139.3310  143.0823 H   0  0  0  0  0  0  0  0  0  0  0  0  # atno 7974 bound_to 7965
  156.2345  140.2951  156.0275 H   0  0  0  0  0  0  0  0  0  0  0  0  # atno 8008 bound_to 7997
  155.2131  140.0413  157.2954 H   0  0  0  0  0  0  0  0  0  0  0  0  # atno 8009 bound_to 7997
  154.6054  140.2438  155.7745 H   0  0  0  0  0  0  0  0  0  0  0  0  # atno 8010 bound_to 7997
  139.5029  144.3553  151.9880 H   0  0  0  0  0  0  0  0  0  0  0  0  # atno 10167 bound_to 10162
  157.0645  130.6322  149.5793 H   0  0  0  0  0  0  0  0  0  0  0  0  # atno 10718 bound_to 10713
  153.0747  135.4940  154.8378 H   0  0  0  0  0  0  0  0  0  0  0  0  # atno 10763 bound_to 10752
  154.7070  135.3012  154.9257 H   0  0  0  0  0  0  0  0  0  0  0  0  # atno 10764 bound_to 10752
  153.9962  135.6772  153.4809 H   0  0  0  0  0  0  0  0  0  0  0  0  # atno 10765 bound_to 10752
  140.3531  134.2207  155.7678 H   0  0  0  0  0  0  0  0  0  0  0  0  # atno 11005 bound_to 11000
  145.9256  140.9084  143.0382 LP  0  0  0  0  0  0  0  0  0  0  0  0  # atno 17320 bound_to 7965
  144.6727  140.1348  143.7441 LP  0  0  0  0  0  0  0  0  0  0  0  0  # atno 17321 bound_to 7965
  140.2990  144.3668  150.6066 LP  0  0  0  0  0  0  0  0  0  0  0  0  # atno 17342 bound_to 10162
  140.5888  143.2169  151.7292 LP  0  0  0  0  0  0  0  0  0  0  0  0  # atno 17343 bound_to 10162
  155.9968  130.5039  150.7512 LP  0  0  0  0  0  0  0  0  0  0  0  0  # atno 17370 bound_to 10713
  157.4928  131.0912  151.0407 LP  0  0  0  0  0  0  0  0  0  0  0  0  # atno 17371 bound_to 10713
  141.2006  133.7982  157.0479 LP  0  0  0  0  0  0  0  0  0  0  0  0  # atno 17394 bound_to 11000
  140.0687  134.9714  157.1430 LP  0  0  0  0  0  0  0  0  0  0  0  0  # atno 17395 bound_to 11000

$$$$
