AV-unprocessed.smi:3042|AV-procd|sdf|11600|dock1
  -GOLD-   2272016573D 1   1.00000     0.00000
 Structure written by MMmdl.
 33 34  0  0  0  0  0  0  0  0  2 V2000
  147.7188  138.5707  152.0873 N   0  3  0  0  0  0  0  0  0  0  0  0
  147.6639  138.8139  153.5406 C   0  0  0  0  0  0  0  0  0  0  0  0
  148.4774  140.0675  153.9542 C   0  0  1  0  0  0  0  0  0  0  0  0
  147.5209  141.0967  154.5556 C   0  0  0  0  0  0  0  0  0  0  0  0
  147.1829  142.2802  153.8622 C   0  0  0  0  0  0  0  0  0  0  0  0
  146.3038  143.1971  154.4690 C   0  0  0  0  0  0  0  0  0  0  0  0
  145.7928  142.8922  155.7459 C   0  0  0  0  0  0  0  0  0  0  0  0
  146.1073  141.7647  156.4191 N   0  0  0  0  0  0  0  0  0  0  0  0
  146.9497  140.8897  155.8304 C   0  0  0  0  0  0  0  0  0  0  0  0
  149.6108  139.7888  154.8609 N   0  0  0  0  0  0  0  0  0  0  0  0
  150.2790  141.0206  155.2980 C   0  0  0  0  0  0  0  0  0  0  0  0
  151.4607  140.7477  156.2438 C   0  0  0  0  0  0  0  0  0  0  0  0
  152.3930  139.8874  155.6020 O   0  0  0  0  0  0  0  0  0  0  0  0
  151.8080  138.6517  155.2129 C   0  0  0  0  0  0  0  0  0  0  0  0
  150.6236  138.9122  154.2654 C   0  0  0  0  0  0  0  0  0  0  0  0
  148.3283  139.2494  151.6538 H   0  0  0  0  0  0  0  0  0  0  0  0
  146.7915  138.6519  151.6957 H   0  0  0  0  0  0  0  0  0  0  0  0
  146.6205  138.9122  153.8421 H   0  0  0  0  0  0  0  0  0  0  0  0
  148.0504  137.9117  154.0122 H   0  0  0  0  0  0  0  0  0  0  0  0
  148.8828  140.5020  153.0388 H   0  0  0  0  0  0  0  0  0  0  0  0
  147.5905  142.4829  152.8827 H   0  0  0  0  0  0  0  0  0  0  0  0
  146.0256  144.1122  153.9672 H   0  0  0  0  0  0  0  0  0  0  0  0
  145.1152  143.5726  156.2400 H   0  0  0  0  0  0  0  0  0  0  0  0
  147.1790  139.9996  156.3977 H   0  0  0  0  0  0  0  0  0  0  0  0
  150.6372  141.5740  154.4285 H   0  0  0  0  0  0  0  0  0  0  0  0
  149.5793  141.6768  155.8149 H   0  0  0  0  0  0  0  0  0  0  0  0
  151.9598  141.6811  156.5043 H   0  0  0  0  0  0  0  0  0  0  0  0
  151.1158  140.2968  157.1757 H   0  0  0  0  0  0  0  0  0  0  0  0
  152.5627  138.0417  154.7166 H   0  0  0  0  0  0  0  0  0  0  0  0
  151.4819  138.1005  156.0966 H   0  0  0  0  0  0  0  0  0  0  0  0
  150.1935  137.9446  154.0135 H   0  0  0  0  0  0  0  0  0  0  0  0
  150.9922  139.3493  153.3361 H   0  0  0  0  0  0  0  0  0  0  0  0
  148.0751  137.6408  151.9176 H   0  0  0  0  0  0  0  0  0  0  0  0
  1  2  1  0  0  0  0
  1 16  1  0  0  0  0
  1 17  1  0  0  0  0
  1 33  1  0  0  0  0
  2  3  1  0  0  0  0
  2 18  1  0  0  0  0
  2 19  1  0  0  0  0
  3  4  1  0  0  0  0
  3 10  1  0  0  0  0
  3 20  1  0  0  0  0
  4  9  1  0  0  0  0
  4  5  2  0  0  0  0
  5  6  1  0  0  0  0
  5 21  1  0  0  0  0
  6  7  2  0  0  0  0
  6 22  1  0  0  0  0
  7  8  1  0  0  0  0
  7 23  1  0  0  0  0
  8  9  2  0  0  0  0
  9 24  1  0  0  0  0
 10 15  1  0  0  0  0
 10 11  1  0  0  0  0
 11 12  1  0  0  0  0
 11 25  1  0  0  0  0
 11 26  1  0  0  0  0
 12 13  1  0  0  0  0
 12 27  1  0  0  0  0
 12 28  1  0  0  0  0
 13 14  1  0  0  0  0
 14 15  1  0  0  0  0
 14 29  1  0  0  0  0
 14 30  1  0  0  0  0
 15 31  1  0  0  0  0
 15 32  1  0  0  0  0
M  CHG  1   1   1
M  END
> <s_m_source_file>
AV-unprocessed.smi

> <i_m_source_file_index>
3042

> <i_lp_mmshare_version>
43012

> <i_f3d_flags>
0

> <s_epik_input>
W0NIMl0xW0NIMl1PW0NIMl1bQ0gyXU4xW0NASF0oW0NIMl1bTkgyXSljMltjSF1bY0hdW2NIXW5bY0hdMg==

> <s_epik_cmdline>
J2VwaWtfcHl0aG9uJywgJy1waCcsICc3LjAnLCAnLXRuJywgJzgnLCAnLW1hJywgJzIwMCcsICctbWV0YWxfYmluZGluZycsICctaW1hZScsICc8aW5maWxlLm1hZT4nLCAnLW9tYWUnLCAnPG91dGZpbGUubWFlPic=

> <r_epik_Ionization_Penalty>
0.0112597

> <r_epik_Ionization_Penalty_Charging>
0.00794922

> <r_epik_Ionization_Penalty_Neutral>
0.00331052

> <r_epik_State_Penalty>
0.00596555

> <r_epik_Charging_Adjusted_Penalty>
0.0139148

> <i_epik_Tot_Q>
1

> <i_epik_Tot_abs_Q>
1

> <r_epik_Metal_State_Penalty>
0.00603286

> <b_epik_Metal_Only>
0

> <s_lp_Force_Field>
OPLS_2005

> <r_lp_Energy>
28.2789

> <b_lp_Chiralities_Consistent>
1

> <s_lp_Variant>
AV-unprocessed.smi:3042-2

> <Gold.Version>
5.8.1

> <Gold.Id.Protein>
6NUR|6NUR_protein|mol2

> <Gold.PLP.Fitness>
37.8410

> <Gold.PLP.PLP>
-27.9590

> <Gold.PLP.part.hbond>
-3.7534

> <Gold.PLP.part.metal>
0.0000

> <Gold.PLP.part.buried>
-0.9113

> <Gold.PLP.part.nonpolar>
-21.8747

> <Gold.PLP.part.repulsive>
0.2210

> <Gold.PLP.ligand.clash>
0.0000

> <Gold.PLP.ligand.torsion>
0.9234

> <Gold.PLP.Chemscore.Hbond>
3.8775

> <Gold.PLP.Chemscore.CHOScore>
0.0000

> <Gold.PLP.Chemscore.Metal>
0.0000

> <Gold.Chemscore.Hbonds>
donor molecule, donor type, donor heavy atom, donor atom, acceptor molecule, acceptor atom, score
      L1  H     1    16       P1  7957  1.00
      L1  H     1    33       P1  7948  2.00
      P1  H  7997  8009       L1    13  0.93

> <Gold.PLP.Chemscore.Internal.Correction>
0.0963

> <Gold.Rescore>
     Score         DG    S(hbond)    S(metal)    S(lipo)     H(rot)  DE(clash)    DE(int)     intcor
     17.81     -18.90       2.91        0.00      64.17       1.48       0.22       0.86       ----

> <Gold.Chemscore.Fitness>
17.8099

> <Gold.Chemscore.DG>
-18.8987

> <Gold.Chemscore.ZeroCoef>
-5.4800

> <Gold.Chemscore.Hbond>
2.9076

> <Gold.Chemscore.Metal>
0.0000

> <Gold.Chemscore.Lipo>
64.1690

> <Gold.Chemscore.Internal_Hbond>
0.0000

> <Gold.Chemscore.DEClash>
0.2243

> <Gold.Chemscore.DEInternal>
0.8644

> <Gold.Chemscore.Rot>
1.4846

> <Gold.Chemscore.Internal.Correction>
   9.000000E+99

> <Gold.Chemscore.Hbonds>
donor molecule, donor type, donor heavy atom, donor atom, acceptor molecule, acceptor atom, score
      L1  H     1    16       P1  7957  0.91
      L1  H     1    33       P1  7948  0.99
      P1  H  7997  8009       L1    13  0.83

> <Gold.Chemscore.Hbond.Weighted>
-9.7114

> <Gold.Chemscore.Metal.Weighted>
-0.0000

> <Gold.Chemscore.Lipo.Weighted>
-7.5078

> <Gold.Chemscore.Internal_Hbond.Weighted>
0.0000

> <Gold.Chemscore.DEClash.Weighted>
0.2243

> <Gold.Chemscore.DEInternal.Weighted>
0.8644

> <Gold.Chemscore.Rot.Weighted>
3.8005

> <Gold.Chemscore.Internal.Correction.Weighted>
   9.000000E+99

> <Gold.Protein.RotatedTorsions>
[ 6907 6896 6895 6894 ] final  -46.08 input  -60.11 | X-H torsion
[ 7974 7965 7964 7962 ] final -134.05 input  175.53 | X-H torsion
[ 8008 7997 7996 7995 ] final -144.69 input   59.86 | X-H torsion
[ 10167 10162 10161 10158 ] final -142.62 input  -65.29 | X-H torsion
[ 10718 10713 10712 10709 ] final -158.80 input   66.30 | X-H torsion
[ 10763 10752 10751 10750 ] final  -23.43 input  -60.55 | X-H torsion
[ 11005 11000 10999 10996 ] final   14.90 input  -57.11 | X-H torsion

> <Gold.Protein.ActiveResidues>
 VAL166  LYS551  ARG553  GLY616  TRP617  ASP618  TYR619  PRO620  LYS621  CYS622 
 ASP623  PHE694  ASN695  SER759  ASP760  ASP761  ALA762  ILE779  LEU786  VAL792 
 PHE793  MET794  SER795  GLU796  ALA797  LYS798  CYS799  TRP800  GLU811  SER814 

> <Gold.Protein.RotatedAtoms>
  150.9151  134.8568  159.7450 H   0  0  0  0  0  0  0  0  0  0  0  0  # atno 6907 bound_to 6896
  152.4964  134.4302  159.9519 H   0  0  0  0  0  0  0  0  0  0  0  0  # atno 6908 bound_to 6896
  151.4340  133.3622  159.2808 H   0  0  0  0  0  0  0  0  0  0  0  0  # atno 6909 bound_to 6896
  144.9138  140.6928  143.5008 H   0  0  0  0  0  0  0  0  0  0  0  0  # atno 7974 bound_to 7965
  155.5310  140.0599  157.2889 H   0  0  0  0  0  0  0  0  0  0  0  0  # atno 8008 bound_to 7997
  154.4484  140.1936  156.0539 H   0  0  0  0  0  0  0  0  0  0  0  0  # atno 8009 bound_to 7997
  156.0652  140.3267  155.7513 H   0  0  0  0  0  0  0  0  0  0  0  0  # atno 8010 bound_to 7997
  139.8071  143.7754  152.2661 H   0  0  0  0  0  0  0  0  0  0  0  0  # atno 10167 bound_to 10162
  156.5593  130.8640  151.2804 H   0  0  0  0  0  0  0  0  0  0  0  0  # atno 10718 bound_to 10713
  153.6677  135.6973  153.5157 H   0  0  0  0  0  0  0  0  0  0  0  0  # atno 10763 bound_to 10752
  153.2582  135.4253  155.0867 H   0  0  0  0  0  0  0  0  0  0  0  0  # atno 10764 bound_to 10752
  154.8435  135.3548  154.6221 H   0  0  0  0  0  0  0  0  0  0  0  0  # atno 10765 bound_to 10752
  140.4643  134.1096  155.7721 H   0  0  0  0  0  0  0  0  0  0  0  0  # atno 11005 bound_to 11000
  145.3410  139.1732  143.4486 LP  0  0  0  0  0  0  0  0  0  0  0  0  # atno 17320 bound_to 7965
  146.3172  140.3451  142.8651 LP  0  0  0  0  0  0  0  0  0  0  0  0  # atno 17321 bound_to 7965
  139.7891  144.7417  150.9980 LP  0  0  0  0  0  0  0  0  0  0  0  0  # atno 17342 bound_to 10162
  140.7819  143.4460  151.0481 LP  0  0  0  0  0  0  0  0  0  0  0  0  # atno 17343 bound_to 10162
  157.7372  130.9791  150.2178 LP  0  0  0  0  0  0  0  0  0  0  0  0  # atno 17370 bound_to 10713
  156.2814  130.3734  149.7932 LP  0  0  0  0  0  0  0  0  0  0  0  0  # atno 17371 bound_to 10713
  141.1607  133.8799  157.1856 LP  0  0  0  0  0  0  0  0  0  0  0  0  # atno 17394 bound_to 11000
  139.9925  135.0059  157.0008 LP  0  0  0  0  0  0  0  0  0  0  0  0  # atno 17395 bound_to 11000

$$$$
