AV-unprocessed.smi:1245|AV-procd|sdf|5239|dock3
  -GOLD-   22720 4343D 1   1.00000     0.00000
 Structure written by MMmdl.
 43 44  0  0  0  0  0  0  0  0  1 V2000
  148.8367  138.6713  158.4429 O   0  0  0  0  0  0  0  0  0  0  0  0
  149.8198  138.0454  158.8389 C   0  0  0  0  0  0  0  0  0  0  0  0
  149.6653  136.6066  159.3350 C   0  0  0  0  0  0  0  0  0  0  0  0
  148.2934  136.0012  158.9909 C   0  0  0  0  0  0  0  0  0  0  0  0
  147.1036  136.1633  160.3965 S   0  0  0  0  0  0  0  0  0  0  0  0
  147.3157  137.4726  161.0326 O   0  0  0  0  0  0  0  0  0  0  0  0
  145.7610  135.8113  159.9093 O   0  0  0  0  0  0  0  0  0  0  0  0
  147.6741  134.8392  161.5604 C   0  0  0  0  0  0  0  0  0  0  0  0
  147.5659  133.4523  160.8954 C   0  0  0  0  0  0  0  0  0  0  0  0
  146.5829  132.6300  161.7373 C   0  0  0  0  0  0  0  0  0  0  0  0
  145.7819  133.6542  162.5367 C   0  0  0  0  0  0  0  0  0  0  0  0
  146.7902  134.7664  162.8166 C   0  0  0  0  0  0  0  0  0  0  0  0
  151.0590  138.5570  158.8695 N   0  0  0  0  0  0  0  0  0  0  0  0
  151.4212  139.9055  158.4448 C   0  0  0  0  0  0  0  0  0  0  0  0
  152.1092  140.7183  159.5595 C   0  0  0  0  0  0  0  0  0  0  0  0
  151.9662  142.2215  159.3901 C   0  0  0  0  0  0  0  0  0  0  0  0
  152.3645  143.1046  160.4169 C   0  0  0  0  0  0  0  0  0  0  0  0
  152.2224  144.4894  160.2040 C   0  0  0  0  0  0  0  0  0  0  0  0
  151.6900  144.9358  158.9792 C   0  0  0  0  0  0  0  0  0  0  0  0
  151.3206  143.9734  158.0184 C   0  0  0  0  0  0  0  0  0  0  0  0
  151.4524  142.6434  158.2125 N   0  0  0  0  0  0  0  0  0  0  0  0
  150.4655  135.9772  158.9432 H   0  0  0  0  0  0  0  0  0  0  0  0
  149.7905  136.6192  160.4180 H   0  0  0  0  0  0  0  0  0  0  0  0
  147.8663  136.5236  158.1353 H   0  0  0  0  0  0  0  0  0  0  0  0
  148.3811  134.9501  158.7171 H   0  0  0  0  0  0  0  0  0  0  0  0
  148.7076  135.0627  161.8262 H   0  0  0  0  0  0  0  0  0  0  0  0
  147.1916  133.5406  159.8749 H   0  0  0  0  0  0  0  0  0  0  0  0
  148.5364  132.9589  160.8354 H   0  0  0  0  0  0  0  0  0  0  0  0
  145.9476  131.9859  161.1287 H   0  0  0  0  0  0  0  0  0  0  0  0
  147.1395  131.9907  162.4239 H   0  0  0  0  0  0  0  0  0  0  0  0
  144.9593  134.0370  161.9314 H   0  0  0  0  0  0  0  0  0  0  0  0
  145.3569  133.2347  163.4491 H   0  0  0  0  0  0  0  0  0  0  0  0
  147.4045  134.4838  163.6722 H   0  0  0  0  0  0  0  0  0  0  0  0
  146.3047  135.7092  163.0657 H   0  0  0  0  0  0  0  0  0  0  0  0
  151.8075  137.9698  159.2087 H   0  0  0  0  0  0  0  0  0  0  0  0
  152.0991  139.8076  157.5965 H   0  0  0  0  0  0  0  0  0  0  0  0
  150.5414  140.4343  158.0751 H   0  0  0  0  0  0  0  0  0  0  0  0
  151.6996  140.4302  160.5285 H   0  0  0  0  0  0  0  0  0  0  0  0
  153.1696  140.4653  159.5970 H   0  0  0  0  0  0  0  0  0  0  0  0
  152.7754  142.7305  161.3433 H   0  0  0  0  0  0  0  0  0  0  0  0
  152.5182  145.1956  160.9657 H   0  0  0  0  0  0  0  0  0  0  0  0
  151.5677  145.9903  158.7804 H   0  0  0  0  0  0  0  0  0  0  0  0
  150.9096  144.2797  157.0678 H   0  0  0  0  0  0  0  0  0  0  0  0
  1  2  2  0  0  0  0
  2  3  1  0  0  0  0
  2 13  1  0  0  0  0
  3  4  1  0  0  0  0
  3 22  1  0  0  0  0
  3 23  1  0  0  0  0
  4  5  1  0  0  0  0
  4 24  1  0  0  0  0
  4 25  1  0  0  0  0
  5  6  2  0  0  0  0
  5  7  2  0  0  0  0
  5  8  1  0  0  0  0
  8 12  1  0  0  0  0
  8  9  1  0  0  0  0
  8 26  1  0  0  0  0
  9 10  1  0  0  0  0
  9 27  1  0  0  0  0
  9 28  1  0  0  0  0
 10 11  1  0  0  0  0
 10 29  1  0  0  0  0
 10 30  1  0  0  0  0
 11 12  1  0  0  0  0
 11 31  1  0  0  0  0
 11 32  1  0  0  0  0
 12 33  1  0  0  0  0
 12 34  1  0  0  0  0
 13 14  1  0  0  0  0
 13 35  1  0  0  0  0
 14 15  1  0  0  0  0
 14 36  1  0  0  0  0
 14 37  1  0  0  0  0
 15 16  1  0  0  0  0
 15 38  1  0  0  0  0
 15 39  1  0  0  0  0
 16 21  1  0  0  0  0
 16 17  2  0  0  0  0
 17 18  1  0  0  0  0
 17 40  1  0  0  0  0
 18 19  2  0  0  0  0
 18 41  1  0  0  0  0
 19 20  1  0  0  0  0
 19 42  1  0  0  0  0
 20 21  2  0  0  0  0
 20 43  1  0  0  0  0
M  END
> <s_m_source_file>
AV-unprocessed.smi

> <i_m_source_file_index>
1245

> <i_lp_mmshare_version>
43012

> <i_f3d_flags>
0

> <s_epik_input>
W0NIMl0xW0NIMl1bQ0gyXVtDSDJdW0NIXTFTKD1PKSg9TylbQ0gyXVtDSDJdQyg9TylbTkhdW0NIMl1bQ0gyXWMyW2NIXVtjSF1bY0hdW2NIXW4y

> <s_epik_cmdline>
J2VwaWtfcHl0aG9uJywgJy1waCcsICc3LjAnLCAnLXRuJywgJzgnLCAnLW1hJywgJzIwMCcsICctbWV0YWxfYmluZGluZycsICctaW1hZScsICc8aW5maWxlLm1hZT4nLCAnLW9tYWUnLCAnPG91dGZpbGUubWFlPic=

> <r_epik_Ionization_Penalty>
0.0243247

> <r_epik_Ionization_Penalty_Charging>
0

> <r_epik_Ionization_Penalty_Neutral>
0.0243247

> <r_epik_State_Penalty>
0.0197389

> <r_epik_Charging_Adjusted_Penalty>
0.0197389

> <i_epik_Tot_Q>
0

> <i_epik_Tot_abs_Q>
0

> <r_epik_Metal_State_Penalty>
0.0189562

> <b_epik_Metal_Only>
0

> <s_lp_Force_Field>
OPLS_2005

> <r_lp_Energy>
12.2182

> <b_lp_Chiralities_Consistent>
1

> <s_lp_Variant>
AV-unprocessed.smi:1245-1

> <Gold.Version>
5.8.1

> <Gold.Id.Protein>
6NUR|6NUR_protein|mol2

> <Gold.PLP.Fitness>
48.4321

> <Gold.PLP.PLP>
-42.0438

> <Gold.PLP.part.hbond>
-1.9427

> <Gold.PLP.part.metal>
0.0000

> <Gold.PLP.part.buried>
-3.1971

> <Gold.PLP.part.nonpolar>
-36.7342

> <Gold.PLP.part.repulsive>
0.1639

> <Gold.PLP.ligand.clash>
0.0000

> <Gold.PLP.ligand.torsion>
0.9851

> <Gold.PLP.Chemscore.Hbond>
1.6880

> <Gold.PLP.Chemscore.CHOScore>
1.0000

> <Gold.PLP.Chemscore.Metal>
0.0000

> <Gold.Chemscore.Hbonds>
donor molecule, donor type, donor heavy atom, donor atom, acceptor molecule, acceptor atom, score
      P1  H  6931  6943       L1     6  0.63
      P1  H  6934  6947       L1     6  1.00
      L1  C    20    43       P1  8028  1.00

> <Gold.PLP.Chemscore.Internal.Correction>
0.2945

> <Gold.Rescore>
     Score         DG    S(hbond)    S(metal)    S(lipo)     H(rot)  DE(clash)    DE(int)     intcor
     18.84     -19.85       1.76        0.00     116.43       2.00       0.15       0.86       ----

> <Gold.Chemscore.Fitness>
18.8444

> <Gold.Chemscore.DG>
-19.8518

> <Gold.Chemscore.ZeroCoef>
-5.4800

> <Gold.Chemscore.Hbond>
1.7584

> <Gold.Chemscore.Metal>
0.0000

> <Gold.Chemscore.Lipo>
116.4303

> <Gold.Chemscore.Internal_Hbond>
0.0000

> <Gold.Chemscore.DEClash>
0.1492

> <Gold.Chemscore.DEInternal>
0.8583

> <Gold.Chemscore.Rot>
2.0014

> <Gold.Chemscore.Internal.Correction>
   9.000000E+99

> <Gold.Chemscore.Hbonds>
donor molecule, donor type, donor heavy atom, donor atom, acceptor molecule, acceptor atom, score
      P1  H  6931  6943       L1     6  0.61
      P1  H  6934  6947       L1     6  0.94

> <Gold.Chemscore.Hbond.Weighted>
-5.8730

> <Gold.Chemscore.Metal.Weighted>
-0.0000

> <Gold.Chemscore.Lipo.Weighted>
-13.6223

> <Gold.Chemscore.Internal_Hbond.Weighted>
0.0000

> <Gold.Chemscore.DEClash.Weighted>
0.1492

> <Gold.Chemscore.DEInternal.Weighted>
0.8583

> <Gold.Chemscore.Rot.Weighted>
5.1236

> <Gold.Chemscore.Internal.Correction.Weighted>
   9.000000E+99

> <Gold.Protein.RotatedTorsions>
[ 6907 6896 6895 6894 ] final   37.41 input  -60.11 | X-H torsion
[ 7974 7965 7964 7962 ] final -112.21 input  175.53 | X-H torsion
[ 8008 7997 7996 7995 ] final  -91.19 input   59.86 | X-H torsion
[ 10167 10162 10161 10158 ] final  173.25 input  -65.29 | X-H torsion
[ 10718 10713 10712 10709 ] final   -9.29 input   66.30 | X-H torsion
[ 10763 10752 10751 10750 ] final  -55.21 input  -60.55 | X-H torsion
[ 11005 11000 10999 10996 ] final  -52.34 input  -57.11 | X-H torsion

> <Gold.Protein.ActiveResidues>
 VAL166  LYS551  ARG553  GLY616  TRP617  ASP618  TYR619  PRO620  LYS621  CYS622 
 ASP623  PHE694  ASN695  SER759  ASP760  ASP761  ALA762  ILE779  LEU786  VAL792 
 PHE793  MET794  SER795  GLU796  ALA797  LYS798  CYS799  TRP800  GLU811  SER814 

> <Gold.Protein.RotatedAtoms>
  152.1428  134.9049  160.0552 H   0  0  0  0  0  0  0  0  0  0  0  0  # atno 6907 bound_to 6896
  152.0110  133.3856  159.4228 H   0  0  0  0  0  0  0  0  0  0  0  0  # atno 6908 bound_to 6896
  150.6867  134.3652  159.5011 H   0  0  0  0  0  0  0  0  0  0  0  0  # atno 6909 bound_to 6896
  145.1467  140.8807  143.3670 H   0  0  0  0  0  0  0  0  0  0  0  0  # atno 7974 bound_to 7965
  154.7078  140.0522  157.0520 H   0  0  0  0  0  0  0  0  0  0  0  0  # atno 8008 bound_to 7997
  155.0597  140.3188  155.4646 H   0  0  0  0  0  0  0  0  0  0  0  0  # atno 8009 bound_to 7997
  156.2780  140.2101  156.5723 H   0  0  0  0  0  0  0  0  0  0  0  0  # atno 8010 bound_to 7997
  139.5102  144.3282  152.0137 H   0  0  0  0  0  0  0  0  0  0  0  0  # atno 10167 bound_to 10162
  156.6901  130.5062  149.5946 H   0  0  0  0  0  0  0  0  0  0  0  0  # atno 10718 bound_to 10713
  154.1871  135.6433  153.5050 H   0  0  0  0  0  0  0  0  0  0  0  0  # atno 10763 bound_to 10752
  153.0044  135.5420  154.6454 H   0  0  0  0  0  0  0  0  0  0  0  0  # atno 10764 bound_to 10752
  154.5833  135.2927  155.0683 H   0  0  0  0  0  0  0  0  0  0  0  0  # atno 10765 bound_to 10752
  141.0919  133.6631  156.4010 H   0  0  0  0  0  0  0  0  0  0  0  0  # atno 11005 bound_to 11000
  145.0474  139.3209  143.5946 LP  0  0  0  0  0  0  0  0  0  0  0  0  # atno 17320 bound_to 7965
  146.3499  139.9870  142.8689 LP  0  0  0  0  0  0  0  0  0  0  0  0  # atno 17321 bound_to 7965
  140.2722  144.3951  150.6147 LP  0  0  0  0  0  0  0  0  0  0  0  0  # atno 17342 bound_to 10162
  140.6080  143.2168  151.6943 LP  0  0  0  0  0  0  0  0  0  0  0  0  # atno 17343 bound_to 10162
  156.1804  130.6495  151.0944 LP  0  0  0  0  0  0  0  0  0  0  0  0  # atno 17370 bound_to 10713
  157.7012  131.0775  150.6814 LP  0  0  0  0  0  0  0  0  0  0  0  0  # atno 17371 bound_to 10713
  140.5231  134.6285  157.5325 LP  0  0  0  0  0  0  0  0  0  0  0  0  # atno 17394 bound_to 11000
  139.9747  134.7235  155.9973 LP  0  0  0  0  0  0  0  0  0  0  0  0  # atno 17395 bound_to 11000

$$$$
