AV-unprocessed.smi:148|AV-procd|sdf|1206|dock8
  -GOLD-   2262018373D 1   1.00000     0.00000
 Structure written by MMmdl.
 63 67  0  0  0  0  0  0  0  0  1 V2000
  149.6544  133.0783  157.8864 O   0  0  0  0  0  0  0  0  0  0  0  0
  149.4479  132.0084  156.9879 C   0  0  0  0  0  0  0  0  0  0  0  0
  149.9313  132.3686  155.5634 C   0  0  2  0  0  0  0  0  0  0  0  0
  149.0206  133.4400  154.9080 C   0  0  0  0  0  0  0  0  0  0  0  0
  149.4349  134.7960  155.2215 N   0  0  0  0  0  0  0  0  0  0  0  0
  150.6622  135.3670  154.9660 C   0  0  0  0  0  0  0  0  0  0  0  0
  150.7834  136.6141  155.3323 N   0  0  0  0  0  0  0  0  0  0  0  0
  149.5491  136.9194  155.8902 C   0  0  0  0  0  0  0  0  0  0  0  0
  148.9860  138.0922  156.4569 C   0  0  0  0  0  0  0  0  0  0  0  0
  149.6820  139.2465  156.5423 N   0  0  0  0  0  0  0  0  0  0  0  0
  150.7715  139.1032  157.5108 C   0  0  0  0  0  0  0  0  0  0  0  0
  151.7667  140.2627  157.4087 C   0  0  0  0  0  0  0  0  0  0  0  0
  151.0315  141.5929  157.5769 C   0  0  0  0  0  0  0  0  0  0  0  0
  149.8966  141.6958  156.5499 C   0  0  0  0  0  0  0  0  0  0  0  0
  148.9047  140.5016  156.6266 C   0  0  1  0  0  0  0  0  0  0  0  0
  147.7921  140.6448  155.5282 C   0  0  1  0  0  0  0  0  0  0  0  0
  147.2049  142.0569  155.3013 C   0  0  0  0  0  0  0  0  0  0  0  0
  146.6606  142.0978  153.8662 C   0  0  0  0  0  0  0  0  0  0  0  0
  147.0806  140.7789  153.2136 C   0  0  0  0  0  0  0  0  0  0  0  0
  148.2040  140.2361  154.0972 C   0  0  1  0  0  0  0  0  0  0  0  0
  149.4179  140.8561  153.7091 O   0  0  0  0  0  0  0  0  0  0  0  0
  147.7086  138.0308  156.9181 N   0  0  0  0  0  0  0  0  0  0  0  0
  147.0207  136.8888  156.8185 C   0  0  0  0  0  0  0  0  0  0  0  0
  147.4099  135.7211  156.3004 N   0  0  0  0  0  0  0  0  0  0  0  0
  148.6929  135.7851  155.8413 C   0  0  0  0  0  0  0  0  0  0  0  0
  150.1286  131.1050  154.6810 C   0  0  2  0  0  0  0  0  0  0  0  0
  148.8573  130.3238  154.3440 C   0  0  0  0  0  0  0  0  0  0  0  0
  149.2362  128.8630  154.5960 C   0  0  0  0  0  0  0  0  0  0  0  0
  150.6546  128.8555  154.5632 O   0  0  0  0  0  0  0  0  0  0  0  0
  151.0809  130.0335  155.2261 C   0  0  0  0  0  0  0  0  0  0  0  0
  148.8637  133.2074  158.3874 H   0  0  0  0  0  0  0  0  0  0  0  0
  149.9588  131.1197  157.3595 H   0  0  0  0  0  0  0  0  0  0  0  0
  148.3809  131.7877  156.9974 H   0  0  0  0  0  0  0  0  0  0  0  0
  150.9189  132.8193  155.6735 H   0  0  0  0  0  0  0  0  0  0  0  0
  149.0114  133.3451  153.8231 H   0  0  0  0  0  0  0  0  0  0  0  0
  147.9884  133.3204  155.2359 H   0  0  0  0  0  0  0  0  0  0  0  0
  151.4664  134.8297  154.4847 H   0  0  0  0  0  0  0  0  0  0  0  0
  150.3588  139.0658  158.5203 H   0  0  0  0  0  0  0  0  0  0  0  0
  151.2969  138.1607  157.3470 H   0  0  0  0  0  0  0  0  0  0  0  0
  152.5415  140.1610  158.1691 H   0  0  0  0  0  0  0  0  0  0  0  0
  152.2695  140.2348  156.4411 H   0  0  0  0  0  0  0  0  0  0  0  0
  150.6243  141.6676  158.5860 H   0  0  0  0  0  0  0  0  0  0  0  0
  151.7260  142.4248  157.4561 H   0  0  0  0  0  0  0  0  0  0  0  0
  149.3879  142.6440  156.7162 H   0  0  0  0  0  0  0  0  0  0  0  0
  150.3246  141.7492  155.5478 H   0  0  0  0  0  0  0  0  0  0  0  0
  148.4267  140.5265  157.6072 H   0  0  0  0  0  0  0  0  0  0  0  0
  146.9661  139.9891  155.8099 H   0  0  0  0  0  0  0  0  0  0  0  0
  146.4104  142.3007  156.0036 H   0  0  0  0  0  0  0  0  0  0  0  0
  147.9847  142.8111  155.4143 H   0  0  0  0  0  0  0  0  0  0  0  0
  145.5763  142.2134  153.8495 H   0  0  0  0  0  0  0  0  0  0  0  0
  147.0875  142.9461  153.3300 H   0  0  0  0  0  0  0  0  0  0  0  0
  146.2396  140.0843  153.2370 H   0  0  0  0  0  0  0  0  0  0  0  0
  147.3731  140.8979  152.1694 H   0  0  0  0  0  0  0  0  0  0  0  0
  148.3014  139.1556  153.9857 H   0  0  0  0  0  0  0  0  0  0  0  0
  149.6211  140.5911  152.8252 H   0  0  0  0  0  0  0  0  0  0  0  0
  146.0124  136.9158  157.2047 H   0  0  0  0  0  0  0  0  0  0  0  0
  150.5375  131.4223  153.7207 H   0  0  0  0  0  0  0  0  0  0  0  0
  147.9880  130.6142  154.9330 H   0  0  0  0  0  0  0  0  0  0  0  0
  148.5970  130.4755  153.2956 H   0  0  0  0  0  0  0  0  0  0  0  0
  148.8985  128.5440  155.5832 H   0  0  0  0  0  0  0  0  0  0  0  0
  148.8140  128.1842  153.8547 H   0  0  0  0  0  0  0  0  0  0  0  0
  152.1270  130.2549  155.0134 H   0  0  0  0  0  0  0  0  0  0  0  0
  150.9761  129.8845  156.3004 H   0  0  0  0  0  0  0  0  0  0  0  0
  1  2  1  0  0  0  0
  1 31  1  0  0  0  0
  2  3  1  0  0  0  0
  2 32  1  0  0  0  0
  2 33  1  0  0  0  0
  3  4  1  0  0  0  0
  3 26  1  0  0  0  0
  3 34  1  0  0  0  0
  4  5  1  0  0  0  0
  4 35  1  0  0  0  0
  4 36  1  0  0  0  0
  5 25  1  0  0  0  0
  5  6  1  0  0  0  0
  6  7  2  0  0  0  0
  6 37  1  0  0  0  0
  7  8  1  0  0  0  0
  8 25  2  0  0  0  0
  8  9  1  0  0  0  0
  9 10  1  0  0  0  0
  9 22  2  0  0  0  0
 10 15  1  0  0  0  0
 10 11  1  0  0  0  0
 11 12  1  0  0  0  0
 11 38  1  0  0  0  0
 11 39  1  0  0  0  0
 12 13  1  0  0  0  0
 12 40  1  0  0  0  0
 12 41  1  0  0  0  0
 13 14  1  0  0  0  0
 13 42  1  0  0  0  0
 13 43  1  0  0  0  0
 14 15  1  0  0  0  0
 14 44  1  0  0  0  0
 14 45  1  0  0  0  0
 15 16  1  0  0  0  0
 15 46  1  0  0  0  0
 16 20  1  0  0  0  0
 16 17  1  0  0  0  0
 16 47  1  0  0  0  0
 17 18  1  0  0  0  0
 17 48  1  0  0  0  0
 17 49  1  0  0  0  0
 18 19  1  0  0  0  0
 18 50  1  0  0  0  0
 18 51  1  0  0  0  0
 19 20  1  0  0  0  0
 19 52  1  0  0  0  0
 19 53  1  0  0  0  0
 20 21  1  0  0  0  0
 20 54  1  0  0  0  0
 21 55  1  0  0  0  0
 22 23  1  0  0  0  0
 23 24  2  0  0  0  0
 23 56  1  0  0  0  0
 24 25  1  0  0  0  0
 26 30  1  0  0  0  0
 26 27  1  0  0  0  0
 26 57  1  0  0  0  0
 27 28  1  0  0  0  0
 27 58  1  0  0  0  0
 27 59  1  0  0  0  0
 28 29  1  0  0  0  0
 28 60  1  0  0  0  0
 28 61  1  0  0  0  0
 29 30  1  0  0  0  0
 30 62  1  0  0  0  0
 30 63  1  0  0  0  0
M  END
> <s_m_source_file>
AV-unprocessed.smi

> <i_m_source_file_index>
148

> <i_lp_mmshare_version>
43012

> <i_f3d_flags>
0

> <s_epik_input>
W0NIMl0xT1tDSDJdW0NIMl1bQ0BIXTFbQ0BIXShbQ0gyXVtPSF0pW0NIMl1uKFtjSF1uMiljKGMyMyluW2NIXW5jM040W0NIMl1bQ0gyXVtDSDJdW0NIMl1bQ0BIXTRbQ0BASF01W0NIMl1bQ0gyXVtDSDJdW0NASF01W09IXQ==

> <s_epik_cmdline>
J2VwaWtfcHl0aG9uJywgJy1waCcsICc3LjAnLCAnLXRuJywgJzgnLCAnLW1hJywgJzIwMCcsICctbWV0YWxfYmluZGluZycsICctaW1hZScsICc8aW5maWxlLm1hZT4nLCAnLW9tYWUnLCAnPG91dGZpbGUubWFlPic=

> <r_lp_tautomer_probability>
1

> <r_epik_Ionization_Penalty>
0.00556303

> <r_epik_Ionization_Penalty_Charging>
0

> <r_epik_Ionization_Penalty_Neutral>
0.00556303

> <r_epik_State_Penalty>
0.00401767

> <r_epik_Charging_Adjusted_Penalty>
0.00401767

> <i_epik_Tot_Q>
0

> <i_epik_Tot_abs_Q>
0

> <r_epik_Metal_State_Penalty>
-0

> <b_epik_Metal_Only>
0

> <s_lp_Force_Field>
OPLS_2005

> <r_lp_Energy>
71.7906

> <b_lp_Chiralities_Consistent>
1

> <s_lp_Variant>
AV-unprocessed.smi:148-5

> <Gold.Version>
5.8.1

> <Gold.Id.Protein>
6NUR|6NUR_protein|mol2

> <Gold.PLP.Fitness>
42.7330

> <Gold.PLP.PLP>
-38.4662

> <Gold.PLP.part.hbond>
-4.0000

> <Gold.PLP.part.metal>
0.0000

> <Gold.PLP.part.buried>
-4.7413

> <Gold.PLP.part.nonpolar>
-29.9076

> <Gold.PLP.part.repulsive>
0.2390

> <Gold.PLP.ligand.clash>
0.0000

> <Gold.PLP.ligand.torsion>
1.2211

> <Gold.PLP.Chemscore.Hbond>
2.0000

> <Gold.PLP.Chemscore.CHOScore>
0.0000

> <Gold.PLP.Chemscore.Metal>
0.0000

> <Gold.Chemscore.Hbonds>
donor molecule, donor type, donor heavy atom, donor atom, acceptor molecule, acceptor atom, score
      L1  H    21    55       P1  7957  1.00
      P1  H  6896  6909       L1     1  0.98

> <Gold.PLP.Chemscore.Internal.Correction>
0.7090

> <Gold.Rescore>
     Score         DG    S(hbond)    S(metal)    S(lipo)     H(rot)  DE(clash)    DE(int)     intcor
     10.77     -13.61       1.83        0.00      90.00       3.32       0.27       2.56       ----

> <Gold.Chemscore.Fitness>
10.7720

> <Gold.Chemscore.DG>
-13.6090

> <Gold.Chemscore.ZeroCoef>
-5.4800

> <Gold.Chemscore.Hbond>
1.8260

> <Gold.Chemscore.Metal>
0.0000

> <Gold.Chemscore.Lipo>
90.0009

> <Gold.Chemscore.Internal_Hbond>
0.0000

> <Gold.Chemscore.DEClash>
0.2740

> <Gold.Chemscore.DEInternal>
2.5630

> <Gold.Chemscore.Rot>
3.3203

> <Gold.Chemscore.Internal.Correction>
   9.000000E+99

> <Gold.Chemscore.Hbonds>
donor molecule, donor type, donor heavy atom, donor atom, acceptor molecule, acceptor atom, score
      L1  H    21    55       P1  7957  1.00
      P1  H  6896  6909       L1     1  0.35

> <Gold.Chemscore.Hbond.Weighted>
-6.0989

> <Gold.Chemscore.Metal.Weighted>
-0.0000

> <Gold.Chemscore.Lipo.Weighted>
-10.5301

> <Gold.Chemscore.Internal_Hbond.Weighted>
0.0000

> <Gold.Chemscore.DEClash.Weighted>
0.2740

> <Gold.Chemscore.DEInternal.Weighted>
2.5630

> <Gold.Chemscore.Rot.Weighted>
8.5000

> <Gold.Chemscore.Internal.Correction.Weighted>
   9.000000E+99

> <Gold.Protein.RotatedTorsions>
[ 6907 6896 6895 6894 ] final  -28.04 input  -60.11 | X-H torsion
[ 7974 7965 7964 7962 ] final   98.24 input  175.53 | X-H torsion
[ 8008 7997 7996 7995 ] final   91.32 input   59.86 | X-H torsion
[ 10167 10162 10161 10158 ] final   50.08 input  -65.29 | X-H torsion
[ 10718 10713 10712 10709 ] final -162.68 input   66.30 | X-H torsion
[ 10763 10752 10751 10750 ] final -125.72 input  -60.55 | X-H torsion
[ 11005 11000 10999 10996 ] final  103.36 input  -57.11 | X-H torsion

> <Gold.Protein.ActiveResidues>
 VAL166  LYS551  ARG553  GLY616  TRP617  ASP618  TYR619  PRO620  LYS621  CYS622 
 ASP623  PHE694  ASN695  SER759  ASP760  ASP761  ALA762  ILE779  LEU786  VAL792 
 PHE793  MET794  SER795  GLU796  ALA797  LYS798  CYS799  TRP800  GLU811  SER814 

> <Gold.Protein.RotatedAtoms>
  151.1385  135.0167  159.8614 H   0  0  0  0  0  0  0  0  0  0  0  0  # atno 6907 bound_to 6896
  152.5452  134.1527  159.8535 H   0  0  0  0  0  0  0  0  0  0  0  0  # atno 6908 bound_to 6896
  151.1600  133.4805  159.2627 H   0  0  0  0  0  0  0  0  0  0  0  0  # atno 6909 bound_to 6896
  145.4148  139.2329  143.3228 H   0  0  0  0  0  0  0  0  0  0  0  0  # atno 7974 bound_to 7965
  156.0223  140.3339  155.7052 H   0  0  0  0  0  0  0  0  0  0  0  0  # atno 8008 bound_to 7997
  155.6004  140.0655  157.2752 H   0  0  0  0  0  0  0  0  0  0  0  0  # atno 8009 bound_to 7997
  154.4321  140.1811  156.1155 H   0  0  0  0  0  0  0  0  0  0  0  0  # atno 8010 bound_to 7997
  140.2761  144.3210  150.6276 H   0  0  0  0  0  0  0  0  0  0  0  0  # atno 10167 bound_to 10162
  156.6139  130.8862  151.2943 H   0  0  0  0  0  0  0  0  0  0  0  0  # atno 10718 bound_to 10713
  154.8739  135.4020  154.3313 H   0  0  0  0  0  0  0  0  0  0  0  0  # atno 10763 bound_to 10752
  153.4127  135.7021  153.6354 H   0  0  0  0  0  0  0  0  0  0  0  0  # atno 10764 bound_to 10752
  153.5050  135.3719  155.2529 H   0  0  0  0  0  0  0  0  0  0  0  0  # atno 10765 bound_to 10752
  139.8783  134.9260  156.5198 H   0  0  0  0  0  0  0  0  0  0  0  0  # atno 11005 bound_to 11000
  146.2686  140.4865  142.8823 LP  0  0  0  0  0  0  0  0  0  0  0  0  # atno 17320 bound_to 7965
  144.8284  140.6667  143.6307 LP  0  0  0  0  0  0  0  0  0  0  0  0  # atno 17321 bound_to 7965
  140.5850  143.2170  151.7359 LP  0  0  0  0  0  0  0  0  0  0  0  0  # atno 17342 bound_to 10162
  139.4975  144.4024  152.0167 LP  0  0  0  0  0  0  0  0  0  0  0  0  # atno 17343 bound_to 10162
  157.7246  130.9605  150.1582 LP  0  0  0  0  0  0  0  0  0  0  0  0  # atno 17370 bound_to 10713
  156.2367  130.3687  149.8383 LP  0  0  0  0  0  0  0  0  0  0  0  0  # atno 17371 bound_to 10713
  140.8459  133.8169  155.9120 LP  0  0  0  0  0  0  0  0  0  0  0  0  # atno 17394 bound_to 11000
  140.9192  134.2163  157.4937 LP  0  0  0  0  0  0  0  0  0  0  0  0  # atno 17395 bound_to 11000

$$$$
