AV-unprocessed.smi:1830|AV-procd|sdf|7449|dock7
  -GOLD-   22720 9143D 1   1.00000     0.00000
 Structure written by MMmdl.
 54 57  0  0  0  0  0  0  0  0  3 V2000
  151.2232  136.2479  155.4011 O   0  0  0  0  0  0  0  0  0  0  0  0
  150.0794  136.5192  155.0379 C   0  0  0  0  0  0  0  0  0  0  0  0
  149.1953  135.6000  154.6264 N   0  0  0  0  0  0  0  0  0  0  0  0
  149.4554  134.1670  154.5213 C   0  0  0  0  0  0  0  0  0  0  0  0
  148.2658  133.3736  153.9444 C   0  0  1  0  0  0  0  0  0  0  0  0
  148.4729  132.9425  152.4768 C   0  0  0  0  0  0  0  0  0  0  0  0
  147.3816  132.0610  152.0012 N   0  3  2  0  0  0  0  0  0  0  0  0
  146.1278  132.7288  151.5868 C   0  0  0  0  0  0  0  0  0  0  0  0
  144.9935  131.7320  151.8733 C   0  0  0  0  0  0  0  0  0  0  0  0
  145.6818  130.4706  152.4062 C   0  0  0  0  0  0  0  0  0  0  0  0
  147.0280  130.9704  152.9325 C   0  0  2  0  0  0  0  0  0  0  0  0
  146.9330  131.4806  154.3881 C   0  0  0  0  0  0  0  0  0  0  0  0
  148.1057  132.2033  154.7366 O   0  0  0  0  0  0  0  0  0  0  0  0
  149.5444  137.7511  155.0209 N   0  0  0  0  0  0  0  0  0  0  0  0
  150.1390  138.9704  155.4536 C   0  0  0  0  0  0  0  0  0  0  0  0
  151.3927  138.9999  156.1166 C   0  0  0  0  0  0  0  0  0  0  0  0
  151.9584  140.2340  156.4902 C   0  0  0  0  0  0  0  0  0  0  0  0
  151.2685  141.4207  156.1851 C   0  0  0  0  0  0  0  0  0  0  0  0
  150.0853  141.3595  155.5397 N   0  3  0  0  0  0  0  0  0  0  0  0
  149.4930  140.2019  155.1553 C   0  0  0  0  0  0  0  0  0  0  0  0
  148.2414  140.2595  154.5051 N   0  0  0  0  0  0  0  0  0  0  0  0
  147.1317  139.7167  155.2849 C   0  0  0  0  0  0  0  0  0  0  0  0
  145.9126  140.5861  154.9689 C   0  0  0  0  0  0  0  0  0  0  0  0
  146.5314  141.9238  154.5823 C   0  0  0  0  0  0  0  0  0  0  0  0
  147.8094  141.4996  153.8613 C   0  0  0  0  0  0  0  0  0  0  0  0
  148.2776  135.9141  154.3454 H   0  0  0  0  0  0  0  0  0  0  0  0
  150.3302  134.0340  153.8842 H   0  0  0  0  0  0  0  0  0  0  0  0
  149.7280  133.7748  155.5023 H   0  0  0  0  0  0  0  0  0  0  0  0
  147.3645  133.9824  154.0301 H   0  0  0  0  0  0  0  0  0  0  0  0
  148.5577  133.8056  151.8152 H   0  0  0  0  0  0  0  0  0  0  0  0
  149.4094  132.3900  152.3927 H   0  0  0  0  0  0  0  0  0  0  0  0
  145.9660  133.6487  152.1500 H   0  0  0  0  0  0  0  0  0  0  0  0
  146.1812  132.9928  150.5303 H   0  0  0  0  0  0  0  0  0  0  0  0
  144.3232  132.1423  152.6295 H   0  0  0  0  0  0  0  0  0  0  0  0
  144.3957  131.5213  150.9860 H   0  0  0  0  0  0  0  0  0  0  0  0
  145.0906  129.9500  153.1605 H   0  0  0  0  0  0  0  0  0  0  0  0
  145.8494  129.7750  151.5826 H   0  0  0  0  0  0  0  0  0  0  0  0
  147.7863  130.1883  152.8764 H   0  0  0  0  0  0  0  0  0  0  0  0
  146.0570  132.1150  154.5343 H   0  0  0  0  0  0  0  0  0  0  0  0
  146.8225  130.6380  155.0709 H   0  0  0  0  0  0  0  0  0  0  0  0
  148.5675  137.8085  154.7724 H   0  0  0  0  0  0  0  0  0  0  0  0
  151.9404  138.0947  156.3311 H   0  0  0  0  0  0  0  0  0  0  0  0
  152.9118  140.2689  156.9971 H   0  0  0  0  0  0  0  0  0  0  0  0
  151.6255  142.4102  156.4317 H   0  0  0  0  0  0  0  0  0  0  0  0
  146.9449  138.6721  155.0341 H   0  0  0  0  0  0  0  0  0  0  0  0
  147.3614  139.7690  156.3508 H   0  0  0  0  0  0  0  0  0  0  0  0
  145.3721  140.1715  154.1168 H   0  0  0  0  0  0  0  0  0  0  0  0
  145.2169  140.6620  155.8050 H   0  0  0  0  0  0  0  0  0  0  0  0
  145.8764  142.5357  153.9612 H   0  0  0  0  0  0  0  0  0  0  0  0
  146.7797  142.4927  155.4795 H   0  0  0  0  0  0  0  0  0  0  0  0
  148.5527  142.2962  153.8569 H   0  0  0  0  0  0  0  0  0  0  0  0
  147.5875  141.2712  152.8183 H   0  0  0  0  0  0  0  0  0  0  0  0
  147.7202  131.6071  151.1647 H   0  0  0  0  0  0  0  0  0  0  0  0
  149.6080  142.2368  155.3314 H   0  0  0  0  0  0  0  0  0  0  0  0
  1  2  2  0  0  0  0
  2  3  1  0  0  0  0
  2 14  1  0  0  0  0
  3  4  1  0  0  0  0
  3 26  1  0  0  0  0
  4  5  1  0  0  0  0
  4 27  1  0  0  0  0
  4 28  1  0  0  0  0
  5 13  1  0  0  0  0
  5  6  1  0  0  0  0
  5 29  1  0  0  0  0
  6  7  1  0  0  0  0
  6 30  1  0  0  0  0
  6 31  1  0  0  0  0
  7 11  1  0  0  0  0
  7  8  1  0  0  0  0
  7 53  1  0  0  0  0
  8  9  1  0  0  0  0
  8 32  1  0  0  0  0
  8 33  1  0  0  0  0
  9 10  1  0  0  0  0
  9 34  1  0  0  0  0
  9 35  1  0  0  0  0
 10 11  1  0  0  0  0
 10 36  1  0  0  0  0
 10 37  1  0  0  0  0
 11 12  1  0  0  0  0
 11 38  1  0  0  0  0
 12 13  1  0  0  0  0
 12 39  1  0  0  0  0
 12 40  1  0  0  0  0
 14 15  1  0  0  0  0
 14 41  1  0  0  0  0
 15 20  1  0  0  0  0
 15 16  2  0  0  0  0
 16 17  1  0  0  0  0
 16 42  1  0  0  0  0
 17 18  2  0  0  0  0
 17 43  1  0  0  0  0
 18 19  1  0  0  0  0
 18 44  1  0  0  0  0
 19 20  2  0  0  0  0
 19 54  1  0  0  0  0
 20 21  1  0  0  0  0
 21 25  1  0  0  0  0
 21 22  1  0  0  0  0
 22 23  1  0  0  0  0
 22 45  1  0  0  0  0
 22 46  1  0  0  0  0
 23 24  1  0  0  0  0
 23 47  1  0  0  0  0
 23 48  1  0  0  0  0
 24 25  1  0  0  0  0
 24 49  1  0  0  0  0
 24 50  1  0  0  0  0
 25 51  1  0  0  0  0
 25 52  1  0  0  0  0
M  CHG  1   7   1
M  CHG  1  19   1
M  END
> <s_m_source_file>
AV-unprocessed.smi

> <i_m_source_file_index>
1830

> <i_lp_mmshare_version>
43012

> <i_f3d_flags>
0

> <s_epik_input>
W0NIMl0xW0NIMl1bQ0gyXVtDQEhdKE4xMilbQ0gyXU9bQ0BASF0oW0NIMl0yKVtDSDJdW05IXUMoPU8pW05IXWMzW2NIXVtjSF1bY0hdbmMzTjRbQ0gyXVtDSDJdW0NIMl1bQ0gyXTQ=

> <s_epik_cmdline>
J2VwaWtfcHl0aG9uJywgJy1waCcsICc3LjAnLCAnLXRuJywgJzgnLCAnLW1hJywgJzIwMCcsICctbWV0YWxfYmluZGluZycsICctaW1hZScsICc8aW5maWxlLm1hZT4nLCAnLW9tYWUnLCAnPG91dGZpbGUubWFlPic=

> <r_lp_tautomer_probability>
0.999994

> <r_epik_Ionization_Penalty>
1.29113

> <r_epik_Ionization_Penalty_Charging>
1.29111

> <r_epik_Ionization_Penalty_Neutral>
1.88144e-05

> <r_epik_State_Penalty>
1.32676

> <r_epik_Charging_Adjusted_Penalty>
2.61787

> <i_epik_Tot_Q>
2

> <i_epik_Tot_abs_Q>
2

> <r_epik_Metal_State_Penalty>
1.40425

> <b_epik_Metal_Only>
0

> <s_lp_Force_Field>
OPLS_2005

> <r_lp_Energy>
74.6229

> <b_lp_Chiralities_Consistent>
1

> <s_lp_Variant>
AV-unprocessed.smi:1830-18

> <Gold.Version>
5.8.1

> <Gold.Id.Protein>
6NUR|6NUR_protein|mol2

> <Gold.PLP.Fitness>
39.9036

> <Gold.PLP.PLP>
-35.7093

> <Gold.PLP.part.hbond>
-3.0000

> <Gold.PLP.part.metal>
0.0000

> <Gold.PLP.part.buried>
-4.7606

> <Gold.PLP.part.nonpolar>
-27.4148

> <Gold.PLP.part.repulsive>
0.3887

> <Gold.PLP.ligand.clash>
0.0000

> <Gold.PLP.ligand.torsion>
0.9716

> <Gold.PLP.Chemscore.Hbond>
1.9920

> <Gold.PLP.Chemscore.CHOScore>
0.0000

> <Gold.PLP.Chemscore.Metal>
0.0000

> <Gold.Chemscore.Hbonds>
donor molecule, donor type, donor heavy atom, donor atom, acceptor molecule, acceptor atom, score
      L1  H     7    53       P1 10747  1.00
      P1  H 10752 10764       L1     1  1.00

> <Gold.PLP.Chemscore.Internal.Correction>
0.1615

> <Gold.Rescore>
     Score         DG    S(hbond)    S(metal)    S(lipo)     H(rot)  DE(clash)    DE(int)     intcor
     17.45     -20.46       2.50        0.00      88.00       1.43       0.71       2.30       ----

> <Gold.Chemscore.Fitness>
17.4487

> <Gold.Chemscore.DG>
-20.4601

> <Gold.Chemscore.ZeroCoef>
-5.4800

> <Gold.Chemscore.Hbond>
2.4966

> <Gold.Chemscore.Metal>
0.0000

> <Gold.Chemscore.Lipo>
88.0037

> <Gold.Chemscore.Internal_Hbond>
0.0000

> <Gold.Chemscore.DEClash>
0.7068

> <Gold.Chemscore.DEInternal>
2.3046

> <Gold.Chemscore.Rot>
1.4278

> <Gold.Chemscore.Internal.Correction>
   9.000000E+99

> <Gold.Chemscore.Hbonds>
donor molecule, donor type, donor heavy atom, donor atom, acceptor molecule, acceptor atom, score
      L1  H     7    53       P1 10747  0.95
      P1  H 10752 10764       L1     1  0.97

> <Gold.Chemscore.Hbond.Weighted>
-8.3388

> <Gold.Chemscore.Metal.Weighted>
-0.0000

> <Gold.Chemscore.Lipo.Weighted>
-10.2964

> <Gold.Chemscore.Internal_Hbond.Weighted>
0.0000

> <Gold.Chemscore.DEClash.Weighted>
0.7068

> <Gold.Chemscore.DEInternal.Weighted>
2.3046

> <Gold.Chemscore.Rot.Weighted>
3.6551

> <Gold.Chemscore.Internal.Correction.Weighted>
   9.000000E+99

> <Gold.Protein.RotatedTorsions>
[ 6907 6896 6895 6894 ] final -124.19 input  -60.11 | X-H torsion
[ 7974 7965 7964 7962 ] final  112.47 input  175.53 | X-H torsion
[ 8008 7997 7996 7995 ] final  -96.51 input   59.86 | X-H torsion
[ 10167 10162 10161 10158 ] final  141.84 input  -65.29 | X-H torsion
[ 10718 10713 10712 10709 ] final  -86.49 input   66.30 | X-H torsion
[ 10763 10752 10751 10750 ] final  -53.39 input  -60.55 | X-H torsion
[ 11005 11000 10999 10996 ] final  -52.10 input  -57.11 | X-H torsion

> <Gold.Protein.ActiveResidues>
 VAL166  LYS551  ARG553  GLY616  TRP617  ASP618  TYR619  PRO620  LYS621  CYS622 
 ASP623  PHE694  ASN695  SER759  ASP760  ASP761  ALA762  ILE779  LEU786  VAL792 
 PHE793  MET794  SER795  GLU796  ALA797  LYS798  CYS799  TRP800  GLU811  SER814 

> <Gold.Protein.RotatedAtoms>
  150.8744  133.7460  159.2951 H   0  0  0  0  0  0  0  0  0  0  0  0  # atno 6907 bound_to 6896
  151.5062  135.1062  159.9851 H   0  0  0  0  0  0  0  0  0  0  0  0  # atno 6908 bound_to 6896
  152.4717  133.8000  159.7003 H   0  0  0  0  0  0  0  0  0  0  0  0  # atno 6909 bound_to 6896
  145.2291  139.2827  143.4177 H   0  0  0  0  0  0  0  0  0  0  0  0  # atno 7974 bound_to 7965
  154.7755  140.0471  157.1085 H   0  0  0  0  0  0  0  0  0  0  0  0  # atno 8008 bound_to 7997
  154.9769  140.3096  155.4944 H   0  0  0  0  0  0  0  0  0  0  0  0  # atno 8009 bound_to 7997
  156.2928  140.2243  156.4865 H   0  0  0  0  0  0  0  0  0  0  0  0  # atno 8010 bound_to 7997
  139.5010  144.6146  151.6194 H   0  0  0  0  0  0  0  0  0  0  0  0  # atno 10167 bound_to 10162
  155.9989  130.4767  150.4723 H   0  0  0  0  0  0  0  0  0  0  0  0  # atno 10718 bound_to 10713
  154.1580  135.6479  153.4979 H   0  0  0  0  0  0  0  0  0  0  0  0  # atno 10763 bound_to 10752
  153.0118  135.5354  154.6739 H   0  0  0  0  0  0  0  0  0  0  0  0  # atno 10764 bound_to 10752
  154.6045  135.2947  155.0471 H   0  0  0  0  0  0  0  0  0  0  0  0  # atno 10765 bound_to 10752
  141.0906  133.6633  156.3975 H   0  0  0  0  0  0  0  0  0  0  0  0  # atno 11005 bound_to 11000
  146.3357  140.2621  142.8602 LP  0  0  0  0  0  0  0  0  0  0  0  0  # atno 17320 bound_to 7965
  144.9693  140.8353  143.5465 LP  0  0  0  0  0  0  0  0  0  0  0  0  # atno 17321 bound_to 7965
  140.5830  143.9913  150.6279 LP  0  0  0  0  0  0  0  0  0  0  0  0  # atno 17342 bound_to 10162
  140.3068  143.3224  152.0918 LP  0  0  0  0  0  0  0  0  0  0  0  0  # atno 17343 bound_to 10162
  157.2737  131.0592  151.2243 LP  0  0  0  0  0  0  0  0  0  0  0  0  # atno 17370 bound_to 10713
  157.3314  130.6987  149.6327 LP  0  0  0  0  0  0  0  0  0  0  0  0  # atno 17371 bound_to 10713
  140.5260  134.6258  157.5334 LP  0  0  0  0  0  0  0  0  0  0  0  0  # atno 17394 bound_to 11000
  139.9732  134.7259  156.0001 LP  0  0  0  0  0  0  0  0  0  0  0  0  # atno 17395 bound_to 11000

$$$$
