AV-unprocessed.smi:791|AV-procd|sdf|3748|dock2
  -GOLD-   22720 1183D 1   1.00000     0.00000
 Structure written by MMmdl.
 30 32  0  0  0  0  0  0  0  0  2 V2000
  152.2367  143.9391  159.7209 C   0  0  0  0  0  0  0  0  0  0  0  0
  151.3260  145.0690  159.2114 C   0  0  0  0  0  0  0  0  0  0  0  0
  150.0282  144.5286  158.7503 N   0  3  0  0  0  0  0  0  0  0  0  0
  150.1698  143.5213  157.6758 C   0  0  0  0  0  0  0  0  0  0  0  0
  151.0745  142.3580  158.1283 C   0  0  1  0  0  0  0  0  0  0  0  0
  151.2212  141.3151  157.0635 C   0  0  0  0  0  0  0  0  0  0  0  0
  150.5497  141.3998  155.9213 N   0  0  0  0  0  0  0  0  0  0  0  0
  150.9731  140.2676  155.2107 O   0  0  0  0  0  0  0  0  0  0  0  0
  151.8437  139.6250  156.0246 C   0  0  0  0  0  0  0  0  0  0  0  0
  152.5014  138.3801  155.5349 C   0  0  0  0  0  0  0  0  0  0  0  0
  153.5308  138.4343  154.4298 C   0  0  0  0  0  0  0  0  0  0  0  0
  152.1797  137.8182  154.1687 C   0  0  0  0  0  0  0  0  0  0  0  0
  152.0580  140.2464  157.1815 N   0  0  0  0  0  0  0  0  0  0  0  0
  152.4365  142.8643  158.6414 C   0  0  0  0  0  0  0  0  0  0  0  0
  151.7973  143.4874  160.6114 H   0  0  0  0  0  0  0  0  0  0  0  0
  153.2019  144.3457  160.0247 H   0  0  0  0  0  0  0  0  0  0  0  0
  151.1475  145.7971  160.0030 H   0  0  0  0  0  0  0  0  0  0  0  0
  151.8053  145.6027  158.3898 H   0  0  0  0  0  0  0  0  0  0  0  0
  149.5635  144.0965  159.5362 H   0  0  0  0  0  0  0  0  0  0  0  0
  149.1802  143.1514  157.4061 H   0  0  0  0  0  0  0  0  0  0  0  0
  150.5819  144.0056  156.7893 H   0  0  0  0  0  0  0  0  0  0  0  0
  150.5770  141.8832  158.9765 H   0  0  0  0  0  0  0  0  0  0  0  0
  152.6653  137.6807  156.3522 H   0  0  0  0  0  0  0  0  0  0  0  0
  153.7371  139.4027  153.9782 H   0  0  0  0  0  0  0  0  0  0  0  0
  154.3834  137.7624  154.5035 H   0  0  0  0  0  0  0  0  0  0  0  0
  152.1313  136.7358  154.0699 H   0  0  0  0  0  0  0  0  0  0  0  0
  151.4885  138.3760  153.5398 H   0  0  0  0  0  0  0  0  0  0  0  0
  153.0139  143.2847  157.8167 H   0  0  0  0  0  0  0  0  0  0  0  0
  153.0229  142.0366  159.0421 H   0  0  0  0  0  0  0  0  0  0  0  0
  149.4563  145.2896  158.4126 H   0  0  0  0  0  0  0  0  0  0  0  0
  1 14  1  0  0  0  0
  1  2  1  0  0  0  0
  1 15  1  0  0  0  0
  1 16  1  0  0  0  0
  2  3  1  0  0  0  0
  2 17  1  0  0  0  0
  2 18  1  0  0  0  0
  3  4  1  0  0  0  0
  3 19  1  0  0  0  0
  3 30  1  0  0  0  0
  4  5  1  0  0  0  0
  4 20  1  0  0  0  0
  4 21  1  0  0  0  0
  5  6  1  0  0  0  0
  5 14  1  0  0  0  0
  5 22  1  0  0  0  0
  6 13  1  0  0  0  0
  6  7  2  0  0  0  0
  7  8  1  0  0  0  0
  8  9  1  0  0  0  0
  9 10  1  0  0  0  0
  9 13  2  0  0  0  0
 10 12  1  0  0  0  0
 10 11  1  0  0  0  0
 10 23  1  0  0  0  0
 11 12  1  0  0  0  0
 11 24  1  0  0  0  0
 11 25  1  0  0  0  0
 12 26  1  0  0  0  0
 12 27  1  0  0  0  0
 14 28  1  0  0  0  0
 14 29  1  0  0  0  0
M  CHG  1   3   1
M  END
> <s_m_source_file>
AV-unprocessed.smi

> <i_m_source_file_index>
791

> <i_lp_mmshare_version>
43012

> <i_f3d_flags>
0

> <s_epik_input>
W0NIMl0xW0NIMl1bQ0gyXVtOSF1bQ0gyXVtDQEhdMWMybm9jKG4yKVtDSF0zW0NIMl1bQ0gyXTM=

> <s_epik_cmdline>
J2VwaWtfcHl0aG9uJywgJy1waCcsICc3LjAnLCAnLXRuJywgJzgnLCAnLW1hJywgJzIwMCcsICctbWV0YWxfYmluZGluZycsICctaW1hZScsICc8aW5maWxlLm1hZT4nLCAnLW9tYWUnLCAnPG91dGZpbGUubWFlPic=

> <r_lp_tautomer_probability>
1

> <r_epik_Ionization_Penalty>
0.000532935

> <r_epik_Ionization_Penalty_Charging>
0.000532935

> <r_epik_Ionization_Penalty_Neutral>
2.72852e-13

> <r_epik_State_Penalty>
0.000332992

> <r_epik_Charging_Adjusted_Penalty>
0.000865928

> <i_epik_Tot_Q>
1

> <i_epik_Tot_abs_Q>
1

> <r_epik_Metal_State_Penalty>
-0

> <b_epik_Metal_Only>
0

> <s_lp_Force_Field>
OPLS_2005

> <r_lp_Energy>
11.8714

> <b_lp_Chiralities_Consistent>
1

> <s_lp_Variant>
AV-unprocessed.smi:791-1

> <Gold.Version>
5.8.1

> <Gold.Id.Protein>
6NUR|6NUR_protein|mol2

> <Gold.PLP.Fitness>
34.9856

> <Gold.PLP.PLP>
-26.1288

> <Gold.PLP.part.hbond>
-2.4711

> <Gold.PLP.part.metal>
0.0000

> <Gold.PLP.part.buried>
0.3911

> <Gold.PLP.part.nonpolar>
-24.5537

> <Gold.PLP.part.repulsive>
0.2582

> <Gold.PLP.ligand.clash>
0.0000

> <Gold.PLP.ligand.torsion>
0.2637

> <Gold.PLP.Chemscore.Hbond>
3.0690

> <Gold.PLP.Chemscore.CHOScore>
0.0000

> <Gold.PLP.Chemscore.Metal>
0.0000

> <Gold.Chemscore.Hbonds>
donor molecule, donor type, donor heavy atom, donor atom, acceptor molecule, acceptor atom, score
      L1  H     3    30       P1  8029  2.00
      P1  H  7989  7998       L1     8  1.00
      P1  H  7997  8008       L1    13  0.03

> <Gold.PLP.Chemscore.Internal.Correction>
0.1770

> <Gold.Rescore>
     Score         DG    S(hbond)    S(metal)    S(lipo)     H(rot)  DE(clash)    DE(int)     intcor
     14.70     -16.49       1.51        0.00      77.89       1.23       1.55       0.24       ----

> <Gold.Chemscore.Fitness>
14.6999

> <Gold.Chemscore.DG>
-16.4919

> <Gold.Chemscore.ZeroCoef>
-5.4800

> <Gold.Chemscore.Hbond>
1.5123

> <Gold.Chemscore.Metal>
0.0000

> <Gold.Chemscore.Lipo>
77.8865

> <Gold.Chemscore.Internal_Hbond>
0.0000

> <Gold.Chemscore.DEClash>
1.5548

> <Gold.Chemscore.DEInternal>
0.2371

> <Gold.Chemscore.Rot>
1.2312

> <Gold.Chemscore.Internal.Correction>
   9.000000E+99

> <Gold.Chemscore.Hbonds>
donor molecule, donor type, donor heavy atom, donor atom, acceptor molecule, acceptor atom, score
      L1  H     3    30       P1  8029  0.66
      P1  H  7989  7998       L1     8  0.56

> <Gold.Chemscore.Hbond.Weighted>
-5.0510

> <Gold.Chemscore.Metal.Weighted>
-0.0000

> <Gold.Chemscore.Lipo.Weighted>
-9.1127

> <Gold.Chemscore.Internal_Hbond.Weighted>
0.0000

> <Gold.Chemscore.DEClash.Weighted>
1.5548

> <Gold.Chemscore.DEInternal.Weighted>
0.2371

> <Gold.Chemscore.Rot.Weighted>
3.1518

> <Gold.Chemscore.Internal.Correction.Weighted>
   9.000000E+99

> <Gold.Protein.RotatedTorsions>
[ 6907 6896 6895 6894 ] final   -1.98 input  -60.11 | X-H torsion
[ 7974 7965 7964 7962 ] final    8.77 input  175.53 | X-H torsion
[ 8008 7997 7996 7995 ] final  -69.12 input   59.86 | X-H torsion
[ 10167 10162 10161 10158 ] final  124.21 input  -65.29 | X-H torsion
[ 10718 10713 10712 10709 ] final -102.45 input   66.30 | X-H torsion
[ 10763 10752 10751 10750 ] final   42.83 input  -60.55 | X-H torsion
[ 11005 11000 10999 10996 ] final -141.45 input  -57.11 | X-H torsion

> <Gold.Protein.ActiveResidues>
 VAL166  LYS551  ARG553  GLY616  TRP617  ASP618  TYR619  PRO620  LYS621  CYS622 
 ASP623  PHE694  ASN695  SER759  ASP760  ASP761  ALA762  ILE779  LEU786  VAL792 
 PHE793  MET794  SER795  GLU796  ALA797  LYS798  CYS799  TRP800  GLU811  SER814 

> <Gold.Protein.RotatedAtoms>
  151.5373  135.1068  159.9917 H   0  0  0  0  0  0  0  0  0  0  0  0  # atno 6907 bound_to 6896
  152.4551  133.7703  159.6806 H   0  0  0  0  0  0  0  0  0  0  0  0  # atno 6908 bound_to 6896
  150.8492  133.7747  159.3056 H   0  0  0  0  0  0  0  0  0  0  0  0  # atno 6909 bound_to 6896
  146.2412  139.9883  142.8428 H   0  0  0  0  0  0  0  0  0  0  0  0  # atno 7974 bound_to 7965
  154.4916  140.0859  156.7607 H   0  0  0  0  0  0  0  0  0  0  0  0  # atno 8008 bound_to 7997
  155.4217  140.3446  155.4254 H   0  0  0  0  0  0  0  0  0  0  0  0  # atno 8009 bound_to 7997
  156.1338  140.1509  156.9014 H   0  0  0  0  0  0  0  0  0  0  0  0  # atno 8010 bound_to 7997
  139.5755  144.6961  151.3665 H   0  0  0  0  0  0  0  0  0  0  0  0  # atno 10167 bound_to 10162
  156.0229  130.5420  150.7109 H   0  0  0  0  0  0  0  0  0  0  0  0  # atno 10718 bound_to 10713
  152.9874  135.6120  154.3013 H   0  0  0  0  0  0  0  0  0  0  0  0  # atno 10763 bound_to 10752
  154.2734  135.2779  155.2730 H   0  0  0  0  0  0  0  0  0  0  0  0  # atno 10764 bound_to 10752
  154.5102  135.5843  153.6656 H   0  0  0  0  0  0  0  0  0  0  0  0  # atno 10765 bound_to 10752
  140.8323  134.2502  157.4851 H   0  0  0  0  0  0  0  0  0  0  0  0  # atno 11005 bound_to 11000
  145.1527  140.9632  143.4423 LP  0  0  0  0  0  0  0  0  0  0  0  0  # atno 17320 bound_to 7965
  145.0190  139.3441  143.6082 LP  0  0  0  0  0  0  0  0  0  0  0  0  # atno 17321 bound_to 7965
  140.7037  143.7566  150.7446 LP  0  0  0  0  0  0  0  0  0  0  0  0  # atno 17342 bound_to 10162
  140.1085  143.4721  152.2384 LP  0  0  0  0  0  0  0  0  0  0  0  0  # atno 17343 bound_to 10162
  157.4748  131.0896  151.0603 LP  0  0  0  0  0  0  0  0  0  0  0  0  # atno 17370 bound_to 10713
  157.1053  130.5999  149.5469 LP  0  0  0  0  0  0  0  0  0  0  0  0  # atno 17371 bound_to 10713
  139.8704  134.9592  156.4326 LP  0  0  0  0  0  0  0  0  0  0  0  0  # atno 17394 bound_to 11000
  140.8985  133.7797  155.9652 LP  0  0  0  0  0  0  0  0  0  0  0  0  # atno 17395 bound_to 11000

$$$$
