AV-unprocessed.smi:1595|AV-procd|sdf|6415|dock10
  -GOLD-   22720 7 53D 1   1.00000     0.00000
 Structure written by MMmdl.
 29 30  0  0  0  0  0  0  0  0  1 V2000
  149.1001  140.3733  157.5407 O   0  0  0  0  0  0  0  0  0  0  0  0
  149.7323  140.9153  156.6328 C   0  0  0  0  0  0  0  0  0  0  0  0
  151.2678  140.8970  156.6225 C   0  0  0  0  0  0  0  0  0  0  0  0
  151.8677  141.3805  157.8777 N   0  0  0  0  0  0  0  0  0  0  0  0
  151.4832  142.6613  158.3210 C   0  0  0  0  0  0  0  0  0  0  0  0
  151.9671  143.2235  159.4455 C   0  0  0  0  0  0  0  0  0  0  0  0
  151.4989  144.5869  159.9303 C   0  0  0  0  0  0  0  0  0  0  0  0
  152.0146  144.8690  161.1269 F   0  0  0  0  0  0  0  0  0  0  0  0
  151.8933  145.5309  159.0770 F   0  0  0  0  0  0  0  0  0  0  0  0
  150.1696  144.6396  160.0242 F   0  0  0  0  0  0  0  0  0  0  0  0
  152.8970  142.4237  160.2178 C   0  0  0  0  0  0  0  0  0  0  0  0
  153.2727  141.1958  159.8098 C   0  0  0  0  0  0  0  0  0  0  0  0
  152.7576  140.6086  158.5708 C   0  0  0  0  0  0  0  0  0  0  0  0
  153.1023  139.4923  158.1818 O   0  0  0  0  0  0  0  0  0  0  0  0
  149.1495  141.5330  155.5951 N   0  0  0  0  0  0  0  0  0  0  0  0
  147.7432  141.6654  155.3912 C   0  0  0  0  0  0  0  0  0  0  0  0
  147.1205  140.8782  154.2583 C   0  0  0  0  0  0  0  0  0  0  0  0
  147.2791  142.3684  154.1337 C   0  0  0  0  0  0  0  0  0  0  0  0
  151.5930  139.8771  156.4120 H   0  0  0  0  0  0  0  0  0  0  0  0
  151.6302  141.4896  155.7804 H   0  0  0  0  0  0  0  0  0  0  0  0
  150.7699  143.1614  157.6820 H   0  0  0  0  0  0  0  0  0  0  0  0
  153.3040  142.8190  161.1369 H   0  0  0  0  0  0  0  0  0  0  0  0
  153.9707  140.6295  160.4091 H   0  0  0  0  0  0  0  0  0  0  0  0
  149.7490  141.9453  154.8950 H   0  0  0  0  0  0  0  0  0  0  0  0
  147.1203  141.8067  156.2735 H   0  0  0  0  0  0  0  0  0  0  0  0
  147.7731  140.2516  153.6533 H   0  0  0  0  0  0  0  0  0  0  0  0
  146.1150  140.4909  154.4108 H   0  0  0  0  0  0  0  0  0  0  0  0
  146.3798  142.9767  154.2024 H   0  0  0  0  0  0  0  0  0  0  0  0
  148.0386  142.7370  153.4468 H   0  0  0  0  0  0  0  0  0  0  0  0
  1  2  2  0  0  0  0
  2  3  1  0  0  0  0
  2 15  1  0  0  0  0
  3  4  1  0  0  0  0
  3 19  1  0  0  0  0
  3 20  1  0  0  0  0
  4 13  1  0  0  0  0
  4  5  1  0  0  0  0
  5  6  2  0  0  0  0
  5 21  1  0  0  0  0
  6  7  1  0  0  0  0
  6 11  1  0  0  0  0
  7  8  1  0  0  0  0
  7  9  1  0  0  0  0
  7 10  1  0  0  0  0
 11 12  2  0  0  0  0
 11 22  1  0  0  0  0
 12 13  1  0  0  0  0
 12 23  1  0  0  0  0
 13 14  2  0  0  0  0
 15 16  1  0  0  0  0
 15 24  1  0  0  0  0
 16 18  1  0  0  0  0
 16 17  1  0  0  0  0
 16 25  1  0  0  0  0
 17 18  1  0  0  0  0
 17 26  1  0  0  0  0
 17 27  1  0  0  0  0
 18 28  1  0  0  0  0
 18 29  1  0  0  0  0
M  END
> <s_m_source_file>
AV-unprocessed.smi

> <i_m_source_file_index>
1595

> <i_lp_mmshare_version>
43012

> <i_f3d_flags>
0

> <s_epik_input>
W0NIMl0xW0NIMl1bQ0hdMVtOSF1DKD1PKVtDSDJdbjJbY0hdYyhDKEYpKEYpRilbY0hdW2NIXWMyPU8=

> <s_epik_cmdline>
J2VwaWtfcHl0aG9uJywgJy1waCcsICc3LjAnLCAnLXRuJywgJzgnLCAnLW1hJywgJzIwMCcsICctbWV0YWxfYmluZGluZycsICctaW1hZScsICc8aW5maWxlLm1hZT4nLCAnLW9tYWUnLCAnPG91dGZpbGUubWFlPic=

> <r_lp_tautomer_probability>
1

> <r_epik_Ionization_Penalty>
3.87815e-08

> <r_epik_Ionization_Penalty_Charging>
1.81112e-08

> <r_epik_Ionization_Penalty_Neutral>
2.06703e-08

> <r_epik_State_Penalty>
-0

> <r_epik_Charging_Adjusted_Penalty>
1.81112e-08

> <i_epik_Tot_Q>
0

> <i_epik_Tot_abs_Q>
0

> <r_epik_Metal_State_Penalty>
-0

> <b_epik_Metal_Only>
0

> <s_lp_Force_Field>
OPLS_2005

> <r_lp_Energy>
27.3116

> <b_lp_Chiralities_Consistent>
1

> <s_lp_Variant>
AV-unprocessed.smi:1595-1

> <Gold.Version>
5.8.1

> <Gold.Id.Protein>
6NUR|6NUR_protein|mol2

> <Gold.PLP.Fitness>
42.1054

> <Gold.PLP.PLP>
-39.6131

> <Gold.PLP.part.hbond>
-1.4230

> <Gold.PLP.part.metal>
0.0000

> <Gold.PLP.part.buried>
-2.7893

> <Gold.PLP.part.nonpolar>
-35.0547

> <Gold.PLP.part.repulsive>
0.1253

> <Gold.PLP.ligand.clash>
0.0000

> <Gold.PLP.ligand.torsion>
0.2117

> <Gold.PLP.Chemscore.Hbond>
0.9500

> <Gold.PLP.Chemscore.CHOScore>
0.0000

> <Gold.PLP.Chemscore.Metal>
0.0000

> <Gold.Chemscore.Hbonds>
donor molecule, donor type, donor heavy atom, donor atom, acceptor molecule, acceptor atom, score
      P1  H  7997  8010       L1    14  0.90

> <Gold.PLP.Chemscore.Internal.Correction>
0.0657

> <Gold.Rescore>
     Score         DG    S(hbond)    S(metal)    S(lipo)     H(rot)  DE(clash)    DE(int)     intcor
     12.23     -13.21       0.92        0.00      75.29       1.62       0.83       0.15       ----

> <Gold.Chemscore.Fitness>
12.2334

> <Gold.Chemscore.DG>
-13.2147

> <Gold.Chemscore.ZeroCoef>
-5.4800

> <Gold.Chemscore.Hbond>
0.9194

> <Gold.Chemscore.Metal>
0.0000

> <Gold.Chemscore.Lipo>
75.2924

> <Gold.Chemscore.Internal_Hbond>
0.0000

> <Gold.Chemscore.DEClash>
0.8311

> <Gold.Chemscore.DEInternal>
0.1502

> <Gold.Chemscore.Rot>
1.6192

> <Gold.Chemscore.Internal.Correction>
   9.000000E+99

> <Gold.Chemscore.Hbonds>
donor molecule, donor type, donor heavy atom, donor atom, acceptor molecule, acceptor atom, score
      P1  H  7997  8010       L1    14  0.17

> <Gold.Chemscore.Hbond.Weighted>
-3.0707

> <Gold.Chemscore.Metal.Weighted>
-0.0000

> <Gold.Chemscore.Lipo.Weighted>
-8.8092

> <Gold.Chemscore.Internal_Hbond.Weighted>
0.0000

> <Gold.Chemscore.DEClash.Weighted>
0.8311

> <Gold.Chemscore.DEInternal.Weighted>
0.1502

> <Gold.Chemscore.Rot.Weighted>
4.1452

> <Gold.Chemscore.Internal.Correction.Weighted>
   9.000000E+99

> <Gold.Protein.RotatedTorsions>
[ 6907 6896 6895 6894 ] final   -1.07 input  -60.11 | X-H torsion
[ 7974 7965 7964 7962 ] final  -93.53 input  175.53 | X-H torsion
[ 8008 7997 7996 7995 ] final   28.94 input   59.86 | X-H torsion
[ 10167 10162 10161 10158 ] final -130.21 input  -65.29 | X-H torsion
[ 10718 10713 10712 10709 ] final  -69.35 input   66.30 | X-H torsion
[ 10763 10752 10751 10750 ] final   34.66 input  -60.55 | X-H torsion
[ 11005 11000 10999 10996 ] final   40.75 input  -57.11 | X-H torsion

> <Gold.Protein.ActiveResidues>
 VAL166  LYS551  ARG553  GLY616  TRP617  ASP618  TYR619  PRO620  LYS621  CYS622 
 ASP623  PHE694  ASN695  SER759  ASP760  ASP761  ALA762  ILE779  LEU786  VAL792 
 PHE793  MET794  SER795  GLU796  ALA797  LYS798  CYS799  TRP800  GLU811  SER814 

> <Gold.Protein.RotatedAtoms>
  151.5520  135.1067  159.9951 H   0  0  0  0  0  0  0  0  0  0  0  0  # atno 6907 bound_to 6896
  152.4487  133.7582  159.6742 H   0  0  0  0  0  0  0  0  0  0  0  0  # atno 6908 bound_to 6896
  150.8409  133.7870  159.3085 H   0  0  0  0  0  0  0  0  0  0  0  0  # atno 6909 bound_to 6896
  145.3853  140.9522  143.2371 H   0  0  0  0  0  0  0  0  0  0  0  0  # atno 7974 bound_to 7965
  155.0667  140.3196  155.4643 H   0  0  0  0  0  0  0  0  0  0  0  0  # atno 8008 bound_to 7997
  156.2800  140.2119  156.5739 H   0  0  0  0  0  0  0  0  0  0  0  0  # atno 8009 bound_to 7997
  154.7088  140.0500  157.0517 H   0  0  0  0  0  0  0  0  0  0  0  0  # atno 8010 bound_to 7997
  139.9317  143.6264  152.2528 H   0  0  0  0  0  0  0  0  0  0  0  0  # atno 10167 bound_to 10162
  156.0460  130.4311  150.2134 H   0  0  0  0  0  0  0  0  0  0  0  0  # atno 10718 bound_to 10713
  153.0154  135.6354  154.1704 H   0  0  0  0  0  0  0  0  0  0  0  0  # atno 10763 bound_to 10752
  154.1443  135.2833  155.3154 H   0  0  0  0  0  0  0  0  0  0  0  0  # atno 10764 bound_to 10752
  154.6101  135.5559  153.7525 H   0  0  0  0  0  0  0  0  0  0  0  0  # atno 10765 bound_to 10752
  140.1900  134.3998  155.8152 H   0  0  0  0  0  0  0  0  0  0  0  0  # atno 11005 bound_to 11000
  144.8478  139.5369  143.6870 LP  0  0  0  0  0  0  0  0  0  0  0  0  # atno 17320 bound_to 7965
  146.2823  139.6910  142.9220 LP  0  0  0  0  0  0  0  0  0  0  0  0  # atno 17321 bound_to 7965
  139.6777  144.7657  151.1666 LP  0  0  0  0  0  0  0  0  0  0  0  0  # atno 17342 bound_to 10162
  140.7635  143.5771  150.8934 LP  0  0  0  0  0  0  0  0  0  0  0  0  # atno 17343 bound_to 10162
  157.0224  130.9983  151.3336 LP  0  0  0  0  0  0  0  0  0  0  0  0  # atno 17370 bound_to 10713
  157.5335  130.8074  149.7944 LP  0  0  0  0  0  0  0  0  0  0  0  0  # atno 17371 bound_to 10713
  141.2226  133.7042  156.8079 LP  0  0  0  0  0  0  0  0  0  0  0  0  # atno 17394 bound_to 11000
  140.2170  134.8785  157.3336 LP  0  0  0  0  0  0  0  0  0  0  0  0  # atno 17395 bound_to 11000

$$$$
