AV-unprocessed.smi:671|AV-procd|sdf|3280|dock7
  -GOLD-   22720 0243D 1   1.00000     0.00000
 Structure written by MMmdl.
 49 50  0  0  0  0  0  0  0  0  1 V2000
  152.9101  138.4765  154.4249 C   0  0  0  0  0  0  0  0  0  0  0  0
  152.1695  139.4366  155.3112 C   0  0  0  0  0  0  0  0  0  0  0  0
  152.7509  139.8789  156.4139 N   0  0  0  0  0  0  0  0  0  0  0  0
  151.8449  140.7053  156.9741 N   0  0  0  0  0  0  0  0  0  0  0  0
  152.1683  141.3704  158.2214 C   0  0  0  0  0  0  0  0  0  0  0  0
  150.6857  140.7804  156.2267 C   0  0  0  0  0  0  0  0  0  0  0  0
  149.5234  141.6266  156.6367 C   0  0  0  0  0  0  0  0  0  0  0  0
  150.8600  139.9725  155.1351 C   0  0  0  0  0  0  0  0  0  0  0  0
  149.8976  139.7053  154.0067 C   0  0  0  0  0  0  0  0  0  0  0  0
  148.5147  139.2387  154.5132 C   0  0  1  0  0  0  0  0  0  0  0  0
  147.4370  140.3244  154.3660 C   0  0  0  0  0  0  0  0  0  0  0  0
  148.0796  138.0403  153.7914 N   0  0  0  0  0  0  0  0  0  0  0  0
  146.8916  137.4119  153.8628 C   0  0  0  0  0  0  0  0  0  0  0  0
  145.9836  137.8201  154.5843 O   0  0  0  0  0  0  0  0  0  0  0  0
  146.7845  136.3283  153.0760 N   0  0  0  0  0  0  0  0  0  0  0  0
  145.6096  135.4696  152.9645 C   0  0  1  0  0  0  0  0  0  0  0  0
  144.5254  136.1680  152.1240 C   0  0  0  0  0  0  0  0  0  0  0  0
  144.5132  135.4479  150.7767 C   0  0  0  0  0  0  0  0  0  0  0  0
  144.8876  134.0124  151.1286 C   0  0  0  0  0  0  0  0  0  0  0  0
  145.9483  134.1534  152.2263 C   0  0  2  0  0  0  0  0  0  0  0  0
  146.0287  132.9306  153.1501 C   0  0  0  0  0  0  0  0  0  0  0  0
  152.5783  137.4531  154.5987 H   0  0  0  0  0  0  0  0  0  0  0  0
  153.9855  138.5124  154.6018 H   0  0  0  0  0  0  0  0  0  0  0  0
  152.7439  138.7050  153.3724 H   0  0  0  0  0  0  0  0  0  0  0  0
  151.6664  140.8638  159.0456 H   0  0  0  0  0  0  0  0  0  0  0  0
  151.8371  142.4083  158.1858 H   0  0  0  0  0  0  0  0  0  0  0  0
  153.2449  141.3540  158.3965 H   0  0  0  0  0  0  0  0  0  0  0  0
  148.6647  141.4590  155.9876 H   0  0  0  0  0  0  0  0  0  0  0  0
  149.7786  142.6851  156.5855 H   0  0  0  0  0  0  0  0  0  0  0  0
  149.2173  141.3998  157.6581 H   0  0  0  0  0  0  0  0  0  0  0  0
  149.7720  140.5921  153.3845 H   0  0  0  0  0  0  0  0  0  0  0  0
  150.3198  138.9521  153.3410 H   0  0  0  0  0  0  0  0  0  0  0  0
  148.5851  138.9991  155.5756 H   0  0  0  0  0  0  0  0  0  0  0  0
  147.6844  141.2135  154.9464 H   0  0  0  0  0  0  0  0  0  0  0  0
  146.4696  139.9668  154.7200 H   0  0  0  0  0  0  0  0  0  0  0  0
  147.3186  140.6287  153.3254 H   0  0  0  0  0  0  0  0  0  0  0  0
  148.7400  137.6714  153.1222 H   0  0  0  0  0  0  0  0  0  0  0  0
  147.5839  136.0756  152.5140 H   0  0  0  0  0  0  0  0  0  0  0  0
  145.2003  135.2691  153.9565 H   0  0  0  0  0  0  0  0  0  0  0  0
  143.5571  136.0337  152.6076 H   0  0  0  0  0  0  0  0  0  0  0  0
  144.6810  137.2425  152.0171 H   0  0  0  0  0  0  0  0  0  0  0  0
  143.5505  135.5203  150.2701 H   0  0  0  0  0  0  0  0  0  0  0  0
  145.2714  135.8772  150.1204 H   0  0  0  0  0  0  0  0  0  0  0  0
  144.0091  133.4943  151.5162 H   0  0  0  0  0  0  0  0  0  0  0  0
  145.2497  133.4513  150.2667 H   0  0  0  0  0  0  0  0  0  0  0  0
  146.9126  134.2643  151.7267 H   0  0  0  0  0  0  0  0  0  0  0  0
  145.0855  132.7631  153.6704 H   0  0  0  0  0  0  0  0  0  0  0  0
  146.8057  133.0616  153.9033 H   0  0  0  0  0  0  0  0  0  0  0  0
  146.2634  132.0282  152.5851 H   0  0  0  0  0  0  0  0  0  0  0  0
  1  2  1  0  0  0  0
  1 22  1  0  0  0  0
  1 23  1  0  0  0  0
  1 24  1  0  0  0  0
  2  8  1  0  0  0  0
  2  3  2  0  0  0  0
  3  4  1  0  0  0  0
  4  5  1  0  0  0  0
  4  6  1  0  0  0  0
  5 25  1  0  0  0  0
  5 26  1  0  0  0  0
  5 27  1  0  0  0  0
  6  7  1  0  0  0  0
  6  8  2  0  0  0  0
  7 28  1  0  0  0  0
  7 29  1  0  0  0  0
  7 30  1  0  0  0  0
  8  9  1  0  0  0  0
  9 10  1  0  0  0  0
  9 31  1  0  0  0  0
  9 32  1  0  0  0  0
 10 11  1  0  0  0  0
 10 12  1  0  0  0  0
 10 33  1  0  0  0  0
 11 34  1  0  0  0  0
 11 35  1  0  0  0  0
 11 36  1  0  0  0  0
 12 13  1  0  0  0  0
 12 37  1  0  0  0  0
 13 14  2  0  0  0  0
 13 15  1  0  0  0  0
 15 16  1  0  0  0  0
 15 38  1  0  0  0  0
 16 20  1  0  0  0  0
 16 17  1  0  0  0  0
 16 39  1  0  0  0  0
 17 18  1  0  0  0  0
 17 40  1  0  0  0  0
 17 41  1  0  0  0  0
 18 19  1  0  0  0  0
 18 42  1  0  0  0  0
 18 43  1  0  0  0  0
 19 20  1  0  0  0  0
 19 44  1  0  0  0  0
 19 45  1  0  0  0  0
 20 21  1  0  0  0  0
 20 46  1  0  0  0  0
 21 47  1  0  0  0  0
 21 48  1  0  0  0  0
 21 49  1  0  0  0  0
M  END
> <s_m_source_file>
AV-unprocessed.smi

> <i_m_source_file_index>
671

> <i_lp_mmshare_version>
43012

> <i_f3d_flags>
0

> <s_epik_input>
W0NIM11jMW5uKFtDSDNdKWMoW0NIM10pYzFbQ0gyXVtDQEhdKFtDSDNdKVtOSF1DKD1PKVtOSF1bQ0BASF0yW0NIMl1bQ0gyXVtDSDJdW0NASF0yW0NIM10=

> <s_epik_cmdline>
J2VwaWtfcHl0aG9uJywgJy1waCcsICc3LjAnLCAnLXRuJywgJzgnLCAnLW1hJywgJzIwMCcsICctbWV0YWxfYmluZGluZycsICctaW1hZScsICc8aW5maWxlLm1hZT4nLCAnLW9tYWUnLCAnPG91dGZpbGUubWFlPic=

> <r_lp_tautomer_probability>
1

> <r_epik_Ionization_Penalty>
0.0126855

> <r_epik_Ionization_Penalty_Charging>
0

> <r_epik_Ionization_Penalty_Neutral>
0.0126855

> <r_epik_State_Penalty>
0.00977547

> <r_epik_Charging_Adjusted_Penalty>
0.00977547

> <i_epik_Tot_Q>
0

> <i_epik_Tot_abs_Q>
0

> <r_epik_Metal_State_Penalty>
0.00957132

> <b_epik_Metal_Only>
0

> <s_lp_Force_Field>
OPLS_2005

> <r_lp_Energy>
22.0213

> <b_lp_Chiralities_Consistent>
1

> <s_lp_Variant>
AV-unprocessed.smi:671-8

> <Gold.Version>
5.8.1

> <Gold.Id.Protein>
6NUR|6NUR_protein|mol2

> <Gold.PLP.Fitness>
40.8531

> <Gold.PLP.PLP>
-34.1169

> <Gold.PLP.part.hbond>
-2.9804

> <Gold.PLP.part.metal>
0.0000

> <Gold.PLP.part.buried>
-1.8366

> <Gold.PLP.part.nonpolar>
-29.5883

> <Gold.PLP.part.repulsive>
0.1033

> <Gold.PLP.ligand.clash>
0.0000

> <Gold.PLP.ligand.torsion>
0.9657

> <Gold.PLP.Chemscore.Hbond>
2.8800

> <Gold.PLP.Chemscore.CHOScore>
0.0000

> <Gold.PLP.Chemscore.Metal>
0.0000

> <Gold.Chemscore.Hbonds>
donor molecule, donor type, donor heavy atom, donor atom, acceptor molecule, acceptor atom, score
      L1  H    12    37       P1  7948  0.85
      L1  H    15    38       P1  7948  0.96
      P1  H  7997  8010       L1     3  1.00

> <Gold.PLP.Chemscore.Internal.Correction>
0.0277

> <Gold.Rescore>
     Score         DG    S(hbond)    S(metal)    S(lipo)     H(rot)  DE(clash)    DE(int)     intcor
     17.73     -21.28       2.76        0.00      88.12       1.45       1.47       2.08       ----

> <Gold.Chemscore.Fitness>
17.7347

> <Gold.Chemscore.DG>
-21.2826

> <Gold.Chemscore.ZeroCoef>
-5.4800

> <Gold.Chemscore.Hbond>
2.7559

> <Gold.Chemscore.Metal>
0.0000

> <Gold.Chemscore.Lipo>
88.1176

> <Gold.Chemscore.Internal_Hbond>
0.0000

> <Gold.Chemscore.DEClash>
1.4718

> <Gold.Chemscore.DEInternal>
2.0761

> <Gold.Chemscore.Rot>
1.4499

> <Gold.Chemscore.Internal.Correction>
   9.000000E+99

> <Gold.Chemscore.Hbonds>
donor molecule, donor type, donor heavy atom, donor atom, acceptor molecule, acceptor atom, score
      L1  H    12    37       P1  7948  0.85
      L1  H    15    38       P1  7948  0.91
      P1  H  7997  8010       L1     3  0.87

> <Gold.Chemscore.Hbond.Weighted>
-9.2047

> <Gold.Chemscore.Metal.Weighted>
-0.0000

> <Gold.Chemscore.Lipo.Weighted>
-10.3098

> <Gold.Chemscore.Internal_Hbond.Weighted>
0.0000

> <Gold.Chemscore.DEClash.Weighted>
1.4718

> <Gold.Chemscore.DEInternal.Weighted>
2.0761

> <Gold.Chemscore.Rot.Weighted>
3.7118

> <Gold.Chemscore.Internal.Correction.Weighted>
   9.000000E+99

> <Gold.Protein.RotatedTorsions>
[ 6907 6896 6895 6894 ] final  -58.80 input  -60.11 | X-H torsion
[ 7974 7965 7964 7962 ] final -134.26 input  175.53 | X-H torsion
[ 8008 7997 7996 7995 ] final   82.28 input   59.86 | X-H torsion
[ 10167 10162 10161 10158 ] final  176.30 input  -65.29 | X-H torsion
[ 10718 10713 10712 10709 ] final  161.53 input   66.30 | X-H torsion
[ 10763 10752 10751 10750 ] final  168.45 input  -60.55 | X-H torsion
[ 11005 11000 10999 10996 ] final  121.35 input  -57.11 | X-H torsion

> <Gold.Protein.ActiveResidues>
 VAL166  LYS551  ARG553  GLY616  TRP617  ASP618  TYR619  PRO620  LYS621  CYS622 
 ASP623  PHE694  ASN695  SER759  ASP760  ASP761  ALA762  ILE779  LEU786  VAL792 
 PHE793  MET794  SER795  GLU796  ALA797  LYS798  CYS799  TRP800  GLU811  SER814 

> <Gold.Protein.RotatedAtoms>
  150.7979  134.7051  159.6571 H   0  0  0  0  0  0  0  0  0  0  0  0  # atno 6907 bound_to 6896
  152.4093  134.6149  160.0045 H   0  0  0  0  0  0  0  0  0  0  0  0  # atno 6908 bound_to 6896
  151.6397  133.3290  159.3163 H   0  0  0  0  0  0  0  0  0  0  0  0  # atno 6909 bound_to 6896
  144.9118  140.6905  143.5020 H   0  0  0  0  0  0  0  0  0  0  0  0  # atno 7974 bound_to 7965
  155.9085  140.3429  155.6080 H   0  0  0  0  0  0  0  0  0  0  0  0  # atno 8008 bound_to 7997
  155.7416  140.0808  157.2262 H   0  0  0  0  0  0  0  0  0  0  0  0  # atno 8009 bound_to 7997
  154.4052  140.1570  156.2609 H   0  0  0  0  0  0  0  0  0  0  0  0  # atno 8010 bound_to 7997
  139.5209  144.2931  152.0446 H   0  0  0  0  0  0  0  0  0  0  0  0  # atno 10167 bound_to 10162
  157.1352  131.0526  151.2353 H   0  0  0  0  0  0  0  0  0  0  0  0  # atno 10718 bound_to 10713
  154.3688  135.2753  155.2278 H   0  0  0  0  0  0  0  0  0  0  0  0  # atno 10763 bound_to 10752
  154.4435  135.5948  153.6148 H   0  0  0  0  0  0  0  0  0  0  0  0  # atno 10764 bound_to 10752
  152.9839  135.6024  154.3917 H   0  0  0  0  0  0  0  0  0  0  0  0  # atno 10765 bound_to 10752
  139.9222  134.9638  156.7945 H   0  0  0  0  0  0  0  0  0  0  0  0  # atno 11005 bound_to 11000
  145.3441  139.1724  143.4470 LP  0  0  0  0  0  0  0  0  0  0  0  0  # atno 17320 bound_to 7965
  146.3162  140.3485  142.8654 LP  0  0  0  0  0  0  0  0  0  0  0  0  # atno 17321 bound_to 7965
  140.2381  144.4298  150.6271 LP  0  0  0  0  0  0  0  0  0  0  0  0  # atno 17342 bound_to 10162
  140.6309  143.2187  151.6497 LP  0  0  0  0  0  0  0  0  0  0  0  0  # atno 17343 bound_to 10162
  157.4357  130.7515  149.7027 LP  0  0  0  0  0  0  0  0  0  0  0  0  # atno 17370 bound_to 10713
  155.9800  130.4034  150.3556 LP  0  0  0  0  0  0  0  0  0  0  0  0  # atno 17371 bound_to 10713
  140.6440  133.9792  155.7721 LP  0  0  0  0  0  0  0  0  0  0  0  0  # atno 17394 bound_to 11000
  141.0752  134.0145  157.3467 LP  0  0  0  0  0  0  0  0  0  0  0  0  # atno 17395 bound_to 11000

$$$$
