AV-unprocessed.smi:1978|AV-procd|sdf|8007|dock2
  -GOLD-   2272010193D 1   1.00000     0.00000
 Structure written by MMmdl.
 44 45  0  0  0  0  0  0  0  0  3 V2000
  155.0915  136.2808  160.5352 C   0  0  0  0  0  0  0  0  0  0  0  0
  154.2511  137.0115  159.5445 C   0  0  0  0  0  0  0  0  0  0  0  0
  154.5562  137.8381  158.5006 C   0  0  0  0  0  0  0  0  0  0  0  0
  153.2805  138.1897  157.9807 C   0  0  0  0  0  0  0  0  0  0  0  0
  153.0483  138.9849  156.9249 N   0  5  0  0  0  0  0  0  0  0  0  0
  151.7805  139.2980  156.5731 C   0  0  0  0  0  0  0  0  0  0  0  0
  150.7555  138.7048  156.9164 O   0  0  0  0  0  0  0  0  0  0  0  0
  151.6943  140.3670  155.7708 N   0  0  0  0  0  0  0  0  0  0  0  0
  150.4572  140.9131  155.2245 C   0  0  0  0  0  0  0  0  0  0  0  0
  149.4619  141.3467  156.3352 C   0  0  1  0  0  0  0  0  0  0  0  0
  150.1948  142.2293  157.3775 C   0  0  0  0  0  0  0  0  0  0  0  0
  148.2482  142.0456  155.7841 N   0  3  2  0  0  0  0  0  0  0  0  0
  147.0357  141.9257  156.6513 C   0  0  0  0  0  0  0  0  0  0  0  0
  145.8880  142.8279  156.1676 C   0  0  0  0  0  0  0  0  0  0  0  0
  145.5248  142.5402  154.7103 C   0  0  0  0  0  0  0  0  0  0  0  0
  146.7802  142.6613  153.8418 C   0  0  0  0  0  0  0  0  0  0  0  0
  147.9278  141.7602  154.3446 C   0  0  2  0  0  0  0  0  0  0  0  0
  147.6578  140.2655  154.0610 C   0  0  0  0  0  0  0  0  0  0  0  0
  152.2896  137.6143  158.6408 N   0  0  0  0  0  0  0  0  0  0  0  0
  152.9032  136.8617  159.6493 O   0  0  0  0  0  0  0  0  0  0  0  0
  155.7915  135.6154  160.0299 H   0  0  0  0  0  0  0  0  0  0  0  0
  154.4774  135.6787  161.2054 H   0  0  0  0  0  0  0  0  0  0  0  0
  155.6667  136.9800  161.1419 H   0  0  0  0  0  0  0  0  0  0  0  0
  155.5348  138.1461  158.1646 H   0  0  0  0  0  0  0  0  0  0  0  0
  152.5559  140.8265  155.5145 H   0  0  0  0  0  0  0  0  0  0  0  0
  150.6802  141.7630  154.5768 H   0  0  0  0  0  0  0  0  0  0  0  0
  150.0454  140.1241  154.5967 H   0  0  0  0  0  0  0  0  0  0  0  0
  149.1240  140.4452  156.8482 H   0  0  0  0  0  0  0  0  0  0  0  0
  151.1343  141.7881  157.7084 H   0  0  0  0  0  0  0  0  0  0  0  0
  149.6164  142.3671  158.2892 H   0  0  0  0  0  0  0  0  0  0  0  0
  150.4268  143.2131  156.9682 H   0  0  0  0  0  0  0  0  0  0  0  0
  146.7109  140.8861  156.6992 H   0  0  0  0  0  0  0  0  0  0  0  0
  147.2489  142.2273  157.6737 H   0  0  0  0  0  0  0  0  0  0  0  0
  145.0123  142.6882  156.8021 H   0  0  0  0  0  0  0  0  0  0  0  0
  146.1793  143.8739  156.2710 H   0  0  0  0  0  0  0  0  0  0  0  0
  145.0938  141.5427  154.6202 H   0  0  0  0  0  0  0  0  0  0  0  0
  144.7615  143.2397  154.3678 H   0  0  0  0  0  0  0  0  0  0  0  0
  146.5401  142.4248  152.8045 H   0  0  0  0  0  0  0  0  0  0  0  0
  147.1140  143.7000  153.8434 H   0  0  0  0  0  0  0  0  0  0  0  0
  148.7805  142.0585  153.7371 H   0  0  0  0  0  0  0  0  0  0  0  0
  147.4400  140.1085  153.0044 H   0  0  0  0  0  0  0  0  0  0  0  0
  146.8084  139.8821  154.6252 H   0  0  0  0  0  0  0  0  0  0  0  0
  148.5184  139.6417  154.3002 H   0  0  0  0  0  0  0  0  0  0  0  0
  148.4892  143.0263  155.8020 H   0  0  0  0  0  0  0  0  0  0  0  0
  1  2  1  0  0  0  0
  1 21  1  0  0  0  0
  1 22  1  0  0  0  0
  1 23  1  0  0  0  0
  2 20  1  0  0  0  0
  2  3  2  0  0  0  0
  3  4  1  0  0  0  0
  3 24  1  0  0  0  0
  4  5  1  0  0  0  0
  4 19  2  0  0  0  0
  5  6  1  0  0  0  0
  6  7  2  0  0  0  0
  6  8  1  0  0  0  0
  8  9  1  0  0  0  0
  8 25  1  0  0  0  0
  9 10  1  0  0  0  0
  9 26  1  0  0  0  0
  9 27  1  0  0  0  0
 10 11  1  0  0  0  0
 10 12  1  0  0  0  0
 10 28  1  0  0  0  0
 11 29  1  0  0  0  0
 11 30  1  0  0  0  0
 11 31  1  0  0  0  0
 12 17  1  0  0  0  0
 12 13  1  0  0  0  0
 12 44  1  0  0  0  0
 13 14  1  0  0  0  0
 13 32  1  0  0  0  0
 13 33  1  0  0  0  0
 14 15  1  0  0  0  0
 14 34  1  0  0  0  0
 14 35  1  0  0  0  0
 15 16  1  0  0  0  0
 15 36  1  0  0  0  0
 15 37  1  0  0  0  0
 16 17  1  0  0  0  0
 16 38  1  0  0  0  0
 16 39  1  0  0  0  0
 17 18  1  0  0  0  0
 17 40  1  0  0  0  0
 18 41  1  0  0  0  0
 18 42  1  0  0  0  0
 18 43  1  0  0  0  0
 19 20  1  0  0  0  0
M  CHG  1   5  -1
M  CHG  1  12   1
M  END
> <s_m_source_file>
AV-unprocessed.smi

> <i_m_source_file_index>
1978

> <i_lp_mmshare_version>
43012

> <i_f3d_flags>
0

> <s_epik_input>
W0NIM11jMVtjSF1jKG5vMSlbTkhdQyg9TylbTkhdW0NIMl1bQ0BIXShbQ0gzXSlOMltDSDJdW0NIMl1bQ0gyXVtDSDJdW0NASF0yW0NIM10=

> <s_epik_cmdline>
J2VwaWtfcHl0aG9uJywgJy1waCcsICc3LjAnLCAnLXRuJywgJzgnLCAnLW1hJywgJzIwMCcsICctbWV0YWxfYmluZGluZycsICctaW1hZScsICc8aW5maWxlLm1hZT4nLCAnLW9tYWUnLCAnPG91dGZpbGUubWFlPic=

> <r_epik_Ionization_Penalty>
6.22372

> <r_epik_Ionization_Penalty_Charging>
6.22362

> <r_epik_Ionization_Penalty_Neutral>
9.65074e-05

> <r_epik_State_Penalty>
6.22363

> <r_epik_Charging_Adjusted_Penalty>
12.4472

> <i_epik_Tot_Q>
0

> <i_epik_Tot_abs_Q>
2

> <r_epik_Metal_State_Penalty>
2.16675

> <b_epik_Metal_Only>
1

> <s_lp_Force_Field>
OPLS_2005

> <r_lp_Energy>
15.9266

> <b_lp_Chiralities_Consistent>
1

> <s_lp_Variant>
AV-unprocessed.smi:1978-16

> <Gold.Version>
5.8.1

> <Gold.Id.Protein>
6NUR|6NUR_protein|mol2

> <Gold.PLP.Fitness>
40.0200

> <Gold.PLP.PLP>
-26.6208

> <Gold.PLP.part.hbond>
-3.0000

> <Gold.PLP.part.metal>
0.0000

> <Gold.PLP.part.buried>
-4.4294

> <Gold.PLP.part.nonpolar>
-19.2119

> <Gold.PLP.part.repulsive>
0.2282

> <Gold.PLP.ligand.clash>
0.0000

> <Gold.PLP.ligand.torsion>
0.8719

> <Gold.PLP.Chemscore.Hbond>
5.0000

> <Gold.PLP.Chemscore.CHOScore>
0.0000

> <Gold.PLP.Chemscore.Metal>
0.0000

> <Gold.Chemscore.Hbonds>
donor molecule, donor type, donor heavy atom, donor atom, acceptor molecule, acceptor atom, score
      L1  H    12    44       P1  8028  2.00
      P1  H  6896  6909       L1    20  0.96
      P1  H  7997  8009       L1     5  2.00

> <Gold.PLP.Chemscore.Internal.Correction>
0.1429

> <Gold.Rescore>
     Score         DG    S(hbond)    S(metal)    S(lipo)     H(rot)  DE(clash)    DE(int)     intcor
     13.77     -17.72       2.77        0.00      58.63       1.52       0.73       3.21       ----

> <Gold.Chemscore.Fitness>
13.7704

> <Gold.Chemscore.DG>
-17.7180

> <Gold.Chemscore.ZeroCoef>
-5.4800

> <Gold.Chemscore.Hbond>
2.7744

> <Gold.Chemscore.Metal>
0.0000

> <Gold.Chemscore.Lipo>
58.6330

> <Gold.Chemscore.Internal_Hbond>
0.0000

> <Gold.Chemscore.DEClash>
0.7330

> <Gold.Chemscore.DEInternal>
3.2146

> <Gold.Chemscore.Rot>
1.5190

> <Gold.Chemscore.Internal.Correction>
   9.000000E+99

> <Gold.Chemscore.Hbonds>
donor molecule, donor type, donor heavy atom, donor atom, acceptor molecule, acceptor atom, score
      L1  H    12    44       P1  8028  0.98
      P1  H  6896  6909       L1    20  0.82
      P1  H  7997  8009       L1     5  0.89

> <Gold.Chemscore.Hbond.Weighted>
-9.2666

> <Gold.Chemscore.Metal.Weighted>
-0.0000

> <Gold.Chemscore.Lipo.Weighted>
-6.8601

> <Gold.Chemscore.Internal_Hbond.Weighted>
0.0000

> <Gold.Chemscore.DEClash.Weighted>
0.7330

> <Gold.Chemscore.DEInternal.Weighted>
3.2146

> <Gold.Chemscore.Rot.Weighted>
3.8886

> <Gold.Chemscore.Internal.Correction.Weighted>
   9.000000E+99

> <Gold.Protein.RotatedTorsions>
[ 6907 6896 6895 6894 ] final  149.99 input  -60.11 | X-H torsion
[ 7974 7965 7964 7962 ] final  178.09 input  175.53 | X-H torsion
[ 8008 7997 7996 7995 ] final -170.28 input   59.86 | X-H torsion
[ 10167 10162 10161 10158 ] final   46.87 input  -65.29 | X-H torsion
[ 10718 10713 10712 10709 ] final  -38.57 input   66.30 | X-H torsion
[ 10763 10752 10751 10750 ] final   -9.39 input  -60.55 | X-H torsion
[ 11005 11000 10999 10996 ] final   35.75 input  -57.11 | X-H torsion

> <Gold.Protein.ActiveResidues>
 VAL166  LYS551  ARG553  GLY616  TRP617  ASP618  TYR619  PRO620  LYS621  CYS622 
 ASP623  PHE694  ASN695  SER759  ASP760  ASP761  ALA762  ILE779  LEU786  VAL792 
 PHE793  MET794  SER795  GLU796  ALA797  LYS798  CYS799  TRP800  GLU811  SER814 

> <Gold.Protein.RotatedAtoms>
  152.1205  133.4351  159.4673 H   0  0  0  0  0  0  0  0  0  0  0  0  # atno 6907 bound_to 6896
  150.6872  134.2540  159.4531 H   0  0  0  0  0  0  0  0  0  0  0  0  # atno 6908 bound_to 6896
  152.0416  134.9707  160.0624 H   0  0  0  0  0  0  0  0  0  0  0  0  # atno 6909 bound_to 6896
  144.7160  140.0345  143.6438 H   0  0  0  0  0  0  0  0  0  0  0  0  # atno 7974 bound_to 7965
  155.9163  140.1066  157.1241 H   0  0  0  0  0  0  0  0  0  0  0  0  # atno 8008 bound_to 7997
  154.4047  140.1264  156.4687 H   0  0  0  0  0  0  0  0  0  0  0  0  # atno 8009 bound_to 7997
  155.7250  140.3469  155.5035 H   0  0  0  0  0  0  0  0  0  0  0  0  # atno 8010 bound_to 7997
  140.3095  144.2837  150.6202 H   0  0  0  0  0  0  0  0  0  0  0  0  # atno 10167 bound_to 10162
  156.3022  130.4241  149.8132 H   0  0  0  0  0  0  0  0  0  0  0  0  # atno 10718 bound_to 10713
  153.4541  135.7015  153.6091 H   0  0  0  0  0  0  0  0  0  0  0  0  # atno 10763 bound_to 10752
  153.4413  135.3779  155.2230 H   0  0  0  0  0  0  0  0  0  0  0  0  # atno 10764 bound_to 10752
  154.8728  135.3974  154.3957 H   0  0  0  0  0  0  0  0  0  0  0  0  # atno 10765 bound_to 10752
  140.2395  134.3432  155.7931 H   0  0  0  0  0  0  0  0  0  0  0  0  # atno 11005 bound_to 11000
  146.0075  139.3142  143.0890 LP  0  0  0  0  0  0  0  0  0  0  0  0  # atno 17320 bound_to 7965
  145.8721  140.9413  143.0645 LP  0  0  0  0  0  0  0  0  0  0  0  0  # atno 17321 bound_to 7965
  140.5581  143.2196  151.7813 LP  0  0  0  0  0  0  0  0  0  0  0  0  # atno 17342 bound_to 10162
  139.4897  144.4386  151.9790 LP  0  0  0  0  0  0  0  0  0  0  0  0  # atno 17343 bound_to 10162
  156.5505  130.8340  151.3298 LP  0  0  0  0  0  0  0  0  0  0  0  0  # atno 17370 bound_to 10713
  157.7371  130.9789  150.2172 LP  0  0  0  0  0  0  0  0  0  0  0  0  # atno 17371 bound_to 10713
  141.2211  133.7291  156.8862 LP  0  0  0  0  0  0  0  0  0  0  0  0  # atno 17394 bound_to 11000
  140.1668  134.9128  157.2784 LP  0  0  0  0  0  0  0  0  0  0  0  0  # atno 17395 bound_to 11000

$$$$
