AV-unprocessed.smi:1056|AV-procd|sdf|4635|dock3
  -GOLD-   22720 3143D 1   1.00000     0.00000
 Structure written by MMmdl.
 46 48  0  0  0  0  0  0  0  0  3 V2000
  152.5197  143.6838  160.2105 C   0  0  0  0  0  0  0  0  0  0  0  0
  152.1444  142.7484  159.0735 C   0  0  0  0  0  0  0  0  0  0  0  0
  151.2054  143.1944  158.1160 C   0  0  0  0  0  0  0  0  0  0  0  0
  150.8828  142.3170  157.0878 C   0  0  0  0  0  0  0  0  0  0  0  0
  150.0090  142.4547  156.0072 N   0  3  0  0  0  0  0  0  0  0  0  0
  150.0270  141.3164  155.2598 C   0  0  0  0  0  0  0  0  0  0  0  0
  150.8979  140.4521  155.8496 N   0  0  0  0  0  0  0  0  0  0  0  0
  151.2893  139.0900  155.4618 C   0  0  0  0  0  0  0  0  0  0  0  0
  150.3415  138.4705  154.4154 C   0  0  1  0  0  0  0  0  0  0  0  0
  150.7947  137.1694  154.0930 O   0  0  0  0  0  0  0  0  0  0  0  0
  148.8925  138.3818  154.9349 C   0  0  0  0  0  0  0  0  0  0  0  0
  147.9072  138.1565  153.8464 N   0  3  2  0  0  0  0  0  0  0  0  0
  147.6567  139.3531  153.0075 C   0  0  0  0  0  0  0  0  0  0  0  0
  146.8028  138.9724  151.7851 C   0  0  0  0  0  0  0  0  0  0  0  0
  145.6903  138.0865  152.1206 N   0  0  0  0  0  0  0  0  0  0  0  0
  145.5586  137.4022  153.2686 C   0  0  0  0  0  0  0  0  0  0  0  0
  144.5983  136.6648  153.4756 O   0  0  0  0  0  0  0  0  0  0  0  0
  146.6426  137.5584  154.3464 C   0  0  0  0  0  0  0  0  0  0  0  0
  151.4580  141.0351  156.9914 C   0  0  0  0  0  0  0  0  0  0  0  0
  152.3853  140.5799  157.9255 C   0  0  0  0  0  0  0  0  0  0  0  0
  152.7278  141.4583  158.9784 C   0  0  0  0  0  0  0  0  0  0  0  0
  153.7379  140.9908  160.0126 C   0  0  0  0  0  0  0  0  0  0  0  0
  151.9484  144.6118  160.1689 H   0  0  0  0  0  0  0  0  0  0  0  0
  153.5781  143.9412  160.1600 H   0  0  0  0  0  0  0  0  0  0  0  0
  152.3221  143.2155  161.1749 H   0  0  0  0  0  0  0  0  0  0  0  0
  150.7581  144.1756  158.1812 H   0  0  0  0  0  0  0  0  0  0  0  0
  149.4515  141.1329  154.3639 H   0  0  0  0  0  0  0  0  0  0  0  0
  152.3071  139.1399  155.0722 H   0  0  0  0  0  0  0  0  0  0  0  0
  151.3340  138.4755  156.3618 H   0  0  0  0  0  0  0  0  0  0  0  0
  150.3812  139.0738  153.5093 H   0  0  0  0  0  0  0  0  0  0  0  0
  150.9601  137.1264  153.1632 H   0  0  0  0  0  0  0  0  0  0  0  0
  148.8336  137.5653  155.6571 H   0  0  0  0  0  0  0  0  0  0  0  0
  148.6232  139.2882  155.4795 H   0  0  0  0  0  0  0  0  0  0  0  0
  147.1415  140.1071  153.6049 H   0  0  0  0  0  0  0  0  0  0  0  0
  148.5885  139.8037  152.6677 H   0  0  0  0  0  0  0  0  0  0  0  0
  146.4187  139.8674  151.2954 H   0  0  0  0  0  0  0  0  0  0  0  0
  147.4236  138.4562  151.0518 H   0  0  0  0  0  0  0  0  0  0  0  0
  144.9666  137.9791  151.4236 H   0  0  0  0  0  0  0  0  0  0  0  0
  146.8526  136.5793  154.7795 H   0  0  0  0  0  0  0  0  0  0  0  0
  146.2374  138.1822  155.1446 H   0  0  0  0  0  0  0  0  0  0  0  0
  152.8294  139.5984  157.8532 H   0  0  0  0  0  0  0  0  0  0  0  0
  154.1199  139.9969  159.7770 H   0  0  0  0  0  0  0  0  0  0  0  0
  153.2802  140.9461  161.0010 H   0  0  0  0  0  0  0  0  0  0  0  0
  154.5880  141.6722  160.0543 H   0  0  0  0  0  0  0  0  0  0  0  0
  148.3158  137.4619  153.2370 H   0  0  0  0  0  0  0  0  0  0  0  0
  149.4412  143.2649  155.7932 H   0  0  0  0  0  0  0  0  0  0  0  0
  1  2  1  0  0  0  0
  1 23  1  0  0  0  0
  1 24  1  0  0  0  0
  1 25  1  0  0  0  0
  2 21  1  0  0  0  0
  2  3  2  0  0  0  0
  3  4  1  0  0  0  0
  3 26  1  0  0  0  0
  4 19  2  0  0  0  0
  4  5  1  0  0  0  0
  5  6  2  0  0  0  0
  5 46  1  0  0  0  0
  6  7  1  0  0  0  0
  6 27  1  0  0  0  0
  7  8  1  0  0  0  0
  7 19  1  0  0  0  0
  8  9  1  0  0  0  0
  8 28  1  0  0  0  0
  8 29  1  0  0  0  0
  9 10  1  0  0  0  0
  9 11  1  0  0  0  0
  9 30  1  0  0  0  0
 10 31  1  0  0  0  0
 11 12  1  0  0  0  0
 11 32  1  0  0  0  0
 11 33  1  0  0  0  0
 12 18  1  0  0  0  0
 12 13  1  0  0  0  0
 12 45  1  0  0  0  0
 13 14  1  0  0  0  0
 13 34  1  0  0  0  0
 13 35  1  0  0  0  0
 14 15  1  0  0  0  0
 14 36  1  0  0  0  0
 14 37  1  0  0  0  0
 15 16  1  0  0  0  0
 15 38  1  0  0  0  0
 16 17  2  0  0  0  0
 16 18  1  0  0  0  0
 18 39  1  0  0  0  0
 18 40  1  0  0  0  0
 19 20  1  0  0  0  0
 20 21  2  0  0  0  0
 20 41  1  0  0  0  0
 21 22  1  0  0  0  0
 22 42  1  0  0  0  0
 22 43  1  0  0  0  0
 22 44  1  0  0  0  0
M  CHG  1   5   1
M  CHG  1  12   1
M  END
> <s_m_source_file>
AV-unprocessed.smi

> <i_m_source_file_index>
1056

> <i_lp_mmshare_version>
43012

> <i_f3d_flags>
0

> <s_epik_input>
W0NIM11jKFtjSF0xKWMoW0NIM10pW2NIXWMoYzEyKW4oW2NIXW4yKVtDSDJdW0NASF0oW09IXSlbQ0gyXU4zW0NIMl1bQ0gyXVtOSF1DKD1PKVtDSDJdMw==

> <s_epik_cmdline>
J2VwaWtfcHl0aG9uJywgJy1waCcsICc3LjAnLCAnLXRuJywgJzgnLCAnLW1hJywgJzIwMCcsICctbWV0YWxfYmluZGluZycsICctaW1hZScsICc8aW5maWxlLm1hZT4nLCAnLW9tYWUnLCAnPG91dGZpbGUubWFlPic=

> <r_epik_Ionization_Penalty>
1.262

> <r_epik_Ionization_Penalty_Charging>
1.26188

> <r_epik_Ionization_Penalty_Neutral>
0.000125436

> <r_epik_State_Penalty>
1.3387

> <r_epik_Charging_Adjusted_Penalty>
2.60058

> <i_epik_Tot_Q>
2

> <i_epik_Tot_abs_Q>
2

> <r_epik_Metal_State_Penalty>
1.58938

> <b_epik_Metal_Only>
0

> <s_lp_Force_Field>
OPLS_2005

> <r_lp_Energy>
34.6646

> <b_lp_Chiralities_Consistent>
1

> <s_lp_Variant>
AV-unprocessed.smi:1056-6

> <Gold.Version>
5.8.1

> <Gold.Id.Protein>
6NUR|6NUR_protein|mol2

> <Gold.PLP.Fitness>
60.7896

> <Gold.PLP.PLP>
-43.8192

> <Gold.PLP.part.hbond>
-5.7376

> <Gold.PLP.part.metal>
0.0000

> <Gold.PLP.part.buried>
-0.9521

> <Gold.PLP.part.nonpolar>
-37.3371

> <Gold.PLP.part.repulsive>
0.2780

> <Gold.PLP.ligand.clash>
0.0000

> <Gold.PLP.ligand.torsion>
0.4612

> <Gold.PLP.Chemscore.Hbond>
5.9516

> <Gold.PLP.Chemscore.CHOScore>
0.0000

> <Gold.PLP.Chemscore.Metal>
0.0000

> <Gold.Chemscore.Hbonds>
donor molecule, donor type, donor heavy atom, donor atom, acceptor molecule, acceptor atom, score
      L1  H     5    46       P1  8028  2.00
      L1  H    10    31       P1  7949  0.97
      L1  H    12    45       P1  7948  2.00
      L1  H    15    38       P1 10171  0.98

> <Gold.PLP.Chemscore.Internal.Correction>
0.0380

> <Gold.Rescore>
     Score         DG    S(hbond)    S(metal)    S(lipo)     H(rot)  DE(clash)    DE(int)     intcor
     21.05     -23.22       3.23        0.00     112.72       2.44       1.79       0.39       ----

> <Gold.Chemscore.Fitness>
21.0480

> <Gold.Chemscore.DG>
-23.2225

> <Gold.Chemscore.ZeroCoef>
-5.4800

> <Gold.Chemscore.Hbond>
3.2303

> <Gold.Chemscore.Metal>
0.0000

> <Gold.Chemscore.Lipo>
112.7239

> <Gold.Chemscore.Internal_Hbond>
0.0000

> <Gold.Chemscore.DEClash>
1.7872

> <Gold.Chemscore.DEInternal>
0.3873

> <Gold.Chemscore.Rot>
2.4357

> <Gold.Chemscore.Internal.Correction>
   9.000000E+99

> <Gold.Chemscore.Hbonds>
donor molecule, donor type, donor heavy atom, donor atom, acceptor molecule, acceptor atom, score
      L1  H     5    46       P1  8028  0.96
      L1  H    10    31       P1  7949  0.22
      L1  H    12    45       P1  7948  0.99
      L1  H    15    38       P1 10171  0.88

> <Gold.Chemscore.Hbond.Weighted>
-10.7892

> <Gold.Chemscore.Metal.Weighted>
-0.0000

> <Gold.Chemscore.Lipo.Weighted>
-13.1887

> <Gold.Chemscore.Internal_Hbond.Weighted>
0.0000

> <Gold.Chemscore.DEClash.Weighted>
1.7872

> <Gold.Chemscore.DEInternal.Weighted>
0.3873

> <Gold.Chemscore.Rot.Weighted>
6.2353

> <Gold.Chemscore.Internal.Correction.Weighted>
   9.000000E+99

> <Gold.Protein.RotatedTorsions>
[ 6907 6896 6895 6894 ] final    5.42 input  -60.11 | X-H torsion
[ 7974 7965 7964 7962 ] final   80.85 input  175.53 | X-H torsion
[ 8008 7997 7996 7995 ] final -154.13 input   59.86 | X-H torsion
[ 10167 10162 10161 10158 ] final  152.98 input  -65.29 | X-H torsion
[ 10718 10713 10712 10709 ] final   64.52 input   66.30 | X-H torsion
[ 10763 10752 10751 10750 ] final  -36.84 input  -60.55 | X-H torsion
[ 11005 11000 10999 10996 ] final   19.03 input  -57.11 | X-H torsion

> <Gold.Protein.ActiveResidues>
 VAL166  LYS551  ARG553  GLY616  TRP617  ASP618  TYR619  PRO620  LYS621  CYS622 
 ASP623  PHE694  ASN695  SER759  ASP760  ASP761  ALA762  ILE779  LEU786  VAL792 
 PHE793  MET794  SER795  GLU796  ALA797  LYS798  CYS799  TRP800  GLU811  SER814 

> <Gold.Protein.RotatedAtoms>
  151.6572  135.0994  160.0172 H   0  0  0  0  0  0  0  0  0  0  0  0  # atno 6907 bound_to 6896
  152.3967  133.6753  159.6291 H   0  0  0  0  0  0  0  0  0  0  0  0  # atno 6908 bound_to 6896
  150.7873  133.8778  159.3318 H   0  0  0  0  0  0  0  0  0  0  0  0  # atno 6909 bound_to 6896
  145.6458  139.2436  143.2004 H   0  0  0  0  0  0  0  0  0  0  0  0  # atno 7974 bound_to 7965
  155.6816  140.0745  157.2482 H   0  0  0  0  0  0  0  0  0  0  0  0  # atno 8008 bound_to 7997
  154.4104  140.1681  156.2040 H   0  0  0  0  0  0  0  0  0  0  0  0  # atno 8009 bound_to 7997
  155.9530  140.3376  155.6427 H   0  0  0  0  0  0  0  0  0  0  0  0  # atno 8010 bound_to 7997
  139.4829  144.5312  151.7720 H   0  0  0  0  0  0  0  0  0  0  0  0  # atno 10167 bound_to 10162
  157.6045  130.9164  149.9856 H   0  0  0  0  0  0  0  0  0  0  0  0  # atno 10718 bound_to 10713
  153.8864  135.6816  153.4763 H   0  0  0  0  0  0  0  0  0  0  0  0  # atno 10763 bound_to 10752
  153.1205  135.4742  154.9185 H   0  0  0  0  0  0  0  0  0  0  0  0  # atno 10764 bound_to 10752
  154.7644  135.3220  154.8268 H   0  0  0  0  0  0  0  0  0  0  0  0  # atno 10765 bound_to 10752
  140.4182  134.1546  155.7671 H   0  0  0  0  0  0  0  0  0  0  0  0  # atno 11005 bound_to 11000
  146.1243  140.7268  142.9442 LP  0  0  0  0  0  0  0  0  0  0  0  0  # atno 17320 bound_to 7965
  144.7140  140.4144  143.7058 LP  0  0  0  0  0  0  0  0  0  0  0  0  # atno 17321 bound_to 7965
  140.4838  144.1410  150.5937 LP  0  0  0  0  0  0  0  0  0  0  0  0  # atno 17342 bound_to 10162
  140.4248  143.2595  151.9670 LP  0  0  0  0  0  0  0  0  0  0  0  0  # atno 17343 bound_to 10162
  156.1127  130.3649  150.0022 LP  0  0  0  0  0  0  0  0  0  0  0  0  # atno 17370 bound_to 10713
  156.8117  130.9327  151.3644 LP  0  0  0  0  0  0  0  0  0  0  0  0  # atno 17371 bound_to 10713
  141.1794  133.8445  157.1309 LP  0  0  0  0  0  0  0  0  0  0  0  0  # atno 17394 bound_to 11000
  140.0219  134.9942  157.0608 LP  0  0  0  0  0  0  0  0  0  0  0  0  # atno 17395 bound_to 11000

$$$$
