AV-unprocessed.smi:1260|AV-procd|sdf|5297|dock2
  -GOLD-   22720 4413D 1   1.00000     0.00000
 Structure written by MMmdl.
 37 39  0  0  0  0  0  0  0  0  2 V2000
  155.9383  140.7832  161.6568 O   0  0  0  0  0  0  0  0  0  0  0  0
  154.8313  140.2728  161.8228 C   0  0  0  0  0  0  0  0  0  0  0  0
  154.7245  138.8299  162.3238 C   0  0  0  0  0  0  0  0  0  0  0  0
  154.2838  137.9243  161.2776 N   0  0  0  0  0  0  0  0  0  0  0  0
  154.1101  136.6011  161.2800 C   0  0  0  0  0  0  0  0  0  0  0  0
  153.7019  136.1592  160.1005 N   0  0  0  0  0  0  0  0  0  0  0  0
  153.6217  137.3150  159.3418 N   0  0  0  0  0  0  0  0  0  0  0  0
  153.9635  138.3660  160.0354 N   0  0  0  0  0  0  0  0  0  0  0  0
  153.6792  140.9154  161.5692 N   0  0  0  0  0  0  0  0  0  0  0  0
  153.5653  142.3037  161.1261 C   0  0  2  0  0  0  0  0  0  0  0  0
  152.8372  143.1983  162.1477 C   0  0  0  0  0  0  0  0  0  0  0  0
  151.9331  144.1001  161.3009 C   0  0  0  0  0  0  0  0  0  0  0  0
  151.5731  143.2370  160.1697 N   0  3  1  0  0  0  0  0  0  0  0  0
  150.9026  143.8460  159.0032 C   0  0  0  0  0  0  0  0  0  0  0  0
  150.4679  142.7157  158.0454 C   0  0  0  0  0  0  0  0  0  0  0  0
  151.6366  141.7692  157.6881 C   0  0  0  0  0  0  0  0  0  0  0  0
  152.3775  141.2702  158.9478 C   0  0  0  0  0  0  0  0  0  0  0  0
  152.7850  142.4842  159.8021 C   0  0  2  0  0  0  0  0  0  0  0  0
  155.6962  138.4997  162.6931 H   0  0  0  0  0  0  0  0  0  0  0  0
  154.0245  138.7711  163.1587 H   0  0  0  0  0  0  0  0  0  0  0  0
  154.2863  135.9664  162.1362 H   0  0  0  0  0  0  0  0  0  0  0  0
  152.8162  140.4165  161.7301 H   0  0  0  0  0  0  0  0  0  0  0  0
  154.5695  142.7099  160.9874 H   0  0  0  0  0  0  0  0  0  0  0  0
  152.2187  142.5913  162.8108 H   0  0  0  0  0  0  0  0  0  0  0  0
  153.5256  143.7681  162.7730 H   0  0  0  0  0  0  0  0  0  0  0  0
  151.0551  144.4478  161.8460 H   0  0  0  0  0  0  0  0  0  0  0  0
  152.4857  144.9696  160.9408 H   0  0  0  0  0  0  0  0  0  0  0  0
  150.0329  144.4152  159.3331 H   0  0  0  0  0  0  0  0  0  0  0  0
  151.5764  144.5434  158.5032 H   0  0  0  0  0  0  0  0  0  0  0  0
  149.6732  142.1352  158.5161 H   0  0  0  0  0  0  0  0  0  0  0  0
  150.0394  143.1399  157.1370 H   0  0  0  0  0  0  0  0  0  0  0  0
  151.2695  140.9215  157.1091 H   0  0  0  0  0  0  0  0  0  0  0  0
  152.3399  142.2980  157.0434 H   0  0  0  0  0  0  0  0  0  0  0  0
  151.7340  140.6002  159.5195 H   0  0  0  0  0  0  0  0  0  0  0  0
  153.2562  140.6958  158.6531 H   0  0  0  0  0  0  0  0  0  0  0  0
  153.3974  143.1381  159.1772 H   0  0  0  0  0  0  0  0  0  0  0  0
  150.9278  142.5576  160.5467 H   0  0  0  0  0  0  0  0  0  0  0  0
  1  2  2  0  0  0  0
  2  3  1  0  0  0  0
  2  9  1  0  0  0  0
  3  4  1  0  0  0  0
  3 19  1  0  0  0  0
  3 20  1  0  0  0  0
  4  8  1  0  0  0  0
  4  5  1  0  0  0  0
  5  6  2  0  0  0  0
  5 21  1  0  0  0  0
  6  7  1  0  0  0  0
  7  8  2  0  0  0  0
  9 10  1  0  0  0  0
  9 22  1  0  0  0  0
 10 18  1  0  0  0  0
 10 11  1  0  0  0  0
 10 23  1  0  0  0  0
 11 12  1  0  0  0  0
 11 24  1  0  0  0  0
 11 25  1  0  0  0  0
 12 13  1  0  0  0  0
 12 26  1  0  0  0  0
 12 27  1  0  0  0  0
 13 18  1  0  0  0  0
 13 14  1  0  0  0  0
 13 37  1  0  0  0  0
 14 15  1  0  0  0  0
 14 28  1  0  0  0  0
 14 29  1  0  0  0  0
 15 16  1  0  0  0  0
 15 30  1  0  0  0  0
 15 31  1  0  0  0  0
 16 17  1  0  0  0  0
 16 32  1  0  0  0  0
 16 33  1  0  0  0  0
 17 18  1  0  0  0  0
 17 34  1  0  0  0  0
 17 35  1  0  0  0  0
 18 36  1  0  0  0  0
M  CHG  1  13   1
M  END
> <s_m_source_file>
AV-unprocessed.smi

> <i_m_source_file_index>
1260

> <i_lp_mmshare_version>
43012

> <i_f3d_flags>
0

> <s_epik_input>
bjFubltjSF1uMVtDSDJdQyg9TylbTkhdW0NASF0oW0NIMl1bQ0gyXTIpW0NAQEhdKE4yMylbQ0gyXVtDSDJdW0NIMl1bQ0gyXTM=

> <s_epik_cmdline>
J2VwaWtfcHl0aG9uJywgJy1waCcsICc3LjAnLCAnLXRuJywgJzgnLCAnLW1hJywgJzIwMCcsICctbWV0YWxfYmluZGluZycsICctaW1hZScsICc8aW5maWxlLm1hZT4nLCAnLW9tYWUnLCAnPG91dGZpbGUubWFlPic=

> <r_lp_tautomer_probability>
1

> <r_epik_Ionization_Penalty>
0.00234324

> <r_epik_Ionization_Penalty_Charging>
0.00233897

> <r_epik_Ionization_Penalty_Neutral>
4.26861e-06

> <r_epik_State_Penalty>
0.00161477

> <r_epik_Charging_Adjusted_Penalty>
0.00395374

> <i_epik_Tot_Q>
1

> <i_epik_Tot_abs_Q>
1

> <r_epik_Metal_State_Penalty>
-0

> <b_epik_Metal_Only>
0

> <s_lp_Force_Field>
OPLS_2005

> <r_lp_Energy>
44.4325

> <b_lp_Chiralities_Consistent>
1

> <s_lp_Variant>
AV-unprocessed.smi:1260-5

> <Gold.Version>
5.8.1

> <Gold.Id.Protein>
6NUR|6NUR_protein|mol2

> <Gold.PLP.Fitness>
37.3456

> <Gold.PLP.PLP>
-34.6278

> <Gold.PLP.part.hbond>
-1.7394

> <Gold.PLP.part.metal>
0.0000

> <Gold.PLP.part.buried>
-5.2350

> <Gold.PLP.part.nonpolar>
-26.6603

> <Gold.PLP.part.repulsive>
0.1393

> <Gold.PLP.ligand.clash>
0.0000

> <Gold.PLP.ligand.torsion>
0.1419

> <Gold.PLP.Chemscore.Hbond>
1.0000

> <Gold.PLP.Chemscore.CHOScore>
0.0000

> <Gold.PLP.Chemscore.Metal>
0.0000

> <Gold.Chemscore.Hbonds>
donor molecule, donor type, donor heavy atom, donor atom, acceptor molecule, acceptor atom, score
      P1  H  6896  6907       L1     6  1.00

> <Gold.PLP.Chemscore.Internal.Correction>
0.0016

> <Gold.Rescore>
     Score         DG    S(hbond)    S(metal)    S(lipo)     H(rot)  DE(clash)    DE(int)     intcor
     12.57     -13.21       0.94        0.00      82.48       1.98       0.53       0.11       ----

> <Gold.Chemscore.Fitness>
12.5738

> <Gold.Chemscore.DG>
-13.2137

> <Gold.Chemscore.ZeroCoef>
-5.4800

> <Gold.Chemscore.Hbond>
0.9406

> <Gold.Chemscore.Metal>
0.0000

> <Gold.Chemscore.Lipo>
82.4774

> <Gold.Chemscore.Internal_Hbond>
0.0000

> <Gold.Chemscore.DEClash>
0.5255

> <Gold.Chemscore.DEInternal>
0.1144

> <Gold.Chemscore.Rot>
1.9757

> <Gold.Chemscore.Internal.Correction>
   9.000000E+99

> <Gold.Chemscore.Hbonds>
donor molecule, donor type, donor heavy atom, donor atom, acceptor molecule, acceptor atom, score
      P1  H  6896  6907       L1     6  0.94

> <Gold.Chemscore.Hbond.Weighted>
-3.1416

> <Gold.Chemscore.Metal.Weighted>
-0.0000

> <Gold.Chemscore.Lipo.Weighted>
-9.6499

> <Gold.Chemscore.Internal_Hbond.Weighted>
0.0000

> <Gold.Chemscore.DEClash.Weighted>
0.5255

> <Gold.Chemscore.DEInternal.Weighted>
0.1144

> <Gold.Chemscore.Rot.Weighted>
5.0578

> <Gold.Chemscore.Internal.Correction.Weighted>
   9.000000E+99

> <Gold.Protein.RotatedTorsions>
[ 6907 6896 6895 6894 ] final   45.52 input  -60.11 | X-H torsion
[ 7974 7965 7964 7962 ] final   10.34 input  175.53 | X-H torsion
[ 8008 7997 7996 7995 ] final -135.66 input   59.86 | X-H torsion
[ 10167 10162 10161 10158 ] final  119.51 input  -65.29 | X-H torsion
[ 10718 10713 10712 10709 ] final    9.13 input   66.30 | X-H torsion
[ 10763 10752 10751 10750 ] final -129.72 input  -60.55 | X-H torsion
[ 11005 11000 10999 10996 ] final  -51.42 input  -57.11 | X-H torsion

> <Gold.Protein.ActiveResidues>
 VAL166  LYS551  ARG553  GLY616  TRP617  ASP618  TYR619  PRO620  LYS621  CYS622 
 ASP623  PHE694  ASN695  SER759  ASP760  ASP761  ALA762  ILE779  LEU786  VAL792 
 PHE793  MET794  SER795  GLU796  ALA797  LYS798  CYS799  TRP800  GLU811  SER814 

> <Gold.Protein.RotatedAtoms>
  152.2455  134.8186  160.0453 H   0  0  0  0  0  0  0  0  0  0  0  0  # atno 6907 bound_to 6896
  151.8885  133.3505  159.3798 H   0  0  0  0  0  0  0  0  0  0  0  0  # atno 6908 bound_to 6896
  150.7067  134.4874  159.5543 H   0  0  0  0  0  0  0  0  0  0  0  0  # atno 6909 bound_to 6896
  146.2390  139.9649  142.8454 H   0  0  0  0  0  0  0  0  0  0  0  0  # atno 7974 bound_to 7965
  155.3824  140.0495  157.3043 H   0  0  0  0  0  0  0  0  0  0  0  0  # atno 8008 bound_to 7997
  154.5076  140.2180  155.9182 H   0  0  0  0  0  0  0  0  0  0  0  0  # atno 8009 bound_to 7997
  156.1544  140.3129  155.8707 H   0  0  0  0  0  0  0  0  0  0  0  0  # atno 8010 bound_to 7997
  139.6041  144.7065  151.2993 H   0  0  0  0  0  0  0  0  0  0  0  0  # atno 10167 bound_to 10162
  156.9618  130.5936  149.5662 H   0  0  0  0  0  0  0  0  0  0  0  0  # atno 10718 bound_to 10713
  154.8757  135.3886  154.3965 H   0  0  0  0  0  0  0  0  0  0  0  0  # atno 10763 bound_to 10752
  153.4695  135.7030  153.6007 H   0  0  0  0  0  0  0  0  0  0  0  0  # atno 10764 bound_to 10752
  153.4470  135.3842  155.2230 H   0  0  0  0  0  0  0  0  0  0  0  0  # atno 10765 bound_to 10752
  141.0870  133.6640  156.3875 H   0  0  0  0  0  0  0  0  0  0  0  0  # atno 11005 bound_to 11000
  145.1736  140.9733  143.4307 LP  0  0  0  0  0  0  0  0  0  0  0  0  # atno 17320 bound_to 7965
  145.0006  139.3602  143.6169 LP  0  0  0  0  0  0  0  0  0  0  0  0  # atno 17321 bound_to 7965
  140.7272  143.6969  150.7876 LP  0  0  0  0  0  0  0  0  0  0  0  0  # atno 17342 bound_to 10162
  140.0552  143.5210  152.2655 LP  0  0  0  0  0  0  0  0  0  0  0  0  # atno 17343 bound_to 10162
  156.0319  130.5410  150.8556 LP  0  0  0  0  0  0  0  0  0  0  0  0  # atno 17370 bound_to 10713
  157.5653  131.0946  150.9499 LP  0  0  0  0  0  0  0  0  0  0  0  0  # atno 17371 bound_to 10713
  140.5340  134.6185  157.5359 LP  0  0  0  0  0  0  0  0  0  0  0  0  # atno 17394 bound_to 11000
  139.9690  134.7325  156.0080 LP  0  0  0  0  0  0  0  0  0  0  0  0  # atno 17395 bound_to 11000

$$$$
