AV-unprocessed.smi:1669|AV-procd|sdf|6692|dock6
  -GOLD-   22720 7423D 1   1.00000     0.00000
 Structure written by MMmdl.
 49 51  0  0  0  0  0  0  0  0  3 V2000
  146.9609  136.3994  157.5653 C   0  0  0  0  0  0  0  0  0  0  0  0
  148.0300  137.0714  158.3408 N   0  3  2  0  0  0  0  0  0  0  0  0
  147.6173  137.3805  159.7342 C   0  0  0  0  0  0  0  0  0  0  0  0
  147.5626  136.1329  160.5968 C   0  0  0  0  0  0  0  0  0  0  0  0
  147.3361  136.2474  161.9849 C   0  0  0  0  0  0  0  0  0  0  0  0
  147.2858  135.0936  162.7912 C   0  0  0  0  0  0  0  0  0  0  0  0
  147.4601  133.8216  162.2125 C   0  0  0  0  0  0  0  0  0  0  0  0
  147.6839  133.7033  160.8272 C   0  0  0  0  0  0  0  0  0  0  0  0
  147.7338  134.8564  160.0199 C   0  0  0  0  0  0  0  0  0  0  0  0
  148.5840  138.2485  157.6244 C   0  0  0  0  0  0  0  0  0  0  0  0
  150.1250  138.2322  157.5794 C   0  0  1  0  0  0  0  0  0  0  0  0
  150.5609  136.8898  157.4891 O   0  0  0  0  0  0  0  0  0  0  0  0
  150.6685  139.0275  156.3757 C   0  0  0  0  0  0  0  0  0  0  0  0
  150.6546  140.4826  156.5932 N   0  0  0  0  0  0  0  0  0  0  0  0
  150.0116  141.4736  155.9094 C   0  0  0  0  0  0  0  0  0  0  0  0
  149.1257  141.3036  154.7159 C   0  0  0  0  0  0  0  0  0  0  0  0
  149.8057  140.8020  153.5847 O   0  0  0  0  0  0  0  0  0  0  0  0
  150.3271  142.6515  156.5208 N   0  3  0  0  0  0  0  0  0  0  0  0
  151.1715  142.4128  157.6053 C   0  0  0  0  0  0  0  0  0  0  0  0
  151.7502  143.2867  158.5204 C   0  0  0  0  0  0  0  0  0  0  0  0
  152.5654  142.7108  159.5168 C   0  0  0  0  0  0  0  0  0  0  0  0
  152.7788  141.3181  159.5765 C   0  0  0  0  0  0  0  0  0  0  0  0
  152.1874  140.4419  158.6422 C   0  0  0  0  0  0  0  0  0  0  0  0
  151.3837  141.0202  157.6601 C   0  0  0  0  0  0  0  0  0  0  0  0
  146.0996  137.0563  157.4371 H   0  0  0  0  0  0  0  0  0  0  0  0
  146.6263  135.4879  158.0603 H   0  0  0  0  0  0  0  0  0  0  0  0
  147.3227  136.1138  156.5770 H   0  0  0  0  0  0  0  0  0  0  0  0
  148.3209  138.0692  160.2016 H   0  0  0  0  0  0  0  0  0  0  0  0
  146.6520  137.8894  159.7348 H   0  0  0  0  0  0  0  0  0  0  0  0
  147.2025  137.2203  162.4354 H   0  0  0  0  0  0  0  0  0  0  0  0
  147.1131  135.1835  163.8537 H   0  0  0  0  0  0  0  0  0  0  0  0
  147.4219  132.9368  162.8310 H   0  0  0  0  0  0  0  0  0  0  0  0
  147.8169  132.7274  160.3838 H   0  0  0  0  0  0  0  0  0  0  0  0
  147.9060  134.7567  158.9581 H   0  0  0  0  0  0  0  0  0  0  0  0
  148.2099  138.2748  156.5994 H   0  0  0  0  0  0  0  0  0  0  0  0
  148.2213  139.1607  158.1010 H   0  0  0  0  0  0  0  0  0  0  0  0
  150.5368  138.6542  158.4954 H   0  0  0  0  0  0  0  0  0  0  0  0
  150.8068  136.7129  156.5934 H   0  0  0  0  0  0  0  0  0  0  0  0
  151.6967  138.7340  156.1603 H   0  0  0  0  0  0  0  0  0  0  0  0
  150.0939  138.8105  155.4742 H   0  0  0  0  0  0  0  0  0  0  0  0
  148.3112  140.6235  154.9655 H   0  0  0  0  0  0  0  0  0  0  0  0
  148.6795  142.2656  154.4628 H   0  0  0  0  0  0  0  0  0  0  0  0
  149.2222  140.2274  153.1123 H   0  0  0  0  0  0  0  0  0  0  0  0
  151.5868  144.3538  158.4773 H   0  0  0  0  0  0  0  0  0  0  0  0
  153.0349  143.3499  160.2507 H   0  0  0  0  0  0  0  0  0  0  0  0
  153.4081  140.9134  160.3561 H   0  0  0  0  0  0  0  0  0  0  0  0
  152.3566  139.3770  158.6984 H   0  0  0  0  0  0  0  0  0  0  0  0
  148.7899  136.4084  158.4018 H   0  0  0  0  0  0  0  0  0  0  0  0
  149.9829  143.5523  156.2130 H   0  0  0  0  0  0  0  0  0  0  0  0
  1  2  1  0  0  0  0
  1 25  1  0  0  0  0
  1 26  1  0  0  0  0
  1 27  1  0  0  0  0
  2  3  1  0  0  0  0
  2 10  1  0  0  0  0
  2 48  1  0  0  0  0
  3  4  1  0  0  0  0
  3 28  1  0  0  0  0
  3 29  1  0  0  0  0
  4  9  1  0  0  0  0
  4  5  2  0  0  0  0
  5  6  1  0  0  0  0
  5 30  1  0  0  0  0
  6  7  2  0  0  0  0
  6 31  1  0  0  0  0
  7  8  1  0  0  0  0
  7 32  1  0  0  0  0
  8  9  2  0  0  0  0
  8 33  1  0  0  0  0
  9 34  1  0  0  0  0
 10 11  1  0  0  0  0
 10 35  1  0  0  0  0
 10 36  1  0  0  0  0
 11 12  1  0  0  0  0
 11 13  1  0  0  0  0
 11 37  1  0  0  0  0
 12 38  1  0  0  0  0
 13 14  1  0  0  0  0
 13 39  1  0  0  0  0
 13 40  1  0  0  0  0
 14 24  1  0  0  0  0
 14 15  1  0  0  0  0
 15 16  1  0  0  0  0
 15 18  2  0  0  0  0
 16 17  1  0  0  0  0
 16 41  1  0  0  0  0
 16 42  1  0  0  0  0
 17 43  1  0  0  0  0
 18 19  1  0  0  0  0
 18 49  1  0  0  0  0
 19 24  2  0  0  0  0
 19 20  1  0  0  0  0
 20 21  2  0  0  0  0
 20 44  1  0  0  0  0
 21 22  1  0  0  0  0
 21 45  1  0  0  0  0
 22 23  2  0  0  0  0
 22 46  1  0  0  0  0
 23 24  1  0  0  0  0
 23 47  1  0  0  0  0
M  CHG  1   2   1
M  CHG  1  18   1
M  END
> <s_m_source_file>
AV-unprocessed.smi

> <i_m_source_file_index>
1669

> <i_lp_mmshare_version>
43012

> <i_f3d_flags>
0

> <s_epik_input>
W2NIXTFbY0hdW2NIXVtjSF1bY0hdYzFbQ0gyXU4oW0NIM10pW0NIMl1bQ0BIXShbT0hdKVtDSDJdbihjKG4yKVtDSDJdW09IXSljKGMyMylbY0hdW2NIXVtjSF1bY0hdMw==

> <s_epik_cmdline>
J2VwaWtfcHl0aG9uJywgJy1waCcsICc3LjAnLCAnLXRuJywgJzgnLCAnLW1hJywgJzIwMCcsICctbWV0YWxfYmluZGluZycsICctaW1hZScsICc8aW5maWxlLm1hZT4nLCAnLW9tYWUnLCAnPG91dGZpbGUubWFlPic=

> <r_epik_Ionization_Penalty>
1.57484

> <r_epik_Ionization_Penalty_Charging>
1.57398

> <r_epik_Ionization_Penalty_Neutral>
0.000858917

> <r_epik_State_Penalty>
1.64997

> <r_epik_Charging_Adjusted_Penalty>
3.22395

> <i_epik_Tot_Q>
2

> <i_epik_Tot_abs_Q>
2

> <r_epik_Metal_State_Penalty>
5.70481

> <b_epik_Metal_Only>
0

> <s_lp_Force_Field>
OPLS_2005

> <r_lp_Energy>
22.4556

> <b_lp_Chiralities_Consistent>
1

> <s_lp_Variant>
AV-unprocessed.smi:1669-10

> <Gold.Version>
5.8.1

> <Gold.Id.Protein>
6NUR|6NUR_protein|mol2

> <Gold.PLP.Fitness>
54.0681

> <Gold.PLP.PLP>
-45.0859

> <Gold.PLP.part.hbond>
-3.7447

> <Gold.PLP.part.metal>
0.0000

> <Gold.PLP.part.buried>
-3.5049

> <Gold.PLP.part.nonpolar>
-38.2239

> <Gold.PLP.part.repulsive>
0.1550

> <Gold.PLP.ligand.clash>
0.0000

> <Gold.PLP.ligand.torsion>
1.3144

> <Gold.PLP.Chemscore.Hbond>
3.6793

> <Gold.PLP.Chemscore.CHOScore>
0.0000

> <Gold.PLP.Chemscore.Metal>
0.0000

> <Gold.Chemscore.Hbonds>
donor molecule, donor type, donor heavy atom, donor atom, acceptor molecule, acceptor atom, score
      L1  H    17    43       P1  7957  0.30
      L1  H    18    49       P1  8028  2.00
      P1  H  7989  7998       L1    17  0.38
      P1  H  8011  8017       L1    17  0.99

> <Gold.PLP.Chemscore.Internal.Correction>
0.5732

> <Gold.Rescore>
     Score         DG    S(hbond)    S(metal)    S(lipo)     H(rot)  DE(clash)    DE(int)     intcor
     15.45     -17.66       2.08        0.00     116.33       3.27       0.76       1.44       ----

> <Gold.Chemscore.Fitness>
15.4545

> <Gold.Chemscore.DG>
-17.6620

> <Gold.Chemscore.ZeroCoef>
-5.4800

> <Gold.Chemscore.Hbond>
2.0800

> <Gold.Chemscore.Metal>
0.0000

> <Gold.Chemscore.Lipo>
116.3296

> <Gold.Chemscore.Internal_Hbond>
0.0000

> <Gold.Chemscore.DEClash>
0.7647

> <Gold.Chemscore.DEInternal>
1.4427

> <Gold.Chemscore.Rot>
3.2718

> <Gold.Chemscore.Internal.Correction>
   9.000000E+99

> <Gold.Chemscore.Hbonds>
donor molecule, donor type, donor heavy atom, donor atom, acceptor molecule, acceptor atom, score
      L1  H    17    43       P1  7957  0.29
      L1  H    18    49       P1  8028  1.00
      P1  H  7989  7998       L1    17  0.37
      P1  H  8011  8017       L1    17  0.09

> <Gold.Chemscore.Hbond.Weighted>
-6.9473

> <Gold.Chemscore.Metal.Weighted>
-0.0000

> <Gold.Chemscore.Lipo.Weighted>
-13.6106

> <Gold.Chemscore.Internal_Hbond.Weighted>
0.0000

> <Gold.Chemscore.DEClash.Weighted>
0.7647

> <Gold.Chemscore.DEInternal.Weighted>
1.4427

> <Gold.Chemscore.Rot.Weighted>
8.3759

> <Gold.Chemscore.Internal.Correction.Weighted>
   9.000000E+99

> <Gold.Protein.RotatedTorsions>
[ 6907 6896 6895 6894 ] final  115.21 input  -60.11 | X-H torsion
[ 7974 7965 7964 7962 ] final  -93.58 input  175.53 | X-H torsion
[ 8008 7997 7996 7995 ] final  -21.13 input   59.86 | X-H torsion
[ 10167 10162 10161 10158 ] final  -16.77 input  -65.29 | X-H torsion
[ 10718 10713 10712 10709 ] final   15.05 input   66.30 | X-H torsion
[ 10763 10752 10751 10750 ] final  111.93 input  -60.55 | X-H torsion
[ 11005 11000 10999 10996 ] final  -48.86 input  -57.11 | X-H torsion

> <Gold.Protein.ActiveResidues>
 VAL166  LYS551  ARG553  GLY616  TRP617  ASP618  TYR619  PRO620  LYS621  CYS622 
 ASP623  PHE694  ASN695  SER759  ASP760  ASP761  ALA762  ILE779  LEU786  VAL792 
 PHE793  MET794  SER795  GLU796  ALA797  LYS798  CYS799  TRP800  GLU811  SER814 

> <Gold.Protein.RotatedAtoms>
  152.4756  133.8130  159.7012 H   0  0  0  0  0  0  0  0  0  0  0  0  # atno 6907 bound_to 6896
  150.8770  133.7415  159.2950 H   0  0  0  0  0  0  0  0  0  0  0  0  # atno 6908 bound_to 6896
  151.4931  135.1062  159.9861 H   0  0  0  0  0  0  0  0  0  0  0  0  # atno 6909 bound_to 6896
  145.3846  140.9521  143.2374 H   0  0  0  0  0  0  0  0  0  0  0  0  # atno 7974 bound_to 7965
  154.4725  140.2043  155.9959 H   0  0  0  0  0  0  0  0  0  0  0  0  # atno 8008 bound_to 7997
  156.1035  140.3240  155.7944 H   0  0  0  0  0  0  0  0  0  0  0  0  # atno 8009 bound_to 7997
  155.4758  140.0535  157.2964 H   0  0  0  0  0  0  0  0  0  0  0  0  # atno 8010 bound_to 7997
  140.7238  143.5083  150.9782 H   0  0  0  0  0  0  0  0  0  0  0  0  # atno 10167 bound_to 10162
  157.0479  130.6258  149.5762 H   0  0  0  0  0  0  0  0  0  0  0  0  # atno 10718 bound_to 10713
  153.4704  135.3702  155.2388 H   0  0  0  0  0  0  0  0  0  0  0  0  # atno 10763 bound_to 10752
  154.8757  135.3930  154.3818 H   0  0  0  0  0  0  0  0  0  0  0  0  # atno 10764 bound_to 10752
  153.4406  135.7084  153.6236 H   0  0  0  0  0  0  0  0  0  0  0  0  # atno 10765 bound_to 10752
  141.0726  133.6675  156.3502 H   0  0  0  0  0  0  0  0  0  0  0  0  # atno 11005 bound_to 11000
  144.8483  139.5362  143.6868 LP  0  0  0  0  0  0  0  0  0  0  0  0  # atno 17320 bound_to 7965
  146.2826  139.6918  142.9218 LP  0  0  0  0  0  0  0  0  0  0  0  0  # atno 17321 bound_to 7965
  139.8795  143.7090  152.3158 LP  0  0  0  0  0  0  0  0  0  0  0  0  # atno 17342 bound_to 10162
  139.7367  144.7569  151.0716 LP  0  0  0  0  0  0  0  0  0  0  0  0  # atno 17343 bound_to 10162
  156.0017  130.5097  150.7686 LP  0  0  0  0  0  0  0  0  0  0  0  0  # atno 17370 bound_to 10713
  157.5053  131.0921  151.0264 LP  0  0  0  0  0  0  0  0  0  0  0  0  # atno 17371 bound_to 10713
  140.5642  134.5904  157.5441 LP  0  0  0  0  0  0  0  0  0  0  0  0  # atno 17394 bound_to 11000
  139.9538  134.7570  156.0387 LP  0  0  0  0  0  0  0  0  0  0  0  0  # atno 17395 bound_to 11000

$$$$
