AV-unprocessed.smi:1209|AV-procd|sdf|5070|dock5
  -GOLD-   22720 4113D 1   1.00000     0.00000
 Structure written by MMmdl.
 48 50  0  0  0  0  0  0  0  0  1 V2000
  147.7698  132.1620  153.3242 C   0  0  0  0  0  0  0  0  0  0  0  0
  148.3208  133.3747  153.9922 C   0  0  0  0  0  0  0  0  0  0  0  0
  147.7479  134.5260  154.4521 C   0  0  0  0  0  0  0  0  0  0  0  0
  148.8458  135.2604  154.9789 C   0  0  0  0  0  0  0  0  0  0  0  0
  148.8348  136.6196  155.6265 C   0  0  0  0  0  0  0  0  0  0  0  0
  149.6267  137.6231  154.9067 N   0  0  0  0  0  0  0  0  0  0  0  0
  151.0417  137.2627  154.8788 C   0  0  0  0  0  0  0  0  0  0  0  0
  149.4661  138.9628  155.4759 C   0  0  0  0  0  0  0  0  0  0  0  0
  150.1131  140.1105  154.6700 C   0  0  1  0  0  0  0  0  0  0  0  0
  149.2443  140.4801  153.6152 O   0  0  0  0  0  0  0  0  0  0  0  0
  150.3779  141.3503  155.5471 C   0  0  0  0  0  0  0  0  0  0  0  0
  151.2738  141.0686  156.6549 N   0  0  0  0  0  0  0  0  0  0  0  0
  152.0689  139.9910  156.7973 C   0  0  0  0  0  0  0  0  0  0  0  0
  152.8165  139.9265  157.8952 N   0  0  0  0  0  0  0  0  0  0  0  0
  152.4670  141.1010  158.5398 C   0  0  0  0  0  0  0  0  0  0  0  0
  152.9091  141.6385  159.7685 C   0  0  0  0  0  0  0  0  0  0  0  0
  152.4108  142.8738  160.2406 C   0  0  0  0  0  0  0  0  0  0  0  0
  152.9148  143.4154  161.5668 C   0  0  0  0  0  0  0  0  0  0  0  0
  151.4541  143.5919  159.4787 C   0  0  0  0  0  0  0  0  0  0  0  0
  150.9066  144.9223  159.9646 C   0  0  0  0  0  0  0  0  0  0  0  0
  151.0010  143.0685  158.2496 C   0  0  0  0  0  0  0  0  0  0  0  0
  151.5039  141.8382  157.7905 C   0  0  0  0  0  0  0  0  0  0  0  0
  149.9863  134.6034  154.8420 N   0  0  0  0  0  0  0  0  0  0  0  0
  149.6602  133.3965  154.2132 O   0  0  0  0  0  0  0  0  0  0  0  0
  146.6798  132.1744  153.3325 H   0  0  0  0  0  0  0  0  0  0  0  0
  148.1011  131.2561  153.8320 H   0  0  0  0  0  0  0  0  0  0  0  0
  148.0996  132.1099  152.2865 H   0  0  0  0  0  0  0  0  0  0  0  0
  146.7043  134.8007  154.4195 H   0  0  0  0  0  0  0  0  0  0  0  0
  147.7977  136.9464  155.6936 H   0  0  0  0  0  0  0  0  0  0  0  0
  149.1874  136.5424  156.6558 H   0  0  0  0  0  0  0  0  0  0  0  0
  151.6214  138.0076  154.3326 H   0  0  0  0  0  0  0  0  0  0  0  0
  151.1982  136.3073  154.3776 H   0  0  0  0  0  0  0  0  0  0  0  0
  151.4500  137.1896  155.8877 H   0  0  0  0  0  0  0  0  0  0  0  0
  148.4120  139.1737  155.6650 H   0  0  0  0  0  0  0  0  0  0  0  0
  149.9362  138.9573  156.4604 H   0  0  0  0  0  0  0  0  0  0  0  0
  151.0605  139.7769  154.2435 H   0  0  0  0  0  0  0  0  0  0  0  0
  149.6313  140.2088  152.7970 H   0  0  0  0  0  0  0  0  0  0  0  0
  150.8006  142.1599  154.9508 H   0  0  0  0  0  0  0  0  0  0  0  0
  149.4402  141.7255  155.9593 H   0  0  0  0  0  0  0  0  0  0  0  0
  152.1000  139.2095  156.0521 H   0  0  0  0  0  0  0  0  0  0  0  0
  153.6386  141.0916  160.3478 H   0  0  0  0  0  0  0  0  0  0  0  0
  153.4160  144.3727  161.4218 H   0  0  0  0  0  0  0  0  0  0  0  0
  153.6257  142.7321  162.0321 H   0  0  0  0  0  0  0  0  0  0  0  0
  152.0868  143.5591  162.2611 H   0  0  0  0  0  0  0  0  0  0  0  0
  150.1904  145.3405  159.2567 H   0  0  0  0  0  0  0  0  0  0  0  0
  151.7134  145.6446  160.0898 H   0  0  0  0  0  0  0  0  0  0  0  0
  150.3984  144.7994  160.9212 H   0  0  0  0  0  0  0  0  0  0  0  0
  150.2739  143.6056  157.6589 H   0  0  0  0  0  0  0  0  0  0  0  0
  1  2  1  0  0  0  0
  1 25  1  0  0  0  0
  1 26  1  0  0  0  0
  1 27  1  0  0  0  0
  2 24  1  0  0  0  0
  2  3  2  0  0  0  0
  3  4  1  0  0  0  0
  3 28  1  0  0  0  0
  4  5  1  0  0  0  0
  4 23  2  0  0  0  0
  5  6  1  0  0  0  0
  5 29  1  0  0  0  0
  5 30  1  0  0  0  0
  6  7  1  0  0  0  0
  6  8  1  0  0  0  0
  7 31  1  0  0  0  0
  7 32  1  0  0  0  0
  7 33  1  0  0  0  0
  8  9  1  0  0  0  0
  8 34  1  0  0  0  0
  8 35  1  0  0  0  0
  9 10  1  0  0  0  0
  9 11  1  0  0  0  0
  9 36  1  0  0  0  0
 10 37  1  0  0  0  0
 11 12  1  0  0  0  0
 11 38  1  0  0  0  0
 11 39  1  0  0  0  0
 12 22  1  0  0  0  0
 12 13  1  0  0  0  0
 13 14  2  0  0  0  0
 13 40  1  0  0  0  0
 14 15  1  0  0  0  0
 15 22  2  0  0  0  0
 15 16  1  0  0  0  0
 16 17  2  0  0  0  0
 16 41  1  0  0  0  0
 17 18  1  0  0  0  0
 17 19  1  0  0  0  0
 18 42  1  0  0  0  0
 18 43  1  0  0  0  0
 18 44  1  0  0  0  0
 19 20  1  0  0  0  0
 19 21  2  0  0  0  0
 20 45  1  0  0  0  0
 20 46  1  0  0  0  0
 20 47  1  0  0  0  0
 21 22  1  0  0  0  0
 21 48  1  0  0  0  0
 23 24  1  0  0  0  0
M  END
> <s_m_source_file>
AV-unprocessed.smi

> <i_m_source_file_index>
1209

> <i_lp_mmshare_version>
43012

> <i_f3d_flags>
0

> <s_epik_input>
W0NIM11jMVtjSF1jKG5vMSlbQ0gyXU4oW0NIM10pW0NIMl1bQ0BIXShbT0hdKVtDSDJdbihbY0hdbjIpYyhjMjMpW2NIXWMoW0NIM10pYyhbY0hdMylbQ0gzXQ==

> <s_epik_cmdline>
J2VwaWtfcHl0aG9uJywgJy1waCcsICc3LjAnLCAnLXRuJywgJzgnLCAnLW1hJywgJzIwMCcsICctbWV0YWxfYmluZGluZycsICctaW1hZScsICc8aW5maWxlLm1hZT4nLCAnLW9tYWUnLCAnPG91dGZpbGUubWFlPic=

> <r_epik_Ionization_Penalty>
0.103258

> <r_epik_Ionization_Penalty_Charging>
0

> <r_epik_Ionization_Penalty_Neutral>
0.103258

> <r_epik_State_Penalty>
0.0919675

> <r_epik_Charging_Adjusted_Penalty>
0.0919675

> <i_epik_Tot_Q>
0

> <i_epik_Tot_abs_Q>
0

> <r_epik_Metal_State_Penalty>
0.0812522

> <b_epik_Metal_Only>
0

> <s_lp_Force_Field>
OPLS_2005

> <r_lp_Energy>
16.8498

> <b_lp_Chiralities_Consistent>
1

> <s_lp_Variant>
AV-unprocessed.smi:1209-2

> <Gold.Version>
5.8.1

> <Gold.Id.Protein>
6NUR|6NUR_protein|mol2

> <Gold.PLP.Fitness>
49.1909

> <Gold.PLP.PLP>
-43.9498

> <Gold.PLP.part.hbond>
-2.6249

> <Gold.PLP.part.metal>
0.0000

> <Gold.PLP.part.buried>
-4.5945

> <Gold.PLP.part.nonpolar>
-37.0374

> <Gold.PLP.part.repulsive>
0.4365

> <Gold.PLP.ligand.clash>
0.0000

> <Gold.PLP.ligand.torsion>
0.4461

> <Gold.PLP.Chemscore.Hbond>
1.9920

> <Gold.PLP.Chemscore.CHOScore>
0.0000

> <Gold.PLP.Chemscore.Metal>
0.0000

> <Gold.Chemscore.Hbonds>
donor molecule, donor type, donor heavy atom, donor atom, acceptor molecule, acceptor atom, score
      L1  H    10    37       P1  7957  1.00
      P1  H  7997  8010       L1    14  0.93

> <Gold.PLP.Chemscore.Internal.Correction>
0.1573

> <Gold.Rescore>
     Score         DG    S(hbond)    S(metal)    S(lipo)     H(rot)  DE(clash)    DE(int)     intcor
     16.80     -18.72       1.62        0.00     120.43       2.45       0.12       1.80       ----

> <Gold.Chemscore.Fitness>
16.7990

> <Gold.Chemscore.DG>
-18.7178

> <Gold.Chemscore.ZeroCoef>
-5.4800

> <Gold.Chemscore.Hbond>
1.6196

> <Gold.Chemscore.Metal>
0.0000

> <Gold.Chemscore.Lipo>
120.4341

> <Gold.Chemscore.Internal_Hbond>
0.0000

> <Gold.Chemscore.DEClash>
0.1221

> <Gold.Chemscore.DEInternal>
1.7967

> <Gold.Chemscore.Rot>
2.4462

> <Gold.Chemscore.Internal.Correction>
   9.000000E+99

> <Gold.Chemscore.Hbonds>
donor molecule, donor type, donor heavy atom, donor atom, acceptor molecule, acceptor atom, score
      L1  H    10    37       P1  7957  0.97
      P1  H  7997  8010       L1    14  0.16

> <Gold.Chemscore.Hbond.Weighted>
-5.4093

> <Gold.Chemscore.Metal.Weighted>
-0.0000

> <Gold.Chemscore.Lipo.Weighted>
-14.0908

> <Gold.Chemscore.Internal_Hbond.Weighted>
0.0000

> <Gold.Chemscore.DEClash.Weighted>
0.1221

> <Gold.Chemscore.DEInternal.Weighted>
1.7967

> <Gold.Chemscore.Rot.Weighted>
6.2623

> <Gold.Chemscore.Internal.Correction.Weighted>
   9.000000E+99

> <Gold.Protein.RotatedTorsions>
[ 6907 6896 6895 6894 ] final  147.34 input  -60.11 | X-H torsion
[ 7974 7965 7964 7962 ] final -148.99 input  175.53 | X-H torsion
[ 8008 7997 7996 7995 ] final   30.31 input   59.86 | X-H torsion
[ 10167 10162 10161 10158 ] final  -95.45 input  -65.29 | X-H torsion
[ 10718 10713 10712 10709 ] final  -60.79 input   66.30 | X-H torsion
[ 10763 10752 10751 10750 ] final  -56.11 input  -60.55 | X-H torsion
[ 11005 11000 10999 10996 ] final  -84.28 input  -57.11 | X-H torsion

> <Gold.Protein.ActiveResidues>
 VAL166  LYS551  ARG553  GLY616  TRP617  ASP618  TYR619  PRO620  LYS621  CYS622 
 ASP623  PHE694  ASN695  SER759  ASP760  ASP761  ALA762  ILE779  LEU786  VAL792 
 PHE793  MET794  SER795  GLU796  ALA797  LYS798  CYS799  TRP800  GLU811  SER814 

> <Gold.Protein.RotatedAtoms>
  152.1561  133.4552  159.4837 H   0  0  0  0  0  0  0  0  0  0  0  0  # atno 6907 bound_to 6896
  150.6901  134.2129  159.4375 H   0  0  0  0  0  0  0  0  0  0  0  0  # atno 6908 bound_to 6896
  152.0029  134.9918  160.0616 H   0  0  0  0  0  0  0  0  0  0  0  0  # atno 6909 bound_to 6896
  144.7995  140.5124  143.5717 H   0  0  0  0  0  0  0  0  0  0  0  0  # atno 7974 bound_to 7965
  155.0883  140.3217  155.4581 H   0  0  0  0  0  0  0  0  0  0  0  0  # atno 8008 bound_to 7997
  156.2749  140.2082  156.5957 H   0  0  0  0  0  0  0  0  0  0  0  0  # atno 8009 bound_to 7997
  154.6923  140.0515  157.0363 H   0  0  0  0  0  0  0  0  0  0  0  0  # atno 8010 bound_to 7997
  140.3040  143.3145  152.0218 H   0  0  0  0  0  0  0  0  0  0  0  0  # atno 10167 bound_to 10162
  156.0966  130.4192  150.0904 H   0  0  0  0  0  0  0  0  0  0  0  0  # atno 10718 bound_to 10713
  154.2014  135.6410  153.5088 H   0  0  0  0  0  0  0  0  0  0  0  0  # atno 10763 bound_to 10752
  153.0011  135.5452  154.6311 H   0  0  0  0  0  0  0  0  0  0  0  0  # atno 10764 bound_to 10752
  154.5725  135.2918  155.0786 H   0  0  0  0  0  0  0  0  0  0  0  0  # atno 10765 bound_to 10752
  141.1652  133.7337  156.8844 H   0  0  0  0  0  0  0  0  0  0  0  0  # atno 11005 bound_to 11000
  145.5589  139.1479  143.3352 LP  0  0  0  0  0  0  0  0  0  0  0  0  # atno 17320 bound_to 7965
  146.2273  140.5725  142.8991 LP  0  0  0  0  0  0  0  0  0  0  0  0  # atno 17321 bound_to 7965
  139.4908  144.6435  151.6828 LP  0  0  0  0  0  0  0  0  0  0  0  0  # atno 17342 bound_to 10162
  140.5626  144.0243  150.6177 LP  0  0  0  0  0  0  0  0  0  0  0  0  # atno 17343 bound_to 10162
  156.8901  130.9585  151.3589 LP  0  0  0  0  0  0  0  0  0  0  0  0  # atno 17370 bound_to 10713
  157.6128  130.8596  149.8979 LP  0  0  0  0  0  0  0  0  0  0  0  0  # atno 17371 bound_to 10713
  140.1692  134.9112  157.2812 LP  0  0  0  0  0  0  0  0  0  0  0  0  # atno 17394 bound_to 11000
  140.2521  134.3670  155.7438 LP  0  0  0  0  0  0  0  0  0  0  0  0  # atno 17395 bound_to 11000

$$$$
