AV-unprocessed.smi:384|AV-procd|sdf|2467|dock4
  -GOLD-   2262022403D 1   1.00000     0.00000
 Structure written by MMmdl.
 32 33  0  0  0  0  0  0  0  0  2 V2000
  151.5745  143.5384  157.5784 C   0  0  0  0  0  0  0  0  0  0  0  0
  150.8690  142.6538  158.6213 C   0  0  1  0  0  0  0  0  0  0  0  0
  151.2759  141.1687  158.5444 C   0  0  0  0  0  0  0  0  0  0  0  0
  152.6124  140.9720  159.0897 N   0  0  0  0  0  0  0  0  0  0  0  0
  153.0880  139.6632  158.9295 C   0  0  0  0  0  0  0  0  0  0  0  0
  153.0402  138.7806  160.0272 C   0  0  0  0  0  0  0  0  0  0  0  0
  153.5164  137.4660  159.8605 C   0  0  0  0  0  0  0  0  0  0  0  0
  154.0284  137.0733  158.6037 C   0  0  0  0  0  0  0  0  0  0  0  0
  154.5457  135.6809  158.3751 C   0  0  0  0  0  0  0  0  0  0  0  0
  154.3918  134.8248  159.2743 O   0  0  0  0  0  0  0  0  0  0  0  0
  155.1155  135.4203  157.2920 O   0  5  0  0  0  0  0  0  0  0  0  0
  154.0357  138.0370  157.5694 C   0  0  0  0  0  0  0  0  0  0  0  0
  153.5789  139.2992  157.7213 N   0  0  0  0  0  0  0  0  0  0  0  0
  152.7337  141.4784  160.4494 C   0  0  0  0  0  0  0  0  0  0  0  0
  152.3612  142.9710  160.4871 C   0  0  2  0  0  0  0  0  0  0  0  0
  152.3722  143.5277  161.9144 C   0  0  0  0  0  0  0  0  0  0  0  0
  151.0482  143.1463  159.9526 O   0  0  0  0  0  0  0  0  0  0  0  0
  151.3234  143.2176  156.5671 H   0  0  0  0  0  0  0  0  0  0  0  0
  152.6598  143.5003  157.6688 H   0  0  0  0  0  0  0  0  0  0  0  0
  151.2660  144.5790  157.6800 H   0  0  0  0  0  0  0  0  0  0  0  0
  149.8002  142.7156  158.4150 H   0  0  0  0  0  0  0  0  0  0  0  0
  150.5661  140.5681  159.1154 H   0  0  0  0  0  0  0  0  0  0  0  0
  151.2341  140.8148  157.5134 H   0  0  0  0  0  0  0  0  0  0  0  0
  152.6438  139.1007  160.9796 H   0  0  0  0  0  0  0  0  0  0  0  0
  153.4833  136.7775  160.6924 H   0  0  0  0  0  0  0  0  0  0  0  0
  154.4156  137.7997  156.5863 H   0  0  0  0  0  0  0  0  0  0  0  0
  152.0771  140.9130  161.1125 H   0  0  0  0  0  0  0  0  0  0  0  0
  153.7546  141.3354  160.8066 H   0  0  0  0  0  0  0  0  0  0  0  0
  153.0777  143.5420  159.8962 H   0  0  0  0  0  0  0  0  0  0  0  0
  153.3577  143.4225  162.3687 H   0  0  0  0  0  0  0  0  0  0  0  0
  151.6537  143.0057  162.5472 H   0  0  0  0  0  0  0  0  0  0  0  0
  152.1143  144.5870  161.9209 H   0  0  0  0  0  0  0  0  0  0  0  0
  1  2  1  0  0  0  0
  1 18  1  0  0  0  0
  1 19  1  0  0  0  0
  1 20  1  0  0  0  0
  2 17  1  0  0  0  0
  2  3  1  0  0  0  0
  2 21  1  0  0  0  0
  3  4  1  0  0  0  0
  3 22  1  0  0  0  0
  3 23  1  0  0  0  0
  4  5  1  0  0  0  0
  4 14  1  0  0  0  0
  5 13  1  0  0  0  0
  5  6  2  0  0  0  0
  6  7  1  0  0  0  0
  6 24  1  0  0  0  0
  7  8  2  0  0  0  0
  7 25  1  0  0  0  0
  8  9  1  0  0  0  0
  8 12  1  0  0  0  0
  9 10  2  0  0  0  0
  9 11  1  0  0  0  0
 12 13  2  0  0  0  0
 12 26  1  0  0  0  0
 14 15  1  0  0  0  0
 14 27  1  0  0  0  0
 14 28  1  0  0  0  0
 15 16  1  0  0  0  0
 15 17  1  0  0  0  0
 15 29  1  0  0  0  0
 16 30  1  0  0  0  0
 16 31  1  0  0  0  0
 16 32  1  0  0  0  0
M  CHG  1  11  -1
M  END
> <s_m_source_file>
AV-unprocessed.smi

> <i_m_source_file_index>
384

> <i_lp_mmshare_version>
43012

> <i_f3d_flags>
0

> <s_epik_input>
W0NIM11bQ0BASF0xW0NIMl1OKFtDSDJdW0NASF0oTzEpW0NIM10pYzJbY0hdW2NIXWMoW2NIXW4yKUMoPU8pW09IXQ==

> <s_epik_cmdline>
J2VwaWtfcHl0aG9uJywgJy1waCcsICc3LjAnLCAnLXRuJywgJzgnLCAnLW1hJywgJzIwMCcsICctbWV0YWxfYmluZGluZycsICctaW1hZScsICc8aW5maWxlLm1hZT4nLCAnLW9tYWUnLCAnPG91dGZpbGUubWFlPic=

> <r_epik_Ionization_Penalty>
0.0114922

> <r_epik_Ionization_Penalty_Charging>
0.000195896

> <r_epik_Ionization_Penalty_Neutral>
0.0112963

> <r_epik_State_Penalty>
0.00868573

> <r_epik_Charging_Adjusted_Penalty>
0.00888162

> <i_epik_Tot_Q>
-1

> <i_epik_Tot_abs_Q>
1

> <r_epik_Metal_State_Penalty>
8.74964e-06

> <b_epik_Metal_Only>
0

> <s_lp_Force_Field>
OPLS_2005

> <r_lp_Energy>
19.6652

> <b_lp_Chiralities_Consistent>
1

> <s_lp_Variant>
AV-unprocessed.smi:384-3

> <Gold.Version>
5.8.1

> <Gold.Id.Protein>
6NUR|6NUR_protein|mol2

> <Gold.PLP.Fitness>
42.2979

> <Gold.PLP.PLP>
-28.6263

> <Gold.PLP.part.hbond>
-3.8923

> <Gold.PLP.part.metal>
0.0000

> <Gold.PLP.part.buried>
-3.5703

> <Gold.PLP.part.nonpolar>
-21.3953

> <Gold.PLP.part.repulsive>
0.0307

> <Gold.PLP.ligand.clash>
0.0781

> <Gold.PLP.ligand.torsion>
0.6603

> <Gold.PLP.Chemscore.Hbond>
4.9913

> <Gold.PLP.Chemscore.CHOScore>
0.0000

> <Gold.PLP.Chemscore.Metal>
0.0000

> <Gold.Chemscore.Hbonds>
donor molecule, donor type, donor heavy atom, donor atom, acceptor molecule, acceptor atom, score
      P1  H  6896  6908       L1    10  2.00
      P1  H  7997  8010       L1    13  0.76
      P1  H 10752 10764       L1    11  1.50

> <Gold.PLP.Chemscore.Internal.Correction>
0.0965

> <Gold.Rescore>
     Score         DG    S(hbond)    S(metal)    S(lipo)     H(rot)  DE(clash)    DE(int)     intcor
     20.34     -21.02       2.66        0.00      78.76       1.00       0.15       0.53       ----

> <Gold.Chemscore.Fitness>
20.3401

> <Gold.Chemscore.DG>
-21.0211

> <Gold.Chemscore.ZeroCoef>
-5.4800

> <Gold.Chemscore.Hbond>
2.6606

> <Gold.Chemscore.Metal>
0.0000

> <Gold.Chemscore.Lipo>
78.7576

> <Gold.Chemscore.Internal_Hbond>
0.0000

> <Gold.Chemscore.DEClash>
0.1490

> <Gold.Chemscore.DEInternal>
0.5320

> <Gold.Chemscore.Rot>
1.0000

> <Gold.Chemscore.Internal.Correction>
   9.000000E+99

> <Gold.Chemscore.Hbonds>
donor molecule, donor type, donor heavy atom, donor atom, acceptor molecule, acceptor atom, score
      P1  H  6896  6908       L1    10  0.97
      P1  H  7997  8010       L1    13  0.22
      P1  H 10752 10764       L1    11  0.75

> <Gold.Chemscore.Hbond.Weighted>
-8.8864

> <Gold.Chemscore.Metal.Weighted>
-0.0000

> <Gold.Chemscore.Lipo.Weighted>
-9.2146

> <Gold.Chemscore.Internal_Hbond.Weighted>
0.0000

> <Gold.Chemscore.DEClash.Weighted>
0.1490

> <Gold.Chemscore.DEInternal.Weighted>
0.5320

> <Gold.Chemscore.Rot.Weighted>
2.5600

> <Gold.Chemscore.Internal.Correction.Weighted>
   9.000000E+99

> <Gold.Protein.RotatedTorsions>
[ 6907 6896 6895 6894 ] final  -33.54 input  -60.11 | X-H torsion
[ 7974 7965 7964 7962 ] final   27.25 input  175.53 | X-H torsion
[ 8008 7997 7996 7995 ] final   42.15 input   59.86 | X-H torsion
[ 10167 10162 10161 10158 ] final  141.95 input  -65.29 | X-H torsion
[ 10718 10713 10712 10709 ] final  156.17 input   66.30 | X-H torsion
[ 10763 10752 10751 10750 ] final   49.20 input  -60.55 | X-H torsion
[ 11005 11000 10999 10996 ] final -130.23 input  -57.11 | X-H torsion

> <Gold.Protein.ActiveResidues>
 VAL166  LYS551  ARG553  GLY616  TRP617  ASP618  TYR619  PRO620  LYS621  CYS622 
 ASP623  PHE694  ASN695  SER759  ASP760  ASP761  ALA762  ILE779  LEU786  VAL792 
 PHE793  MET794  SER795  GLU796  ALA797  LYS798  CYS799  TRP800  GLU811  SER814 

> <Gold.Protein.RotatedAtoms>
  151.0643  134.9757  159.8276 H   0  0  0  0  0  0  0  0  0  0  0  0  # atno 6907 bound_to 6896
  152.5400  134.2378  159.8860 H   0  0  0  0  0  0  0  0  0  0  0  0  # atno 6908 bound_to 6896
  151.2400  133.4361  159.2640 H   0  0  0  0  0  0  0  0  0  0  0  0  # atno 6909 bound_to 6896
  146.1794  139.7217  142.8911 H   0  0  0  0  0  0  0  0  0  0  0  0  # atno 7974 bound_to 7965
  155.2814  140.3372  155.4258 H   0  0  0  0  0  0  0  0  0  0  0  0  # atno 8008 bound_to 7997
  156.2088  140.1761  156.7782 H   0  0  0  0  0  0  0  0  0  0  0  0  # atno 8009 bound_to 7997
  154.5657  140.0679  156.8873 H   0  0  0  0  0  0  0  0  0  0  0  0  # atno 8010 bound_to 7997
  139.5007  144.6138  151.6210 H   0  0  0  0  0  0  0  0  0  0  0  0  # atno 10167 bound_to 10162
  157.2086  131.0692  151.1983 H   0  0  0  0  0  0  0  0  0  0  0  0  # atno 10718 bound_to 10713
  152.9788  135.5919  154.4050 H   0  0  0  0  0  0  0  0  0  0  0  0  # atno 10763 bound_to 10752
  154.3692  135.2767  155.2278 H   0  0  0  0  0  0  0  0  0  0  0  0  # atno 10764 bound_to 10752
  154.4241  135.6052  153.6083 H   0  0  0  0  0  0  0  0  0  0  0  0  # atno 10765 bound_to 10752
  140.9363  134.1252  157.4190 H   0  0  0  0  0  0  0  0  0  0  0  0  # atno 11005 bound_to 11000
  145.4119  141.0397  143.3012 LP  0  0  0  0  0  0  0  0  0  0  0  0  # atno 17320 bound_to 7965
  144.8290  139.5661  143.6952 LP  0  0  0  0  0  0  0  0  0  0  0  0  # atno 17321 bound_to 7965
  140.5821  143.9928  150.6274 LP  0  0  0  0  0  0  0  0  0  0  0  0  # atno 17342 bound_to 10162
  140.3081  143.3216  152.0906 LP  0  0  0  0  0  0  0  0  0  0  0  0  # atno 17343 bound_to 10162
  157.3695  130.7174  149.6555 LP  0  0  0  0  0  0  0  0  0  0  0  0  # atno 17370 bound_to 10713
  155.9693  130.4203  150.4414 LP  0  0  0  0  0  0  0  0  0  0  0  0  # atno 17371 bound_to 10713
  139.8809  135.0022  156.6112 LP  0  0  0  0  0  0  0  0  0  0  0  0  # atno 17394 bound_to 11000
  140.7794  133.8672  155.8555 LP  0  0  0  0  0  0  0  0  0  0  0  0  # atno 17395 bound_to 11000

$$$$
