AV-unprocessed.smi:1493|AV-procd|sdf|6049|dock10
  -GOLD-   22720 6163D 1   1.00000     0.00000
 Structure written by MMmdl.
 33 33  0  0  0  0  0  0  0  0  2 V2000
  146.4136  142.6173  154.2144 C   0  0  0  0  0  0  0  0  0  0  0  0
  146.4863  141.4885  155.2485 C   0  0  0  0  0  0  0  0  0  0  0  0
  147.4657  141.8001  156.3937 C   0  0  0  0  0  0  0  0  0  0  0  0
  148.9251  141.4108  156.0884 C   0  0  1  0  0  0  0  0  0  0  0  0
  149.1755  141.2881  154.5789 C   0  0  0  0  0  0  0  0  0  0  0  0
  149.8459  142.3972  156.6505 N   0  0  0  0  0  0  0  0  0  0  0  0
  150.8717  142.1415  157.4777 C   0  0  0  0  0  0  0  0  0  0  0  0
  151.1619  141.0085  157.8658 O   0  0  0  0  0  0  0  0  0  0  0  0
  151.6776  143.3711  157.9260 C   0  0  0  0  0  0  0  0  0  0  0  0
  152.0720  143.3514  159.3419 N   0  0  0  0  0  0  0  0  0  0  0  0
  152.8935  142.2010  159.7085 N   0  5  0  0  0  0  0  0  0  0  0  0
  153.3373  142.0850  160.9882 C   0  0  0  0  0  0  0  0  0  0  0  0
  154.0453  141.1545  161.3662 O   0  0  0  0  0  0  0  0  0  0  0  0
  152.9476  143.1089  161.9432 C   0  0  0  0  0  0  0  0  0  0  0  0
  152.1706  144.1490  161.5817 C   0  0  0  0  0  0  0  0  0  0  0  0
  151.6776  144.3174  160.2200 C   0  0  0  0  0  0  0  0  0  0  0  0
  150.9624  145.2617  159.8842 O   0  0  0  0  0  0  0  0  0  0  0  0
  145.7119  142.3686  153.4180 H   0  0  0  0  0  0  0  0  0  0  0  0
  147.3867  142.7955  153.7564 H   0  0  0  0  0  0  0  0  0  0  0  0
  146.0814  143.5496  154.6716 H   0  0  0  0  0  0  0  0  0  0  0  0
  145.4871  141.3112  155.6477 H   0  0  0  0  0  0  0  0  0  0  0  0
  146.7864  140.5653  154.7513 H   0  0  0  0  0  0  0  0  0  0  0  0
  147.4245  142.8688  156.6084 H   0  0  0  0  0  0  0  0  0  0  0  0
  147.1341  141.2957  157.3025 H   0  0  0  0  0  0  0  0  0  0  0  0
  149.1065  140.4297  156.5302 H   0  0  0  0  0  0  0  0  0  0  0  0
  148.5137  140.5463  154.1312 H   0  0  0  0  0  0  0  0  0  0  0  0
  150.2011  140.9786  154.3753 H   0  0  0  0  0  0  0  0  0  0  0  0
  149.0054  142.2368  154.0684 H   0  0  0  0  0  0  0  0  0  0  0  0
  149.6871  143.3604  156.3931 H   0  0  0  0  0  0  0  0  0  0  0  0
  152.5652  143.4576  157.2968 H   0  0  0  0  0  0  0  0  0  0  0  0
  151.0852  144.2634  157.7145 H   0  0  0  0  0  0  0  0  0  0  0  0
  153.2872  143.0323  162.9657 H   0  0  0  0  0  0  0  0  0  0  0  0
  151.9047  144.8860  162.3245 H   0  0  0  0  0  0  0  0  0  0  0  0
  1  2  1  0  0  0  0
  1 18  1  0  0  0  0
  1 19  1  0  0  0  0
  1 20  1  0  0  0  0
  2  3  1  0  0  0  0
  2 21  1  0  0  0  0
  2 22  1  0  0  0  0
  3  4  1  0  0  0  0
  3 23  1  0  0  0  0
  3 24  1  0  0  0  0
  4  5  1  0  0  0  0
  4  6  1  0  0  0  0
  4 25  1  0  0  0  0
  5 26  1  0  0  0  0
  5 27  1  0  0  0  0
  5 28  1  0  0  0  0
  6  7  1  0  0  0  0
  6 29  1  0  0  0  0
  7  8  2  0  0  0  0
  7  9  1  0  0  0  0
  9 30  1  0  0  0  0
  9 31  1  0  0  0  0
  9 10  1  0  0  0  0
 10 11  1  0  0  0  0
 10 16  1  0  0  0  0
 11 12  1  0  0  0  0
 12 13  2  0  0  0  0
 12 14  1  0  0  0  0
 14 32  1  0  0  0  0
 14 15  2  0  0  0  0
 15 33  1  0  0  0  0
 15 16  1  0  0  0  0
 16 17  2  0  0  0  0
M  CHG  1  11  -1
M  END
> <s_m_source_file>
AV-unprocessed.smi

> <i_m_source_file_index>
1493

> <i_lp_mmshare_version>
43012

> <i_f3d_flags>
0

> <s_epik_input>
W0NIM11bQ0gyXVtDSDJdW0NASF0oW0NIM10pW05IXUMoPU8pW0NIMl1uMVtuSF1jKD1PKVtjSF1bY0hdYzE9Tw==

> <s_epik_cmdline>
J2VwaWtfcHl0aG9uJywgJy1waCcsICc3LjAnLCAnLXRuJywgJzgnLCAnLW1hJywgJzIwMCcsICctbWV0YWxfYmluZGluZycsICctaW1hZScsICc8aW5maWxlLm1hZT4nLCAnLW9tYWUnLCAnPG91dGZpbGUubWFlPic=

> <r_lp_tautomer_probability>
1

> <r_epik_Ionization_Penalty>
0.0986298

> <r_epik_Ionization_Penalty_Charging>
0.0986298

> <r_epik_Ionization_Penalty_Neutral>
1.93017e-08

> <r_epik_State_Penalty>
0.0347731

> <r_epik_Charging_Adjusted_Penalty>
0.133403

> <i_epik_Tot_Q>
-1

> <i_epik_Tot_abs_Q>
1

> <r_epik_Metal_State_Penalty>
0.0347731

> <b_epik_Metal_Only>
0

> <s_lp_Force_Field>
OPLS_2005

> <r_lp_Energy>
19.264

> <b_lp_Chiralities_Consistent>
1

> <s_lp_Variant>
AV-unprocessed.smi:1493-2

> <Gold.Version>
5.8.1

> <Gold.Id.Protein>
6NUR|6NUR_protein|mol2

> <Gold.PLP.Fitness>
40.1768

> <Gold.PLP.PLP>
-39.1710

> <Gold.PLP.part.hbond>
-1.0000

> <Gold.PLP.part.metal>
0.0000

> <Gold.PLP.part.buried>
-5.0358

> <Gold.PLP.part.nonpolar>
-31.6327

> <Gold.PLP.part.repulsive>
0.2264

> <Gold.PLP.ligand.clash>
0.0000

> <Gold.PLP.ligand.torsion>
1.0070

> <Gold.PLP.Chemscore.Hbond>
1.0000

> <Gold.PLP.Chemscore.CHOScore>
0.0000

> <Gold.PLP.Chemscore.Metal>
0.0000

> <Gold.Chemscore.Hbonds>
donor molecule, donor type, donor heavy atom, donor atom, acceptor molecule, acceptor atom, score
      L1  H     6    29       P1  8028  1.00

> <Gold.PLP.Chemscore.Internal.Correction>
0.0197

> <Gold.Rescore>
     Score         DG    S(hbond)    S(metal)    S(lipo)     H(rot)  DE(clash)    DE(int)     intcor
      8.55     -10.33       0.99        0.00      59.91       2.14       0.08       1.69       ----

> <Gold.Chemscore.Fitness>
8.5544

> <Gold.Chemscore.DG>
-10.3268

> <Gold.Chemscore.ZeroCoef>
-5.4800

> <Gold.Chemscore.Hbond>
0.9907

> <Gold.Chemscore.Metal>
0.0000

> <Gold.Chemscore.Lipo>
59.9070

> <Gold.Chemscore.Internal_Hbond>
0.0000

> <Gold.Chemscore.DEClash>
0.0821

> <Gold.Chemscore.DEInternal>
1.6903

> <Gold.Chemscore.Rot>
2.1372

> <Gold.Chemscore.Internal.Correction>
   9.000000E+99

> <Gold.Chemscore.Hbonds>
donor molecule, donor type, donor heavy atom, donor atom, acceptor molecule, acceptor atom, score
      L1  H     6    29       P1  8028  0.99

> <Gold.Chemscore.Hbond.Weighted>
-3.3090

> <Gold.Chemscore.Metal.Weighted>
-0.0000

> <Gold.Chemscore.Lipo.Weighted>
-7.0091

> <Gold.Chemscore.Internal_Hbond.Weighted>
0.0000

> <Gold.Chemscore.DEClash.Weighted>
0.0821

> <Gold.Chemscore.DEInternal.Weighted>
1.6903

> <Gold.Chemscore.Rot.Weighted>
5.4713

> <Gold.Chemscore.Internal.Correction.Weighted>
   9.000000E+99

> <Gold.Protein.RotatedTorsions>
[ 6907 6896 6895 6894 ] final   36.88 input  -60.11 | X-H torsion
[ 7974 7965 7964 7962 ] final  -10.11 input  175.53 | X-H torsion
[ 8008 7997 7996 7995 ] final  -84.29 input   59.86 | X-H torsion
[ 10167 10162 10161 10158 ] final -144.21 input  -65.29 | X-H torsion
[ 10718 10713 10712 10709 ] final  -97.48 input   66.30 | X-H torsion
[ 10763 10752 10751 10750 ] final -148.79 input  -60.55 | X-H torsion
[ 11005 11000 10999 10996 ] final  -28.28 input  -57.11 | X-H torsion

> <Gold.Protein.ActiveResidues>
 VAL166  LYS551  ARG553  GLY616  TRP617  ASP618  TYR619  PRO620  LYS621  CYS622 
 ASP623  PHE694  ASN695  SER759  ASP760  ASP761  ALA762  ILE779  LEU786  VAL792 
 PHE793  MET794  SER795  GLU796  ALA797  LYS798  CYS799  TRP800  GLU811  SER814 

> <Gold.Protein.RotatedAtoms>
  152.1357  134.9101  160.0556 H   0  0  0  0  0  0  0  0  0  0  0  0  # atno 6907 bound_to 6896
  152.0188  133.3885  159.4258 H   0  0  0  0  0  0  0  0  0  0  0  0  # atno 6908 bound_to 6896
  150.6860  134.3570  159.4977 H   0  0  0  0  0  0  0  0  0  0  0  0  # atno 6909 bound_to 6896
  146.2231  140.2716  142.8357 H   0  0  0  0  0  0  0  0  0  0  0  0  # atno 7974 bound_to 7965
  154.6282  140.0607  156.9699 H   0  0  0  0  0  0  0  0  0  0  0  0  # atno 8008 bound_to 7997
  155.1708  140.3291  155.4375 H   0  0  0  0  0  0  0  0  0  0  0  0  # atno 8009 bound_to 7997
  156.2469  140.1914  156.6810 H   0  0  0  0  0  0  0  0  0  0  0  0  # atno 8010 bound_to 7997
  139.7920  143.7952  152.2651 H   0  0  0  0  0  0  0  0  0  0  0  0  # atno 10167 bound_to 10162
  156.0085  130.5196  150.6381 H   0  0  0  0  0  0  0  0  0  0  0  0  # atno 10718 bound_to 10713
  154.8213  135.3325  154.7028 H   0  0  0  0  0  0  0  0  0  0  0  0  # atno 10763 bound_to 10752
  153.7661  135.6929  153.4920 H   0  0  0  0  0  0  0  0  0  0  0  0  # atno 10764 bound_to 10752
  153.2077  135.4493  155.0291 H   0  0  0  0  0  0  0  0  0  0  0  0  # atno 10765 bound_to 10752
  140.9195  133.7408  156.0781 H   0  0  0  0  0  0  0  0  0  0  0  0  # atno 11005 bound_to 11000
  144.9264  140.7926  143.5716 LP  0  0  0  0  0  0  0  0  0  0  0  0  # atno 17320 bound_to 7965
  145.2656  139.1975  143.4869 LP  0  0  0  0  0  0  0  0  0  0  0  0  # atno 17321 bound_to 7965
  139.8047  144.7360  150.9778 LP  0  0  0  0  0  0  0  0  0  0  0  0  # atno 17342 bound_to 10162
  140.7820  143.4310  151.0694 LP  0  0  0  0  0  0  0  0  0  0  0  0  # atno 17343 bound_to 10162
  157.4167  131.0831  151.1170 LP  0  0  0  0  0  0  0  0  0  0  0  0  # atno 17370 bound_to 10713
  157.1785  130.6299  149.5664 LP  0  0  0  0  0  0  0  0  0  0  0  0  # atno 17371 bound_to 10713
  140.8007  134.3512  157.5440 LP  0  0  0  0  0  0  0  0  0  0  0  0  # atno 17394 bound_to 11000
  139.8772  134.9196  156.3230 LP  0  0  0  0  0  0  0  0  0  0  0  0  # atno 17395 bound_to 11000

$$$$
