AV-unprocessed.smi:1679|AV-procd|sdf|6734|dock3
  -GOLD-   22720 7483D 1   1.00000     0.00000
 Structure written by MMmdl.
 44 45  0  0  0  0  0  0  0  0  2 V2000
  151.9859  144.6262  157.5105 C   0  0  0  0  0  0  0  0  0  0  0  0
  152.5127  144.1783  158.8818 C   0  0  1  0  0  0  0  0  0  0  0  0
  151.6270  144.6930  160.0331 C   0  0  0  0  0  0  0  0  0  0  0  0
  152.2040  144.3026  161.4027 C   0  0  0  0  0  0  0  0  0  0  0  0
  152.4023  142.7832  161.5087 C   0  0  0  0  0  0  0  0  0  0  0  0
  153.2723  142.2505  160.3573 C   0  0  0  0  0  0  0  0  0  0  0  0
  152.7111  142.6466  158.9787 C   0  0  1  0  0  0  0  0  0  0  0  0
  151.4678  141.9729  158.8090 O   0  0  0  0  0  0  0  0  0  0  0  0
  151.5577  140.7455  158.1018 C   0  0  0  0  0  0  0  0  0  0  0  0
  151.2952  140.9976  156.6088 C   0  0  0  0  0  0  0  0  0  0  0  0
  151.0041  139.7668  155.8804 N   0  0  0  0  0  0  0  0  0  0  0  0
  151.8807  139.0833  155.1294 C   0  0  0  0  0  0  0  0  0  0  0  0
  153.0535  139.4271  154.9788 O   0  0  0  0  0  0  0  0  0  0  0  0
  151.3649  137.7962  154.4749 C   0  0  0  0  0  0  0  0  0  0  0  0
  150.8463  136.8446  155.4694 N   0  0  0  0  0  0  0  0  0  0  0  0
  149.4874  136.4917  155.3931 C   0  0  0  0  0  0  0  0  0  0  0  0
  148.9222  135.6466  156.2762 C   0  0  0  0  0  0  0  0  0  0  0  0
  149.7588  135.0926  157.3336 C   0  0  0  0  0  0  0  0  0  0  0  0
  149.2593  134.3216  158.1507 O   0  0  0  0  0  0  0  0  0  0  0  0
  151.0723  135.4625  157.3632 N   0  5  0  0  0  0  0  0  0  0  0  0
  151.6332  136.3222  156.4574 C   0  0  0  0  0  0  0  0  0  0  0  0
  152.8210  136.6426  156.5029 O   0  0  0  0  0  0  0  0  0  0  0  0
  150.9915  144.2268  157.3169 H   0  0  0  0  0  0  0  0  0  0  0  0
  152.6421  144.2911  156.7073 H   0  0  0  0  0  0  0  0  0  0  0  0
  151.9188  145.7129  157.4513 H   0  0  0  0  0  0  0  0  0  0  0  0
  153.4950  144.6380  159.0007 H   0  0  0  0  0  0  0  0  0  0  0  0
  151.5276  145.7772  159.9732 H   0  0  0  0  0  0  0  0  0  0  0  0
  150.6202  144.2859  159.9357 H   0  0  0  0  0  0  0  0  0  0  0  0
  153.1582  144.8084  161.5545 H   0  0  0  0  0  0  0  0  0  0  0  0
  151.5412  144.6474  162.1966 H   0  0  0  0  0  0  0  0  0  0  0  0
  152.8607  142.5346  162.4660 H   0  0  0  0  0  0  0  0  0  0  0  0
  151.4309  142.2875  161.4945 H   0  0  0  0  0  0  0  0  0  0  0  0
  154.2844  142.6436  160.4609 H   0  0  0  0  0  0  0  0  0  0  0  0
  153.3573  141.1656  160.4269 H   0  0  0  0  0  0  0  0  0  0  0  0
  153.4308  142.3289  158.2214 H   0  0  0  0  0  0  0  0  0  0  0  0
  152.5343  140.2831  158.2472 H   0  0  0  0  0  0  0  0  0  0  0  0
  150.8138  140.0495  158.4915 H   0  0  0  0  0  0  0  0  0  0  0  0
  150.4671  141.6971  156.4873 H   0  0  0  0  0  0  0  0  0  0  0  0
  152.1675  141.4675  156.1539 H   0  0  0  0  0  0  0  0  0  0  0  0
  150.0599  139.4140  155.9408 H   0  0  0  0  0  0  0  0  0  0  0  0
  150.5770  138.0654  153.7705 H   0  0  0  0  0  0  0  0  0  0  0  0
  152.1457  137.3394  153.8638 H   0  0  0  0  0  0  0  0  0  0  0  0
  148.9385  136.9530  154.5852 H   0  0  0  0  0  0  0  0  0  0  0  0
  147.8759  135.3884  156.2063 H   0  0  0  0  0  0  0  0  0  0  0  0
  1  2  1  0  0  0  0
  1 23  1  0  0  0  0
  1 24  1  0  0  0  0
  1 25  1  0  0  0  0
  2  7  1  0  0  0  0
  2  3  1  0  0  0  0
  2 26  1  0  0  0  0
  3  4  1  0  0  0  0
  3 27  1  0  0  0  0
  3 28  1  0  0  0  0
  4  5  1  0  0  0  0
  4 29  1  0  0  0  0
  4 30  1  0  0  0  0
  5  6  1  0  0  0  0
  5 31  1  0  0  0  0
  5 32  1  0  0  0  0
  6  7  1  0  0  0  0
  6 33  1  0  0  0  0
  6 34  1  0  0  0  0
  7  8  1  0  0  0  0
  7 35  1  0  0  0  0
  8  9  1  0  0  0  0
  9 10  1  0  0  0  0
  9 36  1  0  0  0  0
  9 37  1  0  0  0  0
 10 11  1  0  0  0  0
 10 38  1  0  0  0  0
 10 39  1  0  0  0  0
 11 12  1  0  0  0  0
 11 40  1  0  0  0  0
 12 13  2  0  0  0  0
 12 14  1  0  0  0  0
 14 15  1  0  0  0  0
 14 41  1  0  0  0  0
 14 42  1  0  0  0  0
 15 21  1  0  0  0  0
 15 16  1  0  0  0  0
 16 17  2  0  0  0  0
 16 43  1  0  0  0  0
 17 18  1  0  0  0  0
 17 44  1  0  0  0  0
 18 19  2  0  0  0  0
 18 20  1  0  0  0  0
 20 21  1  0  0  0  0
 21 22  2  0  0  0  0
M  CHG  1  20  -1
M  END
> <s_m_source_file>
AV-unprocessed.smi

> <i_m_source_file_index>
1679

> <i_lp_mmshare_version>
43012

> <i_f3d_flags>
0

> <s_epik_input>
W0NIM11bQ0BASF0xW0NIMl1bQ0gyXVtDSDJdW0NIMl1bQ0BIXTFPW0NIMl1bQ0gyXVtOSF1DKD1PKVtDSDJdbjJbY0hdW2NIXWMoPU8pW25IXWMyPU8=

> <s_epik_cmdline>
J2VwaWtfcHl0aG9uJywgJy1waCcsICc3LjAnLCAnLXRuJywgJzgnLCAnLW1hJywgJzIwMCcsICctbWV0YWxfYmluZGluZycsICctaW1hZScsICc8aW5maWxlLm1hZT4nLCAnLW9tYWUnLCAnPG91dGZpbGUubWFlPic=

> <r_lp_tautomer_probability>
0.999537

> <r_epik_Ionization_Penalty>
3.07454

> <r_epik_Ionization_Penalty_Charging>
2.80088e-08

> <r_epik_Ionization_Penalty_Neutral>
3.07454

> <r_epik_State_Penalty>
3.07357

> <r_epik_Charging_Adjusted_Penalty>
3.07357

> <i_epik_Tot_Q>
-1

> <i_epik_Tot_abs_Q>
1

> <r_epik_Metal_State_Penalty>
0.45948

> <b_epik_Metal_Only>
1

> <s_lp_Force_Field>
OPLS_2005

> <r_lp_Energy>
19.3996

> <b_lp_Chiralities_Consistent>
1

> <s_lp_Variant>
AV-unprocessed.smi:1679-6

> <Gold.Version>
5.8.1

> <Gold.Id.Protein>
6NUR|6NUR_protein|mol2

> <Gold.PLP.Fitness>
56.5238

> <Gold.PLP.PLP>
-49.2808

> <Gold.PLP.part.hbond>
-4.7804

> <Gold.PLP.part.metal>
0.0000

> <Gold.PLP.part.buried>
-6.8093

> <Gold.PLP.part.nonpolar>
-38.1774

> <Gold.PLP.part.repulsive>
0.1034

> <Gold.PLP.ligand.clash>
0.0000

> <Gold.PLP.ligand.torsion>
0.9114

> <Gold.PLP.Chemscore.Hbond>
2.9920

> <Gold.PLP.Chemscore.CHOScore>
0.0000

> <Gold.PLP.Chemscore.Metal>
0.0000

> <Gold.Chemscore.Hbonds>
donor molecule, donor type, donor heavy atom, donor atom, acceptor molecule, acceptor atom, score
      P1  H  6896  6909       L1    19  1.00
      P1  H  7997  8009       L1    13  1.00
      P1  H 10752 10765       L1    22  0.70
      L1  C    16    43       P1  7948  0.30

> <Gold.PLP.Chemscore.Internal.Correction>
0.0898

> <Gold.Rescore>
     Score         DG    S(hbond)    S(metal)    S(lipo)     H(rot)  DE(clash)    DE(int)     intcor
     18.53     -19.80       2.26        0.00     111.45       2.45       0.09       1.18       ----

> <Gold.Chemscore.Fitness>
18.5263

> <Gold.Chemscore.DG>
-19.8025

> <Gold.Chemscore.ZeroCoef>
-5.4800

> <Gold.Chemscore.Hbond>
2.2610

> <Gold.Chemscore.Metal>
0.0000

> <Gold.Chemscore.Lipo>
111.4535

> <Gold.Chemscore.Internal_Hbond>
0.0000

> <Gold.Chemscore.DEClash>
0.0949

> <Gold.Chemscore.DEInternal>
1.1812

> <Gold.Chemscore.Rot>
2.4490

> <Gold.Chemscore.Internal.Correction>
   9.000000E+99

> <Gold.Chemscore.Hbonds>
donor molecule, donor type, donor heavy atom, donor atom, acceptor molecule, acceptor atom, score
      P1  H  6896  6909       L1    19  0.39
      P1  H  7997  8009       L1    13  1.00
      P1  H 10752 10765       L1    22  0.07

> <Gold.Chemscore.Hbond.Weighted>
-7.5518

> <Gold.Chemscore.Metal.Weighted>
-0.0000

> <Gold.Chemscore.Lipo.Weighted>
-13.0401

> <Gold.Chemscore.Internal_Hbond.Weighted>
0.0000

> <Gold.Chemscore.DEClash.Weighted>
0.0949

> <Gold.Chemscore.DEInternal.Weighted>
1.1812

> <Gold.Chemscore.Rot.Weighted>
6.2694

> <Gold.Chemscore.Internal.Correction.Weighted>
   9.000000E+99

> <Gold.Protein.RotatedTorsions>
[ 6907 6896 6895 6894 ] final    6.52 input  -60.11 | X-H torsion
[ 7974 7965 7964 7962 ] final -177.35 input  175.53 | X-H torsion
[ 8008 7997 7996 7995 ] final -129.21 input   59.86 | X-H torsion
[ 10167 10162 10161 10158 ] final  164.61 input  -65.29 | X-H torsion
[ 10718 10713 10712 10709 ] final   62.93 input   66.30 | X-H torsion
[ 10763 10752 10751 10750 ] final -138.14 input  -60.55 | X-H torsion
[ 11005 11000 10999 10996 ] final -102.08 input  -57.11 | X-H torsion

> <Gold.Protein.ActiveResidues>
 VAL166  LYS551  ARG553  GLY616  TRP617  ASP618  TYR619  PRO620  LYS621  CYS622 
 ASP623  PHE694  ASN695  SER759  ASP760  ASP761  ALA762  ILE779  LEU786  VAL792 
 PHE793  MET794  SER795  GLU796  ALA797  LYS798  CYS799  TRP800  GLU811  SER814 

> <Gold.Protein.RotatedAtoms>
  151.6751  135.0970  160.0205 H   0  0  0  0  0  0  0  0  0  0  0  0  # atno 6907 bound_to 6896
  152.3869  133.6619  159.6214 H   0  0  0  0  0  0  0  0  0  0  0  0  # atno 6908 bound_to 6896
  150.7792  133.8937  159.3362 H   0  0  0  0  0  0  0  0  0  0  0  0  # atno 6909 bound_to 6896
  144.7127  140.1033  143.6415 H   0  0  0  0  0  0  0  0  0  0  0  0  # atno 7974 bound_to 7965
  155.2755  140.0442  157.3011 H   0  0  0  0  0  0  0  0  0  0  0  0  # atno 8008 bound_to 7997
  154.5628  140.2351  155.8278 H   0  0  0  0  0  0  0  0  0  0  0  0  # atno 8009 bound_to 7997
  156.2061  140.3012  155.9637 H   0  0  0  0  0  0  0  0  0  0  0  0  # atno 8010 bound_to 7997
  139.4892  144.4217  151.9178 H   0  0  0  0  0  0  0  0  0  0  0  0  # atno 10167 bound_to 10162
  157.5935  130.9077  149.9650 H   0  0  0  0  0  0  0  0  0  0  0  0  # atno 10718 bound_to 10713
  154.8644  135.3621  154.5337 H   0  0  0  0  0  0  0  0  0  0  0  0  # atno 10763 bound_to 10752
  153.5961  135.7014  153.5408 H   0  0  0  0  0  0  0  0  0  0  0  0  # atno 10764 bound_to 10752
  153.3331  135.4119  155.1473 H   0  0  0  0  0  0  0  0  0  0  0  0  # atno 10765 bound_to 10752
  141.1204  133.8529  157.1313 H   0  0  0  0  0  0  0  0  0  0  0  0  # atno 11005 bound_to 11000
  145.9519  139.2739  143.1207 LP  0  0  0  0  0  0  0  0  0  0  0  0  # atno 17320 bound_to 7965
  145.9314  140.9045  143.0354 LP  0  0  0  0  0  0  0  0  0  0  0  0  # atno 17321 bound_to 7965
  140.3662  144.2912  150.5926 LP  0  0  0  0  0  0  0  0  0  0  0  0  # atno 17342 bound_to 10162
  140.5359  143.2233  151.8163 LP  0  0  0  0  0  0  0  0  0  0  0  0  # atno 17343 bound_to 10162
  156.0994  130.3657  150.0246 LP  0  0  0  0  0  0  0  0  0  0  0  0  # atno 17370 bound_to 10713
  156.8364  130.9410  151.3634 LP  0  0  0  0  0  0  0  0  0  0  0  0  # atno 17371 bound_to 10713
  140.0157  134.9968  157.0489 LP  0  0  0  0  0  0  0  0  0  0  0  0  # atno 17394 bound_to 11000
  140.4523  134.1569  155.7183 LP  0  0  0  0  0  0  0  0  0  0  0  0  # atno 17395 bound_to 11000

$$$$
