AV-unprocessed.smi:2811|AV-procd|sdf|10831|dock5
  -GOLD-   2272015273D 1   1.00000     0.00000
 Structure written by MMmdl.
 38 40  0  0  0  0  0  0  0  0  1 V2000
  151.9568  145.8957  160.3529 C   0  0  0  0  0  0  0  0  0  0  0  0
  151.9995  144.5243  159.7121 C   0  0  0  0  0  0  0  0  0  0  0  0
  152.8069  143.5012  160.2453 C   0  0  0  0  0  0  0  0  0  0  0  0
  152.8034  142.2491  159.6004 C   0  0  0  0  0  0  0  0  0  0  0  0
  153.6527  141.1038  160.1102 C   0  0  0  0  0  0  0  0  0  0  0  0
  152.0628  141.9893  158.5024 N   0  0  0  0  0  0  0  0  0  0  0  0
  151.2754  142.9642  157.9812 C   0  0  0  0  0  0  0  0  0  0  0  0
  150.4703  142.8067  156.8151 N   0  0  0  0  0  0  0  0  0  0  0  0
  150.2469  141.7258  156.0377 C   0  0  0  0  0  0  0  0  0  0  0  0
  150.7806  140.6439  156.2767 O   0  0  0  0  0  0  0  0  0  0  0  0
  149.4219  141.9153  154.9964 N   0  0  0  0  0  0  0  0  0  0  0  0
  148.9839  140.8851  154.0616 C   0  0  2  0  0  0  0  0  0  0  0  0
  147.5897  141.1851  153.5039 C   0  0  0  0  0  0  0  0  0  0  0  0
  146.7974  139.9453  153.9395 C   0  0  2  0  0  0  0  0  0  0  0  0
  146.5281  139.9380  155.4512 C   0  0  0  0  0  0  0  0  0  0  0  0
  147.9048  139.5850  156.0118 C   0  0  0  0  0  0  0  0  0  0  0  0
  148.7546  139.5139  154.7312 C   0  0  1  0  0  0  0  0  0  0  0  0
  147.8033  138.9518  153.8431 O   0  0  0  0  0  0  0  0  0  0  0  0
  151.2295  144.2507  158.5638 C   0  0  0  0  0  0  0  0  0  0  0  0
  152.5365  145.9204  161.2762 H   0  0  0  0  0  0  0  0  0  0  0  0
  150.9285  146.1710  160.5894 H   0  0  0  0  0  0  0  0  0  0  0  0
  152.3653  146.6428  159.6724 H   0  0  0  0  0  0  0  0  0  0  0  0
  153.4141  143.6726  161.1222 H   0  0  0  0  0  0  0  0  0  0  0  0
  154.1499  141.3650  161.0449 H   0  0  0  0  0  0  0  0  0  0  0  0
  154.4175  140.8460  159.3771 H   0  0  0  0  0  0  0  0  0  0  0  0
  153.0358  140.2222  160.2875 H   0  0  0  0  0  0  0  0  0  0  0  0
  150.0528  143.6617  156.4776 H   0  0  0  0  0  0  0  0  0  0  0  0
  149.0278  142.8374  154.8746 H   0  0  0  0  0  0  0  0  0  0  0  0
  149.6922  140.7910  153.2365 H   0  0  0  0  0  0  0  0  0  0  0  0
  147.1507  142.1074  153.8872 H   0  0  0  0  0  0  0  0  0  0  0  0
  147.6250  141.2569  152.4162 H   0  0  0  0  0  0  0  0  0  0  0  0
  145.9132  139.7509  153.3318 H   0  0  0  0  0  0  0  0  0  0  0  0
  146.1595  140.8996  155.8103 H   0  0  0  0  0  0  0  0  0  0  0  0
  145.7993  139.1713  155.7159 H   0  0  0  0  0  0  0  0  0  0  0  0
  148.2697  140.3096  156.7400 H   0  0  0  0  0  0  0  0  0  0  0  0
  147.8742  138.6104  156.5000 H   0  0  0  0  0  0  0  0  0  0  0  0
  149.6635  138.9217  154.8412 H   0  0  0  0  0  0  0  0  0  0  0  0
  150.6063  145.0235  158.1367 H   0  0  0  0  0  0  0  0  0  0  0  0
  1  2  1  0  0  0  0
  1 20  1  0  0  0  0
  1 21  1  0  0  0  0
  1 22  1  0  0  0  0
  2 19  1  0  0  0  0
  2  3  2  0  0  0  0
  3  4  1  0  0  0  0
  3 23  1  0  0  0  0
  4  5  1  0  0  0  0
  4  6  2  0  0  0  0
  5 24  1  0  0  0  0
  5 25  1  0  0  0  0
  5 26  1  0  0  0  0
  6  7  1  0  0  0  0
  7  8  1  0  0  0  0
  7 19  2  0  0  0  0
  8  9  1  0  0  0  0
  8 27  1  0  0  0  0
  9 10  2  0  0  0  0
  9 11  1  0  0  0  0
 11 12  1  0  0  0  0
 11 28  1  0  0  0  0
 12 17  1  0  0  0  0
 12 13  1  0  0  0  0
 12 29  1  0  0  0  0
 13 14  1  0  0  0  0
 13 30  1  0  0  0  0
 13 31  1  0  0  0  0
 14 18  1  0  0  0  0
 14 15  1  0  0  0  0
 14 32  1  0  0  0  0
 15 16  1  0  0  0  0
 15 33  1  0  0  0  0
 15 34  1  0  0  0  0
 16 17  1  0  0  0  0
 16 35  1  0  0  0  0
 16 36  1  0  0  0  0
 17 18  1  0  0  0  0
 17 37  1  0  0  0  0
 19 38  1  0  0  0  0
M  END
> <s_m_source_file>
AV-unprocessed.smi

> <i_m_source_file_index>
2811

> <i_lp_mmshare_version>
43012

> <i_f3d_flags>
0

> <s_epik_input>
W0NIM11jMVtjSF1jKFtDSDNdKW5jKFtjSF0xKVtOSF1DKD1PKVtOSF1bQ0BIXShbQ0gyXVtDQEBIXTIzKVtDQEBIXShPMylbQ0gyXVtDSDJdMg==

> <s_epik_cmdline>
J2VwaWtfcHl0aG9uJywgJy1waCcsICc3LjAnLCAnLXRuJywgJzgnLCAnLW1hJywgJzIwMCcsICctbWV0YWxfYmluZGluZycsICctaW1hZScsICc8aW5maWxlLm1hZT4nLCAnLW9tYWUnLCAnPG91dGZpbGUubWFlPic=

> <r_lp_tautomer_probability>
1

> <r_epik_Ionization_Penalty>
0.000281548

> <r_epik_Ionization_Penalty_Charging>
0

> <r_epik_Ionization_Penalty_Neutral>
0.000281548

> <r_epik_State_Penalty>
-0

> <r_epik_Charging_Adjusted_Penalty>
0

> <i_epik_Tot_Q>
0

> <i_epik_Tot_abs_Q>
0

> <r_epik_Metal_State_Penalty>
-0

> <b_epik_Metal_Only>
0

> <s_lp_Force_Field>
OPLS_2005

> <r_lp_Energy>
38.9687

> <b_lp_Chiralities_Consistent>
1

> <s_lp_Variant>
AV-unprocessed.smi:2811-3

> <Gold.Version>
5.8.1

> <Gold.Id.Protein>
6NUR|6NUR_protein|mol2

> <Gold.PLP.Fitness>
43.6002

> <Gold.PLP.PLP>
-38.5081

> <Gold.PLP.part.hbond>
-2.0000

> <Gold.PLP.part.metal>
0.0000

> <Gold.PLP.part.buried>
-5.3168

> <Gold.PLP.part.nonpolar>
-32.8429

> <Gold.PLP.part.repulsive>
0.4540

> <Gold.PLP.ligand.clash>
0.0000

> <Gold.PLP.ligand.torsion>
0.3565

> <Gold.PLP.Chemscore.Hbond>
1.9280

> <Gold.PLP.Chemscore.CHOScore>
0.0000

> <Gold.PLP.Chemscore.Metal>
0.0000

> <Gold.Chemscore.Hbonds>
donor molecule, donor type, donor heavy atom, donor atom, acceptor molecule, acceptor atom, score
      L1  H     8    27       P1  8028  1.00
      L1  H    11    28       P1  8028  0.93

> <Gold.PLP.Chemscore.Internal.Correction>
0.0211

> <Gold.Rescore>
     Score         DG    S(hbond)    S(metal)    S(lipo)     H(rot)  DE(clash)    DE(int)     intcor
     17.51     -20.71       1.93        0.00      97.06       1.00       0.23       2.97       ----

> <Gold.Chemscore.Fitness>
17.5106

> <Gold.Chemscore.DG>
-20.7061

> <Gold.Chemscore.ZeroCoef>
-5.4800

> <Gold.Chemscore.Hbond>
1.9253

> <Gold.Chemscore.Metal>
0.0000

> <Gold.Chemscore.Lipo>
97.0567

> <Gold.Chemscore.Internal_Hbond>
0.0000

> <Gold.Chemscore.DEClash>
0.2255

> <Gold.Chemscore.DEInternal>
2.9700

> <Gold.Chemscore.Rot>
1.0000

> <Gold.Chemscore.Internal.Correction>
   9.000000E+99

> <Gold.Chemscore.Hbonds>
donor molecule, donor type, donor heavy atom, donor atom, acceptor molecule, acceptor atom, score
      L1  H     8    27       P1  8028  1.00
      L1  H    11    28       P1  8028  0.84

> <Gold.Chemscore.Hbond.Weighted>
-6.4304

> <Gold.Chemscore.Metal.Weighted>
-0.0000

> <Gold.Chemscore.Lipo.Weighted>
-11.3556

> <Gold.Chemscore.Internal_Hbond.Weighted>
0.0000

> <Gold.Chemscore.DEClash.Weighted>
0.2255

> <Gold.Chemscore.DEInternal.Weighted>
2.9700

> <Gold.Chemscore.Rot.Weighted>
2.5600

> <Gold.Chemscore.Internal.Correction.Weighted>
   9.000000E+99

> <Gold.Protein.RotatedTorsions>
[ 6907 6896 6895 6894 ] final  -51.29 input  -60.11 | X-H torsion
[ 7974 7965 7964 7962 ] final  106.43 input  175.53 | X-H torsion
[ 8008 7997 7996 7995 ] final   82.66 input   59.86 | X-H torsion
[ 10167 10162 10161 10158 ] final   17.07 input  -65.29 | X-H torsion
[ 10718 10713 10712 10709 ] final -171.56 input   66.30 | X-H torsion
[ 10763 10752 10751 10750 ] final  -43.48 input  -60.55 | X-H torsion
[ 11005 11000 10999 10996 ] final   91.02 input  -57.11 | X-H torsion

> <Gold.Protein.ActiveResidues>
 VAL166  LYS551  ARG553  GLY616  TRP617  ASP618  TYR619  PRO620  LYS621  CYS622 
 ASP623  PHE694  ASN695  SER759  ASP760  ASP761  ALA762  ILE779  LEU786  VAL792 
 PHE793  MET794  SER795  GLU796  ALA797  LYS798  CYS799  TRP800  GLU811  SER814 

> <Gold.Protein.RotatedAtoms>
  150.8625  134.7981  159.7093 H   0  0  0  0  0  0  0  0  0  0  0  0  # atno 6907 bound_to 6896
  152.4657  134.5076  159.9754 H   0  0  0  0  0  0  0  0  0  0  0  0  # atno 6908 bound_to 6896
  151.5178  133.3434  159.2931 H   0  0  0  0  0  0  0  0  0  0  0  0  # atno 6909 bound_to 6896
  145.3067  139.2552  143.3785 H   0  0  0  0  0  0  0  0  0  0  0  0  # atno 7974 bound_to 7965
  155.9135  140.3426  155.6117 H   0  0  0  0  0  0  0  0  0  0  0  0  # atno 8008 bound_to 7997
  155.7359  140.0801  157.2287 H   0  0  0  0  0  0  0  0  0  0  0  0  # atno 8009 bound_to 7997
  154.4059  140.1579  156.2548 H   0  0  0  0  0  0  0  0  0  0  0  0  # atno 8010 bound_to 7997
  140.5752  143.9085  150.6745 H   0  0  0  0  0  0  0  0  0  0  0  0  # atno 10167 bound_to 10162
  156.7426  130.9348  151.3111 H   0  0  0  0  0  0  0  0  0  0  0  0  # atno 10718 bound_to 10713
  153.9962  135.6699  153.4756 H   0  0  0  0  0  0  0  0  0  0  0  0  # atno 10763 bound_to 10752
  153.0683  135.4989  154.8244 H   0  0  0  0  0  0  0  0  0  0  0  0  # atno 10764 bound_to 10752
  154.7080  135.3091  154.9204 H   0  0  0  0  0  0  0  0  0  0  0  0  # atno 10765 bound_to 10752
  139.8846  134.8649  156.3367 H   0  0  0  0  0  0  0  0  0  0  0  0  # atno 11005 bound_to 11000
  146.3132  140.3594  142.8663 LP  0  0  0  0  0  0  0  0  0  0  0  0  # atno 17320 bound_to 7965
  144.9049  140.7687  143.5844 LP  0  0  0  0  0  0  0  0  0  0  0  0  # atno 17321 bound_to 7965
  140.2571  143.3551  152.1355 LP  0  0  0  0  0  0  0  0  0  0  0  0  # atno 17342 bound_to 10162
  139.5139  144.6940  151.5683 LP  0  0  0  0  0  0  0  0  0  0  0  0  # atno 17343 bound_to 10162
  157.6812  130.9141  150.0271 LP  0  0  0  0  0  0  0  0  0  0  0  0  # atno 17370 bound_to 10713
  156.1454  130.3642  149.9518 LP  0  0  0  0  0  0  0  0  0  0  0  0  # atno 17371 bound_to 10713
  140.9686  133.7342  156.0502 LP  0  0  0  0  0  0  0  0  0  0  0  0  # atno 17394 bound_to 11000
  140.7899  134.3629  157.5467 LP  0  0  0  0  0  0  0  0  0  0  0  0  # atno 17395 bound_to 11000

$$$$
