AV-unprocessed.smi:671|AV-procd|sdf|3274|dock2
  -GOLD-   22720 0233D 1   1.00000     0.00000
 Structure written by MMmdl.
 49 50  0  0  0  0  0  0  0  0  1 V2000
  152.8175  138.4209  154.6904 C   0  0  0  0  0  0  0  0  0  0  0  0
  152.0956  139.2435  155.7190 C   0  0  0  0  0  0  0  0  0  0  0  0
  152.6225  139.3835  156.9241 N   0  0  0  0  0  0  0  0  0  0  0  0
  151.7407  140.1481  157.5989 N   0  0  0  0  0  0  0  0  0  0  0  0
  152.0096  140.4916  158.9817 C   0  0  0  0  0  0  0  0  0  0  0  0
  150.6589  140.4995  156.8154 C   0  0  0  0  0  0  0  0  0  0  0  0
  149.5382  141.3425  157.3326 C   0  0  0  0  0  0  0  0  0  0  0  0
  150.8519  139.9279  155.5865 C   0  0  0  0  0  0  0  0  0  0  0  0
  149.9560  139.9836  154.3732 C   0  0  0  0  0  0  0  0  0  0  0  0
  148.5790  139.3406  154.6298 C   0  0  1  0  0  0  0  0  0  0  0  0
  147.4714  140.0036  153.7974 C   0  0  0  0  0  0  0  0  0  0  0  0
  148.6311  137.9020  154.3478 N   0  0  0  0  0  0  0  0  0  0  0  0
  148.6079  136.8750  155.2158 C   0  0  0  0  0  0  0  0  0  0  0  0
  148.5485  137.0543  156.4307 O   0  0  0  0  0  0  0  0  0  0  0  0
  148.6704  135.6591  154.6493 N   0  0  0  0  0  0  0  0  0  0  0  0
  148.6319  134.3904  155.3693 C   0  0  2  0  0  0  0  0  0  0  0  0
  149.6010  134.3845  156.5702 C   0  0  0  0  0  0  0  0  0  0  0  0
  150.6530  133.3148  156.2699 C   0  0  0  0  0  0  0  0  0  0  0  0
  149.9460  132.3365  155.3376 C   0  0  0  0  0  0  0  0  0  0  0  0
  149.0775  133.2332  154.4523 C   0  0  1  0  0  0  0  0  0  0  0  0
  147.9156  132.4952  153.7741 C   0  0  0  0  0  0  0  0  0  0  0  0
  152.1440  137.7012  154.2244 H   0  0  0  0  0  0  0  0  0  0  0  0
  153.6445  137.8601  155.1280 H   0  0  0  0  0  0  0  0  0  0  0  0
  153.2253  139.0537  153.9020 H   0  0  0  0  0  0  0  0  0  0  0  0
  151.1479  140.2336  159.5979 H   0  0  0  0  0  0  0  0  0  0  0  0
  152.1990  141.5621  159.0625 H   0  0  0  0  0  0  0  0  0  0  0  0
  152.8812  139.9495  159.3514 H   0  0  0  0  0  0  0  0  0  0  0  0
  148.9193  141.7182  156.5178 H   0  0  0  0  0  0  0  0  0  0  0  0
  149.9172  142.2034  157.8838 H   0  0  0  0  0  0  0  0  0  0  0  0
  148.8989  140.7651  158.0007 H   0  0  0  0  0  0  0  0  0  0  0  0
  149.8137  141.0165  154.0541 H   0  0  0  0  0  0  0  0  0  0  0  0
  150.4306  139.4850  153.5272 H   0  0  0  0  0  0  0  0  0  0  0  0
  148.3516  139.5003  155.6847 H   0  0  0  0  0  0  0  0  0  0  0  0
  147.4142  141.0728  154.0027 H   0  0  0  0  0  0  0  0  0  0  0  0
  146.4958  139.5733  154.0254 H   0  0  0  0  0  0  0  0  0  0  0  0
  147.6487  139.8788  152.7286 H   0  0  0  0  0  0  0  0  0  0  0  0
  148.7531  137.6568  153.3758 H   0  0  0  0  0  0  0  0  0  0  0  0
  148.7291  135.6090  153.6430 H   0  0  0  0  0  0  0  0  0  0  0  0
  147.6184  134.2055  155.7316 H   0  0  0  0  0  0  0  0  0  0  0  0
  150.0629  135.3548  156.7588 H   0  0  0  0  0  0  0  0  0  0  0  0
  149.0518  134.1136  157.4728 H   0  0  0  0  0  0  0  0  0  0  0  0
  151.4989  133.7676  155.7510 H   0  0  0  0  0  0  0  0  0  0  0  0
  151.0335  132.8349  157.1719 H   0  0  0  0  0  0  0  0  0  0  0  0
  150.6446  131.7290  154.7618 H   0  0  0  0  0  0  0  0  0  0  0  0
  149.3192  131.6621  155.9228 H   0  0  0  0  0  0  0  0  0  0  0  0
  149.7282  133.6324  153.6715 H   0  0  0  0  0  0  0  0  0  0  0  0
  147.2349  132.0644  154.5090 H   0  0  0  0  0  0  0  0  0  0  0  0
  148.2830  131.6853  153.1437 H   0  0  0  0  0  0  0  0  0  0  0  0
  147.3396  133.1723  153.1427 H   0  0  0  0  0  0  0  0  0  0  0  0
  1  2  1  0  0  0  0
  1 22  1  0  0  0  0
  1 23  1  0  0  0  0
  1 24  1  0  0  0  0
  2  8  1  0  0  0  0
  2  3  2  0  0  0  0
  3  4  1  0  0  0  0
  4  5  1  0  0  0  0
  4  6  1  0  0  0  0
  5 25  1  0  0  0  0
  5 26  1  0  0  0  0
  5 27  1  0  0  0  0
  6  7  1  0  0  0  0
  6  8  2  0  0  0  0
  7 28  1  0  0  0  0
  7 29  1  0  0  0  0
  7 30  1  0  0  0  0
  8  9  1  0  0  0  0
  9 10  1  0  0  0  0
  9 31  1  0  0  0  0
  9 32  1  0  0  0  0
 10 11  1  0  0  0  0
 10 12  1  0  0  0  0
 10 33  1  0  0  0  0
 11 34  1  0  0  0  0
 11 35  1  0  0  0  0
 11 36  1  0  0  0  0
 12 13  1  0  0  0  0
 12 37  1  0  0  0  0
 13 14  2  0  0  0  0
 13 15  1  0  0  0  0
 15 16  1  0  0  0  0
 15 38  1  0  0  0  0
 16 20  1  0  0  0  0
 16 17  1  0  0  0  0
 16 39  1  0  0  0  0
 17 18  1  0  0  0  0
 17 40  1  0  0  0  0
 17 41  1  0  0  0  0
 18 19  1  0  0  0  0
 18 42  1  0  0  0  0
 18 43  1  0  0  0  0
 19 20  1  0  0  0  0
 19 44  1  0  0  0  0
 19 45  1  0  0  0  0
 20 21  1  0  0  0  0
 20 46  1  0  0  0  0
 21 47  1  0  0  0  0
 21 48  1  0  0  0  0
 21 49  1  0  0  0  0
M  END
> <s_m_source_file>
AV-unprocessed.smi

> <i_m_source_file_index>
671

> <i_lp_mmshare_version>
43012

> <i_f3d_flags>
0

> <s_epik_input>
W0NIM11jMW5uKFtDSDNdKWMoW0NIM10pYzFbQ0gyXVtDQEhdKFtDSDNdKVtOSF1DKD1PKVtOSF1bQ0BASF0yW0NIMl1bQ0gyXVtDSDJdW0NASF0yW0NIM10=

> <s_epik_cmdline>
J2VwaWtfcHl0aG9uJywgJy1waCcsICc3LjAnLCAnLXRuJywgJzgnLCAnLW1hJywgJzIwMCcsICctbWV0YWxfYmluZGluZycsICctaW1hZScsICc8aW5maWxlLm1hZT4nLCAnLW9tYWUnLCAnPG91dGZpbGUubWFlPic=

> <r_lp_tautomer_probability>
1

> <r_epik_Ionization_Penalty>
0.0126855

> <r_epik_Ionization_Penalty_Charging>
0

> <r_epik_Ionization_Penalty_Neutral>
0.0126855

> <r_epik_State_Penalty>
0.00977547

> <r_epik_Charging_Adjusted_Penalty>
0.00977547

> <i_epik_Tot_Q>
0

> <i_epik_Tot_abs_Q>
0

> <r_epik_Metal_State_Penalty>
0.00957132

> <b_epik_Metal_Only>
0

> <s_lp_Force_Field>
OPLS_2005

> <r_lp_Energy>
23.179

> <b_lp_Chiralities_Consistent>
1

> <s_lp_Variant>
AV-unprocessed.smi:671-2

> <Gold.Version>
5.8.1

> <Gold.Id.Protein>
6NUR|6NUR_protein|mol2

> <Gold.PLP.Fitness>
43.4504

> <Gold.PLP.PLP>
-35.6573

> <Gold.PLP.part.hbond>
-3.0000

> <Gold.PLP.part.metal>
0.0000

> <Gold.PLP.part.buried>
-2.9551

> <Gold.PLP.part.nonpolar>
-31.0498

> <Gold.PLP.part.repulsive>
0.0211

> <Gold.PLP.ligand.clash>
0.0000

> <Gold.PLP.ligand.torsion>
0.6152

> <Gold.PLP.Chemscore.Hbond>
2.9833

> <Gold.PLP.Chemscore.CHOScore>
0.0000

> <Gold.PLP.Chemscore.Metal>
0.0000

> <Gold.Chemscore.Hbonds>
donor molecule, donor type, donor heavy atom, donor atom, acceptor molecule, acceptor atom, score
      L1  H    12    37       P1  7948  0.89
      L1  H    15    38       P1  7948  1.00
      P1  H  7997  8009       L1     3  1.00

> <Gold.PLP.Chemscore.Internal.Correction>
0.0736

> <Gold.Rescore>
     Score         DG    S(hbond)    S(metal)    S(lipo)     H(rot)  DE(clash)    DE(int)     intcor
     18.48     -21.26       2.70        0.00      89.67       1.45       0.45       2.33       ----

> <Gold.Chemscore.Fitness>
18.4801

> <Gold.Chemscore.DG>
-21.2640

> <Gold.Chemscore.ZeroCoef>
-5.4800

> <Gold.Chemscore.Hbond>
2.6959

> <Gold.Chemscore.Metal>
0.0000

> <Gold.Chemscore.Lipo>
89.6704

> <Gold.Chemscore.Internal_Hbond>
0.0000

> <Gold.Chemscore.DEClash>
0.4504

> <Gold.Chemscore.DEInternal>
2.3335

> <Gold.Chemscore.Rot>
1.4499

> <Gold.Chemscore.Internal.Correction>
   9.000000E+99

> <Gold.Chemscore.Hbonds>
donor molecule, donor type, donor heavy atom, donor atom, acceptor molecule, acceptor atom, score
      L1  H    12    37       P1  7948  0.84
      L1  H    15    38       P1  7948  0.96
      P1  H  7997  8009       L1     3  0.34

> <Gold.Chemscore.Hbond.Weighted>
-9.0044

> <Gold.Chemscore.Metal.Weighted>
-0.0000

> <Gold.Chemscore.Lipo.Weighted>
-10.4914

> <Gold.Chemscore.Internal_Hbond.Weighted>
0.0000

> <Gold.Chemscore.DEClash.Weighted>
0.4504

> <Gold.Chemscore.DEInternal.Weighted>
2.3335

> <Gold.Chemscore.Rot.Weighted>
3.7118

> <Gold.Chemscore.Internal.Correction.Weighted>
   9.000000E+99

> <Gold.Protein.RotatedTorsions>
[ 6907 6896 6895 6894 ] final -111.14 input  -60.11 | X-H torsion
[ 7974 7965 7964 7962 ] final -168.66 input  175.53 | X-H torsion
[ 8008 7997 7996 7995 ] final -173.05 input   59.86 | X-H torsion
[ 10167 10162 10161 10158 ] final   55.01 input  -65.29 | X-H torsion
[ 10718 10713 10712 10709 ] final  134.83 input   66.30 | X-H torsion
[ 10763 10752 10751 10750 ] final -169.52 input  -60.55 | X-H torsion
[ 11005 11000 10999 10996 ] final -128.79 input  -57.11 | X-H torsion

> <Gold.Protein.ActiveResidues>
 VAL166  LYS551  ARG553  GLY616  TRP617  ASP618  TYR619  PRO620  LYS621  CYS622 
 ASP623  PHE694  ASN695  SER759  ASP760  ASP761  ALA762  ILE779  LEU786  VAL792 
 PHE793  MET794  SER795  GLU796  ALA797  LYS798  CYS799  TRP800  GLU811  SER814 

> <Gold.Protein.RotatedAtoms>
  150.7670  133.9279  159.3417 H   0  0  0  0  0  0  0  0  0  0  0  0  # atno 6907 bound_to 6896
  151.7174  135.0899  160.0287 H   0  0  0  0  0  0  0  0  0  0  0  0  # atno 6908 bound_to 6896
  152.3671  133.6333  159.6094 H   0  0  0  0  0  0  0  0  0  0  0  0  # atno 6909 bound_to 6896
  144.7199  140.2337  143.6301 H   0  0  0  0  0  0  0  0  0  0  0  0  # atno 7974 bound_to 7965
  155.9525  140.1129  157.0965 H   0  0  0  0  0  0  0  0  0  0  0  0  # atno 8008 bound_to 7997
  154.4113  140.1198  156.5137 H   0  0  0  0  0  0  0  0  0  0  0  0  # atno 8009 bound_to 7997
  155.6824  140.3473  155.4863 H   0  0  0  0  0  0  0  0  0  0  0  0  # atno 8010 bound_to 7997
  140.2240  144.3758  150.6439 H   0  0  0  0  0  0  0  0  0  0  0  0  # atno 10167 bound_to 10162
  157.4632  131.1075  150.9894 H   0  0  0  0  0  0  0  0  0  0  0  0  # atno 10718 bound_to 10713
  154.6514  135.2912  154.9982 H   0  0  0  0  0  0  0  0  0  0  0  0  # atno 10763 bound_to 10752
  154.1074  135.6567  153.4883 H   0  0  0  0  0  0  0  0  0  0  0  0  # atno 10764 bound_to 10752
  153.0378  135.5257  154.7424 H   0  0  0  0  0  0  0  0  0  0  0  0  # atno 10765 bound_to 10752
  140.9486  134.1096  157.4083 H   0  0  0  0  0  0  0  0  0  0  0  0  # atno 11005 bound_to 11000
  145.8386  139.2119  143.1840 LP  0  0  0  0  0  0  0  0  0  0  0  0  # atno 17320 bound_to 7965
  146.0366  140.8206  142.9849 LP  0  0  0  0  0  0  0  0  0  0  0  0  # atno 17321 bound_to 7965
  140.6234  143.2178  151.6647 LP  0  0  0  0  0  0  0  0  0  0  0  0  # atno 17342 bound_to 10162
  139.5134  144.3445  152.0709 LP  0  0  0  0  0  0  0  0  0  0  0  0  # atno 17343 bound_to 10162
  157.0684  130.5854  149.5398 LP  0  0  0  0  0  0  0  0  0  0  0  0  # atno 17370 bound_to 10713
  156.0038  130.5122  150.7759 LP  0  0  0  0  0  0  0  0  0  0  0  0  # atno 17371 bound_to 10713
  139.8841  135.0059  156.6344 LP  0  0  0  0  0  0  0  0  0  0  0  0  # atno 17394 bound_to 11000
  140.7634  133.8798  155.8436 LP  0  0  0  0  0  0  0  0  0  0  0  0  # atno 17395 bound_to 11000

$$$$
