AV-unprocessed.smi:1550|AV-procd|sdf|6229|dock4
  -GOLD-   22720 6403D 1   1.00000     0.00000
 Structure written by MMmdl.
 42 43  0  0  0  0  0  0  0  0  2 V2000
  151.4025  136.7869  157.4246 C   0  0  0  0  0  0  0  0  0  0  0  0
  150.1755  137.5608  157.9289 C   0  0  1  0  0  0  0  0  0  0  0  0
  149.7800  136.9753  159.1670 O   0  0  0  0  0  0  0  0  0  0  0  0
  148.3865  136.7210  159.3070 C   0  0  0  0  0  0  0  0  0  0  0  0
  148.1475  136.0250  160.6527 C   0  0  2  0  0  0  0  0  0  0  0  0
  147.1330  134.8711  160.5308 C   0  0  0  0  0  0  0  0  0  0  0  0
  146.8456  134.2580  161.9064 C   0  0  0  0  0  0  0  0  0  0  0  0
  146.4238  135.3598  162.8840 C   0  0  0  0  0  0  0  0  0  0  0  0
  147.4582  136.4963  162.8858 C   0  0  0  0  0  0  0  0  0  0  0  0
  147.6320  136.9946  161.5631 O   0  0  0  0  0  0  0  0  0  0  0  0
  150.4964  139.0516  158.1235 C   0  0  0  0  0  0  0  0  0  0  0  0
  149.8786  139.8938  157.4719 O   0  0  0  0  0  0  0  0  0  0  0  0
  151.4622  139.3224  159.0230 N   0  0  0  0  0  0  0  0  0  0  0  0
  152.0330  140.5589  159.3670 C   0  0  0  0  0  0  0  0  0  0  0  0
  151.4928  141.7706  159.0595 C   0  0  0  0  0  0  0  0  0  0  0  0
  152.1417  143.0255  159.4192 C   0  0  0  0  0  0  0  0  0  0  0  0
  151.5832  144.4005  159.1015 C   0  0  0  0  0  0  0  0  0  0  0  0
  152.2447  145.3350  159.7835 F   0  0  0  0  0  0  0  0  0  0  0  0
  151.7197  144.6644  157.8024 F   0  0  0  0  0  0  0  0  0  0  0  0
  150.2904  144.4863  159.4150 F   0  0  0  0  0  0  0  0  0  0  0  0
  153.3398  142.8283  160.0762 C   0  0  0  0  0  0  0  0  0  0  0  0
  153.9469  141.6681  160.4094 N   0  5  0  0  0  0  0  0  0  0  0  0
  153.3309  140.5002  160.0711 C   0  0  0  0  0  0  0  0  0  0  0  0
  153.8307  139.4068  160.3382 O   0  0  0  0  0  0  0  0  0  0  0  0
  151.7673  137.1943  156.4811 H   0  0  0  0  0  0  0  0  0  0  0  0
  151.1552  135.7387  157.2564 H   0  0  0  0  0  0  0  0  0  0  0  0
  152.2218  136.8194  158.1440 H   0  0  0  0  0  0  0  0  0  0  0  0
  149.3711  137.4429  157.2000 H   0  0  0  0  0  0  0  0  0  0  0  0
  147.7942  137.6352  159.2522 H   0  0  0  0  0  0  0  0  0  0  0  0
  148.0633  136.0730  158.4909 H   0  0  0  0  0  0  0  0  0  0  0  0
  149.0967  135.6359  161.0258 H   0  0  0  0  0  0  0  0  0  0  0  0
  146.2037  135.2435  160.0974 H   0  0  0  0  0  0  0  0  0  0  0  0
  147.5089  134.1045  159.8527 H   0  0  0  0  0  0  0  0  0  0  0  0
  146.0680  133.4976  161.8305 H   0  0  0  0  0  0  0  0  0  0  0  0
  147.7398  133.7572  162.2794 H   0  0  0  0  0  0  0  0  0  0  0  0
  145.4502  135.7557  162.5921 H   0  0  0  0  0  0  0  0  0  0  0  0
  146.3084  134.9508  163.8881 H   0  0  0  0  0  0  0  0  0  0  0  0
  147.1191  137.3105  163.5266 H   0  0  0  0  0  0  0  0  0  0  0  0
  148.4140  136.1538  163.2856 H   0  0  0  0  0  0  0  0  0  0  0  0
  151.8163  138.5386  159.5517 H   0  0  0  0  0  0  0  0  0  0  0  0
  150.5674  141.8349  158.5107 H   0  0  0  0  0  0  0  0  0  0  0  0
  153.8941  143.7432  160.3761 H   0  0  0  0  0  0  0  0  0  0  0  0
  1  2  1  0  0  0  0
  1 25  1  0  0  0  0
  1 26  1  0  0  0  0
  1 27  1  0  0  0  0
  2  3  1  0  0  0  0
  2 11  1  0  0  0  0
  2 28  1  0  0  0  0
  3  4  1  0  0  0  0
  4  5  1  0  0  0  0
  4 29  1  0  0  0  0
  4 30  1  0  0  0  0
  5 10  1  0  0  0  0
  5  6  1  0  0  0  0
  5 31  1  0  0  0  0
  6  7  1  0  0  0  0
  6 32  1  0  0  0  0
  6 33  1  0  0  0  0
  7  8  1  0  0  0  0
  7 34  1  0  0  0  0
  7 35  1  0  0  0  0
  8  9  1  0  0  0  0
  8 36  1  0  0  0  0
  8 37  1  0  0  0  0
  9 10  1  0  0  0  0
  9 38  1  0  0  0  0
  9 39  1  0  0  0  0
 11 12  2  0  0  0  0
 11 13  1  0  0  0  0
 13 14  1  0  0  0  0
 13 40  1  0  0  0  0
 14 23  1  0  0  0  0
 14 15  2  0  0  0  0
 15 16  1  0  0  0  0
 15 41  1  0  0  0  0
 16 17  1  0  0  0  0
 16 21  2  0  0  0  0
 17 18  1  0  0  0  0
 17 19  1  0  0  0  0
 17 20  1  0  0  0  0
 21 22  1  0  0  0  0
 21 42  1  0  0  0  0
 22 23  1  0  0  0  0
 23 24  2  0  0  0  0
M  CHG  1  22  -1
M  END
> <s_m_source_file>
AV-unprocessed.smi

> <i_m_source_file_index>
1550

> <i_lp_mmshare_version>
43012

> <i_f3d_flags>
0

> <s_epik_input>
TzFbQ0gyXVtDSDJdW0NIMl1bQ0gyXVtDQEhdMVtDSDJdT1tDQEBIXShbQ0gzXSlDKD1PKVtOSF1jMltjSF1jKEMoRikoRilGKVtjSF1bbkhdYzI9Tw==

> <s_epik_cmdline>
J2VwaWtfcHl0aG9uJywgJy1waCcsICc3LjAnLCAnLXRuJywgJzgnLCAnLW1hJywgJzIwMCcsICctbWV0YWxfYmluZGluZycsICctaW1hZScsICc8aW5maWxlLm1hZT4nLCAnLW9tYWUnLCAnPG91dGZpbGUubWFlPic=

> <r_epik_Ionization_Penalty>
2.54933

> <r_epik_Ionization_Penalty_Charging>
0.0583423

> <r_epik_Ionization_Penalty_Neutral>
2.49099

> <r_epik_State_Penalty>
2.65532

> <r_epik_Charging_Adjusted_Penalty>
2.71366

> <i_epik_Tot_Q>
-1

> <i_epik_Tot_abs_Q>
1

> <r_epik_Metal_State_Penalty>
0.516364

> <b_epik_Metal_Only>
0

> <s_lp_Force_Field>
OPLS_2005

> <r_lp_Energy>
27.7266

> <b_lp_Chiralities_Consistent>
1

> <s_lp_Variant>
AV-unprocessed.smi:1550-6

> <Gold.Version>
5.8.1

> <Gold.Id.Protein>
6NUR|6NUR_protein|mol2

> <Gold.PLP.Fitness>
54.2475

> <Gold.PLP.PLP>
-51.6214

> <Gold.PLP.part.hbond>
-2.7220

> <Gold.PLP.part.metal>
0.0000

> <Gold.PLP.part.buried>
-8.3683

> <Gold.PLP.part.nonpolar>
-42.1538

> <Gold.PLP.part.repulsive>
0.1382

> <Gold.PLP.ligand.clash>
0.0000

> <Gold.PLP.ligand.torsion>
1.7897

> <Gold.PLP.Chemscore.Hbond>
2.0544

> <Gold.PLP.Chemscore.CHOScore>
0.0000

> <Gold.PLP.Chemscore.Metal>
0.0000

> <Gold.Chemscore.Hbonds>
donor molecule, donor type, donor heavy atom, donor atom, acceptor molecule, acceptor atom, score
      P1  H  6896  6909       L1     3  0.06
      P1  H  6931  6943       L1    10  0.95
      P1  H  6934  6947       L1    10  0.54

> <Gold.PLP.Chemscore.Internal.Correction>
0.0423

> <Gold.Rescore>
     Score         DG    S(hbond)    S(metal)    S(lipo)     H(rot)  DE(clash)    DE(int)     intcor
     12.39     -14.68       0.87        0.00      93.64       1.82       0.05       2.24       ----

> <Gold.Chemscore.Fitness>
12.3920

> <Gold.Chemscore.DG>
-14.6832

> <Gold.Chemscore.ZeroCoef>
-5.4800

> <Gold.Chemscore.Hbond>
0.8730

> <Gold.Chemscore.Metal>
0.0000

> <Gold.Chemscore.Lipo>
93.6386

> <Gold.Chemscore.Internal_Hbond>
0.0000

> <Gold.Chemscore.DEClash>
0.0523

> <Gold.Chemscore.DEInternal>
2.2389

> <Gold.Chemscore.Rot>
1.8236

> <Gold.Chemscore.Internal.Correction>
   9.000000E+99

> <Gold.Chemscore.Hbonds>
donor molecule, donor type, donor heavy atom, donor atom, acceptor molecule, acceptor atom, score
      P1  H  6896  6909       L1     3  0.06
      P1  H  6931  6943       L1    10  0.14
      P1  H  6934  6947       L1    10  0.53

> <Gold.Chemscore.Hbond.Weighted>
-2.9159

> <Gold.Chemscore.Metal.Weighted>
-0.0000

> <Gold.Chemscore.Lipo.Weighted>
-10.9557

> <Gold.Chemscore.Internal_Hbond.Weighted>
0.0000

> <Gold.Chemscore.DEClash.Weighted>
0.0523

> <Gold.Chemscore.DEInternal.Weighted>
2.2389

> <Gold.Chemscore.Rot.Weighted>
4.6684

> <Gold.Chemscore.Internal.Correction.Weighted>
   9.000000E+99

> <Gold.Protein.RotatedTorsions>
[ 6907 6896 6895 6894 ] final   72.94 input  -60.11 | X-H torsion
[ 7974 7965 7964 7962 ] final -139.76 input  175.53 | X-H torsion
[ 8008 7997 7996 7995 ] final  177.88 input   59.86 | X-H torsion
[ 10167 10162 10161 10158 ] final  -52.48 input  -65.29 | X-H torsion
[ 10718 10713 10712 10709 ] final  -23.32 input   66.30 | X-H torsion
[ 10763 10752 10751 10750 ] final  176.96 input  -60.55 | X-H torsion
[ 11005 11000 10999 10996 ] final   98.32 input  -57.11 | X-H torsion

> <Gold.Protein.ActiveResidues>
 VAL166  LYS551  ARG553  GLY616  TRP617  ASP618  TYR619  PRO620  LYS621  CYS622 
 ASP623  PHE694  ASN695  SER759  ASP760  ASP761  ALA762  ILE779  LEU786  VAL792 
 PHE793  MET794  SER795  GLU796  ALA797  LYS798  CYS799  TRP800  GLU811  SER814 

> <Gold.Protein.RotatedAtoms>
  152.4896  134.4495  159.9569 H   0  0  0  0  0  0  0  0  0  0  0  0  # atno 6907 bound_to 6896
  151.4485  133.3618  159.2799 H   0  0  0  0  0  0  0  0  0  0  0  0  # atno 6908 bound_to 6896
  150.9038  134.8476  159.7438 H   0  0  0  0  0  0  0  0  0  0  0  0  # atno 6909 bound_to 6896
  144.8651  140.6280  143.5303 H   0  0  0  0  0  0  0  0  0  0  0  0  # atno 7974 bound_to 7965
  156.0608  140.1347  156.9943 H   0  0  0  0  0  0  0  0  0  0  0  0  # atno 8008 bound_to 7997
  154.4481  140.0992  156.6585 H   0  0  0  0  0  0  0  0  0  0  0  0  # atno 8009 bound_to 7997
  155.5380  140.3460  155.4443 H   0  0  0  0  0  0  0  0  0  0  0  0  # atno 8010 bound_to 7997
  140.6535  143.2582  151.4654 H   0  0  0  0  0  0  0  0  0  0  0  0  # atno 10167 bound_to 10162
  156.4927  130.4570  149.6746 H   0  0  0  0  0  0  0  0  0  0  0  0  # atno 10718 bound_to 10713
  154.4881  135.2778  155.1518 H   0  0  0  0  0  0  0  0  0  0  0  0  # atno 10763 bound_to 10752
  154.3201  135.6211  153.5508 H   0  0  0  0  0  0  0  0  0  0  0  0  # atno 10764 bound_to 10752
  152.9884  135.5740  154.5296 H   0  0  0  0  0  0  0  0  0  0  0  0  # atno 10765 bound_to 10752
  139.8773  134.9043  156.4438 H   0  0  0  0  0  0  0  0  0  0  0  0  # atno 11005 bound_to 11000
  145.4237  139.1560  143.4060 LP  0  0  0  0  0  0  0  0  0  0  0  0  # atno 17320 bound_to 7965
  146.2889  140.4349  142.8747 LP  0  0  0  0  0  0  0  0  0  0  0  0  # atno 17321 bound_to 7965
  139.5754  144.1832  152.1895 LP  0  0  0  0  0  0  0  0  0  0  0  0  # atno 17342 bound_to 10162
  140.1141  144.5431  150.6906 LP  0  0  0  0  0  0  0  0  0  0  0  0  # atno 17343 bound_to 10162
  156.3410  130.7382  151.2327 LP  0  0  0  0  0  0  0  0  0  0  0  0  # atno 17370 bound_to 10713
  157.7472  131.0403  150.4593 LP  0  0  0  0  0  0  0  0  0  0  0  0  # atno 17371 bound_to 10713
  140.8980  133.7800  155.9648 LP  0  0  0  0  0  0  0  0  0  0  0  0  # atno 17394 bound_to 11000
  140.8681  134.2759  157.5203 LP  0  0  0  0  0  0  0  0  0  0  0  0  # atno 17395 bound_to 11000

$$$$
