AV-unprocessed.smi:1824|AV-procd|sdf|7405|dock7
  -GOLD-   22720 9 83D 1   1.00000     0.00000
 Structure written by MMmdl.
 45 47  0  0  0  0  0  0  0  0  2 V2000
  143.5749  144.4420  154.7877 C   0  0  0  0  0  0  0  0  0  0  0  0
  144.9449  143.9706  155.2870 C   0  0  2  0  0  0  0  0  0  0  0  0
  145.6106  142.9813  154.3117 C   0  0  0  0  0  0  0  0  0  0  0  0
  146.8963  142.4929  154.8680 N   0  3  2  0  0  0  0  0  0  0  0  0
  147.6320  141.5784  153.9576 C   0  0  0  0  0  0  0  0  0  0  0  0
  148.9709  141.1041  154.5558 C   0  0  1  0  0  0  0  0  0  0  0  0
  149.8575  140.7969  153.4963 O   0  0  0  0  0  0  0  0  0  0  0  0
  149.6064  142.1751  155.4635 C   0  0  0  0  0  0  0  0  0  0  0  0
  150.6521  141.6331  156.3134 N   0  0  0  0  0  0  0  0  0  0  0  0
  151.3966  140.5351  156.0806 C   0  0  0  0  0  0  0  0  0  0  0  0
  152.3116  140.2146  156.9907 N   0  0  0  0  0  0  0  0  0  0  0  0
  152.1418  141.2216  157.9254 C   0  0  0  0  0  0  0  0  0  0  0  0
  152.8139  141.4646  159.1444 C   0  0  0  0  0  0  0  0  0  0  0  0
  152.4662  142.5732  159.9440 C   0  0  0  0  0  0  0  0  0  0  0  0
  153.1217  142.7923  161.1085 F   0  0  0  0  0  0  0  0  0  0  0  0
  151.4416  143.4536  159.5376 C   0  0  0  0  0  0  0  0  0  0  0  0
  151.1140  144.5156  160.3110 F   0  0  0  0  0  0  0  0  0  0  0  0
  150.7573  143.2314  158.3271 C   0  0  0  0  0  0  0  0  0  0  0  0
  151.1085  142.1249  157.5321 C   0  0  0  0  0  0  0  0  0  0  0  0
  146.6863  141.9107  156.2141 C   0  0  0  0  0  0  0  0  0  0  0  0
  145.9922  142.9283  157.1392 C   0  0  2  0  0  0  0  0  0  0  0  0
  145.6876  142.3405  158.5215 C   0  0  0  0  0  0  0  0  0  0  0  0
  144.7626  143.3307  156.5456 O   0  0  0  0  0  0  0  0  0  0  0  0
  143.6602  144.9483  153.8259 H   0  0  0  0  0  0  0  0  0  0  0  0
  143.1229  145.1412  155.4917 H   0  0  0  0  0  0  0  0  0  0  0  0
  142.8887  143.6035  154.6656 H   0  0  0  0  0  0  0  0  0  0  0  0
  145.5850  144.8452  155.4175 H   0  0  0  0  0  0  0  0  0  0  0  0
  144.9486  142.1338  154.1259 H   0  0  0  0  0  0  0  0  0  0  0  0
  145.7737  143.4737  153.3535 H   0  0  0  0  0  0  0  0  0  0  0  0
  147.0194  140.7014  153.7409 H   0  0  0  0  0  0  0  0  0  0  0  0
  147.7935  142.0777  153.0008 H   0  0  0  0  0  0  0  0  0  0  0  0
  148.8221  140.1994  155.1445 H   0  0  0  0  0  0  0  0  0  0  0  0
  149.4391  140.1749  152.9206 H   0  0  0  0  0  0  0  0  0  0  0  0
  150.0252  142.9871  154.8675 H   0  0  0  0  0  0  0  0  0  0  0  0
  148.8456  142.6224  156.1048 H   0  0  0  0  0  0  0  0  0  0  0  0
  151.2610  139.9380  155.1904 H   0  0  0  0  0  0  0  0  0  0  0  0
  153.6000  140.7978  159.4657 H   0  0  0  0  0  0  0  0  0  0  0  0
  149.9741  143.9053  158.0145 H   0  0  0  0  0  0  0  0  0  0  0  0
  146.0855  141.0034  156.1287 H   0  0  0  0  0  0  0  0  0  0  0  0
  147.6465  141.6215  156.6434 H   0  0  0  0  0  0  0  0  0  0  0  0
  146.6317  143.8034  157.2687 H   0  0  0  0  0  0  0  0  0  0  0  0
  146.6023  142.0268  159.0250 H   0  0  0  0  0  0  0  0  0  0  0  0
  145.0317  141.4724  158.4469 H   0  0  0  0  0  0  0  0  0  0  0  0
  145.1945  143.0760  159.1576 H   0  0  0  0  0  0  0  0  0  0  0  0
  147.4896  143.3003  154.9990 H   0  0  0  0  0  0  0  0  0  0  0  0
  1  2  1  0  0  0  0
  1 24  1  0  0  0  0
  1 25  1  0  0  0  0
  1 26  1  0  0  0  0
  2 23  1  0  0  0  0
  2  3  1  0  0  0  0
  2 27  1  0  0  0  0
  3  4  1  0  0  0  0
  3 28  1  0  0  0  0
  3 29  1  0  0  0  0
  4  5  1  0  0  0  0
  4 20  1  0  0  0  0
  4 45  1  0  0  0  0
  5  6  1  0  0  0  0
  5 30  1  0  0  0  0
  5 31  1  0  0  0  0
  6  7  1  0  0  0  0
  6  8  1  0  0  0  0
  6 32  1  0  0  0  0
  7 33  1  0  0  0  0
  8  9  1  0  0  0  0
  8 34  1  0  0  0  0
  8 35  1  0  0  0  0
  9 19  1  0  0  0  0
  9 10  1  0  0  0  0
 10 11  2  0  0  0  0
 10 36  1  0  0  0  0
 11 12  1  0  0  0  0
 12 19  2  0  0  0  0
 12 13  1  0  0  0  0
 13 14  2  0  0  0  0
 13 37  1  0  0  0  0
 14 15  1  0  0  0  0
 14 16  1  0  0  0  0
 16 17  1  0  0  0  0
 16 18  2  0  0  0  0
 18 19  1  0  0  0  0
 18 38  1  0  0  0  0
 20 21  1  0  0  0  0
 20 39  1  0  0  0  0
 20 40  1  0  0  0  0
 21 22  1  0  0  0  0
 21 23  1  0  0  0  0
 21 41  1  0  0  0  0
 22 42  1  0  0  0  0
 22 43  1  0  0  0  0
 22 44  1  0  0  0  0
M  CHG  1   4   1
M  END
> <s_m_source_file>
AV-unprocessed.smi

> <i_m_source_file_index>
1824

> <i_lp_mmshare_version>
43012

> <i_f3d_flags>
0

> <s_epik_input>
W0NIM11bQ0BASF0xW0NIMl1OKFtDSDJdW0NASF0oTzEpW0NIM10pW0NIMl1bQ0BIXShbT0hdKVtDSDJdbihbY0hdbjIpYyhjMjMpW2NIXWMoRiljKEYpW2NIXTM=

> <s_epik_cmdline>
J2VwaWtfcHl0aG9uJywgJy1waCcsICc3LjAnLCAnLXRuJywgJzgnLCAnLW1hJywgJzIwMCcsICctbWV0YWxfYmluZGluZycsICctaW1hZScsICc8aW5maWxlLm1hZT4nLCAnLW9tYWUnLCAnPG91dGZpbGUubWFlPic=

> <r_epik_Ionization_Penalty>
0.61967

> <r_epik_Ionization_Penalty_Charging>
0.608065

> <r_epik_Ionization_Penalty_Neutral>
0.0116057

> <r_epik_State_Penalty>
0.664205

> <r_epik_Charging_Adjusted_Penalty>
1.27227

> <i_epik_Tot_Q>
1

> <i_epik_Tot_abs_Q>
1

> <r_epik_Metal_State_Penalty>
0.654947

> <b_epik_Metal_Only>
0

> <s_lp_Force_Field>
OPLS_2005

> <r_lp_Energy>
20.1531

> <b_lp_Chiralities_Consistent>
1

> <s_lp_Variant>
AV-unprocessed.smi:1824-13

> <Gold.Version>
5.8.1

> <Gold.Id.Protein>
6NUR|6NUR_protein|mol2

> <Gold.PLP.Fitness>
59.4849

> <Gold.PLP.PLP>
-47.1254

> <Gold.PLP.part.hbond>
-4.2348

> <Gold.PLP.part.metal>
0.0000

> <Gold.PLP.part.buried>
-2.8755

> <Gold.PLP.part.nonpolar>
-38.6921

> <Gold.PLP.part.repulsive>
0.1957

> <Gold.PLP.ligand.clash>
0.0000

> <Gold.PLP.ligand.torsion>
0.7975

> <Gold.PLP.Chemscore.Hbond>
4.6438

> <Gold.PLP.Chemscore.CHOScore>
0.0000

> <Gold.PLP.Chemscore.Metal>
0.0000

> <Gold.Chemscore.Hbonds>
donor molecule, donor type, donor heavy atom, donor atom, acceptor molecule, acceptor atom, score
      L1  H     4    45       P1  8028  1.89
      L1  H     7    33       P1  7957  0.54
      P1  H  7989  7998       L1     7  0.35
      P1  H  7997  8009       L1    11  0.83
      P1  H  8011  8017       L1     7  0.95

> <Gold.PLP.Chemscore.Internal.Correction>
0.0231

> <Gold.Rescore>
     Score         DG    S(hbond)    S(metal)    S(lipo)     H(rot)  DE(clash)    DE(int)     intcor
     16.34     -20.26       2.58        0.00     103.64       2.33       2.09       1.84       ----

> <Gold.Chemscore.Fitness>
16.3354

> <Gold.Chemscore.DG>
-20.2630

> <Gold.Chemscore.ZeroCoef>
-5.4800

> <Gold.Chemscore.Hbond>
2.5775

> <Gold.Chemscore.Metal>
0.0000

> <Gold.Chemscore.Lipo>
103.6439

> <Gold.Chemscore.Internal_Hbond>
0.0000

> <Gold.Chemscore.DEClash>
2.0852

> <Gold.Chemscore.DEInternal>
1.8424

> <Gold.Chemscore.Rot>
2.3251

> <Gold.Chemscore.Internal.Correction>
   9.000000E+99

> <Gold.Chemscore.Hbonds>
donor molecule, donor type, donor heavy atom, donor atom, acceptor molecule, acceptor atom, score
      L1  H     4    45       P1  8028  0.23
      L1  H     7    33       P1  7957  0.54
      P1  H  7989  7998       L1     7  0.34
      P1  H  7997  8009       L1    11  0.38
      P1  H  8011  8017       L1     7  0.10

> <Gold.Chemscore.Hbond.Weighted>
-8.6090

> <Gold.Chemscore.Metal.Weighted>
-0.0000

> <Gold.Chemscore.Lipo.Weighted>
-12.1263

> <Gold.Chemscore.Internal_Hbond.Weighted>
0.0000

> <Gold.Chemscore.DEClash.Weighted>
2.0852

> <Gold.Chemscore.DEInternal.Weighted>
1.8424

> <Gold.Chemscore.Rot.Weighted>
5.9523

> <Gold.Chemscore.Internal.Correction.Weighted>
   9.000000E+99

> <Gold.Protein.RotatedTorsions>
[ 6907 6896 6895 6894 ] final -152.19 input  -60.11 | X-H torsion
[ 7974 7965 7964 7962 ] final -105.37 input  175.53 | X-H torsion
[ 8008 7997 7996 7995 ] final  176.49 input   59.86 | X-H torsion
[ 10167 10162 10161 10158 ] final    8.61 input  -65.29 | X-H torsion
[ 10718 10713 10712 10709 ] final   92.44 input   66.30 | X-H torsion
[ 10763 10752 10751 10750 ] final  -13.06 input  -60.55 | X-H torsion
[ 11005 11000 10999 10996 ] final -178.14 input  -57.11 | X-H torsion

> <Gold.Protein.ActiveResidues>
 VAL166  LYS551  ARG553  GLY616  TRP617  ASP618  TYR619  PRO620  LYS621  CYS622 
 ASP623  PHE694  ASN695  SER759  ASP760  ASP761  ALA762  ILE779  LEU786  VAL792 
 PHE793  MET794  SER795  GLU796  ALA797  LYS798  CYS799  TRP800  GLU811  SER814 

> <Gold.Protein.RotatedAtoms>
  151.2241  133.4486  159.2601 H   0  0  0  0  0  0  0  0  0  0  0  0  # atno 6907 bound_to 6896
  151.0856  134.9885  159.8388 H   0  0  0  0  0  0  0  0  0  0  0  0  # atno 6908 bound_to 6896
  152.5429  134.2178  159.8828 H   0  0  0  0  0  0  0  0  0  0  0  0  # atno 6909 bound_to 6896
  145.2313  140.9171  143.3203 H   0  0  0  0  0  0  0  0  0  0  0  0  # atno 7974 bound_to 7965
  156.0759  140.1382  156.9772 H   0  0  0  0  0  0  0  0  0  0  0  0  # atno 8008 bound_to 7997
  154.4557  140.0962  156.6801 H   0  0  0  0  0  0  0  0  0  0  0  0  # atno 8009 bound_to 7997
  155.5154  140.3455  155.4398 H   0  0  0  0  0  0  0  0  0  0  0  0  # atno 8010 bound_to 7997
  140.6304  143.8006  150.7288 H   0  0  0  0  0  0  0  0  0  0  0  0  # atno 10167 bound_to 10162
  157.6958  131.0443  150.3882 H   0  0  0  0  0  0  0  0  0  0  0  0  # atno 10718 bound_to 10713
  153.5077  135.7016  153.5798 H   0  0  0  0  0  0  0  0  0  0  0  0  # atno 10763 bound_to 10752
  153.3901  135.3898  155.1917 H   0  0  0  0  0  0  0  0  0  0  0  0  # atno 10764 bound_to 10752
  154.8706  135.3856  154.4554 H   0  0  0  0  0  0  0  0  0  0  0  0  # atno 10765 bound_to 10752
  140.4331  134.6501  157.4721 H   0  0  0  0  0  0  0  0  0  0  0  0  # atno 11005 bound_to 11000
  144.9674  139.3916  143.6326 LP  0  0  0  0  0  0  0  0  0  0  0  0  # atno 17320 bound_to 7965
  146.3352  139.8756  142.8833 LP  0  0  0  0  0  0  0  0  0  0  0  0  # atno 17321 bound_to 7965
  140.1616  143.4270  152.2063 LP  0  0  0  0  0  0  0  0  0  0  0  0  # atno 17342 bound_to 10162
  139.5519  144.7344  151.4409 LP  0  0  0  0  0  0  0  0  0  0  0  0  # atno 17343 bound_to 10162
  156.4288  130.3968  149.6774 LP  0  0  0  0  0  0  0  0  0  0  0  0  # atno 17370 bound_to 10713
  156.3999  130.7669  151.2676 LP  0  0  0  0  0  0  0  0  0  0  0  0  # atno 17371 bound_to 10713
  140.0121  134.6675  155.9365 LP  0  0  0  0  0  0  0  0  0  0  0  0  # atno 17394 bound_to 11000
  141.1737  133.6539  156.4748 LP  0  0  0  0  0  0  0  0  0  0  0  0  # atno 17395 bound_to 11000

$$$$
