AV-unprocessed.smi:2524|AV-procd|sdf|9925|dock7
  -GOLD-   2272013563D 1   1.00000     0.00000
 Structure written by MMmdl.
 36 37  0  0  0  0  0  0  0  0  3 V2000
  153.7487  137.4003  161.7970 C   0  0  0  0  0  0  0  0  0  0  0  0
  154.7894  136.6221  161.4641 C   0  0  0  0  0  0  0  0  0  0  0  0
  154.8652  135.7843  160.2050 C   0  0  0  0  0  0  0  0  0  0  0  0
  155.1534  136.6404  158.9659 C   0  0  0  0  0  0  0  0  0  0  0  0
  153.5852  137.2660  158.2119 S   0  0  0  0  0  0  0  0  0  0  0  0
  153.5025  136.6632  156.8706 O   0  0  0  0  0  0  0  0  0  0  0  0
  152.5269  136.8958  159.1638 O   0  0  0  0  0  0  0  0  0  0  0  0
  153.8271  138.8736  158.1994 N   0  5  0  0  0  0  0  0  0  0  0  0
  152.7653  139.8004  158.5729 C   0  0  0  0  0  0  0  0  0  0  0  0
  153.2550  140.9192  159.5159 C   0  0  0  0  0  0  0  0  0  0  0  0
  152.4468  142.1798  159.3088 C   0  0  0  0  0  0  0  0  0  0  0  0
  151.2079  142.1481  158.6222 C   0  0  0  0  0  0  0  0  0  0  0  0
  150.4812  143.3408  158.4324 C   0  0  0  0  0  0  0  0  0  0  0  0
  150.9725  144.5085  158.8992 N   0  3  0  0  0  0  0  0  0  0  0  0
  152.1509  144.5947  159.5521 C   0  0  0  0  0  0  0  0  0  0  0  0
  152.9187  143.4331  159.7706 C   0  0  0  0  0  0  0  0  0  0  0  0
  153.7544  140.6231  160.9230 C   0  0  0  0  0  0  0  0  0  0  0  0
  154.7276  141.0817  159.8633 C   0  0  0  0  0  0  0  0  0  0  0  0
  152.8774  137.4732  161.1628 H   0  0  0  0  0  0  0  0  0  0  0  0
  153.7557  137.9753  162.7111 H   0  0  0  0  0  0  0  0  0  0  0  0
  155.6444  136.5739  162.1226 H   0  0  0  0  0  0  0  0  0  0  0  0
  155.6367  135.0214  160.3169 H   0  0  0  0  0  0  0  0  0  0  0  0
  153.9175  135.2587  160.0854 H   0  0  0  0  0  0  0  0  0  0  0  0
  155.7696  137.5012  159.2263 H   0  0  0  0  0  0  0  0  0  0  0  0
  155.6911  136.0565  158.2194 H   0  0  0  0  0  0  0  0  0  0  0  0
  152.3280  140.2804  157.6966 H   0  0  0  0  0  0  0  0  0  0  0  0
  151.9443  139.2780  159.0653 H   0  0  0  0  0  0  0  0  0  0  0  0
  150.8166  141.2127  158.2488 H   0  0  0  0  0  0  0  0  0  0  0  0
  149.5294  143.3949  157.9246 H   0  0  0  0  0  0  0  0  0  0  0  0
  152.4428  145.5825  159.8773 H   0  0  0  0  0  0  0  0  0  0  0  0
  153.8624  143.5002  160.2926 H   0  0  0  0  0  0  0  0  0  0  0  0
  153.5110  141.3341  161.7097 H   0  0  0  0  0  0  0  0  0  0  0  0
  153.8625  139.5930  161.2603 H   0  0  0  0  0  0  0  0  0  0  0  0
  155.4528  140.3438  159.5228 H   0  0  0  0  0  0  0  0  0  0  0  0
  155.1196  142.0923  159.9597 H   0  0  0  0  0  0  0  0  0  0  0  0
  150.4314  145.3609  158.7515 H   0  0  0  0  0  0  0  0  0  0  0  0
  1  2  2  0  0  0  0
  1 19  1  0  0  0  0
  1 20  1  0  0  0  0
  2  3  1  0  0  0  0
  2 21  1  0  0  0  0
  3  4  1  0  0  0  0
  3 22  1  0  0  0  0
  3 23  1  0  0  0  0
  4  5  1  0  0  0  0
  4 24  1  0  0  0  0
  4 25  1  0  0  0  0
  5  6  2  0  0  0  0
  5  7  2  0  0  0  0
  5  8  1  0  0  0  0
  8  9  1  0  0  0  0
  9 10  1  0  0  0  0
  9 26  1  0  0  0  0
  9 27  1  0  0  0  0
 10 18  1  0  0  0  0
 10 11  1  0  0  0  0
 10 17  1  0  0  0  0
 11 16  1  0  0  0  0
 11 12  2  0  0  0  0
 12 13  1  0  0  0  0
 12 28  1  0  0  0  0
 13 14  2  0  0  0  0
 13 29  1  0  0  0  0
 14 15  1  0  0  0  0
 14 36  1  0  0  0  0
 15 16  2  0  0  0  0
 15 30  1  0  0  0  0
 16 31  1  0  0  0  0
 17 18  1  0  0  0  0
 17 32  1  0  0  0  0
 17 33  1  0  0  0  0
 18 34  1  0  0  0  0
 18 35  1  0  0  0  0
M  CHG  1   8  -1
M  CHG  1  14   1
M  END
> <s_m_source_file>
AV-unprocessed.smi

> <i_m_source_file_index>
2524

> <i_lp_mmshare_version>
43012

> <i_f3d_flags>
0

> <s_epik_input>
W0NIMl09W0NIXVtDSDJdW0NIMl1TKD1PKSg9TylbTkhdW0NIMl1DMShbQ0gyXVtDSDJdMSljMltjSF1bY0hdbltjSF1bY0hdMg==

> <s_epik_cmdline>
J2VwaWtfcHl0aG9uJywgJy1waCcsICc3LjAnLCAnLXRuJywgJzgnLCAnLW1hJywgJzIwMCcsICctbWV0YWxfYmluZGluZycsICctaW1hZScsICc8aW5maWxlLm1hZT4nLCAnLW9tYWUnLCAnPG91dGZpbGUubWFlPic=

> <r_epik_Ionization_Penalty>
7.77019

> <r_epik_Ionization_Penalty_Charging>
7.77019

> <r_epik_Ionization_Penalty_Neutral>
0

> <r_epik_State_Penalty>
8.15763

> <r_epik_Charging_Adjusted_Penalty>
15.9278

> <i_epik_Tot_Q>
0

> <i_epik_Tot_abs_Q>
2

> <r_epik_Metal_State_Penalty>
4.11642

> <b_epik_Metal_Only>
1

> <s_lp_Force_Field>
OPLS_2005

> <r_lp_Energy>
17.0566

> <b_lp_Chiralities_Consistent>
1

> <s_lp_Variant>
AV-unprocessed.smi:2524-4

> <Gold.Version>
5.8.1

> <Gold.Id.Protein>
6NUR|6NUR_protein|mol2

> <Gold.PLP.Fitness>
44.5370

> <Gold.PLP.PLP>
-34.2896

> <Gold.PLP.part.hbond>
-3.0000

> <Gold.PLP.part.metal>
0.0000

> <Gold.PLP.part.buried>
-4.8657

> <Gold.PLP.part.nonpolar>
-26.9756

> <Gold.PLP.part.repulsive>
0.1144

> <Gold.PLP.ligand.clash>
0.0000

> <Gold.PLP.ligand.torsion>
2.1040

> <Gold.PLP.Chemscore.Hbond>
4.0000

> <Gold.PLP.Chemscore.CHOScore>
0.0000

> <Gold.PLP.Chemscore.Metal>
0.0000

> <Gold.Chemscore.Hbonds>
donor molecule, donor type, donor heavy atom, donor atom, acceptor molecule, acceptor atom, score
      P1  H  6896  6909       L1     7  0.88
      P1  H  7997  8009       L1     8  2.00
      P1  H 10752 10764       L1     6  0.98

> <Gold.PLP.Chemscore.Internal.Correction>
2.4554

> <Gold.Rescore>
     Score         DG    S(hbond)    S(metal)    S(lipo)     H(rot)  DE(clash)    DE(int)     intcor
     18.30     -20.55       2.27        0.00     101.28       1.70       0.00       2.25       ----

> <Gold.Chemscore.Fitness>
18.2998

> <Gold.Chemscore.DG>
-20.5542

> <Gold.Chemscore.ZeroCoef>
-5.4800

> <Gold.Chemscore.Hbond>
2.2698

> <Gold.Chemscore.Metal>
0.0000

> <Gold.Chemscore.Lipo>
101.2835

> <Gold.Chemscore.Internal_Hbond>
0.0000

> <Gold.Chemscore.DEClash>
0.0000

> <Gold.Chemscore.DEInternal>
2.2545

> <Gold.Chemscore.Rot>
1.7020

> <Gold.Chemscore.Internal.Correction>
   9.000000E+99

> <Gold.Chemscore.Hbonds>
donor molecule, donor type, donor heavy atom, donor atom, acceptor molecule, acceptor atom, score
      P1  H  6896  6909       L1     7  0.80
      P1  H  7997  8009       L1     8  0.29
      P1  H 10752 10764       L1     6  0.91

> <Gold.Chemscore.Hbond.Weighted>
-7.5813

> <Gold.Chemscore.Metal.Weighted>
-0.0000

> <Gold.Chemscore.Lipo.Weighted>
-11.8502

> <Gold.Chemscore.Internal_Hbond.Weighted>
0.0000

> <Gold.Chemscore.DEClash.Weighted>
0.0000

> <Gold.Chemscore.DEInternal.Weighted>
2.2545

> <Gold.Chemscore.Rot.Weighted>
4.3572

> <Gold.Chemscore.Internal.Correction.Weighted>
   9.000000E+99

> <Gold.Protein.RotatedTorsions>
[ 6907 6896 6895 6894 ] final  138.15 input  -60.11 | X-H torsion
[ 7974 7965 7964 7962 ] final  119.05 input  175.53 | X-H torsion
[ 8008 7997 7996 7995 ] final  126.89 input   59.86 | X-H torsion
[ 10167 10162 10161 10158 ] final  132.00 input  -65.29 | X-H torsion
[ 10718 10713 10712 10709 ] final -180.00 input   66.30 | X-H torsion
[ 10763 10752 10751 10750 ] final    8.71 input  -60.55 | X-H torsion
[ 11005 11000 10999 10996 ] final  171.20 input  -57.11 | X-H torsion

> <Gold.Protein.ActiveResidues>
 VAL166  LYS551  ARG553  GLY616  TRP617  ASP618  TYR619  PRO620  LYS621  CYS622 
 ASP623  PHE694  ASN695  SER759  ASP760  ASP761  ALA762  ILE779  LEU786  VAL792 
 PHE793  MET794  SER795  GLU796  ALA797  LYS798  CYS799  TRP800  GLU811  SER814 

> <Gold.Protein.RotatedAtoms>
  152.2700  133.5373  159.5432 H   0  0  0  0  0  0  0  0  0  0  0  0  # atno 6907 bound_to 6896
  150.7155  134.0711  159.3874 H   0  0  0  0  0  0  0  0  0  0  0  0  # atno 6908 bound_to 6896
  151.8626  135.0518  160.0522 H   0  0  0  0  0  0  0  0  0  0  0  0  # atno 6909 bound_to 6896
  145.1478  139.3228  143.4582 H   0  0  0  0  0  0  0  0  0  0  0  0  # atno 7974 bound_to 7965
  156.2876  140.2682  156.2184 H   0  0  0  0  0  0  0  0  0  0  0  0  # atno 8008 bound_to 7997
  155.0193  140.0386  157.2449 H   0  0  0  0  0  0  0  0  0  0  0  0  # atno 8009 bound_to 7997
  154.7450  140.2732  155.6346 H   0  0  0  0  0  0  0  0  0  0  0  0  # atno 8010 bound_to 7997
  139.5359  144.6681  151.4789 H   0  0  0  0  0  0  0  0  0  0  0  0  # atno 10167 bound_to 10162
  156.8674  130.9772  151.3077 H   0  0  0  0  0  0  0  0  0  0  0  0  # atno 10718 bound_to 10713
  153.2220  135.6882  153.7989 H   0  0  0  0  0  0  0  0  0  0  0  0  # atno 10763 bound_to 10752
  153.7184  135.3271  155.3262 H   0  0  0  0  0  0  0  0  0  0  0  0  # atno 10764 bound_to 10752
  154.8274  135.4607  154.1071 H   0  0  0  0  0  0  0  0  0  0  0  0  # atno 10765 bound_to 10752
  140.3164  134.7473  157.4031 H   0  0  0  0  0  0  0  0  0  0  0  0  # atno 11005 bound_to 11000
  146.3498  140.1541  142.8592 LP  0  0  0  0  0  0  0  0  0  0  0  0  # atno 17320 bound_to 7965
  145.0463  140.8984  143.5022 LP  0  0  0  0  0  0  0  0  0  0  0  0  # atno 17321 bound_to 7965
  140.6564  143.8590  150.6840 LP  0  0  0  0  0  0  0  0  0  0  0  0  # atno 17342 bound_to 10162
  140.1971  143.3989  152.1820 LP  0  0  0  0  0  0  0  0  0  0  0  0  # atno 17343 bound_to 10162
  157.6215  130.8659  149.9117 LP  0  0  0  0  0  0  0  0  0  0  0  0  # atno 17370 bound_to 10713
  156.0744  130.3681  150.0708 LP  0  0  0  0  0  0  0  0  0  0  0  0  # atno 17371 bound_to 10713
  140.0979  134.5512  155.8380 LP  0  0  0  0  0  0  0  0  0  0  0  0  # atno 17394 bound_to 11000
  141.2096  133.6686  156.6454 LP  0  0  0  0  0  0  0  0  0  0  0  0  # atno 17395 bound_to 11000

$$$$
