AV-unprocessed.smi:1180|AV-procd|sdf|4965|dock4
  -GOLD-   22720 3553D 1   1.00000     0.00000
 Structure written by MMmdl.
 37 38  0  0  0  0  0  0  0  0  2 V2000
  154.2316  137.2853  157.4392 C   0  0  0  0  0  0  0  0  0  0  0  0
  153.0271  137.5891  156.5740 C   0  0  0  0  0  0  0  0  0  0  0  0
  152.2889  136.6268  156.1692 N   0  0  0  0  0  0  0  0  0  0  0  0
  151.1697  136.9037  155.3657 C   0  0  0  0  0  0  0  0  0  0  0  0
  150.3494  135.7008  154.9339 C   0  0  0  0  0  0  0  0  0  0  0  0
  150.8568  138.1822  155.0082 C   0  0  0  0  0  0  0  0  0  0  0  0
  149.6515  138.5372  154.1376 C   0  0  0  0  0  0  0  0  0  0  0  0
  148.2895  138.1212  154.6949 C   0  0  0  0  0  0  0  0  0  0  0  0
  147.7809  138.7576  155.6175 O   0  0  0  0  0  0  0  0  0  0  0  0
  147.7073  137.0584  154.1181 N   0  0  0  0  0  0  0  0  0  0  0  0
  146.4199  136.4849  154.4950 C   0  0  0  0  0  0  0  0  0  0  0  0
  145.6873  135.8718  153.2868 C   0  0  1  0  0  0  0  0  0  0  0  0
  145.6344  136.7833  152.0780 C   0  0  0  0  0  0  0  0  0  0  0  0
  145.3014  135.8036  150.9564 C   0  0  0  0  0  0  0  0  0  0  0  0
  145.8881  134.5619  151.3363 O   0  0  0  0  0  0  0  0  0  0  0  0
  146.3488  134.6312  152.6825 C   0  0  0  0  0  0  0  0  0  0  0  0
  151.7384  139.2617  155.4882 C   0  0  0  0  0  0  0  0  0  0  0  0
  151.5142  140.4307  155.1757 O   0  0  0  0  0  0  0  0  0  0  0  0
  152.8001  138.9123  156.2690 N   0  5  0  0  0  0  0  0  0  0  0  0
  154.2629  136.2301  157.7144 H   0  0  0  0  0  0  0  0  0  0  0  0
  154.1993  137.8752  158.3558 H   0  0  0  0  0  0  0  0  0  0  0  0
  155.1502  137.5271  156.9038 H   0  0  0  0  0  0  0  0  0  0  0  0
  150.2784  135.6538  153.8473 H   0  0  0  0  0  0  0  0  0  0  0  0
  149.3424  135.7568  155.3470 H   0  0  0  0  0  0  0  0  0  0  0  0
  150.8015  134.7703  155.2788 H   0  0  0  0  0  0  0  0  0  0  0  0
  149.6423  139.6157  153.9790 H   0  0  0  0  0  0  0  0  0  0  0  0
  149.7597  138.1165  153.1375 H   0  0  0  0  0  0  0  0  0  0  0  0
  148.2059  136.6025  153.3666 H   0  0  0  0  0  0  0  0  0  0  0  0
  146.6118  135.7082  155.2355 H   0  0  0  0  0  0  0  0  0  0  0  0
  145.7936  137.2285  154.9908 H   0  0  0  0  0  0  0  0  0  0  0  0
  144.6644  135.6201  153.5725 H   0  0  0  0  0  0  0  0  0  0  0  0
  144.8989  137.5828  152.1748 H   0  0  0  0  0  0  0  0  0  0  0  0
  146.6108  137.2368  151.9000 H   0  0  0  0  0  0  0  0  0  0  0  0
  144.2223  135.6662  150.8786 H   0  0  0  0  0  0  0  0  0  0  0  0
  145.6705  136.1404  149.9874 H   0  0  0  0  0  0  0  0  0  0  0  0
  147.4341  134.7409  152.6660 H   0  0  0  0  0  0  0  0  0  0  0  0
  146.1099  133.7201  153.2316 H   0  0  0  0  0  0  0  0  0  0  0  0
  1  2  1  0  0  0  0
  1 20  1  0  0  0  0
  1 21  1  0  0  0  0
  1 22  1  0  0  0  0
  2 19  1  0  0  0  0
  2  3  2  0  0  0  0
  3  4  1  0  0  0  0
  4  5  1  0  0  0  0
  4  6  2  0  0  0  0
  5 23  1  0  0  0  0
  5 24  1  0  0  0  0
  5 25  1  0  0  0  0
  6  7  1  0  0  0  0
  6 17  1  0  0  0  0
  7  8  1  0  0  0  0
  7 26  1  0  0  0  0
  7 27  1  0  0  0  0
  8  9  2  0  0  0  0
  8 10  1  0  0  0  0
 10 11  1  0  0  0  0
 10 28  1  0  0  0  0
 11 12  1  0  0  0  0
 11 29  1  0  0  0  0
 11 30  1  0  0  0  0
 12 16  1  0  0  0  0
 12 13  1  0  0  0  0
 12 31  1  0  0  0  0
 13 14  1  0  0  0  0
 13 32  1  0  0  0  0
 13 33  1  0  0  0  0
 14 15  1  0  0  0  0
 14 34  1  0  0  0  0
 14 35  1  0  0  0  0
 15 16  1  0  0  0  0
 16 36  1  0  0  0  0
 16 37  1  0  0  0  0
 17 18  2  0  0  0  0
 17 19  1  0  0  0  0
M  CHG  1  19  -1
M  END
> <s_m_source_file>
AV-unprocessed.smi

> <i_m_source_file_index>
1180

> <i_lp_mmshare_version>
43012

> <i_f3d_flags>
0

> <s_epik_input>
W0NIM11jMW5jKFtDSDNdKWMoYyg9TylbbkhdMSlbQ0gyXUMoPU8pW05IXVtDSDJdW0NAQEhdMltDSDJdW0NIMl1PW0NIMl0y

> <s_epik_cmdline>
J2VwaWtfcHl0aG9uJywgJy1waCcsICc3LjAnLCAnLXRuJywgJzgnLCAnLW1hJywgJzIwMCcsICctbWV0YWxfYmluZGluZycsICctaW1hZScsICc8aW5maWxlLm1hZT4nLCAnLW9tYWUnLCAnPG91dGZpbGUubWFlPic=

> <r_lp_tautomer_probability>
0.839158

> <r_epik_Ionization_Penalty>
6.60319

> <r_epik_Ionization_Penalty_Charging>
6.85407e-08

> <r_epik_Ionization_Penalty_Neutral>
6.60319

> <r_epik_State_Penalty>
4.42883

> <r_epik_Charging_Adjusted_Penalty>
4.42883

> <i_epik_Tot_Q>
-1

> <i_epik_Tot_abs_Q>
1

> <r_epik_Metal_State_Penalty>
0.797578

> <b_epik_Metal_Only>
1

> <s_lp_Force_Field>
OPLS_2005

> <r_lp_Energy>
23.195

> <b_lp_Chiralities_Consistent>
1

> <s_lp_Variant>
AV-unprocessed.smi:1180-6

> <Gold.Version>
5.8.1

> <Gold.Id.Protein>
6NUR|6NUR_protein|mol2

> <Gold.PLP.Fitness>
38.2552

> <Gold.PLP.PLP>
-24.3996

> <Gold.PLP.part.hbond>
-4.0000

> <Gold.PLP.part.metal>
0.0000

> <Gold.PLP.part.buried>
-2.5991

> <Gold.PLP.part.nonpolar>
-18.8581

> <Gold.PLP.part.repulsive>
0.2137

> <Gold.PLP.ligand.clash>
0.0000

> <Gold.PLP.ligand.torsion>
0.4230

> <Gold.PLP.Chemscore.Hbond>
4.8960

> <Gold.PLP.Chemscore.CHOScore>
0.0000

> <Gold.PLP.Chemscore.Metal>
0.0000

> <Gold.Chemscore.Hbonds>
donor molecule, donor type, donor heavy atom, donor atom, acceptor molecule, acceptor atom, score
      L1  H    10    28       P1  7948  1.00
      P1  H  7989  7998       L1    18  0.90
      P1  H  7997  8009       L1    19  2.00
      P1  H 10752 10764       L1     3  1.00

> <Gold.PLP.Chemscore.Internal.Correction>
0.0137

> <Gold.Rescore>
     Score         DG    S(hbond)    S(metal)    S(lipo)     H(rot)  DE(clash)    DE(int)     intcor
     15.76     -16.93       3.15        0.00      46.41       1.76       0.03       1.14       ----

> <Gold.Chemscore.Fitness>
15.7578

> <Gold.Chemscore.DG>
-16.9335

> <Gold.Chemscore.ZeroCoef>
-5.4800

> <Gold.Chemscore.Hbond>
3.1506

> <Gold.Chemscore.Metal>
0.0000

> <Gold.Chemscore.Lipo>
46.4121

> <Gold.Chemscore.Internal_Hbond>
0.0000

> <Gold.Chemscore.DEClash>
0.0336

> <Gold.Chemscore.DEInternal>
1.1421

> <Gold.Chemscore.Rot>
1.7577

> <Gold.Chemscore.Internal.Correction>
   9.000000E+99

> <Gold.Chemscore.Hbonds>
donor molecule, donor type, donor heavy atom, donor atom, acceptor molecule, acceptor atom, score
      L1  H    10    28       P1  7948  1.00
      P1  H  7989  7998       L1    18  0.85
      P1  H  7997  8009       L1    19  0.77
      P1  H 10752 10764       L1     3  0.28

> <Gold.Chemscore.Hbond.Weighted>
-10.5231

> <Gold.Chemscore.Metal.Weighted>
-0.0000

> <Gold.Chemscore.Lipo.Weighted>
-5.4302

> <Gold.Chemscore.Internal_Hbond.Weighted>
0.0000

> <Gold.Chemscore.DEClash.Weighted>
0.0336

> <Gold.Chemscore.DEInternal.Weighted>
1.1421

> <Gold.Chemscore.Rot.Weighted>
4.4998

> <Gold.Chemscore.Internal.Correction.Weighted>
   9.000000E+99

> <Gold.Protein.RotatedTorsions>
[ 6907 6896 6895 6894 ] final  -53.90 input  -60.11 | X-H torsion
[ 7974 7965 7964 7962 ] final  -59.86 input  175.53 | X-H torsion
[ 8008 7997 7996 7995 ] final  178.73 input   59.86 | X-H torsion
[ 10167 10162 10161 10158 ] final  114.92 input  -65.29 | X-H torsion
[ 10718 10713 10712 10709 ] final  133.94 input   66.30 | X-H torsion
[ 10763 10752 10751 10750 ] final  -23.99 input  -60.55 | X-H torsion
[ 11005 11000 10999 10996 ] final  172.09 input  -57.11 | X-H torsion

> <Gold.Protein.ActiveResidues>
 VAL166  LYS551  ARG553  GLY616  TRP617  ASP618  TYR619  PRO620  LYS621  CYS622 
 ASP623  PHE694  ASN695  SER759  ASP760  ASP761  ALA762  ILE779  LEU786  VAL792 
 PHE793  MET794  SER795  GLU796  ALA797  LYS798  CYS799  TRP800  GLU811  SER814 

> <Gold.Protein.RotatedAtoms>
  150.8385  134.7668  159.6912 H   0  0  0  0  0  0  0  0  0  0  0  0  # atno 6907 bound_to 6896
  152.4477  134.5456  159.9861 H   0  0  0  0  0  0  0  0  0  0  0  0  # atno 6908 bound_to 6896
  151.5601  133.3367  159.3005 H   0  0  0  0  0  0  0  0  0  0  0  0  # atno 6909 bound_to 6896
  145.8225  140.8531  143.0125 H   0  0  0  0  0  0  0  0  0  0  0  0  # atno 7974 bound_to 7965
  156.0514  140.1326  157.0046 H   0  0  0  0  0  0  0  0  0  0  0  0  # atno 8008 bound_to 7997
  154.4437  140.1010  156.6452 H   0  0  0  0  0  0  0  0  0  0  0  0  # atno 8009 bound_to 7997
  155.5517  140.3463  155.4472 H   0  0  0  0  0  0  0  0  0  0  0  0  # atno 8010 bound_to 7997
  139.6354  144.7119  151.2346 H   0  0  0  0  0  0  0  0  0  0  0  0  # atno 10167 bound_to 10162
  157.4722  131.1081  150.9788 H   0  0  0  0  0  0  0  0  0  0  0  0  # atno 10718 bound_to 10713
  153.6766  135.6969  153.5131 H   0  0  0  0  0  0  0  0  0  0  0  0  # atno 10763 bound_to 10752
  153.2517  135.4273  155.0803 H   0  0  0  0  0  0  0  0  0  0  0  0  # atno 10764 bound_to 10752
  154.8412  135.3533  154.6310 H   0  0  0  0  0  0  0  0  0  0  0  0  # atno 10765 bound_to 10752
  140.3260  134.7398  157.4099 H   0  0  0  0  0  0  0  0  0  0  0  0  # atno 11005 bound_to 11000
  144.6746  140.0554  143.7477 LP  0  0  0  0  0  0  0  0  0  0  0  0  # atno 17320 bound_to 7965
  145.9660  139.2834  143.1127 LP  0  0  0  0  0  0  0  0  0  0  0  0  # atno 17321 bound_to 7965
  140.7462  143.6406  150.8338 LP  0  0  0  0  0  0  0  0  0  0  0  0  # atno 17342 bound_to 10162
  140.0036  143.5717  152.2866 LP  0  0  0  0  0  0  0  0  0  0  0  0  # atno 17343 bound_to 10162
  157.0549  130.5802  149.5376 LP  0  0  0  0  0  0  0  0  0  0  0  0  # atno 17370 bound_to 10713
  156.0079  130.5168  150.7892 LP  0  0  0  0  0  0  0  0  0  0  0  0  # atno 17371 bound_to 10713
  140.0901  134.5612  155.8452 LP  0  0  0  0  0  0  0  0  0  0  0  0  # atno 17394 bound_to 11000
  141.2075  133.6665  156.6311 LP  0  0  0  0  0  0  0  0  0  0  0  0  # atno 17395 bound_to 11000

$$$$
