AV-unprocessed.smi:1521|AV-procd|sdf|6130|dock4
  -GOLD-   22720 6273D 1   1.00000     0.00000
 Structure written by MMmdl.
 36 37  0  0  0  0  0  0  0  0  1 V2000
  154.4710  140.1982  159.2261 O   0  0  0  0  0  0  0  0  0  0  0  0
  154.9247  140.2341  160.3698 C   0  0  0  0  0  0  0  0  0  0  0  0
  155.8416  139.3690  160.8248 N   0  0  0  0  0  0  0  0  0  0  0  0
  156.4342  138.2861  160.0472 C   0  0  0  0  0  0  0  0  0  0  0  0
  155.3626  137.3241  159.5067 C   0  0  2  0  0  0  0  0  0  0  0  0
  154.6433  136.5663  160.6405 C   0  0  0  0  0  0  0  0  0  0  0  0
  153.7019  135.6613  160.0781 O   0  0  0  0  0  0  0  0  0  0  0  0
  154.3379  134.7144  159.2305 C   0  0  0  0  0  0  0  0  0  0  0  0
  155.0599  135.4617  158.0972 C   0  0  0  0  0  0  0  0  0  0  0  0
  155.9976  136.3666  158.6651 O   0  0  0  0  0  0  0  0  0  0  0  0
  154.6011  141.1331  161.3173 N   0  0  0  0  0  0  0  0  0  0  0  0
  153.6624  142.1770  161.2636 C   0  0  0  0  0  0  0  0  0  0  0  0
  153.0219  142.5842  160.1366 C   0  0  0  0  0  0  0  0  0  0  0  0
  152.0454  143.6607  160.1507 C   0  0  0  0  0  0  0  0  0  0  0  0
  151.3933  144.1620  158.8714 C   0  0  0  0  0  0  0  0  0  0  0  0
  150.5939  145.2021  159.1115 F   0  0  0  0  0  0  0  0  0  0  0  0
  152.3119  144.5370  157.9809 F   0  0  0  0  0  0  0  0  0  0  0  0
  150.6599  143.1918  158.3275 F   0  0  0  0  0  0  0  0  0  0  0  0
  151.8127  144.2440  161.3410 C   0  0  0  0  0  0  0  0  0  0  0  0
  152.4505  143.8165  162.5078 N   0  0  0  0  0  0  0  0  0  0  0  0
  153.3600  142.8175  162.5543 C   0  0  0  0  0  0  0  0  0  0  0  0
  153.8770  142.4977  163.6243 O   0  0  0  0  0  0  0  0  0  0  0  0
  152.2093  144.2941  163.3642 H   0  0  0  0  0  0  0  0  0  0  0  0
  156.1667  139.4753  161.7747 H   0  0  0  0  0  0  0  0  0  0  0  0
  156.9949  138.7240  159.2211 H   0  0  0  0  0  0  0  0  0  0  0  0
  157.1583  137.7438  160.6575 H   0  0  0  0  0  0  0  0  0  0  0  0
  154.6281  137.8877  158.9286 H   0  0  0  0  0  0  0  0  0  0  0  0
  155.3558  136.0254  161.2657 H   0  0  0  0  0  0  0  0  0  0  0  0
  154.1143  137.2649  161.2892 H   0  0  0  0  0  0  0  0  0  0  0  0
  155.0391  134.1066  159.8039 H   0  0  0  0  0  0  0  0  0  0  0  0
  153.5860  134.0391  158.8217 H   0  0  0  0  0  0  0  0  0  0  0  0
  155.5881  134.7575  157.4546 H   0  0  0  0  0  0  0  0  0  0  0  0
  154.3481  135.9993  157.4691 H   0  0  0  0  0  0  0  0  0  0  0  0
  155.1242  141.0836  162.1797 H   0  0  0  0  0  0  0  0  0  0  0  0
  153.2030  142.0985  159.1915 H   0  0  0  0  0  0  0  0  0  0  0  0
  151.1356  145.0722  161.4905 H   0  0  0  0  0  0  0  0  0  0  0  0
  1  2  2  0  0  0  0
  2  3  1  0  0  0  0
  2 11  1  0  0  0  0
  3  4  1  0  0  0  0
  3 24  1  0  0  0  0
  4  5  1  0  0  0  0
  4 25  1  0  0  0  0
  4 26  1  0  0  0  0
  5 10  1  0  0  0  0
  5  6  1  0  0  0  0
  5 27  1  0  0  0  0
  6  7  1  0  0  0  0
  6 28  1  0  0  0  0
  6 29  1  0  0  0  0
  7  8  1  0  0  0  0
  8  9  1  0  0  0  0
  8 30  1  0  0  0  0
  8 31  1  0  0  0  0
  9 10  1  0  0  0  0
  9 32  1  0  0  0  0
  9 33  1  0  0  0  0
 11 12  1  0  0  0  0
 11 34  1  0  0  0  0
 12 21  1  0  0  0  0
 12 13  2  0  0  0  0
 13 14  1  0  0  0  0
 13 35  1  0  0  0  0
 14 15  1  0  0  0  0
 14 19  2  0  0  0  0
 15 16  1  0  0  0  0
 15 17  1  0  0  0  0
 15 18  1  0  0  0  0
 19 20  1  0  0  0  0
 19 36  1  0  0  0  0
 20 23  1  0  0  0  0
 20 21  1  0  0  0  0
 21 22  2  0  0  0  0
M  END
> <s_m_source_file>
AV-unprocessed.smi

> <i_m_source_file_index>
1521

> <i_lp_mmshare_version>
43012

> <i_f3d_flags>
0

> <s_epik_input>
Tz1jMVtuSF1bY0hdYyhDKEYpKEYpRilbY0hdYzFbTkhdQyg9TylbTkhdW0NIMl1bQ0BASF0yW0NIMl1PW0NIMl1bQ0gyXU8y

> <s_epik_cmdline>
J2VwaWtfcHl0aG9uJywgJy1waCcsICc3LjAnLCAnLXRuJywgJzgnLCAnLW1hJywgJzIwMCcsICctbWV0YWxfYmluZGluZycsICctaW1hZScsICc8aW5maWxlLm1hZT4nLCAnLW9tYWUnLCAnPG91dGZpbGUubWFlPic=

> <r_lp_tautomer_probability>
1

> <r_epik_Ionization_Penalty>
0.00396636

> <r_epik_Ionization_Penalty_Charging>
0.00394789

> <r_epik_Ionization_Penalty_Neutral>
1.84676e-05

> <r_epik_State_Penalty>
-0

> <r_epik_Charging_Adjusted_Penalty>
0.00394789

> <i_epik_Tot_Q>
0

> <i_epik_Tot_abs_Q>
0

> <r_epik_Metal_State_Penalty>
0.372669

> <b_epik_Metal_Only>
0

> <s_lp_Force_Field>
OPLS_2005

> <r_lp_Energy>
18.8562

> <b_lp_Chiralities_Consistent>
1

> <s_lp_Variant>
AV-unprocessed.smi:1521-1

> <Gold.Version>
5.8.1

> <Gold.Id.Protein>
6NUR|6NUR_protein|mol2

> <Gold.PLP.Fitness>
47.4846

> <Gold.PLP.PLP>
-43.1590

> <Gold.PLP.part.hbond>
-4.1673

> <Gold.PLP.part.metal>
0.0000

> <Gold.PLP.part.buried>
-4.6910

> <Gold.PLP.part.nonpolar>
-34.6872

> <Gold.PLP.part.repulsive>
0.2124

> <Gold.PLP.ligand.clash>
1.2425

> <Gold.PLP.ligand.torsion>
0.0665

> <Gold.PLP.Chemscore.Hbond>
1.8800

> <Gold.PLP.Chemscore.CHOScore>
0.0000

> <Gold.PLP.Chemscore.Metal>
0.0000

> <Gold.Chemscore.Hbonds>
donor molecule, donor type, donor heavy atom, donor atom, acceptor molecule, acceptor atom, score
      P1  H  6896  6909       L1     7  0.75
      P1  H  7997  8009       L1     1  0.91

> <Gold.PLP.Chemscore.Internal.Correction>
0.0611

> <Gold.Rescore>
     Score         DG    S(hbond)    S(metal)    S(lipo)     H(rot)  DE(clash)    DE(int)     intcor
     12.76     -14.86       1.42        0.00      69.61       1.37       0.83       1.27       ----

> <Gold.Chemscore.Fitness>
12.7644

> <Gold.Chemscore.DG>
-14.8570

> <Gold.Chemscore.ZeroCoef>
-5.4800

> <Gold.Chemscore.Hbond>
1.4219

> <Gold.Chemscore.Metal>
0.0000

> <Gold.Chemscore.Lipo>
69.6080

> <Gold.Chemscore.Internal_Hbond>
0.0000

> <Gold.Chemscore.DEClash>
0.8266

> <Gold.Chemscore.DEInternal>
1.2660

> <Gold.Chemscore.Rot>
1.3735

> <Gold.Chemscore.Internal.Correction>
   9.000000E+99

> <Gold.Chemscore.Hbonds>
donor molecule, donor type, donor heavy atom, donor atom, acceptor molecule, acceptor atom, score
      P1  H  6896  6909       L1     7  0.09
      P1  H  7997  8009       L1     1  0.87

> <Gold.Chemscore.Hbond.Weighted>
-4.7491

> <Gold.Chemscore.Metal.Weighted>
-0.0000

> <Gold.Chemscore.Lipo.Weighted>
-8.1441

> <Gold.Chemscore.Internal_Hbond.Weighted>
0.0000

> <Gold.Chemscore.DEClash.Weighted>
0.8266

> <Gold.Chemscore.DEInternal.Weighted>
1.2660

> <Gold.Chemscore.Rot.Weighted>
3.5162

> <Gold.Chemscore.Internal.Correction.Weighted>
   9.000000E+99

> <Gold.Protein.RotatedTorsions>
[ 6907 6896 6895 6894 ] final  160.32 input  -60.11 | X-H torsion
[ 7974 7965 7964 7962 ] final    8.18 input  175.53 | X-H torsion
[ 8008 7997 7996 7995 ] final  117.88 input   59.86 | X-H torsion
[ 10167 10162 10161 10158 ] final  129.49 input  -65.29 | X-H torsion
[ 10718 10713 10712 10709 ] final   13.88 input   66.30 | X-H torsion
[ 10763 10752 10751 10750 ] final -172.97 input  -60.55 | X-H torsion
[ 11005 11000 10999 10996 ] final   93.59 input  -57.11 | X-H torsion

> <Gold.Protein.ActiveResidues>
 VAL166  LYS551  ARG553  GLY616  TRP617  ASP618  TYR619  PRO620  LYS621  CYS622 
 ASP623  PHE694  ASN695  SER759  ASP760  ASP761  ALA762  ILE779  LEU786  VAL792 
 PHE793  MET794  SER795  GLU796  ALA797  LYS798  CYS799  TRP800  GLU811  SER814 

> <Gold.Protein.RotatedAtoms>
  151.9724  133.3730  159.4075 H   0  0  0  0  0  0  0  0  0  0  0  0  # atno 6907 bound_to 6896
  150.6947  134.4126  159.5178 H   0  0  0  0  0  0  0  0  0  0  0  0  # atno 6908 bound_to 6896
  152.1832  134.8736  160.0575 H   0  0  0  0  0  0  0  0  0  0  0  0  # atno 6909 bound_to 6896
  146.2419  139.9972  142.8419 H   0  0  0  0  0  0  0  0  0  0  0  0  # atno 7974 bound_to 7965
  156.2518  140.2886  156.0748 H   0  0  0  0  0  0  0  0  0  0  0  0  # atno 8008 bound_to 7997
  155.1631  140.0400  157.2864 H   0  0  0  0  0  0  0  0  0  0  0  0  # atno 8009 bound_to 7997
  154.6378  140.2515  155.7364 H   0  0  0  0  0  0  0  0  0  0  0  0  # atno 8010 bound_to 7997
  139.5475  144.6786  151.4426 H   0  0  0  0  0  0  0  0  0  0  0  0  # atno 10167 bound_to 10162
  157.0311  130.6193  149.5735 H   0  0  0  0  0  0  0  0  0  0  0  0  # atno 10718 bound_to 10713
  154.6132  135.2867  155.0409 H   0  0  0  0  0  0  0  0  0  0  0  0  # atno 10763 bound_to 10752
  154.1632  135.6485  153.4995 H   0  0  0  0  0  0  0  0  0  0  0  0  # atno 10764 bound_to 10752
  153.0204  135.5383  154.6893 H   0  0  0  0  0  0  0  0  0  0  0  0  # atno 10765 bound_to 10752
  139.8808  134.8799  156.3741 H   0  0  0  0  0  0  0  0  0  0  0  0  # atno 11005 bound_to 11000
  145.1448  140.9591  143.4467 LP  0  0  0  0  0  0  0  0  0  0  0  0  # atno 17320 bound_to 7965
  145.0261  139.3382  143.6048 LP  0  0  0  0  0  0  0  0  0  0  0  0  # atno 17321 bound_to 7965
  140.6728  143.8256  150.7020 LP  0  0  0  0  0  0  0  0  0  0  0  0  # atno 17342 bound_to 10162
  140.1685  143.4214  152.2017 LP  0  0  0  0  0  0  0  0  0  0  0  0  # atno 17343 bound_to 10162
  156.0069  130.5157  150.7861 LP  0  0  0  0  0  0  0  0  0  0  0  0  # atno 17370 bound_to 10713
  157.5177  131.0929  151.0118 LP  0  0  0  0  0  0  0  0  0  0  0  0  # atno 17371 bound_to 10713
  140.9444  133.7493  156.0189 LP  0  0  0  0  0  0  0  0  0  0  0  0  # atno 17394 bound_to 11000
  140.8181  134.3321  157.5390 LP  0  0  0  0  0  0  0  0  0  0  0  0  # atno 17395 bound_to 11000

$$$$
