AV-unprocessed.smi:2486|AV-procd|sdf|9790|dock5
  -GOLD-   2272013423D 1   1.00000     0.00000
 Structure written by MMmdl.
 42 43  0  0  0  0  0  0  0  0  1 V2000
  150.6538  138.9046  154.5735 C   0  0  0  0  0  0  0  0  0  0  0  0
  149.4713  139.7428  154.5258 N   0  0  0  0  0  0  0  0  0  0  0  0
  149.5153  141.0337  154.9312 N   0  0  0  0  0  0  0  0  0  0  0  0
  148.2625  141.4456  154.7353 C   0  0  0  0  0  0  0  0  0  0  0  0
  147.3984  140.5163  154.2301 N   0  0  0  0  0  0  0  0  0  0  0  0
  148.2239  139.4794  154.1259 C   0  0  0  0  0  0  0  0  0  0  0  0
  147.8865  138.1849  153.6478 N   0  0  0  0  0  0  0  0  0  0  0  0
  146.8470  137.4166  154.0152 C   0  0  0  0  0  0  0  0  0  0  0  0
  145.9887  137.7286  154.8409 O   0  0  0  0  0  0  0  0  0  0  0  0
  146.8530  136.2471  153.3629 N   0  0  0  0  0  0  0  0  0  0  0  0
  145.8534  135.1981  153.5399 C   0  0  0  0  0  0  0  0  0  0  0  0
  144.9937  134.9647  152.2681 C   0  0  0  0  0  0  0  0  0  0  0  0
  144.0888  136.1981  152.0426 C   0  0  0  0  0  0  0  0  0  0  0  0
  145.9432  134.8465  151.0448 C   0  0  0  0  0  0  0  0  0  0  0  0
  146.6150  133.4776  150.8277 C   0  0  0  0  0  0  0  0  0  0  0  0
  145.7763  132.5348  149.9485 C   0  0  0  0  0  0  0  0  0  0  0  0
  144.5226  131.9696  150.6310 C   0  0  0  0  0  0  0  0  0  0  0  0
  143.5633  133.0324  151.1940 C   0  0  0  0  0  0  0  0  0  0  0  0
  144.1016  133.7068  152.4698 C   0  0  0  0  0  0  0  0  0  0  0  0
  150.8658  138.5142  153.5778 H   0  0  0  0  0  0  0  0  0  0  0  0
  150.4843  138.0711  155.2559 H   0  0  0  0  0  0  0  0  0  0  0  0
  151.5163  139.4763  154.9195 H   0  0  0  0  0  0  0  0  0  0  0  0
  147.9591  142.4562  154.9661 H   0  0  0  0  0  0  0  0  0  0  0  0
  148.5077  137.8016  152.9510 H   0  0  0  0  0  0  0  0  0  0  0  0
  147.5926  136.0675  152.6999 H   0  0  0  0  0  0  0  0  0  0  0  0
  146.3626  134.2749  153.8231 H   0  0  0  0  0  0  0  0  0  0  0  0
  145.2169  135.4695  154.3831 H   0  0  0  0  0  0  0  0  0  0  0  0
  143.4820  136.0905  151.1433 H   0  0  0  0  0  0  0  0  0  0  0  0
  144.6815  137.1065  151.9280 H   0  0  0  0  0  0  0  0  0  0  0  0
  143.4014  136.3614  152.8732 H   0  0  0  0  0  0  0  0  0  0  0  0
  145.4123  135.1171  150.1310 H   0  0  0  0  0  0  0  0  0  0  0  0
  146.7236  135.6032  151.1360 H   0  0  0  0  0  0  0  0  0  0  0  0
  147.5617  133.6475  150.3137 H   0  0  0  0  0  0  0  0  0  0  0  0
  146.8747  133.0033  151.7742 H   0  0  0  0  0  0  0  0  0  0  0  0
  145.4932  133.0458  149.0274 H   0  0  0  0  0  0  0  0  0  0  0  0
  146.4024  131.6974  149.6391 H   0  0  0  0  0  0  0  0  0  0  0  0
  143.9834  131.3628  149.9028 H   0  0  0  0  0  0  0  0  0  0  0  0
  144.8165  131.2816  151.4246 H   0  0  0  0  0  0  0  0  0  0  0  0
  143.2981  133.7671  150.4336 H   0  0  0  0  0  0  0  0  0  0  0  0
  142.6320  132.5270  151.4516 H   0  0  0  0  0  0  0  0  0  0  0  0
  144.6414  132.9593  153.0530 H   0  0  0  0  0  0  0  0  0  0  0  0
  143.2505  133.9778  153.0960 H   0  0  0  0  0  0  0  0  0  0  0  0
  1  2  1  0  0  0  0
  1 20  1  0  0  0  0
  1 21  1  0  0  0  0
  1 22  1  0  0  0  0
  2  6  1  0  0  0  0
  2  3  1  0  0  0  0
  3  4  2  0  0  0  0
  4  5  1  0  0  0  0
  4 23  1  0  0  0  0
  5  6  2  0  0  0  0
  6  7  1  0  0  0  0
  7  8  1  0  0  0  0
  7 24  1  0  0  0  0
  8  9  2  0  0  0  0
  8 10  1  0  0  0  0
 10 11  1  0  0  0  0
 10 25  1  0  0  0  0
 11 12  1  0  0  0  0
 11 26  1  0  0  0  0
 11 27  1  0  0  0  0
 12 19  1  0  0  0  0
 12 13  1  0  0  0  0
 12 14  1  0  0  0  0
 13 28  1  0  0  0  0
 13 29  1  0  0  0  0
 13 30  1  0  0  0  0
 14 15  1  0  0  0  0
 14 31  1  0  0  0  0
 14 32  1  0  0  0  0
 15 16  1  0  0  0  0
 15 33  1  0  0  0  0
 15 34  1  0  0  0  0
 16 17  1  0  0  0  0
 16 35  1  0  0  0  0
 16 36  1  0  0  0  0
 17 18  1  0  0  0  0
 17 37  1  0  0  0  0
 17 38  1  0  0  0  0
 18 19  1  0  0  0  0
 18 39  1  0  0  0  0
 18 40  1  0  0  0  0
 19 41  1  0  0  0  0
 19 42  1  0  0  0  0
M  END
> <s_m_source_file>
AV-unprocessed.smi

> <i_m_source_file_index>
2486

> <i_lp_mmshare_version>
43012

> <i_f3d_flags>
0

> <s_epik_input>
W0NIM11uMW5bY0hdbmMxW05IXUMoPU8pW05IXVtDSDJdQzIoW0NIM10pW0NIMl1bQ0gyXVtDSDJdW0NIMl1bQ0gyXVtDSDJdMg==

> <s_epik_cmdline>
J2VwaWtfcHl0aG9uJywgJy1waCcsICc3LjAnLCAnLXRuJywgJzgnLCAnLW1hJywgJzIwMCcsICctbWV0YWxfYmluZGluZycsICctaW1hZScsICc8aW5maWxlLm1hZT4nLCAnLW9tYWUnLCAnPG91dGZpbGUubWFlPic=

> <r_lp_tautomer_probability>
1

> <r_epik_Ionization_Penalty>
2.33289e-05

> <r_epik_Ionization_Penalty_Charging>
0

> <r_epik_Ionization_Penalty_Neutral>
2.33289e-05

> <r_epik_State_Penalty>
-0

> <r_epik_Charging_Adjusted_Penalty>
0

> <i_epik_Tot_Q>
0

> <i_epik_Tot_abs_Q>
0

> <r_epik_Metal_State_Penalty>
-0

> <b_epik_Metal_Only>
0

> <s_lp_Force_Field>
OPLS_2005

> <r_lp_Energy>
21.4414

> <b_lp_Chiralities_Consistent>
1

> <s_lp_Variant>
AV-unprocessed.smi:2486-1

> <Gold.Version>
5.8.1

> <Gold.Id.Protein>
6NUR|6NUR_protein|mol2

> <Gold.PLP.Fitness>
39.6954

> <Gold.PLP.PLP>
-31.8454

> <Gold.PLP.part.hbond>
-2.7912

> <Gold.PLP.part.metal>
0.0000

> <Gold.PLP.part.buried>
-2.8115

> <Gold.PLP.part.nonpolar>
-26.8900

> <Gold.PLP.part.repulsive>
0.3809

> <Gold.PLP.ligand.clash>
0.0000

> <Gold.PLP.ligand.torsion>
0.5186

> <Gold.PLP.Chemscore.Hbond>
1.9600

> <Gold.PLP.Chemscore.CHOScore>
1.0000

> <Gold.PLP.Chemscore.Metal>
0.0000

> <Gold.Chemscore.Hbonds>
donor molecule, donor type, donor heavy atom, donor atom, acceptor molecule, acceptor atom, score
      L1  H     7    24       P1  7948  0.94
      L1  H    10    25       P1  7948  1.00
      L1  C     4    23       P1  8028  1.00

> <Gold.PLP.Chemscore.Internal.Correction>
0.0072

> <Gold.Rescore>
     Score         DG    S(hbond)    S(metal)    S(lipo)     H(rot)  DE(clash)    DE(int)     intcor
     15.99     -16.56       1.93        0.00      68.99       1.35       0.06       0.51       ----

> <Gold.Chemscore.Fitness>
15.9896

> <Gold.Chemscore.DG>
-16.5580

> <Gold.Chemscore.ZeroCoef>
-5.4800

> <Gold.Chemscore.Hbond>
1.9313

> <Gold.Chemscore.Metal>
0.0000

> <Gold.Chemscore.Lipo>
68.9883

> <Gold.Chemscore.Internal_Hbond>
0.0000

> <Gold.Chemscore.DEClash>
0.0576

> <Gold.Chemscore.DEInternal>
0.5107

> <Gold.Chemscore.Rot>
1.3454

> <Gold.Chemscore.Internal.Correction>
   9.000000E+99

> <Gold.Chemscore.Hbonds>
donor molecule, donor type, donor heavy atom, donor atom, acceptor molecule, acceptor atom, score
      L1  H     7    24       P1  7948  0.90
      L1  H    10    25       P1  7948  0.98

> <Gold.Chemscore.Hbond.Weighted>
-6.4506

> <Gold.Chemscore.Metal.Weighted>
-0.0000

> <Gold.Chemscore.Lipo.Weighted>
-8.0716

> <Gold.Chemscore.Internal_Hbond.Weighted>
0.0000

> <Gold.Chemscore.DEClash.Weighted>
0.0576

> <Gold.Chemscore.DEInternal.Weighted>
0.5107

> <Gold.Chemscore.Rot.Weighted>
3.4442

> <Gold.Chemscore.Internal.Correction.Weighted>
   9.000000E+99

> <Gold.Protein.RotatedTorsions>
[ 6907 6896 6895 6894 ] final  168.80 input  -60.11 | X-H torsion
[ 7974 7965 7964 7962 ] final   82.97 input  175.53 | X-H torsion
[ 8008 7997 7996 7995 ] final  -92.14 input   59.86 | X-H torsion
[ 10167 10162 10161 10158 ] final   24.09 input  -65.29 | X-H torsion
[ 10718 10713 10712 10709 ] final   17.21 input   66.30 | X-H torsion
[ 10763 10752 10751 10750 ] final -121.36 input  -60.55 | X-H torsion
[ 11005 11000 10999 10996 ] final  125.79 input  -57.11 | X-H torsion

> <Gold.Protein.ActiveResidues>
 VAL166  LYS551  ARG553  GLY616  TRP617  ASP618  TYR619  PRO620  LYS621  CYS622 
 ASP623  PHE694  ASN695  SER759  ASP760  ASP761  ALA762  ILE779  LEU786  VAL792 
 PHE793  MET794  SER795  GLU796  ALA797  LYS798  CYS799  TRP800  GLU811  SER814 

> <Gold.Protein.RotatedAtoms>
  151.8420  133.3425  159.3645 H   0  0  0  0  0  0  0  0  0  0  0  0  # atno 6907 bound_to 6896
  150.7232  134.5382  159.5743 H   0  0  0  0  0  0  0  0  0  0  0  0  # atno 6908 bound_to 6896
  152.2858  134.7778  160.0439 H   0  0  0  0  0  0  0  0  0  0  0  0  # atno 6909 bound_to 6896
  145.6181  139.2380  143.2154 H   0  0  0  0  0  0  0  0  0  0  0  0  # atno 7974 bound_to 7965
  154.7194  140.0512  157.0625 H   0  0  0  0  0  0  0  0  0  0  0  0  # atno 8008 bound_to 7997
  155.0448  140.3172  155.4693 H   0  0  0  0  0  0  0  0  0  0  0  0  # atno 8009 bound_to 7997
  156.2812  140.2126  156.5573 H   0  0  0  0  0  0  0  0  0  0  0  0  # atno 8010 bound_to 7997
  140.5216  143.9993  150.6420 H   0  0  0  0  0  0  0  0  0  0  0  0  # atno 10167 bound_to 10162
  157.0789  130.6379  149.5822 H   0  0  0  0  0  0  0  0  0  0  0  0  # atno 10718 bound_to 10713
  154.8666  135.4170  154.2608 H   0  0  0  0  0  0  0  0  0  0  0  0  # atno 10763 bound_to 10752
  153.3537  135.7000  153.6774 H   0  0  0  0  0  0  0  0  0  0  0  0  # atno 10764 bound_to 10752
  153.5703  135.3592  155.2807 H   0  0  0  0  0  0  0  0  0  0  0  0  # atno 10765 bound_to 10752
  139.9423  134.9634  156.8610 H   0  0  0  0  0  0  0  0  0  0  0  0  # atno 11005 bound_to 11000
  146.1452  140.7002  142.9348 LP  0  0  0  0  0  0  0  0  0  0  0  0  # atno 17320 bound_to 7965
  144.7242  140.4472  143.6985 LP  0  0  0  0  0  0  0  0  0  0  0  0  # atno 17321 bound_to 7965
  140.3343  143.3058  152.0655 LP  0  0  0  0  0  0  0  0  0  0  0  0  # atno 17342 bound_to 10162
  139.4925  144.6487  151.6722 LP  0  0  0  0  0  0  0  0  0  0  0  0  # atno 17343 bound_to 10162
  155.9929  130.4988  150.7359 LP  0  0  0  0  0  0  0  0  0  0  0  0  # atno 17370 bound_to 10713
  157.4817  131.0903  151.0529 LP  0  0  0  0  0  0  0  0  0  0  0  0  # atno 17371 bound_to 10713
  140.5920  134.0253  155.7503 LP  0  0  0  0  0  0  0  0  0  0  0  0  # atno 17394 bound_to 11000
  141.1062  133.9689  157.2992 LP  0  0  0  0  0  0  0  0  0  0  0  0  # atno 17395 bound_to 11000

$$$$
