AV-unprocessed.smi:2965|AV-procd|sdf|11323|dock1
  -GOLD-   2272016223D 1   1.00000     0.00000
 Structure written by MMmdl.
 36 37  0  0  0  0  0  0  0  0  1 V2000
  152.6864  139.7969  156.4953 O   0  0  0  0  0  0  0  0  0  0  0  0
  151.9112  139.0148  157.0473 C   0  0  0  0  0  0  0  0  0  0  0  0
  151.6389  139.1139  158.5548 C   0  0  0  0  0  0  0  0  0  0  0  0
  152.2720  140.2873  159.1798 N   0  0  0  0  0  0  0  0  0  0  0  0
  151.8300  141.5563  158.7573 C   0  0  0  0  0  0  0  0  0  0  0  0
  152.3329  142.7070  159.2438 C   0  0  0  0  0  0  0  0  0  0  0  0
  151.7900  144.0602  158.8109 C   0  0  0  0  0  0  0  0  0  0  0  0
  152.0211  144.2811  157.5165 F   0  0  0  0  0  0  0  0  0  0  0  0
  150.4737  144.1052  159.0114 F   0  0  0  0  0  0  0  0  0  0  0  0
  152.3493  145.0478  159.5110 F   0  0  0  0  0  0  0  0  0  0  0  0
  153.3519  142.5838  160.2678 C   0  0  0  0  0  0  0  0  0  0  0  0
  153.7759  141.3776  160.6932 C   0  0  0  0  0  0  0  0  0  0  0  0
  153.2305  140.1350  160.1424 C   0  0  0  0  0  0  0  0  0  0  0  0
  153.6097  139.0269  160.5230 O   0  0  0  0  0  0  0  0  0  0  0  0
  151.2674  138.0338  156.3971 N   0  0  0  0  0  0  0  0  0  0  0  0
  151.3471  137.7738  154.9635 C   0  0  0  0  0  0  0  0  0  0  0  0
  150.2114  138.4725  154.1962 C   0  0  1  0  0  0  0  0  0  0  0  0
  148.8081  138.2440  154.7580 C   0  0  0  0  0  0  0  0  0  0  0  0
  148.0650  139.4371  154.2029 C   0  0  0  0  0  0  0  0  0  0  0  0
  149.1189  140.5383  154.2930 C   0  0  0  0  0  0  0  0  0  0  0  0
  150.3857  139.8856  154.2338 O   0  0  0  0  0  0  0  0  0  0  0  0
  150.5616  139.1347  158.7311 H   0  0  0  0  0  0  0  0  0  0  0  0
  151.9864  138.1925  159.0242 H   0  0  0  0  0  0  0  0  0  0  0  0
  151.0437  141.5349  158.0166 H   0  0  0  0  0  0  0  0  0  0  0  0
  153.7854  143.4735  160.7002 H   0  0  0  0  0  0  0  0  0  0  0  0
  154.5373  141.3237  161.4577 H   0  0  0  0  0  0  0  0  0  0  0  0
  150.6573  137.4333  156.9326 H   0  0  0  0  0  0  0  0  0  0  0  0
  152.3186  138.0678  154.5625 H   0  0  0  0  0  0  0  0  0  0  0  0
  151.2720  136.6959  154.8186 H   0  0  0  0  0  0  0  0  0  0  0  0
  150.2302  138.1696  153.1478 H   0  0  0  0  0  0  0  0  0  0  0  0
  148.3755  137.2906  154.4532 H   0  0  0  0  0  0  0  0  0  0  0  0
  148.8177  138.2845  155.8481 H   0  0  0  0  0  0  0  0  0  0  0  0
  147.7978  139.2562  153.1607 H   0  0  0  0  0  0  0  0  0  0  0  0
  147.1541  139.6715  154.7541 H   0  0  0  0  0  0  0  0  0  0  0  0
  149.0144  141.2736  153.4946 H   0  0  0  0  0  0  0  0  0  0  0  0
  149.0454  141.0620  155.2466 H   0  0  0  0  0  0  0  0  0  0  0  0
  1  2  2  0  0  0  0
  2  3  1  0  0  0  0
  2 15  1  0  0  0  0
  3  4  1  0  0  0  0
  3 22  1  0  0  0  0
  3 23  1  0  0  0  0
  4 13  1  0  0  0  0
  4  5  1  0  0  0  0
  5  6  2  0  0  0  0
  5 24  1  0  0  0  0
  6  7  1  0  0  0  0
  6 11  1  0  0  0  0
  7  8  1  0  0  0  0
  7  9  1  0  0  0  0
  7 10  1  0  0  0  0
 11 12  2  0  0  0  0
 11 25  1  0  0  0  0
 12 13  1  0  0  0  0
 12 26  1  0  0  0  0
 13 14  2  0  0  0  0
 15 16  1  0  0  0  0
 15 27  1  0  0  0  0
 16 17  1  0  0  0  0
 16 28  1  0  0  0  0
 16 29  1  0  0  0  0
 17 21  1  0  0  0  0
 17 18  1  0  0  0  0
 17 30  1  0  0  0  0
 18 19  1  0  0  0  0
 18 31  1  0  0  0  0
 18 32  1  0  0  0  0
 19 20  1  0  0  0  0
 19 33  1  0  0  0  0
 19 34  1  0  0  0  0
 20 21  1  0  0  0  0
 20 35  1  0  0  0  0
 20 36  1  0  0  0  0
M  END
> <s_m_source_file>
AV-unprocessed.smi

> <i_m_source_file_index>
2965

> <i_lp_mmshare_version>
43012

> <i_f3d_flags>
0

> <s_epik_input>
TzFbQ0gyXVtDSDJdW0NIMl1bQ0BIXTFbQ0gyXVtOSF1DKD1PKVtDSDJdbjJbY0hdYyhDKEYpKEYpRilbY0hdW2NIXWMyPU8=

> <s_epik_cmdline>
J2VwaWtfcHl0aG9uJywgJy1waCcsICc3LjAnLCAnLXRuJywgJzgnLCAnLW1hJywgJzIwMCcsICctbWV0YWxfYmluZGluZycsICctaW1hZScsICc8aW5maWxlLm1hZT4nLCAnLW9tYWUnLCAnPG91dGZpbGUubWFlPic=

> <r_lp_tautomer_probability>
1

> <r_epik_Ionization_Penalty>
4.53327e-08

> <r_epik_Ionization_Penalty_Charging>
1.84737e-08

> <r_epik_Ionization_Penalty_Neutral>
2.6859e-08

> <r_epik_State_Penalty>
-0

> <r_epik_Charging_Adjusted_Penalty>
1.84737e-08

> <i_epik_Tot_Q>
0

> <i_epik_Tot_abs_Q>
0

> <r_epik_Metal_State_Penalty>
-0

> <b_epik_Metal_Only>
0

> <s_lp_Force_Field>
OPLS_2005

> <r_lp_Energy>
29.2256

> <b_lp_Chiralities_Consistent>
1

> <s_lp_Variant>
AV-unprocessed.smi:2965-2

> <Gold.Version>
5.8.1

> <Gold.Id.Protein>
6NUR|6NUR_protein|mol2

> <Gold.PLP.Fitness>
52.6423

> <Gold.PLP.PLP>
-47.1465

> <Gold.PLP.part.hbond>
-2.0000

> <Gold.PLP.part.metal>
0.0000

> <Gold.PLP.part.buried>
-4.8003

> <Gold.PLP.part.nonpolar>
-40.5855

> <Gold.PLP.part.repulsive>
0.2018

> <Gold.PLP.ligand.clash>
0.0000

> <Gold.PLP.ligand.torsion>
0.3160

> <Gold.PLP.Chemscore.Hbond>
2.0000

> <Gold.PLP.Chemscore.CHOScore>
0.0000

> <Gold.PLP.Chemscore.Metal>
0.0000

> <Gold.Chemscore.Hbonds>
donor molecule, donor type, donor heavy atom, donor atom, acceptor molecule, acceptor atom, score
      P1  H  7989  7998       L1    21  1.00
      P1  H  7997  8008       L1     1  1.00

> <Gold.PLP.Chemscore.Internal.Correction>
0.1277

> <Gold.Rescore>
     Score         DG    S(hbond)    S(metal)    S(lipo)     H(rot)  DE(clash)    DE(int)     intcor
     16.80     -17.35       1.93        0.00      87.27       1.87       0.15       0.39       ----

> <Gold.Chemscore.Fitness>
16.8044

> <Gold.Chemscore.DG>
-17.3473

> <Gold.Chemscore.ZeroCoef>
-5.4800

> <Gold.Chemscore.Hbond>
1.9277

> <Gold.Chemscore.Metal>
0.0000

> <Gold.Chemscore.Lipo>
87.2726

> <Gold.Chemscore.Internal_Hbond>
0.0000

> <Gold.Chemscore.DEClash>
0.1483

> <Gold.Chemscore.DEInternal>
0.3946

> <Gold.Chemscore.Rot>
1.8681

> <Gold.Chemscore.Internal.Correction>
   9.000000E+99

> <Gold.Chemscore.Hbonds>
donor molecule, donor type, donor heavy atom, donor atom, acceptor molecule, acceptor atom, score
      P1  H  7989  7998       L1    21  0.85
      P1  H  7997  8008       L1     1  1.00

> <Gold.Chemscore.Hbond.Weighted>
-6.4386

> <Gold.Chemscore.Metal.Weighted>
-0.0000

> <Gold.Chemscore.Lipo.Weighted>
-10.2109

> <Gold.Chemscore.Internal_Hbond.Weighted>
0.0000

> <Gold.Chemscore.DEClash.Weighted>
0.1483

> <Gold.Chemscore.DEInternal.Weighted>
0.3946

> <Gold.Chemscore.Rot.Weighted>
4.7822

> <Gold.Chemscore.Internal.Correction.Weighted>
   9.000000E+99

> <Gold.Protein.RotatedTorsions>
[ 6907 6896 6895 6894 ] final   53.77 input  -60.11 | X-H torsion
[ 7974 7965 7964 7962 ] final  154.20 input  175.53 | X-H torsion
[ 8008 7997 7996 7995 ] final  -42.14 input   59.86 | X-H torsion
[ 10167 10162 10161 10158 ] final   93.29 input  -65.29 | X-H torsion
[ 10718 10713 10712 10709 ] final  136.27 input   66.30 | X-H torsion
[ 10763 10752 10751 10750 ] final   81.93 input  -60.55 | X-H torsion
[ 11005 11000 10999 10996 ] final  135.32 input  -57.11 | X-H torsion

> <Gold.Protein.ActiveResidues>
 VAL166  LYS551  ARG553  GLY616  TRP617  ASP618  TYR619  PRO620  LYS621  CYS622 
 ASP623  PHE694  ASN695  SER759  ASP760  ASP761  ALA762  ILE779  LEU786  VAL792 
 PHE793  MET794  SER795  GLU796  ALA797  LYS798  CYS799  TRP800  GLU811  SER814 

> <Gold.Protein.RotatedAtoms>
  152.3371  134.7183  160.0273 H   0  0  0  0  0  0  0  0  0  0  0  0  # atno 6907 bound_to 6896
  151.7581  133.3326  159.3418 H   0  0  0  0  0  0  0  0  0  0  0  0  # atno 6908 bound_to 6896
  150.7457  134.6063  159.6107 H   0  0  0  0  0  0  0  0  0  0  0  0  # atno 6909 bound_to 6896
  144.8104  139.6901  143.6144 H   0  0  0  0  0  0  0  0  0  0  0  0  # atno 7974 bound_to 7965
  154.4000  140.1481  156.3306 H   0  0  0  0  0  0  0  0  0  0  0  0  # atno 8008 bound_to 7997
  155.8447  140.3460  155.5633 H   0  0  0  0  0  0  0  0  0  0  0  0  # atno 8009 bound_to 7997
  155.8049  140.0875  157.1927 H   0  0  0  0  0  0  0  0  0  0  0  0  # atno 8010 bound_to 7997
  139.8194  144.6738  150.9538 H   0  0  0  0  0  0  0  0  0  0  0  0  # atno 10167 bound_to 10162
  157.4484  131.1064  151.0062 H   0  0  0  0  0  0  0  0  0  0  0  0  # atno 10718 bound_to 10713
  153.1159  135.4747  154.9114 H   0  0  0  0  0  0  0  0  0  0  0  0  # atno 10763 bound_to 10752
  154.7528  135.3110  154.8529 H   0  0  0  0  0  0  0  0  0  0  0  0  # atno 10764 bound_to 10752
  153.9105  135.6865  153.4805 H   0  0  0  0  0  0  0  0  0  0  0  0  # atno 10765 bound_to 10752
  139.9972  134.9492  156.9991 H   0  0  0  0  0  0  0  0  0  0  0  0  # atno 11005 bound_to 11000
  146.2402  139.5986  142.9496 LP  0  0  0  0  0  0  0  0  0  0  0  0  # atno 17320 bound_to 7965
  145.5337  141.0425  143.2369 LP  0  0  0  0  0  0  0  0  0  0  0  0  # atno 17321 bound_to 7965
  140.7814  143.4106  151.0999 LP  0  0  0  0  0  0  0  0  0  0  0  0  # atno 17342 bound_to 10162
  139.7768  143.8414  152.3130 LP  0  0  0  0  0  0  0  0  0  0  0  0  # atno 17343 bound_to 10162
  157.0900  130.5938  149.5438 LP  0  0  0  0  0  0  0  0  0  0  0  0  # atno 17370 bound_to 10713
  155.9977  130.5049  150.7543 LP  0  0  0  0  0  0  0  0  0  0  0  0  # atno 17371 bound_to 10713
  140.4795  134.1304  155.7215 LP  0  0  0  0  0  0  0  0  0  0  0  0  # atno 17394 bound_to 11000
  141.1614  133.8786  157.1838 LP  0  0  0  0  0  0  0  0  0  0  0  0  # atno 17395 bound_to 11000

$$$$
