AV-unprocessed.smi:798|AV-procd|sdf|3772|dock1
  -GOLD-   22720 1203D 1   1.00000     0.00000
 Structure written by MMmdl.
 34 36  0  0  0  0  0  0  0  0  1 V2000
  146.3138  137.9474  154.8719 O   0  0  0  0  0  0  0  0  0  0  0  0
  147.0495  137.4700  154.0077 C   0  0  0  0  0  0  0  0  0  0  0  0
  148.2225  137.9932  153.6096 N   0  0  0  0  0  0  0  0  0  0  0  0
  148.8568  139.1810  154.0603 C   0  0  0  0  0  0  0  0  0  0  0  0
  150.1150  139.2232  154.5259 N   0  0  0  0  0  0  0  0  0  0  0  0
  150.4869  140.5076  154.9016 N   0  0  0  0  0  0  0  0  0  0  0  0
  149.4958  141.3821  154.7060 C   0  0  0  0  0  0  0  0  0  0  0  0
  148.0107  140.7219  154.0440 S   0  0  0  0  0  0  0  0  0  0  0  0
  146.7765  136.3414  153.3381 N   0  0  0  0  0  0  0  0  0  0  0  0
  145.5839  135.5075  153.5057 C   0  0  1  0  0  0  0  0  0  0  0  0
  144.5000  135.8053  152.4391 C   0  0  1  0  0  0  0  0  0  0  0  0
  145.0963  135.8080  151.0150 C   0  0  0  0  0  0  0  0  0  0  0  0
  145.4239  134.3213  150.7870 C   0  0  0  0  0  0  0  0  0  0  0  0
  144.9354  133.6549  152.0907 C   0  0  2  0  0  0  0  0  0  0  0  0
  143.7094  134.5010  152.4142 C   0  0  0  0  0  0  0  0  0  0  0  0
  145.8485  133.9896  153.2959 C   0  0  1  0  0  0  0  0  0  0  0  0
  147.3220  133.5376  153.1813 C   0  0  0  0  0  0  0  0  0  0  0  0
  148.1493  134.3523  153.9845 O   0  0  0  0  0  0  0  0  0  0  0  0
  148.7205  137.4826  152.8958 H   0  0  0  0  0  0  0  0  0  0  0  0
  149.6406  142.4233  154.9534 H   0  0  0  0  0  0  0  0  0  0  0  0
  147.4444  136.0304  152.6482 H   0  0  0  0  0  0  0  0  0  0  0  0
  145.1497  135.6520  154.4969 H   0  0  0  0  0  0  0  0  0  0  0  0
  143.9068  136.6931  152.6604 H   0  0  0  0  0  0  0  0  0  0  0  0
  144.3506  136.1436  150.2930 H   0  0  0  0  0  0  0  0  0  0  0  0
  145.9660  136.4546  150.8995 H   0  0  0  0  0  0  0  0  0  0  0  0
  144.8652  133.9406  149.9311 H   0  0  0  0  0  0  0  0  0  0  0  0
  146.4796  134.1488  150.5840 H   0  0  0  0  0  0  0  0  0  0  0  0
  144.7314  132.5891  151.9837 H   0  0  0  0  0  0  0  0  0  0  0  0
  143.2497  134.2541  153.3730 H   0  0  0  0  0  0  0  0  0  0  0  0
  142.9439  134.4714  151.6363 H   0  0  0  0  0  0  0  0  0  0  0  0
  145.4359  133.4719  154.1642 H   0  0  0  0  0  0  0  0  0  0  0  0
  147.4589  132.4956  153.4675 H   0  0  0  0  0  0  0  0  0  0  0  0
  147.6590  133.6275  152.1484 H   0  0  0  0  0  0  0  0  0  0  0  0
  148.4689  135.0687  153.4575 H   0  0  0  0  0  0  0  0  0  0  0  0
  1  2  2  0  0  0  0
  2  3  1  0  0  0  0
  2  9  1  0  0  0  0
  3  4  1  0  0  0  0
  3 19  1  0  0  0  0
  4  8  1  0  0  0  0
  4  5  2  0  0  0  0
  5  6  1  0  0  0  0
  6  7  2  0  0  0  0
  7  8  1  0  0  0  0
  7 20  1  0  0  0  0
  9 10  1  0  0  0  0
  9 21  1  0  0  0  0
 10 16  1  0  0  0  0
 10 11  1  0  0  0  0
 10 22  1  0  0  0  0
 11 15  1  0  0  0  0
 11 12  1  0  0  0  0
 11 23  1  0  0  0  0
 12 13  1  0  0  0  0
 12 24  1  0  0  0  0
 12 25  1  0  0  0  0
 13 14  1  0  0  0  0
 13 26  1  0  0  0  0
 13 27  1  0  0  0  0
 14 15  1  0  0  0  0
 14 16  1  0  0  0  0
 14 28  1  0  0  0  0
 15 29  1  0  0  0  0
 15 30  1  0  0  0  0
 16 17  1  0  0  0  0
 16 31  1  0  0  0  0
 17 18  1  0  0  0  0
 17 32  1  0  0  0  0
 17 33  1  0  0  0  0
 18 34  1  0  0  0  0
M  END
> <s_m_source_file>
AV-unprocessed.smi

> <i_m_source_file_index>
798

> <i_lp_mmshare_version>
43012

> <i_f3d_flags>
0

> <s_epik_input>
W0NIMl0xW0NIMl1bQ0BASF0oW0NIMl0yKVtDQEBIXShbQ0gyXVtPSF0pW0NAQEhdKFtDQEhdMTIpW05IXUMoPU8pW05IXWMzbm5bY0hdczM=

> <s_epik_cmdline>
J2VwaWtfcHl0aG9uJywgJy1waCcsICc3LjAnLCAnLXRuJywgJzgnLCAnLW1hJywgJzIwMCcsICctbWV0YWxfYmluZGluZycsICctaW1hZScsICc8aW5maWxlLm1hZT4nLCAnLW9tYWUnLCAnPG91dGZpbGUubWFlPic=

> <r_lp_tautomer_probability>
1

> <r_epik_Ionization_Penalty>
0.000329046

> <r_epik_Ionization_Penalty_Charging>
0

> <r_epik_Ionization_Penalty_Neutral>
0.000329046

> <r_epik_State_Penalty>
-0

> <r_epik_Charging_Adjusted_Penalty>
0

> <i_epik_Tot_Q>
0

> <i_epik_Tot_abs_Q>
0

> <r_epik_Metal_State_Penalty>
0.173433

> <b_epik_Metal_Only>
0

> <s_lp_Force_Field>
OPLS_2005

> <r_lp_Energy>
50.8233

> <b_lp_Chiralities_Consistent>
1

> <s_lp_Variant>
AV-unprocessed.smi:798-4

> <Gold.Version>
5.8.1

> <Gold.Id.Protein>
6NUR|6NUR_protein|mol2

> <Gold.PLP.Fitness>
37.9565

> <Gold.PLP.PLP>
-25.3503

> <Gold.PLP.part.hbond>
-4.0000

> <Gold.PLP.part.metal>
0.0000

> <Gold.PLP.part.buried>
-2.3307

> <Gold.PLP.part.nonpolar>
-18.9997

> <Gold.PLP.part.repulsive>
0.3061

> <Gold.PLP.ligand.clash>
0.0000

> <Gold.PLP.ligand.torsion>
1.1325

> <Gold.PLP.Chemscore.Hbond>
3.9500

> <Gold.PLP.Chemscore.CHOScore>
1.0000

> <Gold.PLP.Chemscore.Metal>
0.0000

> <Gold.Chemscore.Hbonds>
donor molecule, donor type, donor heavy atom, donor atom, acceptor molecule, acceptor atom, score
      L1  H     3    19       P1  7948  1.00
      L1  H     9    21       P1  7948  1.00
      L1  H    18    34       P1  7948  1.00
      P1  H  7989  7998       L1     6  0.95
      L1  C     7    20       P1  8028  1.00

> <Gold.PLP.Chemscore.Internal.Correction>
0.0212

> <Gold.Rescore>
     Score         DG    S(hbond)    S(metal)    S(lipo)     H(rot)  DE(clash)    DE(int)     intcor
     13.02     -16.06       2.91        0.00      49.92       1.94       0.11       2.93       ----

> <Gold.Chemscore.Fitness>
13.0229

> <Gold.Chemscore.DG>
-16.0595

> <Gold.Chemscore.ZeroCoef>
-5.4800

> <Gold.Chemscore.Hbond>
2.9090

> <Gold.Chemscore.Metal>
0.0000

> <Gold.Chemscore.Lipo>
49.9195

> <Gold.Chemscore.Internal_Hbond>
0.0000

> <Gold.Chemscore.DEClash>
0.1105

> <Gold.Chemscore.DEInternal>
2.9261

> <Gold.Chemscore.Rot>
1.9442

> <Gold.Chemscore.Internal.Correction>
   9.000000E+99

> <Gold.Chemscore.Hbonds>
donor molecule, donor type, donor heavy atom, donor atom, acceptor molecule, acceptor atom, score
      L1  H     3    19       P1  7948  0.98
      L1  H     9    21       P1  7948  0.94
      L1  H    18    34       P1  7948  0.84
      P1  H  7989  7998       L1     6  0.07

> <Gold.Chemscore.Hbond.Weighted>
-9.7160

> <Gold.Chemscore.Metal.Weighted>
-0.0000

> <Gold.Chemscore.Lipo.Weighted>
-5.8406

> <Gold.Chemscore.Internal_Hbond.Weighted>
0.0000

> <Gold.Chemscore.DEClash.Weighted>
0.1105

> <Gold.Chemscore.DEInternal.Weighted>
2.9261

> <Gold.Chemscore.Rot.Weighted>
4.9771

> <Gold.Chemscore.Internal.Correction.Weighted>
   9.000000E+99

> <Gold.Protein.RotatedTorsions>
[ 6907 6896 6895 6894 ] final -123.40 input  -60.11 | X-H torsion
[ 7974 7965 7964 7962 ] final -103.60 input  175.53 | X-H torsion
[ 8008 7997 7996 7995 ] final  -40.93 input   59.86 | X-H torsion
[ 10167 10162 10161 10158 ] final    8.45 input  -65.29 | X-H torsion
[ 10718 10713 10712 10709 ] final   47.12 input   66.30 | X-H torsion
[ 10763 10752 10751 10750 ] final -134.93 input  -60.55 | X-H torsion
[ 11005 11000 10999 10996 ] final   74.66 input  -57.11 | X-H torsion

> <Gold.Protein.ActiveResidues>
 VAL166  LYS551  ARG553  GLY616  TRP617  ASP618  TYR619  PRO620  LYS621  CYS622 
 ASP623  PHE694  ASN695  SER759  ASP760  ASP761  ALA762  ILE779  LEU786  VAL792 
 PHE793  MET794  SER795  GLU796  ALA797  LYS798  CYS799  TRP800  GLU811  SER814 

> <Gold.Protein.RotatedAtoms>
  150.8667  133.7564  159.2974 H   0  0  0  0  0  0  0  0  0  0  0  0  # atno 6907 bound_to 6896
  151.5189  135.1065  159.9883 H   0  0  0  0  0  0  0  0  0  0  0  0  # atno 6908 bound_to 6896
  152.4666  133.7892  159.6948 H   0  0  0  0  0  0  0  0  0  0  0  0  # atno 6909 bound_to 6896
  145.2539  140.9247  143.3080 H   0  0  0  0  0  0  0  0  0  0  0  0  # atno 7974 bound_to 7965
  154.4008  140.1512  156.3108 H   0  0  0  0  0  0  0  0  0  0  0  0  # atno 8008 bound_to 7997
  155.8617  140.3453  155.5739 H   0  0  0  0  0  0  0  0  0  0  0  0  # atno 8009 bound_to 7997
  155.7872  140.0851  157.2018 H   0  0  0  0  0  0  0  0  0  0  0  0  # atno 8010 bound_to 7997
  140.6313  143.7987  150.7299 H   0  0  0  0  0  0  0  0  0  0  0  0  # atno 10167 bound_to 10162
  157.4552  130.8163  149.7829 H   0  0  0  0  0  0  0  0  0  0  0  0  # atno 10718 bound_to 10713
  154.8711  135.3719  154.4816 H   0  0  0  0  0  0  0  0  0  0  0  0  # atno 10763 bound_to 10752
  153.5469  135.7025  153.5614 H   0  0  0  0  0  0  0  0  0  0  0  0  # atno 10764 bound_to 10752
  153.3751  135.4011  155.1781 H   0  0  0  0  0  0  0  0  0  0  0  0  # atno 10765 bound_to 10752
  139.9380  134.7451  156.1175 H   0  0  0  0  0  0  0  0  0  0  0  0  # atno 11005 bound_to 11000
  144.9479  139.4116  143.6417 LP  0  0  0  0  0  0  0  0  0  0  0  0  # atno 17320 bound_to 7965
  146.3295  139.8471  142.8880 LP  0  0  0  0  0  0  0  0  0  0  0  0  # atno 17321 bound_to 7965
  140.1598  143.4285  152.2074 LP  0  0  0  0  0  0  0  0  0  0  0  0  # atno 17342 bound_to 10162
  139.5527  144.7350  151.4386 LP  0  0  0  0  0  0  0  0  0  0  0  0  # atno 17343 bound_to 10162
  156.0004  130.3883  150.2628 LP  0  0  0  0  0  0  0  0  0  0  0  0  # atno 17370 bound_to 10713
  157.0802  131.0141  151.3159 LP  0  0  0  0  0  0  0  0  0  0  0  0  # atno 17371 bound_to 10713
  141.1003  133.6680  156.2739 LP  0  0  0  0  0  0  0  0  0  0  0  0  # atno 17394 bound_to 11000
  140.6024  134.5541  157.5520 LP  0  0  0  0  0  0  0  0  0  0  0  0  # atno 17395 bound_to 11000

$$$$
