AV-unprocessed.smi:785|AV-procd|sdf|3720|dock8
  -GOLD-   22720 1143D 1   1.00000     0.00000
 Structure written by MMmdl.
 35 36  0  0  0  0  0  0  0  0  1 V2000
  150.8386  141.9082  156.4007 C   0  0  0  0  0  0  0  0  0  0  0  0
  150.5671  140.7089  155.5585 C   0  0  0  0  0  0  0  0  0  0  0  0
  151.4136  139.6828  155.4386 N   0  0  0  0  0  0  0  0  0  0  0  0
  150.9310  138.6810  154.5893 C   0  0  0  0  0  0  0  0  0  0  0  0
  151.7504  137.4477  154.3405 C   0  0  0  0  0  0  0  0  0  0  0  0
  151.1202  136.2390  155.0346 C   0  0  0  0  0  0  0  0  0  0  0  0
  151.4429  135.9530  156.1875 O   0  0  0  0  0  0  0  0  0  0  0  0
  150.2164  135.5432  154.3266 N   0  0  0  0  0  0  0  0  0  0  0  0
  149.4999  134.3689  154.8082 C   0  0  0  0  0  0  0  0  0  0  0  0
  149.3019  133.3325  153.6879 C   0  0  0  0  0  0  0  0  0  0  0  0
  148.0790  133.5855  152.9355 N   0  0  0  0  0  0  0  0  0  0  0  0
  147.1007  132.6910  152.7284 C   0  0  0  0  0  0  0  0  0  0  0  0
  147.1406  131.5397  153.1653 O   0  0  0  0  0  0  0  0  0  0  0  0
  145.9594  133.2174  151.9209 C   0  0  0  0  0  0  0  0  0  0  0  0
  144.7353  132.3363  151.7751 C   0  0  0  0  0  0  0  0  0  0  0  0
  145.6593  132.5374  150.6005 C   0  0  0  0  0  0  0  0  0  0  0  0
  149.6916  138.9657  154.0703 C   0  0  0  0  0  0  0  0  0  0  0  0
  149.0935  140.5069  154.6196 S   0  0  0  0  0  0  0  0  0  0  0  0
  151.7173  141.7479  157.0262 H   0  0  0  0  0  0  0  0  0  0  0  0
  149.9842  142.1119  157.0461 H   0  0  0  0  0  0  0  0  0  0  0  0
  151.0138  142.7767  155.7658 H   0  0  0  0  0  0  0  0  0  0  0  0
  151.8314  137.2452  153.2715 H   0  0  0  0  0  0  0  0  0  0  0  0
  152.7700  137.5828  154.7037 H   0  0  0  0  0  0  0  0  0  0  0  0
  150.0111  135.8491  153.3864 H   0  0  0  0  0  0  0  0  0  0  0  0
  150.0799  133.9365  155.6240 H   0  0  0  0  0  0  0  0  0  0  0  0
  148.5387  134.6632  155.2331 H   0  0  0  0  0  0  0  0  0  0  0  0
  150.1371  133.3702  152.9882 H   0  0  0  0  0  0  0  0  0  0  0  0
  149.2871  132.3214  154.0984 H   0  0  0  0  0  0  0  0  0  0  0  0
  147.9682  134.5092  152.5429 H   0  0  0  0  0  0  0  0  0  0  0  0
  145.7851  134.2915  151.9673 H   0  0  0  0  0  0  0  0  0  0  0  0
  144.7378  131.3571  152.2510 H   0  0  0  0  0  0  0  0  0  0  0  0
  143.7685  132.8349  151.7562 H   0  0  0  0  0  0  0  0  0  0  0  0
  145.3185  133.1721  149.7851 H   0  0  0  0  0  0  0  0  0  0  0  0
  146.2748  131.6920  150.2978 H   0  0  0  0  0  0  0  0  0  0  0  0
  149.0975  138.3650  153.3978 H   0  0  0  0  0  0  0  0  0  0  0  0
  1  2  1  0  0  0  0
  1 19  1  0  0  0  0
  1 20  1  0  0  0  0
  1 21  1  0  0  0  0
  2 18  1  0  0  0  0
  2  3  2  0  0  0  0
  3  4  1  0  0  0  0
  4  5  1  0  0  0  0
  4 17  2  0  0  0  0
  5  6  1  0  0  0  0
  5 22  1  0  0  0  0
  5 23  1  0  0  0  0
  6  7  2  0  0  0  0
  6  8  1  0  0  0  0
  8  9  1  0  0  0  0
  8 24  1  0  0  0  0
  9 10  1  0  0  0  0
  9 25  1  0  0  0  0
  9 26  1  0  0  0  0
 10 11  1  0  0  0  0
 10 27  1  0  0  0  0
 10 28  1  0  0  0  0
 11 12  1  0  0  0  0
 11 29  1  0  0  0  0
 12 13  2  0  0  0  0
 12 14  1  0  0  0  0
 14 16  1  0  0  0  0
 14 15  1  0  0  0  0
 14 30  1  0  0  0  0
 15 16  1  0  0  0  0
 15 31  1  0  0  0  0
 15 32  1  0  0  0  0
 16 33  1  0  0  0  0
 16 34  1  0  0  0  0
 17 18  1  0  0  0  0
 17 35  1  0  0  0  0
M  END
> <s_m_source_file>
AV-unprocessed.smi

> <i_m_source_file_index>
785

> <i_lp_mmshare_version>
43012

> <i_f3d_flags>
0

> <s_epik_input>
W0NIM11jMW5jKFtjSF1zMSlbQ0gyXUMoPU8pW05IXVtDSDJdW0NIMl1bTkhdQyg9TylbQ0hdMltDSDJdW0NIMl0y

> <s_epik_cmdline>
J2VwaWtfcHl0aG9uJywgJy1waCcsICc3LjAnLCAnLXRuJywgJzgnLCAnLW1hJywgJzIwMCcsICctbWV0YWxfYmluZGluZycsICctaW1hZScsICc8aW5maWxlLm1hZT4nLCAnLW9tYWUnLCAnPG91dGZpbGUubWFlPic=

> <r_lp_tautomer_probability>
1

> <r_epik_Ionization_Penalty>
4.93122e-05

> <r_epik_Ionization_Penalty_Charging>
0

> <r_epik_Ionization_Penalty_Neutral>
4.93122e-05

> <r_epik_State_Penalty>
-0

> <r_epik_Charging_Adjusted_Penalty>
0

> <i_epik_Tot_Q>
0

> <i_epik_Tot_abs_Q>
0

> <r_epik_Metal_State_Penalty>
-0

> <b_epik_Metal_Only>
0

> <s_lp_Force_Field>
OPLS_2005

> <r_lp_Energy>
2.28636

> <b_lp_Chiralities_Consistent>
1

> <s_lp_Variant>
AV-unprocessed.smi:785-1

> <Gold.Version>
5.8.1

> <Gold.Id.Protein>
6NUR|6NUR_protein|mol2

> <Gold.PLP.Fitness>
40.3520

> <Gold.PLP.PLP>
-34.5901

> <Gold.PLP.part.hbond>
-2.7301

> <Gold.PLP.part.metal>
0.0000

> <Gold.PLP.part.buried>
-1.0925

> <Gold.PLP.part.nonpolar>
-31.4288

> <Gold.PLP.part.repulsive>
0.1882

> <Gold.PLP.ligand.clash>
0.0000

> <Gold.PLP.ligand.torsion>
0.8869

> <Gold.PLP.Chemscore.Hbond>
1.4000

> <Gold.PLP.Chemscore.CHOScore>
1.0776

> <Gold.PLP.Chemscore.Metal>
0.0000

> <Gold.Chemscore.Hbonds>
donor molecule, donor type, donor heavy atom, donor atom, acceptor molecule, acceptor atom, score
      L1  H     8    24       P1  7948  0.35
      L1  H    11    29       P1  7948  0.84
      P1  H 10752 10765       L1     7  0.08
      L1  C    17    35       P1  7948  0.81
      L1  C    17    35       P1  7957  0.07

> <Gold.PLP.Chemscore.Internal.Correction>
0.1029

> <Gold.Rescore>
     Score         DG    S(hbond)    S(metal)    S(lipo)     H(rot)  DE(clash)    DE(int)     intcor
     10.46     -11.37       0.74        0.00      76.42       2.16       0.06       0.85       ----

> <Gold.Chemscore.Fitness>
10.4587

> <Gold.Chemscore.DG>
-11.3734

> <Gold.Chemscore.ZeroCoef>
-5.4800

> <Gold.Chemscore.Hbond>
0.7412

> <Gold.Chemscore.Metal>
0.0000

> <Gold.Chemscore.Lipo>
76.4160

> <Gold.Chemscore.Internal_Hbond>
0.0000

> <Gold.Chemscore.DEClash>
0.0614

> <Gold.Chemscore.DEInternal>
0.8533

> <Gold.Chemscore.Rot>
2.1573

> <Gold.Chemscore.Internal.Correction>
   9.000000E+99

> <Gold.Chemscore.Hbonds>
donor molecule, donor type, donor heavy atom, donor atom, acceptor molecule, acceptor atom, score
      L1  H     8    24       P1  7948  0.01
      L1  H    11    29       P1  7948  0.40

> <Gold.Chemscore.Hbond.Weighted>
-2.4755

> <Gold.Chemscore.Metal.Weighted>
-0.0000

> <Gold.Chemscore.Lipo.Weighted>
-8.9407

> <Gold.Chemscore.Internal_Hbond.Weighted>
0.0000

> <Gold.Chemscore.DEClash.Weighted>
0.0614

> <Gold.Chemscore.DEInternal.Weighted>
0.8533

> <Gold.Chemscore.Rot.Weighted>
5.5228

> <Gold.Chemscore.Internal.Correction.Weighted>
   9.000000E+99

> <Gold.Protein.RotatedTorsions>
[ 6907 6896 6895 6894 ] final  134.69 input  -60.11 | X-H torsion
[ 7974 7965 7964 7962 ] final  137.21 input  175.53 | X-H torsion
[ 8008 7997 7996 7995 ] final -175.15 input   59.86 | X-H torsion
[ 10167 10162 10161 10158 ] final -156.31 input  -65.29 | X-H torsion
[ 10718 10713 10712 10709 ] final  -66.10 input   66.30 | X-H torsion
[ 10763 10752 10751 10750 ] final -125.90 input  -60.55 | X-H torsion
[ 11005 11000 10999 10996 ] final -141.22 input  -57.11 | X-H torsion

> <Gold.Protein.ActiveResidues>
 VAL166  LYS551  ARG553  GLY616  TRP617  ASP618  TYR619  PRO620  LYS621  CYS622 
 ASP623  PHE694  ASN695  SER759  ASP760  ASP761  ALA762  ILE779  LEU786  VAL792 
 PHE793  MET794  SER795  GLU796  ALA797  LYS798  CYS799  TRP800  GLU811  SER814 

> <Gold.Protein.RotatedAtoms>
  152.3086  133.5729  159.5665 H   0  0  0  0  0  0  0  0  0  0  0  0  # atno 6907 bound_to 6896
  150.7312  134.0186  159.3702 H   0  0  0  0  0  0  0  0  0  0  0  0  # atno 6908 bound_to 6896
  151.8080  135.0689  160.0460 H   0  0  0  0  0  0  0  0  0  0  0  0  # atno 6909 bound_to 6896
  144.9490  139.4841  143.5535 H   0  0  0  0  0  0  0  0  0  0  0  0  # atno 7974 bound_to 7965
  155.9790  140.1178  157.0744 H   0  0  0  0  0  0  0  0  0  0  0  0  # atno 8008 bound_to 7997
  154.4177  140.1148  156.5477 H   0  0  0  0  0  0  0  0  0  0  0  0  # atno 8009 bound_to 7997
  155.6496  140.3473  155.4746 H   0  0  0  0  0  0  0  0  0  0  0  0  # atno 8010 bound_to 7997
  139.6861  143.9499  152.2362 H   0  0  0  0  0  0  0  0  0  0  0  0  # atno 10167 bound_to 10162
  156.0632  130.4257  150.1659 H   0  0  0  0  0  0  0  0  0  0  0  0  # atno 10718 bound_to 10713
  154.8740  135.4014  154.3343 H   0  0  0  0  0  0  0  0  0  0  0  0  # atno 10763 bound_to 10752
  153.4152  135.7022  153.6337 H   0  0  0  0  0  0  0  0  0  0  0  0  # atno 10764 bound_to 10752
  153.5022  135.3725  155.2516 H   0  0  0  0  0  0  0  0  0  0  0  0  # atno 10765 bound_to 10752
  140.8346  134.2476  157.4840 H   0  0  0  0  0  0  0  0  0  0  0  0  # atno 11005 bound_to 11000
  146.3314  139.8562  142.8864 LP  0  0  0  0  0  0  0  0  0  0  0  0  # atno 17320 bound_to 7965
  145.2874  141.0157  143.3683 LP  0  0  0  0  0  0  0  0  0  0  0  0  # atno 17321 bound_to 7965
  139.9302  144.6746  150.8370 LP  0  0  0  0  0  0  0  0  0  0  0  0  # atno 17342 bound_to 10162
  140.7668  143.3314  151.2403 LP  0  0  0  0  0  0  0  0  0  0  0  0  # atno 17343 bound_to 10162
  156.9724  130.9839  151.3456 LP  0  0  0  0  0  0  0  0  0  0  0  0  # atno 17370 bound_to 10713
  157.5655  130.8275  149.8322 LP  0  0  0  0  0  0  0  0  0  0  0  0  # atno 17371 bound_to 10713
  139.8704  134.9604  156.4362 LP  0  0  0  0  0  0  0  0  0  0  0  0  # atno 17394 bound_to 11000
  140.8962  133.7813  155.9627 LP  0  0  0  0  0  0  0  0  0  0  0  0  # atno 17395 bound_to 11000

$$$$
