AV-unprocessed.smi:2982|AV-procd|sdf|11376|dock10
  -GOLD-   2272016293D 1   1.00000     0.00000
 Structure written by MMmdl.
 36 37  0  0  0  0  0  0  0  0  1 V2000
  152.3693  143.1227  158.8835 C   0  0  0  0  0  0  0  0  0  0  0  0
  152.6412  142.2556  160.1197 C   0  0  0  0  0  0  0  0  0  0  0  0
  154.0937  141.7515  160.2405 C   0  0  0  0  0  0  0  0  0  0  0  0
  154.2142  140.3055  160.3016 N   0  0  0  0  0  0  0  0  0  0  0  0
  154.9129  139.6399  161.3130 C   0  0  0  0  0  0  0  0  0  0  0  0
  155.5214  140.4021  162.2975 N   0  0  0  0  0  0  0  0  0  0  0  0
  155.0100  138.2797  161.3491 C   0  0  0  0  0  0  0  0  0  0  0  0
  155.6962  137.5802  162.3350 N   0  0  0  0  0  0  0  0  0  0  0  0
  155.4752  137.7835  163.7603 C   0  0  0  0  0  0  0  0  0  0  0  0
  154.9794  136.4833  164.4184 C   0  0  0  0  0  0  0  0  0  0  0  0
  155.8939  135.4260  164.1423 O   0  0  0  0  0  0  0  0  0  0  0  0
  156.0275  135.1797  162.7454 C   0  0  0  0  0  0  0  0  0  0  0  0
  156.5606  136.4437  162.0485 C   0  0  0  0  0  0  0  0  0  0  0  0
  154.3757  137.4609  160.3116 C   0  0  0  0  0  0  0  0  0  0  0  0
  154.3981  136.2318  160.2538 O   0  0  0  0  0  0  0  0  0  0  0  0
  153.7038  138.1793  159.3258 N   0  0  0  0  0  0  0  0  0  0  0  0
  153.5949  139.5640  159.2652 C   0  0  0  0  0  0  0  0  0  0  0  0
  152.9820  140.0773  158.3287 O   0  0  0  0  0  0  0  0  0  0  0  0
  153.2608  137.6489  158.5898 H   0  0  0  0  0  0  0  0  0  0  0  0
  151.3131  143.3848  158.8203 H   0  0  0  0  0  0  0  0  0  0  0  0
  152.6367  142.5968  157.9667 H   0  0  0  0  0  0  0  0  0  0  0  0
  152.9358  144.0533  158.9174 H   0  0  0  0  0  0  0  0  0  0  0  0
  152.3668  142.8143  161.0148 H   0  0  0  0  0  0  0  0  0  0  0  0
  151.9771  141.3915  160.0911 H   0  0  0  0  0  0  0  0  0  0  0  0
  154.6844  142.0627  159.3786 H   0  0  0  0  0  0  0  0  0  0  0  0
  154.6043  142.1905  161.0986 H   0  0  0  0  0  0  0  0  0  0  0  0
  155.4675  141.4105  162.2936 H   0  0  0  0  0  0  0  0  0  0  0  0
  156.0405  139.9820  163.0550 H   0  0  0  0  0  0  0  0  0  0  0  0
  156.4104  138.1067  164.2194 H   0  0  0  0  0  0  0  0  0  0  0  0
  154.7520  138.5846  163.9191 H   0  0  0  0  0  0  0  0  0  0  0  0
  154.9039  136.6149  165.4979 H   0  0  0  0  0  0  0  0  0  0  0  0
  153.9836  136.2173  164.0620 H   0  0  0  0  0  0  0  0  0  0  0  0
  156.7167  134.3486  162.5956 H   0  0  0  0  0  0  0  0  0  0  0  0
  155.0676  134.8758  162.3256 H   0  0  0  0  0  0  0  0  0  0  0  0
  156.6247  136.2809  160.9718 H   0  0  0  0  0  0  0  0  0  0  0  0
  157.5697  136.6704  162.3946 H   0  0  0  0  0  0  0  0  0  0  0  0
  1  2  1  0  0  0  0
  1 20  1  0  0  0  0
  1 21  1  0  0  0  0
  1 22  1  0  0  0  0
  2  3  1  0  0  0  0
  2 23  1  0  0  0  0
  2 24  1  0  0  0  0
  3  4  1  0  0  0  0
  3 25  1  0  0  0  0
  3 26  1  0  0  0  0
  4 17  1  0  0  0  0
  4  5  1  0  0  0  0
  5  6  1  0  0  0  0
  5  7  2  0  0  0  0
  6 27  1  0  0  0  0
  6 28  1  0  0  0  0
  7  8  1  0  0  0  0
  7 14  1  0  0  0  0
  8 13  1  0  0  0  0
  8  9  1  0  0  0  0
  9 10  1  0  0  0  0
  9 29  1  0  0  0  0
  9 30  1  0  0  0  0
 10 11  1  0  0  0  0
 10 31  1  0  0  0  0
 10 32  1  0  0  0  0
 11 12  1  0  0  0  0
 12 13  1  0  0  0  0
 12 33  1  0  0  0  0
 12 34  1  0  0  0  0
 13 35  1  0  0  0  0
 13 36  1  0  0  0  0
 14 15  2  0  0  0  0
 14 16  1  0  0  0  0
 16 19  1  0  0  0  0
 16 17  1  0  0  0  0
 17 18  2  0  0  0  0
M  END
> <s_m_source_file>
AV-unprocessed.smi

> <i_m_source_file_index>
2982

> <i_lp_mmshare_version>
43012

> <i_f3d_flags>
0

> <s_epik_input>
W0NIM11bQ0gyXVtDSDJdbjFjKFtOSDJdKWMoYyg9TylbbkhdYzE9TylOMltDSDJdW0NIMl1PW0NIMl1bQ0gyXTI=

> <s_epik_cmdline>
J2VwaWtfcHl0aG9uJywgJy1waCcsICc3LjAnLCAnLXRuJywgJzgnLCAnLW1hJywgJzIwMCcsICctbWV0YWxfYmluZGluZycsICctaW1hZScsICc8aW5maWxlLm1hZT4nLCAnLW9tYWUnLCAnPG91dGZpbGUubWFlPic=

> <r_lp_tautomer_probability>
1

> <r_epik_Ionization_Penalty>
1.08155e-05

> <r_epik_Ionization_Penalty_Charging>
2.81443e-06

> <r_epik_Ionization_Penalty_Neutral>
8.00112e-06

> <r_epik_State_Penalty>
-0

> <r_epik_Charging_Adjusted_Penalty>
2.81443e-06

> <i_epik_Tot_Q>
0

> <i_epik_Tot_abs_Q>
0

> <r_epik_Metal_State_Penalty>
-0

> <b_epik_Metal_Only>
0

> <s_epik_Chemistry_Notes>
This compound has an imine and may undergo hydrolysis.

> <s_lp_Force_Field>
OPLS_2005

> <r_lp_Energy>
28.8877

> <b_lp_Chiralities_Consistent>
1

> <s_lp_Variant>
AV-unprocessed.smi:2982-1

> <Gold.Version>
5.8.1

> <Gold.Id.Protein>
6NUR|6NUR_protein|mol2

> <Gold.PLP.Fitness>
39.1900

> <Gold.PLP.PLP>
-34.0907

> <Gold.PLP.part.hbond>
-2.0000

> <Gold.PLP.part.metal>
0.0000

> <Gold.PLP.part.buried>
-3.4830

> <Gold.PLP.part.nonpolar>
-28.1415

> <Gold.PLP.part.repulsive>
0.1404

> <Gold.PLP.ligand.clash>
0.0056

> <Gold.PLP.ligand.torsion>
1.2242

> <Gold.PLP.Chemscore.Hbond>
1.9760

> <Gold.PLP.Chemscore.CHOScore>
0.0000

> <Gold.PLP.Chemscore.Metal>
0.0000

> <Gold.Chemscore.Hbonds>
donor molecule, donor type, donor heavy atom, donor atom, acceptor molecule, acceptor atom, score
      P1  H  7997  8008       L1    18  0.77

> <Gold.PLP.Chemscore.Internal.Correction>
1.6253

> <Gold.Rescore>
     Score         DG    S(hbond)    S(metal)    S(lipo)     H(rot)  DE(clash)    DE(int)     intcor
     14.98     -16.90       1.97        0.00      68.42       1.24       0.14       1.78       ----

> <Gold.Chemscore.Fitness>
14.9816

> <Gold.Chemscore.DG>
-16.8969

> <Gold.Chemscore.ZeroCoef>
-5.4800

> <Gold.Chemscore.Hbond>
1.9696

> <Gold.Chemscore.Metal>
0.0000

> <Gold.Chemscore.Lipo>
68.4224

> <Gold.Chemscore.Internal_Hbond>
0.0000

> <Gold.Chemscore.DEClash>
0.1395

> <Gold.Chemscore.DEInternal>
1.7758

> <Gold.Chemscore.Rot>
1.2371

> <Gold.Chemscore.Internal.Correction>
   9.000000E+99

> <Gold.Chemscore.Hbonds>
donor molecule, donor type, donor heavy atom, donor atom, acceptor molecule, acceptor atom, score
      P1  H  6896  6909       L1    15  0.01
      P1  H  7997  8008       L1    18  0.12

> <Gold.Chemscore.Hbond.Weighted>
-6.5784

> <Gold.Chemscore.Metal.Weighted>
-0.0000

> <Gold.Chemscore.Lipo.Weighted>
-8.0054

> <Gold.Chemscore.Internal_Hbond.Weighted>
0.0000

> <Gold.Chemscore.DEClash.Weighted>
0.1395

> <Gold.Chemscore.DEInternal.Weighted>
1.7758

> <Gold.Chemscore.Rot.Weighted>
3.1669

> <Gold.Chemscore.Internal.Correction.Weighted>
   9.000000E+99

> <Gold.Protein.RotatedTorsions>
[ 6907 6896 6895 6894 ] final  162.50 input  -60.11 | X-H torsion
[ 7974 7965 7964 7962 ] final  150.94 input  175.53 | X-H torsion
[ 8008 7997 7996 7995 ] final  -81.32 input   59.86 | X-H torsion
[ 10167 10162 10161 10158 ] final  -29.84 input  -65.29 | X-H torsion
[ 10718 10713 10712 10709 ] final   92.94 input   66.30 | X-H torsion
[ 10763 10752 10751 10750 ] final  -37.97 input  -60.55 | X-H torsion
[ 11005 11000 10999 10996 ] final   34.05 input  -57.11 | X-H torsion

> <Gold.Protein.ActiveResidues>
 VAL166  LYS551  ARG553  GLY616  TRP617  ASP618  TYR619  PRO620  LYS621  CYS622 
 ASP623  PHE694  ASN695  SER759  ASP760  ASP761  ALA762  ILE779  LEU786  VAL792 
 PHE793  MET794  SER795  GLU796  ALA797  LYS798  CYS799  TRP800  GLU811  SER814 

> <Gold.Protein.RotatedAtoms>
  151.9394  133.3633  159.3959 H   0  0  0  0  0  0  0  0  0  0  0  0  # atno 6907 bound_to 6896
  150.7001  134.4455  159.5321 H   0  0  0  0  0  0  0  0  0  0  0  0  # atno 6908 bound_to 6896
  152.2109  134.8502  160.0548 H   0  0  0  0  0  0  0  0  0  0  0  0  # atno 6909 bound_to 6896
  144.8328  139.6473  143.6051 H   0  0  0  0  0  0  0  0  0  0  0  0  # atno 7974 bound_to 7965
  154.5972  140.0649  156.9319 H   0  0  0  0  0  0  0  0  0  0  0  0  # atno 8008 bound_to 7997
  155.2194  140.3329  155.4299 H   0  0  0  0  0  0  0  0  0  0  0  0  # atno 8009 bound_to 7997
  156.2295  140.1834  156.7264 H   0  0  0  0  0  0  0  0  0  0  0  0  # atno 8010 bound_to 7997
  140.7256  143.3896  151.1454 H   0  0  0  0  0  0  0  0  0  0  0  0  # atno 10167 bound_to 10162
  157.6957  131.0461  150.3958 H   0  0  0  0  0  0  0  0  0  0  0  0  # atno 10718 bound_to 10713
  153.9051  135.6798  153.4753 H   0  0  0  0  0  0  0  0  0  0  0  0  # atno 10763 bound_to 10752
  153.1108  135.4784  154.9029 H   0  0  0  0  0  0  0  0  0  0  0  0  # atno 10764 bound_to 10752
  154.7555  135.3196  154.8432 H   0  0  0  0  0  0  0  0  0  0  0  0  # atno 10765 bound_to 10752
  140.2568  134.3238  155.7871 H   0  0  0  0  0  0  0  0  0  0  0  0  # atno 11005 bound_to 11000
  146.2629  139.6453  142.9349 LP  0  0  0  0  0  0  0  0  0  0  0  0  # atno 17320 bound_to 7965
  145.4859  141.0438  143.2620 LP  0  0  0  0  0  0  0  0  0  0  0  0  # atno 17321 bound_to 7965
  139.7499  143.8795  152.3074 LP  0  0  0  0  0  0  0  0  0  0  0  0  # atno 17342 bound_to 10162
  139.8645  144.7100  150.9060 LP  0  0  0  0  0  0  0  0  0  0  0  0  # atno 17343 bound_to 10162
  156.4357  130.3981  149.6731 LP  0  0  0  0  0  0  0  0  0  0  0  0  # atno 17370 bound_to 10713
  156.3932  130.7638  151.2640 LP  0  0  0  0  0  0  0  0  0  0  0  0  # atno 17371 bound_to 10713
  141.2195  133.7386  156.9125 LP  0  0  0  0  0  0  0  0  0  0  0  0  # atno 17394 bound_to 11000
  140.1503  134.9234  157.2584 LP  0  0  0  0  0  0  0  0  0  0  0  0  # atno 17395 bound_to 11000

$$$$
