AV-unprocessed.smi:1773|AV-procd|sdf|7163|dock10
  -GOLD-   22720 8403D 1   1.00000     0.00000
 Structure written by MMmdl.
 40 41  0  0  0  0  0  0  0  0  1 V2000
  147.6378  132.9831  152.3494 C   0  0  0  0  0  0  0  0  0  0  0  0
  146.3751  133.0117  151.5032 C   0  0  0  0  0  0  0  0  0  0  0  0
  145.8920  131.8098  150.9434 C   0  0  0  0  0  0  0  0  0  0  0  0
  144.7248  131.8380  150.1613 C   0  0  0  0  0  0  0  0  0  0  0  0
  144.0862  133.0753  149.9705 C   0  0  0  0  0  0  0  0  0  0  0  0
  144.5407  134.2285  150.5018 N   0  0  0  0  0  0  0  0  0  0  0  0
  145.6661  134.2188  151.2598 C   0  0  0  0  0  0  0  0  0  0  0  0
  146.2026  135.3960  151.8539 N   0  0  0  0  0  0  0  0  0  0  0  0
  145.5471  136.4097  152.4464 C   0  0  0  0  0  0  0  0  0  0  0  0
  144.3244  136.4967  152.5642 O   0  0  0  0  0  0  0  0  0  0  0  0
  146.4033  137.3390  152.8957 N   0  0  0  0  0  0  0  0  0  0  0  0
  146.0389  138.5759  153.5851 C   0  0  0  0  0  0  0  0  0  0  0  0
  147.1522  139.6522  153.5383 C   0  0  0  0  0  0  0  0  0  0  0  0
  147.4271  139.8948  152.1697 O   0  0  0  0  0  0  0  0  0  0  0  0
  146.7474  140.9831  154.2227 C   0  0  0  0  0  0  0  0  0  0  0  0
  147.9015  141.9990  154.2979 C   0  0  0  0  0  0  0  0  0  0  0  0
  149.1418  141.3941  154.9696 C   0  0  0  0  0  0  0  0  0  0  0  0
  149.5867  140.1154  154.2472 C   0  0  0  0  0  0  0  0  0  0  0  0
  148.4435  139.0871  154.1778 C   0  0  0  0  0  0  0  0  0  0  0  0
  148.0338  131.9710  152.4381 H   0  0  0  0  0  0  0  0  0  0  0  0
  147.4325  133.3513  153.3551 H   0  0  0  0  0  0  0  0  0  0  0  0
  148.4111  133.6078  151.9017 H   0  0  0  0  0  0  0  0  0  0  0  0
  146.4076  130.8753  151.1095 H   0  0  0  0  0  0  0  0  0  0  0  0
  144.3293  130.9355  149.7193 H   0  0  0  0  0  0  0  0  0  0  0  0
  143.1867  133.1420  149.3766 H   0  0  0  0  0  0  0  0  0  0  0  0
  147.2085  135.4718  151.8277 H   0  0  0  0  0  0  0  0  0  0  0  0
  147.3897  137.1868  152.7447 H   0  0  0  0  0  0  0  0  0  0  0  0
  145.1186  138.9798  153.1599 H   0  0  0  0  0  0  0  0  0  0  0  0
  145.7972  138.3285  154.6197 H   0  0  0  0  0  0  0  0  0  0  0  0
  148.3645  139.9330  152.0565 H   0  0  0  0  0  0  0  0  0  0  0  0
  145.9060  141.4439  153.7042 H   0  0  0  0  0  0  0  0  0  0  0  0
  146.4003  140.7719  155.2353 H   0  0  0  0  0  0  0  0  0  0  0  0
  148.1588  142.3408  153.2946 H   0  0  0  0  0  0  0  0  0  0  0  0
  147.5782  142.8831  154.8481 H   0  0  0  0  0  0  0  0  0  0  0  0
  149.9545  142.1210  154.9750 H   0  0  0  0  0  0  0  0  0  0  0  0
  148.9205  141.1682  156.0135 H   0  0  0  0  0  0  0  0  0  0  0  0
  149.9282  140.3611  153.2410 H   0  0  0  0  0  0  0  0  0  0  0  0
  150.4432  139.6795  154.7623 H   0  0  0  0  0  0  0  0  0  0  0  0
  148.2230  138.7500  155.1918 H   0  0  0  0  0  0  0  0  0  0  0  0
  148.7790  138.2023  153.6350 H   0  0  0  0  0  0  0  0  0  0  0  0
  1  2  1  0  0  0  0
  1 20  1  0  0  0  0
  1 21  1  0  0  0  0
  1 22  1  0  0  0  0
  2  7  1  0  0  0  0
  2  3  2  0  0  0  0
  3  4  1  0  0  0  0
  3 23  1  0  0  0  0
  4  5  2  0  0  0  0
  4 24  1  0  0  0  0
  5  6  1  0  0  0  0
  5 25  1  0  0  0  0
  6  7  2  0  0  0  0
  7  8  1  0  0  0  0
  8  9  1  0  0  0  0
  8 26  1  0  0  0  0
  9 10  2  0  0  0  0
  9 11  1  0  0  0  0
 11 12  1  0  0  0  0
 11 27  1  0  0  0  0
 12 13  1  0  0  0  0
 12 28  1  0  0  0  0
 12 29  1  0  0  0  0
 13 19  1  0  0  0  0
 13 14  1  0  0  0  0
 13 15  1  0  0  0  0
 14 30  1  0  0  0  0
 15 16  1  0  0  0  0
 15 31  1  0  0  0  0
 15 32  1  0  0  0  0
 16 17  1  0  0  0  0
 16 33  1  0  0  0  0
 16 34  1  0  0  0  0
 17 18  1  0  0  0  0
 17 35  1  0  0  0  0
 17 36  1  0  0  0  0
 18 19  1  0  0  0  0
 18 37  1  0  0  0  0
 18 38  1  0  0  0  0
 19 39  1  0  0  0  0
 19 40  1  0  0  0  0
M  END
> <s_m_source_file>
AV-unprocessed.smi

> <i_m_source_file_index>
1773

> <i_lp_mmshare_version>
43012

> <i_f3d_flags>
0

> <s_epik_input>
W0NIM11jMVtjSF1bY0hdW2NIXW5jMVtOSF1DKD1PKVtOSF1bQ0gyXUMyKFtPSF0pW0NIMl1bQ0gyXVtDSDJdW0NIMl1bQ0gyXTI=

> <s_epik_cmdline>
J2VwaWtfcHl0aG9uJywgJy1waCcsICc3LjAnLCAnLXRuJywgJzgnLCAnLW1hJywgJzIwMCcsICctbWV0YWxfYmluZGluZycsICctaW1hZScsICc8aW5maWxlLm1hZT4nLCAnLW9tYWUnLCAnPG91dGZpbGUubWFlPic=

> <r_lp_tautomer_probability>
1

> <r_epik_Ionization_Penalty>
6.74357e-05

> <r_epik_Ionization_Penalty_Charging>
0

> <r_epik_Ionization_Penalty_Neutral>
6.74357e-05

> <r_epik_State_Penalty>
-0

> <r_epik_Charging_Adjusted_Penalty>
0

> <i_epik_Tot_Q>
0

> <i_epik_Tot_abs_Q>
0

> <r_epik_Metal_State_Penalty>
-0

> <b_epik_Metal_Only>
0

> <s_lp_Force_Field>
OPLS_2005

> <r_lp_Energy>
17.1315

> <b_lp_Chiralities_Consistent>
1

> <s_lp_Variant>
AV-unprocessed.smi:1773-1

> <Gold.Version>
5.8.1

> <Gold.Id.Protein>
6NUR|6NUR_protein|mol2

> <Gold.PLP.Fitness>
45.7506

> <Gold.PLP.PLP>
-34.6721

> <Gold.PLP.part.hbond>
-2.5743

> <Gold.PLP.part.metal>
0.0000

> <Gold.PLP.part.buried>
-3.4100

> <Gold.PLP.part.nonpolar>
-29.7505

> <Gold.PLP.part.repulsive>
0.3891

> <Gold.PLP.ligand.clash>
0.0000

> <Gold.PLP.ligand.torsion>
0.4640

> <Gold.PLP.Chemscore.Hbond>
3.0000

> <Gold.PLP.Chemscore.CHOScore>
1.0000

> <Gold.PLP.Chemscore.Metal>
0.0000

> <Gold.Chemscore.Hbonds>
donor molecule, donor type, donor heavy atom, donor atom, acceptor molecule, acceptor atom, score
      L1  H     8    26       P1  7948  1.00
      L1  H    11    27       P1  7948  1.00
      L1  H    14    30       P1  7957  0.97
      L1  C     5    25       P1 10186  1.00

> <Gold.PLP.Chemscore.Internal.Correction>
0.0065

> <Gold.Rescore>
     Score         DG    S(hbond)    S(metal)    S(lipo)     H(rot)  DE(clash)    DE(int)     intcor
     19.34     -20.47       2.83        0.00      85.26       1.73       0.04       1.09       ----

> <Gold.Chemscore.Fitness>
19.3398

> <Gold.Chemscore.DG>
-20.4706

> <Gold.Chemscore.ZeroCoef>
-5.4800

> <Gold.Chemscore.Hbond>
2.8305

> <Gold.Chemscore.Metal>
0.0000

> <Gold.Chemscore.Lipo>
85.2606

> <Gold.Chemscore.Internal_Hbond>
0.0000

> <Gold.Chemscore.DEClash>
0.0385

> <Gold.Chemscore.DEInternal>
1.0923

> <Gold.Chemscore.Rot>
1.7339

> <Gold.Chemscore.Internal.Correction>
   9.000000E+99

> <Gold.Chemscore.Hbonds>
donor molecule, donor type, donor heavy atom, donor atom, acceptor molecule, acceptor atom, score
      L1  H     8    26       P1  7948  0.99
      L1  H    11    27       P1  7948  0.90
      L1  H    14    30       P1  7957  0.85

> <Gold.Chemscore.Hbond.Weighted>
-9.4538

> <Gold.Chemscore.Metal.Weighted>
-0.0000

> <Gold.Chemscore.Lipo.Weighted>
-9.9755

> <Gold.Chemscore.Internal_Hbond.Weighted>
0.0000

> <Gold.Chemscore.DEClash.Weighted>
0.0385

> <Gold.Chemscore.DEInternal.Weighted>
1.0923

> <Gold.Chemscore.Rot.Weighted>
4.4387

> <Gold.Chemscore.Internal.Correction.Weighted>
   9.000000E+99

> <Gold.Protein.RotatedTorsions>
[ 6907 6896 6895 6894 ] final   36.02 input  -60.11 | X-H torsion
[ 7974 7965 7964 7962 ] final  173.16 input  175.53 | X-H torsion
[ 8008 7997 7996 7995 ] final  148.90 input   59.86 | X-H torsion
[ 10167 10162 10161 10158 ] final -133.25 input  -65.29 | X-H torsion
[ 10718 10713 10712 10709 ] final -137.50 input   66.30 | X-H torsion
[ 10763 10752 10751 10750 ] final   94.75 input  -60.55 | X-H torsion
[ 11005 11000 10999 10996 ] final  -90.23 input  -57.11 | X-H torsion

> <Gold.Protein.ActiveResidues>
 VAL166  LYS551  ARG553  GLY616  TRP617  ASP618  TYR619  PRO620  LYS621  CYS622 
 ASP623  PHE694  ASN695  SER759  ASP760  ASP761  ALA762  ILE779  LEU786  VAL792 
 PHE793  MET794  SER795  GLU796  ALA797  LYS798  CYS799  TRP800  GLU811  SER814 

> <Gold.Protein.RotatedAtoms>
  152.1241  134.9184  160.0561 H   0  0  0  0  0  0  0  0  0  0  0  0  # atno 6907 bound_to 6896
  152.0313  133.3934  159.4307 H   0  0  0  0  0  0  0  0  0  0  0  0  # atno 6908 bound_to 6896
  150.6851  134.3438  159.4923 H   0  0  0  0  0  0  0  0  0  0  0  0  # atno 6909 bound_to 6896
  144.7250  139.9607  143.6434 H   0  0  0  0  0  0  0  0  0  0  0  0  # atno 7974 bound_to 7965
  156.2775  140.2116  156.5772 H   0  0  0  0  0  0  0  0  0  0  0  0  # atno 8008 bound_to 7997
  154.7088  140.0514  157.0553 H   0  0  0  0  0  0  0  0  0  0  0  0  # atno 8009 bound_to 7997
  155.0634  140.3169  155.4656 H   0  0  0  0  0  0  0  0  0  0  0  0  # atno 8010 bound_to 7997
  139.9002  143.6617  152.2596 H   0  0  0  0  0  0  0  0  0  0  0  0  # atno 10167 bound_to 10162
  156.2888  130.7363  151.1382 H   0  0  0  0  0  0  0  0  0  0  0  0  # atno 10718 bound_to 10713
  153.2452  135.4278  155.0740 H   0  0  0  0  0  0  0  0  0  0  0  0  # atno 10763 bound_to 10752
  154.8358  135.3412  154.6591 H   0  0  0  0  0  0  0  0  0  0  0  0  # atno 10764 bound_to 10752
  153.7014  135.7028  153.5119 H   0  0  0  0  0  0  0  0  0  0  0  0  # atno 10765 bound_to 10752
  141.1569  133.7679  156.9708 H   0  0  0  0  0  0  0  0  0  0  0  0  # atno 11005 bound_to 11000
  146.0640  139.3632  143.0564 LP  0  0  0  0  0  0  0  0  0  0  0  0  # atno 17320 bound_to 7965
  145.8056  140.9750  143.0976 LP  0  0  0  0  0  0  0  0  0  0  0  0  # atno 17321 bound_to 7965
  139.7032  144.7632  151.1237 LP  0  0  0  0  0  0  0  0  0  0  0  0  # atno 17342 bound_to 10162
  140.7708  143.5429  150.9291 LP  0  0  0  0  0  0  0  0  0  0  0  0  # atno 17343 bound_to 10162
  157.7336  131.0589  150.5567 LP  0  0  0  0  0  0  0  0  0  0  0  0  # atno 17370 bound_to 10713
  156.5681  130.4273  149.6032 LP  0  0  0  0  0  0  0  0  0  0  0  0  # atno 17371 bound_to 10713
  140.1130  134.9465  157.2094 LP  0  0  0  0  0  0  0  0  0  0  0  0  # atno 17394 bound_to 11000
  140.3169  134.2960  155.7254 LP  0  0  0  0  0  0  0  0  0  0  0  0  # atno 17395 bound_to 11000

$$$$
