AV-unprocessed.smi:840|AV-procd|sdf|3913|dock10
  -GOLD-   22720 1373D 1   1.00000     0.00000
 Structure written by MMmdl.
 36 37  0  0  0  0  0  0  0  0  2 V2000
  149.8084  141.6325  155.3943 C   0  0  0  0  0  0  0  0  0  0  0  0
  149.6665  141.5280  156.9219 C   0  0  2  0  0  0  0  0  0  0  0  0
  148.7142  142.5482  157.3598 N   0  0  0  0  0  0  0  0  0  0  0  0
  147.6597  142.3493  158.1655 C   0  0  0  0  0  0  0  0  0  0  0  0
  147.4267  141.2208  158.6061 O   0  0  0  0  0  0  0  0  0  0  0  0
  146.9403  143.4686  158.4078 N   0  5  0  0  0  0  0  0  0  0  0  0
  146.2937  143.6126  159.5759 C   0  0  0  0  0  0  0  0  0  0  0  0
  146.6176  142.9260  160.6777 N   0  0  0  0  0  0  0  0  0  0  0  0
  145.8212  143.2384  161.7808 C   0  0  0  0  0  0  0  0  0  0  0  0
  144.8737  144.1913  161.5154 C   0  0  0  0  0  0  0  0  0  0  0  0
  144.9537  144.7271  159.8614 S   0  0  0  0  0  0  0  0  0  0  0  0
  151.0476  141.7698  157.5513 C   0  0  0  0  0  0  0  0  0  0  0  0
  151.9916  141.0166  157.3067 O   0  0  0  0  0  0  0  0  0  0  0  0
  151.1425  142.8237  158.3758 N   0  0  0  0  0  0  0  0  0  0  0  0
  152.3565  143.2419  159.0710 C   0  0  0  0  0  0  0  0  0  0  0  0
  152.8309  142.1494  160.0489 C   0  0  0  0  0  0  0  0  0  0  0  0
  153.0843  142.8537  161.3835 C   0  0  0  0  0  0  0  0  0  0  0  0
  152.1176  144.0334  161.3784 C   0  0  0  0  0  0  0  0  0  0  0  0
  152.1109  144.5028  159.9236 C   0  0  0  0  0  0  0  0  0  0  0  0
  150.5097  140.8906  155.0097 H   0  0  0  0  0  0  0  0  0  0  0  0
  150.1611  142.6175  155.0847 H   0  0  0  0  0  0  0  0  0  0  0  0
  148.8505  141.4578  154.9033 H   0  0  0  0  0  0  0  0  0  0  0  0
  149.2961  140.5353  157.1855 H   0  0  0  0  0  0  0  0  0  0  0  0
  148.8731  143.4891  157.0312 H   0  0  0  0  0  0  0  0  0  0  0  0
  146.0004  142.7337  162.7184 H   0  0  0  0  0  0  0  0  0  0  0  0
  144.1388  144.6090  162.1866 H   0  0  0  0  0  0  0  0  0  0  0  0
  150.3174  143.3881  158.5164 H   0  0  0  0  0  0  0  0  0  0  0  0
  153.1438  143.4433  158.3420 H   0  0  0  0  0  0  0  0  0  0  0  0
  152.0562  141.3936  160.1888 H   0  0  0  0  0  0  0  0  0  0  0  0
  153.7209  141.6330  159.6877 H   0  0  0  0  0  0  0  0  0  0  0  0
  152.9394  142.1950  162.2402 H   0  0  0  0  0  0  0  0  0  0  0  0
  154.1108  143.2219  161.4153 H   0  0  0  0  0  0  0  0  0  0  0  0
  151.1200  143.6928  161.6591 H   0  0  0  0  0  0  0  0  0  0  0  0
  152.4099  144.8214  162.0731 H   0  0  0  0  0  0  0  0  0  0  0  0
  152.9318  145.2042  159.7691 H   0  0  0  0  0  0  0  0  0  0  0  0
  151.1897  145.0295  159.6691 H   0  0  0  0  0  0  0  0  0  0  0  0
  1  2  1  0  0  0  0
  1 20  1  0  0  0  0
  1 21  1  0  0  0  0
  1 22  1  0  0  0  0
  2  3  1  0  0  0  0
  2 12  1  0  0  0  0
  2 23  1  0  0  0  0
  3  4  1  0  0  0  0
  3 24  1  0  0  0  0
  4  5  2  0  0  0  0
  4  6  1  0  0  0  0
  6  7  1  0  0  0  0
  7 11  1  0  0  0  0
  7  8  2  0  0  0  0
  8  9  1  0  0  0  0
  9 10  2  0  0  0  0
  9 25  1  0  0  0  0
 10 11  1  0  0  0  0
 10 26  1  0  0  0  0
 12 13  2  0  0  0  0
 12 14  1  0  0  0  0
 14 15  1  0  0  0  0
 14 27  1  0  0  0  0
 15 19  1  0  0  0  0
 15 16  1  0  0  0  0
 15 28  1  0  0  0  0
 16 17  1  0  0  0  0
 16 29  1  0  0  0  0
 16 30  1  0  0  0  0
 17 18  1  0  0  0  0
 17 31  1  0  0  0  0
 17 32  1  0  0  0  0
 18 19  1  0  0  0  0
 18 33  1  0  0  0  0
 18 34  1  0  0  0  0
 19 35  1  0  0  0  0
 19 36  1  0  0  0  0
M  CHG  1   6  -1
M  END
> <s_m_source_file>
AV-unprocessed.smi

> <i_m_source_file_index>
840

> <i_lp_mmshare_version>
43012

> <i_f3d_flags>
0

> <s_epik_input>
W0NIMl0xW0NIMl1bQ0gyXVtDSDJdW0NIXTFbTkhdQyg9TylbQ0BIXShbQ0gzXSlbTkhdQyg9TylbTkhdYzJuW2NIXVtjSF1zMg==

> <s_epik_cmdline>
J2VwaWtfcHl0aG9uJywgJy1waCcsICc3LjAnLCAnLXRuJywgJzgnLCAnLW1hJywgJzIwMCcsICctbWV0YWxfYmluZGluZycsICctaW1hZScsICc8aW5maWxlLm1hZT4nLCAnLW9tYWUnLCAnPG91dGZpbGUubWFlPic=

> <r_lp_tautomer_probability>
1

> <r_epik_Ionization_Penalty>
6.35467

> <r_epik_Ionization_Penalty_Charging>
5.47395

> <r_epik_Ionization_Penalty_Neutral>
0.880717

> <r_epik_State_Penalty>
5.4739

> <r_epik_Charging_Adjusted_Penalty>
10.9479

> <i_epik_Tot_Q>
-1

> <i_epik_Tot_abs_Q>
1

> <r_epik_Metal_State_Penalty>
1.48639

> <b_epik_Metal_Only>
1

> <s_lp_Force_Field>
OPLS_2005

> <r_lp_Energy>
14.0087

> <b_lp_Chiralities_Consistent>
1

> <s_lp_Variant>
AV-unprocessed.smi:840-3

> <Gold.Version>
5.8.1

> <Gold.Id.Protein>
6NUR|6NUR_protein|mol2

> <Gold.PLP.Fitness>
46.0333

> <Gold.PLP.PLP>
-38.3093

> <Gold.PLP.part.hbond>
-4.0000

> <Gold.PLP.part.metal>
0.0000

> <Gold.PLP.part.buried>
-4.8370

> <Gold.PLP.part.nonpolar>
-31.4433

> <Gold.PLP.part.repulsive>
1.6473

> <Gold.PLP.ligand.clash>
0.0000

> <Gold.PLP.ligand.torsion>
0.3737

> <Gold.PLP.Chemscore.Hbond>
2.8080

> <Gold.PLP.Chemscore.CHOScore>
0.0000

> <Gold.PLP.Chemscore.Metal>
0.0000

> <Gold.Chemscore.Hbonds>
donor molecule, donor type, donor heavy atom, donor atom, acceptor molecule, acceptor atom, score
      L1  H     3    24       P1  8028  1.00
      P1  H  6933  6944       L1     8  0.77
      P1  H  6934  6946       L1     8  0.84

> <Gold.PLP.Chemscore.Internal.Correction>
0.0473

> <Gold.Rescore>
     Score         DG    S(hbond)    S(metal)    S(lipo)     H(rot)  DE(clash)    DE(int)     intcor
     15.71     -17.70       1.77        0.00      89.46       1.62       0.13       1.85       ----

> <Gold.Chemscore.Fitness>
15.7121

> <Gold.Chemscore.DG>
-17.6960

> <Gold.Chemscore.ZeroCoef>
-5.4800

> <Gold.Chemscore.Hbond>
1.7656

> <Gold.Chemscore.Metal>
0.0000

> <Gold.Chemscore.Lipo>
89.4613

> <Gold.Chemscore.Internal_Hbond>
0.0000

> <Gold.Chemscore.DEClash>
0.1330

> <Gold.Chemscore.DEInternal>
1.8509

> <Gold.Chemscore.Rot>
1.6204

> <Gold.Chemscore.Internal.Correction>
   9.000000E+99

> <Gold.Chemscore.Hbonds>
donor molecule, donor type, donor heavy atom, donor atom, acceptor molecule, acceptor atom, score
      L1  H     3    24       P1  8028  0.48
      P1  H  6933  6944       L1     8  0.41
      P1  H  6934  6946       L1     8  0.43

> <Gold.Chemscore.Hbond.Weighted>
-5.8972

> <Gold.Chemscore.Metal.Weighted>
-0.0000

> <Gold.Chemscore.Lipo.Weighted>
-10.4670

> <Gold.Chemscore.Internal_Hbond.Weighted>
0.0000

> <Gold.Chemscore.DEClash.Weighted>
0.1330

> <Gold.Chemscore.DEInternal.Weighted>
1.8509

> <Gold.Chemscore.Rot.Weighted>
4.1481

> <Gold.Chemscore.Internal.Correction.Weighted>
   9.000000E+99

> <Gold.Protein.RotatedTorsions>
[ 6907 6896 6895 6894 ] final -102.42 input  -60.11 | X-H torsion
[ 7974 7965 7964 7962 ] final  154.96 input  175.53 | X-H torsion
[ 8008 7997 7996 7995 ] final  169.21 input   59.86 | X-H torsion
[ 10167 10162 10161 10158 ] final  115.56 input  -65.29 | X-H torsion
[ 10718 10713 10712 10709 ] final   41.06 input   66.30 | X-H torsion
[ 10763 10752 10751 10750 ] final -150.02 input  -60.55 | X-H torsion
[ 11005 11000 10999 10996 ] final   60.46 input  -57.11 | X-H torsion

> <Gold.Protein.ActiveResidues>
 VAL166  LYS551  ARG553  GLY616  TRP617  ASP618  TYR619  PRO620  LYS621  CYS622 
 ASP623  PHE694  ASN695  SER759  ASP760  ASP761  ALA762  ILE779  LEU786  VAL792 
 PHE793  MET794  SER795  GLU796  ALA797  LYS798  CYS799  TRP800  GLU811  SER814 

> <Gold.Protein.RotatedAtoms>
  150.7196  134.0583  159.3822 H   0  0  0  0  0  0  0  0  0  0  0  0  # atno 6907 bound_to 6896
  151.8562  135.0538  160.0474 H   0  0  0  0  0  0  0  0  0  0  0  0  # atno 6908 bound_to 6896
  152.2752  133.5383  159.5500 H   0  0  0  0  0  0  0  0  0  0  0  0  # atno 6909 bound_to 6896
  144.8055  139.7004  143.6164 H   0  0  0  0  0  0  0  0  0  0  0  0  # atno 7974 bound_to 7965
  156.1477  140.1570  156.8819 H   0  0  0  0  0  0  0  0  0  0  0  0  # atno 8008 bound_to 7997
  154.5043  140.0817  156.7900 H   0  0  0  0  0  0  0  0  0  0  0  0  # atno 8009 bound_to 7997
  155.3956  140.3412  155.4256 H   0  0  0  0  0  0  0  0  0  0  0  0  # atno 8010 bound_to 7997
  139.6308  144.7114  151.2436 H   0  0  0  0  0  0  0  0  0  0  0  0  # atno 10167 bound_to 10162
  157.3893  130.7797  149.7256 H   0  0  0  0  0  0  0  0  0  0  0  0  # atno 10718 bound_to 10713
  154.8144  135.3295  154.7218 H   0  0  0  0  0  0  0  0  0  0  0  0  # atno 10763 bound_to 10752
  153.7861  135.6914  153.4884 H   0  0  0  0  0  0  0  0  0  0  0  0  # atno 10764 bound_to 10752
  153.1948  135.4538  155.0141 H   0  0  0  0  0  0  0  0  0  0  0  0  # atno 10765 bound_to 10752
  140.0230  134.6125  155.9613 H   0  0  0  0  0  0  0  0  0  0  0  0  # atno 11005 bound_to 11000
  146.2345  139.5879  142.9533 LP  0  0  0  0  0  0  0  0  0  0  0  0  # atno 17320 bound_to 7965
  145.5448  141.0418  143.2310 LP  0  0  0  0  0  0  0  0  0  0  0  0  # atno 17321 bound_to 7965
  140.7438  143.6484  150.8271 LP  0  0  0  0  0  0  0  0  0  0  0  0  # atno 17342 bound_to 10162
  140.0108  143.5644  152.2839 LP  0  0  0  0  0  0  0  0  0  0  0  0  # atno 17343 bound_to 10162
  155.9794  130.4040  150.3588 LP  0  0  0  0  0  0  0  0  0  0  0  0  # atno 17370 bound_to 10713
  157.1702  131.0367  151.2799 LP  0  0  0  0  0  0  0  0  0  0  0  0  # atno 17371 bound_to 10713
  141.1785  133.6543  156.4926 LP  0  0  0  0  0  0  0  0  0  0  0  0  # atno 17394 bound_to 11000
  140.4355  134.7063  157.4964 LP  0  0  0  0  0  0  0  0  0  0  0  0  # atno 17395 bound_to 11000

$$$$
