AV-unprocessed.smi:2812|AV-procd|sdf|10835|dock2
  -GOLD-   2272015273D 1   1.00000     0.00000
 Structure written by MMmdl.
 55 56  0  0  0  0  0  0  0  0  2 V2000
  147.5993  131.2256  153.7335 C   0  0  0  0  0  0  0  0  0  0  0  0
  146.6247  131.6280  152.6378 C   0  0  0  0  0  0  0  0  0  0  0  0
  145.7439  130.6264  152.0738 C   0  0  0  0  0  0  0  0  0  0  0  0
  144.8940  130.9708  151.0971 C   0  0  0  0  0  0  0  0  0  0  0  0
  144.8225  132.2847  150.6122 N   0  0  0  0  0  0  0  0  0  0  0  0
  143.8474  132.5641  149.5546 C   0  0  0  0  0  0  0  0  0  0  0  0
  145.5964  133.2902  151.1132 C   0  0  0  0  0  0  0  0  0  0  0  0
  145.4605  134.4502  150.7170 O   0  0  0  0  0  0  0  0  0  0  0  0
  146.5747  132.8979  152.1565 C   0  0  0  0  0  0  0  0  0  0  0  0
  147.4200  133.8687  152.7155 N   0  0  0  0  0  0  0  0  0  0  0  0
  147.3518  134.3482  153.9697 C   0  0  0  0  0  0  0  0  0  0  0  0
  146.5563  133.9657  154.8289 O   0  0  0  0  0  0  0  0  0  0  0  0
  148.2378  135.3348  154.1661 N   0  0  0  0  0  0  0  0  0  0  0  0
  148.3810  136.0980  155.4033 C   0  0  0  0  0  0  0  0  0  0  0  0
  148.3018  137.6387  155.1909 C   0  0  2  0  0  0  0  0  0  0  0  0
  146.8485  138.0500  154.8355 C   0  0  0  0  0  0  0  0  0  0  0  0
  146.7024  139.5585  154.6300 C   0  0  0  0  0  0  0  0  0  0  0  0
  147.6900  140.0193  153.5622 C   0  0  0  0  0  0  0  0  0  0  0  0
  149.1188  139.6216  153.9507 C   0  0  0  0  0  0  0  0  0  0  0  0
  149.2603  138.1487  154.1496 N   0  3  1  0  0  0  0  0  0  0  0  0
  150.6869  137.7599  154.3711 C   0  0  0  0  0  0  0  0  0  0  0  0
  151.5730  138.8833  154.9622 C   0  0  0  0  0  0  0  0  0  0  0  0
  153.0668  138.5179  154.9303 C   0  0  0  0  0  0  0  0  0  0  0  0
  151.1352  139.2095  156.3982 C   0  0  0  0  0  0  0  0  0  0  0  0
  147.5026  130.1678  153.9788 H   0  0  0  0  0  0  0  0  0  0  0  0
  147.4140  131.7993  154.6420 H   0  0  0  0  0  0  0  0  0  0  0  0
  148.6267  131.4037  153.4145 H   0  0  0  0  0  0  0  0  0  0  0  0
  145.7718  129.6066  152.4289 H   0  0  0  0  0  0  0  0  0  0  0  0
  144.2149  130.2678  150.6371 H   0  0  0  0  0  0  0  0  0  0  0  0
  144.3217  133.0712  148.7129 H   0  0  0  0  0  0  0  0  0  0  0  0
  143.0501  133.2051  149.9336 H   0  0  0  0  0  0  0  0  0  0  0  0
  143.3830  131.6590  149.1616 H   0  0  0  0  0  0  0  0  0  0  0  0
  148.0343  134.3412  152.0687 H   0  0  0  0  0  0  0  0  0  0  0  0
  148.8491  135.5845  153.4021 H   0  0  0  0  0  0  0  0  0  0  0  0
  147.6015  135.7342  156.0709 H   0  0  0  0  0  0  0  0  0  0  0  0
  149.3357  135.8308  155.8573 H   0  0  0  0  0  0  0  0  0  0  0  0
  148.5696  138.1245  156.1307 H   0  0  0  0  0  0  0  0  0  0  0  0
  146.5308  137.5278  153.9319 H   0  0  0  0  0  0  0  0  0  0  0  0
  146.1544  137.7506  155.6208 H   0  0  0  0  0  0  0  0  0  0  0  0
  145.6822  139.8032  154.3328 H   0  0  0  0  0  0  0  0  0  0  0  0
  146.8927  140.0829  155.5674 H   0  0  0  0  0  0  0  0  0  0  0  0
  147.4310  139.5785  152.5984 H   0  0  0  0  0  0  0  0  0  0  0  0
  147.6245  141.1006  153.4374 H   0  0  0  0  0  0  0  0  0  0  0  0
  149.7748  139.9760  153.1589 H   0  0  0  0  0  0  0  0  0  0  0  0
  149.4178  140.1419  154.8622 H   0  0  0  0  0  0  0  0  0  0  0  0
  150.7193  136.8744  155.0080 H   0  0  0  0  0  0  0  0  0  0  0  0
  151.1644  137.4803  153.4371 H   0  0  0  0  0  0  0  0  0  0  0  0
  151.4364  139.8021  154.3945 H   0  0  0  0  0  0  0  0  0  0  0  0
  153.2636  137.6023  155.4893 H   0  0  0  0  0  0  0  0  0  0  0  0
  153.6735  139.3107  155.3690 H   0  0  0  0  0  0  0  0  0  0  0  0
  153.4211  138.3685  153.9103 H   0  0  0  0  0  0  0  0  0  0  0  0
  151.2567  138.3489  157.0571 H   0  0  0  0  0  0  0  0  0  0  0  0
  150.0872  139.5089  156.4320 H   0  0  0  0  0  0  0  0  0  0  0  0
  151.7229  140.0293  156.8128 H   0  0  0  0  0  0  0  0  0  0  0  0
  148.9840  137.7125  153.2818 H   0  0  0  0  0  0  0  0  0  0  0  0
  1  2  1  0  0  0  0
  1 25  1  0  0  0  0
  1 26  1  0  0  0  0
  1 27  1  0  0  0  0
  2  9  2  0  0  0  0
  2  3  1  0  0  0  0
  3  4  2  0  0  0  0
  3 28  1  0  0  0  0
  4  5  1  0  0  0  0
  4 29  1  0  0  0  0
  5  6  1  0  0  0  0
  5  7  1  0  0  0  0
  6 30  1  0  0  0  0
  6 31  1  0  0  0  0
  6 32  1  0  0  0  0
  7  8  2  0  0  0  0
  7  9  1  0  0  0  0
  9 10  1  0  0  0  0
 10 11  1  0  0  0  0
 10 33  1  0  0  0  0
 11 12  2  0  0  0  0
 11 13  1  0  0  0  0
 13 14  1  0  0  0  0
 13 34  1  0  0  0  0
 14 15  1  0  0  0  0
 14 35  1  0  0  0  0
 14 36  1  0  0  0  0
 15 20  1  0  0  0  0
 15 16  1  0  0  0  0
 15 37  1  0  0  0  0
 16 17  1  0  0  0  0
 16 38  1  0  0  0  0
 16 39  1  0  0  0  0
 17 18  1  0  0  0  0
 17 40  1  0  0  0  0
 17 41  1  0  0  0  0
 18 19  1  0  0  0  0
 18 42  1  0  0  0  0
 18 43  1  0  0  0  0
 19 20  1  0  0  0  0
 19 44  1  0  0  0  0
 19 45  1  0  0  0  0
 20 21  1  0  0  0  0
 20 55  1  0  0  0  0
 21 22  1  0  0  0  0
 21 46  1  0  0  0  0
 21 47  1  0  0  0  0
 22 23  1  0  0  0  0
 22 24  1  0  0  0  0
 22 48  1  0  0  0  0
 23 49  1  0  0  0  0
 23 50  1  0  0  0  0
 23 51  1  0  0  0  0
 24 52  1  0  0  0  0
 24 53  1  0  0  0  0
 24 54  1  0  0  0  0
M  CHG  1  20   1
M  END
> <s_m_source_file>
AV-unprocessed.smi

> <i_m_source_file_index>
2812

> <i_lp_mmshare_version>
43012

> <i_f3d_flags>
0

> <s_epik_input>
W0NIM11jMVtjSF1bY0hdbihbQ0gzXSljKD1PKWMxW05IXUMoPU8pW05IXVtDSDJdW0NAQEhdMltDSDJdW0NIMl1bQ0gyXVtDSDJdTjJbQ0gyXVtDSF0oW0NIM10pW0NIM10=

> <s_epik_cmdline>
J2VwaWtfcHl0aG9uJywgJy1waCcsICc3LjAnLCAnLXRuJywgJzgnLCAnLW1hJywgJzIwMCcsICctbWV0YWxfYmluZGluZycsICctaW1hZScsICc8aW5maWxlLm1hZT4nLCAnLW9tYWUnLCAnPG91dGZpbGUubWFlPic=

> <r_lp_tautomer_probability>
1

> <r_epik_Ionization_Penalty>
0.0010902

> <r_epik_Ionization_Penalty_Charging>
0.00107091

> <r_epik_Ionization_Penalty_Neutral>
1.92854e-05

> <r_epik_State_Penalty>
0.000697184

> <r_epik_Charging_Adjusted_Penalty>
0.0017681

> <i_epik_Tot_Q>
1

> <i_epik_Tot_abs_Q>
1

> <r_epik_Metal_State_Penalty>
-0

> <b_epik_Metal_Only>
0

> <s_lp_Force_Field>
OPLS_2005

> <r_lp_Energy>
39.8559

> <b_lp_Chiralities_Consistent>
1

> <s_lp_Variant>
AV-unprocessed.smi:2812-3

> <Gold.Version>
5.8.1

> <Gold.Id.Protein>
6NUR|6NUR_protein|mol2

> <Gold.PLP.Fitness>
48.0991

> <Gold.PLP.PLP>
-39.2258

> <Gold.PLP.part.hbond>
-2.9476

> <Gold.PLP.part.metal>
0.0000

> <Gold.PLP.part.buried>
-2.3471

> <Gold.PLP.part.nonpolar>
-34.4473

> <Gold.PLP.part.repulsive>
0.2465

> <Gold.PLP.ligand.clash>
0.0000

> <Gold.PLP.ligand.torsion>
1.2775

> <Gold.PLP.Chemscore.Hbond>
3.5200

> <Gold.PLP.Chemscore.CHOScore>
0.0000

> <Gold.PLP.Chemscore.Metal>
0.0000

> <Gold.Chemscore.Hbonds>
donor molecule, donor type, donor heavy atom, donor atom, acceptor molecule, acceptor atom, score
      L1  H    10    33       P1  7948  0.57
      L1  H    13    34       P1  7948  0.94
      L1  H    20    55       P1  7948  2.00

> <Gold.PLP.Chemscore.Internal.Correction>
0.8683

> <Gold.Rescore>
     Score         DG    S(hbond)    S(metal)    S(lipo)     H(rot)  DE(clash)    DE(int)     intcor
     17.84     -19.35       1.98        0.00      95.32       1.52       0.06       1.46       ----

> <Gold.Chemscore.Fitness>
17.8386

> <Gold.Chemscore.DG>
-19.3514

> <Gold.Chemscore.ZeroCoef>
-5.4800

> <Gold.Chemscore.Hbond>
1.9757

> <Gold.Chemscore.Metal>
0.0000

> <Gold.Chemscore.Lipo>
95.3228

> <Gold.Chemscore.Internal_Hbond>
0.0000

> <Gold.Chemscore.DEClash>
0.0565

> <Gold.Chemscore.DEInternal>
1.4562

> <Gold.Chemscore.Rot>
1.5157

> <Gold.Chemscore.Internal.Correction>
   9.000000E+99

> <Gold.Chemscore.Hbonds>
donor molecule, donor type, donor heavy atom, donor atom, acceptor molecule, acceptor atom, score
      L1  H    10    33       P1  7948  0.07
      L1  H    13    34       P1  7948  0.80
      L1  H    20    55       P1  7948  0.92

> <Gold.Chemscore.Hbond.Weighted>
-6.5989

> <Gold.Chemscore.Metal.Weighted>
-0.0000

> <Gold.Chemscore.Lipo.Weighted>
-11.1528

> <Gold.Chemscore.Internal_Hbond.Weighted>
0.0000

> <Gold.Chemscore.DEClash.Weighted>
0.0565

> <Gold.Chemscore.DEInternal.Weighted>
1.4562

> <Gold.Chemscore.Rot.Weighted>
3.8803

> <Gold.Chemscore.Internal.Correction.Weighted>
   9.000000E+99

> <Gold.Protein.RotatedTorsions>
[ 6907 6896 6895 6894 ] final  -73.16 input  -60.11 | X-H torsion
[ 7974 7965 7964 7962 ] final  -55.29 input  175.53 | X-H torsion
[ 8008 7997 7996 7995 ] final    6.06 input   59.86 | X-H torsion
[ 10167 10162 10161 10158 ] final   -3.01 input  -65.29 | X-H torsion
[ 10718 10713 10712 10709 ] final   69.43 input   66.30 | X-H torsion
[ 10763 10752 10751 10750 ] final -119.38 input  -60.55 | X-H torsion
[ 11005 11000 10999 10996 ] final    2.05 input  -57.11 | X-H torsion

> <Gold.Protein.ActiveResidues>
 VAL166  LYS551  ARG553  GLY616  TRP617  ASP618  TYR619  PRO620  LYS621  CYS622 
 ASP623  PHE694  ASN695  SER759  ASP760  ASP761  ALA762  ILE779  LEU786  VAL792 
 PHE793  MET794  SER795  GLU796  ALA797  LYS798  CYS799  TRP800  GLU811  SER814 

> <Gold.Protein.RotatedAtoms>
  150.7141  134.5057  159.5582 H   0  0  0  0  0  0  0  0  0  0  0  0  # atno 6907 bound_to 6896
  152.2644  134.7996  160.0434 H   0  0  0  0  0  0  0  0  0  0  0  0  # atno 6908 bound_to 6896
  151.8698  133.3438  159.3768 H   0  0  0  0  0  0  0  0  0  0  0  0  # atno 6909 bound_to 6896
  145.8759  140.8181  142.9864 H   0  0  0  0  0  0  0  0  0  0  0  0  # atno 7974 bound_to 7965
  154.7363  140.2740  155.6412 H   0  0  0  0  0  0  0  0  0  0  0  0  # atno 8008 bound_to 7997
  156.2862  140.2706  156.2003 H   0  0  0  0  0  0  0  0  0  0  0  0  # atno 8009 bound_to 7997
  155.0316  140.0371  157.2466 H   0  0  0  0  0  0  0  0  0  0  0  0  # atno 8010 bound_to 7997
  140.6873  143.6590  150.8283 H   0  0  0  0  0  0  0  0  0  0  0  0  # atno 10167 bound_to 10162
  157.6345  130.9425  150.0513 H   0  0  0  0  0  0  0  0  0  0  0  0  # atno 10718 bound_to 10713
  154.8615  135.4240  154.2290 H   0  0  0  0  0  0  0  0  0  0  0  0  # atno 10763 bound_to 10752
  153.3279  135.6986  153.6979 H   0  0  0  0  0  0  0  0  0  0  0  0  # atno 10764 bound_to 10752
  153.6008  135.3537  155.2918 H   0  0  0  0  0  0  0  0  0  0  0  0  # atno 10765 bound_to 10752
  140.6086  133.9769  155.8166 H   0  0  0  0  0  0  0  0  0  0  0  0  # atno 11005 bound_to 11000
  144.6726  140.1310  143.7443 LP  0  0  0  0  0  0  0  0  0  0  0  0  # atno 17320 bound_to 7965
  145.9081  139.2471  143.1453 LP  0  0  0  0  0  0  0  0  0  0  0  0  # atno 17321 bound_to 7965
  140.0299  143.5455  152.2764 LP  0  0  0  0  0  0  0  0  0  0  0  0  # atno 17342 bound_to 10162
  139.6243  144.7634  151.2672 LP  0  0  0  0  0  0  0  0  0  0  0  0  # atno 17343 bound_to 10162
  156.1574  130.3643  149.9349 LP  0  0  0  0  0  0  0  0  0  0  0  0  # atno 17370 bound_to 10713
  156.7355  130.9059  151.3629 LP  0  0  0  0  0  0  0  0  0  0  0  0  # atno 17371 bound_to 10713
  141.0823  134.0043  157.3367 LP  0  0  0  0  0  0  0  0  0  0  0  0  # atno 17394 bound_to 11000
  139.9201  135.0200  156.8033 LP  0  0  0  0  0  0  0  0  0  0  0  0  # atno 17395 bound_to 11000

$$$$
