AV-unprocessed.smi:3220|AV-procd|sdf|12299|dock5
  -GOLD-   2272018143D 1   1.00000     0.00000
 Structure written by MMmdl.
 33 34  0  0  0  0  0  0  0  0  1 V2000
  149.9853  139.8583  157.7268 C   0  0  0  0  0  0  0  0  0  0  0  0
  149.8966  141.2994  157.2068 C   0  0  2  0  0  0  0  0  0  0  0  0
  150.2544  141.3782  155.7069 C   0  0  0  0  0  0  0  0  0  0  0  0
  150.0531  140.1182  155.0134 N   0  0  0  0  0  0  0  0  0  0  0  0
  148.8931  139.3824  154.8904 C   0  0  0  0  0  0  0  0  0  0  0  0
  149.1958  138.2654  154.1659 C   0  0  0  0  0  0  0  0  0  0  0  0
  150.5827  138.4119  153.8833 C   0  0  0  0  0  0  0  0  0  0  0  0
  151.0919  139.5239  154.3880 N   0  0  0  0  0  0  0  0  0  0  0  0
  150.7897  142.1445  157.9989 N   0  0  0  0  0  0  0  0  0  0  0  0
  152.0528  141.8470  158.3430 C   0  0  0  0  0  0  0  0  0  0  0  0
  152.6244  140.8114  158.0007 O   0  0  0  0  0  0  0  0  0  0  0  0
  152.7803  142.8777  159.2119 C   0  0  1  0  0  0  0  0  0  0  0  0
  152.8231  144.2872  158.5927 C   0  0  0  0  0  0  0  0  0  0  0  0
  151.9192  145.1055  159.4941 C   0  0  0  0  0  0  0  0  0  0  0  0
  152.0599  144.3779  160.8231 C   0  0  0  0  0  0  0  0  0  0  0  0
  152.0646  143.0128  160.4381 O   0  0  0  0  0  0  0  0  0  0  0  0
  149.3164  139.1996  157.1720 H   0  0  0  0  0  0  0  0  0  0  0  0
  149.7019  139.8026  158.7784 H   0  0  0  0  0  0  0  0  0  0  0  0
  150.9968  139.4618  157.6317 H   0  0  0  0  0  0  0  0  0  0  0  0
  148.8629  141.6242  157.3389 H   0  0  0  0  0  0  0  0  0  0  0  0
  149.6624  142.1491  155.2113 H   0  0  0  0  0  0  0  0  0  0  0  0
  151.3001  141.6648  155.5855 H   0  0  0  0  0  0  0  0  0  0  0  0
  147.9619  139.7075  155.3304 H   0  0  0  0  0  0  0  0  0  0  0  0
  148.5293  137.4645  153.8826 H   0  0  0  0  0  0  0  0  0  0  0  0
  151.2302  137.7483  153.3294 H   0  0  0  0  0  0  0  0  0  0  0  0
  150.4117  143.0231  158.3224 H   0  0  0  0  0  0  0  0  0  0  0  0
  153.7957  142.5416  159.4293 H   0  0  0  0  0  0  0  0  0  0  0  0
  153.8416  144.6748  158.6343 H   0  0  0  0  0  0  0  0  0  0  0  0
  152.5028  144.3266  157.5503 H   0  0  0  0  0  0  0  0  0  0  0  0
  152.2050  146.1563  159.5488 H   0  0  0  0  0  0  0  0  0  0  0  0
  150.8876  145.0471  159.1440 H   0  0  0  0  0  0  0  0  0  0  0  0
  153.0061  144.6259  161.3063 H   0  0  0  0  0  0  0  0  0  0  0  0
  151.2471  144.5982  161.5155 H   0  0  0  0  0  0  0  0  0  0  0  0
  1  2  1  0  0  0  0
  1 17  1  0  0  0  0
  1 18  1  0  0  0  0
  1 19  1  0  0  0  0
  2  3  1  0  0  0  0
  2  9  1  0  0  0  0
  2 20  1  0  0  0  0
  3  4  1  0  0  0  0
  3 21  1  0  0  0  0
  3 22  1  0  0  0  0
  4  8  1  0  0  0  0
  4  5  1  0  0  0  0
  5  6  2  0  0  0  0
  5 23  1  0  0  0  0
  6  7  1  0  0  0  0
  6 24  1  0  0  0  0
  7  8  2  0  0  0  0
  7 25  1  0  0  0  0
  9 10  1  0  0  0  0
  9 26  1  0  0  0  0
 10 11  2  0  0  0  0
 10 12  1  0  0  0  0
 12 16  1  0  0  0  0
 12 13  1  0  0  0  0
 12 27  1  0  0  0  0
 13 14  1  0  0  0  0
 13 28  1  0  0  0  0
 13 29  1  0  0  0  0
 14 15  1  0  0  0  0
 14 30  1  0  0  0  0
 14 31  1  0  0  0  0
 15 16  1  0  0  0  0
 15 32  1  0  0  0  0
 15 33  1  0  0  0  0
M  END
> <s_m_source_file>
AV-unprocessed.smi

> <i_m_source_file_index>
3220

> <i_lp_mmshare_version>
43012

> <i_f3d_flags>
0

> <s_epik_input>
bjFbY0hdW2NIXVtjSF1uMVtDSDJdW0NAQEhdKFtDSDNdKVtOSF1DKD1PKVtDQEBIXTJbQ0gyXVtDSDJdW0NIMl1PMg==

> <s_epik_cmdline>
J2VwaWtfcHl0aG9uJywgJy1waCcsICc3LjAnLCAnLXRuJywgJzgnLCAnLW1hJywgJzIwMCcsICctbWV0YWxfYmluZGluZycsICctaW1hZScsICc8aW5maWxlLm1hZT4nLCAnLW9tYWUnLCAnPG91dGZpbGUubWFlPic=

> <r_lp_tautomer_probability>
1

> <r_epik_Ionization_Penalty>
0.00033363

> <r_epik_Ionization_Penalty_Charging>
0

> <r_epik_Ionization_Penalty_Neutral>
0.00033363

> <r_epik_State_Penalty>
-0

> <r_epik_Charging_Adjusted_Penalty>
0

> <i_epik_Tot_Q>
0

> <i_epik_Tot_abs_Q>
0

> <r_epik_Metal_State_Penalty>
-0

> <b_epik_Metal_Only>
0

> <s_lp_Force_Field>
OPLS_2005

> <r_lp_Energy>
17.4241

> <b_lp_Chiralities_Consistent>
1

> <s_lp_Variant>
AV-unprocessed.smi:3220-3

> <Gold.Version>
5.8.1

> <Gold.Id.Protein>
6NUR|6NUR_protein|mol2

> <Gold.PLP.Fitness>
37.9871

> <Gold.PLP.PLP>
-32.7053

> <Gold.PLP.part.hbond>
-1.7910

> <Gold.PLP.part.metal>
0.0000

> <Gold.PLP.part.buried>
-2.0359

> <Gold.PLP.part.nonpolar>
-28.2383

> <Gold.PLP.part.repulsive>
0.2178

> <Gold.PLP.ligand.clash>
0.0000

> <Gold.PLP.ligand.torsion>
0.7070

> <Gold.PLP.Chemscore.Hbond>
1.2574

> <Gold.PLP.Chemscore.CHOScore>
0.9671

> <Gold.PLP.Chemscore.Metal>
0.0000

> <Gold.Chemscore.Hbonds>
donor molecule, donor type, donor heavy atom, donor atom, acceptor molecule, acceptor atom, score
      P1  H  7989  7998       L1     8  0.95
      P1  H  7997  8009       L1    11  0.26
      L1  C     7    25       P1  7949  0.97

> <Gold.PLP.Chemscore.Internal.Correction>
0.0223

> <Gold.Rescore>
     Score         DG    S(hbond)    S(metal)    S(lipo)     H(rot)  DE(clash)    DE(int)     intcor
     13.37     -16.16       1.52        0.00      83.24       1.62       0.69       2.10       ----

> <Gold.Chemscore.Fitness>
13.3693

> <Gold.Chemscore.DG>
-16.1563

> <Gold.Chemscore.ZeroCoef>
-5.4800

> <Gold.Chemscore.Hbond>
1.5236

> <Gold.Chemscore.Metal>
0.0000

> <Gold.Chemscore.Lipo>
83.2434

> <Gold.Chemscore.Internal_Hbond>
0.0000

> <Gold.Chemscore.DEClash>
0.6851

> <Gold.Chemscore.DEInternal>
2.1019

> <Gold.Chemscore.Rot>
1.6219

> <Gold.Chemscore.Internal.Correction>
   9.000000E+99

> <Gold.Chemscore.Hbonds>
donor molecule, donor type, donor heavy atom, donor atom, acceptor molecule, acceptor atom, score
      P1  H  7989  7998       L1     8  0.21
      P1  H  7997  8009       L1    11  0.26

> <Gold.Chemscore.Hbond.Weighted>
-5.0888

> <Gold.Chemscore.Metal.Weighted>
-0.0000

> <Gold.Chemscore.Lipo.Weighted>
-9.7395

> <Gold.Chemscore.Internal_Hbond.Weighted>
0.0000

> <Gold.Chemscore.DEClash.Weighted>
0.6851

> <Gold.Chemscore.DEInternal.Weighted>
2.1019

> <Gold.Chemscore.Rot.Weighted>
4.1520

> <Gold.Chemscore.Internal.Correction.Weighted>
   9.000000E+99

> <Gold.Protein.RotatedTorsions>
[ 6907 6896 6895 6894 ] final  -29.01 input  -60.11 | X-H torsion
[ 7974 7965 7964 7962 ] final  -52.30 input  175.53 | X-H torsion
[ 8008 7997 7996 7995 ] final  166.28 input   59.86 | X-H torsion
[ 10167 10162 10161 10158 ] final  -35.82 input  -65.29 | X-H torsion
[ 10718 10713 10712 10709 ] final  148.89 input   66.30 | X-H torsion
[ 10763 10752 10751 10750 ] final   96.72 input  -60.55 | X-H torsion
[ 11005 11000 10999 10996 ] final   42.47 input  -57.11 | X-H torsion

> <Gold.Protein.ActiveResidues>
 VAL166  LYS551  ARG553  GLY616  TRP617  ASP618  TYR619  PRO620  LYS621  CYS622 
 ASP623  PHE694  ASN695  SER759  ASP760  ASP761  ALA762  ILE779  LEU786  VAL792 
 PHE793  MET794  SER795  GLU796  ALA797  LYS798  CYS799  TRP800  GLU811  SER814 

> <Gold.Protein.RotatedAtoms>
  151.1251  135.0100  159.8556 H   0  0  0  0  0  0  0  0  0  0  0  0  # atno 6907 bound_to 6896
  152.5449  134.1677  159.8594 H   0  0  0  0  0  0  0  0  0  0  0  0  # atno 6908 bound_to 6896
  151.1738  133.4722  159.2627 H   0  0  0  0  0  0  0  0  0  0  0  0  # atno 6909 bound_to 6896
  145.9095  140.7927  142.9702 H   0  0  0  0  0  0  0  0  0  0  0  0  # atno 7974 bound_to 7965
  156.1732  140.1647  156.8410 H   0  0  0  0  0  0  0  0  0  0  0  0  # atno 8008 bound_to 7997
  154.5278  140.0763  156.8325 H   0  0  0  0  0  0  0  0  0  0  0  0  # atno 8009 bound_to 7997
  155.3469  140.3388  155.4241 H   0  0  0  0  0  0  0  0  0  0  0  0  # atno 8010 bound_to 7997
  140.7156  143.3451  151.2274 H   0  0  0  0  0  0  0  0  0  0  0  0  # atno 10167 bound_to 10162
  157.3030  131.0874  151.1375 H   0  0  0  0  0  0  0  0  0  0  0  0  # atno 10718 bound_to 10713
  153.2683  135.4208  155.0962 H   0  0  0  0  0  0  0  0  0  0  0  0  # atno 10763 bound_to 10752
  154.8446  135.3466  154.6280 H   0  0  0  0  0  0  0  0  0  0  0  0  # atno 10764 bound_to 10752
  153.6700  135.7044  153.5207 H   0  0  0  0  0  0  0  0  0  0  0  0  # atno 10765 bound_to 10752
  140.1736  134.4192  155.8242 H   0  0  0  0  0  0  0  0  0  0  0  0  # atno 11005 bound_to 11000
  144.6742  140.1803  143.7406 LP  0  0  0  0  0  0  0  0  0  0  0  0  # atno 17320 bound_to 7965
  145.8689  139.2261  143.1672 LP  0  0  0  0  0  0  0  0  0  0  0  0  # atno 17321 bound_to 7965
  139.6968  143.9599  152.2886 LP  0  0  0  0  0  0  0  0  0  0  0  0  # atno 17342 bound_to 10162
  139.9279  144.6759  150.8393 LP  0  0  0  0  0  0  0  0  0  0  0  0  # atno 17343 bound_to 10162
  157.2727  130.6712  149.6027 LP  0  0  0  0  0  0  0  0  0  0  0  0  # atno 17370 bound_to 10713
  155.9672  130.4474  150.5579 LP  0  0  0  0  0  0  0  0  0  0  0  0  # atno 17371 bound_to 10713
  141.2219  133.6967  156.7806 LP  0  0  0  0  0  0  0  0  0  0  0  0  # atno 17394 bound_to 11000
  140.2349  134.8658  157.3514 LP  0  0  0  0  0  0  0  0  0  0  0  0  # atno 17395 bound_to 11000

$$$$
