AV-unprocessed.smi:2607|AV-procd|sdf|10199|dock1
  -GOLD-   2272014213D 1   1.00000     0.00000
 Structure written by MMmdl.
 22 23  0  0  0  0  0  0  0  0  1 V2000
  150.3771  139.5804  158.6331 C   0  0  0  0  0  0  0  0  0  0  0  0
  151.0779  140.4647  157.5836 C   0  0  2  0  0  0  0  0  0  0  0  0
  151.5209  141.8136  158.1731 C   0  0  0  0  0  0  0  0  0  0  0  0
  151.0694  143.0551  157.6570 C   0  0  0  0  0  0  0  0  0  0  0  0
  151.4615  144.2372  158.1821 N   0  0  0  0  0  0  0  0  0  0  0  0
  152.3090  144.1829  159.2323 C   0  0  0  0  0  0  0  0  0  0  0  0
  152.7602  142.9544  159.7566 C   0  0  0  0  0  0  0  0  0  0  0  0
  152.3679  141.7730  159.2324 N   0  0  0  0  0  0  0  0  0  0  0  0
  150.2257  140.6039  156.4088 N   0  0  0  0  0  0  0  0  0  0  0  0
  150.7936  140.1428  155.2869 C   0  0  0  0  0  0  0  0  0  0  0  0
  150.2998  140.1721  154.1623 O   0  0  0  0  0  0  0  0  0  0  0  0
  151.9854  139.6355  155.6106 N   0  0  0  0  0  0  0  0  0  0  0  0
  152.2447  139.7382  156.9129 C   0  0  0  0  0  0  0  0  0  0  0  0
  153.2426  139.3121  157.4926 O   0  0  0  0  0  0  0  0  0  0  0  0
  151.0202  139.3937  159.4941 H   0  0  0  0  0  0  0  0  0  0  0  0
  150.0960  138.6105  158.2197 H   0  0  0  0  0  0  0  0  0  0  0  0
  149.4674  140.0566  159.0004 H   0  0  0  0  0  0  0  0  0  0  0  0
  150.3902  143.1164  156.8201 H   0  0  0  0  0  0  0  0  0  0  0  0
  152.6278  145.1230  159.6575 H   0  0  0  0  0  0  0  0  0  0  0  0
  153.4366  142.9192  160.5976 H   0  0  0  0  0  0  0  0  0  0  0  0
  149.3150  141.0379  156.4452 H   0  0  0  0  0  0  0  0  0  0  0  0
  152.6111  139.2036  154.9464 H   0  0  0  0  0  0  0  0  0  0  0  0
  1  2  1  0  0  0  0
  1 15  1  0  0  0  0
  1 16  1  0  0  0  0
  1 17  1  0  0  0  0
  2 13  1  0  0  0  0
  2  3  1  0  0  0  0
  2  9  1  0  0  0  0
  3  8  1  0  0  0  0
  3  4  2  0  0  0  0
  4  5  1  0  0  0  0
  4 18  1  0  0  0  0
  5  6  2  0  0  0  0
  6  7  1  0  0  0  0
  6 19  1  0  0  0  0
  7  8  2  0  0  0  0
  7 20  1  0  0  0  0
  9 10  1  0  0  0  0
  9 21  1  0  0  0  0
 10 11  2  0  0  0  0
 10 12  1  0  0  0  0
 12 13  1  0  0  0  0
 12 22  1  0  0  0  0
 13 14  2  0  0  0  0
M  END
> <s_m_source_file>
AV-unprocessed.smi

> <i_m_source_file_index>
2607

> <i_lp_mmshare_version>
43012

> <i_f3d_flags>
0

> <s_epik_input>
Tz1DMVtOSF1DKD1PKVtOSF1bQ0BAXTEoW0NIM10pYzJbY0hdbltjSF1bY0hdbjI=

> <s_epik_cmdline>
J2VwaWtfcHl0aG9uJywgJy1waCcsICc3LjAnLCAnLXRuJywgJzgnLCAnLW1hJywgJzIwMCcsICctbWV0YWxfYmluZGluZycsICctaW1hZScsICc8aW5maWxlLm1hZT4nLCAnLW9tYWUnLCAnPG91dGZpbGUubWFlPic=

> <r_lp_tautomer_probability>
1

> <r_epik_Ionization_Penalty>
0.0333762

> <r_epik_Ionization_Penalty_Charging>
0

> <r_epik_Ionization_Penalty_Neutral>
0.0333762

> <r_epik_State_Penalty>
0.027503

> <r_epik_Charging_Adjusted_Penalty>
0.027503

> <i_epik_Tot_Q>
0

> <i_epik_Tot_abs_Q>
0

> <r_epik_Metal_State_Penalty>
0.445281

> <b_epik_Metal_Only>
0

> <s_lp_Force_Field>
OPLS_2005

> <r_lp_Energy>
24.1998

> <b_lp_Chiralities_Consistent>
1

> <s_lp_Variant>
AV-unprocessed.smi:2607-2

> <Gold.Version>
5.8.1

> <Gold.Id.Protein>
6NUR|6NUR_protein|mol2

> <Gold.PLP.Fitness>
31.5299

> <Gold.PLP.PLP>
-23.4512

> <Gold.PLP.part.hbond>
-2.0000

> <Gold.PLP.part.metal>
0.0000

> <Gold.PLP.part.buried>
-3.1508

> <Gold.PLP.part.nonpolar>
-18.9488

> <Gold.PLP.part.repulsive>
0.9248

> <Gold.PLP.ligand.clash>
0.0000

> <Gold.PLP.ligand.torsion>
0.0694

> <Gold.PLP.Chemscore.Hbond>
1.7000

> <Gold.PLP.Chemscore.CHOScore>
1.0000

> <Gold.PLP.Chemscore.Metal>
0.0000

> <Gold.Chemscore.Hbonds>
donor molecule, donor type, donor heavy atom, donor atom, acceptor molecule, acceptor atom, score
      P1  H  7989  7998       L1    11  0.70
      P1  H  7997  8009       L1    14  0.95
      L1  C     4    18       P1  8028  1.00

> <Gold.PLP.Chemscore.Internal.Correction>
0.1175

> <Gold.Rescore>
     Score         DG    S(hbond)    S(metal)    S(lipo)     H(rot)  DE(clash)    DE(int)     intcor
     12.52     -12.63       1.00        0.00      54.50       1.00       0.03       0.08       ----

> <Gold.Chemscore.Fitness>
12.5193

> <Gold.Chemscore.DG>
-12.6256

> <Gold.Chemscore.ZeroCoef>
-5.4800

> <Gold.Chemscore.Hbond>
0.9968

> <Gold.Chemscore.Metal>
0.0000

> <Gold.Chemscore.Lipo>
54.4974

> <Gold.Chemscore.Internal_Hbond>
0.0000

> <Gold.Chemscore.DEClash>
0.0294

> <Gold.Chemscore.DEInternal>
0.0769

> <Gold.Chemscore.Rot>
1.0000

> <Gold.Chemscore.Internal.Correction>
   9.000000E+99

> <Gold.Chemscore.Hbonds>
donor molecule, donor type, donor heavy atom, donor atom, acceptor molecule, acceptor atom, score
      P1  H  7989  7998       L1    11  0.07
      P1  H  7997  8009       L1    14  0.21

> <Gold.Chemscore.Hbond.Weighted>
-3.3294

> <Gold.Chemscore.Metal.Weighted>
-0.0000

> <Gold.Chemscore.Lipo.Weighted>
-6.3762

> <Gold.Chemscore.Internal_Hbond.Weighted>
0.0000

> <Gold.Chemscore.DEClash.Weighted>
0.0294

> <Gold.Chemscore.DEInternal.Weighted>
0.0769

> <Gold.Chemscore.Rot.Weighted>
2.5600

> <Gold.Chemscore.Internal.Correction.Weighted>
   9.000000E+99

> <Gold.Protein.RotatedTorsions>
[ 6907 6896 6895 6894 ] final -126.03 input  -60.11 | X-H torsion
[ 7974 7965 7964 7962 ] final  -46.73 input  175.53 | X-H torsion
[ 8008 7997 7996 7995 ] final -177.87 input   59.86 | X-H torsion
[ 10167 10162 10161 10158 ] final -141.72 input  -65.29 | X-H torsion
[ 10718 10713 10712 10709 ] final -161.88 input   66.30 | X-H torsion
[ 10763 10752 10751 10750 ] final   84.10 input  -60.55 | X-H torsion
[ 11005 11000 10999 10996 ] final  132.95 input  -57.11 | X-H torsion

> <Gold.Protein.ActiveResidues>
 VAL166  LYS551  ARG553  GLY616  TRP617  ASP618  TYR619  PRO620  LYS621  CYS622 
 ASP623  PHE694  ASN695  SER759  ASP760  ASP761  ALA762  ILE779  LEU786  VAL792 
 PHE793  MET794  SER795  GLU796  ALA797  LYS798  CYS799  TRP800  GLU811  SER814 

> <Gold.Protein.RotatedAtoms>
  150.8927  133.7221  159.2899 H   0  0  0  0  0  0  0  0  0  0  0  0  # atno 6907 bound_to 6896
  151.4766  135.1048  159.9776 H   0  0  0  0  0  0  0  0  0  0  0  0  # atno 6908 bound_to 6896
  152.4830  133.8254  159.7131 H   0  0  0  0  0  0  0  0  0  0  0  0  # atno 6909 bound_to 6896
  145.9689  140.7403  142.9420 H   0  0  0  0  0  0  0  0  0  0  0  0  # atno 7974 bound_to 7965
  156.0121  140.1243  157.0443 H   0  0  0  0  0  0  0  0  0  0  0  0  # atno 8008 bound_to 7997
  154.4280  140.1085  156.5914 H   0  0  0  0  0  0  0  0  0  0  0  0  # atno 8009 bound_to 7997
  155.6064  140.3471  155.4611 H   0  0  0  0  0  0  0  0  0  0  0  0  # atno 8010 bound_to 7997
  139.8158  143.7641  152.2665 H   0  0  0  0  0  0  0  0  0  0  0  0  # atno 10167 bound_to 10162
  156.6025  130.8816  151.2917 H   0  0  0  0  0  0  0  0  0  0  0  0  # atno 10718 bound_to 10713
  153.1351  135.4666  154.9410 H   0  0  0  0  0  0  0  0  0  0  0  0  # atno 10763 bound_to 10752
  154.7699  135.3155  154.8214 H   0  0  0  0  0  0  0  0  0  0  0  0  # atno 10764 bound_to 10752
  153.8748  135.6900  153.4825 H   0  0  0  0  0  0  0  0  0  0  0  0  # atno 10765 bound_to 10752
  139.9821  134.9544  156.9655 H   0  0  0  0  0  0  0  0  0  0  0  0  # atno 11005 bound_to 11000
  144.6832  140.2716  143.7305 LP  0  0  0  0  0  0  0  0  0  0  0  0  # atno 17320 bound_to 7965
  145.7934  139.1936  143.2090 LP  0  0  0  0  0  0  0  0  0  0  0  0  # atno 17321 bound_to 7965
  139.7804  144.7446  151.0096 LP  0  0  0  0  0  0  0  0  0  0  0  0  # atno 17342 bound_to 10162
  140.7816  143.4548  151.0361 LP  0  0  0  0  0  0  0  0  0  0  0  0  # atno 17343 bound_to 10162
  157.7276  130.9645  150.1705 LP  0  0  0  0  0  0  0  0  0  0  0  0  # atno 17370 bound_to 10713
  156.2457  130.3695  149.8287 LP  0  0  0  0  0  0  0  0  0  0  0  0  # atno 17371 bound_to 10713
  140.5075  134.1036  155.7263 LP  0  0  0  0  0  0  0  0  0  0  0  0  # atno 17394 bound_to 11000
  141.1492  133.9000  157.2140 LP  0  0  0  0  0  0  0  0  0  0  0  0  # atno 17395 bound_to 11000

$$$$
