AV-unprocessed.smi:1702|AV-procd|sdf|6850|dock3
  -GOLD-   22720 8 33D 1   1.00000     0.00000
 Structure written by MMmdl.
 45 47  0  0  0  0  0  0  0  0  3 V2000
  147.0801  132.0039  153.0067 C   0  0  0  0  0  0  0  0  0  0  0  0
  146.3570  133.3404  152.7878 C   0  0  2  0  0  0  0  0  0  0  0  0
  146.5249  133.8489  151.3462 C   0  0  0  0  0  0  0  0  0  0  0  0
  145.8264  135.2043  151.1467 C   0  0  0  0  0  0  0  0  0  0  0  0
  146.3308  136.2145  152.1121 N   0  3  1  0  0  0  0  0  0  0  0  0
  145.7839  137.5706  151.8485 C   0  0  0  0  0  0  0  0  0  0  0  0
  146.7555  138.6933  152.2645 C   0  0  1  0  0  0  0  0  0  0  0  0
  146.8314  139.6438  151.2189 O   0  0  0  0  0  0  0  0  0  0  0  0
  146.2973  139.3974  153.5578 C   0  0  0  0  0  0  0  0  0  0  0  0
  147.3169  140.2981  154.1135 N   0  0  0  0  0  0  0  0  0  0  0  0
  147.2658  141.6372  154.3529 C   0  0  0  0  0  0  0  0  0  0  0  0
  148.4688  142.0079  154.8734 N   0  3  0  0  0  0  0  0  0  0  0  0
  149.3001  140.8897  154.9697 C   0  0  0  0  0  0  0  0  0  0  0  0
  150.6058  140.7606  155.4322 C   0  0  0  0  0  0  0  0  0  0  0  0
  151.1689  139.4680  155.3921 C   0  0  0  0  0  0  0  0  0  0  0  0
  152.4382  139.2866  155.8269 F   0  0  0  0  0  0  0  0  0  0  0  0
  150.4366  138.3631  154.9076 C   0  0  0  0  0  0  0  0  0  0  0  0
  151.0148  137.1389  154.8853 F   0  0  0  0  0  0  0  0  0  0  0  0
  149.1120  138.5061  154.4437 C   0  0  0  0  0  0  0  0  0  0  0  0
  148.5654  139.7878  154.4845 C   0  0  0  0  0  0  0  0  0  0  0  0
  146.1409  135.7642  153.5166 C   0  0  0  0  0  0  0  0  0  0  0  0
  146.8469  134.4209  153.7670 C   0  0  0  0  0  0  0  0  0  0  0  0
  148.1538  132.1014  152.8436 H   0  0  0  0  0  0  0  0  0  0  0  0
  146.7079  131.2396  152.3239 H   0  0  0  0  0  0  0  0  0  0  0  0
  146.9301  131.6382  154.0228 H   0  0  0  0  0  0  0  0  0  0  0  0
  145.2937  133.1751  152.9679 H   0  0  0  0  0  0  0  0  0  0  0  0
  147.5852  133.9480  151.1088 H   0  0  0  0  0  0  0  0  0  0  0  0
  146.1189  133.1208  150.6432 H   0  0  0  0  0  0  0  0  0  0  0  0
  146.0034  135.5472  150.1263 H   0  0  0  0  0  0  0  0  0  0  0  0
  144.7469  135.0946  151.2625 H   0  0  0  0  0  0  0  0  0  0  0  0
  145.5653  137.6820  150.7851 H   0  0  0  0  0  0  0  0  0  0  0  0
  144.8287  137.6784  152.3649 H   0  0  0  0  0  0  0  0  0  0  0  0
  147.7546  138.2895  152.4231 H   0  0  0  0  0  0  0  0  0  0  0  0
  147.7161  139.9735  151.1709 H   0  0  0  0  0  0  0  0  0  0  0  0
  145.4034  139.9939  153.3690 H   0  0  0  0  0  0  0  0  0  0  0  0
  146.0264  138.6700  154.3242 H   0  0  0  0  0  0  0  0  0  0  0  0
  146.4253  142.2891  154.1619 H   0  0  0  0  0  0  0  0  0  0  0  0
  151.1700  141.6031  155.8046 H   0  0  0  0  0  0  0  0  0  0  0  0
  148.5607  137.6537  154.0769 H   0  0  0  0  0  0  0  0  0  0  0  0
  146.5357  136.5045  154.2112 H   0  0  0  0  0  0  0  0  0  0  0  0
  145.0746  135.6712  153.7295 H   0  0  0  0  0  0  0  0  0  0  0  0
  146.6708  134.1007  154.7946 H   0  0  0  0  0  0  0  0  0  0  0  0
  147.9252  134.5526  153.6655 H   0  0  0  0  0  0  0  0  0  0  0  0
  147.3268  136.2774  151.9541 H   0  0  0  0  0  0  0  0  0  0  0  0
  148.7022  142.9556  155.1418 H   0  0  0  0  0  0  0  0  0  0  0  0
  1  2  1  0  0  0  0
  1 23  1  0  0  0  0
  1 24  1  0  0  0  0
  1 25  1  0  0  0  0
  2 22  1  0  0  0  0
  2  3  1  0  0  0  0
  2 26  1  0  0  0  0
  3  4  1  0  0  0  0
  3 27  1  0  0  0  0
  3 28  1  0  0  0  0
  4  5  1  0  0  0  0
  4 29  1  0  0  0  0
  4 30  1  0  0  0  0
  5  6  1  0  0  0  0
  5 21  1  0  0  0  0
  5 44  1  0  0  0  0
  6  7  1  0  0  0  0
  6 31  1  0  0  0  0
  6 32  1  0  0  0  0
  7  8  1  0  0  0  0
  7  9  1  0  0  0  0
  7 33  1  0  0  0  0
  8 34  1  0  0  0  0
  9 10  1  0  0  0  0
  9 35  1  0  0  0  0
  9 36  1  0  0  0  0
 10 20  1  0  0  0  0
 10 11  1  0  0  0  0
 11 12  2  0  0  0  0
 11 37  1  0  0  0  0
 12 13  1  0  0  0  0
 12 45  1  0  0  0  0
 13 20  2  0  0  0  0
 13 14  1  0  0  0  0
 14 15  2  0  0  0  0
 14 38  1  0  0  0  0
 15 16  1  0  0  0  0
 15 17  1  0  0  0  0
 17 18  1  0  0  0  0
 17 19  2  0  0  0  0
 19 20  1  0  0  0  0
 19 39  1  0  0  0  0
 21 22  1  0  0  0  0
 21 40  1  0  0  0  0
 21 41  1  0  0  0  0
 22 42  1  0  0  0  0
 22 43  1  0  0  0  0
M  CHG  1   5   1
M  CHG  1  12   1
M  END
> <s_m_source_file>
AV-unprocessed.smi

> <i_m_source_file_index>
1702

> <i_lp_mmshare_version>
43012

> <i_f3d_flags>
0

> <s_epik_input>
W0NIM11bQ0hdMVtDSDJdW0NIMl1OKFtDSDJdW0NIMl0xKVtDSDJdW0NASF0oW09IXSlbQ0gyXW4oW2NIXW4yKWMoYzIzKVtjSF1jKEYpYyhGKVtjSF0z

> <s_epik_cmdline>
J2VwaWtfcHl0aG9uJywgJy1waCcsICc3LjAnLCAnLXRuJywgJzgnLCAnLW1hJywgJzIwMCcsICctbWV0YWxfYmluZGluZycsICctaW1hZScsICc8aW5maWxlLm1hZT4nLCAnLW9tYWUnLCAnPG91dGZpbGUubWFlPic=

> <r_epik_Ionization_Penalty>
2.33291

> <r_epik_Ionization_Penalty_Charging>
2.33291

> <r_epik_Ionization_Penalty_Neutral>
6.90208e-07

> <r_epik_State_Penalty>
2.4838

> <r_epik_Charging_Adjusted_Penalty>
4.81672

> <i_epik_Tot_Q>
2

> <i_epik_Tot_abs_Q>
2

> <r_epik_Metal_State_Penalty>
6.56754

> <b_epik_Metal_Only>
0

> <s_lp_Force_Field>
OPLS_2005

> <r_lp_Energy>
29.8556

> <b_lp_Chiralities_Consistent>
1

> <s_lp_Variant>
AV-unprocessed.smi:1702-6

> <Gold.Version>
5.8.1

> <Gold.Id.Protein>
6NUR|6NUR_protein|mol2

> <Gold.PLP.Fitness>
52.9236

> <Gold.PLP.PLP>
-39.9281

> <Gold.PLP.part.hbond>
-3.0000

> <Gold.PLP.part.metal>
0.0000

> <Gold.PLP.part.buried>
1.8590

> <Gold.PLP.part.nonpolar>
-39.0519

> <Gold.PLP.part.repulsive>
0.2228

> <Gold.PLP.ligand.clash>
0.0000

> <Gold.PLP.ligand.torsion>
1.0172

> <Gold.PLP.Chemscore.Hbond>
5.0000

> <Gold.PLP.Chemscore.CHOScore>
0.0000

> <Gold.PLP.Chemscore.Metal>
0.0000

> <Gold.Chemscore.Hbonds>
donor molecule, donor type, donor heavy atom, donor atom, acceptor molecule, acceptor atom, score
      L1  H     5    44       P1  7948  2.00
      L1  H     8    34       P1  7957  1.00
      L1  H    12    45       P1  8028  2.00

> <Gold.PLP.Chemscore.Internal.Correction>
0.0299

> <Gold.Rescore>
     Score         DG    S(hbond)    S(metal)    S(lipo)     H(rot)  DE(clash)    DE(int)     intcor
     17.91     -19.34       2.98        0.00      84.25       2.32       0.35       1.08       ----

> <Gold.Chemscore.Fitness>
17.9119

> <Gold.Chemscore.DG>
-19.3426

> <Gold.Chemscore.ZeroCoef>
-5.4800

> <Gold.Chemscore.Hbond>
2.9783

> <Gold.Chemscore.Metal>
0.0000

> <Gold.Chemscore.Lipo>
84.2469

> <Gold.Chemscore.Internal_Hbond>
0.0000

> <Gold.Chemscore.DEClash>
0.3472

> <Gold.Chemscore.DEInternal>
1.0836

> <Gold.Chemscore.Rot>
2.3210

> <Gold.Chemscore.Internal.Correction>
   9.000000E+99

> <Gold.Chemscore.Hbonds>
donor molecule, donor type, donor heavy atom, donor atom, acceptor molecule, acceptor atom, score
      L1  H     5    44       P1  7948  0.99
      L1  H     8    34       P1  7957  0.98
      L1  H    12    45       P1  8028  1.00

> <Gold.Chemscore.Hbond.Weighted>
-9.9474

> <Gold.Chemscore.Metal.Weighted>
-0.0000

> <Gold.Chemscore.Lipo.Weighted>
-9.8569

> <Gold.Chemscore.Internal_Hbond.Weighted>
0.0000

> <Gold.Chemscore.DEClash.Weighted>
0.3472

> <Gold.Chemscore.DEInternal.Weighted>
1.0836

> <Gold.Chemscore.Rot.Weighted>
5.9416

> <Gold.Chemscore.Internal.Correction.Weighted>
   9.000000E+99

> <Gold.Protein.RotatedTorsions>
[ 6907 6896 6895 6894 ] final   30.62 input  -60.11 | X-H torsion
[ 7974 7965 7964 7962 ] final -131.32 input  175.53 | X-H torsion
[ 8008 7997 7996 7995 ] final -108.66 input   59.86 | X-H torsion
[ 10167 10162 10161 10158 ] final  -26.67 input  -65.29 | X-H torsion
[ 10718 10713 10712 10709 ] final  -98.82 input   66.30 | X-H torsion
[ 10763 10752 10751 10750 ] final  -74.19 input  -60.55 | X-H torsion
[ 11005 11000 10999 10996 ] final  114.92 input  -57.11 | X-H torsion

> <Gold.Protein.ActiveResidues>
 VAL166  LYS551  ARG553  GLY616  TRP617  ASP618  TYR619  PRO620  LYS621  CYS622 
 ASP623  PHE694  ASN695  SER759  ASP760  ASP761  ALA762  ILE779  LEU786  VAL792 
 PHE793  MET794  SER795  GLU796  ALA797  LYS798  CYS799  TRP800  GLU811  SER814 

> <Gold.Protein.RotatedAtoms>
  152.0486  134.9667  160.0574 H   0  0  0  0  0  0  0  0  0  0  0  0  # atno 6907 bound_to 6896
  152.1077  133.4279  159.4625 H   0  0  0  0  0  0  0  0  0  0  0  0  # atno 6908 bound_to 6896
  150.6842  134.2604  159.4590 H   0  0  0  0  0  0  0  0  0  0  0  0  # atno 6909 bound_to 6896
  144.9391  140.7217  143.4858 H   0  0  0  0  0  0  0  0  0  0  0  0  # atno 7974 bound_to 7965
  154.9477  140.0401  157.2128 H   0  0  0  0  0  0  0  0  0  0  0  0  # atno 8008 bound_to 7997
  154.8008  140.2851  155.5901 H   0  0  0  0  0  0  0  0  0  0  0  0  # atno 8009 bound_to 7997
  156.2961  140.2555  156.2876 H   0  0  0  0  0  0  0  0  0  0  0  0  # atno 8010 bound_to 7997
  140.7281  143.4158  151.1031 H   0  0  0  0  0  0  0  0  0  0  0  0  # atno 10167 bound_to 10162
  156.0117  130.5255  150.6579 H   0  0  0  0  0  0  0  0  0  0  0  0  # atno 10718 bound_to 10713
  154.4697  135.5872  153.6313 H   0  0  0  0  0  0  0  0  0  0  0  0  # atno 10763 bound_to 10752
  152.9833  135.6064  154.3382 H   0  0  0  0  0  0  0  0  0  0  0  0  # atno 10764 bound_to 10752
  154.3263  135.2843  155.2474 H   0  0  0  0  0  0  0  0  0  0  0  0  # atno 10765 bound_to 10752
  139.8994  134.9576  156.6965 H   0  0  0  0  0  0  0  0  0  0  0  0  # atno 11005 bound_to 11000
  145.3020  139.1847  143.4684 LP  0  0  0  0  0  0  0  0  0  0  0  0  # atno 17320 bound_to 7965
  146.3278  140.3012  142.8621 LP  0  0  0  0  0  0  0  0  0  0  0  0  # atno 17321 bound_to 7965
  139.7798  143.8373  152.3135 LP  0  0  0  0  0  0  0  0  0  0  0  0  # atno 17342 bound_to 10162
  139.8320  144.7249  150.9439 LP  0  0  0  0  0  0  0  0  0  0  0  0  # atno 17343 bound_to 10162
  157.4327  131.0851  151.1022 LP  0  0  0  0  0  0  0  0  0  0  0  0  # atno 17370 bound_to 10713
  157.1590  130.6217  149.5605 LP  0  0  0  0  0  0  0  0  0  0  0  0  # atno 17371 bound_to 10713
  140.7184  133.9162  155.8130 LP  0  0  0  0  0  0  0  0  0  0  0  0  # atno 17394 bound_to 11000
  141.0247  134.0840  157.4082 LP  0  0  0  0  0  0  0  0  0  0  0  0  # atno 17395 bound_to 11000

$$$$
