AV-unprocessed.smi:1269|AV-procd|sdf|5328|dock2
  -GOLD-   22720 4453D 1   1.00000     0.00000
 Structure written by MMmdl.
 43 44  0  0  0  0  0  0  0  0  1 V2000
  146.1805  128.3236  152.4261 C   0  0  0  0  0  0  0  0  0  0  0  0
  145.8119  129.5932  151.8984 O   0  0  0  0  0  0  0  0  0  0  0  0
  146.5493  130.6975  152.2737 C   0  0  0  0  0  0  0  0  0  0  0  0
  146.1793  131.9591  151.7675 C   0  0  0  0  0  0  0  0  0  0  0  0
  146.9282  133.0886  152.1480 C   0  0  0  0  0  0  0  0  0  0  0  0
  148.0173  132.9282  153.0281 C   0  0  0  0  0  0  0  0  0  0  0  0
  148.7643  134.0848  153.3802 N   0  0  0  0  0  0  0  0  0  0  0  0
  149.4574  134.3246  154.5067 C   0  0  0  0  0  0  0  0  0  0  0  0
  149.5385  133.5623  155.4694 O   0  0  0  0  0  0  0  0  0  0  0  0
  150.0441  135.5300  154.4653 N   0  0  0  0  0  0  0  0  0  0  0  0
  150.8713  136.1095  155.5217 C   0  0  1  0  0  0  0  0  0  0  0  0
  151.9036  135.0506  155.9397 C   0  0  0  0  0  0  0  0  0  0  0  0
  151.4701  137.4468  155.0182 C   0  0  0  0  0  0  0  0  0  0  0  0
  150.6683  138.6512  155.2535 N   0  0  0  0  0  0  0  0  0  0  0  0
  149.6325  138.7943  154.2333 C   0  0  0  0  0  0  0  0  0  0  0  0
  148.7687  140.0477  154.4566 C   0  0  0  0  0  0  0  0  0  0  0  0
  149.6009  141.2021  154.4798 O   0  0  0  0  0  0  0  0  0  0  0  0
  150.6082  141.1292  155.4827 C   0  0  0  0  0  0  0  0  0  0  0  0
  151.4707  139.8749  155.2583 C   0  0  0  0  0  0  0  0  0  0  0  0
  148.3170  131.6170  153.4723 C   0  0  0  0  0  0  0  0  0  0  0  0
  147.6035  130.5296  153.1096 N   0  0  0  0  0  0  0  0  0  0  0  0
  145.5064  127.5612  152.0354 H   0  0  0  0  0  0  0  0  0  0  0  0
  146.1041  128.3067  153.5142 H   0  0  0  0  0  0  0  0  0  0  0  0
  147.1951  128.0485  152.1340 H   0  0  0  0  0  0  0  0  0  0  0  0
  145.3370  132.0583  151.0990 H   0  0  0  0  0  0  0  0  0  0  0  0
  146.6646  134.0654  151.7694 H   0  0  0  0  0  0  0  0  0  0  0  0
  148.7261  134.8424  152.7142 H   0  0  0  0  0  0  0  0  0  0  0  0
  149.9149  136.0905  153.6358 H   0  0  0  0  0  0  0  0  0  0  0  0
  150.2340  136.3114  156.3848 H   0  0  0  0  0  0  0  0  0  0  0  0
  152.3607  135.2947  156.8972 H   0  0  0  0  0  0  0  0  0  0  0  0
  152.6921  134.9417  155.1945 H   0  0  0  0  0  0  0  0  0  0  0  0
  151.4332  134.0752  156.0696 H   0  0  0  0  0  0  0  0  0  0  0  0
  152.4797  137.5832  155.4090 H   0  0  0  0  0  0  0  0  0  0  0  0
  151.5992  137.3357  153.9404 H   0  0  0  0  0  0  0  0  0  0  0  0
  150.0901  138.8421  153.2436 H   0  0  0  0  0  0  0  0  0  0  0  0
  148.9865  137.9154  154.2356 H   0  0  0  0  0  0  0  0  0  0  0  0
  148.0366  140.1520  153.6558 H   0  0  0  0  0  0  0  0  0  0  0  0
  148.2130  139.9719  155.3925 H   0  0  0  0  0  0  0  0  0  0  0  0
  151.2248  142.0266  155.4334 H   0  0  0  0  0  0  0  0  0  0  0  0
  150.1477  141.1096  156.4717 H   0  0  0  0  0  0  0  0  0  0  0  0
  152.2327  139.8416  156.0308 H   0  0  0  0  0  0  0  0  0  0  0  0
  152.0006  139.9731  154.3095 H   0  0  0  0  0  0  0  0  0  0  0  0
  149.1564  131.4078  154.1164 H   0  0  0  0  0  0  0  0  0  0  0  0
  1  2  1  0  0  0  0
  1 22  1  0  0  0  0
  1 23  1  0  0  0  0
  1 24  1  0  0  0  0
  2  3  1  0  0  0  0
  3 21  1  0  0  0  0
  3  4  2  0  0  0  0
  4  5  1  0  0  0  0
  4 25  1  0  0  0  0
  5  6  2  0  0  0  0
  5 26  1  0  0  0  0
  6  7  1  0  0  0  0
  6 20  1  0  0  0  0
  7  8  1  0  0  0  0
  7 27  1  0  0  0  0
  8  9  2  0  0  0  0
  8 10  1  0  0  0  0
 10 11  1  0  0  0  0
 10 28  1  0  0  0  0
 11 12  1  0  0  0  0
 11 13  1  0  0  0  0
 11 29  1  0  0  0  0
 12 30  1  0  0  0  0
 12 31  1  0  0  0  0
 12 32  1  0  0  0  0
 13 14  1  0  0  0  0
 13 33  1  0  0  0  0
 13 34  1  0  0  0  0
 14 19  1  0  0  0  0
 14 15  1  0  0  0  0
 15 16  1  0  0  0  0
 15 35  1  0  0  0  0
 15 36  1  0  0  0  0
 16 17  1  0  0  0  0
 16 37  1  0  0  0  0
 16 38  1  0  0  0  0
 17 18  1  0  0  0  0
 18 19  1  0  0  0  0
 18 39  1  0  0  0  0
 18 40  1  0  0  0  0
 19 41  1  0  0  0  0
 19 42  1  0  0  0  0
 20 21  2  0  0  0  0
 20 43  1  0  0  0  0
M  END
> <s_m_source_file>
AV-unprocessed.smi

> <i_m_source_file_index>
1269

> <i_lp_mmshare_version>
43012

> <i_f3d_flags>
0

> <s_epik_input>
W0NIM11PYzFbY0hdW2NIXWMoW2NIXW4xKVtOSF1DKD1PKVtOSF1bQ0BIXShbQ0gzXSlbQ0gyXU4yW0NIMl1bQ0gyXU9bQ0gyXVtDSDJdMg==

> <s_epik_cmdline>
J2VwaWtfcHl0aG9uJywgJy1waCcsICc3LjAnLCAnLXRuJywgJzgnLCAnLW1hJywgJzIwMCcsICctbWV0YWxfYmluZGluZycsICctaW1hZScsICc8aW5maWxlLm1hZT4nLCAnLW9tYWUnLCAnPG91dGZpbGUubWFlPic=

> <r_lp_tautomer_probability>
1

> <r_epik_Ionization_Penalty>
0.266086

> <r_epik_Ionization_Penalty_Charging>
0

> <r_epik_Ionization_Penalty_Neutral>
0.266086

> <r_epik_State_Penalty>
0.257924

> <r_epik_Charging_Adjusted_Penalty>
0.257924

> <i_epik_Tot_Q>
0

> <i_epik_Tot_abs_Q>
0

> <r_epik_Metal_State_Penalty>
0.25792

> <b_epik_Metal_Only>
0

> <s_lp_Force_Field>
OPLS_2005

> <r_lp_Energy>
29.6845

> <b_lp_Chiralities_Consistent>
1

> <s_lp_Variant>
AV-unprocessed.smi:1269-2

> <Gold.Version>
5.8.1

> <Gold.Id.Protein>
6NUR|6NUR_protein|mol2

> <Gold.PLP.Fitness>
39.2324

> <Gold.PLP.PLP>
-33.5268

> <Gold.PLP.part.hbond>
-3.9711

> <Gold.PLP.part.metal>
0.0000

> <Gold.PLP.part.buried>
0.1266

> <Gold.PLP.part.nonpolar>
-28.2452

> <Gold.PLP.part.repulsive>
0.5505

> <Gold.PLP.ligand.clash>
0.0000

> <Gold.PLP.ligand.torsion>
0.8457

> <Gold.PLP.Chemscore.Hbond>
2.4268

> <Gold.PLP.Chemscore.CHOScore>
0.0000

> <Gold.PLP.Chemscore.Metal>
0.0000

> <Gold.Chemscore.Hbonds>
donor molecule, donor type, donor heavy atom, donor atom, acceptor molecule, acceptor atom, score
      L1  H     7    27       P1  7948  0.80
      L1  H    10    28       P1  7948  0.68

> <Gold.PLP.Chemscore.Internal.Correction>
0.1166

> <Gold.Rescore>
     Score         DG    S(hbond)    S(metal)    S(lipo)     H(rot)  DE(clash)    DE(int)     intcor
     11.91     -14.45       1.43        0.00      73.54       1.72       0.16       2.38       ----

> <Gold.Chemscore.Fitness>
11.9082

> <Gold.Chemscore.DG>
-14.4541

> <Gold.Chemscore.ZeroCoef>
-5.4800

> <Gold.Chemscore.Hbond>
1.4283

> <Gold.Chemscore.Metal>
0.0000

> <Gold.Chemscore.Lipo>
73.5378

> <Gold.Chemscore.Internal_Hbond>
0.0000

> <Gold.Chemscore.DEClash>
0.1631

> <Gold.Chemscore.DEInternal>
2.3828

> <Gold.Chemscore.Rot>
1.7189

> <Gold.Chemscore.Internal.Correction>
   9.000000E+99

> <Gold.Chemscore.Hbonds>
donor molecule, donor type, donor heavy atom, donor atom, acceptor molecule, acceptor atom, score
      L1  H     7    27       P1  7948  0.12
      L1  H    10    28       P1  7948  0.08
      P1  H  8011  8017       L1    17  0.02

> <Gold.Chemscore.Hbond.Weighted>
-4.7706

> <Gold.Chemscore.Metal.Weighted>
-0.0000

> <Gold.Chemscore.Lipo.Weighted>
-8.6039

> <Gold.Chemscore.Internal_Hbond.Weighted>
0.0000

> <Gold.Chemscore.DEClash.Weighted>
0.1631

> <Gold.Chemscore.DEInternal.Weighted>
2.3828

> <Gold.Chemscore.Rot.Weighted>
4.4004

> <Gold.Chemscore.Internal.Correction.Weighted>
   9.000000E+99

> <Gold.Protein.RotatedTorsions>
[ 6907 6896 6895 6894 ] final   -4.38 input  -60.11 | X-H torsion
[ 7974 7965 7964 7962 ] final   98.23 input  175.53 | X-H torsion
[ 8008 7997 7996 7995 ] final   10.88 input   59.86 | X-H torsion
[ 10167 10162 10161 10158 ] final -145.57 input  -65.29 | X-H torsion
[ 10718 10713 10712 10709 ] final   54.16 input   66.30 | X-H torsion
[ 10763 10752 10751 10750 ] final  174.33 input  -60.55 | X-H torsion
[ 11005 11000 10999 10996 ] final  146.24 input  -57.11 | X-H torsion

> <Gold.Protein.ActiveResidues>
 VAL166  LYS551  ARG553  GLY616  TRP617  ASP618  TYR619  PRO620  LYS621  CYS622 
 ASP623  PHE694  ASN695  SER759  ASP760  ASP761  ALA762  ILE779  LEU786  VAL792 
 PHE793  MET794  SER795  GLU796  ALA797  LYS798  CYS799  TRP800  GLU811  SER814 

> <Gold.Protein.RotatedAtoms>
  151.4986  135.1061  159.9822 H   0  0  0  0  0  0  0  0  0  0  0  0  # atno 6907 bound_to 6896
  152.4711  133.8028  159.6972 H   0  0  0  0  0  0  0  0  0  0  0  0  # atno 6908 bound_to 6896
  150.8721  133.7428  159.2984 H   0  0  0  0  0  0  0  0  0  0  0  0  # atno 6909 bound_to 6896
  145.4149  139.2329  143.3228 H   0  0  0  0  0  0  0  0  0  0  0  0  # atno 7974 bound_to 7965
  154.7993  140.2849  155.5933 H   0  0  0  0  0  0  0  0  0  0  0  0  # atno 8008 bound_to 7997
  156.2975  140.2589  156.2787 H   0  0  0  0  0  0  0  0  0  0  0  0  # atno 8009 bound_to 7997
  154.9577  140.0378  157.2164 H   0  0  0  0  0  0  0  0  0  0  0  0  # atno 8010 bound_to 7997
  139.7793  143.8124  152.2636 H   0  0  0  0  0  0  0  0  0  0  0  0  # atno 10167 bound_to 10162
  157.5232  130.8579  149.8586 H   0  0  0  0  0  0  0  0  0  0  0  0  # atno 10718 bound_to 10713
  154.4525  135.2765  155.1771 H   0  0  0  0  0  0  0  0  0  0  0  0  # atno 10763 bound_to 10752
  154.3592  135.6133  153.5686 H   0  0  0  0  0  0  0  0  0  0  0  0  # atno 10764 bound_to 10752
  152.9848  135.5830  154.4872 H   0  0  0  0  0  0  0  0  0  0  0  0  # atno 10765 bound_to 10752
  140.0777  134.9115  157.1450 H   0  0  0  0  0  0  0  0  0  0  0  0  # atno 11005 bound_to 11000
  146.2686  140.4866  142.8824 LP  0  0  0  0  0  0  0  0  0  0  0  0  # atno 17320 bound_to 7965
  144.8284  140.6666  143.6307 LP  0  0  0  0  0  0  0  0  0  0  0  0  # atno 17321 bound_to 7965
  139.8182  144.7307  150.9607 LP  0  0  0  0  0  0  0  0  0  0  0  0  # atno 17342 bound_to 10162
  140.7817  143.4185  151.0879 LP  0  0  0  0  0  0  0  0  0  0  0  0  # atno 17343 bound_to 10162
  156.0368  130.3749  150.1539 LP  0  0  0  0  0  0  0  0  0  0  0  0  # atno 17370 bound_to 10713
  156.9727  130.9839  151.3455 LP  0  0  0  0  0  0  0  0  0  0  0  0  # atno 17371 bound_to 10713
  140.3533  134.2575  155.7196 LP  0  0  0  0  0  0  0  0  0  0  0  0  # atno 17394 bound_to 11000
  141.2035  133.7909  157.0333 LP  0  0  0  0  0  0  0  0  0  0  0  0  # atno 17395 bound_to 11000

$$$$
