AV-unprocessed.smi:3032|AV-procd|sdf|11564|dock1
  -GOLD-   2272016533D 1   1.00000     0.00000
 Structure written by MMmdl.
 37 38  0  0  0  0  0  0  0  0  1 V2000
  152.6988  142.9309  161.9677 C   0  0  0  0  0  0  0  0  0  0  0  0
  152.0075  143.3962  160.6784 C   0  0  1  0  0  0  0  0  0  0  0  0
  152.1554  144.9158  160.4791 C   0  0  0  0  0  0  0  0  0  0  0  0
  151.4573  145.3870  159.1947 C   0  0  0  0  0  0  0  0  0  0  0  0
  151.9796  144.6291  157.9602 C   0  0  0  0  0  0  0  0  0  0  0  0
  151.9216  143.0901  158.1068 C   0  0  2  0  0  0  0  0  0  0  0  0
  150.5064  142.5185  157.8957 C   0  0  0  0  0  0  0  0  0  0  0  0
  149.7719  142.2734  158.8524 O   0  0  0  0  0  0  0  0  0  0  0  0
  150.1354  142.3080  156.6230 N   0  0  0  0  0  0  0  0  0  0  0  0
  148.8509  141.7605  156.2018 C   0  0  0  0  0  0  0  0  0  0  0  0
  148.8497  141.4044  154.7060 C   0  0  0  0  0  0  0  0  0  0  0  0
  149.5499  140.1140  154.4345 C   0  0  0  0  0  0  0  0  0  0  0  0
  148.9351  139.1157  153.7980 N   0  0  0  0  0  0  0  0  0  0  0  0
  149.9084  138.1822  153.7291 N   0  0  0  0  0  0  0  0  0  0  0  0
  151.0106  138.6696  154.2962 C   0  0  0  0  0  0  0  0  0  0  0  0
  150.8614  139.9022  154.7631 N   0  0  0  0  0  0  0  0  0  0  0  0
  152.5488  142.6381  159.4469 C   0  0  0  0  0  0  0  0  0  0  0  0
  153.7712  143.1251  161.9367 H   0  0  0  0  0  0  0  0  0  0  0  0
  152.5582  141.8609  162.1234 H   0  0  0  0  0  0  0  0  0  0  0  0
  152.2921  143.4457  162.8386 H   0  0  0  0  0  0  0  0  0  0  0  0
  150.9465  143.1721  160.7890 H   0  0  0  0  0  0  0  0  0  0  0  0
  151.7393  145.4474  161.3357 H   0  0  0  0  0  0  0  0  0  0  0  0
  153.2128  145.1808  160.4355 H   0  0  0  0  0  0  0  0  0  0  0  0
  150.3798  145.2559  159.2930 H   0  0  0  0  0  0  0  0  0  0  0  0
  151.6178  146.4572  159.0616 H   0  0  0  0  0  0  0  0  0  0  0  0
  151.4260  144.9460  157.0753 H   0  0  0  0  0  0  0  0  0  0  0  0
  153.0146  144.9231  157.7816 H   0  0  0  0  0  0  0  0  0  0  0  0
  152.5426  142.6761  157.3104 H   0  0  0  0  0  0  0  0  0  0  0  0
  150.7946  142.5371  155.8933 H   0  0  0  0  0  0  0  0  0  0  0  0
  148.5995  140.8861  156.8045 H   0  0  0  0  0  0  0  0  0  0  0  0
  148.0841  142.5085  156.4051 H   0  0  0  0  0  0  0  0  0  0  0  0
  147.8248  141.3332  154.3400 H   0  0  0  0  0  0  0  0  0  0  0  0
  149.3288  142.1955  154.1274 H   0  0  0  0  0  0  0  0  0  0  0  0
  151.9364  138.1173  154.3654 H   0  0  0  0  0  0  0  0  0  0  0  0
  153.6288  142.7805  159.3893 H   0  0  0  0  0  0  0  0  0  0  0  0
  152.4010  141.5656  159.5822 H   0  0  0  0  0  0  0  0  0  0  0  0
  149.7797  137.2763  153.3015 H   0  0  0  0  0  0  0  0  0  0  0  0
  1  2  1  0  0  0  0
  1 18  1  0  0  0  0
  1 19  1  0  0  0  0
  1 20  1  0  0  0  0
  2 17  1  0  0  0  0
  2  3  1  0  0  0  0
  2 21  1  0  0  0  0
  3  4  1  0  0  0  0
  3 22  1  0  0  0  0
  3 23  1  0  0  0  0
  4  5  1  0  0  0  0
  4 24  1  0  0  0  0
  4 25  1  0  0  0  0
  5  6  1  0  0  0  0
  5 26  1  0  0  0  0
  5 27  1  0  0  0  0
  6  7  1  0  0  0  0
  6 17  1  0  0  0  0
  6 28  1  0  0  0  0
  7  8  2  0  0  0  0
  7  9  1  0  0  0  0
  9 10  1  0  0  0  0
  9 29  1  0  0  0  0
 10 11  1  0  0  0  0
 10 30  1  0  0  0  0
 10 31  1  0  0  0  0
 11 32  1  0  0  0  0
 11 33  1  0  0  0  0
 11 12  1  0  0  0  0
 12 16  1  0  0  0  0
 12 13  2  0  0  0  0
 13 14  1  0  0  0  0
 14 15  1  0  0  0  0
 14 37  1  0  0  0  0
 15 16  2  0  0  0  0
 15 34  1  0  0  0  0
 17 35  1  0  0  0  0
 17 36  1  0  0  0  0
M  END
> <s_m_source_file>
AV-unprocessed.smi

> <i_m_source_file_index>
3032

> <i_lp_mmshare_version>
43012

> <i_f3d_flags>
0

> <s_epik_input>
W0NIM11bQ0BASF0xW0NIMl1bQ0gyXVtDSDJdW0NASF0oW0NIMl0xKUMoPU8pW05IXVtDSDJdW0NIMl1jMm5uW2NIXVtuSF0y

> <s_epik_cmdline>
J2VwaWtfcHl0aG9uJywgJy1waCcsICc3LjAnLCAnLXRuJywgJzgnLCAnLW1hJywgJzIwMCcsICctbWV0YWxfYmluZGluZycsICctaW1hZScsICc8aW5maWxlLm1hZT4nLCAnLW9tYWUnLCAnPG91dGZpbGUubWFlPic=

> <r_epik_Ionization_Penalty>
0.000752022

> <r_epik_Ionization_Penalty_Charging>
0

> <r_epik_Ionization_Penalty_Neutral>
0.000752022

> <r_epik_State_Penalty>
0.639926

> <r_epik_Charging_Adjusted_Penalty>
0.639926

> <i_epik_Tot_Q>
0

> <i_epik_Tot_abs_Q>
0

> <r_epik_Metal_State_Penalty>
0.76532

> <b_epik_Metal_Only>
0

> <s_lp_Force_Field>
OPLS_2005

> <r_lp_Energy>
6.51098

> <b_lp_Chiralities_Consistent>
1

> <s_lp_Variant>
AV-unprocessed.smi:3032-8

> <Gold.Version>
5.8.1

> <Gold.Id.Protein>
6NUR|6NUR_protein|mol2

> <Gold.PLP.Fitness>
47.1426

> <Gold.PLP.PLP>
-42.7748

> <Gold.PLP.part.hbond>
-4.6742

> <Gold.PLP.part.metal>
0.0000

> <Gold.PLP.part.buried>
-5.8854

> <Gold.PLP.part.nonpolar>
-33.2485

> <Gold.PLP.part.repulsive>
1.8811

> <Gold.PLP.ligand.clash>
0.0000

> <Gold.PLP.ligand.torsion>
0.8459

> <Gold.PLP.Chemscore.Hbond>
2.0000

> <Gold.PLP.Chemscore.CHOScore>
0.0000

> <Gold.PLP.Chemscore.Metal>
0.0000

> <Gold.Chemscore.Hbonds>
donor molecule, donor type, donor heavy atom, donor atom, acceptor molecule, acceptor atom, score
      L1  H    14    37       P1  7948  0.96
      P1  H  7989  7998       L1    16  0.95

> <Gold.PLP.Chemscore.Internal.Correction>
0.0596

> <Gold.Rescore>
     Score         DG    S(hbond)    S(metal)    S(lipo)     H(rot)  DE(clash)    DE(int)     intcor
     14.87     -15.85       1.43        0.00      97.09       2.25       0.37       0.62       ----

> <Gold.Chemscore.Fitness>
14.8662

> <Gold.Chemscore.DG>
-15.8542

> <Gold.Chemscore.ZeroCoef>
-5.4800

> <Gold.Chemscore.Hbond>
1.4295

> <Gold.Chemscore.Metal>
0.0000

> <Gold.Chemscore.Lipo>
97.0948

> <Gold.Chemscore.Internal_Hbond>
0.0000

> <Gold.Chemscore.DEClash>
0.3664

> <Gold.Chemscore.DEInternal>
0.6216

> <Gold.Chemscore.Rot>
2.2501

> <Gold.Chemscore.Internal.Correction>
   9.000000E+99

> <Gold.Chemscore.Hbonds>
donor molecule, donor type, donor heavy atom, donor atom, acceptor molecule, acceptor atom, score
      L1  H    14    37       P1  7948  0.51
      P1  H  7989  7998       L1    16  0.07

> <Gold.Chemscore.Hbond.Weighted>
-4.7745

> <Gold.Chemscore.Metal.Weighted>
-0.0000

> <Gold.Chemscore.Lipo.Weighted>
-11.3601

> <Gold.Chemscore.Internal_Hbond.Weighted>
0.0000

> <Gold.Chemscore.DEClash.Weighted>
0.3664

> <Gold.Chemscore.DEInternal.Weighted>
0.6216

> <Gold.Chemscore.Rot.Weighted>
5.7603

> <Gold.Chemscore.Internal.Correction.Weighted>
   9.000000E+99

> <Gold.Protein.RotatedTorsions>
[ 6907 6896 6895 6894 ] final  113.03 input  -60.11 | X-H torsion
[ 7974 7965 7964 7962 ] final  157.76 input  175.53 | X-H torsion
[ 8008 7997 7996 7995 ] final  -24.73 input   59.86 | X-H torsion
[ 10167 10162 10161 10158 ] final  -78.98 input  -65.29 | X-H torsion
[ 10718 10713 10712 10709 ] final -160.10 input   66.30 | X-H torsion
[ 10763 10752 10751 10750 ] final   37.31 input  -60.55 | X-H torsion
[ 11005 11000 10999 10996 ] final   18.71 input  -57.11 | X-H torsion

> <Gold.Protein.ActiveResidues>
 VAL166  LYS551  ARG553  GLY616  TRP617  ASP618  TYR619  PRO620  LYS621  CYS622 
 ASP623  PHE694  ASN695  SER759  ASP760  ASP761  ALA762  ILE779  LEU786  VAL792 
 PHE793  MET794  SER795  GLU796  ALA797  LYS798  CYS799  TRP800  GLU811  SER814 

> <Gold.Protein.RotatedAtoms>
  152.4884  133.8433  159.7163 H   0  0  0  0  0  0  0  0  0  0  0  0  # atno 6907 bound_to 6896
  150.8990  133.7134  159.2890 H   0  0  0  0  0  0  0  0  0  0  0  0  # atno 6908 bound_to 6896
  151.4581  135.1040  159.9769 H   0  0  0  0  0  0  0  0  0  0  0  0  # atno 6909 bound_to 6896
  144.7885  139.7385  143.6231 H   0  0  0  0  0  0  0  0  0  0  0  0  # atno 7974 bound_to 7965
  154.4513  140.1946  156.0509 H   0  0  0  0  0  0  0  0  0  0  0  0  # atno 8008 bound_to 7997
  156.0654  140.3291  155.7484 H   0  0  0  0  0  0  0  0  0  0  0  0  # atno 8009 bound_to 7997
  155.5346  140.0581  157.2873 H   0  0  0  0  0  0  0  0  0  0  0  0  # atno 8010 bound_to 7997
  140.4634  143.2447  151.8315 H   0  0  0  0  0  0  0  0  0  0  0  0  # atno 10167 bound_to 10162
  156.5774  130.8715  151.2855 H   0  0  0  0  0  0  0  0  0  0  0  0  # atno 10718 bound_to 10713
  153.0042  135.6281  154.2125 H   0  0  0  0  0  0  0  0  0  0  0  0  # atno 10763 bound_to 10752
  154.1868  135.2810  155.3036 H   0  0  0  0  0  0  0  0  0  0  0  0  # atno 10764 bound_to 10752
  154.5791  135.5653  153.7227 H   0  0  0  0  0  0  0  0  0  0  0  0  # atno 10765 bound_to 10752
  140.4218  134.1511  155.7673 H   0  0  0  0  0  0  0  0  0  0  0  0  # atno 11005 bound_to 11000
  146.2127  139.5494  142.9670 LP  0  0  0  0  0  0  0  0  0  0  0  0  # atno 17320 bound_to 7965
  145.5858  141.0376  143.2097 LP  0  0  0  0  0  0  0  0  0  0  0  0  # atno 17321 bound_to 7965
  139.4809  144.4980  151.9097 LP  0  0  0  0  0  0  0  0  0  0  0  0  # atno 17342 bound_to 10162
  140.4066  144.2424  150.5890 LP  0  0  0  0  0  0  0  0  0  0  0  0  # atno 17343 bound_to 10162
  157.7334  130.9730  150.1978 LP  0  0  0  0  0  0  0  0  0  0  0  0  # atno 17370 bound_to 10713
  156.2661  130.3716  149.8079 LP  0  0  0  0  0  0  0  0  0  0  0  0  # atno 17371 bound_to 10713
  141.1781  133.8472  157.1353 LP  0  0  0  0  0  0  0  0  0  0  0  0  # atno 17394 bound_to 11000
  140.0195  134.9952  157.0562 LP  0  0  0  0  0  0  0  0  0  0  0  0  # atno 17395 bound_to 11000

$$$$
