AV-unprocessed.smi:3048|AV-procd|sdf|11625|dock2
  -GOLD-   2272017 13D 1   1.00000     0.00000
 Structure written by MMmdl.
 38 39  0  0  0  0  0  0  0  0  2 V2000
  149.5477  135.6781  155.1900 C   0  0  0  0  0  0  0  0  0  0  0  0
  150.1315  137.0597  155.2601 C   0  0  0  0  0  0  0  0  0  0  0  0
  150.3140  137.9871  154.1951 C   0  0  0  0  0  0  0  0  0  0  0  0
  150.8537  139.1275  154.5939 N   0  0  0  0  0  0  0  0  0  0  0  0
  151.0396  138.9667  155.9213 N   0  0  0  0  0  0  0  0  0  0  0  0
  151.6104  140.0464  156.7066 C   0  0  0  0  0  0  0  0  0  0  0  0
  150.7817  141.3359  156.5975 C   0  0  0  0  0  0  0  0  0  0  0  0
  151.5269  142.5031  157.1101 N   0  3  0  0  0  0  0  0  0  0  0  0
  150.8949  143.1675  158.2660 C   0  0  0  0  0  0  0  0  0  0  0  0
  151.7313  142.9674  159.5374 C   0  0  2  0  0  0  0  0  0  0  0  0
  151.9234  141.4754  159.8711 C   0  0  0  0  0  0  0  0  0  0  0  0
  152.6786  141.3114  161.1951 C   0  0  0  0  0  0  0  0  0  0  0  0
  151.9772  142.1155  162.2948 C   0  0  0  0  0  0  0  0  0  0  0  0
  151.7698  143.5697  161.8434 C   0  0  0  0  0  0  0  0  0  0  0  0
  151.0449  143.5979  160.6174 O   0  0  0  0  0  0  0  0  0  0  0  0
  150.6122  137.7281  156.3503 C   0  0  0  0  0  0  0  0  0  0  0  0
  149.2440  135.4163  154.1762 H   0  0  0  0  0  0  0  0  0  0  0  0
  148.6658  135.5817  155.8234 H   0  0  0  0  0  0  0  0  0  0  0  0
  150.2631  134.9229  155.5157 H   0  0  0  0  0  0  0  0  0  0  0  0
  150.0689  137.8663  153.1501 H   0  0  0  0  0  0  0  0  0  0  0  0
  151.6555  139.7220  157.7468 H   0  0  0  0  0  0  0  0  0  0  0  0
  152.6400  140.2185  156.3879 H   0  0  0  0  0  0  0  0  0  0  0  0
  150.5023  141.5074  155.5570 H   0  0  0  0  0  0  0  0  0  0  0  0
  149.8558  141.2309  157.1638 H   0  0  0  0  0  0  0  0  0  0  0  0
  152.4584  142.2096  157.3670 H   0  0  0  0  0  0  0  0  0  0  0  0
  150.7772  144.2322  158.0591 H   0  0  0  0  0  0  0  0  0  0  0  0
  149.8956  142.7526  158.4054 H   0  0  0  0  0  0  0  0  0  0  0  0
  152.7070  143.4380  159.4016 H   0  0  0  0  0  0  0  0  0  0  0  0
  150.9511  140.9860  159.9443 H   0  0  0  0  0  0  0  0  0  0  0  0
  152.4660  140.9739  159.0693 H   0  0  0  0  0  0  0  0  0  0  0  0
  152.7378  140.2586  161.4724 H   0  0  0  0  0  0  0  0  0  0  0  0
  153.7042  141.6640  161.0795 H   0  0  0  0  0  0  0  0  0  0  0  0
  151.0104  141.6636  162.5205 H   0  0  0  0  0  0  0  0  0  0  0  0
  152.5603  142.0846  163.2158 H   0  0  0  0  0  0  0  0  0  0  0  0
  151.2068  144.1193  162.5980 H   0  0  0  0  0  0  0  0  0  0  0  0
  152.7262  144.0812  161.7254 H   0  0  0  0  0  0  0  0  0  0  0  0
  150.6802  137.4288  157.3861 H   0  0  0  0  0  0  0  0  0  0  0  0
  151.6001  143.1793  156.3624 H   0  0  0  0  0  0  0  0  0  0  0  0
  1  2  1  0  0  0  0
  1 17  1  0  0  0  0
  1 18  1  0  0  0  0
  1 19  1  0  0  0  0
  2 16  2  0  0  0  0
  2  3  1  0  0  0  0
  3  4  2  0  0  0  0
  3 20  1  0  0  0  0
  4  5  1  0  0  0  0
  5  6  1  0  0  0  0
  5 16  1  0  0  0  0
  6  7  1  0  0  0  0
  6 21  1  0  0  0  0
  6 22  1  0  0  0  0
  7  8  1  0  0  0  0
  7 23  1  0  0  0  0
  7 24  1  0  0  0  0
  8  9  1  0  0  0  0
  8 25  1  0  0  0  0
  8 38  1  0  0  0  0
  9 10  1  0  0  0  0
  9 26  1  0  0  0  0
  9 27  1  0  0  0  0
 10 15  1  0  0  0  0
 10 11  1  0  0  0  0
 10 28  1  0  0  0  0
 11 12  1  0  0  0  0
 11 29  1  0  0  0  0
 11 30  1  0  0  0  0
 12 13  1  0  0  0  0
 12 31  1  0  0  0  0
 12 32  1  0  0  0  0
 13 14  1  0  0  0  0
 13 33  1  0  0  0  0
 13 34  1  0  0  0  0
 14 15  1  0  0  0  0
 14 35  1  0  0  0  0
 14 36  1  0  0  0  0
 16 37  1  0  0  0  0
M  CHG  1   8   1
M  END
> <s_m_source_file>
AV-unprocessed.smi

> <i_m_source_file_index>
3048

> <i_lp_mmshare_version>
43012

> <i_f3d_flags>
0

> <s_epik_input>
W0NIM11jMVtjSF1ubihbY0hdMSlbQ0gyXVtDSDJdW05IXVtDSDJdW0NAQEhdMltDSDJdW0NIMl1bQ0gyXVtDSDJdTzI=

> <s_epik_cmdline>
J2VwaWtfcHl0aG9uJywgJy1waCcsICc3LjAnLCAnLXRuJywgJzgnLCAnLW1hJywgJzIwMCcsICctbWV0YWxfYmluZGluZycsICctaW1hZScsICc8aW5maWxlLm1hZT4nLCAnLW9tYWUnLCAnPG91dGZpbGUubWFlPic=

> <r_lp_tautomer_probability>
1

> <r_epik_Ionization_Penalty>
0.0084937

> <r_epik_Ionization_Penalty_Charging>
0.00848754

> <r_epik_Ionization_Penalty_Neutral>
6.1613e-06

> <r_epik_State_Penalty>
0.00639836

> <r_epik_Charging_Adjusted_Penalty>
0.0148859

> <i_epik_Tot_Q>
1

> <i_epik_Tot_abs_Q>
1

> <r_epik_Metal_State_Penalty>
0.00642541

> <b_epik_Metal_Only>
0

> <s_lp_Force_Field>
OPLS_2005

> <r_lp_Energy>
10.6877

> <b_lp_Chiralities_Consistent>
1

> <s_lp_Variant>
AV-unprocessed.smi:3048-1

> <Gold.Version>
5.8.1

> <Gold.Id.Protein>
6NUR|6NUR_protein|mol2

> <Gold.PLP.Fitness>
52.1577

> <Gold.PLP.PLP>
-38.8481

> <Gold.PLP.part.hbond>
-2.5701

> <Gold.PLP.part.metal>
0.0000

> <Gold.PLP.part.buried>
-4.7252

> <Gold.PLP.part.nonpolar>
-31.7657

> <Gold.PLP.part.repulsive>
0.2730

> <Gold.PLP.ligand.clash>
0.0000

> <Gold.PLP.ligand.torsion>
0.7845

> <Gold.PLP.Chemscore.Hbond>
3.0000

> <Gold.PLP.Chemscore.CHOScore>
1.9277

> <Gold.PLP.Chemscore.Metal>
0.0000

> <Gold.Chemscore.Hbonds>
donor molecule, donor type, donor heavy atom, donor atom, acceptor molecule, acceptor atom, score
      P1  H  7989  7998       L1     4  0.59
      L1  C     3    20       P1  7948  1.00
      L1  C     3    20       P1  7949  0.04

> <Gold.PLP.Chemscore.Internal.Correction>
0.0955

> <Gold.Rescore>
     Score         DG    S(hbond)    S(metal)    S(lipo)     H(rot)  DE(clash)    DE(int)     intcor
     18.35     -19.27       1.97        0.00      96.89       1.61       0.11       0.81       ----

> <Gold.Chemscore.Fitness>
18.3494

> <Gold.Chemscore.DG>
-19.2708

> <Gold.Chemscore.ZeroCoef>
-5.4800

> <Gold.Chemscore.Hbond>
1.9727

> <Gold.Chemscore.Metal>
0.0000

> <Gold.Chemscore.Lipo>
96.8893

> <Gold.Chemscore.Internal_Hbond>
0.0000

> <Gold.Chemscore.DEClash>
0.1069

> <Gold.Chemscore.DEInternal>
0.8145

> <Gold.Chemscore.Rot>
1.6149

> <Gold.Chemscore.Internal.Correction>
   9.000000E+99

> <Gold.Chemscore.Hbonds>
donor molecule, donor type, donor heavy atom, donor atom, acceptor molecule, acceptor atom, score
      P1  H  7989  7998       L1     4  0.58

> <Gold.Chemscore.Hbond.Weighted>
-6.5889

> <Gold.Chemscore.Metal.Weighted>
-0.0000

> <Gold.Chemscore.Lipo.Weighted>
-11.3361

> <Gold.Chemscore.Internal_Hbond.Weighted>
0.0000

> <Gold.Chemscore.DEClash.Weighted>
0.1069

> <Gold.Chemscore.DEInternal.Weighted>
0.8145

> <Gold.Chemscore.Rot.Weighted>
4.1341

> <Gold.Chemscore.Internal.Correction.Weighted>
   9.000000E+99

> <Gold.Protein.RotatedTorsions>
[ 6907 6896 6895 6894 ] final   79.34 input  -60.11 | X-H torsion
[ 7974 7965 7964 7962 ] final  -91.16 input  175.53 | X-H torsion
[ 8008 7997 7996 7995 ] final -115.38 input   59.86 | X-H torsion
[ 10167 10162 10161 10158 ] final  153.73 input  -65.29 | X-H torsion
[ 10718 10713 10712 10709 ] final -179.52 input   66.30 | X-H torsion
[ 10763 10752 10751 10750 ] final  123.95 input  -60.55 | X-H torsion
[ 11005 11000 10999 10996 ] final  -97.99 input  -57.11 | X-H torsion

> <Gold.Protein.ActiveResidues>
 VAL166  LYS551  ARG553  GLY616  TRP617  ASP618  TYR619  PRO620  LYS621  CYS622 
 ASP623  PHE694  ASN695  SER759  ASP760  ASP761  ALA762  ILE779  LEU786  VAL792 
 PHE793  MET794  SER795  GLU796  ALA797  LYS798  CYS799  TRP800  GLU811  SER814 

> <Gold.Protein.RotatedAtoms>
  152.5195  134.3526  159.9256 H   0  0  0  0  0  0  0  0  0  0  0  0  # atno 6907 bound_to 6896
  151.3477  133.3931  159.2685 H   0  0  0  0  0  0  0  0  0  0  0  0  # atno 6908 bound_to 6896
  150.9752  134.9136  159.7870 H   0  0  0  0  0  0  0  0  0  0  0  0  # atno 6909 bound_to 6896
  145.4168  140.9548  143.2203 H   0  0  0  0  0  0  0  0  0  0  0  0  # atno 7974 bound_to 7965
  155.0512  140.0393  157.2544 H   0  0  0  0  0  0  0  0  0  0  0  0  # atno 8008 bound_to 7997
  154.7136  140.2698  155.6582 H   0  0  0  0  0  0  0  0  0  0  0  0  # atno 8009 bound_to 7997
  156.2797  140.2717  156.1786 H   0  0  0  0  0  0  0  0  0  0  0  0  # atno 8010 bound_to 7997
  139.4826  144.5248  151.7818 H   0  0  0  0  0  0  0  0  0  0  0  0  # atno 10167 bound_to 10162
  156.8603  130.9749  151.3084 H   0  0  0  0  0  0  0  0  0  0  0  0  # atno 10718 bound_to 10713
  153.6537  135.3358  155.3107 H   0  0  0  0  0  0  0  0  0  0  0  0  # atno 10763 bound_to 10752
  154.8531  135.4347  154.1877 H   0  0  0  0  0  0  0  0  0  0  0  0  # atno 10764 bound_to 10752
  153.2826  135.7010  153.7445 H   0  0  0  0  0  0  0  0  0  0  0  0  # atno 10765 bound_to 10752
  141.1360  133.8212  157.0780 H   0  0  0  0  0  0  0  0  0  0  0  0  # atno 11005 bound_to 11000
  144.8272  139.5690  143.6960 LP  0  0  0  0  0  0  0  0  0  0  0  0  # atno 17320 bound_to 7965
  146.2677  139.6559  142.9318 LP  0  0  0  0  0  0  0  0  0  0  0  0  # atno 17321 bound_to 7965
  140.4767  144.1509  150.5926 LP  0  0  0  0  0  0  0  0  0  0  0  0  # atno 17342 bound_to 10162
  140.4323  143.2562  151.9579 LP  0  0  0  0  0  0  0  0  0  0  0  0  # atno 17343 bound_to 10162
  157.6254  130.8687  149.9179 LP  0  0  0  0  0  0  0  0  0  0  0  0  # atno 17370 bound_to 10713
  156.0780  130.3676  150.0638 LP  0  0  0  0  0  0  0  0  0  0  0  0  # atno 17371 bound_to 10713
  140.0469  134.9825  157.1066 LP  0  0  0  0  0  0  0  0  0  0  0  0  # atno 17394 bound_to 11000
  140.4049  134.2043  155.7163 LP  0  0  0  0  0  0  0  0  0  0  0  0  # atno 17395 bound_to 11000

$$$$
