AV-unprocessed.smi:1289|AV-procd|sdf|5387|dock1
  -GOLD-   22720 4533D 1   1.00000     0.00000
 Structure written by MMmdl.
 38 40  0  0  0  0  0  0  0  0  2 V2000
  144.1693  143.0362  155.4722 N   0  0  0  0  0  0  0  0  0  0  0  0
  145.1857  142.5273  155.2561 C   0  0  0  0  0  0  0  0  0  0  0  0
  146.4623  141.8880  154.9845 C   0  0  0  0  0  0  0  0  0  0  0  0
  147.2692  142.3411  153.9224 C   0  0  0  0  0  0  0  0  0  0  0  0
  148.5069  141.7208  153.6638 C   0  0  0  0  0  0  0  0  0  0  0  0
  148.9560  140.6449  154.4567 C   0  0  0  0  0  0  0  0  0  0  0  0
  150.1792  140.0991  154.1329 O   0  0  0  0  0  0  0  0  0  0  0  0
  150.6604  139.0098  154.9109 C   0  0  0  0  0  0  0  0  0  0  0  0
  152.0790  139.3148  155.4197 C   0  0  2  0  0  0  0  0  0  0  0  0
  152.9127  138.2010  155.1708 O   0  0  0  0  0  0  0  0  0  0  0  0
  152.1248  139.7446  156.9000 C   0  0  0  0  0  0  0  0  0  0  0  0
  151.6898  141.1336  157.1029 N   0  0  0  0  0  0  0  0  0  0  0  0
  150.9597  141.9419  156.2874 C   0  0  0  0  0  0  0  0  0  0  0  0
  150.8107  143.1388  156.9198 N   0  3  0  0  0  0  0  0  0  0  0  0
  151.4534  143.0949  158.1588 C   0  0  0  0  0  0  0  0  0  0  0  0
  151.5783  144.0588  159.1546 C   0  0  0  0  0  0  0  0  0  0  0  0
  152.3057  143.6898  160.3051 C   0  0  0  0  0  0  0  0  0  0  0  0
  152.8764  142.4067  160.4332 C   0  0  0  0  0  0  0  0  0  0  0  0
  152.7434  141.4372  159.4174 C   0  0  0  0  0  0  0  0  0  0  0  0
  152.0212  141.8090  158.2837 C   0  0  0  0  0  0  0  0  0  0  0  0
  148.1373  140.1933  155.5228 C   0  0  0  0  0  0  0  0  0  0  0  0
  146.8990  140.8124  155.7830 C   0  0  0  0  0  0  0  0  0  0  0  0
  146.9457  143.1645  153.3018 H   0  0  0  0  0  0  0  0  0  0  0  0
  149.1192  142.0755  152.8477 H   0  0  0  0  0  0  0  0  0  0  0  0
  149.9936  138.7996  155.7491 H   0  0  0  0  0  0  0  0  0  0  0  0
  150.6983  138.1166  154.2851 H   0  0  0  0  0  0  0  0  0  0  0  0
  152.4781  140.1287  154.8130 H   0  0  0  0  0  0  0  0  0  0  0  0
  152.3661  137.4532  154.9839 H   0  0  0  0  0  0  0  0  0  0  0  0
  151.4593  139.1116  157.4882 H   0  0  0  0  0  0  0  0  0  0  0  0
  153.1203  139.6174  157.3256 H   0  0  0  0  0  0  0  0  0  0  0  0
  150.5676  141.6806  155.3149 H   0  0  0  0  0  0  0  0  0  0  0  0
  151.1428  145.0426  159.0586 H   0  0  0  0  0  0  0  0  0  0  0  0
  152.4290  144.4055  161.1052 H   0  0  0  0  0  0  0  0  0  0  0  0
  153.4285  142.1607  161.3287 H   0  0  0  0  0  0  0  0  0  0  0  0
  153.1890  140.4590  159.5245 H   0  0  0  0  0  0  0  0  0  0  0  0
  148.4361  139.3729  156.1572 H   0  0  0  0  0  0  0  0  0  0  0  0
  146.2880  140.4556  156.5998 H   0  0  0  0  0  0  0  0  0  0  0  0
  150.3057  143.9257  156.5322 H   0  0  0  0  0  0  0  0  0  0  0  0
  1  2  3  0  0  0  0
  2  3  1  0  0  0  0
  3 22  1  0  0  0  0
  3  4  2  0  0  0  0
  4  5  1  0  0  0  0
  4 23  1  0  0  0  0
  5  6  2  0  0  0  0
  5 24  1  0  0  0  0
  6  7  1  0  0  0  0
  6 21  1  0  0  0  0
  7  8  1  0  0  0  0
  8  9  1  0  0  0  0
  8 25  1  0  0  0  0
  8 26  1  0  0  0  0
  9 10  1  0  0  0  0
  9 11  1  0  0  0  0
  9 27  1  0  0  0  0
 10 28  1  0  0  0  0
 11 12  1  0  0  0  0
 11 29  1  0  0  0  0
 11 30  1  0  0  0  0
 12 20  1  0  0  0  0
 12 13  1  0  0  0  0
 13 14  2  0  0  0  0
 13 31  1  0  0  0  0
 14 15  1  0  0  0  0
 14 38  1  0  0  0  0
 15 20  2  0  0  0  0
 15 16  1  0  0  0  0
 16 17  2  0  0  0  0
 16 32  1  0  0  0  0
 17 18  1  0  0  0  0
 17 33  1  0  0  0  0
 18 19  2  0  0  0  0
 18 34  1  0  0  0  0
 19 20  1  0  0  0  0
 19 35  1  0  0  0  0
 21 22  2  0  0  0  0
 21 36  1  0  0  0  0
 22 37  1  0  0  0  0
M  CHG  1  14   1
M  END
> <s_m_source_file>
AV-unprocessed.smi

> <i_m_source_file_index>
1289

> <i_lp_mmshare_version>
43012

> <i_f3d_flags>
0

> <s_epik_input>
TiNDYzFbY0hdW2NIXWMoW2NIXVtjSF0xKU9bQ0gyXVtDQEhdKFtPSF0pW0NIMl1uKFtjSF1uMiljKGMyMylbY0hdW2NIXVtjSF1bY0hdMw==

> <s_epik_cmdline>
J2VwaWtfcHl0aG9uJywgJy1waCcsICc3LjAnLCAnLXRuJywgJzgnLCAnLW1hJywgJzIwMCcsICctbWV0YWxfYmluZGluZycsICctaW1hZScsICc8aW5maWxlLm1hZT4nLCAnLW9tYWUnLCAnPG91dGZpbGUubWFlPic=

> <r_epik_Ionization_Penalty>
1.39523

> <r_epik_Ionization_Penalty_Charging>
1.39523

> <r_epik_Ionization_Penalty_Neutral>
2.3993e-06

> <r_epik_State_Penalty>
1.47691

> <r_epik_Charging_Adjusted_Penalty>
2.87215

> <i_epik_Tot_Q>
1

> <i_epik_Tot_abs_Q>
1

> <r_epik_Metal_State_Penalty>
5.51858

> <b_epik_Metal_Only>
0

> <s_lp_Force_Field>
OPLS_2005

> <r_lp_Energy>
21.3748

> <b_lp_Chiralities_Consistent>
1

> <s_lp_Variant>
AV-unprocessed.smi:1289-3

> <Gold.Version>
5.8.1

> <Gold.Id.Protein>
6NUR|6NUR_protein|mol2

> <Gold.PLP.Fitness>
52.2636

> <Gold.PLP.PLP>
-45.9831

> <Gold.PLP.part.hbond>
-2.3692

> <Gold.PLP.part.metal>
0.0000

> <Gold.PLP.part.buried>
-6.0230

> <Gold.PLP.part.nonpolar>
-37.0835

> <Gold.PLP.part.repulsive>
0.5206

> <Gold.PLP.ligand.clash>
0.0000

> <Gold.PLP.ligand.torsion>
1.4263

> <Gold.PLP.Chemscore.Hbond>
2.9920

> <Gold.PLP.Chemscore.CHOScore>
0.0000

> <Gold.PLP.Chemscore.Metal>
0.0000

> <Gold.Chemscore.Hbonds>
donor molecule, donor type, donor heavy atom, donor atom, acceptor molecule, acceptor atom, score
      L1  H    14    38       P1  8028  2.00
      P1  H  7989  7998       L1     7  0.99

> <Gold.PLP.Chemscore.Internal.Correction>
0.1570

> <Gold.Rescore>
     Score         DG    S(hbond)    S(metal)    S(lipo)     H(rot)  DE(clash)    DE(int)     intcor
     16.11     -18.70       1.88        0.00     115.91       2.58       0.13       2.46       ----

> <Gold.Chemscore.Fitness>
16.1136

> <Gold.Chemscore.DG>
-18.7035

> <Gold.Chemscore.ZeroCoef>
-5.4800

> <Gold.Chemscore.Hbond>
1.8763

> <Gold.Chemscore.Metal>
0.0000

> <Gold.Chemscore.Lipo>
115.9066

> <Gold.Chemscore.Internal_Hbond>
0.0000

> <Gold.Chemscore.DEClash>
0.1293

> <Gold.Chemscore.DEInternal>
2.4605

> <Gold.Chemscore.Rot>
2.5798

> <Gold.Chemscore.Internal.Correction>
   9.000000E+99

> <Gold.Chemscore.Hbonds>
donor molecule, donor type, donor heavy atom, donor atom, acceptor molecule, acceptor atom, score
      L1  H    14    38       P1  8028  0.98
      P1  H  7989  7998       L1     7  0.52

> <Gold.Chemscore.Hbond.Weighted>
-6.2667

> <Gold.Chemscore.Metal.Weighted>
-0.0000

> <Gold.Chemscore.Lipo.Weighted>
-13.5611

> <Gold.Chemscore.Internal_Hbond.Weighted>
0.0000

> <Gold.Chemscore.DEClash.Weighted>
0.1293

> <Gold.Chemscore.DEInternal.Weighted>
2.4605

> <Gold.Chemscore.Rot.Weighted>
6.6043

> <Gold.Chemscore.Internal.Correction.Weighted>
   9.000000E+99

> <Gold.Protein.RotatedTorsions>
[ 6907 6896 6895 6894 ] final   24.83 input  -60.11 | X-H torsion
[ 7974 7965 7964 7962 ] final -179.98 input  175.53 | X-H torsion
[ 8008 7997 7996 7995 ] final  107.55 input   59.86 | X-H torsion
[ 10167 10162 10161 10158 ] final  127.01 input  -65.29 | X-H torsion
[ 10718 10713 10712 10709 ] final   36.45 input   66.30 | X-H torsion
[ 10763 10752 10751 10750 ] final    3.45 input  -60.55 | X-H torsion
[ 11005 11000 10999 10996 ] final  -24.29 input  -57.11 | X-H torsion

> <Gold.Protein.ActiveResidues>
 VAL166  LYS551  ARG553  GLY616  TRP617  ASP618  TYR619  PRO620  LYS621  CYS622 
 ASP623  PHE694  ASN695  SER759  ASP760  ASP761  ALA762  ILE779  LEU786  VAL792 
 PHE793  MET794  SER795  GLU796  ALA797  LYS798  CYS799  TRP800  GLU811  SER814 

> <Gold.Protein.RotatedAtoms>
  151.9634  135.0112  160.0548 H   0  0  0  0  0  0  0  0  0  0  0  0  # atno 6907 bound_to 6896
  152.1848  133.4727  159.4985 H   0  0  0  0  0  0  0  0  0  0  0  0  # atno 6908 bound_to 6896
  150.6924  134.1704  159.4253 H   0  0  0  0  0  0  0  0  0  0  0  0  # atno 6909 bound_to 6896
  144.7140  140.0636  143.6432 H   0  0  0  0  0  0  0  0  0  0  0  0  # atno 7974 bound_to 7965
  156.1833  140.3092  155.9191 H   0  0  0  0  0  0  0  0  0  0  0  0  # atno 8008 bound_to 7997
  155.3335  140.0462  157.3060 H   0  0  0  0  0  0  0  0  0  0  0  0  # atno 8009 bound_to 7997
  154.5367  140.2248  155.8720 H   0  0  0  0  0  0  0  0  0  0  0  0  # atno 8010 bound_to 7997
  139.5601  144.6876  151.4068 H   0  0  0  0  0  0  0  0  0  0  0  0  # atno 10167 bound_to 10162
  157.3350  130.7518  149.6873 H   0  0  0  0  0  0  0  0  0  0  0  0  # atno 10718 bound_to 10713
  153.2832  135.6942  153.7365 H   0  0  0  0  0  0  0  0  0  0  0  0  # atno 10763 bound_to 10752
  153.6344  135.3404  155.3053 H   0  0  0  0  0  0  0  0  0  0  0  0  # atno 10764 bound_to 10752
  154.8501  135.4417  154.1891 H   0  0  0  0  0  0  0  0  0  0  0  0  # atno 10765 bound_to 10752
  140.8832  133.7639  156.0327 H   0  0  0  0  0  0  0  0  0  0  0  0  # atno 11005 bound_to 11000
  145.9843  139.2965  143.1023 LP  0  0  0  0  0  0  0  0  0  0  0  0  # atno 17320 bound_to 7965
  145.8975  140.9264  143.0520 LP  0  0  0  0  0  0  0  0  0  0  0  0  # atno 17321 bound_to 7965
  140.6879  143.7930  150.7213 LP  0  0  0  0  0  0  0  0  0  0  0  0  # atno 17342 bound_to 10162
  140.1403  143.4447  152.2198 LP  0  0  0  0  0  0  0  0  0  0  0  0  # atno 17343 bound_to 10162
  155.9700  130.4184  150.4326 LP  0  0  0  0  0  0  0  0  0  0  0  0  # atno 17370 bound_to 10713
  157.2364  131.0515  151.2462 LP  0  0  0  0  0  0  0  0  0  0  0  0  # atno 17371 bound_to 10713
  140.8436  134.3037  157.5303 LP  0  0  0  0  0  0  0  0  0  0  0  0  # atno 17394 bound_to 11000
  139.8721  134.9430  156.3840 LP  0  0  0  0  0  0  0  0  0  0  0  0  # atno 17395 bound_to 11000

$$$$
