AV-unprocessed.smi:1184|AV-procd|sdf|4970|dock1
  -GOLD-   22720 3563D 1   1.00000     0.00000
 Structure written by MMmdl.
 43 44  0  0  0  0  0  0  0  0  2 V2000
  151.7484  144.9260  158.6657 C   0  0  0  0  0  0  0  0  0  0  0  0
  151.6481  143.4251  158.3621 C   0  0  0  0  0  0  0  0  0  0  0  0
  150.4890  143.1085  157.4951 N   0  3  2  0  0  0  0  0  0  0  0  0
  149.3210  142.5710  158.2244 C   0  0  0  0  0  0  0  0  0  0  0  0
  148.5713  141.7164  157.2074 C   0  0  0  0  0  0  0  0  0  0  0  0
  149.7090  141.0850  156.4067 C   0  0  1  0  0  0  0  0  0  0  0  0
  149.3052  140.5523  155.0187 C   0  0  0  0  0  0  0  0  0  0  0  0
  149.7208  139.1679  154.8244 N   0  0  0  0  0  0  0  0  0  0  0  0
  150.9922  138.7544  154.7028 C   0  0  0  0  0  0  0  0  0  0  0  0
  151.9580  139.5158  154.7459 O   0  0  0  0  0  0  0  0  0  0  0  0
  151.2100  137.2521  154.5164 C   0  0  0  0  0  0  0  0  0  0  0  0
  150.9732  136.5266  155.8171 C   0  0  0  0  0  0  0  0  0  0  0  0
  150.4705  135.2065  156.0030 C   0  0  0  0  0  0  0  0  0  0  0  0
  150.0544  134.2076  154.9616 C   0  0  0  0  0  0  0  0  0  0  0  0
  150.3889  134.8843  157.2829 N   0  0  0  0  0  0  0  0  0  0  0  0
  150.8410  136.0029  157.9892 O   0  0  0  0  0  0  0  0  0  0  0  0
  151.1846  136.9652  157.0960 C   0  0  0  0  0  0  0  0  0  0  0  0
  151.6904  138.2484  157.6640 C   0  0  0  0  0  0  0  0  0  0  0  0
  150.7757  142.1893  156.3653 C   0  0  0  0  0  0  0  0  0  0  0  0
  152.5761  145.1257  159.3466 H   0  0  0  0  0  0  0  0  0  0  0  0
  150.8369  145.2945  159.1372 H   0  0  0  0  0  0  0  0  0  0  0  0
  151.9194  145.5112  157.7621 H   0  0  0  0  0  0  0  0  0  0  0  0
  152.5687  143.0636  157.9017 H   0  0  0  0  0  0  0  0  0  0  0  0
  151.5359  142.8871  159.3047 H   0  0  0  0  0  0  0  0  0  0  0  0
  149.6577  141.9403  159.0493 H   0  0  0  0  0  0  0  0  0  0  0  0
  148.7047  143.3687  158.6403 H   0  0  0  0  0  0  0  0  0  0  0  0
  147.9201  140.9777  157.6762 H   0  0  0  0  0  0  0  0  0  0  0  0
  147.9583  142.3507  156.5652 H   0  0  0  0  0  0  0  0  0  0  0  0
  150.1131  140.2619  156.9990 H   0  0  0  0  0  0  0  0  0  0  0  0
  148.2224  140.5989  154.8990 H   0  0  0  0  0  0  0  0  0  0  0  0
  149.7283  141.1808  154.2333 H   0  0  0  0  0  0  0  0  0  0  0  0
  148.9903  138.4729  154.7700 H   0  0  0  0  0  0  0  0  0  0  0  0
  150.5400  136.8883  153.7366 H   0  0  0  0  0  0  0  0  0  0  0  0
  152.2211  137.0881  154.1425 H   0  0  0  0  0  0  0  0  0  0  0  0
  149.6400  134.7031  154.0836 H   0  0  0  0  0  0  0  0  0  0  0  0
  149.2940  133.5253  155.3421 H   0  0  0  0  0  0  0  0  0  0  0  0
  150.9051  133.6100  154.6344 H   0  0  0  0  0  0  0  0  0  0  0  0
  152.2275  138.8268  156.9124 H   0  0  0  0  0  0  0  0  0  0  0  0
  152.3717  138.0631  158.4943 H   0  0  0  0  0  0  0  0  0  0  0  0
  150.8648  138.8571  158.0323 H   0  0  0  0  0  0  0  0  0  0  0  0
  150.7154  142.7633  155.4398 H   0  0  0  0  0  0  0  0  0  0  0  0
  151.7764  141.7579  156.4179 H   0  0  0  0  0  0  0  0  0  0  0  0
  150.1823  143.9773  157.0810 H   0  0  0  0  0  0  0  0  0  0  0  0
  1  2  1  0  0  0  0
  1 20  1  0  0  0  0
  1 21  1  0  0  0  0
  1 22  1  0  0  0  0
  2  3  1  0  0  0  0
  2 23  1  0  0  0  0
  2 24  1  0  0  0  0
  3 19  1  0  0  0  0
  3  4  1  0  0  0  0
  3 43  1  0  0  0  0
  4  5  1  0  0  0  0
  4 25  1  0  0  0  0
  4 26  1  0  0  0  0
  5  6  1  0  0  0  0
  5 27  1  0  0  0  0
  5 28  1  0  0  0  0
  6  7  1  0  0  0  0
  6 19  1  0  0  0  0
  6 29  1  0  0  0  0
  7  8  1  0  0  0  0
  7 30  1  0  0  0  0
  7 31  1  0  0  0  0
  8  9  1  0  0  0  0
  8 32  1  0  0  0  0
  9 10  2  0  0  0  0
  9 11  1  0  0  0  0
 11 12  1  0  0  0  0
 11 33  1  0  0  0  0
 11 34  1  0  0  0  0
 12 17  2  0  0  0  0
 12 13  1  0  0  0  0
 13 14  1  0  0  0  0
 13 15  2  0  0  0  0
 14 35  1  0  0  0  0
 14 36  1  0  0  0  0
 14 37  1  0  0  0  0
 15 16  1  0  0  0  0
 16 17  1  0  0  0  0
 17 18  1  0  0  0  0
 18 38  1  0  0  0  0
 18 39  1  0  0  0  0
 18 40  1  0  0  0  0
 19 41  1  0  0  0  0
 19 42  1  0  0  0  0
M  CHG  1   3   1
M  END
> <s_m_source_file>
AV-unprocessed.smi

> <i_m_source_file_index>
1184

> <i_lp_mmshare_version>
43012

> <i_f3d_flags>
0

> <s_epik_input>
W0NIM11bQ0gyXU4xW0NIMl1bQ0gyXVtDQEhdKFtDSDJdMSlbQ0gyXVtOSF1DKD1PKVtDSDJdYzJjKFtDSDNdKW5vYzJbQ0gzXQ==

> <s_epik_cmdline>
J2VwaWtfcHl0aG9uJywgJy1waCcsICc3LjAnLCAnLXRuJywgJzgnLCAnLW1hJywgJzIwMCcsICctbWV0YWxfYmluZGluZycsICctaW1hZScsICc8aW5maWxlLm1hZT4nLCAnLW9tYWUnLCAnPG91dGZpbGUubWFlPic=

> <r_epik_Ionization_Penalty>
0.000590726

> <r_epik_Ionization_Penalty_Charging>
0.000590692

> <r_epik_Ionization_Penalty_Neutral>
3.44741e-08

> <r_epik_State_Penalty>
0.000371644

> <r_epik_Charging_Adjusted_Penalty>
0.000962336

> <i_epik_Tot_Q>
1

> <i_epik_Tot_abs_Q>
1

> <r_epik_Metal_State_Penalty>
-0

> <b_epik_Metal_Only>
0

> <s_lp_Force_Field>
OPLS_2005

> <r_lp_Energy>
22.2982

> <b_lp_Chiralities_Consistent>
1

> <s_lp_Variant>
AV-unprocessed.smi:1184-2

> <Gold.Version>
5.8.1

> <Gold.Id.Protein>
6NUR|6NUR_protein|mol2

> <Gold.PLP.Fitness>
38.1547

> <Gold.PLP.PLP>
-32.8984

> <Gold.PLP.part.hbond>
-4.0000

> <Gold.PLP.part.metal>
0.0000

> <Gold.PLP.part.buried>
-5.9328

> <Gold.PLP.part.nonpolar>
-24.3578

> <Gold.PLP.part.repulsive>
0.1282

> <Gold.PLP.ligand.clash>
0.0000

> <Gold.PLP.ligand.torsion>
1.9157

> <Gold.PLP.Chemscore.Hbond>
3.0054

> <Gold.PLP.Chemscore.CHOScore>
0.0000

> <Gold.PLP.Chemscore.Metal>
0.0000

> <Gold.Chemscore.Hbonds>
donor molecule, donor type, donor heavy atom, donor atom, acceptor molecule, acceptor atom, score
      L1  H     3    43       P1  8028  1.68
      P1  H  6896  6909       L1    16  0.34
      P1  H  7989  7998       L1    10  0.94

> <Gold.PLP.Chemscore.Internal.Correction>
0.0716

> <Gold.Rescore>
     Score         DG    S(hbond)    S(metal)    S(lipo)     H(rot)  DE(clash)    DE(int)     intcor
     15.03     -16.97       2.00        0.00      77.75       1.67       0.01       1.94       ----

> <Gold.Chemscore.Fitness>
15.0301

> <Gold.Chemscore.DG>
-16.9748

> <Gold.Chemscore.ZeroCoef>
-5.4800

> <Gold.Chemscore.Hbond>
1.9969

> <Gold.Chemscore.Metal>
0.0000

> <Gold.Chemscore.Lipo>
77.7463

> <Gold.Chemscore.Internal_Hbond>
0.0000

> <Gold.Chemscore.DEClash>
0.0052

> <Gold.Chemscore.DEInternal>
1.9395

> <Gold.Chemscore.Rot>
1.6684

> <Gold.Chemscore.Internal.Correction>
   9.000000E+99

> <Gold.Chemscore.Hbonds>
donor molecule, donor type, donor heavy atom, donor atom, acceptor molecule, acceptor atom, score
      L1  H     3    43       P1  8028  0.73
      P1  H  6896  6909       L1    16  0.06
      P1  H  7989  7998       L1    10  0.59

> <Gold.Chemscore.Hbond.Weighted>
-6.6697

> <Gold.Chemscore.Metal.Weighted>
-0.0000

> <Gold.Chemscore.Lipo.Weighted>
-9.0963

> <Gold.Chemscore.Internal_Hbond.Weighted>
0.0000

> <Gold.Chemscore.DEClash.Weighted>
0.0052

> <Gold.Chemscore.DEInternal.Weighted>
1.9395

> <Gold.Chemscore.Rot.Weighted>
4.2712

> <Gold.Chemscore.Internal.Correction.Weighted>
   9.000000E+99

> <Gold.Protein.RotatedTorsions>
[ 6907 6896 6895 6894 ] final   96.69 input  -60.11 | X-H torsion
[ 7974 7965 7964 7962 ] final   52.05 input  175.53 | X-H torsion
[ 8008 7997 7996 7995 ] final   37.73 input   59.86 | X-H torsion
[ 10167 10162 10161 10158 ] final  -78.63 input  -65.29 | X-H torsion
[ 10718 10713 10712 10709 ] final   18.59 input   66.30 | X-H torsion
[ 10763 10752 10751 10750 ] final  107.02 input  -60.55 | X-H torsion
[ 11005 11000 10999 10996 ] final -148.05 input  -57.11 | X-H torsion

> <Gold.Protein.ActiveResidues>
 VAL166  LYS551  ARG553  GLY616  TRP617  ASP618  TYR619  PRO620  LYS621  CYS622 
 ASP623  PHE694  ASN695  SER759  ASP760  ASP761  ALA762  ILE779  LEU786  VAL792 
 PHE793  MET794  SER795  GLU796  ALA797  LYS798  CYS799  TRP800  GLU811  SER814 

> <Gold.Protein.RotatedAtoms>
  152.5432  134.0847  159.8250 H   0  0  0  0  0  0  0  0  0  0  0  0  # atno 6907 bound_to 6896
  151.0944  133.5283  159.2620 H   0  0  0  0  0  0  0  0  0  0  0  0  # atno 6908 bound_to 6896
  151.2062  135.0472  159.8947 H   0  0  0  0  0  0  0  0  0  0  0  0  # atno 6909 bound_to 6896
  145.9852  139.4283  143.0107 H   0  0  0  0  0  0  0  0  0  0  0  0  # atno 7974 bound_to 7965
  155.2086  140.3321  155.4332 H   0  0  0  0  0  0  0  0  0  0  0  0  # atno 8008 bound_to 7997
  156.2379  140.1881  156.7118 H   0  0  0  0  0  0  0  0  0  0  0  0  # atno 8009 bound_to 7997
  154.6093  140.0611  156.9458 H   0  0  0  0  0  0  0  0  0  0  0  0  # atno 8010 bound_to 7997
  140.4665  143.2438  151.8270 H   0  0  0  0  0  0  0  0  0  0  0  0  # atno 10167 bound_to 10162
  157.0984  130.6457  149.5866 H   0  0  0  0  0  0  0  0  0  0  0  0  # atno 10718 bound_to 10713
  153.4010  135.3858  155.1987 H   0  0  0  0  0  0  0  0  0  0  0  0  # atno 10763 bound_to 10752
  154.8729  135.3771  154.4619 H   0  0  0  0  0  0  0  0  0  0  0  0  # atno 10764 bound_to 10752
  153.5116  135.7087  153.5840 H   0  0  0  0  0  0  0  0  0  0  0  0  # atno 10765 bound_to 10752
  140.7652  134.3252  157.5090 H   0  0  0  0  0  0  0  0  0  0  0  0  # atno 11005 bound_to 11000
  145.7711  140.9896  143.1149 LP  0  0  0  0  0  0  0  0  0  0  0  0  # atno 17320 bound_to 7965
  144.6873  139.9448  143.7476 LP  0  0  0  0  0  0  0  0  0  0  0  0  # atno 17321 bound_to 7965
  139.4812  144.4945  151.9142 LP  0  0  0  0  0  0  0  0  0  0  0  0  # atno 17342 bound_to 10162
  140.4030  144.2468  150.5892 LP  0  0  0  0  0  0  0  0  0  0  0  0  # atno 17343 bound_to 10162
  155.9880  130.4921  150.7149 LP  0  0  0  0  0  0  0  0  0  0  0  0  # atno 17370 bound_to 10713
  157.4661  131.0888  151.0693 LP  0  0  0  0  0  0  0  0  0  0  0  0  # atno 17371 bound_to 10713
  139.8764  134.9227  156.3306 LP  0  0  0  0  0  0  0  0  0  0  0  0  # atno 17394 bound_to 11000
  140.9625  133.7379  156.0421 LP  0  0  0  0  0  0  0  0  0  0  0  0  # atno 17395 bound_to 11000

$$$$
