AV-unprocessed.smi:3245|AV-procd|sdf|12403|dock5
  -GOLD-   2272018283D 1   1.00000     0.00000
 Structure written by MMmdl.
 36 37  0  0  0  0  0  0  0  0  2 V2000
  145.6637  137.0845  152.1064 C   0  0  0  0  0  0  0  0  0  0  0  0
  144.2196  136.5985  152.2897 C   0  0  1  0  0  0  0  0  0  0  0  0
  144.1968  135.1450  152.8114 C   0  0  0  0  0  0  0  0  0  0  0  0
  144.8741  134.2136  151.9269 N   0  0  0  0  0  0  0  0  0  0  0  0
  144.4742  133.7631  150.6865 C   0  0  0  0  0  0  0  0  0  0  0  0
  145.4232  132.8841  150.2490 C   0  0  0  0  0  0  0  0  0  0  0  0
  146.3800  132.8661  151.3021 C   0  0  0  0  0  0  0  0  0  0  0  0
  146.0483  133.6630  152.3054 N   0  0  0  0  0  0  0  0  0  0  0  0
  143.5075  137.5101  153.2142 N   0  3  0  0  0  0  0  0  0  0  0  0
  142.0542  137.2717  153.3289 C   0  0  0  0  0  0  0  0  0  0  0  0
  141.3735  138.4043  154.1105 C   0  0  0  0  0  0  0  0  0  0  0  0
  139.9169  138.2489  154.1095 N   0  0  0  0  0  0  0  0  0  0  0  0
  139.2798  137.0978  154.3588 C   0  0  0  0  0  0  0  0  0  0  0  0
  139.7830  136.0058  154.6200 O   0  0  0  0  0  0  0  0  0  0  0  0
  137.7896  137.3491  154.2816 C   0  0  0  0  0  0  0  0  0  0  0  0
  137.8055  138.7648  153.9815 N   0  0  0  0  0  0  0  0  0  0  0  0
  139.0489  139.2540  153.8921 C   0  0  0  0  0  0  0  0  0  0  0  0
  139.3360  140.4272  153.6592 O   0  0  0  0  0  0  0  0  0  0  0  0
  146.2033  136.4533  151.3995 H   0  0  0  0  0  0  0  0  0  0  0  0
  146.2114  137.0703  153.0494 H   0  0  0  0  0  0  0  0  0  0  0  0
  145.6902  138.1044  151.7210 H   0  0  0  0  0  0  0  0  0  0  0  0
  143.7398  136.6337  151.3101 H   0  0  0  0  0  0  0  0  0  0  0  0
  144.6843  135.0915  153.7858 H   0  0  0  0  0  0  0  0  0  0  0  0
  143.1698  134.8077  152.9625 H   0  0  0  0  0  0  0  0  0  0  0  0
  143.5562  134.0974  150.2258 H   0  0  0  0  0  0  0  0  0  0  0  0
  145.4336  132.3371  149.3178 H   0  0  0  0  0  0  0  0  0  0  0  0
  147.2972  132.2997  151.3678 H   0  0  0  0  0  0  0  0  0  0  0  0
  143.9275  137.4215  154.1289 H   0  0  0  0  0  0  0  0  0  0  0  0
  141.6282  137.1881  152.3281 H   0  0  0  0  0  0  0  0  0  0  0  0
  141.8716  136.3219  153.8309 H   0  0  0  0  0  0  0  0  0  0  0  0
  141.7378  138.4173  155.1394 H   0  0  0  0  0  0  0  0  0  0  0  0
  141.6505  139.3708  153.6858 H   0  0  0  0  0  0  0  0  0  0  0  0
  137.3247  136.7727  153.4809 H   0  0  0  0  0  0  0  0  0  0  0  0
  137.2956  137.1437  155.2316 H   0  0  0  0  0  0  0  0  0  0  0  0
  136.9645  139.3111  153.8615 H   0  0  0  0  0  0  0  0  0  0  0  0
  143.6369  138.4587  152.8919 H   0  0  0  0  0  0  0  0  0  0  0  0
  1  2  1  0  0  0  0
  1 19  1  0  0  0  0
  1 20  1  0  0  0  0
  1 21  1  0  0  0  0
  2  3  1  0  0  0  0
  2  9  1  0  0  0  0
  2 22  1  0  0  0  0
  3  4  1  0  0  0  0
  3 23  1  0  0  0  0
  3 24  1  0  0  0  0
  4  8  1  0  0  0  0
  4  5  1  0  0  0  0
  5  6  2  0  0  0  0
  5 25  1  0  0  0  0
  6  7  1  0  0  0  0
  6 26  1  0  0  0  0
  7  8  2  0  0  0  0
  7 27  1  0  0  0  0
  9 10  1  0  0  0  0
  9 28  1  0  0  0  0
  9 36  1  0  0  0  0
 10 11  1  0  0  0  0
 10 29  1  0  0  0  0
 10 30  1  0  0  0  0
 11 12  1  0  0  0  0
 11 31  1  0  0  0  0
 11 32  1  0  0  0  0
 12 17  1  0  0  0  0
 12 13  1  0  0  0  0
 13 14  2  0  0  0  0
 13 15  1  0  0  0  0
 15 16  1  0  0  0  0
 15 33  1  0  0  0  0
 15 34  1  0  0  0  0
 16 17  1  0  0  0  0
 16 35  1  0  0  0  0
 17 18  2  0  0  0  0
M  CHG  1   9   1
M  END
> <s_m_source_file>
AV-unprocessed.smi

> <i_m_source_file_index>
3245

> <i_lp_mmshare_version>
43012

> <i_f3d_flags>
0

> <s_epik_input>
bjFbY0hdW2NIXVtjSF1uMVtDSDJdW0NAQEhdKFtDSDNdKVtOSF1bQ0gyXVtDSDJdTjJDKD1PKVtDSDJdW05IXUMyPU8=

> <s_epik_cmdline>
J2VwaWtfcHl0aG9uJywgJy1waCcsICc3LjAnLCAnLXRuJywgJzgnLCAnLW1hJywgJzIwMCcsICctbWV0YWxfYmluZGluZycsICctaW1hZScsICc8aW5maWxlLm1hZT4nLCAnLW9tYWUnLCAnPG91dGZpbGUubWFlPic=

> <r_lp_tautomer_probability>
1

> <r_epik_Ionization_Penalty>
0.0160742

> <r_epik_Ionization_Penalty_Charging>
0.0159586

> <r_epik_Ionization_Penalty_Neutral>
0.000115543

> <r_epik_State_Penalty>
0.0125702

> <r_epik_Charging_Adjusted_Penalty>
0.0285288

> <i_epik_Tot_Q>
1

> <i_epik_Tot_abs_Q>
1

> <r_epik_Metal_State_Penalty>
0.0881892

> <b_epik_Metal_Only>
0

> <s_lp_Force_Field>
OPLS_2005

> <r_lp_Energy>
19.8129

> <b_lp_Chiralities_Consistent>
1

> <s_lp_Variant>
AV-unprocessed.smi:3245-2

> <Gold.Version>
5.8.1

> <Gold.Id.Protein>
6NUR|6NUR_protein|mol2

> <Gold.PLP.Fitness>
43.7542

> <Gold.PLP.PLP>
-29.3920

> <Gold.PLP.part.hbond>
-2.0000

> <Gold.PLP.part.metal>
0.0000

> <Gold.PLP.part.buried>
-5.9767

> <Gold.PLP.part.nonpolar>
-23.0813

> <Gold.PLP.part.repulsive>
1.4109

> <Gold.PLP.ligand.clash>
0.0000

> <Gold.PLP.ligand.torsion>
0.3462

> <Gold.PLP.Chemscore.Hbond>
3.0000

> <Gold.PLP.Chemscore.CHOScore>
2.0000

> <Gold.PLP.Chemscore.Metal>
0.0000

> <Gold.Chemscore.Hbonds>
donor molecule, donor type, donor heavy atom, donor atom, acceptor molecule, acceptor atom, score
      L1  H     9    36       P1 10175  2.00
      P1  H 11000 11005       L1    14  1.00
      L1  C     5    25       P1 10186  0.69
      L1  C     7    27       P1 10747  1.00

> <Gold.PLP.Chemscore.Internal.Correction>
0.0546

> <Gold.Rescore>
     Score         DG    S(hbond)    S(metal)    S(lipo)     H(rot)  DE(clash)    DE(int)     intcor
      9.77     -11.03       1.97        0.00      50.95       2.74       0.02       1.23       ----

> <Gold.Chemscore.Fitness>
9.7722

> <Gold.Chemscore.DG>
-11.0270

> <Gold.Chemscore.ZeroCoef>
-5.4800

> <Gold.Chemscore.Hbond>
1.9739

> <Gold.Chemscore.Metal>
0.0000

> <Gold.Chemscore.Lipo>
50.9456

> <Gold.Chemscore.Internal_Hbond>
0.0000

> <Gold.Chemscore.DEClash>
0.0237

> <Gold.Chemscore.DEInternal>
1.2311

> <Gold.Chemscore.Rot>
2.7369

> <Gold.Chemscore.Internal.Correction>
   9.000000E+99

> <Gold.Chemscore.Hbonds>
donor molecule, donor type, donor heavy atom, donor atom, acceptor molecule, acceptor atom, score
      L1  H     9    36       P1 10175  0.94
      P1  H 11000 11005       L1    14  1.00

> <Gold.Chemscore.Hbond.Weighted>
-6.5929

> <Gold.Chemscore.Metal.Weighted>
-0.0000

> <Gold.Chemscore.Lipo.Weighted>
-5.9606

> <Gold.Chemscore.Internal_Hbond.Weighted>
0.0000

> <Gold.Chemscore.DEClash.Weighted>
0.0237

> <Gold.Chemscore.DEInternal.Weighted>
1.2311

> <Gold.Chemscore.Rot.Weighted>
7.0065

> <Gold.Chemscore.Internal.Correction.Weighted>
   9.000000E+99

> <Gold.Protein.RotatedTorsions>
[ 6907 6896 6895 6894 ] final   15.66 input  -60.11 | X-H torsion
[ 7974 7965 7964 7962 ] final  111.50 input  175.53 | X-H torsion
[ 8008 7997 7996 7995 ] final  170.91 input   59.86 | X-H torsion
[ 10167 10162 10161 10158 ] final  141.98 input  -65.29 | X-H torsion
[ 10718 10713 10712 10709 ] final  109.54 input   66.30 | X-H torsion
[ 10763 10752 10751 10750 ] final  119.35 input  -60.55 | X-H torsion
[ 11005 11000 10999 10996 ] final   55.69 input  -57.11 | X-H torsion

> <Gold.Protein.ActiveResidues>
 VAL166  LYS551  ARG553  GLY616  TRP617  ASP618  TYR619  PRO620  LYS621  CYS622 
 ASP623  PHE694  ASN695  SER759  ASP760  ASP761  ALA762  ILE779  LEU786  VAL792 
 PHE793  MET794  SER795  GLU796  ALA797  LYS798  CYS799  TRP800  GLU811  SER814 

> <Gold.Protein.RotatedAtoms>
  151.8216  135.0650  160.0425 H   0  0  0  0  0  0  0  0  0  0  0  0  # atno 6907 bound_to 6896
  152.2947  133.5591  159.5588 H   0  0  0  0  0  0  0  0  0  0  0  0  # atno 6908 bound_to 6896
  150.7246  134.0294  159.3770 H   0  0  0  0  0  0  0  0  0  0  0  0  # atno 6909 bound_to 6896
  145.2415  139.2777  143.4115 H   0  0  0  0  0  0  0  0  0  0  0  0  # atno 7974 bound_to 7965
  156.1321  140.1525  156.9049 H   0  0  0  0  0  0  0  0  0  0  0  0  # atno 8008 bound_to 7997
  154.4917  140.0849  156.7649 H   0  0  0  0  0  0  0  0  0  0  0  0  # atno 8009 bound_to 7997
  155.4236  140.3424  155.4276 H   0  0  0  0  0  0  0  0  0  0  0  0  # atno 8010 bound_to 7997
  139.5006  144.6136  151.6214 H   0  0  0  0  0  0  0  0  0  0  0  0  # atno 10167 bound_to 10162
  157.6537  131.0915  150.6469 H   0  0  0  0  0  0  0  0  0  0  0  0  # atno 10718 bound_to 10713
  153.5817  135.3482  155.2877 H   0  0  0  0  0  0  0  0  0  0  0  0  # atno 10763 bound_to 10752
  154.8667  135.4183  154.2613 H   0  0  0  0  0  0  0  0  0  0  0  0  # atno 10764 bound_to 10752
  153.3401  135.7049  153.6945 H   0  0  0  0  0  0  0  0  0  0  0  0  # atno 10765 bound_to 10752
  140.0587  134.5633  155.9177 H   0  0  0  0  0  0  0  0  0  0  0  0  # atno 11005 bound_to 11000
  146.3327  140.2779  142.8609 LP  0  0  0  0  0  0  0  0  0  0  0  0  # atno 17320 bound_to 7965
  144.9585  140.8251  143.5528 LP  0  0  0  0  0  0  0  0  0  0  0  0  # atno 17321 bound_to 7965
  140.5818  143.9932  150.6273 LP  0  0  0  0  0  0  0  0  0  0  0  0  # atno 17342 bound_to 10162
  140.3084  143.3214  152.0903 LP  0  0  0  0  0  0  0  0  0  0  0  0  # atno 17343 bound_to 10162
  156.6777  130.4558  149.5637 LP  0  0  0  0  0  0  0  0  0  0  0  0  # atno 17370 bound_to 10713
  156.1951  130.6585  151.1105 LP  0  0  0  0  0  0  0  0  0  0  0  0  # atno 17371 bound_to 10713
  141.1964  133.6591  156.5688 LP  0  0  0  0  0  0  0  0  0  0  0  0  # atno 17394 bound_to 11000
  140.3803  134.7529  157.4657 LP  0  0  0  0  0  0  0  0  0  0  0  0  # atno 17395 bound_to 11000

$$$$
