AV-unprocessed.smi:149|AV-procd|sdf|1236|dock8
  -GOLD-   2262018443D 1   1.00000     0.00000
 Structure written by MMmdl.
 60 64  0  0  0  0  0  0  0  0  2 V2000
  146.8909  142.3210  154.7642 C   0  0  0  0  0  0  0  0  0  0  0  0
  148.2343  141.6519  154.4089 C   0  0  2  0  0  0  0  0  0  0  0  0
  147.9982  140.3194  153.6777 C   0  0  0  0  0  0  0  0  0  0  0  0
  148.1391  139.2737  154.6837 N   0  0  0  0  0  0  0  0  0  0  0  0
  147.4691  138.0970  154.5767 C   0  0  0  0  0  0  0  0  0  0  0  0
  147.4833  137.2391  155.6311 N   0  0  0  0  0  0  0  0  0  0  0  0
  146.8413  136.0694  155.5627 C   0  0  0  0  0  0  0  0  0  0  0  0
  146.1352  135.5641  154.5506 N   0  0  0  0  0  0  0  0  0  0  0  0
  146.1197  136.4138  153.4843 C   0  0  0  0  0  0  0  0  0  0  0  0
  146.7598  137.6849  153.4098 C   0  0  0  0  0  0  0  0  0  0  0  0
  146.5455  138.2416  152.1535 N   0  0  0  0  0  0  0  0  0  0  0  0
  145.8211  137.3561  151.5266 C   0  0  0  0  0  0  0  0  0  0  0  0
  145.4921  136.2409  152.2622 N   0  0  0  0  0  0  0  0  0  0  0  0
  144.7468  135.1043  151.8042 C   0  0  0  0  0  0  0  0  0  0  0  0
  144.9118  133.7338  152.4695 C   0  0  0  0  0  0  0  0  0  0  0  0
  144.7600  133.0355  151.0995 C   0  0  0  0  0  0  0  0  0  0  0  0
  145.7998  131.9370  150.8300 C   0  0  0  0  0  0  0  0  0  0  0  0
  147.1181  132.4414  150.8996 O   0  0  0  0  0  0  0  0  0  0  0  0
  143.3706  132.4352  150.7888 C   0  0  0  0  0  0  0  0  0  0  0  0
  143.2008  132.0924  149.4283 O   0  0  0  0  0  0  0  0  0  0  0  0
  145.0873  134.4125  150.4811 C   0  0  0  0  0  0  0  0  0  0  0  0
  148.4549  139.8607  155.9772 C   0  0  0  0  0  0  0  0  0  0  0  0
  149.0720  141.2197  155.6298 C   0  0  2  0  0  0  0  0  0  0  0  0
  149.1119  142.2052  156.7470 N   0  3  0  0  0  0  0  0  0  0  0  0
  147.9301  142.1449  157.6452 C   0  0  0  0  0  0  0  0  0  0  0  0
  148.0330  143.2123  158.7486 C   0  0  0  0  0  0  0  0  0  0  0  0
  149.2402  143.0365  159.4775 O   0  0  0  0  0  0  0  0  0  0  0  0
  150.3842  143.1830  158.6474 C   0  0  0  0  0  0  0  0  0  0  0  0
  150.3603  142.1102  157.5466 C   0  0  0  0  0  0  0  0  0  0  0  0
  146.2796  141.6840  155.4039 H   0  0  0  0  0  0  0  0  0  0  0  0
  146.3133  142.5300  153.8634 H   0  0  0  0  0  0  0  0  0  0  0  0
  147.0343  143.2705  155.2794 H   0  0  0  0  0  0  0  0  0  0  0  0
  148.8011  142.3307  153.7709 H   0  0  0  0  0  0  0  0  0  0  0  0
  147.0204  140.2962  153.1944 H   0  0  0  0  0  0  0  0  0  0  0  0
  148.7570  140.1660  152.9098 H   0  0  0  0  0  0  0  0  0  0  0  0
  146.9010  135.4498  156.4452 H   0  0  0  0  0  0  0  0  0  0  0  0
  145.5018  137.4970  150.5041 H   0  0  0  0  0  0  0  0  0  0  0  0
  143.7011  135.4139  151.8153 H   0  0  0  0  0  0  0  0  0  0  0  0
  145.9037  133.6009  152.9044 H   0  0  0  0  0  0  0  0  0  0  0  0
  144.1361  133.4922  153.1967 H   0  0  0  0  0  0  0  0  0  0  0  0
  145.7146  131.1341  151.5628 H   0  0  0  0  0  0  0  0  0  0  0  0
  145.6464  131.4790  149.8523 H   0  0  0  0  0  0  0  0  0  0  0  0
  147.7081  131.7897  150.5527 H   0  0  0  0  0  0  0  0  0  0  0  0
  143.1950  131.5326  151.3745 H   0  0  0  0  0  0  0  0  0  0  0  0
  142.5790  133.1372  151.0529 H   0  0  0  0  0  0  0  0  0  0  0  0
  142.5431  131.4165  149.3691 H   0  0  0  0  0  0  0  0  0  0  0  0
  144.4485  134.7019  149.6462 H   0  0  0  0  0  0  0  0  0  0  0  0
  146.1412  134.5181  150.2181 H   0  0  0  0  0  0  0  0  0  0  0  0
  147.5423  139.9777  156.5636 H   0  0  0  0  0  0  0  0  0  0  0  0
  149.1493  139.2307  156.5347 H   0  0  0  0  0  0  0  0  0  0  0  0
  150.0970  141.0406  155.2982 H   0  0  0  0  0  0  0  0  0  0  0  0
  147.0112  142.3126  157.0840 H   0  0  0  0  0  0  0  0  0  0  0  0
  147.8587  141.1512  158.0905 H   0  0  0  0  0  0  0  0  0  0  0  0
  147.9940  144.2168  158.3239 H   0  0  0  0  0  0  0  0  0  0  0  0
  147.1908  143.1253  159.4353 H   0  0  0  0  0  0  0  0  0  0  0  0
  150.4137  144.1854  158.2169 H   0  0  0  0  0  0  0  0  0  0  0  0
  151.2798  143.0725  159.2591 H   0  0  0  0  0  0  0  0  0  0  0  0
  150.4320  141.1184  157.9959 H   0  0  0  0  0  0  0  0  0  0  0  0
  151.2349  142.2326  156.9085 H   0  0  0  0  0  0  0  0  0  0  0  0
  149.1018  143.1218  156.3229 H   0  0  0  0  0  0  0  0  0  0  0  0
  1  2  1  0  0  0  0
  1 30  1  0  0  0  0
  1 31  1  0  0  0  0
  1 32  1  0  0  0  0
  2 23  1  0  0  0  0
  2  3  1  0  0  0  0
  2 33  1  0  0  0  0
  3  4  1  0  0  0  0
  3 34  1  0  0  0  0
  3 35  1  0  0  0  0
  4  5  1  0  0  0  0
  4 22  1  0  0  0  0
  5 10  1  0  0  0  0
  5  6  2  0  0  0  0
  6  7  1  0  0  0  0
  7  8  2  0  0  0  0
  7 36  1  0  0  0  0
  8  9  1  0  0  0  0
  9 13  1  0  0  0  0
  9 10  2  0  0  0  0
 10 11  1  0  0  0  0
 11 12  2  0  0  0  0
 12 13  1  0  0  0  0
 12 37  1  0  0  0  0
 13 14  1  0  0  0  0
 14 21  1  0  0  0  0
 14 15  1  0  0  0  0
 14 38  1  0  0  0  0
 15 16  1  0  0  0  0
 15 39  1  0  0  0  0
 15 40  1  0  0  0  0
 16 17  1  0  0  0  0
 16 19  1  0  0  0  0
 16 21  1  0  0  0  0
 17 18  1  0  0  0  0
 17 41  1  0  0  0  0
 17 42  1  0  0  0  0
 18 43  1  0  0  0  0
 19 20  1  0  0  0  0
 19 44  1  0  0  0  0
 19 45  1  0  0  0  0
 20 46  1  0  0  0  0
 21 47  1  0  0  0  0
 21 48  1  0  0  0  0
 22 23  1  0  0  0  0
 22 49  1  0  0  0  0
 22 50  1  0  0  0  0
 23 24  1  0  0  0  0
 23 51  1  0  0  0  0
 24 29  1  0  0  0  0
 24 25  1  0  0  0  0
 24 60  1  0  0  0  0
 25 26  1  0  0  0  0
 25 52  1  0  0  0  0
 25 53  1  0  0  0  0
 26 27  1  0  0  0  0
 26 54  1  0  0  0  0
 26 55  1  0  0  0  0
 27 28  1  0  0  0  0
 28 29  1  0  0  0  0
 28 56  1  0  0  0  0
 28 57  1  0  0  0  0
 29 58  1  0  0  0  0
 29 59  1  0  0  0  0
M  CHG  1  24   1
M  END
> <s_m_source_file>
AV-unprocessed.smi

> <i_m_source_file_index>
149

> <i_lp_mmshare_version>
43012

> <i_f3d_flags>
0

> <s_epik_input>
W0NIMl0xW0NIMl1PW0NIMl1bQ0gyXU4xW0NAQEhdMltDSDJdTihbQ0gyXVtDQEhdMltDSDNdKWMobltjSF1uMyljKGMzNCluW2NIXW40W0NIXShbQ0gyXTUpW0NIMl1DNShbQ0gyXVtPSF0pW0NIMl1bT0hd

> <s_epik_cmdline>
J2VwaWtfcHl0aG9uJywgJy1waCcsICc3LjAnLCAnLXRuJywgJzgnLCAnLW1hJywgJzIwMCcsICctbWV0YWxfYmluZGluZycsICctaW1hZScsICc8aW5maWxlLm1hZT4nLCAnLW9tYWUnLCAnPG91dGZpbGUubWFlPic=

> <r_lp_tautomer_probability>
1

> <r_epik_Ionization_Penalty>
0.404847

> <r_epik_Ionization_Penalty_Charging>
0.404623

> <r_epik_Ionization_Penalty_Neutral>
0.000224096

> <r_epik_State_Penalty>
0.238803

> <r_epik_Charging_Adjusted_Penalty>
0.643425

> <i_epik_Tot_Q>
1

> <i_epik_Tot_abs_Q>
1

> <r_epik_Metal_State_Penalty>
0.239083

> <b_epik_Metal_Only>
0

> <s_lp_Force_Field>
OPLS_2005

> <r_lp_Energy>
71.321

> <b_lp_Chiralities_Consistent>
1

> <s_lp_Variant>
AV-unprocessed.smi:149-3

> <Gold.Version>
5.8.1

> <Gold.Id.Protein>
6NUR|6NUR_protein|mol2

> <Gold.PLP.Fitness>
52.5993

> <Gold.PLP.PLP>
-39.1258

> <Gold.PLP.part.hbond>
-5.3400

> <Gold.PLP.part.metal>
0.0000

> <Gold.PLP.part.buried>
-1.4833

> <Gold.PLP.part.nonpolar>
-33.5100

> <Gold.PLP.part.repulsive>
0.5286

> <Gold.PLP.ligand.clash>
0.0000

> <Gold.PLP.ligand.torsion>
1.2921

> <Gold.PLP.Chemscore.Hbond>
4.1251

> <Gold.PLP.Chemscore.CHOScore>
0.9986

> <Gold.PLP.Chemscore.Metal>
0.0000

> <Gold.Chemscore.Hbonds>
donor molecule, donor type, donor heavy atom, donor atom, acceptor molecule, acceptor atom, score
      L1  H    18    43       P1 10747  1.00
      L1  H    20    46       P1 10952  0.99
      L1  H    24    60       P1  8028  2.00
      P1  H  6933  6944       L1    27  0.14
      L1  C    12    37       P1 10171  0.98

> <Gold.PLP.Chemscore.Internal.Correction>
0.6868

> <Gold.Rescore>
     Score         DG    S(hbond)    S(metal)    S(lipo)     H(rot)  DE(clash)    DE(int)     intcor
     13.44     -18.19       2.98        0.00      91.14       3.09       1.40       3.35       ----

> <Gold.Chemscore.Fitness>
13.4364

> <Gold.Chemscore.DG>
-18.1938

> <Gold.Chemscore.ZeroCoef>
-5.4800

> <Gold.Chemscore.Hbond>
2.9832

> <Gold.Chemscore.Metal>
0.0000

> <Gold.Chemscore.Lipo>
91.1412

> <Gold.Chemscore.Internal_Hbond>
0.0000

> <Gold.Chemscore.DEClash>
1.4043

> <Gold.Chemscore.DEInternal>
3.3531

> <Gold.Chemscore.Rot>
3.0912

> <Gold.Chemscore.Internal.Correction>
   9.000000E+99

> <Gold.Chemscore.Hbonds>
donor molecule, donor type, donor heavy atom, donor atom, acceptor molecule, acceptor atom, score
      L1  H    18    43       P1 10747  0.98
      L1  H    20    46       P1 10952  0.92
      L1  H    24    60       P1  8028  1.00
      P1  H  6933  6944       L1    27  0.06

> <Gold.Chemscore.Hbond.Weighted>
-9.9637

> <Gold.Chemscore.Metal.Weighted>
-0.0000

> <Gold.Chemscore.Lipo.Weighted>
-10.6635

> <Gold.Chemscore.Internal_Hbond.Weighted>
0.0000

> <Gold.Chemscore.DEClash.Weighted>
1.4043

> <Gold.Chemscore.DEInternal.Weighted>
3.3531

> <Gold.Chemscore.Rot.Weighted>
7.9135

> <Gold.Chemscore.Internal.Correction.Weighted>
   9.000000E+99

> <Gold.Protein.RotatedTorsions>
[ 6907 6896 6895 6894 ] final  172.90 input  -60.11 | X-H torsion
[ 7974 7965 7964 7962 ] final  140.77 input  175.53 | X-H torsion
[ 8008 7997 7996 7995 ] final  141.99 input   59.86 | X-H torsion
[ 10167 10162 10161 10158 ] final -140.95 input  -65.29 | X-H torsion
[ 10718 10713 10712 10709 ] final  -41.87 input   66.30 | X-H torsion
[ 10763 10752 10751 10750 ] final -108.29 input  -60.55 | X-H torsion
[ 11005 11000 10999 10996 ] final   25.47 input  -57.11 | X-H torsion

> <Gold.Protein.ActiveResidues>
 VAL166  LYS551  ARG553  GLY616  TRP617  ASP618  TYR619  PRO620  LYS621  CYS622 
 ASP623  PHE694  ASN695  SER759  ASP760  ASP761  ALA762  ILE779  LEU786  VAL792 
 PHE793  MET794  SER795  GLU796  ALA797  LYS798  CYS799  TRP800  GLU811  SER814 

> <Gold.Protein.RotatedAtoms>
  151.7770  133.3346  159.3460 H   0  0  0  0  0  0  0  0  0  0  0  0  # atno 6907 bound_to 6896
  150.7440  134.5966  159.6024 H   0  0  0  0  0  0  0  0  0  0  0  0  # atno 6908 bound_to 6896
  152.3302  134.7270  160.0343 H   0  0  0  0  0  0  0  0  0  0  0  0  # atno 6909 bound_to 6896
  144.9156  139.5235  143.5688 H   0  0  0  0  0  0  0  0  0  0  0  0  # atno 7974 bound_to 7965
  156.2957  140.2300  156.4655 H   0  0  0  0  0  0  0  0  0  0  0  0  # atno 8008 bound_to 7997
  154.7980  140.0450  157.1272 H   0  0  0  0  0  0  0  0  0  0  0  0  # atno 8009 bound_to 7997
  154.9566  140.3049  155.5053 H   0  0  0  0  0  0  0  0  0  0  0  0  # atno 8010 bound_to 7997
  139.8231  143.7546  152.2666 H   0  0  0  0  0  0  0  0  0  0  0  0  # atno 10167 bound_to 10162
  156.2657  130.4201  149.8493 H   0  0  0  0  0  0  0  0  0  0  0  0  # atno 10718 bound_to 10713
  154.8127  135.4643  154.0558 H   0  0  0  0  0  0  0  0  0  0  0  0  # atno 10763 bound_to 10752
  153.1976  135.6864  153.8278 H   0  0  0  0  0  0  0  0  0  0  0  0  # atno 10764 bound_to 10752
  153.7774  135.3261  155.3338 H   0  0  0  0  0  0  0  0  0  0  0  0  # atno 10765 bound_to 10752
  140.3475  134.2265  155.7683 H   0  0  0  0  0  0  0  0  0  0  0  0  # atno 11005 bound_to 11000
  146.3180  139.7996  142.8968 LP  0  0  0  0  0  0  0  0  0  0  0  0  # atno 17320 bound_to 7965
  145.3381  141.0281  143.3408 LP  0  0  0  0  0  0  0  0  0  0  0  0  # atno 17321 bound_to 7965
  139.7731  144.7470  151.0196 LP  0  0  0  0  0  0  0  0  0  0  0  0  # atno 17342 bound_to 10162
  140.7812  143.4623  151.0260 LP  0  0  0  0  0  0  0  0  0  0  0  0  # atno 17343 bound_to 10162
  156.5992  130.8539  151.3427 LP  0  0  0  0  0  0  0  0  0  0  0  0  # atno 17370 bound_to 10713
  157.7266  130.9632  150.1665 LP  0  0  0  0  0  0  0  0  0  0  0  0  # atno 17371 bound_to 10713
  141.2021  133.7945  157.0405 LP  0  0  0  0  0  0  0  0  0  0  0  0  # atno 17394 bound_to 11000
  140.0730  134.9691  157.1499 LP  0  0  0  0  0  0  0  0  0  0  0  0  # atno 17395 bound_to 11000

$$$$
