AV-unprocessed.smi:2587|AV-procd|sdf|10146|dock2
  -GOLD-   2272014153D 1   1.00000     0.00000
 Structure written by MMmdl.
 39 40  0  0  0  0  0  0  0  0  1 V2000
  145.3255  143.2522  154.4035 C   0  0  0  0  0  0  0  0  0  0  0  0
  146.2160  142.2505  154.3549 C   0  0  0  0  0  0  0  0  0  0  0  0
  147.6589  142.3673  154.8033 C   0  0  0  0  0  0  0  0  0  0  0  0
  148.4548  141.1890  154.4605 N   0  0  0  0  0  0  0  0  0  0  0  0
  148.0631  140.4062  153.2914 C   0  0  0  0  0  0  0  0  0  0  0  0
  147.3785  139.0859  153.6758 C   0  0  0  0  0  0  0  0  0  0  0  0
  146.9453  138.4238  152.5082 O   0  0  0  0  0  0  0  0  0  0  0  0
  149.6804  140.9378  155.1249 C   0  0  0  0  0  0  0  0  0  0  0  0
  150.1083  141.7006  156.2414 C   0  0  0  0  0  0  0  0  0  0  0  0
  151.3510  141.3683  156.8321 C   0  0  0  0  0  0  0  0  0  0  0  0
  151.8372  142.0865  157.9460 N   0  0  0  0  0  0  0  0  0  0  0  0
  151.2181  143.3747  158.2529 C   0  0  0  0  0  0  0  0  0  0  0  0
  152.0543  144.1364  159.2950 C   0  0  0  0  0  0  0  0  0  0  0  0
  152.2376  143.3245  160.4499 O   0  0  0  0  0  0  0  0  0  0  0  0
  152.9420  142.1249  160.1469 C   0  0  0  0  0  0  0  0  0  0  0  0
  152.1397  141.2907  159.1333 C   0  0  0  0  0  0  0  0  0  0  0  0
  152.0911  140.3460  156.3411 N   0  0  0  0  0  0  0  0  0  0  0  0
  151.6069  139.6874  155.2892 C   0  0  0  0  0  0  0  0  0  0  0  0
  150.4557  139.9276  154.6624 N   0  0  0  0  0  0  0  0  0  0  0  0
  145.5991  144.2293  154.7742 H   0  0  0  0  0  0  0  0  0  0  0  0
  144.3084  143.1061  154.0712 H   0  0  0  0  0  0  0  0  0  0  0  0
  145.9040  141.2863  153.9807 H   0  0  0  0  0  0  0  0  0  0  0  0
  148.1036  143.2510  154.3437 H   0  0  0  0  0  0  0  0  0  0  0  0
  147.6861  142.5467  155.8784 H   0  0  0  0  0  0  0  0  0  0  0  0
  147.4346  140.9966  152.6250 H   0  0  0  0  0  0  0  0  0  0  0  0
  148.9622  140.1867  152.7140 H   0  0  0  0  0  0  0  0  0  0  0  0
  148.0657  138.4361  154.2182 H   0  0  0  0  0  0  0  0  0  0  0  0
  146.5180  139.2619  154.3217 H   0  0  0  0  0  0  0  0  0  0  0  0
  147.6403  137.8587  152.2073 H   0  0  0  0  0  0  0  0  0  0  0  0
  149.5071  142.4952  156.6531 H   0  0  0  0  0  0  0  0  0  0  0  0
  151.1330  143.9788  157.3486 H   0  0  0  0  0  0  0  0  0  0  0  0
  150.2087  143.2096  158.6320 H   0  0  0  0  0  0  0  0  0  0  0  0
  153.0227  144.4235  158.8816 H   0  0  0  0  0  0  0  0  0  0  0  0
  151.5464  145.0565  159.5839 H   0  0  0  0  0  0  0  0  0  0  0  0
  153.9335  142.3612  159.7571 H   0  0  0  0  0  0  0  0  0  0  0  0
  153.0891  141.5581  161.0663 H   0  0  0  0  0  0  0  0  0  0  0  0
  151.2021  140.9603  159.5822 H   0  0  0  0  0  0  0  0  0  0  0  0
  152.7063  140.3938  158.8878 H   0  0  0  0  0  0  0  0  0  0  0  0
  152.2078  138.8762  154.9055 H   0  0  0  0  0  0  0  0  0  0  0  0
  1  2  2  0  0  0  0
  1 20  1  0  0  0  0
  1 21  1  0  0  0  0
  2  3  1  0  0  0  0
  2 22  1  0  0  0  0
  3  4  1  0  0  0  0
  3 23  1  0  0  0  0
  3 24  1  0  0  0  0
  4  5  1  0  0  0  0
  4  8  1  0  0  0  0
  5  6  1  0  0  0  0
  5 25  1  0  0  0  0
  5 26  1  0  0  0  0
  6  7  1  0  0  0  0
  6 27  1  0  0  0  0
  6 28  1  0  0  0  0
  7 29  1  0  0  0  0
  8 19  1  0  0  0  0
  8  9  2  0  0  0  0
  9 10  1  0  0  0  0
  9 30  1  0  0  0  0
 10 11  1  0  0  0  0
 10 17  2  0  0  0  0
 11 16  1  0  0  0  0
 11 12  1  0  0  0  0
 12 13  1  0  0  0  0
 12 31  1  0  0  0  0
 12 32  1  0  0  0  0
 13 14  1  0  0  0  0
 13 33  1  0  0  0  0
 13 34  1  0  0  0  0
 14 15  1  0  0  0  0
 15 16  1  0  0  0  0
 15 35  1  0  0  0  0
 15 36  1  0  0  0  0
 16 37  1  0  0  0  0
 16 38  1  0  0  0  0
 17 18  1  0  0  0  0
 18 19  2  0  0  0  0
 18 39  1  0  0  0  0
M  END
> <s_m_source_file>
AV-unprocessed.smi

> <i_m_source_file_index>
2587

> <i_lp_mmshare_version>
43012

> <i_f3d_flags>
0

> <s_epik_input>
W0NIMl09W0NIXVtDSDJdTihbQ0gyXVtDSDJdW09IXSljMVtjSF1jKG5bY0hdbjEpTjJbQ0gyXVtDSDJdT1tDSDJdW0NIMl0y

> <s_epik_cmdline>
J2VwaWtfcHl0aG9uJywgJy1waCcsICc3LjAnLCAnLXRuJywgJzgnLCAnLW1hJywgJzIwMCcsICctbWV0YWxfYmluZGluZycsICctaW1hZScsICc8aW5maWxlLm1hZT4nLCAnLW9tYWUnLCAnPG91dGZpbGUubWFlPic=

> <r_lp_tautomer_probability>
1

> <r_epik_Ionization_Penalty>
0.00218234

> <r_epik_Ionization_Penalty_Charging>
0

> <r_epik_Ionization_Penalty_Neutral>
0.00218234

> <r_epik_State_Penalty>
0.00992355

> <r_epik_Charging_Adjusted_Penalty>
0.00992355

> <i_epik_Tot_Q>
0

> <i_epik_Tot_abs_Q>
0

> <r_epik_Metal_State_Penalty>
0.00985368

> <b_epik_Metal_Only>
0

> <s_lp_Force_Field>
OPLS_2005

> <r_lp_Energy>
11.4622

> <b_lp_Chiralities_Consistent>
1

> <s_lp_Variant>
AV-unprocessed.smi:2587-1

> <Gold.Version>
5.8.1

> <Gold.Id.Protein>
6NUR|6NUR_protein|mol2

> <Gold.PLP.Fitness>
45.2271

> <Gold.PLP.PLP>
-39.8670

> <Gold.PLP.part.hbond>
-3.8617

> <Gold.PLP.part.metal>
0.0000

> <Gold.PLP.part.buried>
5.7371

> <Gold.PLP.part.nonpolar>
-40.2338

> <Gold.PLP.part.repulsive>
0.1506

> <Gold.PLP.ligand.clash>
0.0000

> <Gold.PLP.ligand.torsion>
0.8440

> <Gold.PLP.Chemscore.Hbond>
2.1513

> <Gold.PLP.Chemscore.CHOScore>
0.0000

> <Gold.PLP.Chemscore.Metal>
0.0000

> <Gold.Chemscore.Hbonds>
donor molecule, donor type, donor heavy atom, donor atom, acceptor molecule, acceptor atom, score
      L1  H     7    29       P1  7948  0.83
      P1  H  7989  7998       L1    19  0.05
      P1  H  7997  8008       L1    17  0.44

> <Gold.PLP.Chemscore.Internal.Correction>
0.5943

> <Gold.Rescore>
     Score         DG    S(hbond)    S(metal)    S(lipo)     H(rot)  DE(clash)    DE(int)     intcor
     11.09     -14.22       1.51        0.00      86.43       2.51       2.23       0.90       ----

> <Gold.Chemscore.Fitness>
11.0934

> <Gold.Chemscore.DG>
-14.2210

> <Gold.Chemscore.ZeroCoef>
-5.4800

> <Gold.Chemscore.Hbond>
1.5150

> <Gold.Chemscore.Metal>
0.0000

> <Gold.Chemscore.Lipo>
86.4315

> <Gold.Chemscore.Internal_Hbond>
0.0000

> <Gold.Chemscore.DEClash>
2.2299

> <Gold.Chemscore.DEInternal>
0.8976

> <Gold.Chemscore.Rot>
2.5123

> <Gold.Chemscore.Internal.Correction>
   9.000000E+99

> <Gold.Chemscore.Hbonds>
donor molecule, donor type, donor heavy atom, donor atom, acceptor molecule, acceptor atom, score
      L1  H     7    29       P1  7948  0.82
      P1  H  7997  8008       L1    17  0.33

> <Gold.Chemscore.Hbond.Weighted>
-5.0599

> <Gold.Chemscore.Metal.Weighted>
-0.0000

> <Gold.Chemscore.Lipo.Weighted>
-10.1125

> <Gold.Chemscore.Internal_Hbond.Weighted>
0.0000

> <Gold.Chemscore.DEClash.Weighted>
2.2299

> <Gold.Chemscore.DEInternal.Weighted>
0.8976

> <Gold.Chemscore.Rot.Weighted>
6.4315

> <Gold.Chemscore.Internal.Correction.Weighted>
   9.000000E+99

> <Gold.Protein.RotatedTorsions>
[ 6907 6896 6895 6894 ] final  -33.96 input  -60.11 | X-H torsion
[ 7974 7965 7964 7962 ] final -111.93 input  175.53 | X-H torsion
[ 8008 7997 7996 7995 ] final  -47.55 input   59.86 | X-H torsion
[ 10167 10162 10161 10158 ] final   69.92 input  -65.29 | X-H torsion
[ 10718 10713 10712 10709 ] final   62.79 input   66.30 | X-H torsion
[ 10763 10752 10751 10750 ] final  170.67 input  -60.55 | X-H torsion
[ 11005 11000 10999 10996 ] final -172.58 input  -57.11 | X-H torsion

> <Gold.Protein.ActiveResidues>
 VAL166  LYS551  ARG553  GLY616  TRP617  ASP618  TYR619  PRO620  LYS621  CYS622 
 ASP623  PHE694  ASN695  SER759  ASP760  ASP761  ALA762  ILE779  LEU786  VAL792 
 PHE793  MET794  SER795  GLU796  ALA797  LYS798  CYS799  TRP800  GLU811  SER814 

> <Gold.Protein.RotatedAtoms>
  151.0588  134.9723  159.8249 H   0  0  0  0  0  0  0  0  0  0  0  0  # atno 6907 bound_to 6896
  152.5392  134.2444  159.8884 H   0  0  0  0  0  0  0  0  0  0  0  0  # atno 6908 bound_to 6896
  151.2463  133.4330  159.2643 H   0  0  0  0  0  0  0  0  0  0  0  0  # atno 6909 bound_to 6896
  145.1501  140.8825  143.3651 H   0  0  0  0  0  0  0  0  0  0  0  0  # atno 7974 bound_to 7965
  154.4018  140.1343  156.4194 H   0  0  0  0  0  0  0  0  0  0  0  0  # atno 8008 bound_to 7997
  155.7657  140.3485  155.5201 H   0  0  0  0  0  0  0  0  0  0  0  0  # atno 8009 bound_to 7997
  155.8816  140.0988  157.1472 H   0  0  0  0  0  0  0  0  0  0  0  0  # atno 8010 bound_to 7997
  140.0626  144.5220  150.7283 H   0  0  0  0  0  0  0  0  0  0  0  0  # atno 10167 bound_to 10162
  157.5925  130.9069  149.9632 H   0  0  0  0  0  0  0  0  0  0  0  0  # atno 10718 bound_to 10713
  154.4010  135.2755  155.2097 H   0  0  0  0  0  0  0  0  0  0  0  0  # atno 10763 bound_to 10752
  154.4122  135.6019  153.5963 H   0  0  0  0  0  0  0  0  0  0  0  0  # atno 10764 bound_to 10752
  152.9831  135.5952  154.4278 H   0  0  0  0  0  0  0  0  0  0  0  0  # atno 10765 bound_to 10752
  140.4954  134.5945  157.4969 H   0  0  0  0  0  0  0  0  0  0  0  0  # atno 11005 bound_to 11000
  145.0439  139.3237  143.5962 LP  0  0  0  0  0  0  0  0  0  0  0  0  # atno 17320 bound_to 7965
  146.3495  139.9823  142.8694 LP  0  0  0  0  0  0  0  0  0  0  0  0  # atno 17321 bound_to 7965
  140.7164  143.2549  151.4419 LP  0  0  0  0  0  0  0  0  0  0  0  0  # atno 17342 bound_to 10162
  139.5884  144.1552  152.2058 LP  0  0  0  0  0  0  0  0  0  0  0  0  # atno 17343 bound_to 10162
  156.0982  130.3657  150.0266 LP  0  0  0  0  0  0  0  0  0  0  0  0  # atno 17370 bound_to 10713
  156.8386  130.9417  151.3633 LP  0  0  0  0  0  0  0  0  0  0  0  0  # atno 17371 bound_to 10713
  139.9744  134.7239  155.9978 LP  0  0  0  0  0  0  0  0  0  0  0  0  # atno 17394 bound_to 11000
  141.1463  133.6555  156.3877 LP  0  0  0  0  0  0  0  0  0  0  0  0  # atno 17395 bound_to 11000

$$$$
