AV-unprocessed.smi:101|AV-procd|sdf|942|dock6
  -GOLD-   2262017463D 1   1.00000     0.00000
 Structure written by MMmdl.
 43 45  0  0  0  0  0  0  0  0  2 V2000
  143.6865  144.6931  155.7344 C   0  0  0  0  0  0  0  0  0  0  0  0
  144.7163  143.5980  155.9494 C   0  0  0  0  0  0  0  0  0  0  0  0
  145.6193  143.2613  155.0020 C   0  0  0  0  0  0  0  0  0  0  0  0
  146.5574  142.2640  155.2040 N   0  0  0  0  0  0  0  0  0  0  0  0
  147.5664  141.9184  154.1317 C   0  0  1  0  0  0  0  0  0  0  0  0
  148.8321  141.7997  154.7163 O   0  0  0  0  0  0  0  0  0  0  0  0
  149.4097  140.5389  154.3957 C   0  0  1  0  0  0  0  0  0  0  0  0
  150.3237  140.0936  155.5443 C   0  0  0  0  0  0  0  0  0  0  0  0
  150.6916  141.2198  156.3238 O   0  0  0  0  0  0  0  0  0  0  0  0
  151.7271  141.1395  157.1808 C   0  0  0  0  0  0  0  0  0  0  0  0
  152.4734  140.1615  157.2601 O   0  0  0  0  0  0  0  0  0  0  0  0
  151.8758  142.3596  158.0254 C   0  0  0  0  0  0  0  0  0  0  0  0
  151.2873  143.5734  157.5996 C   0  0  0  0  0  0  0  0  0  0  0  0
  151.4110  144.7418  158.3764 C   0  0  0  0  0  0  0  0  0  0  0  0
  152.1227  144.7102  159.5897 C   0  0  0  0  0  0  0  0  0  0  0  0
  152.7114  143.5086  160.0253 C   0  0  0  0  0  0  0  0  0  0  0  0
  152.5902  142.3394  159.2491 C   0  0  0  0  0  0  0  0  0  0  0  0
  148.2033  139.6311  154.1563 C   0  0  2  0  0  0  0  0  0  0  0  0
  148.4990  138.4931  153.3689 O   0  0  0  0  0  0  0  0  0  0  0  0
  147.2096  140.5705  153.4858 C   0  0  2  0  0  0  0  0  0  0  0  0
  147.3697  140.6309  152.0800 O   0  0  0  0  0  0  0  0  0  0  0  0
  146.6085  141.5906  156.4520 C   0  0  0  0  0  0  0  0  0  0  0  0
  147.4874  140.7442  156.6176 O   0  0  0  0  0  0  0  0  0  0  0  0
  145.6949  141.9162  157.4103 N   0  5  0  0  0  0  0  0  0  0  0  0
  144.7451  142.8785  157.2287 C   0  0  0  0  0  0  0  0  0  0  0  0
  143.9230  143.1586  158.1006 O   0  0  0  0  0  0  0  0  0  0  0  0
  143.7817  145.1378  154.7437 H   0  0  0  0  0  0  0  0  0  0  0  0
  143.8124  145.4844  156.4738 H   0  0  0  0  0  0  0  0  0  0  0  0
  142.6774  144.2909  155.8283 H   0  0  0  0  0  0  0  0  0  0  0  0
  145.6065  143.7959  154.0642 H   0  0  0  0  0  0  0  0  0  0  0  0
  147.5744  142.7614  153.4388 H   0  0  0  0  0  0  0  0  0  0  0  0
  149.9816  140.6637  153.4744 H   0  0  0  0  0  0  0  0  0  0  0  0
  149.7989  139.3789  156.1794 H   0  0  0  0  0  0  0  0  0  0  0  0
  151.2099  139.5930  155.1515 H   0  0  0  0  0  0  0  0  0  0  0  0
  150.7354  143.6221  156.6719 H   0  0  0  0  0  0  0  0  0  0  0  0
  150.9580  145.6630  158.0403 H   0  0  0  0  0  0  0  0  0  0  0  0
  152.2166  145.6061  160.1857 H   0  0  0  0  0  0  0  0  0  0  0  0
  153.2575  143.4828  160.9566 H   0  0  0  0  0  0  0  0  0  0  0  0
  153.0534  141.4339  159.6130 H   0  0  0  0  0  0  0  0  0  0  0  0
  147.7970  139.3043  155.1148 H   0  0  0  0  0  0  0  0  0  0  0  0
  148.6582  138.7823  152.4832 H   0  0  0  0  0  0  0  0  0  0  0  0
  146.1776  140.2881  153.6999 H   0  0  0  0  0  0  0  0  0  0  0  0
  148.1958  140.2271  151.8596 H   0  0  0  0  0  0  0  0  0  0  0  0
  1  2  1  0  0  0  0
  1 27  1  0  0  0  0
  1 28  1  0  0  0  0
  1 29  1  0  0  0  0
  2 25  1  0  0  0  0
  2  3  2  0  0  0  0
  3  4  1  0  0  0  0
  3 30  1  0  0  0  0
  4  5  1  0  0  0  0
  4 22  1  0  0  0  0
  5 20  1  0  0  0  0
  5  6  1  0  0  0  0
  5 31  1  0  0  0  0
  6  7  1  0  0  0  0
  7  8  1  0  0  0  0
  7 18  1  0  0  0  0
  7 32  1  0  0  0  0
  8  9  1  0  0  0  0
  8 33  1  0  0  0  0
  8 34  1  0  0  0  0
  9 10  1  0  0  0  0
 10 11  2  0  0  0  0
 10 12  1  0  0  0  0
 12 17  1  0  0  0  0
 12 13  2  0  0  0  0
 13 14  1  0  0  0  0
 13 35  1  0  0  0  0
 14 15  2  0  0  0  0
 14 36  1  0  0  0  0
 15 16  1  0  0  0  0
 15 37  1  0  0  0  0
 16 17  2  0  0  0  0
 16 38  1  0  0  0  0
 17 39  1  0  0  0  0
 18 19  1  0  0  0  0
 18 20  1  0  0  0  0
 18 40  1  0  0  0  0
 19 41  1  0  0  0  0
 20 21  1  0  0  0  0
 20 42  1  0  0  0  0
 21 43  1  0  0  0  0
 22 23  2  0  0  0  0
 22 24  1  0  0  0  0
 24 25  1  0  0  0  0
 25 26  2  0  0  0  0
M  CHG  1  24  -1
M  END
> <s_m_source_file>
AV-unprocessed.smi

> <i_m_source_file_index>
101

> <i_lp_mmshare_version>
43012

> <i_f3d_flags>
0

> <s_epik_input>
Tz1jMVtuSF1jKD1PKW4oW2NIXWMxW0NIM10pW0NAQEhdMk9bQ0BIXShbQ0BASF0oW09IXSlbQ0BIXTJbT0hdKVtDSDJdT0MoPU8pYzNbY0hdW2NIXVtjSF1bY0hdW2NIXTM=

> <s_epik_cmdline>
J2VwaWtfcHl0aG9uJywgJy1waCcsICc3LjAnLCAnLXRuJywgJzgnLCAnLW1hJywgJzIwMCcsICctbWV0YWxfYmluZGluZycsICctaW1hZScsICc8aW5maWxlLm1hZT4nLCAnLW9tYWUnLCAnPG91dGZpbGUubWFlPic=

> <r_lp_tautomer_probability>
0.999537

> <r_epik_Ionization_Penalty>
3.21006

> <r_epik_Ionization_Penalty_Charging>
5.75142e-08

> <r_epik_Ionization_Penalty_Neutral>
3.21006

> <r_epik_State_Penalty>
3.20925

> <r_epik_Charging_Adjusted_Penalty>
3.20925

> <i_epik_Tot_Q>
-1

> <i_epik_Tot_abs_Q>
1

> <r_epik_Metal_State_Penalty>
0.119957

> <b_epik_Metal_Only>
1

> <s_epik_Chemistry_Notes>
This compound has an ester and may undergo hydrolysis at high or low pH. This compound contains an acetal/aminal-like group ( X-CH(R)-Y where X, Y are N, S, or O) that may be acid/base labile, releasing an aldehyde.

> <s_lp_Force_Field>
OPLS_2005

> <r_lp_Energy>
44.5591

> <b_lp_Chiralities_Consistent>
1

> <s_lp_Variant>
AV-unprocessed.smi:101-30

> <Gold.Version>
5.8.1

> <Gold.Id.Protein>
6NUR|6NUR_protein|mol2

> <Gold.PLP.Fitness>
53.1279

> <Gold.PLP.PLP>
-46.5817

> <Gold.PLP.part.hbond>
-3.8909

> <Gold.PLP.part.metal>
0.0000

> <Gold.PLP.part.buried>
-4.8939

> <Gold.PLP.part.nonpolar>
-38.3023

> <Gold.PLP.part.repulsive>
0.7603

> <Gold.PLP.ligand.clash>
0.0000

> <Gold.PLP.ligand.torsion>
1.2406

> <Gold.PLP.Chemscore.Hbond>
2.9913

> <Gold.PLP.Chemscore.CHOScore>
0.0000

> <Gold.PLP.Chemscore.Metal>
0.0000

> <Gold.Chemscore.Hbonds>
donor molecule, donor type, donor heavy atom, donor atom, acceptor molecule, acceptor atom, score
      L1  H    19    41       P1  7957  0.98
      L1  H    21    43       P1  7957  1.00
      P1  H  7997  8010       L1    11  1.00

> <Gold.PLP.Chemscore.Internal.Correction>
0.0536

> <Gold.Rescore>
     Score         DG    S(hbond)    S(metal)    S(lipo)     H(rot)  DE(clash)    DE(int)     intcor
     12.39     -19.47       2.87        0.00     108.98       3.27       1.71       5.38       ----

> <Gold.Chemscore.Fitness>
12.3876

> <Gold.Chemscore.DG>
-19.4720

> <Gold.Chemscore.ZeroCoef>
-5.4800

> <Gold.Chemscore.Hbond>
2.8747

> <Gold.Chemscore.Metal>
0.0000

> <Gold.Chemscore.Lipo>
108.9755

> <Gold.Chemscore.Internal_Hbond>
0.0000

> <Gold.Chemscore.DEClash>
1.7091

> <Gold.Chemscore.DEInternal>
5.3753

> <Gold.Chemscore.Rot>
3.2656

> <Gold.Chemscore.Internal.Correction>
   9.000000E+99

> <Gold.Chemscore.Hbonds>
donor molecule, donor type, donor heavy atom, donor atom, acceptor molecule, acceptor atom, score
      L1  H    19    41       P1  7957  0.85
      L1  H    21    43       P1  7957  0.95
      P1  H  7997  8010       L1    11  0.93

> <Gold.Chemscore.Hbond.Weighted>
-9.6017

> <Gold.Chemscore.Metal.Weighted>
-0.0000

> <Gold.Chemscore.Lipo.Weighted>
-12.7501

> <Gold.Chemscore.Internal_Hbond.Weighted>
0.0000

> <Gold.Chemscore.DEClash.Weighted>
1.7091

> <Gold.Chemscore.DEInternal.Weighted>
5.3753

> <Gold.Chemscore.Rot.Weighted>
8.3598

> <Gold.Chemscore.Internal.Correction.Weighted>
   9.000000E+99

> <Gold.Protein.RotatedTorsions>
[ 6907 6896 6895 6894 ] final   97.10 input  -60.11 | X-H torsion
[ 7974 7965 7964 7962 ] final  121.46 input  175.53 | X-H torsion
[ 8008 7997 7996 7995 ] final   60.94 input   59.86 | X-H torsion
[ 10167 10162 10161 10158 ] final  -86.74 input  -65.29 | X-H torsion
[ 10718 10713 10712 10709 ] final  109.58 input   66.30 | X-H torsion
[ 10763 10752 10751 10750 ] final  -80.72 input  -60.55 | X-H torsion
[ 11005 11000 10999 10996 ] final  133.83 input  -57.11 | X-H torsion

> <Gold.Protein.ActiveResidues>
 VAL166  LYS551  ARG553  GLY616  TRP617  ASP618  TYR619  PRO620  LYS621  CYS622 
 ASP623  PHE694  ASN695  SER759  ASP760  ASP761  ALA762  ILE779  LEU786  VAL792 
 PHE793  MET794  SER795  GLU796  ALA797  LYS798  CYS799  TRP800  GLU811  SER814 

> <Gold.Protein.RotatedAtoms>
  152.5427  134.0785  159.8224 H   0  0  0  0  0  0  0  0  0  0  0  0  # atno 6907 bound_to 6896
  151.0890  133.5323  159.2623 H   0  0  0  0  0  0  0  0  0  0  0  0  # atno 6908 bound_to 6896
  151.2121  135.0494  159.8970 H   0  0  0  0  0  0  0  0  0  0  0  0  # atno 6909 bound_to 6896
  145.1190  139.3401  143.4724 H   0  0  0  0  0  0  0  0  0  0  0  0  # atno 7974 bound_to 7965
  155.5904  140.3492  155.4565 H   0  0  0  0  0  0  0  0  0  0  0  0  # atno 8008 bound_to 7997
  156.0305  140.1273  157.0287 H   0  0  0  0  0  0  0  0  0  0  0  0  # atno 8009 bound_to 7997
  154.4350  140.1044  156.6079 H   0  0  0  0  0  0  0  0  0  0  0  0  # atno 8010 bound_to 7997
  140.3912  143.2704  151.9262 H   0  0  0  0  0  0  0  0  0  0  0  0  # atno 10167 bound_to 10162
  157.6534  131.0916  150.6475 H   0  0  0  0  0  0  0  0  0  0  0  0  # atno 10718 bound_to 10713
  154.5547  135.5651  153.6953 H   0  0  0  0  0  0  0  0  0  0  0  0  # atno 10763 bound_to 10752
  153.0000  135.6259  154.2327 H   0  0  0  0  0  0  0  0  0  0  0  0  # atno 10764 bound_to 10752
  154.2262  135.2867  155.2886 H   0  0  0  0  0  0  0  0  0  0  0  0  # atno 10765 bound_to 10752
  139.9876  134.9526  156.9781 H   0  0  0  0  0  0  0  0  0  0  0  0  # atno 11005 bound_to 11000
  146.3522  140.1141  142.8602 LP  0  0  0  0  0  0  0  0  0  0  0  0  # atno 17320 bound_to 7965
  145.0761  140.9189  143.4853 LP  0  0  0  0  0  0  0  0  0  0  0  0  # atno 17321 bound_to 7965
  139.4789  144.5726  151.8064 LP  0  0  0  0  0  0  0  0  0  0  0  0  # atno 17342 bound_to 10162
  140.4838  144.1411  150.5937 LP  0  0  0  0  0  0  0  0  0  0  0  0  # atno 17343 bound_to 10162
  156.6784  130.4560  149.5635 LP  0  0  0  0  0  0  0  0  0  0  0  0  # atno 17370 bound_to 10713
  156.1947  130.6582  151.1100 LP  0  0  0  0  0  0  0  0  0  0  0  0  # atno 17371 bound_to 10713
  140.4971  134.1135  155.7243 LP  0  0  0  0  0  0  0  0  0  0  0  0  # atno 17394 bound_to 11000
  141.1538  133.8920  157.2029 LP  0  0  0  0  0  0  0  0  0  0  0  0  # atno 17395 bound_to 11000

$$$$
