AV-unprocessed.smi:1919|AV-procd|sdf|7773|dock9
  -GOLD-   22720 9513D 1   1.00000     0.00000
 Structure written by MMmdl.
 36 38  0  0  0  0  0  0  0  0  1 V2000
  152.8812  139.4108  155.7263 O   0  0  0  0  0  0  0  0  0  0  0  0
  152.2277  139.1653  156.9525 C   0  0  0  0  0  0  0  0  0  0  0  0
  152.1852  140.3677  157.8464 C   0  0  0  0  0  0  0  0  0  0  0  0
  152.7034  140.3431  159.0751 N   0  0  0  0  0  0  0  0  0  0  0  0
  152.4804  141.6287  159.5265 C   0  0  0  0  0  0  0  0  0  0  0  0
  152.8032  142.2380  160.7603 C   0  0  0  0  0  0  0  0  0  0  0  0
  152.4802  143.5906  160.9947 C   0  0  0  0  0  0  0  0  0  0  0  0
  151.8316  144.3521  160.0011 C   0  0  0  0  0  0  0  0  0  0  0  0
  151.4993  143.7637  158.7659 C   0  0  0  0  0  0  0  0  0  0  0  0
  151.8207  142.4118  158.5379 C   0  0  0  0  0  0  0  0  0  0  0  0
  151.6327  141.5480  157.4631 N   0  0  0  0  0  0  0  0  0  0  0  0
  150.9880  141.8889  156.2004 C   0  0  0  0  0  0  0  0  0  0  0  0
  150.0330  140.7857  155.6995 C   0  0  2  0  0  0  0  0  0  0  0  0
  150.5852  140.1391  154.5696 O   0  0  0  0  0  0  0  0  0  0  0  0
  148.6451  141.3441  155.4276 C   0  0  0  0  0  0  0  0  0  0  0  0
  148.1674  141.4806  154.1053 C   0  0  0  0  0  0  0  0  0  0  0  0
  146.8846  142.0106  153.8653 C   0  0  0  0  0  0  0  0  0  0  0  0
  146.0737  142.4096  154.9451 C   0  0  0  0  0  0  0  0  0  0  0  0
  146.5470  142.2807  156.2649 C   0  0  0  0  0  0  0  0  0  0  0  0
  145.7701  142.6686  157.3035 F   0  0  0  0  0  0  0  0  0  0  0  0
  147.8293  141.7503  156.5053 C   0  0  0  0  0  0  0  0  0  0  0  0
  152.2525  139.3179  155.0273 H   0  0  0  0  0  0  0  0  0  0  0  0
  151.2088  138.8399  156.7390 H   0  0  0  0  0  0  0  0  0  0  0  0
  152.7135  138.3384  157.4702 H   0  0  0  0  0  0  0  0  0  0  0  0
  153.3021  141.6639  161.5270 H   0  0  0  0  0  0  0  0  0  0  0  0
  152.7334  144.0465  161.9406 H   0  0  0  0  0  0  0  0  0  0  0  0
  151.5896  145.3881  160.1876 H   0  0  0  0  0  0  0  0  0  0  0  0
  151.0041  144.3451  158.0026 H   0  0  0  0  0  0  0  0  0  0  0  0
  150.4335  142.8158  156.3523 H   0  0  0  0  0  0  0  0  0  0  0  0
  151.7402  142.1072  155.4434 H   0  0  0  0  0  0  0  0  0  0  0  0
  149.9389  140.0198  156.4698 H   0  0  0  0  0  0  0  0  0  0  0  0
  149.9611  139.5049  154.2516 H   0  0  0  0  0  0  0  0  0  0  0  0
  148.7847  141.1824  153.2703 H   0  0  0  0  0  0  0  0  0  0  0  0
  146.5234  142.1130  152.8525 H   0  0  0  0  0  0  0  0  0  0  0  0
  145.0902  142.8163  154.7609 H   0  0  0  0  0  0  0  0  0  0  0  0
  148.1855  141.6593  157.5210 H   0  0  0  0  0  0  0  0  0  0  0  0
  1  2  1  0  0  0  0
  1 22  1  0  0  0  0
  2  3  1  0  0  0  0
  2 23  1  0  0  0  0
  2 24  1  0  0  0  0
  3 11  1  0  0  0  0
  3  4  2  0  0  0  0
  4  5  1  0  0  0  0
  5 10  2  0  0  0  0
  5  6  1  0  0  0  0
  6  7  2  0  0  0  0
  6 25  1  0  0  0  0
  7  8  1  0  0  0  0
  7 26  1  0  0  0  0
  8  9  2  0  0  0  0
  8 27  1  0  0  0  0
  9 10  1  0  0  0  0
  9 28  1  0  0  0  0
 10 11  1  0  0  0  0
 11 12  1  0  0  0  0
 12 13  1  0  0  0  0
 12 29  1  0  0  0  0
 12 30  1  0  0  0  0
 13 14  1  0  0  0  0
 13 15  1  0  0  0  0
 13 31  1  0  0  0  0
 14 32  1  0  0  0  0
 15 21  1  0  0  0  0
 15 16  2  0  0  0  0
 16 17  1  0  0  0  0
 16 33  1  0  0  0  0
 17 18  2  0  0  0  0
 17 34  1  0  0  0  0
 18 19  1  0  0  0  0
 18 35  1  0  0  0  0
 19 20  1  0  0  0  0
 19 21  2  0  0  0  0
 21 36  1  0  0  0  0
M  END
> <s_m_source_file>
AV-unprocessed.smi

> <i_m_source_file_index>
1919

> <i_lp_mmshare_version>
43012

> <i_f3d_flags>
0

> <s_epik_input>
W2NIXTFbY0hdW2NIXVtjSF1jKGMxMiluKGMobjIpW0NIMl1bT0hdKVtDSDJdW0NASF0oW09IXSljM1tjSF1bY0hdW2NIXWMoRilbY0hdMw==

> <s_epik_cmdline>
J2VwaWtfcHl0aG9uJywgJy1waCcsICc3LjAnLCAnLXRuJywgJzgnLCAnLW1hJywgJzIwMCcsICctbWV0YWxfYmluZGluZycsICctaW1hZScsICc8aW5maWxlLm1hZT4nLCAnLW9tYWUnLCAnPG91dGZpbGUubWFlPic=

> <r_epik_Ionization_Penalty>
0.0634732

> <r_epik_Ionization_Penalty_Charging>
0

> <r_epik_Ionization_Penalty_Neutral>
0.0634732

> <r_epik_State_Penalty>
0.0551572

> <r_epik_Charging_Adjusted_Penalty>
0.0551572

> <i_epik_Tot_Q>
0

> <i_epik_Tot_abs_Q>
0

> <r_epik_Metal_State_Penalty>
5.78034e-05

> <b_epik_Metal_Only>
0

> <s_lp_Force_Field>
OPLS_2005

> <r_lp_Energy>
10.9146

> <b_lp_Chiralities_Consistent>
1

> <s_lp_Variant>
AV-unprocessed.smi:1919-1

> <Gold.Version>
5.8.1

> <Gold.Id.Protein>
6NUR|6NUR_protein|mol2

> <Gold.PLP.Fitness>
49.5856

> <Gold.PLP.PLP>
-46.0086

> <Gold.PLP.part.hbond>
-2.0000

> <Gold.PLP.part.metal>
0.0000

> <Gold.PLP.part.buried>
-7.7367

> <Gold.PLP.part.nonpolar>
-35.8025

> <Gold.PLP.part.repulsive>
0.0000

> <Gold.PLP.ligand.clash>
0.0000

> <Gold.PLP.ligand.torsion>
1.2317

> <Gold.PLP.Chemscore.Hbond>
2.0000

> <Gold.PLP.Chemscore.CHOScore>
0.0000

> <Gold.PLP.Chemscore.Metal>
0.0000

> <Gold.Chemscore.Hbonds>
donor molecule, donor type, donor heavy atom, donor atom, acceptor molecule, acceptor atom, score
      P1  H  7989  7998       L1    14  1.00
      P1  H  7997  8009       L1     1  1.00

> <Gold.PLP.Chemscore.Internal.Correction>
0.0404

> <Gold.Rescore>
     Score         DG    S(hbond)    S(metal)    S(lipo)     H(rot)  DE(clash)    DE(int)     intcor
     16.37     -18.33       1.92        0.00     115.26       2.75       0.00       1.96       ----

> <Gold.Chemscore.Fitness>
16.3746

> <Gold.Chemscore.DG>
-18.3335

> <Gold.Chemscore.ZeroCoef>
-5.4800

> <Gold.Chemscore.Hbond>
1.9187

> <Gold.Chemscore.Metal>
0.0000

> <Gold.Chemscore.Lipo>
115.2571

> <Gold.Chemscore.Internal_Hbond>
0.0000

> <Gold.Chemscore.DEClash>
0.0000

> <Gold.Chemscore.DEInternal>
1.9589

> <Gold.Chemscore.Rot>
2.7500

> <Gold.Chemscore.Internal.Correction>
   9.000000E+99

> <Gold.Chemscore.Hbonds>
donor molecule, donor type, donor heavy atom, donor atom, acceptor molecule, acceptor atom, score
      P1  H  7989  7998       L1    14  0.96
      P1  H  7997  8009       L1     1  0.40

> <Gold.Chemscore.Hbond.Weighted>
-6.4083

> <Gold.Chemscore.Metal.Weighted>
-0.0000

> <Gold.Chemscore.Lipo.Weighted>
-13.4851

> <Gold.Chemscore.Internal_Hbond.Weighted>
0.0000

> <Gold.Chemscore.DEClash.Weighted>
0.0000

> <Gold.Chemscore.DEInternal.Weighted>
1.9589

> <Gold.Chemscore.Rot.Weighted>
7.0399

> <Gold.Chemscore.Internal.Correction.Weighted>
   9.000000E+99

> <Gold.Protein.RotatedTorsions>
[ 6907 6896 6895 6894 ] final   31.20 input  -60.11 | X-H torsion
[ 7974 7965 7964 7962 ] final -151.20 input  175.53 | X-H torsion
[ 8008 7997 7996 7995 ] final -155.84 input   59.86 | X-H torsion
[ 10167 10162 10161 10158 ] final -177.25 input  -65.29 | X-H torsion
[ 10718 10713 10712 10709 ] final -134.69 input   66.30 | X-H torsion
[ 10763 10752 10751 10750 ] final -147.78 input  -60.55 | X-H torsion
[ 11005 11000 10999 10996 ] final   22.83 input  -57.11 | X-H torsion

> <Gold.Protein.ActiveResidues>
 VAL166  LYS551  ARG553  GLY616  TRP617  ASP618  TYR619  PRO620  LYS621  CYS622 
 ASP623  PHE694  ASN695  SER759  ASP760  ASP761  ALA762  ILE779  LEU786  VAL792 
 PHE793  MET794  SER795  GLU796  ALA797  LYS798  CYS799  TRP800  GLU811  SER814 

> <Gold.Protein.RotatedAtoms>
  152.0569  134.9619  160.0574 H   0  0  0  0  0  0  0  0  0  0  0  0  # atno 6907 bound_to 6896
  152.0998  133.4239  159.4590 H   0  0  0  0  0  0  0  0  0  0  0  0  # atno 6908 bound_to 6896
  150.6839  134.2693  159.4625 H   0  0  0  0  0  0  0  0  0  0  0  0  # atno 6909 bound_to 6896
  144.7863  140.4830  143.5803 H   0  0  0  0  0  0  0  0  0  0  0  0  # atno 7974 bound_to 7965
  155.7080  140.0775  157.2383 H   0  0  0  0  0  0  0  0  0  0  0  0  # atno 8008 bound_to 7997
  154.4063  140.1635  156.2318 H   0  0  0  0  0  0  0  0  0  0  0  0  # atno 8009 bound_to 7997
  155.9308  140.3391  155.6250 H   0  0  0  0  0  0  0  0  0  0  0  0  # atno 8010 bound_to 7997
  139.5489  144.2161  152.1041 H   0  0  0  0  0  0  0  0  0  0  0  0  # atno 10167 bound_to 10162
  156.2581  130.7193  151.1118 H   0  0  0  0  0  0  0  0  0  0  0  0  # atno 10718 bound_to 10713
  154.8268  135.3351  154.6872 H   0  0  0  0  0  0  0  0  0  0  0  0  # atno 10763 bound_to 10752
  153.7497  135.6940  153.4953 H   0  0  0  0  0  0  0  0  0  0  0  0  # atno 10764 bound_to 10752
  153.2185  135.4457  155.0412 H   0  0  0  0  0  0  0  0  0  0  0  0  # atno 10765 bound_to 10752
  140.3763  134.1968  155.7665 H   0  0  0  0  0  0  0  0  0  0  0  0  # atno 11005 bound_to 11000
  145.5912  139.1496  143.3181 LP  0  0  0  0  0  0  0  0  0  0  0  0  # atno 17320 bound_to 7965
  146.2097  140.6038  142.9065 LP  0  0  0  0  0  0  0  0  0  0  0  0  # atno 17321 bound_to 7965
  140.1653  144.4987  150.6610 LP  0  0  0  0  0  0  0  0  0  0  0  0  # atno 17342 bound_to 10162
  140.6746  143.2300  151.5539 LP  0  0  0  0  0  0  0  0  0  0  0  0  # atno 17343 bound_to 10162
  157.7240  131.0662  150.6012 LP  0  0  0  0  0  0  0  0  0  0  0  0  # atno 17370 bound_to 10713
  156.6097  130.4377  149.5864 LP  0  0  0  0  0  0  0  0  0  0  0  0  # atno 17371 bound_to 10713
  141.1938  133.8142  157.0783 LP  0  0  0  0  0  0  0  0  0  0  0  0  # atno 17394 bound_to 11000
  140.0513  134.9804  157.1141 LP  0  0  0  0  0  0  0  0  0  0  0  0  # atno 17395 bound_to 11000

$$$$
