AV-unprocessed.smi:44|AV-procd|sdf|401|dock9
  -GOLD-   2262016253D 1   1.00000     0.00000
 Structure written by MMmdl.
 29 31  0  0  0  0  0  0  0  0  3 V2000
  149.3777  141.6807  155.0818 O   0  0  0  0  0  0  0  0  0  0  0  0
  150.3211  141.2389  155.7344 C   0  0  0  0  0  0  0  0  0  0  0  0
  150.9825  140.0495  155.5622 N   0  5  0  0  0  0  0  0  0  0  0  0
  152.0418  139.6768  156.3819 C   0  0  0  0  0  0  0  0  0  0  0  0
  152.5382  140.3381  157.3662 N   0  0  0  0  0  0  0  0  0  0  0  0
  151.9263  141.5743  157.6244 C   0  0  0  0  0  0  0  0  0  0  0  0
  150.8718  142.0430  156.8755 C   0  0  0  0  0  0  0  0  0  0  0  0
  150.4850  143.2699  157.3433 N   0  3  0  0  0  0  0  0  0  0  0  0
  151.3237  143.4910  158.3556 C   0  0  0  0  0  0  0  0  0  0  0  0
  152.2305  142.4984  158.5946 N   0  0  0  0  0  0  0  0  0  0  0  0
  153.2866  142.5056  159.6487 C   0  0  1  0  0  0  0  0  0  0  0  0
  152.6653  142.5832  161.0485 C   0  0  0  0  0  0  0  0  0  0  0  0
  153.6243  141.7262  161.8444 C   0  0  0  0  0  0  0  0  0  0  0  0
  153.9433  140.6355  160.8203 C   0  0  2  0  0  0  0  0  0  0  0  0
  155.2112  139.7991  161.0628 C   0  0  0  0  0  0  0  0  0  0  0  0
  156.3787  140.5937  161.0379 O   0  0  0  0  0  0  0  0  0  0  0  0
  153.9979  141.3057  159.5648 O   0  0  0  0  0  0  0  0  0  0  0  0
  149.7446  143.8681  156.9996 H   0  0  0  0  0  0  0  0  0  0  0  0
  153.9386  143.3478  159.4132 H   0  0  0  0  0  0  0  0  0  0  0  0
  153.0933  139.9536  160.7686 H   0  0  0  0  0  0  0  0  0  0  0  0
  152.4507  138.7026  156.1023 H   0  0  0  0  0  0  0  0  0  0  0  0
  151.2931  144.3895  158.9454 H   0  0  0  0  0  0  0  0  0  0  0  0
  152.5994  143.6143  161.3962 H   0  0  0  0  0  0  0  0  0  0  0  0
  151.6685  142.1398  161.0508 H   0  0  0  0  0  0  0  0  0  0  0  0
  154.5088  142.3085  162.1042 H   0  0  0  0  0  0  0  0  0  0  0  0
  153.1872  141.3339  162.7630 H   0  0  0  0  0  0  0  0  0  0  0  0
  155.1540  139.3201  162.0407 H   0  0  0  0  0  0  0  0  0  0  0  0
  155.2930  139.0036  160.3217 H   0  0  0  0  0  0  0  0  0  0  0  0
  156.9897  140.2480  161.6706 H   0  0  0  0  0  0  0  0  0  0  0  0
  1  2  2  0  0  0  0
  2  7  1  0  0  0  0
  2  3  1  0  0  0  0
  3  4  1  0  0  0  0
  4 21  1  0  0  0  0
  4  5  2  0  0  0  0
  5  6  1  0  0  0  0
  6 10  1  0  0  0  0
  6  7  2  0  0  0  0
  7  8  1  0  0  0  0
  8  9  2  0  0  0  0
  8 18  1  0  0  0  0
  9 10  1  0  0  0  0
  9 22  1  0  0  0  0
 10 11  1  0  0  0  0
 11 19  1  0  0  0  0
 11 17  1  0  0  0  0
 11 12  1  0  0  0  0
 12 13  1  0  0  0  0
 12 23  1  0  0  0  0
 12 24  1  0  0  0  0
 13 14  1  0  0  0  0
 13 25  1  0  0  0  0
 13 26  1  0  0  0  0
 14 20  1  0  0  0  0
 14 15  1  0  0  0  0
 14 17  1  0  0  0  0
 15 16  1  0  0  0  0
 15 27  1  0  0  0  0
 15 28  1  0  0  0  0
 16 29  1  0  0  0  0
M  CHG  1   3  -1
M  CHG  1   8   1
M  END
> <s_m_source_file>
AV-unprocessed.smi

> <i_m_source_file_index>
44

> <i_lp_mmshare_version>
43012

> <i_f3d_flags>
0

> <s_epik_input>
bjFbY0hdW25IXWMoPU8pYyhjMTIpbltjSF1uMltDQEhdM1tDSDJdW0NIMl1bQ0BIXShPMylbQ0gyXVtPSF0=

> <s_epik_cmdline>
J2VwaWtfcHl0aG9uJywgJy1waCcsICc3LjAnLCAnLXRuJywgJzgnLCAnLW1hJywgJzIwMCcsICctbWV0YWxfYmluZGluZycsICctaW1hZScsICc8aW5maWxlLm1hZT4nLCAnLW9tYWUnLCAnPG91dGZpbGUubWFlPic=

> <r_lp_tautomer_probability>
0.144281

> <r_epik_Ionization_Penalty>
5.63685

> <r_epik_Ionization_Penalty_Charging>
5.58669

> <r_epik_Ionization_Penalty_Neutral>
0.0501585

> <r_epik_State_Penalty>
1.20809

> <r_epik_Charging_Adjusted_Penalty>
6.79478

> <i_epik_Tot_Q>
0

> <i_epik_Tot_abs_Q>
2

> <r_epik_Metal_State_Penalty>
1.52487

> <b_epik_Metal_Only>
0

> <s_epik_Chemistry_Notes>
This compound contains an acetal/aminal-like group ( X-CH(R)-Y where X, Y are N, S, or O) that may be acid/base labile, releasing an aldehyde.

> <s_lp_Force_Field>
OPLS_2005

> <r_lp_Energy>
46.8975

> <b_lp_Chiralities_Consistent>
1

> <s_lp_Variant>
AV-unprocessed.smi:44-7

> <Gold.Version>
5.8.1

> <Gold.Id.Protein>
6NUR|6NUR_protein|mol2

> <Gold.PLP.Fitness>
43.2776

> <Gold.PLP.PLP>
-34.4601

> <Gold.PLP.part.hbond>
-3.2771

> <Gold.PLP.part.metal>
0.0000

> <Gold.PLP.part.buried>
-3.9526

> <Gold.PLP.part.nonpolar>
-26.1046

> <Gold.PLP.part.repulsive>
0.3197

> <Gold.PLP.ligand.clash>
0.0000

> <Gold.PLP.ligand.torsion>
0.0055

> <Gold.PLP.Chemscore.Hbond>
2.9402

> <Gold.PLP.Chemscore.CHOScore>
0.0000

> <Gold.PLP.Chemscore.Metal>
0.0000

> <Gold.Chemscore.Hbonds>
donor molecule, donor type, donor heavy atom, donor atom, acceptor molecule, acceptor atom, score
      L1  H     8    18       P1  8028  2.00
      P1  H  7989  7998       L1     3  0.09
      P1  H  7997  8009       L1     5  0.68

> <Gold.PLP.Chemscore.Internal.Correction>
0.0077

> <Gold.Rescore>
     Score         DG    S(hbond)    S(metal)    S(lipo)     H(rot)  DE(clash)    DE(int)     intcor
      8.22      -9.64       1.52        0.00      41.93       2.27       0.03       1.39       ----

> <Gold.Chemscore.Fitness>
8.2225

> <Gold.Chemscore.DG>
-9.6385

> <Gold.Chemscore.ZeroCoef>
-5.4800

> <Gold.Chemscore.Hbond>
1.5178

> <Gold.Chemscore.Metal>
0.0000

> <Gold.Chemscore.Lipo>
41.9280

> <Gold.Chemscore.Internal_Hbond>
0.0000

> <Gold.Chemscore.DEClash>
0.0300

> <Gold.Chemscore.DEInternal>
1.3860

> <Gold.Chemscore.Rot>
2.2720

> <Gold.Chemscore.Internal.Correction>
   9.000000E+99

> <Gold.Chemscore.Hbonds>
donor molecule, donor type, donor heavy atom, donor atom, acceptor molecule, acceptor atom, score
      L1  H     8    18       P1  8028  0.87
      P1  H  7997  8009       L1     5  0.08

> <Gold.Chemscore.Hbond.Weighted>
-5.0694

> <Gold.Chemscore.Metal.Weighted>
-0.0000

> <Gold.Chemscore.Lipo.Weighted>
-4.9056

> <Gold.Chemscore.Internal_Hbond.Weighted>
0.0000

> <Gold.Chemscore.DEClash.Weighted>
0.0300

> <Gold.Chemscore.DEInternal.Weighted>
1.3860

> <Gold.Chemscore.Rot.Weighted>
5.8164

> <Gold.Chemscore.Internal.Correction.Weighted>
   9.000000E+99

> <Gold.Protein.RotatedTorsions>
[ 6907 6896 6895 6894 ] final  -10.79 input  -60.11 | X-H torsion
[ 7974 7965 7964 7962 ] final   76.33 input  175.53 | X-H torsion
[ 8008 7997 7996 7995 ] final  168.54 input   59.86 | X-H torsion
[ 10167 10162 10161 10158 ] final  -19.62 input  -65.29 | X-H torsion
[ 10718 10713 10712 10709 ] final  135.29 input   66.30 | X-H torsion
[ 10763 10752 10751 10750 ] final -102.46 input  -60.55 | X-H torsion
[ 11005 11000 10999 10996 ] final   26.11 input  -57.11 | X-H torsion

> <Gold.Protein.ActiveResidues>
 VAL166  LYS551  ARG553  GLY616  TRP617  ASP618  TYR619  PRO620  LYS621  CYS622 
 ASP623  PHE694  ASN695  SER759  ASP760  ASP761  ALA762  ILE779  LEU786  VAL792 
 PHE793  MET794  SER795  GLU796  ALA797  LYS798  CYS799  TRP800  GLU811  SER814 

> <Gold.Protein.RotatedAtoms>
  151.3964  135.0964  159.9541 H   0  0  0  0  0  0  0  0  0  0  0  0  # atno 6907 bound_to 6896
  152.5064  133.8930  159.7414 H   0  0  0  0  0  0  0  0  0  0  0  0  # atno 6908 bound_to 6896
  150.9395  133.6617  159.2822 H   0  0  0  0  0  0  0  0  0  0  0  0  # atno 6909 bound_to 6896
  145.7042  139.2592  143.1688 H   0  0  0  0  0  0  0  0  0  0  0  0  # atno 7974 bound_to 7965
  156.1538  140.1588  156.8726 H   0  0  0  0  0  0  0  0  0  0  0  0  # atno 8008 bound_to 7997
  154.5096  140.0804  156.7999 H   0  0  0  0  0  0  0  0  0  0  0  0  # atno 8009 bound_to 7997
  155.3844  140.3407  155.4250 H   0  0  0  0  0  0  0  0  0  0  0  0  # atno 8010 bound_to 7997
  140.7270  143.4801  151.0129 H   0  0  0  0  0  0  0  0  0  0  0  0  # atno 10167 bound_to 10162
  157.4586  131.1071  150.9948 H   0  0  0  0  0  0  0  0  0  0  0  0  # atno 10718 bound_to 10713
  154.7735  135.4860  153.9697 H   0  0  0  0  0  0  0  0  0  0  0  0  # atno 10763 bound_to 10752
  153.1398  135.6770  153.9052 H   0  0  0  0  0  0  0  0  0  0  0  0  # atno 10764 bound_to 10752
  153.8730  135.3141  155.3421 H   0  0  0  0  0  0  0  0  0  0  0  0  # atno 10765 bound_to 10752
  140.3406  134.2337  155.7690 H   0  0  0  0  0  0  0  0  0  0  0  0  # atno 11005 bound_to 11000
  146.0771  140.7805  142.9660 LP  0  0  0  0  0  0  0  0  0  0  0  0  # atno 17320 bound_to 7965
  144.6960  140.3431  143.7195 LP  0  0  0  0  0  0  0  0  0  0  0  0  # atno 17321 bound_to 7965
  139.8499  143.7452  152.3178 LP  0  0  0  0  0  0  0  0  0  0  0  0  # atno 17342 bound_to 10162
  139.7630  144.7500  151.0335 LP  0  0  0  0  0  0  0  0  0  0  0  0  # atno 17343 bound_to 10162
  157.0753  130.5880  149.5410 LP  0  0  0  0  0  0  0  0  0  0  0  0  # atno 17370 bound_to 10713
  156.0018  130.5099  150.7691 LP  0  0  0  0  0  0  0  0  0  0  0  0  # atno 17371 bound_to 10713
  141.2039  133.7899  157.0313 LP  0  0  0  0  0  0  0  0  0  0  0  0  # atno 17394 bound_to 11000
  140.0784  134.9662  157.1584 LP  0  0  0  0  0  0  0  0  0  0  0  0  # atno 17395 bound_to 11000

$$$$
