AV-unprocessed.smi:507|AV-procd|sdf|2752|dock2
  -GOLD-   2262023223D 1   1.00000     0.00000
 Structure written by MMmdl.
 34 35  0  0  0  0  0  0  0  0  2 V2000
  153.1486  142.8896  161.3335 C   0  0  0  0  0  0  0  0  0  0  0  0
  152.4031  142.3853  160.1104 C   0  0  0  0  0  0  0  0  0  0  0  0
  152.4943  141.0179  159.7655 C   0  0  0  0  0  0  0  0  0  0  0  0
  151.8162  140.5092  158.6364 C   0  0  0  0  0  0  0  0  0  0  0  0
  151.7664  139.2258  158.1194 N   0  0  0  0  0  0  0  0  0  0  0  0
  150.9706  139.3911  157.0669 C   0  0  0  0  0  0  0  0  0  0  0  0
  150.4948  140.6315  156.8426 N   0  0  0  0  0  0  0  0  0  0  0  0
  149.6093  141.0548  155.7728 C   0  0  0  0  0  0  0  0  0  0  0  0
  149.6318  140.0834  154.5766 C   0  0  2  0  0  0  0  0  0  0  0  0
  149.8300  140.8155  153.3819 O   0  0  0  0  0  0  0  0  0  0  0  0
  148.3258  139.2810  154.4565 C   0  0  0  0  0  0  0  0  0  0  0  0
  148.1151  138.7968  153.0808 N   0  3  0  0  0  0  0  0  0  0  0  0
  151.0355  141.4126  157.8578 C   0  0  0  0  0  0  0  0  0  0  0  0
  150.9384  142.7757  158.1893 C   0  0  0  0  0  0  0  0  0  0  0  0
  151.6244  143.2678  159.3192 C   0  0  0  0  0  0  0  0  0  0  0  0
  151.5158  144.7415  159.6689 C   0  0  0  0  0  0  0  0  0  0  0  0
  153.6995  142.0864  161.8234 H   0  0  0  0  0  0  0  0  0  0  0  0
  152.4518  143.3082  162.0598 H   0  0  0  0  0  0  0  0  0  0  0  0
  153.8641  143.6628  161.0530 H   0  0  0  0  0  0  0  0  0  0  0  0
  153.0882  140.3456  160.3672 H   0  0  0  0  0  0  0  0  0  0  0  0
  150.7141  138.5611  156.4248 H   0  0  0  0  0  0  0  0  0  0  0  0
  148.6002  141.1283  156.1802 H   0  0  0  0  0  0  0  0  0  0  0  0
  149.8928  142.0604  155.4584 H   0  0  0  0  0  0  0  0  0  0  0  0
  150.4679  139.3926  154.6966 H   0  0  0  0  0  0  0  0  0  0  0  0
  149.6986  140.2376  152.6453 H   0  0  0  0  0  0  0  0  0  0  0  0
  148.3596  138.4109  155.1132 H   0  0  0  0  0  0  0  0  0  0  0  0
  147.4696  139.8814  154.7667 H   0  0  0  0  0  0  0  0  0  0  0  0
  148.5478  137.8912  152.9686 H   0  0  0  0  0  0  0  0  0  0  0  0
  148.5233  139.4497  152.4274 H   0  0  0  0  0  0  0  0  0  0  0  0
  150.3420  143.4368  157.5785 H   0  0  0  0  0  0  0  0  0  0  0  0
  150.8796  145.2731  158.9608 H   0  0  0  0  0  0  0  0  0  0  0  0
  152.4994  145.2114  159.6523 H   0  0  0  0  0  0  0  0  0  0  0  0
  151.0876  144.8679  160.6634 H   0  0  0  0  0  0  0  0  0  0  0  0
  147.1237  138.7217  152.9023 H   0  0  0  0  0  0  0  0  0  0  0  0
  1  2  1  0  0  0  0
  1 17  1  0  0  0  0
  1 18  1  0  0  0  0
  1 19  1  0  0  0  0
  2 15  1  0  0  0  0
  2  3  2  0  0  0  0
  3  4  1  0  0  0  0
  3 20  1  0  0  0  0
  4 13  2  0  0  0  0
  4  5  1  0  0  0  0
  5  6  2  0  0  0  0
  6  7  1  0  0  0  0
  6 21  1  0  0  0  0
  7  8  1  0  0  0  0
  7 13  1  0  0  0  0
  8  9  1  0  0  0  0
  8 22  1  0  0  0  0
  8 23  1  0  0  0  0
  9 10  1  0  0  0  0
  9 11  1  0  0  0  0
  9 24  1  0  0  0  0
 10 25  1  0  0  0  0
 11 12  1  0  0  0  0
 11 26  1  0  0  0  0
 11 27  1  0  0  0  0
 12 28  1  0  0  0  0
 12 29  1  0  0  0  0
 12 34  1  0  0  0  0
 13 14  1  0  0  0  0
 14 15  2  0  0  0  0
 14 30  1  0  0  0  0
 15 16  1  0  0  0  0
 16 31  1  0  0  0  0
 16 32  1  0  0  0  0
 16 33  1  0  0  0  0
M  CHG  1  12   1
M  END
> <s_m_source_file>
AV-unprocessed.smi

> <i_m_source_file_index>
507

> <i_lp_mmshare_version>
43012

> <i_f3d_flags>
0

> <s_epik_input>
W0NIM11jKFtjSF0xKWMoW0NIM10pW2NIXWMoYzEyKW4oW2NIXW4yKVtDSDJdW0NASF0oW09IXSlbQ0gyXVtOSDJd

> <s_epik_cmdline>
J2VwaWtfcHl0aG9uJywgJy1waCcsICc3LjAnLCAnLXRuJywgJzgnLCAnLW1hJywgJzIwMCcsICctbWV0YWxfYmluZGluZycsICctaW1hZScsICc8aW5maWxlLm1hZT4nLCAnLW9tYWUnLCAnPG91dGZpbGUubWFlPic=

> <r_epik_Ionization_Penalty>
0.102893

> <r_epik_Ionization_Penalty_Charging>
0.0134096

> <r_epik_Ionization_Penalty_Neutral>
0.0894835

> <r_epik_State_Penalty>
0.093868

> <r_epik_Charging_Adjusted_Penalty>
0.107278

> <i_epik_Tot_Q>
1

> <i_epik_Tot_abs_Q>
1

> <r_epik_Metal_State_Penalty>
0.010477

> <b_epik_Metal_Only>
0

> <s_lp_Force_Field>
OPLS_2005

> <r_lp_Energy>
7.44215

> <b_lp_Chiralities_Consistent>
1

> <s_lp_Variant>
AV-unprocessed.smi:507-1

> <Gold.Version>
5.8.1

> <Gold.Id.Protein>
6NUR|6NUR_protein|mol2

> <Gold.PLP.Fitness>
46.6498

> <Gold.PLP.PLP>
-34.4115

> <Gold.PLP.part.hbond>
-4.0000

> <Gold.PLP.part.metal>
0.0000

> <Gold.PLP.part.buried>
-4.3877

> <Gold.PLP.part.nonpolar>
-25.6174

> <Gold.PLP.part.repulsive>
0.0502

> <Gold.PLP.ligand.clash>
0.0000

> <Gold.PLP.ligand.torsion>
1.2513

> <Gold.PLP.Chemscore.Hbond>
4.9133

> <Gold.PLP.Chemscore.CHOScore>
0.0000

> <Gold.PLP.Chemscore.Metal>
0.0000

> <Gold.Chemscore.Hbonds>
donor molecule, donor type, donor heavy atom, donor atom, acceptor molecule, acceptor atom, score
      L1  H    10    25       P1  7957  0.90
      L1  H    12    28       P1  7948  2.00
      L1  H    12    29       P1  7957  1.00
      P1  H  7989  7998       L1    10  0.26
      P1  H  8011  8017       L1    10  0.70

> <Gold.PLP.Chemscore.Internal.Correction>
0.0010

> <Gold.Rescore>
     Score         DG    S(hbond)    S(metal)    S(lipo)     H(rot)  DE(clash)    DE(int)     intcor
     18.25     -19.75       2.83        0.00      90.81       2.27       0.22       1.27       ----

> <Gold.Chemscore.Fitness>
18.2476

> <Gold.Chemscore.DG>
-19.7459

> <Gold.Chemscore.ZeroCoef>
-5.4800

> <Gold.Chemscore.Hbond>
2.8314

> <Gold.Chemscore.Metal>
0.0000

> <Gold.Chemscore.Lipo>
90.8110

> <Gold.Chemscore.Internal_Hbond>
0.0000

> <Gold.Chemscore.DEClash>
0.2242

> <Gold.Chemscore.DEInternal>
1.2741

> <Gold.Chemscore.Rot>
2.2718

> <Gold.Chemscore.Internal.Correction>
   9.000000E+99

> <Gold.Chemscore.Hbonds>
donor molecule, donor type, donor heavy atom, donor atom, acceptor molecule, acceptor atom, score
      L1  H    10    25       P1  7957  0.83
      L1  H    12    28       P1  7948  0.90
      L1  H    12    29       P1  7957  0.99
      P1  H  7989  7998       L1    10  0.02
      P1  H  8011  8017       L1    10  0.07

> <Gold.Chemscore.Hbond.Weighted>
-9.4570

> <Gold.Chemscore.Metal.Weighted>
-0.0000

> <Gold.Chemscore.Lipo.Weighted>
-10.6249

> <Gold.Chemscore.Internal_Hbond.Weighted>
0.0000

> <Gold.Chemscore.DEClash.Weighted>
0.2242

> <Gold.Chemscore.DEInternal.Weighted>
1.2741

> <Gold.Chemscore.Rot.Weighted>
5.8159

> <Gold.Chemscore.Internal.Correction.Weighted>
   9.000000E+99

> <Gold.Protein.RotatedTorsions>
[ 6907 6896 6895 6894 ] final -117.17 input  -60.11 | X-H torsion
[ 7974 7965 7964 7962 ] final  -16.13 input  175.53 | X-H torsion
[ 8008 7997 7996 7995 ] final -147.57 input   59.86 | X-H torsion
[ 10167 10162 10161 10158 ] final  -43.82 input  -65.29 | X-H torsion
[ 10718 10713 10712 10709 ] final  149.89 input   66.30 | X-H torsion
[ 10763 10752 10751 10750 ] final  137.94 input  -60.55 | X-H torsion
[ 11005 11000 10999 10996 ] final -123.13 input  -57.11 | X-H torsion

> <Gold.Protein.ActiveResidues>
 VAL166  LYS551  ARG553  GLY616  TRP617  ASP618  TYR619  PRO620  LYS621  CYS622 
 ASP623  PHE694  ASN695  SER759  ASP760  ASP761  ALA762  ILE779  LEU786  VAL792 
 PHE793  MET794  SER795  GLU796  ALA797  LYS798  CYS799  TRP800  GLU811  SER814 

> <Gold.Protein.RotatedAtoms>
  150.8115  133.8413  159.3179 H   0  0  0  0  0  0  0  0  0  0  0  0  # atno 6907 bound_to 6896
  151.6197  135.1031  160.0108 H   0  0  0  0  0  0  0  0  0  0  0  0  # atno 6908 bound_to 6896
  152.4207  133.7071  159.6514 H   0  0  0  0  0  0  0  0  0  0  0  0  # atno 6909 bound_to 6896
  146.2001  140.3592  142.8426 H   0  0  0  0  0  0  0  0  0  0  0  0  # atno 7974 bound_to 7965
  155.5776  140.0640  157.2791 H   0  0  0  0  0  0  0  0  0  0  0  0  # atno 8008 bound_to 7997
  154.4342  140.1858  156.0990 H   0  0  0  0  0  0  0  0  0  0  0  0  # atno 8009 bound_to 7997
  156.0329  140.3304  155.7163 H   0  0  0  0  0  0  0  0  0  0  0  0  # atno 8010 bound_to 7997
  140.6920  143.2962  151.3407 H   0  0  0  0  0  0  0  0  0  0  0  0  # atno 10167 bound_to 10162
  157.2904  131.0852  151.1466 H   0  0  0  0  0  0  0  0  0  0  0  0  # atno 10718 bound_to 10713
  153.8813  135.3044  155.3445 H   0  0  0  0  0  0  0  0  0  0  0  0  # atno 10763 bound_to 10752
  154.7760  135.4861  153.9748 H   0  0  0  0  0  0  0  0  0  0  0  0  # atno 10764 bound_to 10752
  153.1350  135.6812  153.9215 H   0  0  0  0  0  0  0  0  0  0  0  0  # atno 10765 bound_to 10752
  140.9942  134.0495  157.3617 H   0  0  0  0  0  0  0  0  0  0  0  0  # atno 11005 bound_to 11000
  144.8665  140.7213  143.6074 LP  0  0  0  0  0  0  0  0  0  0  0  0  # atno 17320 bound_to 7965
  145.3512  139.1706  143.4433 LP  0  0  0  0  0  0  0  0  0  0  0  0  # atno 17321 bound_to 7965
  139.6332  144.0680  152.2494 LP  0  0  0  0  0  0  0  0  0  0  0  0  # atno 17342 bound_to 10162
  140.0162  144.6187  150.7605 LP  0  0  0  0  0  0  0  0  0  0  0  0  # atno 17343 bound_to 10162
  157.2864  130.6775  149.6092 LP  0  0  0  0  0  0  0  0  0  0  0  0  # atno 17370 bound_to 10713
  155.9667  130.4434  150.5419 LP  0  0  0  0  0  0  0  0  0  0  0  0  # atno 17371 bound_to 10713
  139.9007  135.0163  156.7253 LP  0  0  0  0  0  0  0  0  0  0  0  0  # atno 17394 bound_to 11000
  140.6991  133.9322  155.8013 LP  0  0  0  0  0  0  0  0  0  0  0  0  # atno 17395 bound_to 11000

$$$$
