AV-unprocessed.smi:671|AV-procd|sdf|3286|dock2
  -GOLD-   22720 0243D 1   1.00000     0.00000
 Structure written by MMmdl.
 50 51  0  0  0  0  0  0  0  0  2 V2000
  147.5619  141.9307  153.9816 C   0  0  0  0  0  0  0  0  0  0  0  0
  148.7478  141.4785  154.7659 C   0  0  0  0  0  0  0  0  0  0  0  0
  149.4343  142.2664  155.6361 N   0  3  0  0  0  0  0  0  0  0  0  0
  150.4456  141.5790  156.1848 N   0  0  0  0  0  0  0  0  0  0  0  0
  151.3169  142.2422  157.1549 C   0  0  0  0  0  0  0  0  0  0  0  0
  150.4707  140.3073  155.6957 C   0  0  0  0  0  0  0  0  0  0  0  0
  151.4719  139.2707  156.0883 C   0  0  0  0  0  0  0  0  0  0  0  0
  149.4011  140.2398  154.7943 C   0  0  0  0  0  0  0  0  0  0  0  0
  149.0211  139.0311  153.9816 C   0  0  0  0  0  0  0  0  0  0  0  0
  147.7974  138.2787  154.5434 C   0  0  1  0  0  0  0  0  0  0  0  0
  146.5514  139.1728  154.5945 C   0  0  0  0  0  0  0  0  0  0  0  0
  147.5129  137.0930  153.7276 N   0  0  0  0  0  0  0  0  0  0  0  0
  146.4795  136.2350  153.8024 C   0  0  0  0  0  0  0  0  0  0  0  0
  145.6008  136.3620  154.6525 O   0  0  0  0  0  0  0  0  0  0  0  0
  146.5048  135.2373  152.9032 N   0  0  0  0  0  0  0  0  0  0  0  0
  145.5055  134.1764  152.7697 C   0  0  2  0  0  0  0  0  0  0  0  0
  146.1721  132.7959  152.9428 C   0  0  0  0  0  0  0  0  0  0  0  0
  145.9172  132.0178  151.6471 C   0  0  0  0  0  0  0  0  0  0  0  0
  145.6189  133.0836  150.5967 C   0  0  0  0  0  0  0  0  0  0  0  0
  144.8463  134.1529  151.3703 C   0  0  2  0  0  0  0  0  0  0  0  0
  144.7440  135.4958  150.6279 C   0  0  0  0  0  0  0  0  0  0  0  0
  147.8083  141.9820  152.9210 H   0  0  0  0  0  0  0  0  0  0  0  0
  147.2388  142.9191  154.3094 H   0  0  0  0  0  0  0  0  0  0  0  0
  146.7334  141.2350  154.1152 H   0  0  0  0  0  0  0  0  0  0  0  0
  152.3314  142.2760  156.7569 H   0  0  0  0  0  0  0  0  0  0  0  0
  151.3090  141.6748  158.0859 H   0  0  0  0  0  0  0  0  0  0  0  0
  150.9679  143.2580  157.3459 H   0  0  0  0  0  0  0  0  0  0  0  0
  151.5001  138.4627  155.3580 H   0  0  0  0  0  0  0  0  0  0  0  0
  151.2147  138.8516  157.0608 H   0  0  0  0  0  0  0  0  0  0  0  0
  152.4684  139.7088  156.1495 H   0  0  0  0  0  0  0  0  0  0  0  0
  148.8169  139.3307  152.9530 H   0  0  0  0  0  0  0  0  0  0  0  0
  149.8673  138.3459  153.9172 H   0  0  0  0  0  0  0  0  0  0  0  0
  148.0361  138.0001  155.5700 H   0  0  0  0  0  0  0  0  0  0  0  0
  146.7274  140.0566  155.2085 H   0  0  0  0  0  0  0  0  0  0  0  0
  145.7029  138.6387  155.0238 H   0  0  0  0  0  0  0  0  0  0  0  0
  146.2628  139.5116  153.5988 H   0  0  0  0  0  0  0  0  0  0  0  0
  148.2484  136.8315  153.0870 H   0  0  0  0  0  0  0  0  0  0  0  0
  147.2801  135.2073  152.2574 H   0  0  0  0  0  0  0  0  0  0  0  0
  144.7296  134.2971  153.5278 H   0  0  0  0  0  0  0  0  0  0  0  0
  147.2466  132.8944  153.1070 H   0  0  0  0  0  0  0  0  0  0  0  0
  145.7689  132.2617  153.8042 H   0  0  0  0  0  0  0  0  0  0  0  0
  146.7569  131.3799  151.3693 H   0  0  0  0  0  0  0  0  0  0  0  0
  145.0432  131.3768  151.7724 H   0  0  0  0  0  0  0  0  0  0  0  0
  146.5538  133.4966  150.2144 H   0  0  0  0  0  0  0  0  0  0  0  0
  145.0563  132.6886  149.7502 H   0  0  0  0  0  0  0  0  0  0  0  0
  143.8303  133.7776  151.5049 H   0  0  0  0  0  0  0  0  0  0  0  0
  145.7295  135.8912  150.3871 H   0  0  0  0  0  0  0  0  0  0  0  0
  144.2186  136.2397  151.2273 H   0  0  0  0  0  0  0  0  0  0  0  0
  144.2000  135.3811  149.6903 H   0  0  0  0  0  0  0  0  0  0  0  0
  149.2644  143.2336  155.8817 H   0  0  0  0  0  0  0  0  0  0  0  0
  1  2  1  0  0  0  0
  1 22  1  0  0  0  0
  1 23  1  0  0  0  0
  1 24  1  0  0  0  0
  2  8  1  0  0  0  0
  2  3  2  0  0  0  0
  3  4  1  0  0  0  0
  3 50  1  0  0  0  0
  4  5  1  0  0  0  0
  4  6  1  0  0  0  0
  5 25  1  0  0  0  0
  5 26  1  0  0  0  0
  5 27  1  0  0  0  0
  6  7  1  0  0  0  0
  6  8  2  0  0  0  0
  7 28  1  0  0  0  0
  7 29  1  0  0  0  0
  7 30  1  0  0  0  0
  8  9  1  0  0  0  0
  9 10  1  0  0  0  0
  9 31  1  0  0  0  0
  9 32  1  0  0  0  0
 10 11  1  0  0  0  0
 10 12  1  0  0  0  0
 10 33  1  0  0  0  0
 11 34  1  0  0  0  0
 11 35  1  0  0  0  0
 11 36  1  0  0  0  0
 12 13  1  0  0  0  0
 12 37  1  0  0  0  0
 13 14  2  0  0  0  0
 13 15  1  0  0  0  0
 15 16  1  0  0  0  0
 15 38  1  0  0  0  0
 16 20  1  0  0  0  0
 16 17  1  0  0  0  0
 16 39  1  0  0  0  0
 17 18  1  0  0  0  0
 17 40  1  0  0  0  0
 17 41  1  0  0  0  0
 18 19  1  0  0  0  0
 18 42  1  0  0  0  0
 18 43  1  0  0  0  0
 19 20  1  0  0  0  0
 19 44  1  0  0  0  0
 19 45  1  0  0  0  0
 20 21  1  0  0  0  0
 20 46  1  0  0  0  0
 21 47  1  0  0  0  0
 21 48  1  0  0  0  0
 21 49  1  0  0  0  0
M  CHG  1   3   1
M  END
> <s_m_source_file>
AV-unprocessed.smi

> <i_m_source_file_index>
671

> <i_lp_mmshare_version>
43012

> <i_f3d_flags>
0

> <s_epik_input>
W0NIM11jMW5uKFtDSDNdKWMoW0NIM10pYzFbQ0gyXVtDQEhdKFtDSDNdKVtOSF1DKD1PKVtOSF1bQ0BASF0yW0NIMl1bQ0gyXVtDSDJdW0NASF0yW0NIM10=

> <s_epik_cmdline>
J2VwaWtfcHl0aG9uJywgJy1waCcsICc3LjAnLCAnLXRuJywgJzgnLCAnLW1hJywgJzIwMCcsICctbWV0YWxfYmluZGluZycsICctaW1hZScsICc8aW5maWxlLm1hZT4nLCAnLW9tYWUnLCAnPG91dGZpbGUubWFlPic=

> <r_lp_tautomer_probability>
1

> <r_epik_Ionization_Penalty>
2.28705

> <r_epik_Ionization_Penalty_Charging>
2.28698

> <r_epik_Ionization_Penalty_Neutral>
6.23157e-05

> <r_epik_State_Penalty>
2.43671

> <r_epik_Charging_Adjusted_Penalty>
4.72369

> <i_epik_Tot_Q>
1

> <i_epik_Tot_abs_Q>
1

> <r_epik_Metal_State_Penalty>
2.44911

> <b_epik_Metal_Only>
0

> <s_lp_Force_Field>
OPLS_2005

> <r_lp_Energy>
35.2288

> <b_lp_Chiralities_Consistent>
1

> <s_lp_Variant>
AV-unprocessed.smi:671-14

> <Gold.Version>
5.8.1

> <Gold.Id.Protein>
6NUR|6NUR_protein|mol2

> <Gold.PLP.Fitness>
46.5085

> <Gold.PLP.PLP>
-35.5917

> <Gold.PLP.part.hbond>
-2.8155

> <Gold.PLP.part.metal>
0.0000

> <Gold.PLP.part.buried>
-4.7589

> <Gold.PLP.part.nonpolar>
-29.0723

> <Gold.PLP.part.repulsive>
0.1950

> <Gold.PLP.ligand.clash>
0.0000

> <Gold.PLP.ligand.torsion>
0.2947

> <Gold.PLP.Chemscore.Hbond>
3.8160

> <Gold.PLP.Chemscore.CHOScore>
0.0000

> <Gold.PLP.Chemscore.Metal>
0.0000

> <Gold.Chemscore.Hbonds>
donor molecule, donor type, donor heavy atom, donor atom, acceptor molecule, acceptor atom, score
      L1  H     3    50       P1  8028  2.00
      L1  H    12    37       P1  7948  1.00
      L1  H    15    38       P1  7948  0.82

> <Gold.PLP.Chemscore.Internal.Correction>
0.0582

> <Gold.Rescore>
     Score         DG    S(hbond)    S(metal)    S(lipo)     H(rot)  DE(clash)    DE(int)     intcor
     20.24     -20.61       2.80        0.00      82.31       1.51       0.02       0.35       ----

> <Gold.Chemscore.Fitness>
20.2398

> <Gold.Chemscore.DG>
-20.6095

> <Gold.Chemscore.ZeroCoef>
-5.4800

> <Gold.Chemscore.Hbond>
2.8004

> <Gold.Chemscore.Metal>
0.0000

> <Gold.Chemscore.Lipo>
82.3142

> <Gold.Chemscore.Internal_Hbond>
0.0000

> <Gold.Chemscore.DEClash>
0.0172

> <Gold.Chemscore.DEInternal>
0.3526

> <Gold.Chemscore.Rot>
1.5057

> <Gold.Chemscore.Internal.Correction>
   9.000000E+99

> <Gold.Chemscore.Hbonds>
donor molecule, donor type, donor heavy atom, donor atom, acceptor molecule, acceptor atom, score
      L1  H     3    50       P1  8028  0.94
      L1  H    12    37       P1  7948  0.93
      L1  H    15    38       P1  7948  0.80

> <Gold.Chemscore.Hbond.Weighted>
-9.3534

> <Gold.Chemscore.Metal.Weighted>
-0.0000

> <Gold.Chemscore.Lipo.Weighted>
-9.6308

> <Gold.Chemscore.Internal_Hbond.Weighted>
0.0000

> <Gold.Chemscore.DEClash.Weighted>
0.0172

> <Gold.Chemscore.DEInternal.Weighted>
0.3526

> <Gold.Chemscore.Rot.Weighted>
3.8547

> <Gold.Chemscore.Internal.Correction.Weighted>
   9.000000E+99

> <Gold.Protein.RotatedTorsions>
[ 6907 6896 6895 6894 ] final  -87.67 input  -60.11 | X-H torsion
[ 7974 7965 7964 7962 ] final   -1.36 input  175.53 | X-H torsion
[ 8008 7997 7996 7995 ] final  116.34 input   59.86 | X-H torsion
[ 10167 10162 10161 10158 ] final -103.51 input  -65.29 | X-H torsion
[ 10718 10713 10712 10709 ] final   28.18 input   66.30 | X-H torsion
[ 10763 10752 10751 10750 ] final   43.79 input  -60.55 | X-H torsion
[ 11005 11000 10999 10996 ] final  130.65 input  -57.11 | X-H torsion

> <Gold.Protein.ActiveResidues>
 VAL166  LYS551  ARG553  GLY616  TRP617  ASP618  TYR619  PRO620  LYS621  CYS622 
 ASP623  PHE694  ASN695  SER759  ASP760  ASP761  ALA762  ILE779  LEU786  VAL792 
 PHE793  MET794  SER795  GLU796  ALA797  LYS798  CYS799  TRP800  GLU811  SER814 

> <Gold.Protein.RotatedAtoms>
  150.6867  134.2860  159.4646 H   0  0  0  0  0  0  0  0  0  0  0  0  # atno 6907 bound_to 6896
  152.0770  134.9494  160.0583 H   0  0  0  0  0  0  0  0  0  0  0  0  # atno 6908 bound_to 6896
  152.0862  133.4142  159.4560 H   0  0  0  0  0  0  0  0  0  0  0  0  # atno 6909 bound_to 6896
  146.2418  140.1408  142.8335 H   0  0  0  0  0  0  0  0  0  0  0  0  # atno 7974 bound_to 7965
  156.2433  140.2919  156.0507 H   0  0  0  0  0  0  0  0  0  0  0  0  # atno 8008 bound_to 7997
  155.1884  140.0406  157.2913 H   0  0  0  0  0  0  0  0  0  0  0  0  # atno 8009 bound_to 7997
  154.6211  140.2476  155.7555 H   0  0  0  0  0  0  0  0  0  0  0  0  # atno 8010 bound_to 7997
  140.2192  143.3688  152.0984 H   0  0  0  0  0  0  0  0  0  0  0  0  # atno 10167 bound_to 10162
  157.2301  130.7019  149.6309 H   0  0  0  0  0  0  0  0  0  0  0  0  # atno 10718 bound_to 10713
  152.9853  135.6090  154.3169 H   0  0  0  0  0  0  0  0  0  0  0  0  # atno 10763 bound_to 10752
  154.2881  135.2775  155.2669 H   0  0  0  0  0  0  0  0  0  0  0  0  # atno 10764 bound_to 10752
  154.4977  135.5875  153.6563 H   0  0  0  0  0  0  0  0  0  0  0  0  # atno 10765 bound_to 10752
  139.9684  134.9584  156.9325 H   0  0  0  0  0  0  0  0  0  0  0  0  # atno 11005 bound_to 11000
  145.0248  140.8823  143.5145 LP  0  0  0  0  0  0  0  0  0  0  0  0  # atno 17320 bound_to 7965
  145.1463  139.2542  143.5464 LP  0  0  0  0  0  0  0  0  0  0  0  0  # atno 17321 bound_to 7965
  139.5150  144.6957  151.5637 LP  0  0  0  0  0  0  0  0  0  0  0  0  # atno 17342 bound_to 10162
  140.6267  143.9154  150.6571 LP  0  0  0  0  0  0  0  0  0  0  0  0  # atno 17343 bound_to 10162
  155.9676  130.4491  150.5647 LP  0  0  0  0  0  0  0  0  0  0  0  0  # atno 17370 bound_to 10713
  157.3487  131.0729  151.1731 LP  0  0  0  0  0  0  0  0  0  0  0  0  # atno 17371 bound_to 10713
  140.5346  134.0780  155.7325 LP  0  0  0  0  0  0  0  0  0  0  0  0  # atno 17394 bound_to 11000
  141.1364  133.9214  157.2424 LP  0  0  0  0  0  0  0  0  0  0  0  0  # atno 17395 bound_to 11000

$$$$
