AV-unprocessed.smi:2875|AV-procd|sdf|11040|dock10
  -GOLD-   2272015503D 1   1.00000     0.00000
 Structure written by MMmdl.
 40 40  0  0  0  0  0  0  0  0  1 V2000
  152.0252  144.5198  158.6995 C   0  0  0  0  0  0  0  0  0  0  0  0
  151.4990  143.1604  159.1701 C   0  0  0  0  0  0  0  0  0  0  0  0
  151.4434  142.1300  158.0300 C   0  0  0  0  0  0  0  0  0  0  0  0
  151.5163  140.7633  158.5082 N   0  0  0  0  0  0  0  0  0  0  0  0
  150.5377  139.7992  158.2482 C   0  0  0  0  0  0  0  0  0  0  0  0
  149.4439  140.1738  157.4812 N   0  0  0  0  0  0  0  0  0  0  0  0
  150.6386  138.5244  158.7314 C   0  0  0  0  0  0  0  0  0  0  0  0
  149.6714  137.5442  158.4355 N   0  0  0  0  0  0  0  0  0  0  0  0
  148.3312  137.7253  159.0174 C   0  0  0  0  0  0  0  0  0  0  0  0
  147.9887  136.6291  160.0393 C   0  0  0  0  0  0  0  0  0  0  0  0
  147.3242  137.2115  161.1478 O   0  0  0  0  0  0  0  0  0  0  0  0
  147.2149  136.3221  162.2445 C   0  0  0  0  0  0  0  0  0  0  0  0
  149.9662  136.4395  157.7013 C   0  0  0  0  0  0  0  0  0  0  0  0
  148.8544  135.4394  157.3621 C   0  0  0  0  0  0  0  0  0  0  0  0
  151.0967  136.2146  157.2681 O   0  0  0  0  0  0  0  0  0  0  0  0
  151.8124  138.1150  159.5164 C   0  0  0  0  0  0  0  0  0  0  0  0
  152.0089  136.9946  159.9857 O   0  0  0  0  0  0  0  0  0  0  0  0
  152.7628  139.1133  159.7140 N   0  0  0  0  0  0  0  0  0  0  0  0
  152.6771  140.4175  159.2408 C   0  0  0  0  0  0  0  0  0  0  0  0
  153.5969  141.2038  159.4698 O   0  0  0  0  0  0  0  0  0  0  0  0
  153.5885  138.8664  160.2398 H   0  0  0  0  0  0  0  0  0  0  0  0
  152.0490  145.2337  159.5229 H   0  0  0  0  0  0  0  0  0  0  0  0
  151.3920  144.9362  157.9156 H   0  0  0  0  0  0  0  0  0  0  0  0
  153.0374  144.4338  158.3036 H   0  0  0  0  0  0  0  0  0  0  0  0
  152.1361  142.7878  159.9732 H   0  0  0  0  0  0  0  0  0  0  0  0
  150.5057  143.2910  159.6006 H   0  0  0  0  0  0  0  0  0  0  0  0
  150.5395  142.2335  157.4272 H   0  0  0  0  0  0  0  0  0  0  0  0
  152.2647  142.2651  157.3268 H   0  0  0  0  0  0  0  0  0  0  0  0
  149.3462  141.1107  157.1164 H   0  0  0  0  0  0  0  0  0  0  0  0
  148.6686  139.5472  157.3188 H   0  0  0  0  0  0  0  0  0  0  0  0
  148.2644  138.7053  159.4929 H   0  0  0  0  0  0  0  0  0  0  0  0
  147.5696  137.7305  158.2364 H   0  0  0  0  0  0  0  0  0  0  0  0
  147.3722  135.8521  159.5850 H   0  0  0  0  0  0  0  0  0  0  0  0
  148.9075  136.1521  160.3828 H   0  0  0  0  0  0  0  0  0  0  0  0
  146.6968  136.8162  163.0662 H   0  0  0  0  0  0  0  0  0  0  0  0
  148.1984  136.0141  162.6015 H   0  0  0  0  0  0  0  0  0  0  0  0
  146.6444  135.4324  161.9744 H   0  0  0  0  0  0  0  0  0  0  0  0
  148.5635  134.8707  158.2451 H   0  0  0  0  0  0  0  0  0  0  0  0
  149.1964  134.7291  156.6087 H   0  0  0  0  0  0  0  0  0  0  0  0
  147.9746  135.9451  156.9627 H   0  0  0  0  0  0  0  0  0  0  0  0
  1  2  1  0  0  0  0
  1 22  1  0  0  0  0
  1 23  1  0  0  0  0
  1 24  1  0  0  0  0
  2  3  1  0  0  0  0
  2 25  1  0  0  0  0
  2 26  1  0  0  0  0
  3  4  1  0  0  0  0
  3 27  1  0  0  0  0
  3 28  1  0  0  0  0
  4 19  1  0  0  0  0
  4  5  1  0  0  0  0
  5  6  1  0  0  0  0
  5  7  2  0  0  0  0
  6 29  1  0  0  0  0
  6 30  1  0  0  0  0
  7  8  1  0  0  0  0
  7 16  1  0  0  0  0
  8  9  1  0  0  0  0
  8 13  1  0  0  0  0
  9 10  1  0  0  0  0
  9 31  1  0  0  0  0
  9 32  1  0  0  0  0
 10 11  1  0  0  0  0
 10 33  1  0  0  0  0
 10 34  1  0  0  0  0
 11 12  1  0  0  0  0
 12 35  1  0  0  0  0
 12 36  1  0  0  0  0
 12 37  1  0  0  0  0
 13 14  1  0  0  0  0
 13 15  2  0  0  0  0
 14 38  1  0  0  0  0
 14 39  1  0  0  0  0
 14 40  1  0  0  0  0
 16 17  2  0  0  0  0
 16 18  1  0  0  0  0
 18 21  1  0  0  0  0
 18 19  1  0  0  0  0
 19 20  2  0  0  0  0
M  END
> <s_m_source_file>
AV-unprocessed.smi

> <i_m_source_file_index>
2875

> <i_lp_mmshare_version>
43012

> <i_f3d_flags>
0

> <s_epik_input>
W0NIM11bQ0gyXVtDSDJdbjFjKFtOSDJdKWMoYyg9TylbbkhdYzE9TylOKEMoPU8pW0NIM10pW0NIMl1bQ0gyXU9bQ0gzXQ==

> <s_epik_cmdline>
J2VwaWtfcHl0aG9uJywgJy1waCcsICc3LjAnLCAnLXRuJywgJzgnLCAnLW1hJywgJzIwMCcsICctbWV0YWxfYmluZGluZycsICctaW1hZScsICc8aW5maWxlLm1hZT4nLCAnLW9tYWUnLCAnPG91dGZpbGUubWFlPic=

> <r_lp_tautomer_probability>
1

> <r_epik_Ionization_Penalty>
1.36284e-05

> <r_epik_Ionization_Penalty_Charging>
6.32507e-06

> <r_epik_Ionization_Penalty_Neutral>
7.30329e-06

> <r_epik_State_Penalty>
-0

> <r_epik_Charging_Adjusted_Penalty>
6.32507e-06

> <i_epik_Tot_Q>
0

> <i_epik_Tot_abs_Q>
0

> <r_epik_Metal_State_Penalty>
0.00594323

> <b_epik_Metal_Only>
0

> <s_epik_Chemistry_Notes>
This compound has an imine and may undergo hydrolysis.

> <s_lp_Force_Field>
OPLS_2005

> <r_lp_Energy>
24.7155

> <b_lp_Chiralities_Consistent>
1

> <s_lp_Variant>
AV-unprocessed.smi:2875-1

> <Gold.Version>
5.8.1

> <Gold.Id.Protein>
6NUR|6NUR_protein|mol2

> <Gold.PLP.Fitness>
38.5099

> <Gold.PLP.PLP>
-31.2115

> <Gold.PLP.part.hbond>
-3.0000

> <Gold.PLP.part.metal>
0.0000

> <Gold.PLP.part.buried>
-4.6887

> <Gold.PLP.part.nonpolar>
-24.0024

> <Gold.PLP.part.repulsive>
0.1738

> <Gold.PLP.ligand.clash>
0.0000

> <Gold.PLP.ligand.torsion>
1.7193

> <Gold.PLP.Chemscore.Hbond>
2.8080

> <Gold.PLP.Chemscore.CHOScore>
0.0000

> <Gold.PLP.Chemscore.Metal>
0.0000

> <Gold.Chemscore.Hbonds>
donor molecule, donor type, donor heavy atom, donor atom, acceptor molecule, acceptor atom, score
      P1  H  6896  6908       L1    17  1.00
      P1  H  6931  6943       L1    11  0.39
      P1  H  6934  6947       L1    11  1.00

> <Gold.PLP.Chemscore.Internal.Correction>
2.3129

> <Gold.Rescore>
     Score         DG    S(hbond)    S(metal)    S(lipo)     H(rot)  DE(clash)    DE(int)     intcor
     11.23     -13.12       1.93        0.00      55.79       2.08       0.00       1.89       ----

> <Gold.Chemscore.Fitness>
11.2288

> <Gold.Chemscore.DG>
-13.1231

> <Gold.Chemscore.ZeroCoef>
-5.4800

> <Gold.Chemscore.Hbond>
1.9253

> <Gold.Chemscore.Metal>
0.0000

> <Gold.Chemscore.Lipo>
55.7948

> <Gold.Chemscore.Internal_Hbond>
0.0000

> <Gold.Chemscore.DEClash>
0.0000

> <Gold.Chemscore.DEInternal>
1.8943

> <Gold.Chemscore.Rot>
2.0763

> <Gold.Chemscore.Internal.Correction>
   9.000000E+99

> <Gold.Chemscore.Hbonds>
donor molecule, donor type, donor heavy atom, donor atom, acceptor molecule, acceptor atom, score
      P1  H  6896  6908       L1    17  1.00
      P1  H  6931  6943       L1    11  0.01
      P1  H  6934  6947       L1    11  0.76

> <Gold.Chemscore.Hbond.Weighted>
-6.4304

> <Gold.Chemscore.Metal.Weighted>
-0.0000

> <Gold.Chemscore.Lipo.Weighted>
-6.5280

> <Gold.Chemscore.Internal_Hbond.Weighted>
0.0000

> <Gold.Chemscore.DEClash.Weighted>
0.0000

> <Gold.Chemscore.DEInternal.Weighted>
1.8943

> <Gold.Chemscore.Rot.Weighted>
5.3153

> <Gold.Chemscore.Internal.Correction.Weighted>
   9.000000E+99

> <Gold.Protein.RotatedTorsions>
[ 6907 6896 6895 6894 ] final -101.40 input  -60.11 | X-H torsion
[ 7974 7965 7964 7962 ] final  -59.72 input  175.53 | X-H torsion
[ 8008 7997 7996 7995 ] final -109.46 input   59.86 | X-H torsion
[ 10167 10162 10161 10158 ] final -125.46 input  -65.29 | X-H torsion
[ 10718 10713 10712 10709 ] final   10.26 input   66.30 | X-H torsion
[ 10763 10752 10751 10750 ] final  173.88 input  -60.55 | X-H torsion
[ 11005 11000 10999 10996 ] final -124.10 input  -57.11 | X-H torsion

> <Gold.Protein.ActiveResidues>
 VAL166  LYS551  ARG553  GLY616  TRP617  ASP618  TYR619  PRO620  LYS621  CYS622 
 ASP623  PHE694  ASN695  SER759  ASP760  ASP761  ALA762  ILE779  LEU786  VAL792 
 PHE793  MET794  SER795  GLU796  ALA797  LYS798  CYS799  TRP800  GLU811  SER814 

> <Gold.Protein.RotatedAtoms>
  150.7153  134.0739  159.3873 H   0  0  0  0  0  0  0  0  0  0  0  0  # atno 6907 bound_to 6896
  151.8722  135.0483  160.0490 H   0  0  0  0  0  0  0  0  0  0  0  0  # atno 6908 bound_to 6896
  152.2634  133.5282  159.5432 H   0  0  0  0  0  0  0  0  0  0  0  0  # atno 6909 bound_to 6896
  145.8241  140.8521  143.0117 H   0  0  0  0  0  0  0  0  0  0  0  0  # atno 7974 bound_to 7965
  154.9596  140.0399  157.2184 H   0  0  0  0  0  0  0  0  0  0  0  0  # atno 8008 bound_to 7997
  154.7901  140.2834  155.5976 H   0  0  0  0  0  0  0  0  0  0  0  0  # atno 8009 bound_to 7997
  156.2948  140.2575  156.2747 H   0  0  0  0  0  0  0  0  0  0  0  0  # atno 8010 bound_to 7997
  139.9819  143.5734  152.2375 H   0  0  0  0  0  0  0  0  0  0  0  0  # atno 10167 bound_to 10162
  156.9784  130.5996  149.5674 H   0  0  0  0  0  0  0  0  0  0  0  0  # atno 10718 bound_to 10713
  154.4461  135.2763  155.1814 H   0  0  0  0  0  0  0  0  0  0  0  0  # atno 10763 bound_to 10752
  154.3660  135.6119  153.5718 H   0  0  0  0  0  0  0  0  0  0  0  0  # atno 10764 bound_to 10752
  152.9844  135.5846  154.4797 H   0  0  0  0  0  0  0  0  0  0  0  0  # atno 10765 bound_to 10752
  140.9867  134.0596  157.3702 H   0  0  0  0  0  0  0  0  0  0  0  0  # atno 11005 bound_to 11000
  144.6745  140.0577  143.7477 LP  0  0  0  0  0  0  0  0  0  0  0  0  # atno 17320 bound_to 7965
  145.9642  139.2823  143.1137 LP  0  0  0  0  0  0  0  0  0  0  0  0  # atno 17321 bound_to 7965
  139.6404  144.7654  151.2351 LP  0  0  0  0  0  0  0  0  0  0  0  0  # atno 17342 bound_to 10162
  140.7486  143.6327  150.8408 LP  0  0  0  0  0  0  0  0  0  0  0  0  # atno 17343 bound_to 10162
  156.0254  130.5348  150.8392 LP  0  0  0  0  0  0  0  0  0  0  0  0  # atno 17370 bound_to 10713
  157.5543  131.0944  150.9650 LP  0  0  0  0  0  0  0  0  0  0  0  0  # atno 17371 bound_to 10713
  139.8974  135.0150  156.7097 LP  0  0  0  0  0  0  0  0  0  0  0  0  # atno 17394 bound_to 11000
  140.7103  133.9229  155.8080 LP  0  0  0  0  0  0  0  0  0  0  0  0  # atno 17395 bound_to 11000

$$$$
