AV-unprocessed.smi:1554|AV-procd|sdf|6256|dock6
  -GOLD-   22720 6443D 1   1.00000     0.00000
 Structure written by MMmdl.
 49 51  0  0  0  0  0  0  0  0  3 V2000
  146.1052  129.8632  152.4246 C   0  0  0  0  0  0  0  0  0  0  0  0
  146.0126  131.3579  152.1678 C   0  0  0  0  0  0  0  0  0  0  0  0
  144.8661  131.8599  151.5120 C   0  0  0  0  0  0  0  0  0  0  0  0
  144.8125  133.2305  151.2876 C   0  0  0  0  0  0  0  0  0  0  0  0
  143.8369  134.0189  150.6743 N   0  3  0  0  0  0  0  0  0  0  0  0
  144.2314  135.3222  150.6862 C   0  0  0  0  0  0  0  0  0  0  0  0
  145.4470  135.3781  151.2958 N   0  0  0  0  0  0  0  0  0  0  0  0
  146.3069  136.5395  151.5687 C   0  0  0  0  0  0  0  0  0  0  0  0
  145.7330  137.4711  152.6550 C   0  0  2  0  0  0  0  0  0  0  0  0
  144.4503  137.9222  152.2652 O   0  0  0  0  0  0  0  0  0  0  0  0
  146.6374  138.6982  152.8864 C   0  0  0  0  0  0  0  0  0  0  0  0
  147.9415  138.3467  153.5050 N   0  3  1  0  0  0  0  0  0  0  0  0
  148.7946  139.5214  153.8118 C   0  0  0  0  0  0  0  0  0  0  0  0
  150.1365  139.0672  154.4096 C   0  0  0  0  0  0  0  0  0  0  0  0
  149.9007  138.2768  155.5681 O   0  0  0  0  0  0  0  0  0  0  0  0
  149.1616  137.0966  155.2746 C   0  0  1  0  0  0  0  0  0  0  0  0
  149.0411  136.2737  156.5621 C   0  0  0  0  0  0  0  0  0  0  0  0
  147.7850  137.4946  154.7079 C   0  0  0  0  0  0  0  0  0  0  0  0
  145.8477  134.0959  151.6921 C   0  0  0  0  0  0  0  0  0  0  0  0
  146.9832  133.6172  152.3418 C   0  0  0  0  0  0  0  0  0  0  0  0
  147.0578  132.2257  152.5774 C   0  0  0  0  0  0  0  0  0  0  0  0
  148.2867  131.6758  153.2815 C   0  0  0  0  0  0  0  0  0  0  0  0
  145.2136  129.3422  152.0746 H   0  0  0  0  0  0  0  0  0  0  0  0
  146.2110  129.6625  153.4909 H   0  0  0  0  0  0  0  0  0  0  0  0
  146.9644  129.4386  151.9046 H   0  0  0  0  0  0  0  0  0  0  0  0
  144.0667  131.2050  151.1968 H   0  0  0  0  0  0  0  0  0  0  0  0
  143.6783  136.1594  150.2852 H   0  0  0  0  0  0  0  0  0  0  0  0
  147.2737  136.1502  151.8905 H   0  0  0  0  0  0  0  0  0  0  0  0
  146.4917  137.0774  150.6384 H   0  0  0  0  0  0  0  0  0  0  0  0
  145.6254  136.8977  153.5753 H   0  0  0  0  0  0  0  0  0  0  0  0
  144.3568  138.8252  152.5292 H   0  0  0  0  0  0  0  0  0  0  0  0
  146.8158  139.2256  151.9479 H   0  0  0  0  0  0  0  0  0  0  0  0
  146.1066  139.4000  153.5323 H   0  0  0  0  0  0  0  0  0  0  0  0
  148.9841  140.1050  152.9120 H   0  0  0  0  0  0  0  0  0  0  0  0
  148.2778  140.1767  154.5149 H   0  0  0  0  0  0  0  0  0  0  0  0
  150.7181  138.5020  153.6796 H   0  0  0  0  0  0  0  0  0  0  0  0
  150.7348  139.9340  154.6900 H   0  0  0  0  0  0  0  0  0  0  0  0
  149.7065  136.5060  154.5359 H   0  0  0  0  0  0  0  0  0  0  0  0
  148.4916  135.3485  156.3868 H   0  0  0  0  0  0  0  0  0  0  0  0
  148.5190  136.8307  157.3407 H   0  0  0  0  0  0  0  0  0  0  0  0
  150.0254  136.0065  156.9475 H   0  0  0  0  0  0  0  0  0  0  0  0
  147.2060  138.0320  155.4608 H   0  0  0  0  0  0  0  0  0  0  0  0
  147.2221  136.5964  154.4507 H   0  0  0  0  0  0  0  0  0  0  0  0
  147.7819  134.2747  152.6518 H   0  0  0  0  0  0  0  0  0  0  0  0
  149.0101  132.4629  153.4959 H   0  0  0  0  0  0  0  0  0  0  0  0
  148.7833  130.9294  152.6611 H   0  0  0  0  0  0  0  0  0  0  0  0
  148.0086  131.2117  154.2280 H   0  0  0  0  0  0  0  0  0  0  0  0
  148.4372  137.7870  152.8252 H   0  0  0  0  0  0  0  0  0  0  0  0
  142.9640  133.6942  150.2780 H   0  0  0  0  0  0  0  0  0  0  0  0
  1  2  1  0  0  0  0
  1 23  1  0  0  0  0
  1 24  1  0  0  0  0
  1 25  1  0  0  0  0
  2 21  1  0  0  0  0
  2  3  2  0  0  0  0
  3  4  1  0  0  0  0
  3 26  1  0  0  0  0
  4 19  2  0  0  0  0
  4  5  1  0  0  0  0
  5  6  2  0  0  0  0
  5 49  1  0  0  0  0
  6  7  1  0  0  0  0
  6 27  1  0  0  0  0
  7  8  1  0  0  0  0
  7 19  1  0  0  0  0
  8  9  1  0  0  0  0
  8 28  1  0  0  0  0
  8 29  1  0  0  0  0
  9 10  1  0  0  0  0
  9 11  1  0  0  0  0
  9 30  1  0  0  0  0
 10 31  1  0  0  0  0
 11 12  1  0  0  0  0
 11 32  1  0  0  0  0
 11 33  1  0  0  0  0
 12 18  1  0  0  0  0
 12 13  1  0  0  0  0
 12 48  1  0  0  0  0
 13 14  1  0  0  0  0
 13 34  1  0  0  0  0
 13 35  1  0  0  0  0
 14 15  1  0  0  0  0
 14 36  1  0  0  0  0
 14 37  1  0  0  0  0
 15 16  1  0  0  0  0
 16 17  1  0  0  0  0
 16 18  1  0  0  0  0
 16 38  1  0  0  0  0
 17 39  1  0  0  0  0
 17 40  1  0  0  0  0
 17 41  1  0  0  0  0
 18 42  1  0  0  0  0
 18 43  1  0  0  0  0
 19 20  1  0  0  0  0
 20 21  2  0  0  0  0
 20 44  1  0  0  0  0
 21 22  1  0  0  0  0
 22 45  1  0  0  0  0
 22 46  1  0  0  0  0
 22 47  1  0  0  0  0
M  CHG  1   5   1
M  CHG  1  12   1
M  END
> <s_m_source_file>
AV-unprocessed.smi

> <i_m_source_file_index>
1554

> <i_lp_mmshare_version>
43012

> <i_f3d_flags>
0

> <s_epik_input>
W0NIM11jKFtjSF0xKWMoW0NIM10pW2NIXWMoYzEyKW4oW2NIXW4yKVtDSDJdW0NASF0oW09IXSlbQ0gyXU4zW0NIMl1bQ0gyXU9bQ0BASF0oW0NIM10pW0NIMl0z

> <s_epik_cmdline>
J2VwaWtfcHl0aG9uJywgJy1waCcsICc3LjAnLCAnLXRuJywgJzgnLCAnLW1hJywgJzIwMCcsICctbWV0YWxfYmluZGluZycsICctaW1hZScsICc8aW5maWxlLm1hZT4nLCAnLW9tYWUnLCAnPG91dGZpbGUubWFlPic=

> <r_epik_Ionization_Penalty>
1.8848

> <r_epik_Ionization_Penalty_Charging>
1.88479

> <r_epik_Ionization_Penalty_Neutral>
1.42224e-05

> <r_epik_State_Penalty>
1.94551

> <r_epik_Charging_Adjusted_Penalty>
3.8303

> <i_epik_Tot_Q>
2

> <i_epik_Tot_abs_Q>
2

> <r_epik_Metal_State_Penalty>
5.95849

> <b_epik_Metal_Only>
0

> <s_lp_Force_Field>
OPLS_2005

> <r_lp_Energy>
29.8274

> <b_lp_Chiralities_Consistent>
1

> <s_lp_Variant>
AV-unprocessed.smi:1554-17

> <Gold.Version>
5.8.1

> <Gold.Id.Protein>
6NUR|6NUR_protein|mol2

> <Gold.PLP.Fitness>
52.7804

> <Gold.PLP.PLP>
-35.3117

> <Gold.PLP.part.hbond>
-3.8605

> <Gold.PLP.part.metal>
0.0000

> <Gold.PLP.part.buried>
-0.1709

> <Gold.PLP.part.nonpolar>
-31.9722

> <Gold.PLP.part.repulsive>
0.0813

> <Gold.PLP.ligand.clash>
0.0000

> <Gold.PLP.ligand.torsion>
0.1683

> <Gold.PLP.Chemscore.Hbond>
4.9200

> <Gold.PLP.Chemscore.CHOScore>
1.0000

> <Gold.PLP.Chemscore.Metal>
0.0000

> <Gold.Chemscore.Hbonds>
donor molecule, donor type, donor heavy atom, donor atom, acceptor molecule, acceptor atom, score
      L1  H     5    49       P1 10186  0.92
      L1  H    10    31       P1 10175  1.00
      L1  H    12    48       P1  7948  2.00
      L1  C     6    27       P1 10171  1.00

> <Gold.PLP.Chemscore.Internal.Correction>
0.0452

> <Gold.Rescore>
     Score         DG    S(hbond)    S(metal)    S(lipo)     H(rot)  DE(clash)    DE(int)     intcor
     18.90     -20.07       2.82        0.00      90.34       2.11       0.92       0.25       ----

> <Gold.Chemscore.Fitness>
18.9019

> <Gold.Chemscore.DG>
-20.0727

> <Gold.Chemscore.ZeroCoef>
-5.4800

> <Gold.Chemscore.Hbond>
2.8233

> <Gold.Chemscore.Metal>
0.0000

> <Gold.Chemscore.Lipo>
90.3421

> <Gold.Chemscore.Internal_Hbond>
0.0000

> <Gold.Chemscore.DEClash>
0.9162

> <Gold.Chemscore.DEInternal>
0.2546

> <Gold.Chemscore.Rot>
2.1122

> <Gold.Chemscore.Internal.Correction>
   9.000000E+99

> <Gold.Chemscore.Hbonds>
donor molecule, donor type, donor heavy atom, donor atom, acceptor molecule, acceptor atom, score
      L1  H     5    49       P1 10186  0.45
      L1  H    10    31       P1 10175  0.98
      L1  H    12    48       P1  7948  0.99

> <Gold.Chemscore.Hbond.Weighted>
-9.4300

> <Gold.Chemscore.Metal.Weighted>
-0.0000

> <Gold.Chemscore.Lipo.Weighted>
-10.5700

> <Gold.Chemscore.Internal_Hbond.Weighted>
0.0000

> <Gold.Chemscore.DEClash.Weighted>
0.9162

> <Gold.Chemscore.DEInternal.Weighted>
0.2546

> <Gold.Chemscore.Rot.Weighted>
5.4073

> <Gold.Chemscore.Internal.Correction.Weighted>
   9.000000E+99

> <Gold.Protein.RotatedTorsions>
[ 6907 6896 6895 6894 ] final  114.87 input  -60.11 | X-H torsion
[ 7974 7965 7964 7962 ] final  -22.24 input  175.53 | X-H torsion
[ 8008 7997 7996 7995 ] final  101.97 input   59.86 | X-H torsion
[ 10167 10162 10161 10158 ] final   97.78 input  -65.29 | X-H torsion
[ 10718 10713 10712 10709 ] final    9.02 input   66.30 | X-H torsion
[ 10763 10752 10751 10750 ] final  116.87 input  -60.55 | X-H torsion
[ 11005 11000 10999 10996 ] final   56.54 input  -57.11 | X-H torsion

> <Gold.Protein.ActiveResidues>
 VAL166  LYS551  ARG553  GLY616  TRP617  ASP618  TYR619  PRO620  LYS621  CYS622 
 ASP623  PHE694  ASN695  SER759  ASP760  ASP761  ALA762  ILE779  LEU786  VAL792 
 PHE793  MET794  SER795  GLU796  ALA797  LYS798  CYS799  TRP800  GLU811  SER814 

> <Gold.Protein.RotatedAtoms>
  152.4776  133.8176  159.7035 H   0  0  0  0  0  0  0  0  0  0  0  0  # atno 6907 bound_to 6896
  150.8803  133.7372  159.2940 H   0  0  0  0  0  0  0  0  0  0  0  0  # atno 6908 bound_to 6896
  151.4878  135.1059  159.9847 H   0  0  0  0  0  0  0  0  0  0  0  0  # atno 6909 bound_to 6896
  146.1687  140.4452  142.8541 H   0  0  0  0  0  0  0  0  0  0  0  0  # atno 7974 bound_to 7965
  156.1349  140.3189  155.8405 H   0  0  0  0  0  0  0  0  0  0  0  0  # atno 8008 bound_to 7997
  155.4263  140.0515  157.3039 H   0  0  0  0  0  0  0  0  0  0  0  0  # atno 8009 bound_to 7997
  154.4929  140.2099  155.9523 H   0  0  0  0  0  0  0  0  0  0  0  0  # atno 8010 bound_to 7997
  139.7769  144.6902  151.0077 H   0  0  0  0  0  0  0  0  0  0  0  0  # atno 10167 bound_to 10162
  156.9602  130.5930  149.5661 H   0  0  0  0  0  0  0  0  0  0  0  0  # atno 10718 bound_to 10713
  153.5437  135.3553  155.2729 H   0  0  0  0  0  0  0  0  0  0  0  0  # atno 10763 bound_to 10752
  154.8714  135.4097  154.3015 H   0  0  0  0  0  0  0  0  0  0  0  0  # atno 10764 bound_to 10752
  153.3727  135.7065  153.6693 H   0  0  0  0  0  0  0  0  0  0  0  0  # atno 10765 bound_to 10752
  140.0521  134.5722  155.9251 H   0  0  0  0  0  0  0  0  0  0  0  0  # atno 11005 bound_to 11000
  144.8130  140.6419  143.6403 LP  0  0  0  0  0  0  0  0  0  0  0  0  # atno 17320 bound_to 7965
  145.4399  139.1537  143.3976 LP  0  0  0  0  0  0  0  0  0  0  0  0  # atno 17321 bound_to 7965
  140.7817  143.4526  151.0391 LP  0  0  0  0  0  0  0  0  0  0  0  0  # atno 17342 bound_to 10162
  139.8208  143.7823  152.3176 LP  0  0  0  0  0  0  0  0  0  0  0  0  # atno 17343 bound_to 10162
  156.0325  130.5416  150.8571 LP  0  0  0  0  0  0  0  0  0  0  0  0  # atno 17370 bound_to 10713
  157.5663  131.0946  150.9485 LP  0  0  0  0  0  0  0  0  0  0  0  0  # atno 17371 bound_to 10713
  141.1935  133.6579  156.5552 LP  0  0  0  0  0  0  0  0  0  0  0  0  # atno 17394 bound_to 11000
  140.3901  134.7448  157.4716 LP  0  0  0  0  0  0  0  0  0  0  0  0  # atno 17395 bound_to 11000

$$$$
