AV-unprocessed.smi:1320|AV-procd|sdf|5461|dock2
  -GOLD-   22720 5 33D 1   1.00000     0.00000
 Structure written by MMmdl.
 37 38  0  0  0  0  0  0  0  0  2 V2000
  151.4470  141.2754  156.9004 O   0  0  0  0  0  0  0  0  0  0  0  0
  150.7419  142.2786  156.8104 C   0  0  0  0  0  0  0  0  0  0  0  0
  149.6282  142.3367  156.0591 N   0  0  0  0  0  0  0  0  0  0  0  0
  149.0835  141.2409  155.2613 C   0  0  0  0  0  0  0  0  0  0  0  0
  147.6178  140.9135  155.6100 C   0  0  0  0  0  0  0  0  0  0  0  0
  146.6314  141.9958  155.2068 C   0  0  0  0  0  0  0  0  0  0  0  0
  146.5168  142.4419  153.8726 C   0  0  0  0  0  0  0  0  0  0  0  0
  145.6034  143.4718  153.5659 C   0  0  0  0  0  0  0  0  0  0  0  0
  144.8251  144.0345  154.5987 C   0  0  0  0  0  0  0  0  0  0  0  0
  144.9801  143.5519  155.9139 C   0  0  0  0  0  0  0  0  0  0  0  0
  145.8649  142.5630  156.1673 N   0  3  0  0  0  0  0  0  0  0  0  0
  151.0407  143.4165  157.4615 N   0  0  0  0  0  0  0  0  0  0  0  0
  152.1747  143.6778  158.3513 C   0  0  0  0  0  0  0  0  0  0  0  0
  152.1376  142.7354  159.5698 C   0  0  0  0  0  0  0  0  0  0  0  0
  152.3807  143.6179  160.7945 C   0  0  0  0  0  0  0  0  0  0  0  0
  151.7945  144.9702  160.4036 C   0  0  0  0  0  0  0  0  0  0  0  0
  152.1353  145.1116  158.9197 C   0  0  0  0  0  0  0  0  0  0  0  0
  149.1082  143.2024  156.0564 H   0  0  0  0  0  0  0  0  0  0  0  0
  149.1751  141.4595  154.1961 H   0  0  0  0  0  0  0  0  0  0  0  0
  149.7013  140.3612  155.4417 H   0  0  0  0  0  0  0  0  0  0  0  0
  147.3290  139.9819  155.1219 H   0  0  0  0  0  0  0  0  0  0  0  0
  147.5272  140.7311  156.6819 H   0  0  0  0  0  0  0  0  0  0  0  0
  147.1275  142.0077  153.0944 H   0  0  0  0  0  0  0  0  0  0  0  0
  145.5042  143.8284  152.5514 H   0  0  0  0  0  0  0  0  0  0  0  0
  144.1222  144.8265  154.3846 H   0  0  0  0  0  0  0  0  0  0  0  0
  144.4301  143.9261  156.7651 H   0  0  0  0  0  0  0  0  0  0  0  0
  150.3987  144.1861  157.3363 H   0  0  0  0  0  0  0  0  0  0  0  0
  153.1131  143.5223  157.8160 H   0  0  0  0  0  0  0  0  0  0  0  0
  151.1568  142.2662  159.6639 H   0  0  0  0  0  0  0  0  0  0  0  0
  152.8714  141.9325  159.4936 H   0  0  0  0  0  0  0  0  0  0  0  0
  151.9320  143.2104  161.7007 H   0  0  0  0  0  0  0  0  0  0  0  0
  153.4528  143.7187  160.9690 H   0  0  0  0  0  0  0  0  0  0  0  0
  150.7116  144.9514  160.5320 H   0  0  0  0  0  0  0  0  0  0  0  0
  152.1881  145.7898  161.0052 H   0  0  0  0  0  0  0  0  0  0  0  0
  153.1229  145.5639  158.8195 H   0  0  0  0  0  0  0  0  0  0  0  0
  151.4317  145.7665  158.4037 H   0  0  0  0  0  0  0  0  0  0  0  0
  145.9658  142.2343  157.1278 H   0  0  0  0  0  0  0  0  0  0  0  0
  1  2  2  0  0  0  0
  2  3  1  0  0  0  0
  2 12  1  0  0  0  0
  3  4  1  0  0  0  0
  3 18  1  0  0  0  0
  4  5  1  0  0  0  0
  4 19  1  0  0  0  0
  4 20  1  0  0  0  0
  5  6  1  0  0  0  0
  5 21  1  0  0  0  0
  5 22  1  0  0  0  0
  6 11  1  0  0  0  0
  6  7  2  0  0  0  0
  7  8  1  0  0  0  0
  7 23  1  0  0  0  0
  8  9  2  0  0  0  0
  8 24  1  0  0  0  0
  9 10  1  0  0  0  0
  9 25  1  0  0  0  0
 10 11  2  0  0  0  0
 10 26  1  0  0  0  0
 11 37  1  0  0  0  0
 12 13  1  0  0  0  0
 12 27  1  0  0  0  0
 13 17  1  0  0  0  0
 13 14  1  0  0  0  0
 13 28  1  0  0  0  0
 14 15  1  0  0  0  0
 14 29  1  0  0  0  0
 14 30  1  0  0  0  0
 15 16  1  0  0  0  0
 15 31  1  0  0  0  0
 15 32  1  0  0  0  0
 16 17  1  0  0  0  0
 16 33  1  0  0  0  0
 16 34  1  0  0  0  0
 17 35  1  0  0  0  0
 17 36  1  0  0  0  0
M  CHG  1  11   1
M  END
> <s_m_source_file>
AV-unprocessed.smi

> <i_m_source_file_index>
1320

> <i_lp_mmshare_version>
43012

> <i_f3d_flags>
0

> <s_epik_input>
W0NIMl0xW0NIMl1bQ0gyXVtDSDJdW0NIXTFbTkhdQyg9TylbTkhdW0NIMl1bQ0gyXWMyW2NIXVtjSF1bY0hdW2NIXW4y

> <s_epik_cmdline>
J2VwaWtfcHl0aG9uJywgJy1waCcsICc3LjAnLCAnLXRuJywgJzgnLCAnLW1hJywgJzIwMCcsICctbWV0YWxfYmluZGluZycsICctaW1hZScsICc8aW5maWxlLm1hZT4nLCAnLW9tYWUnLCAnPG91dGZpbGUubWFlPic=

> <r_epik_Ionization_Penalty>
1.56194

> <r_epik_Ionization_Penalty_Charging>
1.56188

> <r_epik_Ionization_Penalty_Neutral>
5.76468e-05

> <r_epik_State_Penalty>
1.65696

> <r_epik_Charging_Adjusted_Penalty>
3.21884

> <i_epik_Tot_Q>
1

> <i_epik_Tot_abs_Q>
1

> <r_epik_Metal_State_Penalty>
1.69837

> <b_epik_Metal_Only>
0

> <s_lp_Force_Field>
OPLS_2005

> <r_lp_Energy>
32.6171

> <b_lp_Chiralities_Consistent>
1

> <s_lp_Variant>
AV-unprocessed.smi:1320-2

> <Gold.Version>
5.8.1

> <Gold.Id.Protein>
6NUR|6NUR_protein|mol2

> <Gold.PLP.Fitness>
45.9448

> <Gold.PLP.PLP>
-42.1176

> <Gold.PLP.part.hbond>
-1.8241

> <Gold.PLP.part.metal>
0.0000

> <Gold.PLP.part.buried>
-6.4890

> <Gold.PLP.part.nonpolar>
-34.7291

> <Gold.PLP.part.repulsive>
0.1524

> <Gold.PLP.ligand.clash>
0.0000

> <Gold.PLP.ligand.torsion>
0.0349

> <Gold.PLP.Chemscore.Hbond>
1.2948

> <Gold.PLP.Chemscore.CHOScore>
0.0000

> <Gold.PLP.Chemscore.Metal>
0.0000

> <Gold.Chemscore.Hbonds>
donor molecule, donor type, donor heavy atom, donor atom, acceptor molecule, acceptor atom, score
      L1  H     3    18       P1  8028  1.00
      L1  H    12    27       P1  8028  0.23

> <Gold.PLP.Chemscore.Internal.Correction>
0.0125

> <Gold.Rescore>
     Score         DG    S(hbond)    S(metal)    S(lipo)     H(rot)  DE(clash)    DE(int)     intcor
     17.33     -17.48       1.29        0.00     100.63       1.59       0.09       0.07       ----

> <Gold.Chemscore.Fitness>
17.3268

> <Gold.Chemscore.DG>
-17.4779

> <Gold.Chemscore.ZeroCoef>
-5.4800

> <Gold.Chemscore.Hbond>
1.2881

> <Gold.Chemscore.Metal>
0.0000

> <Gold.Chemscore.Lipo>
100.6333

> <Gold.Chemscore.Internal_Hbond>
0.0000

> <Gold.Chemscore.DEClash>
0.0859

> <Gold.Chemscore.DEInternal>
0.0652

> <Gold.Chemscore.Rot>
1.5932

> <Gold.Chemscore.Internal.Correction>
   9.000000E+99

> <Gold.Chemscore.Hbonds>
donor molecule, donor type, donor heavy atom, donor atom, acceptor molecule, acceptor atom, score
      L1  H     3    18       P1  8028  0.95
      L1  H    12    27       P1  8028  0.20

> <Gold.Chemscore.Hbond.Weighted>
-4.3024

> <Gold.Chemscore.Metal.Weighted>
-0.0000

> <Gold.Chemscore.Lipo.Weighted>
-11.7741

> <Gold.Chemscore.Internal_Hbond.Weighted>
0.0000

> <Gold.Chemscore.DEClash.Weighted>
0.0859

> <Gold.Chemscore.DEInternal.Weighted>
0.0652

> <Gold.Chemscore.Rot.Weighted>
4.0785

> <Gold.Chemscore.Internal.Correction.Weighted>
   9.000000E+99

> <Gold.Protein.RotatedTorsions>
[ 6907 6896 6895 6894 ] final  -26.07 input  -60.11 | X-H torsion
[ 7974 7965 7964 7962 ] final  149.56 input  175.53 | X-H torsion
[ 8008 7997 7996 7995 ] final  -45.24 input   59.86 | X-H torsion
[ 10167 10162 10161 10158 ] final -160.07 input  -65.29 | X-H torsion
[ 10718 10713 10712 10709 ] final  155.82 input   66.30 | X-H torsion
[ 10763 10752 10751 10750 ] final  -68.26 input  -60.55 | X-H torsion
[ 11005 11000 10999 10996 ] final  174.54 input  -57.11 | X-H torsion

> <Gold.Protein.ActiveResidues>
 VAL166  LYS551  ARG553  GLY616  TRP617  ASP618  TYR619  PRO620  LYS621  CYS622 
 ASP623  PHE694  ASN695  SER759  ASP760  ASP761  ALA762  ILE779  LEU786  VAL792 
 PHE793  MET794  SER795  GLU796  ALA797  LYS798  CYS799  TRP800  GLU811  SER814 

> <Gold.Protein.RotatedAtoms>
  151.1662  135.0297  159.8731 H   0  0  0  0  0  0  0  0  0  0  0  0  # atno 6907 bound_to 6896
  152.5450  134.1222  159.8414 H   0  0  0  0  0  0  0  0  0  0  0  0  # atno 6908 bound_to 6896
  151.1323  133.4982  159.2631 H   0  0  0  0  0  0  0  0  0  0  0  0  # atno 6909 bound_to 6896
  144.8429  139.6296  143.6008 H   0  0  0  0  0  0  0  0  0  0  0  0  # atno 7974 bound_to 7965
  154.4000  140.1402  156.3815 H   0  0  0  0  0  0  0  0  0  0  0  0  # atno 8008 bound_to 7997
  155.7999  140.3476  155.5376 H   0  0  0  0  0  0  0  0  0  0  0  0  # atno 8009 bound_to 7997
  155.8494  140.0939  157.1675 H   0  0  0  0  0  0  0  0  0  0  0  0  # atno 8010 bound_to 7997
  139.6567  143.9986  152.2198 H   0  0  0  0  0  0  0  0  0  0  0  0  # atno 10167 bound_to 10162
  157.2133  131.0702  151.1956 H   0  0  0  0  0  0  0  0  0  0  0  0  # atno 10718 bound_to 10713
  154.3864  135.6062  153.5819 H   0  0  0  0  0  0  0  0  0  0  0  0  # atno 10763 bound_to 10752
  152.9787  135.5873  154.4350 H   0  0  0  0  0  0  0  0  0  0  0  0  # atno 10764 bound_to 10752
  154.4127  135.2844  155.2004 H   0  0  0  0  0  0  0  0  0  0  0  0  # atno 10765 bound_to 10752
  140.3525  134.7183  157.4277 H   0  0  0  0  0  0  0  0  0  0  0  0  # atno 11005 bound_to 11000
  146.2718  139.6655  142.9290 LP  0  0  0  0  0  0  0  0  0  0  0  0  # atno 17320 bound_to 7965
  145.4657  141.0434  143.2726 LP  0  0  0  0  0  0  0  0  0  0  0  0  # atno 17321 bound_to 7965
  139.9714  144.6491  150.7986 LP  0  0  0  0  0  0  0  0  0  0  0  0  # atno 17342 bound_to 10162
  140.7562  143.3062  151.2957 LP  0  0  0  0  0  0  0  0  0  0  0  0  # atno 17343 bound_to 10162
  157.3650  130.7151  149.6527 LP  0  0  0  0  0  0  0  0  0  0  0  0  # atno 17370 bound_to 10713
  155.9688  130.4215  150.4471 LP  0  0  0  0  0  0  0  0  0  0  0  0  # atno 17371 bound_to 10713
  140.0692  134.5887  155.8661 LP  0  0  0  0  0  0  0  0  0  0  0  0  # atno 17394 bound_to 11000
  141.2008  133.6614  156.5916 LP  0  0  0  0  0  0  0  0  0  0  0  0  # atno 17395 bound_to 11000

$$$$
