AV-unprocessed.smi:2893|AV-procd|sdf|11124|dock8
  -GOLD-   2272015593D 1   1.00000     0.00000
 Structure written by MMmdl.
 37 39  0  0  0  0  0  0  0  0  1 V2000
  138.7840  141.1964  153.7781 C   0  0  0  0  0  0  0  0  0  0  0  0
  138.1434  139.8999  153.2646 C   0  0  0  0  0  0  0  0  0  0  0  0
  139.1113  138.8116  153.1958 N   0  0  0  0  0  0  0  0  0  0  0  0
  139.2884  137.8688  154.1377 C   0  0  0  0  0  0  0  0  0  0  0  0
  138.6257  137.8189  155.1749 O   0  0  0  0  0  0  0  0  0  0  0  0
  140.3310  136.8255  153.8358 C   0  0  0  0  0  0  0  0  0  0  0  0
  141.5645  137.2019  153.2611 C   0  0  0  0  0  0  0  0  0  0  0  0
  142.4975  136.1875  152.9858 C   0  0  0  0  0  0  0  0  0  0  0  0
  142.1369  134.8631  153.2984 C   0  0  0  0  0  0  0  0  0  0  0  0
  143.0506  133.8327  153.0363 N   0  0  0  0  0  0  0  0  0  0  0  0
  144.1820  134.0327  152.1356 C   0  0  2  0  0  0  0  0  0  0  0  0
  143.7690  134.5801  150.7672 C   0  0  0  0  0  0  0  0  0  0  0  0
  144.4167  133.5667  149.8129 C   0  0  2  0  0  0  0  0  0  0  0  0
  143.6473  132.2398  149.7934 C   0  0  0  0  0  0  0  0  0  0  0  0
  144.0102  131.6513  151.1552 C   0  0  0  0  0  0  0  0  0  0  0  0
  144.9251  132.7407  151.7402 C   0  0  1  0  0  0  0  0  0  0  0  0
  145.5634  133.1881  150.5560 O   0  0  0  0  0  0  0  0  0  0  0  0
  140.9356  134.5622  153.8492 N   0  0  0  0  0  0  0  0  0  0  0  0
  140.0465  135.5267  154.1089 N   0  0  0  0  0  0  0  0  0  0  0  0
  138.0405  141.9895  153.8596 H   0  0  0  0  0  0  0  0  0  0  0  0
  139.5679  141.5471  153.1060 H   0  0  0  0  0  0  0  0  0  0  0  0
  139.2266  141.0538  154.7643 H   0  0  0  0  0  0  0  0  0  0  0  0
  137.3396  139.5970  153.9359 H   0  0  0  0  0  0  0  0  0  0  0  0
  137.6872  140.0622  152.2867 H   0  0  0  0  0  0  0  0  0  0  0  0
  139.6958  138.7683  152.3730 H   0  0  0  0  0  0  0  0  0  0  0  0
  141.7964  138.2332  153.0377 H   0  0  0  0  0  0  0  0  0  0  0  0
  143.4570  136.4217  152.5482 H   0  0  0  0  0  0  0  0  0  0  0  0
  143.0282  132.9965  153.6017 H   0  0  0  0  0  0  0  0  0  0  0  0
  144.8851  134.7324  152.5899 H   0  0  0  0  0  0  0  0  0  0  0  0
  142.6890  134.6407  150.6243 H   0  0  0  0  0  0  0  0  0  0  0  0
  144.1856  135.5767  150.6183 H   0  0  0  0  0  0  0  0  0  0  0  0
  144.6331  133.9670  148.8221 H   0  0  0  0  0  0  0  0  0  0  0  0
  142.5738  132.3826  149.6650 H   0  0  0  0  0  0  0  0  0  0  0  0
  144.0058  131.5944  148.9907 H   0  0  0  0  0  0  0  0  0  0  0  0
  143.1385  131.4445  151.7761 H   0  0  0  0  0  0  0  0  0  0  0  0
  144.5606  130.7185  151.0285 H   0  0  0  0  0  0  0  0  0  0  0  0
  145.6139  132.3742  152.5017 H   0  0  0  0  0  0  0  0  0  0  0  0
  1  2  1  0  0  0  0
  1 20  1  0  0  0  0
  1 21  1  0  0  0  0
  1 22  1  0  0  0  0
  2  3  1  0  0  0  0
  2 23  1  0  0  0  0
  2 24  1  0  0  0  0
  3  4  1  0  0  0  0
  3 25  1  0  0  0  0
  4  5  2  0  0  0  0
  4  6  1  0  0  0  0
  6 19  1  0  0  0  0
  6  7  2  0  0  0  0
  7  8  1  0  0  0  0
  7 26  1  0  0  0  0
  8  9  2  0  0  0  0
  8 27  1  0  0  0  0
  9 10  1  0  0  0  0
  9 18  1  0  0  0  0
 10 11  1  0  0  0  0
 10 28  1  0  0  0  0
 11 16  1  0  0  0  0
 11 12  1  0  0  0  0
 11 29  1  0  0  0  0
 12 13  1  0  0  0  0
 12 30  1  0  0  0  0
 12 31  1  0  0  0  0
 13 17  1  0  0  0  0
 13 14  1  0  0  0  0
 13 32  1  0  0  0  0
 14 15  1  0  0  0  0
 14 33  1  0  0  0  0
 14 34  1  0  0  0  0
 15 16  1  0  0  0  0
 15 35  1  0  0  0  0
 15 36  1  0  0  0  0
 16 17  1  0  0  0  0
 16 37  1  0  0  0  0
 18 19  2  0  0  0  0
M  END
> <s_m_source_file>
AV-unprocessed.smi

> <i_m_source_file_index>
2893

> <i_lp_mmshare_version>
43012

> <i_f3d_flags>
0

> <s_epik_input>
W0NIM11bQ0gyXVtOSF1DKD1PKWMxW2NIXVtjSF1jKG5uMSlbTkhdW0NASF0oW0NIMl1bQ0BASF0yMylbQ0BASF0oTzMpW0NIMl1bQ0gyXTI=

> <s_epik_cmdline>
J2VwaWtfcHl0aG9uJywgJy1waCcsICc3LjAnLCAnLXRuJywgJzgnLCAnLW1hJywgJzIwMCcsICctbWV0YWxfYmluZGluZycsICctaW1hZScsICc8aW5maWxlLm1hZT4nLCAnLW9tYWUnLCAnPG91dGZpbGUubWFlPic=

> <r_lp_tautomer_probability>
1

> <r_epik_Ionization_Penalty>
0.00432031

> <r_epik_Ionization_Penalty_Charging>
0

> <r_epik_Ionization_Penalty_Neutral>
0.00432031

> <r_epik_State_Penalty>
-0

> <r_epik_Charging_Adjusted_Penalty>
0

> <i_epik_Tot_Q>
0

> <i_epik_Tot_abs_Q>
0

> <r_epik_Metal_State_Penalty>
-0

> <b_epik_Metal_Only>
0

> <s_lp_Force_Field>
OPLS_2005

> <r_lp_Energy>
51.9869

> <b_lp_Chiralities_Consistent>
1

> <s_lp_Variant>
AV-unprocessed.smi:2893-3

> <Gold.Version>
5.8.1

> <Gold.Id.Protein>
6NUR|6NUR_protein|mol2

> <Gold.PLP.Fitness>
39.9409

> <Gold.PLP.PLP>
-36.5724

> <Gold.PLP.part.hbond>
-4.3083

> <Gold.PLP.part.metal>
0.0000

> <Gold.PLP.part.buried>
-6.0403

> <Gold.PLP.part.nonpolar>
-25.5937

> <Gold.PLP.part.repulsive>
0.5651

> <Gold.PLP.ligand.clash>
0.0000

> <Gold.PLP.ligand.torsion>
0.9786

> <Gold.PLP.Chemscore.Hbond>
1.7688

> <Gold.PLP.Chemscore.CHOScore>
0.0000

> <Gold.PLP.Chemscore.Metal>
0.0000

> <Gold.Chemscore.Hbonds>
donor molecule, donor type, donor heavy atom, donor atom, acceptor molecule, acceptor atom, score
      L1  H     3    25       P1 10160  0.01
      L1  H    10    28       P1 10957  1.00
      P1  H 11000 11005       L1    18  0.20

> <Gold.PLP.Chemscore.Internal.Correction>
0.0193

> <Gold.Rescore>
     Score         DG    S(hbond)    S(metal)    S(lipo)     H(rot)  DE(clash)    DE(int)     intcor
     14.39     -16.09       1.46        0.00      75.40       1.21       0.49       1.21       ----

> <Gold.Chemscore.Fitness>
14.3865

> <Gold.Chemscore.DG>
-16.0903

> <Gold.Chemscore.ZeroCoef>
-5.4800

> <Gold.Chemscore.Hbond>
1.4599

> <Gold.Chemscore.Metal>
0.0000

> <Gold.Chemscore.Lipo>
75.3991

> <Gold.Chemscore.Internal_Hbond>
0.0000

> <Gold.Chemscore.DEClash>
0.4922

> <Gold.Chemscore.DEInternal>
1.2116

> <Gold.Chemscore.Rot>
1.2061

> <Gold.Chemscore.Internal.Correction>
   9.000000E+99

> <Gold.Chemscore.Hbonds>
donor molecule, donor type, donor heavy atom, donor atom, acceptor molecule, acceptor atom, score
      L1  H     3    25       P1 10160  0.06
      L1  H    10    28       P1 10957  0.94

> <Gold.Chemscore.Hbond.Weighted>
-4.8762

> <Gold.Chemscore.Metal.Weighted>
-0.0000

> <Gold.Chemscore.Lipo.Weighted>
-8.8217

> <Gold.Chemscore.Internal_Hbond.Weighted>
0.0000

> <Gold.Chemscore.DEClash.Weighted>
0.4922

> <Gold.Chemscore.DEInternal.Weighted>
1.2116

> <Gold.Chemscore.Rot.Weighted>
3.0876

> <Gold.Chemscore.Internal.Correction.Weighted>
   9.000000E+99

> <Gold.Protein.RotatedTorsions>
[ 6907 6896 6895 6894 ] final  141.02 input  -60.11 | X-H torsion
[ 7974 7965 7964 7962 ] final  132.38 input  175.53 | X-H torsion
[ 8008 7997 7996 7995 ] final  123.32 input   59.86 | X-H torsion
[ 10167 10162 10161 10158 ] final  -48.08 input  -65.29 | X-H torsion
[ 10718 10713 10712 10709 ] final  153.08 input   66.30 | X-H torsion
[ 10763 10752 10751 10750 ] final -153.35 input  -60.55 | X-H torsion
[ 11005 11000 10999 10996 ] final    4.72 input  -57.11 | X-H torsion

> <Gold.Protein.ActiveResidues>
 VAL166  LYS551  ARG553  GLY616  TRP617  ASP618  TYR619  PRO620  LYS621  CYS622 
 ASP623  PHE694  ASN695  SER759  ASP760  ASP761  ALA762  ILE779  LEU786  VAL792 
 PHE793  MET794  SER795  GLU796  ALA797  LYS798  CYS799  TRP800  GLU811  SER814 

> <Gold.Protein.RotatedAtoms>
  152.2360  133.5096  159.5242 H   0  0  0  0  0  0  0  0  0  0  0  0  # atno 6907 bound_to 6896
  150.7051  134.1153  159.4024 H   0  0  0  0  0  0  0  0  0  0  0  0  # atno 6908 bound_to 6896
  151.9074  135.0353  160.0562 H   0  0  0  0  0  0  0  0  0  0  0  0  # atno 6909 bound_to 6896
  144.9975  139.4345  143.5309 H   0  0  0  0  0  0  0  0  0  0  0  0  # atno 7974 bound_to 7965
  156.2761  140.2765  156.1608 H   0  0  0  0  0  0  0  0  0  0  0  0  # atno 8008 bound_to 7997
  155.0756  140.0387  157.2640 H   0  0  0  0  0  0  0  0  0  0  0  0  # atno 8009 bound_to 7997
  154.7005  140.2648  155.6730 H   0  0  0  0  0  0  0  0  0  0  0  0  # atno 8010 bound_to 7997
  140.6747  143.2755  151.4020 H   0  0  0  0  0  0  0  0  0  0  0  0  # atno 10167 bound_to 10162
  157.2494  131.0775  151.1740 H   0  0  0  0  0  0  0  0  0  0  0  0  # atno 10718 bound_to 10713
  154.7934  135.3215  154.7725 H   0  0  0  0  0  0  0  0  0  0  0  0  # atno 10763 bound_to 10752
  153.8409  135.6871  153.4807 H   0  0  0  0  0  0  0  0  0  0  0  0  # atno 10764 bound_to 10752
  153.1613  135.4659  154.9718 H   0  0  0  0  0  0  0  0  0  0  0  0  # atno 10765 bound_to 10752
  140.5787  134.0033  155.8038 H   0  0  0  0  0  0  0  0  0  0  0  0  # atno 11005 bound_to 11000
  146.3445  139.9343  142.8749 LP  0  0  0  0  0  0  0  0  0  0  0  0  # atno 17320 bound_to 7965
  145.2200  140.9931  143.4051 LP  0  0  0  0  0  0  0  0  0  0  0  0  # atno 17321 bound_to 7965
  139.6032  144.1251  152.2221 LP  0  0  0  0  0  0  0  0  0  0  0  0  # atno 17342 bound_to 10162
  140.0642  144.5832  150.7240 LP  0  0  0  0  0  0  0  0  0  0  0  0  # atno 17343 bound_to 10162
  157.3294  130.6977  149.6315 LP  0  0  0  0  0  0  0  0  0  0  0  0  # atno 17370 bound_to 10713
  155.9667  130.4312  150.4909 LP  0  0  0  0  0  0  0  0  0  0  0  0  # atno 17371 bound_to 10713
  141.1010  133.9768  157.3079 LP  0  0  0  0  0  0  0  0  0  0  0  0  # atno 17394 bound_to 11000
  139.9327  135.0199  156.8454 LP  0  0  0  0  0  0  0  0  0  0  0  0  # atno 17395 bound_to 11000

$$$$
