AV-unprocessed.smi:713|AV-procd|sdf|3478|dock1
  -GOLD-   22720 0473D 1   1.00000     0.00000
 Structure written by MMmdl.
 41 42  0  0  0  0  0  0  0  0  1 V2000
  153.9697  141.6935  160.3454 C   0  0  0  0  0  0  0  0  0  0  0  0
  152.5656  141.7674  159.7119 C   0  0  2  0  0  0  0  0  0  0  0  0
  152.3849  140.7490  158.5761 C   0  0  0  0  0  0  0  0  0  0  0  0
  153.3050  139.9940  158.2591 O   0  0  0  0  0  0  0  0  0  0  0  0
  151.1876  140.7410  157.9685 N   0  0  0  0  0  0  0  0  0  0  0  0
  150.8061  139.8662  156.8641 C   0  0  2  0  0  0  0  0  0  0  0  0
  151.9443  139.8208  155.8281 C   0  0  0  0  0  0  0  0  0  0  0  0
  151.5657  138.9557  154.6161 C   0  0  0  0  0  0  0  0  0  0  0  0
  150.2569  139.4395  153.9733 C   0  0  0  0  0  0  0  0  0  0  0  0
  149.1093  139.4773  154.9984 C   0  0  2  0  0  0  0  0  0  0  0  0
  147.5652  140.0992  154.1903 S   0  0  0  0  0  0  0  0  0  0  0  0
  148.0556  141.7780  153.6148 C   0  0  0  0  0  0  0  0  0  0  0  0
  147.2925  139.2755  153.0023 O   0  0  0  0  0  0  0  0  0  0  0  0
  146.5296  140.2468  155.2242 O   0  0  0  0  0  0  0  0  0  0  0  0
  149.4923  140.3465  156.2124 C   0  0  0  0  0  0  0  0  0  0  0  0
  152.2346  143.1082  159.2423 N   0  0  0  0  0  0  0  0  0  0  0  0
  152.2468  144.2850  159.9636 C   0  0  0  0  0  0  0  0  0  0  0  0
  151.8246  145.2823  159.1322 C   0  0  0  0  0  0  0  0  0  0  0  0
  151.5578  144.6103  157.9075 C   0  0  0  0  0  0  0  0  0  0  0  0
  151.7939  143.3110  157.9783 N   0  0  0  0  0  0  0  0  0  0  0  0
  154.1675  140.6978  160.7439 H   0  0  0  0  0  0  0  0  0  0  0  0
  154.0597  142.3991  161.1718 H   0  0  0  0  0  0  0  0  0  0  0  0
  154.7591  141.9232  159.6285 H   0  0  0  0  0  0  0  0  0  0  0  0
  151.8488  141.5198  160.4969 H   0  0  0  0  0  0  0  0  0  0  0  0
  150.4891  141.3941  158.2926 H   0  0  0  0  0  0  0  0  0  0  0  0
  150.6594  138.8563  157.2524 H   0  0  0  0  0  0  0  0  0  0  0  0
  152.1778  140.8315  155.4896 H   0  0  0  0  0  0  0  0  0  0  0  0
  152.8537  139.4308  156.2873 H   0  0  0  0  0  0  0  0  0  0  0  0
  152.3698  138.9750  153.8799 H   0  0  0  0  0  0  0  0  0  0  0  0
  151.4575  137.9162  154.9279 H   0  0  0  0  0  0  0  0  0  0  0  0
  150.4042  140.4339  153.5496 H   0  0  0  0  0  0  0  0  0  0  0  0
  149.9946  138.7855  153.1413 H   0  0  0  0  0  0  0  0  0  0  0  0
  148.9038  138.4603  155.3346 H   0  0  0  0  0  0  0  0  0  0  0  0
  147.1843  142.2827  153.1981 H   0  0  0  0  0  0  0  0  0  0  0  0
  148.8216  141.7008  152.8442 H   0  0  0  0  0  0  0  0  0  0  0  0
  148.4383  142.3564  154.4555 H   0  0  0  0  0  0  0  0  0  0  0  0
  148.6905  140.3274  156.9495 H   0  0  0  0  0  0  0  0  0  0  0  0
  149.6000  141.3862  155.9002 H   0  0  0  0  0  0  0  0  0  0  0  0
  152.5523  144.3149  160.9992 H   0  0  0  0  0  0  0  0  0  0  0  0
  151.7172  146.3313  159.3648 H   0  0  0  0  0  0  0  0  0  0  0  0
  151.1973  145.0239  156.9770 H   0  0  0  0  0  0  0  0  0  0  0  0
  1  2  1  0  0  0  0
  1 21  1  0  0  0  0
  1 22  1  0  0  0  0
  1 23  1  0  0  0  0
  2  3  1  0  0  0  0
  2 16  1  0  0  0  0
  2 24  1  0  0  0  0
  3  4  2  0  0  0  0
  3  5  1  0  0  0  0
  5  6  1  0  0  0  0
  5 25  1  0  0  0  0
  6 15  1  0  0  0  0
  6  7  1  0  0  0  0
  6 26  1  0  0  0  0
  7  8  1  0  0  0  0
  7 27  1  0  0  0  0
  7 28  1  0  0  0  0
  8  9  1  0  0  0  0
  8 29  1  0  0  0  0
  8 30  1  0  0  0  0
  9 10  1  0  0  0  0
  9 31  1  0  0  0  0
  9 32  1  0  0  0  0
 10 11  1  0  0  0  0
 10 15  1  0  0  0  0
 10 33  1  0  0  0  0
 11 12  1  0  0  0  0
 11 13  2  0  0  0  0
 11 14  2  0  0  0  0
 12 34  1  0  0  0  0
 12 35  1  0  0  0  0
 12 36  1  0  0  0  0
 15 37  1  0  0  0  0
 15 38  1  0  0  0  0
 16 20  1  0  0  0  0
 16 17  1  0  0  0  0
 17 18  2  0  0  0  0
 17 39  1  0  0  0  0
 18 19  1  0  0  0  0
 18 40  1  0  0  0  0
 19 20  2  0  0  0  0
 19 41  1  0  0  0  0
M  END
> <s_m_source_file>
AV-unprocessed.smi

> <i_m_source_file_index>
713

> <i_lp_mmshare_version>
43012

> <i_f3d_flags>
0

> <s_epik_input>
bjFbY0hdW2NIXVtjSF1uMVtDQEhdKFtDSDNdKUMoPU8pW05IXVtDQEBIXTJbQ0gyXVtDSDJdW0NIMl1bQ0BIXShbQ0gyXTIpUyg9TykoPU8pW0NIM10=

> <s_epik_cmdline>
J2VwaWtfcHl0aG9uJywgJy1waCcsICc3LjAnLCAnLXRuJywgJzgnLCAnLW1hJywgJzIwMCcsICctbWV0YWxfYmluZGluZycsICctaW1hZScsICc8aW5maWxlLm1hZT4nLCAnLW9tYWUnLCAnPG91dGZpbGUubWFlPic=

> <r_lp_tautomer_probability>
1

> <r_epik_Ionization_Penalty>
4.07816e-05

> <r_epik_Ionization_Penalty_Charging>
0

> <r_epik_Ionization_Penalty_Neutral>
4.07816e-05

> <r_epik_State_Penalty>
-0

> <r_epik_Charging_Adjusted_Penalty>
0

> <i_epik_Tot_Q>
0

> <i_epik_Tot_abs_Q>
0

> <r_epik_Metal_State_Penalty>
-0

> <b_epik_Metal_Only>
0

> <s_lp_Force_Field>
OPLS_2005

> <r_lp_Energy>
7.47495

> <b_lp_Chiralities_Consistent>
1

> <s_lp_Variant>
AV-unprocessed.smi:713-5

> <Gold.Version>
5.8.1

> <Gold.Id.Protein>
6NUR|6NUR_protein|mol2

> <Gold.PLP.Fitness>
46.8355

> <Gold.PLP.PLP>
-41.2602

> <Gold.PLP.part.hbond>
-1.0000

> <Gold.PLP.part.metal>
0.0000

> <Gold.PLP.part.buried>
-4.2388

> <Gold.PLP.part.nonpolar>
-36.6045

> <Gold.PLP.part.repulsive>
0.4413

> <Gold.PLP.ligand.clash>
0.0000

> <Gold.PLP.ligand.torsion>
0.3304

> <Gold.PLP.Chemscore.Hbond>
1.0000

> <Gold.PLP.Chemscore.CHOScore>
1.0000

> <Gold.PLP.Chemscore.Metal>
0.0000

> <Gold.Chemscore.Hbonds>
donor molecule, donor type, donor heavy atom, donor atom, acceptor molecule, acceptor atom, score
      P1  H  7997  8010       L1     4  0.98
      L1  C    19    41       P1  8028  0.75

> <Gold.PLP.Chemscore.Internal.Correction>
0.2361

> <Gold.Rescore>
     Score         DG    S(hbond)    S(metal)    S(lipo)     H(rot)  DE(clash)    DE(int)     intcor
     13.09     -16.27       0.96        0.00     102.52       1.72       0.05       3.14       ----

> <Gold.Chemscore.Fitness>
13.0897

> <Gold.Chemscore.DG>
-16.2717

> <Gold.Chemscore.ZeroCoef>
-5.4800

> <Gold.Chemscore.Hbond>
0.9620

> <Gold.Chemscore.Metal>
0.0000

> <Gold.Chemscore.Lipo>
102.5150

> <Gold.Chemscore.Internal_Hbond>
0.0000

> <Gold.Chemscore.DEClash>
0.0469

> <Gold.Chemscore.DEInternal>
3.1352

> <Gold.Chemscore.Rot>
1.7249

> <Gold.Chemscore.Internal.Correction>
   9.000000E+99

> <Gold.Chemscore.Hbonds>
donor molecule, donor type, donor heavy atom, donor atom, acceptor molecule, acceptor atom, score
      P1  H  7997  8010       L1     4  0.92

> <Gold.Chemscore.Hbond.Weighted>
-3.2132

> <Gold.Chemscore.Metal.Weighted>
-0.0000

> <Gold.Chemscore.Lipo.Weighted>
-11.9943

> <Gold.Chemscore.Internal_Hbond.Weighted>
0.0000

> <Gold.Chemscore.DEClash.Weighted>
0.0469

> <Gold.Chemscore.DEInternal.Weighted>
3.1352

> <Gold.Chemscore.Rot.Weighted>
4.4157

> <Gold.Chemscore.Internal.Correction.Weighted>
   9.000000E+99

> <Gold.Protein.RotatedTorsions>
[ 6907 6896 6895 6894 ] final -108.36 input  -60.11 | X-H torsion
[ 7974 7965 7964 7962 ] final   78.81 input  175.53 | X-H torsion
[ 8008 7997 7996 7995 ] final   21.23 input   59.86 | X-H torsion
[ 10167 10162 10161 10158 ] final   89.62 input  -65.29 | X-H torsion
[ 10718 10713 10712 10709 ] final  -75.82 input   66.30 | X-H torsion
[ 10763 10752 10751 10750 ] final -169.96 input  -60.55 | X-H torsion
[ 11005 11000 10999 10996 ] final   74.88 input  -57.11 | X-H torsion

> <Gold.Protein.ActiveResidues>
 VAL166  LYS551  ARG553  GLY616  TRP617  ASP618  TYR619  PRO620  LYS621  CYS622 
 ASP623  PHE694  ASN695  SER759  ASP760  ASP761  ALA762  ILE779  LEU786  VAL792 
 PHE793  MET794  SER795  GLU796  ALA797  LYS798  CYS799  TRP800  GLU811  SER814 

> <Gold.Protein.RotatedAtoms>
  150.7497  133.9688  159.3538 H   0  0  0  0  0  0  0  0  0  0  0  0  # atno 6907 bound_to 6896
  151.7620  135.0805  160.0356 H   0  0  0  0  0  0  0  0  0  0  0  0  # atno 6908 bound_to 6896
  152.3396  133.6015  159.5903 H   0  0  0  0  0  0  0  0  0  0  0  0  # atno 6909 bound_to 6896
  145.6723  139.2500  143.1861 H   0  0  0  0  0  0  0  0  0  0  0  0  # atno 7974 bound_to 7965
  154.9475  140.3061  155.5091 H   0  0  0  0  0  0  0  0  0  0  0  0  # atno 8008 bound_to 7997
  156.2990  140.2325  156.4488 H   0  0  0  0  0  0  0  0  0  0  0  0  # atno 8009 bound_to 7997
  154.8086  140.0430  157.1314 H   0  0  0  0  0  0  0  0  0  0  0  0  # atno 8010 bound_to 7997
  139.8554  144.6572  150.9120 H   0  0  0  0  0  0  0  0  0  0  0  0  # atno 10167 bound_to 10162
  156.0195  130.4450  150.3100 H   0  0  0  0  0  0  0  0  0  0  0  0  # atno 10718 bound_to 10713
  154.6466  135.2905  155.0038 H   0  0  0  0  0  0  0  0  0  0  0  0  # atno 10763 bound_to 10752
  154.1146  135.6557  153.4895 H   0  0  0  0  0  0  0  0  0  0  0  0  # atno 10764 bound_to 10752
  153.0354  135.5273  154.7356 H   0  0  0  0  0  0  0  0  0  0  0  0  # atno 10765 bound_to 10752
  139.9370  134.7470  156.1202 H   0  0  0  0  0  0  0  0  0  0  0  0  # atno 11005 bound_to 11000
  146.1035  140.7516  142.9538 LP  0  0  0  0  0  0  0  0  0  0  0  0  # atno 17320 bound_to 7965
  144.7053  140.3824  143.7123 LP  0  0  0  0  0  0  0  0  0  0  0  0  # atno 17321 bound_to 7965
  140.7782  143.3790  151.1510 LP  0  0  0  0  0  0  0  0  0  0  0  0  # atno 17342 bound_to 10162
  139.7425  143.8903  152.3054 LP  0  0  0  0  0  0  0  0  0  0  0  0  # atno 17343 bound_to 10162
  157.1202  131.0244  151.3012 LP  0  0  0  0  0  0  0  0  0  0  0  0  # atno 17370 bound_to 10713
  157.4634  130.7666  149.7257 LP  0  0  0  0  0  0  0  0  0  0  0  0  # atno 17371 bound_to 10713
  141.0988  133.6685  156.2706 LP  0  0  0  0  0  0  0  0  0  0  0  0  # atno 17394 bound_to 11000
  140.6050  134.5516  157.5524 LP  0  0  0  0  0  0  0  0  0  0  0  0  # atno 17395 bound_to 11000

$$$$
