AV-unprocessed.smi:1097|AV-procd|sdf|4752|dock5
  -GOLD-   22720 3293D 1   1.00000     0.00000
 Structure written by MMmdl.
 40 41  0  0  0  0  0  0  0  0  1 V2000
  151.6678  137.1604  156.7326 C   0  0  0  0  0  0  0  0  0  0  0  0
  151.5951  136.8685  155.3481 O   0  0  0  0  0  0  0  0  0  0  0  0
  150.3573  136.2825  154.9815 C   0  0  0  0  0  0  0  0  0  0  0  0
  149.2380  137.3053  155.1921 C   0  0  0  0  0  0  0  0  0  0  0  0
  149.7546  138.6037  154.9175 O   0  0  0  0  0  0  0  0  0  0  0  0
  148.8730  139.6255  154.6173 C   0  0  0  0  0  0  0  0  0  0  0  0
  147.7083  139.2986  154.0009 N   0  0  0  0  0  0  0  0  0  0  0  0
  146.8397  140.2822  153.6904 C   0  0  0  0  0  0  0  0  0  0  0  0
  147.0805  141.6383  153.9744 C   0  0  0  0  0  0  0  0  0  0  0  0
  148.2858  141.9823  154.6128 C   0  0  0  0  0  0  0  0  0  0  0  0
  149.2124  140.9655  154.9406 C   0  0  0  0  0  0  0  0  0  0  0  0
  150.4958  141.3055  155.6466 C   0  0  0  0  0  0  0  0  0  0  0  0
  151.4682  140.5512  155.6067 O   0  0  0  0  0  0  0  0  0  0  0  0
  150.5043  142.4898  156.2794 N   0  0  0  0  0  0  0  0  0  0  0  0
  151.6402  143.0367  157.0159 C   0  0  1  0  0  0  0  0  0  0  0  0
  151.3169  144.4139  157.6168 C   0  0  0  0  0  0  0  0  0  0  0  0
  151.7963  144.3007  159.0541 C   0  0  0  0  0  0  0  0  0  0  0  0
  151.8001  145.2521  159.8337 O   0  0  0  0  0  0  0  0  0  0  0  0
  152.2000  143.0567  159.3282 N   0  0  0  0  0  0  0  0  0  0  0  0
  152.7095  142.5899  160.6104 C   0  0  0  0  0  0  0  0  0  0  0  0
  152.0323  142.1443  158.2111 C   0  0  0  0  0  0  0  0  0  0  0  0
  152.6367  137.6027  156.9637 H   0  0  0  0  0  0  0  0  0  0  0  0
  151.5590  136.2558  157.3323 H   0  0  0  0  0  0  0  0  0  0  0  0
  150.8945  137.8710  157.0274 H   0  0  0  0  0  0  0  0  0  0  0  0
  150.3838  135.9693  153.9366 H   0  0  0  0  0  0  0  0  0  0  0  0
  150.1696  135.3950  155.5879 H   0  0  0  0  0  0  0  0  0  0  0  0
  148.4049  137.0803  154.5243 H   0  0  0  0  0  0  0  0  0  0  0  0
  148.8755  137.2474  156.2198 H   0  0  0  0  0  0  0  0  0  0  0  0
  145.9250  139.9788  153.2032 H   0  0  0  0  0  0  0  0  0  0  0  0
  146.3562  142.3954  153.7127 H   0  0  0  0  0  0  0  0  0  0  0  0
  148.4859  143.0172  154.8499 H   0  0  0  0  0  0  0  0  0  0  0  0
  149.6669  143.0530  156.2451 H   0  0  0  0  0  0  0  0  0  0  0  0
  152.4948  143.1435  156.3449 H   0  0  0  0  0  0  0  0  0  0  0  0
  151.8342  145.2185  157.0938 H   0  0  0  0  0  0  0  0  0  0  0  0
  150.2477  144.6297  157.6131 H   0  0  0  0  0  0  0  0  0  0  0  0
  153.5695  143.1838  160.9219 H   0  0  0  0  0  0  0  0  0  0  0  0
  153.0217  141.5469  160.5527 H   0  0  0  0  0  0  0  0  0  0  0  0
  151.9397  142.6711  161.3786 H   0  0  0  0  0  0  0  0  0  0  0  0
  151.2518  141.4230  158.4599 H   0  0  0  0  0  0  0  0  0  0  0  0
  152.9519  141.5923  158.0116 H   0  0  0  0  0  0  0  0  0  0  0  0
  1  2  1  0  0  0  0
  1 22  1  0  0  0  0
  1 23  1  0  0  0  0
  1 24  1  0  0  0  0
  2  3  1  0  0  0  0
  3  4  1  0  0  0  0
  3 25  1  0  0  0  0
  3 26  1  0  0  0  0
  4  5  1  0  0  0  0
  4 27  1  0  0  0  0
  4 28  1  0  0  0  0
  5  6  1  0  0  0  0
  6 11  1  0  0  0  0
  6  7  2  0  0  0  0
  7  8  1  0  0  0  0
  8  9  2  0  0  0  0
  8 29  1  0  0  0  0
  9 10  1  0  0  0  0
  9 30  1  0  0  0  0
 10 11  2  0  0  0  0
 10 31  1  0  0  0  0
 11 12  1  0  0  0  0
 12 13  2  0  0  0  0
 12 14  1  0  0  0  0
 14 15  1  0  0  0  0
 14 32  1  0  0  0  0
 15 21  1  0  0  0  0
 15 16  1  0  0  0  0
 15 33  1  0  0  0  0
 16 17  1  0  0  0  0
 16 34  1  0  0  0  0
 16 35  1  0  0  0  0
 17 18  2  0  0  0  0
 17 19  1  0  0  0  0
 19 20  1  0  0  0  0
 19 21  1  0  0  0  0
 20 36  1  0  0  0  0
 20 37  1  0  0  0  0
 20 38  1  0  0  0  0
 21 39  1  0  0  0  0
 21 40  1  0  0  0  0
M  END
> <s_m_source_file>
AV-unprocessed.smi

> <i_m_source_file_index>
1097

> <i_lp_mmshare_version>
43012

> <i_f3d_flags>
0

> <s_epik_input>
W0NIM11PW0NIMl1bQ0gyXU9jMW5bY0hdW2NIXVtjSF1jMUMoPU8pW05IXVtDQEBIXTJbQ0gyXUMoPU8pTihbQ0gzXSlbQ0gyXTI=

> <s_epik_cmdline>
J2VwaWtfcHl0aG9uJywgJy1waCcsICc3LjAnLCAnLXRuJywgJzgnLCAnLW1hJywgJzIwMCcsICctbWV0YWxfYmluZGluZycsICctaW1hZScsICc8aW5maWxlLm1hZT4nLCAnLW9tYWUnLCAnPG91dGZpbGUubWFlPic=

> <r_lp_tautomer_probability>
1

> <r_epik_Ionization_Penalty>
2.30122e-06

> <r_epik_Ionization_Penalty_Charging>
0

> <r_epik_Ionization_Penalty_Neutral>
2.30122e-06

> <r_epik_State_Penalty>
-0

> <r_epik_Charging_Adjusted_Penalty>
0

> <i_epik_Tot_Q>
0

> <i_epik_Tot_abs_Q>
0

> <r_epik_Metal_State_Penalty>
-0

> <b_epik_Metal_Only>
0

> <s_lp_Force_Field>
OPLS_2005

> <r_lp_Energy>
19.8496

> <b_lp_Chiralities_Consistent>
1

> <s_lp_Variant>
AV-unprocessed.smi:1097-2

> <Gold.Version>
5.8.1

> <Gold.Id.Protein>
6NUR|6NUR_protein|mol2

> <Gold.PLP.Fitness>
45.9916

> <Gold.PLP.PLP>
-37.6522

> <Gold.PLP.part.hbond>
-3.0000

> <Gold.PLP.part.metal>
0.0000

> <Gold.PLP.part.buried>
-3.6532

> <Gold.PLP.part.nonpolar>
-32.2421

> <Gold.PLP.part.repulsive>
0.6262

> <Gold.PLP.ligand.clash>
0.0000

> <Gold.PLP.ligand.torsion>
0.8325

> <Gold.PLP.Chemscore.Hbond>
2.3128

> <Gold.PLP.Chemscore.CHOScore>
1.0000

> <Gold.PLP.Chemscore.Metal>
0.0000

> <Gold.Chemscore.Hbonds>
donor molecule, donor type, donor heavy atom, donor atom, acceptor molecule, acceptor atom, score
      L1  H    14    32       P1  8028  0.91
      P1  H  7989  7998       L1    13  0.31
      P1  H 10752 10764       L1     2  1.00
      L1  C     8    29       P1 10175  1.00

> <Gold.PLP.Chemscore.Internal.Correction>
0.0660

> <Gold.Rescore>
     Score         DG    S(hbond)    S(metal)    S(lipo)     H(rot)  DE(clash)    DE(int)     intcor
     10.84     -15.41       1.53        0.00      83.91       1.95       1.19       3.39       ----

> <Gold.Chemscore.Fitness>
10.8363

> <Gold.Chemscore.DG>
-15.4148

> <Gold.Chemscore.ZeroCoef>
-5.4800

> <Gold.Chemscore.Hbond>
1.5273

> <Gold.Chemscore.Metal>
0.0000

> <Gold.Chemscore.Lipo>
83.9109

> <Gold.Chemscore.Internal_Hbond>
0.0000

> <Gold.Chemscore.DEClash>
1.1852

> <Gold.Chemscore.DEInternal>
3.3933

> <Gold.Chemscore.Rot>
1.9468

> <Gold.Chemscore.Internal.Correction>
   9.000000E+99

> <Gold.Chemscore.Hbonds>
donor molecule, donor type, donor heavy atom, donor atom, acceptor molecule, acceptor atom, score
      L1  H    14    32       P1  8028  0.89
      P1  H  7989  7998       L1    13  0.01
      P1  H 10752 10764       L1     2  0.36

> <Gold.Chemscore.Hbond.Weighted>
-5.1011

> <Gold.Chemscore.Metal.Weighted>
-0.0000

> <Gold.Chemscore.Lipo.Weighted>
-9.8176

> <Gold.Chemscore.Internal_Hbond.Weighted>
0.0000

> <Gold.Chemscore.DEClash.Weighted>
1.1852

> <Gold.Chemscore.DEInternal.Weighted>
3.3933

> <Gold.Chemscore.Rot.Weighted>
4.9839

> <Gold.Chemscore.Internal.Correction.Weighted>
   9.000000E+99

> <Gold.Protein.RotatedTorsions>
[ 6907 6896 6895 6894 ] final -110.18 input  -60.11 | X-H torsion
[ 7974 7965 7964 7962 ] final  168.34 input  175.53 | X-H torsion
[ 8008 7997 7996 7995 ] final  -17.45 input   59.86 | X-H torsion
[ 10167 10162 10161 10158 ] final  -11.78 input  -65.29 | X-H torsion
[ 10718 10713 10712 10709 ] final  173.64 input   66.30 | X-H torsion
[ 10763 10752 10751 10750 ] final  -63.74 input  -60.55 | X-H torsion
[ 11005 11000 10999 10996 ] final  -76.03 input  -57.11 | X-H torsion

> <Gold.Protein.ActiveResidues>
 VAL166  LYS551  ARG553  GLY616  TRP617  ASP618  TYR619  PRO620  LYS621  CYS622 
 ASP623  PHE694  ASN695  SER759  ASP760  ASP761  ALA762  ILE779  LEU786  VAL792 
 PHE793  MET794  SER795  GLU796  ALA797  LYS798  CYS799  TRP800  GLU811  SER814 

> <Gold.Protein.RotatedAtoms>
  150.7608  133.9420  159.3458 H   0  0  0  0  0  0  0  0  0  0  0  0  # atno 6907 bound_to 6896
  151.7329  135.0869  160.0312 H   0  0  0  0  0  0  0  0  0  0  0  0  # atno 6908 bound_to 6896
  152.3578  133.6221  159.6028 H   0  0  0  0  0  0  0  0  0  0  0  0  # atno 6909 bound_to 6896
  144.7392  139.8892  143.6402 H   0  0  0  0  0  0  0  0  0  0  0  0  # atno 7974 bound_to 7965
  154.4977  140.2142  155.9411 H   0  0  0  0  0  0  0  0  0  0  0  0  # atno 8008 bound_to 7997
  156.1393  140.3182  155.8437 H   0  0  0  0  0  0  0  0  0  0  0  0  # atno 8009 bound_to 7997
  155.4151  140.0493  157.3020 H   0  0  0  0  0  0  0  0  0  0  0  0  # atno 8010 bound_to 7997
  140.7146  143.5602  150.9203 H   0  0  0  0  0  0  0  0  0  0  0  0  # atno 10167 bound_to 10162
  156.9614  131.0062  151.2926 H   0  0  0  0  0  0  0  0  0  0  0  0  # atno 10718 bound_to 10713
  154.3196  135.6199  153.5502 H   0  0  0  0  0  0  0  0  0  0  0  0  # atno 10763 bound_to 10752
  152.9821  135.5721  154.5085 H   0  0  0  0  0  0  0  0  0  0  0  0  # atno 10764 bound_to 10752
  154.4750  135.2861  155.1590 H   0  0  0  0  0  0  0  0  0  0  0  0  # atno 10765 bound_to 10752
  141.1650  133.6968  156.7606 H   0  0  0  0  0  0  0  0  0  0  0  0  # atno 11005 bound_to 11000
  146.1154  139.4164  143.0261 LP  0  0  0  0  0  0  0  0  0  0  0  0  # atno 17320 bound_to 7965
  145.7382  141.0018  143.1315 LP  0  0  0  0  0  0  0  0  0  0  0  0  # atno 17321 bound_to 7965
  139.9328  143.6473  152.3072 LP  0  0  0  0  0  0  0  0  0  0  0  0  # atno 17342 bound_to 10162
  139.6930  144.7644  151.1405 LP  0  0  0  0  0  0  0  0  0  0  0  0  # atno 17343 bound_to 10162
  157.5655  130.8275  149.8322 LP  0  0  0  0  0  0  0  0  0  0  0  0  # atno 17370 bound_to 10713
  156.0321  130.3762  150.1660 LP  0  0  0  0  0  0  0  0  0  0  0  0  # atno 17371 bound_to 10713
  140.2537  134.8521  157.3692 LP  0  0  0  0  0  0  0  0  0  0  0  0  # atno 17394 bound_to 11000
  140.1678  134.4647  155.7851 LP  0  0  0  0  0  0  0  0  0  0  0  0  # atno 17395 bound_to 11000

$$$$
