AV-unprocessed.smi:1691|AV-procd|sdf|6775|dock2
  -GOLD-   22720 7533D 1   1.00000     0.00000
 Structure written by MMmdl.
 44 45  0  0  0  0  0  0  0  0  2 V2000
  147.8784  140.9201  153.7517 C   0  0  0  0  0  0  0  0  0  0  0  0
  147.8139  139.4935  153.1697 C   0  0  0  0  0  0  0  0  0  0  0  0
  146.6369  139.4151  152.1781 C   0  0  0  0  0  0  0  0  0  0  0  0
  147.7420  138.4118  154.2878 C   0  0  1  0  0  0  0  0  0  0  0  0
  146.5542  137.4268  154.0916 C   0  0  0  0  0  0  0  0  0  0  0  0
  146.7376  136.5185  152.9630 N   0  0  0  0  0  0  0  0  0  0  0  0
  145.8319  135.6379  152.5144 C   0  0  0  0  0  0  0  0  0  0  0  0
  144.7178  135.4902  153.0158 O   0  0  0  0  0  0  0  0  0  0  0  0
  146.2960  134.9603  151.4523 N   0  0  0  0  0  0  0  0  0  0  0  0
  145.6125  133.9701  150.7036 C   0  0  0  0  0  0  0  0  0  0  0  0
  146.1061  132.7461  150.1638 C   0  0  0  0  0  0  0  0  0  0  0  0
  145.1525  132.0862  149.5223 N   0  0  0  0  0  0  0  0  0  0  0  0
  144.0604  132.8735  149.6449 N   0  0  0  0  0  0  0  0  0  0  0  0
  144.2960  134.0296  150.3557 C   0  0  0  0  0  0  0  0  0  0  0  0
  149.0735  137.7412  154.4301 N   0  3  0  0  0  0  0  0  0  0  0  0
  150.2382  138.6505  154.5641 C   0  0  0  0  0  0  0  0  0  0  0  0
  151.5437  137.8470  154.4430 C   0  0  0  0  0  0  0  0  0  0  0  0
  151.5627  136.8147  155.4223 O   0  0  0  0  0  0  0  0  0  0  0  0
  150.4950  135.8898  155.2490 C   0  0  0  0  0  0  0  0  0  0  0  0
  149.1501  136.6196  155.3994 C   0  0  0  0  0  0  0  0  0  0  0  0
  143.1720  132.6110  149.2418 H   0  0  0  0  0  0  0  0  0  0  0  0
  147.0116  141.1313  154.3787 H   0  0  0  0  0  0  0  0  0  0  0  0
  147.9005  141.6676  152.9581 H   0  0  0  0  0  0  0  0  0  0  0  0
  148.7732  141.0771  154.3539 H   0  0  0  0  0  0  0  0  0  0  0  0
  148.7252  139.3367  152.5917 H   0  0  0  0  0  0  0  0  0  0  0  0
  145.6776  139.4586  152.6951 H   0  0  0  0  0  0  0  0  0  0  0  0
  146.6615  138.5015  151.5850 H   0  0  0  0  0  0  0  0  0  0  0  0
  146.6654  140.2425  151.4683 H   0  0  0  0  0  0  0  0  0  0  0  0
  147.5563  138.9530  155.2171 H   0  0  0  0  0  0  0  0  0  0  0  0
  146.4506  136.7829  154.9637 H   0  0  0  0  0  0  0  0  0  0  0  0
  145.6169  137.9804  154.0178 H   0  0  0  0  0  0  0  0  0  0  0  0
  147.6285  136.5602  152.4895 H   0  0  0  0  0  0  0  0  0  0  0  0
  147.2311  135.1794  151.1416 H   0  0  0  0  0  0  0  0  0  0  0  0
  147.0958  132.3165  150.2089 H   0  0  0  0  0  0  0  0  0  0  0  0
  143.5299  134.7669  150.5447 H   0  0  0  0  0  0  0  0  0  0  0  0
  150.2080  139.4160  153.7881 H   0  0  0  0  0  0  0  0  0  0  0  0
  150.2213  139.1634  155.5245 H   0  0  0  0  0  0  0  0  0  0  0  0
  151.6470  137.4192  153.4445 H   0  0  0  0  0  0  0  0  0  0  0  0
  152.4027  138.4999  154.6000 H   0  0  0  0  0  0  0  0  0  0  0  0
  150.5697  135.4075  154.2729 H   0  0  0  0  0  0  0  0  0  0  0  0
  150.5822  135.1046  156.0001 H   0  0  0  0  0  0  0  0  0  0  0  0
  149.0576  136.9884  156.4196 H   0  0  0  0  0  0  0  0  0  0  0  0
  148.3321  135.9186  155.2352 H   0  0  0  0  0  0  0  0  0  0  0  0
  149.2143  137.3091  153.5281 H   0  0  0  0  0  0  0  0  0  0  0  0
  1  2  1  0  0  0  0
  1 22  1  0  0  0  0
  1 23  1  0  0  0  0
  1 24  1  0  0  0  0
  2  3  1  0  0  0  0
  2  4  1  0  0  0  0
  2 25  1  0  0  0  0
  3 26  1  0  0  0  0
  3 27  1  0  0  0  0
  3 28  1  0  0  0  0
  4  5  1  0  0  0  0
  4 15  1  0  0  0  0
  4 29  1  0  0  0  0
  5  6  1  0  0  0  0
  5 30  1  0  0  0  0
  5 31  1  0  0  0  0
  6  7  1  0  0  0  0
  6 32  1  0  0  0  0
  7  8  2  0  0  0  0
  7  9  1  0  0  0  0
  9 10  1  0  0  0  0
  9 33  1  0  0  0  0
 10 14  2  0  0  0  0
 10 11  1  0  0  0  0
 11 12  2  0  0  0  0
 11 34  1  0  0  0  0
 12 13  1  0  0  0  0
 13 21  1  0  0  0  0
 13 14  1  0  0  0  0
 14 35  1  0  0  0  0
 15 20  1  0  0  0  0
 15 16  1  0  0  0  0
 15 44  1  0  0  0  0
 16 17  1  0  0  0  0
 16 36  1  0  0  0  0
 16 37  1  0  0  0  0
 17 18  1  0  0  0  0
 17 38  1  0  0  0  0
 17 39  1  0  0  0  0
 18 19  1  0  0  0  0
 19 20  1  0  0  0  0
 19 40  1  0  0  0  0
 19 41  1  0  0  0  0
 20 42  1  0  0  0  0
 20 43  1  0  0  0  0
M  CHG  1  15   1
M  END
> <s_m_source_file>
AV-unprocessed.smi

> <i_m_source_file_index>
1691

> <i_lp_mmshare_version>
43012

> <i_f3d_flags>
0

> <s_epik_input>
W0NIMl0xW0NIMl1PW0NIMl1bQ0gyXU4xW0NASF0oW0NIXShbQ0gzXSlbQ0gzXSlbQ0gyXVtOSF1DKD1PKVtOSF1jMltjSF1uW25IXVtjSF0y

> <s_epik_cmdline>
J2VwaWtfcHl0aG9uJywgJy1waCcsICc3LjAnLCAnLXRuJywgJzgnLCAnLW1hJywgJzIwMCcsICctbWV0YWxfYmluZGluZycsICctaW1hZScsICc8aW5maWxlLm1hZT4nLCAnLW9tYWUnLCAnPG91dGZpbGUubWFlPic=

> <r_lp_tautomer_probability>
0.5

> <r_epik_Ionization_Penalty>
0.363378

> <r_epik_Ionization_Penalty_Charging>
0.363339

> <r_epik_Ionization_Penalty_Neutral>
3.97246e-05

> <r_epik_State_Penalty>
0.36031

> <r_epik_Charging_Adjusted_Penalty>
0.723649

> <i_epik_Tot_Q>
1

> <i_epik_Tot_abs_Q>
1

> <r_epik_Metal_State_Penalty>
0.360311

> <b_epik_Metal_Only>
0

> <s_lp_Force_Field>
OPLS_2005

> <r_lp_Energy>
33.682

> <b_lp_Chiralities_Consistent>
1

> <s_lp_Variant>
AV-unprocessed.smi:1691-2

> <Gold.Version>
5.8.1

> <Gold.Id.Protein>
6NUR|6NUR_protein|mol2

> <Gold.PLP.Fitness>
43.3398

> <Gold.PLP.PLP>
-28.8336

> <Gold.PLP.part.hbond>
-3.8475

> <Gold.PLP.part.metal>
0.0000

> <Gold.PLP.part.buried>
-0.2709

> <Gold.PLP.part.nonpolar>
-25.7621

> <Gold.PLP.part.repulsive>
0.4836

> <Gold.PLP.ligand.clash>
0.0000

> <Gold.PLP.ligand.torsion>
1.8018

> <Gold.PLP.Chemscore.Hbond>
4.4261

> <Gold.PLP.Chemscore.CHOScore>
1.4702

> <Gold.PLP.Chemscore.Metal>
0.0000

> <Gold.Chemscore.Hbonds>
donor molecule, donor type, donor heavy atom, donor atom, acceptor molecule, acceptor atom, score
      L1  H     6    32       P1  7948  0.91
      L1  H     9    33       P1  7948  0.69
      L1  H    15    44       P1  7948  2.00
      P1  H 10752 10763       L1    18  0.79
      L1  C    11    34       P1 10747  1.00
      L1  C    14    35       P1 10186  0.43

> <Gold.PLP.Chemscore.Internal.Correction>
0.4209

> <Gold.Rescore>
     Score         DG    S(hbond)    S(metal)    S(lipo)     H(rot)  DE(clash)    DE(int)     intcor
     15.10     -18.08       2.58        0.00      74.39       1.84       0.06       2.92       ----

> <Gold.Chemscore.Fitness>
15.1034

> <Gold.Chemscore.DG>
-18.0800

> <Gold.Chemscore.ZeroCoef>
-5.4800

> <Gold.Chemscore.Hbond>
2.5788

> <Gold.Chemscore.Metal>
0.0000

> <Gold.Chemscore.Lipo>
74.3904

> <Gold.Chemscore.Internal_Hbond>
0.0000

> <Gold.Chemscore.DEClash>
0.0600

> <Gold.Chemscore.DEInternal>
2.9166

> <Gold.Chemscore.Rot>
1.8425

> <Gold.Chemscore.Internal.Correction>
   9.000000E+99

> <Gold.Chemscore.Hbonds>
donor molecule, donor type, donor heavy atom, donor atom, acceptor molecule, acceptor atom, score
      L1  H     6    32       P1  7948  0.89
      L1  H     9    33       P1  7948  0.40
      L1  H    15    44       P1  7948  0.97
      P1  H 10752 10763       L1    18  0.08

> <Gold.Chemscore.Hbond.Weighted>
-8.6131

> <Gold.Chemscore.Metal.Weighted>
-0.0000

> <Gold.Chemscore.Lipo.Weighted>
-8.7037

> <Gold.Chemscore.Internal_Hbond.Weighted>
0.0000

> <Gold.Chemscore.DEClash.Weighted>
0.0600

> <Gold.Chemscore.DEInternal.Weighted>
2.9166

> <Gold.Chemscore.Rot.Weighted>
4.7168

> <Gold.Chemscore.Internal.Correction.Weighted>
   9.000000E+99

> <Gold.Protein.RotatedTorsions>
[ 6907 6896 6895 6894 ] final  119.24 input  -60.11 | X-H torsion
[ 7974 7965 7964 7962 ] final  -83.94 input  175.53 | X-H torsion
[ 8008 7997 7996 7995 ] final  176.22 input   59.86 | X-H torsion
[ 10167 10162 10161 10158 ] final -152.98 input  -65.29 | X-H torsion
[ 10718 10713 10712 10709 ] final -125.43 input   66.30 | X-H torsion
[ 10763 10752 10751 10750 ] final   84.38 input  -60.55 | X-H torsion
[ 11005 11000 10999 10996 ] final  -59.04 input  -57.11 | X-H torsion

> <Gold.Protein.ActiveResidues>
 VAL166  LYS551  ARG553  GLY616  TRP617  ASP618  TYR619  PRO620  LYS621  CYS622 
 ASP623  PHE694  ASN695  SER759  ASP760  ASP761  ALA762  ILE779  LEU786  VAL792 
 PHE793  MET794  SER795  GLU796  ALA797  LYS798  CYS799  TRP800  GLU811  SER814 

> <Gold.Protein.RotatedAtoms>
  152.4486  133.7585  159.6732 H   0  0  0  0  0  0  0  0  0  0  0  0  # atno 6907 bound_to 6896
  150.8392  133.7953  159.3073 H   0  0  0  0  0  0  0  0  0  0  0  0  # atno 6908 bound_to 6896
  151.5583  135.1068  160.0018 H   0  0  0  0  0  0  0  0  0  0  0  0  # atno 6909 bound_to 6896
  145.5132  140.9538  143.1695 H   0  0  0  0  0  0  0  0  0  0  0  0  # atno 7974 bound_to 7965
  156.0787  140.1389  156.9739 H   0  0  0  0  0  0  0  0  0  0  0  0  # atno 8008 bound_to 7997
  154.4573  140.0956  156.6842 H   0  0  0  0  0  0  0  0  0  0  0  0  # atno 8009 bound_to 7997
  155.5110  140.3453  155.4390 H   0  0  0  0  0  0  0  0  0  0  0  0  # atno 8010 bound_to 7997
  139.7136  143.9070  152.2477 H   0  0  0  0  0  0  0  0  0  0  0  0  # atno 10167 bound_to 10162
  156.1675  130.6644  151.0135 H   0  0  0  0  0  0  0  0  0  0  0  0  # atno 10718 bound_to 10713
  153.1377  135.4656  154.9447 H   0  0  0  0  0  0  0  0  0  0  0  0  # atno 10763 bound_to 10752
  154.7720  135.3161  154.8173 H   0  0  0  0  0  0  0  0  0  0  0  0  # atno 10764 bound_to 10752
  153.8702  135.6904  153.4829 H   0  0  0  0  0  0  0  0  0  0  0  0  # atno 10765 bound_to 10752
  141.1232  133.6614  156.5011 H   0  0  0  0  0  0  0  0  0  0  0  0  # atno 11005 bound_to 11000
  144.7716  139.6723  143.7192 LP  0  0  0  0  0  0  0  0  0  0  0  0  # atno 17320 bound_to 7965
  146.2153  139.5538  142.9654 LP  0  0  0  0  0  0  0  0  0  0  0  0  # atno 17321 bound_to 7965
  139.8945  144.6946  150.8733 LP  0  0  0  0  0  0  0  0  0  0  0  0  # atno 17342 bound_to 10162
  140.7738  143.3560  151.1920 LP  0  0  0  0  0  0  0  0  0  0  0  0  # atno 17343 bound_to 10162
  157.6778  131.0846  150.7448 LP  0  0  0  0  0  0  0  0  0  0  0  0  # atno 17370 bound_to 10713
  156.7508  130.4768  149.5457 LP  0  0  0  0  0  0  0  0  0  0  0  0  # atno 17371 bound_to 10713
  140.4445  134.6985  157.5008 LP  0  0  0  0  0  0  0  0  0  0  0  0  # atno 17394 bound_to 11000
  140.0207  134.6552  155.9244 LP  0  0  0  0  0  0  0  0  0  0  0  0  # atno 17395 bound_to 11000

$$$$
