AV-unprocessed.smi:246|AV-procd|sdf|1887|dock9
  -GOLD-   2262020543D 1   1.00000     0.00000
 Structure written by MMmdl.
 57 60  0  0  0  0  0  0  0  0  1 V2000
  153.4827  142.2691  159.7892 C   0  0  0  0  0  0  0  0  0  0  0  0
  152.8018  143.6001  160.1363 C   0  0  0  0  0  0  0  0  0  0  0  0
  152.6055  144.4115  158.9865 O   0  0  0  0  0  0  0  0  0  0  0  0
  151.3723  144.1895  158.3179 C   0  0  0  0  0  0  0  0  0  0  0  0
  151.4002  142.8030  157.6690 C   0  0  0  0  0  0  0  0  0  0  0  0
  150.0793  142.2833  157.6277 O   0  0  0  0  0  0  0  0  0  0  0  0
  149.9022  141.2648  156.6545 C   0  0  2  0  0  0  0  0  0  0  0  0
  149.7543  141.8618  155.2564 C   0  0  0  0  0  0  0  0  0  0  0  0
  149.0222  140.7556  154.4991 C   0  0  0  0  0  0  0  0  0  0  0  0
  148.1414  140.1502  155.4892 N   0  0  0  0  0  0  0  0  0  0  0  0
  147.4796  138.9905  155.2426 C   0  0  0  0  0  0  0  0  0  0  0  0
  147.3033  138.1029  156.2573 N   0  0  0  0  0  0  0  0  0  0  0  0
  146.6484  136.9570  156.0503 C   0  0  0  0  0  0  0  0  0  0  0  0
  146.0999  136.5017  154.9230 N   0  0  0  0  0  0  0  0  0  0  0  0
  146.2838  137.3789  153.8952 C   0  0  0  0  0  0  0  0  0  0  0  0
  146.9622  138.6298  153.9639 C   0  0  0  0  0  0  0  0  0  0  0  0
  146.9709  139.2267  152.7078 N   0  0  0  0  0  0  0  0  0  0  0  0
  146.3277  138.3852  151.9468 C   0  0  0  0  0  0  0  0  0  0  0  0
  145.8632  137.2563  152.5823 N   0  0  0  0  0  0  0  0  0  0  0  0
  145.1092  136.1688  151.9797 C   0  0  0  0  0  0  0  0  0  0  0  0
  145.9472  134.9080  151.6634 C   0  0  1  0  0  0  0  0  0  0  0  0
  146.8969  134.6582  152.6813 O   0  0  0  0  0  0  0  0  0  0  0  0
  145.1330  133.6277  151.3649 C   0  0  1  0  0  0  0  0  0  0  0  0
  144.1416  133.7261  150.1998 C   0  0  0  0  0  0  0  0  0  0  0  0
  144.0446  132.2838  149.7553 C   0  0  0  0  0  0  0  0  0  0  0  0
  145.4837  131.8147  149.9345 C   0  0  0  0  0  0  0  0  0  0  0  0
  145.9566  132.4954  151.0906 O   0  0  0  0  0  0  0  0  0  0  0  0
  148.6018  140.4682  156.8350 C   0  0  0  0  0  0  0  0  0  0  0  0
  150.7557  140.5840  156.6492 H   0  0  0  0  0  0  0  0  0  0  0  0
  153.7135  141.7082  160.6948 H   0  0  0  0  0  0  0  0  0  0  0  0
  154.4178  142.4367  159.2547 H   0  0  0  0  0  0  0  0  0  0  0  0
  152.8487  141.6370  159.1684 H   0  0  0  0  0  0  0  0  0  0  0  0
  151.8607  143.4347  160.6630 H   0  0  0  0  0  0  0  0  0  0  0  0
  153.4449  144.1542  160.8204 H   0  0  0  0  0  0  0  0  0  0  0  0
  150.5234  144.2685  158.9970 H   0  0  0  0  0  0  0  0  0  0  0  0
  151.2433  144.9466  157.5431 H   0  0  0  0  0  0  0  0  0  0  0  0
  151.7824  142.8902  156.6508 H   0  0  0  0  0  0  0  0  0  0  0  0
  152.0736  142.1414  158.2155 H   0  0  0  0  0  0  0  0  0  0  0  0
  149.1305  142.7561  155.2960 H   0  0  0  0  0  0  0  0  0  0  0  0
  150.7077  142.1324  154.8021 H   0  0  0  0  0  0  0  0  0  0  0  0
  148.4619  141.1481  153.6501 H   0  0  0  0  0  0  0  0  0  0  0  0
  149.7342  140.0149  154.1320 H   0  0  0  0  0  0  0  0  0  0  0  0
  146.5486  136.3139  156.9121 H   0  0  0  0  0  0  0  0  0  0  0  0
  146.1587  138.5737  150.8965 H   0  0  0  0  0  0  0  0  0  0  0  0
  144.2914  135.9073  152.6520 H   0  0  0  0  0  0  0  0  0  0  0  0
  144.6427  136.5436  151.0679 H   0  0  0  0  0  0  0  0  0  0  0  0
  146.5273  135.1338  150.7680 H   0  0  0  0  0  0  0  0  0  0  0  0
  147.6893  135.1308  152.4764 H   0  0  0  0  0  0  0  0  0  0  0  0
  144.5648  133.3697  152.2598 H   0  0  0  0  0  0  0  0  0  0  0  0
  143.1806  134.1477  150.4953 H   0  0  0  0  0  0  0  0  0  0  0  0
  144.5401  134.3316  149.3851 H   0  0  0  0  0  0  0  0  0  0  0  0
  143.3809  131.7284  150.4193 H   0  0  0  0  0  0  0  0  0  0  0  0
  143.6830  132.1719  148.7329 H   0  0  0  0  0  0  0  0  0  0  0  0
  145.5659  130.7332  150.0441 H   0  0  0  0  0  0  0  0  0  0  0  0
  146.0915  132.1179  149.0810 H   0  0  0  0  0  0  0  0  0  0  0  0
  148.7722  139.5767  157.4399 H   0  0  0  0  0  0  0  0  0  0  0  0
  147.8405  141.0759  157.3254 H   0  0  0  0  0  0  0  0  0  0  0  0
  1  2  1  0  0  0  0
  1 30  1  0  0  0  0
  1 31  1  0  0  0  0
  1 32  1  0  0  0  0
  2  3  1  0  0  0  0
  2 33  1  0  0  0  0
  2 34  1  0  0  0  0
  3  4  1  0  0  0  0
  4  5  1  0  0  0  0
  4 35  1  0  0  0  0
  4 36  1  0  0  0  0
  5  6  1  0  0  0  0
  5 37  1  0  0  0  0
  5 38  1  0  0  0  0
  6  7  1  0  0  0  0
  7 29  1  0  0  0  0
  7 28  1  0  0  0  0
  7  8  1  0  0  0  0
  8  9  1  0  0  0  0
  8 39  1  0  0  0  0
  8 40  1  0  0  0  0
  9 10  1  0  0  0  0
  9 41  1  0  0  0  0
  9 42  1  0  0  0  0
 10 11  1  0  0  0  0
 10 28  1  0  0  0  0
 11 16  1  0  0  0  0
 11 12  2  0  0  0  0
 12 13  1  0  0  0  0
 13 14  2  0  0  0  0
 13 43  1  0  0  0  0
 14 15  1  0  0  0  0
 15 19  1  0  0  0  0
 15 16  2  0  0  0  0
 16 17  1  0  0  0  0
 17 18  2  0  0  0  0
 18 19  1  0  0  0  0
 18 44  1  0  0  0  0
 19 20  1  0  0  0  0
 20 21  1  0  0  0  0
 20 45  1  0  0  0  0
 20 46  1  0  0  0  0
 21 22  1  0  0  0  0
 21 23  1  0  0  0  0
 21 47  1  0  0  0  0
 22 48  1  0  0  0  0
 23 27  1  0  0  0  0
 23 24  1  0  0  0  0
 23 49  1  0  0  0  0
 24 25  1  0  0  0  0
 24 50  1  0  0  0  0
 24 51  1  0  0  0  0
 25 26  1  0  0  0  0
 25 52  1  0  0  0  0
 25 53  1  0  0  0  0
 26 27  1  0  0  0  0
 26 54  1  0  0  0  0
 26 55  1  0  0  0  0
 28 56  1  0  0  0  0
 28 57  1  0  0  0  0
M  END
> <s_m_source_file>
AV-unprocessed.smi

> <i_m_source_file_index>
246

> <i_lp_mmshare_version>
43012

> <i_f3d_flags>
0

> <s_epik_input>
W0NIM11bQ0gyXU9bQ0gyXVtDSDJdT1tDQEhdMVtDSDJdW0NIMl1OKFtDSDJdMSljKG5bY0hdbjIpYyhjMjMpbltjSF1uM1tDSDJdW0NASF0oW09IXSlbQ0BASF00W0NIMl1bQ0gyXVtDSDJdTzQ=

> <s_epik_cmdline>
J2VwaWtfcHl0aG9uJywgJy1waCcsICc3LjAnLCAnLXRuJywgJzgnLCAnLW1hJywgJzIwMCcsICctbWV0YWxfYmluZGluZycsICctaW1hZScsICc8aW5maWxlLm1hZT4nLCAnLW9tYWUnLCAnPG91dGZpbGUubWFlPic=

> <r_lp_tautomer_probability>
1

> <r_epik_Ionization_Penalty>
0.0024631

> <r_epik_Ionization_Penalty_Charging>
0

> <r_epik_Ionization_Penalty_Neutral>
0.0024631

> <r_epik_State_Penalty>
0.00162428

> <r_epik_Charging_Adjusted_Penalty>
0.00162428

> <i_epik_Tot_Q>
0

> <i_epik_Tot_abs_Q>
0

> <r_epik_Metal_State_Penalty>
-0

> <b_epik_Metal_Only>
0

> <s_lp_Force_Field>
OPLS_2005

> <r_lp_Energy>
52.7235

> <b_lp_Chiralities_Consistent>
1

> <s_lp_Variant>
AV-unprocessed.smi:246-8

> <Gold.Version>
5.8.1

> <Gold.Id.Protein>
6NUR|6NUR_protein|mol2

> <Gold.PLP.Fitness>
48.2475

> <Gold.PLP.PLP>
-46.0154

> <Gold.PLP.part.hbond>
-1.0000

> <Gold.PLP.part.metal>
0.0000

> <Gold.PLP.part.buried>
-5.3370

> <Gold.PLP.part.nonpolar>
-41.6406

> <Gold.PLP.part.repulsive>
1.9132

> <Gold.PLP.ligand.clash>
0.0000

> <Gold.PLP.ligand.torsion>
1.3102

> <Gold.PLP.Chemscore.Hbond>
1.0000

> <Gold.PLP.Chemscore.CHOScore>
0.4321

> <Gold.PLP.Chemscore.Metal>
0.0000

> <Gold.Chemscore.Hbonds>
donor molecule, donor type, donor heavy atom, donor atom, acceptor molecule, acceptor atom, score
      L1  H    22    48       P1  7948  1.00
      L1  C    18    44       P1 10171  0.90

> <Gold.PLP.Chemscore.Internal.Correction>
0.5561

> <Gold.Rescore>
     Score         DG    S(hbond)    S(metal)    S(lipo)     H(rot)  DE(clash)    DE(int)     intcor
     12.59     -14.76       1.00        0.00     118.74       3.10       0.36       1.81       ----

> <Gold.Chemscore.Fitness>
12.5867

> <Gold.Chemscore.DG>
-14.7634

> <Gold.Chemscore.ZeroCoef>
-5.4800

> <Gold.Chemscore.Hbond>
0.9980

> <Gold.Chemscore.Metal>
0.0000

> <Gold.Chemscore.Lipo>
118.7421

> <Gold.Chemscore.Internal_Hbond>
0.0000

> <Gold.Chemscore.DEClash>
0.3635

> <Gold.Chemscore.DEInternal>
1.8133

> <Gold.Chemscore.Rot>
3.1026

> <Gold.Chemscore.Internal.Correction>
   9.000000E+99

> <Gold.Chemscore.Hbonds>
donor molecule, donor type, donor heavy atom, donor atom, acceptor molecule, acceptor atom, score
      L1  H    22    48       P1  7948  0.99

> <Gold.Chemscore.Hbond.Weighted>
-3.3332

> <Gold.Chemscore.Metal.Weighted>
-0.0000

> <Gold.Chemscore.Lipo.Weighted>
-13.8928

> <Gold.Chemscore.Internal_Hbond.Weighted>
0.0000

> <Gold.Chemscore.DEClash.Weighted>
0.3635

> <Gold.Chemscore.DEInternal.Weighted>
1.8133

> <Gold.Chemscore.Rot.Weighted>
7.9426

> <Gold.Chemscore.Internal.Correction.Weighted>
   9.000000E+99

> <Gold.Protein.RotatedTorsions>
[ 6907 6896 6895 6894 ] final  158.67 input  -60.11 | X-H torsion
[ 7974 7965 7964 7962 ] final  165.67 input  175.53 | X-H torsion
[ 8008 7997 7996 7995 ] final  -40.58 input   59.86 | X-H torsion
[ 10167 10162 10161 10158 ] final  -54.82 input  -65.29 | X-H torsion
[ 10718 10713 10712 10709 ] final -122.38 input   66.30 | X-H torsion
[ 10763 10752 10751 10750 ] final  -63.11 input  -60.55 | X-H torsion
[ 11005 11000 10999 10996 ] final  -11.42 input  -57.11 | X-H torsion

> <Gold.Protein.ActiveResidues>
 VAL166  LYS551  ARG553  GLY616  TRP617  ASP618  TYR619  PRO620  LYS621  CYS622 
 ASP623  PHE694  ASN695  SER759  ASP760  ASP761  ALA762  ILE779  LEU786  VAL792 
 PHE793  MET794  SER795  GLU796  ALA797  LYS798  CYS799  TRP800  GLU811  SER814 

> <Gold.Protein.RotatedAtoms>
  151.9969  133.3811  159.4166 H   0  0  0  0  0  0  0  0  0  0  0  0  # atno 6907 bound_to 6896
  150.6915  134.3876  159.5071 H   0  0  0  0  0  0  0  0  0  0  0  0  # atno 6908 bound_to 6896
  152.1618  134.8906  160.0592 H   0  0  0  0  0  0  0  0  0  0  0  0  # atno 6909 bound_to 6896
  144.7493  139.8504  143.6371 H   0  0  0  0  0  0  0  0  0  0  0  0  # atno 7974 bound_to 7965
  154.4011  140.1522  156.3050 H   0  0  0  0  0  0  0  0  0  0  0  0  # atno 8008 bound_to 7997
  155.8667  140.3451  155.5771 H   0  0  0  0  0  0  0  0  0  0  0  0  # atno 8009 bound_to 7997
  155.7820  140.0845  157.2044 H   0  0  0  0  0  0  0  0  0  0  0  0  # atno 8010 bound_to 7997
  140.6409  143.2507  151.4991 H   0  0  0  0  0  0  0  0  0  0  0  0  # atno 10167 bound_to 10162
  156.1413  130.6468  150.9776 H   0  0  0  0  0  0  0  0  0  0  0  0  # atno 10718 bound_to 10713
  154.3101  135.6217  153.5462 H   0  0  0  0  0  0  0  0  0  0  0  0  # atno 10763 bound_to 10752
  152.9830  135.5699  154.5187 H   0  0  0  0  0  0  0  0  0  0  0  0  # atno 10764 bound_to 10752
  154.4835  135.2864  155.1529 H   0  0  0  0  0  0  0  0  0  0  0  0  # atno 10765 bound_to 10752
  140.7551  133.8561  155.9077 H   0  0  0  0  0  0  0  0  0  0  0  0  # atno 11005 bound_to 11000
  146.1420  139.4479  143.0103 LP  0  0  0  0  0  0  0  0  0  0  0  0  # atno 17320 bound_to 7965
  145.7004  141.0138  143.1507 LP  0  0  0  0  0  0  0  0  0  0  0  0  # atno 17321 bound_to 7965
  139.5619  144.2136  152.1704 LP  0  0  0  0  0  0  0  0  0  0  0  0  # atno 17342 bound_to 10162
  140.1407  144.5205  150.6746 LP  0  0  0  0  0  0  0  0  0  0  0  0  # atno 17343 bound_to 10162
  157.6578  131.0886  150.7907 LP  0  0  0  0  0  0  0  0  0  0  0  0  # atno 17370 bound_to 10713
  156.7982  130.4912  149.5374 LP  0  0  0  0  0  0  0  0  0  0  0  0  # atno 17371 bound_to 10713
  140.9715  134.1525  157.4572 LP  0  0  0  0  0  0  0  0  0  0  0  0  # atno 17394 bound_to 11000
  139.8780  134.9980  156.5877 LP  0  0  0  0  0  0  0  0  0  0  0  0  # atno 17395 bound_to 11000

$$$$
