AV-unprocessed.smi:1295|AV-procd|sdf|5405|dock1
  -GOLD-   22720 4563D 1   1.00000     0.00000
 Structure written by MMmdl.
 43 44  0  0  0  0  0  0  0  0  1 V2000
  146.9225  138.7525  152.0690 C   0  0  0  0  0  0  0  0  0  0  0  0
  147.9722  139.3792  152.9611 C   0  0  0  0  0  0  0  0  0  0  0  0
  148.9874  138.5089  153.3223 N   0  0  0  0  0  0  0  0  0  0  0  0
  149.9958  138.9931  154.1367 C   0  0  0  0  0  0  0  0  0  0  0  0
  151.0703  137.9767  154.4830 C   0  0  0  0  0  0  0  0  0  0  0  0
  149.9936  140.2801  154.5677 C   0  0  0  0  0  0  0  0  0  0  0  0
  151.0928  140.8527  155.4609 C   0  0  0  0  0  0  0  0  0  0  0  0
  150.6096  141.5518  156.7335 C   0  0  0  0  0  0  0  0  0  0  0  0
  149.4081  141.7515  156.9116 O   0  0  0  0  0  0  0  0  0  0  0  0
  151.5610  141.9204  157.6054 N   0  0  0  0  0  0  0  0  0  0  0  0
  151.3439  142.6366  158.8617 C   0  0  2  0  0  0  0  0  0  0  0  0
  150.8276  144.0515  158.5355 C   0  0  0  0  0  0  0  0  0  0  0  0
  150.6320  144.8926  159.8049 C   0  0  0  0  0  0  0  0  0  0  0  0
  151.9294  144.9635  160.6208 C   0  0  0  0  0  0  0  0  0  0  0  0
  152.4403  143.5564  160.9645 C   0  0  0  0  0  0  0  0  0  0  0  0
  152.6447  142.6908  159.7041 C   0  0  1  0  0  0  0  0  0  0  0  0
  153.1609  141.2931  160.0907 C   0  0  0  0  0  0  0  0  0  0  0  0
  148.8826  141.1650  154.1446 C   0  0  0  0  0  0  0  0  0  0  0  0
  148.8288  142.3435  154.4929 O   0  0  0  0  0  0  0  0  0  0  0  0
  147.8820  140.6233  153.3213 N   0  0  0  0  0  0  0  0  0  0  0  0
  149.0294  137.5461  153.0212 H   0  0  0  0  0  0  0  0  0  0  0  0
  146.0693  139.4202  151.9431 H   0  0  0  0  0  0  0  0  0  0  0  0
  146.5614  137.8181  152.4999 H   0  0  0  0  0  0  0  0  0  0  0  0
  147.3400  138.5423  151.0841 H   0  0  0  0  0  0  0  0  0  0  0  0
  151.1101  137.8158  155.5604 H   0  0  0  0  0  0  0  0  0  0  0  0
  152.0480  138.3253  154.1496 H   0  0  0  0  0  0  0  0  0  0  0  0
  150.8803  137.0130  154.0086 H   0  0  0  0  0  0  0  0  0  0  0  0
  151.6769  141.5591  154.8697 H   0  0  0  0  0  0  0  0  0  0  0  0
  151.8039  140.0776  155.7476 H   0  0  0  0  0  0  0  0  0  0  0  0
  152.5190  141.7044  157.3709 H   0  0  0  0  0  0  0  0  0  0  0  0
  150.5752  142.1339  159.4516 H   0  0  0  0  0  0  0  0  0  0  0  0
  151.5312  144.5586  157.8734 H   0  0  0  0  0  0  0  0  0  0  0  0
  149.8842  143.9876  157.9916 H   0  0  0  0  0  0  0  0  0  0  0  0
  150.3031  145.8974  159.5389 H   0  0  0  0  0  0  0  0  0  0  0  0
  149.8388  144.4572  160.4140 H   0  0  0  0  0  0  0  0  0  0  0  0
  152.6904  145.5037  160.0564 H   0  0  0  0  0  0  0  0  0  0  0  0
  151.7611  145.5315  161.5360 H   0  0  0  0  0  0  0  0  0  0  0  0
  153.3771  143.6371  161.5172 H   0  0  0  0  0  0  0  0  0  0  0  0
  151.7304  143.0684  161.6338 H   0  0  0  0  0  0  0  0  0  0  0  0
  153.4183  143.1688  159.1011 H   0  0  0  0  0  0  0  0  0  0  0  0
  152.4123  140.7386  160.6574 H   0  0  0  0  0  0  0  0  0  0  0  0
  154.0583  141.3631  160.7057 H   0  0  0  0  0  0  0  0  0  0  0  0
  153.4192  140.7015  159.2126 H   0  0  0  0  0  0  0  0  0  0  0  0
  1 22  1  0  0  0  0
  1 23  1  0  0  0  0
  1 24  1  0  0  0  0
  1  2  1  0  0  0  0
  2  3  1  0  0  0  0
  2 20  2  0  0  0  0
  3  4  1  0  0  0  0
  3 21  1  0  0  0  0
  4  6  2  0  0  0  0
  4  5  1  0  0  0  0
  5 25  1  0  0  0  0
  5 26  1  0  0  0  0
  5 27  1  0  0  0  0
  6 18  1  0  0  0  0
  6  7  1  0  0  0  0
  7  8  1  0  0  0  0
  7 28  1  0  0  0  0
  7 29  1  0  0  0  0
  8  9  2  0  0  0  0
  8 10  1  0  0  0  0
 10 11  1  0  0  0  0
 10 30  1  0  0  0  0
 11 16  1  0  0  0  0
 11 12  1  0  0  0  0
 11 31  1  0  0  0  0
 12 13  1  0  0  0  0
 12 32  1  0  0  0  0
 12 33  1  0  0  0  0
 13 14  1  0  0  0  0
 13 34  1  0  0  0  0
 13 35  1  0  0  0  0
 14 15  1  0  0  0  0
 14 36  1  0  0  0  0
 14 37  1  0  0  0  0
 15 16  1  0  0  0  0
 15 38  1  0  0  0  0
 15 39  1  0  0  0  0
 16 17  1  0  0  0  0
 16 40  1  0  0  0  0
 17 41  1  0  0  0  0
 17 42  1  0  0  0  0
 17 43  1  0  0  0  0
 18 19  2  0  0  0  0
 18 20  1  0  0  0  0
M  END
> <s_m_source_file>
AV-unprocessed.smi

> <i_m_source_file_index>
1295

> <i_lp_mmshare_version>
43012

> <i_f3d_flags>
0

> <s_epik_input>
W0NIM11jMW5jKFtDSDNdKWMoYyg9TylbbkhdMSlbQ0gyXUMoPU8pW05IXVtDQEBIXTJbQ0gyXVtDSDJdW0NIMl1bQ0gyXVtDQEhdMltDSDNd

> <s_epik_cmdline>
J2VwaWtfcHl0aG9uJywgJy1waCcsICc3LjAnLCAnLXRuJywgJzgnLCAnLW1hJywgJzIwMCcsICctbWV0YWxfYmluZGluZycsICctaW1hZScsICc8aW5maWxlLm1hZT4nLCAnLW9tYWUnLCAnPG91dGZpbGUubWFlPic=

> <r_lp_tautomer_probability>
0.156392

> <r_epik_Ionization_Penalty>
0.0136057

> <r_epik_Ionization_Penalty_Charging>
0.0134742

> <r_epik_Ionization_Penalty_Neutral>
0.000131572

> <r_epik_State_Penalty>
1.15342

> <r_epik_Charging_Adjusted_Penalty>
1.16689

> <i_epik_Tot_Q>
0

> <i_epik_Tot_abs_Q>
0

> <r_epik_Metal_State_Penalty>
1.31351

> <b_epik_Metal_Only>
0

> <s_lp_Force_Field>
OPLS_2005

> <r_lp_Energy>
15.3725

> <b_lp_Chiralities_Consistent>
1

> <s_lp_Variant>
AV-unprocessed.smi:1295-5

> <Gold.Version>
5.8.1

> <Gold.Id.Protein>
6NUR|6NUR_protein|mol2

> <Gold.PLP.Fitness>
45.4013

> <Gold.PLP.PLP>
-42.7556

> <Gold.PLP.part.hbond>
-2.9701

> <Gold.PLP.part.metal>
0.0000

> <Gold.PLP.part.buried>
-2.8886

> <Gold.PLP.part.nonpolar>
-41.3271

> <Gold.PLP.part.repulsive>
4.1680

> <Gold.PLP.ligand.clash>
0.0000

> <Gold.PLP.ligand.torsion>
0.1696

> <Gold.PLP.Chemscore.Hbond>
0.9920

> <Gold.PLP.Chemscore.CHOScore>
0.0000

> <Gold.PLP.Chemscore.Metal>
0.0000

> <Gold.Chemscore.Hbonds>
donor molecule, donor type, donor heavy atom, donor atom, acceptor molecule, acceptor atom, score
      L1  H     3    21       P1  7948  1.00

> <Gold.PLP.Chemscore.Internal.Correction>
0.0088

> <Gold.Rescore>
     Score         DG    S(hbond)    S(metal)    S(lipo)     H(rot)  DE(clash)    DE(int)     intcor
     10.29     -18.27       1.00        0.00     113.12       1.48       4.06       3.93       ----

> <Gold.Chemscore.Fitness>
10.2873

> <Gold.Chemscore.DG>
-18.2727

> <Gold.Chemscore.ZeroCoef>
-5.4800

> <Gold.Chemscore.Hbond>
1.0019

> <Gold.Chemscore.Metal>
0.0000

> <Gold.Chemscore.Lipo>
113.1241

> <Gold.Chemscore.Internal_Hbond>
0.0000

> <Gold.Chemscore.DEClash>
4.0582

> <Gold.Chemscore.DEInternal>
3.9272

> <Gold.Chemscore.Rot>
1.4801

> <Gold.Chemscore.Internal.Correction>
   9.000000E+99

> <Gold.Chemscore.Hbonds>
donor molecule, donor type, donor heavy atom, donor atom, acceptor molecule, acceptor atom, score
      L1  H     3    21       P1  7948  0.98

> <Gold.Chemscore.Hbond.Weighted>
-3.3463

> <Gold.Chemscore.Metal.Weighted>
-0.0000

> <Gold.Chemscore.Lipo.Weighted>
-13.2355

> <Gold.Chemscore.Internal_Hbond.Weighted>
0.0000

> <Gold.Chemscore.DEClash.Weighted>
4.0582

> <Gold.Chemscore.DEInternal.Weighted>
3.9272

> <Gold.Chemscore.Rot.Weighted>
3.7891

> <Gold.Chemscore.Internal.Correction.Weighted>
   9.000000E+99

> <Gold.Protein.RotatedTorsions>
[ 6907 6896 6895 6894 ] final  -33.13 input  -60.11 | X-H torsion
[ 7974 7965 7964 7962 ] final   31.68 input  175.53 | X-H torsion
[ 8008 7997 7996 7995 ] final   82.60 input   59.86 | X-H torsion
[ 10167 10162 10161 10158 ] final  -25.74 input  -65.29 | X-H torsion
[ 10718 10713 10712 10709 ] final   44.22 input   66.30 | X-H torsion
[ 10763 10752 10751 10750 ] final  149.50 input  -60.55 | X-H torsion
[ 11005 11000 10999 10996 ] final  -64.77 input  -57.11 | X-H torsion

> <Gold.Protein.ActiveResidues>
 VAL166  LYS551  ARG553  GLY616  TRP617  ASP618  TYR619  PRO620  LYS621  CYS622 
 ASP623  PHE694  ASN695  SER759  ASP760  ASP761  ALA762  ILE779  LEU786  VAL792 
 PHE793  MET794  SER795  GLU796  ALA797  LYS798  CYS799  TRP800  GLU811  SER814 

> <Gold.Protein.RotatedAtoms>
  151.0696  134.9790  159.8301 H   0  0  0  0  0  0  0  0  0  0  0  0  # atno 6907 bound_to 6896
  152.5406  134.2315  159.8837 H   0  0  0  0  0  0  0  0  0  0  0  0  # atno 6908 bound_to 6896
  151.2339  133.4392  159.2638 H   0  0  0  0  0  0  0  0  0  0  0  0  # atno 6909 bound_to 6896
  146.1534  139.6624  142.9083 H   0  0  0  0  0  0  0  0  0  0  0  0  # atno 7974 bound_to 7965
  155.9127  140.3426  155.6111 H   0  0  0  0  0  0  0  0  0  0  0  0  # atno 8008 bound_to 7997
  155.7368  140.0802  157.2283 H   0  0  0  0  0  0  0  0  0  0  0  0  # atno 8009 bound_to 7997
  154.4058  140.1578  156.2558 H   0  0  0  0  0  0  0  0  0  0  0  0  # atno 8010 bound_to 7997
  140.7285  143.4239  151.0908 H   0  0  0  0  0  0  0  0  0  0  0  0  # atno 10167 bound_to 10162
  157.4245  130.7988  149.7545 H   0  0  0  0  0  0  0  0  0  0  0  0  # atno 10718 bound_to 10713
  154.0722  135.2866  155.3306 H   0  0  0  0  0  0  0  0  0  0  0  0  # atno 10763 bound_to 10752
  154.6739  135.5289  153.8177 H   0  0  0  0  0  0  0  0  0  0  0  0  # atno 10764 bound_to 10752
  153.0481  135.6564  154.0903 H   0  0  0  0  0  0  0  0  0  0  0  0  # atno 10765 bound_to 10752
  141.1435  133.6671  156.5884 H   0  0  0  0  0  0  0  0  0  0  0  0  # atno 11005 bound_to 11000
  145.4767  141.0437  143.2669 LP  0  0  0  0  0  0  0  0  0  0  0  0  # atno 17320 bound_to 7965
  144.7933  139.6284  143.7104 LP  0  0  0  0  0  0  0  0  0  0  0  0  # atno 17321 bound_to 7965
  139.7888  143.8249  152.3149 LP  0  0  0  0  0  0  0  0  0  0  0  0  # atno 17342 bound_to 10162
  139.8225  144.7289  150.9554 LP  0  0  0  0  0  0  0  0  0  0  0  0  # atno 17343 bound_to 10162
  155.9892  130.3954  150.3085 LP  0  0  0  0  0  0  0  0  0  0  0  0  # atno 17370 bound_to 10713
  157.1236  131.0253  151.2999 LP  0  0  0  0  0  0  0  0  0  0  0  0  # atno 17371 bound_to 10713
  140.3782  134.7546  157.4644 LP  0  0  0  0  0  0  0  0  0  0  0  0  # atno 17394 bound_to 11000
  140.0658  134.5932  155.8697 LP  0  0  0  0  0  0  0  0  0  0  0  0  # atno 17395 bound_to 11000

$$$$
