AV-unprocessed.smi:2298|AV-procd|sdf|9224|dock4
  -GOLD-   2272012443D 1   1.00000     0.00000
 Structure written by MMmdl.
 37 38  0  0  0  0  0  0  0  0  1 V2000
  150.7696  140.8485  155.7704 C   0  0  0  0  0  0  0  0  0  0  0  0
  149.4538  140.7186  155.0263 C   0  0  0  0  0  0  0  0  0  0  0  0
  148.6363  141.7917  155.0937 N   0  0  0  0  0  0  0  0  0  0  0  0
  147.4501  141.7264  154.4558 C   0  0  0  0  0  0  0  0  0  0  0  0
  147.0256  140.6024  153.7222 C   0  0  0  0  0  0  0  0  0  0  0  0
  147.8858  139.4812  153.6353 C   0  0  0  0  0  0  0  0  0  0  0  0
  147.5552  138.2856  152.9362 N   0  0  0  0  0  0  0  0  0  0  0  0
  146.3448  137.8032  152.6057 C   0  0  0  0  0  0  0  0  0  0  0  0
  145.2668  138.3404  152.8595 O   0  0  0  0  0  0  0  0  0  0  0  0
  146.4529  136.6454  151.9376 N   0  0  0  0  0  0  0  0  0  0  0  0
  145.3334  135.8572  151.4305 C   0  0  1  0  0  0  0  0  0  0  0  0
  145.8602  134.5543  150.7995 C   0  0  0  0  0  0  0  0  0  0  0  0
  144.7085  133.6654  150.3028 C   0  0  0  0  0  0  0  0  0  0  0  0
  143.7145  133.3622  151.4371 C   0  0  2  0  0  0  0  0  0  0  0  0
  142.6371  132.6032  150.9307 O   0  0  0  0  0  0  0  0  0  0  0  0
  143.1792  134.6603  152.0657 C   0  0  0  0  0  0  0  0  0  0  0  0
  144.3294  135.5514  152.5612 C   0  0  0  0  0  0  0  0  0  0  0  0
  149.1253  139.5400  154.3156 C   0  0  0  0  0  0  0  0  0  0  0  0
  150.2220  138.1995  154.2761 Cl  0  0  0  0  0  0  0  0  0  0  0  0
  144.8225  136.4255  150.6503 H   0  0  0  0  0  0  0  0  0  0  0  0
  144.2122  132.7675  152.2042 H   0  0  0  0  0  0  0  0  0  0  0  0
  151.6065  140.7508  155.0789 H   0  0  0  0  0  0  0  0  0  0  0  0
  150.8547  140.0702  156.5289 H   0  0  0  0  0  0  0  0  0  0  0  0
  150.8555  141.8150  156.2689 H   0  0  0  0  0  0  0  0  0  0  0  0
  146.8148  142.5959  154.5378 H   0  0  0  0  0  0  0  0  0  0  0  0
  146.0526  140.6227  153.2572 H   0  0  0  0  0  0  0  0  0  0  0  0
  148.3463  137.7617  152.5916 H   0  0  0  0  0  0  0  0  0  0  0  0
  147.3783  136.2789  151.7683 H   0  0  0  0  0  0  0  0  0  0  0  0
  146.5288  134.7848  149.9693 H   0  0  0  0  0  0  0  0  0  0  0  0
  146.4529  134.0016  151.5300 H   0  0  0  0  0  0  0  0  0  0  0  0
  144.1941  134.1669  149.4818 H   0  0  0  0  0  0  0  0  0  0  0  0
  145.1087  132.7359  149.8962 H   0  0  0  0  0  0  0  0  0  0  0  0
  142.2319  133.0877  150.2278 H   0  0  0  0  0  0  0  0  0  0  0  0
  142.5865  135.2116  151.3341 H   0  0  0  0  0  0  0  0  0  0  0  0
  142.5101  134.4277  152.8950 H   0  0  0  0  0  0  0  0  0  0  0  0
  144.8418  135.0539  153.3861 H   0  0  0  0  0  0  0  0  0  0  0  0
  143.9225  136.4789  152.9658 H   0  0  0  0  0  0  0  0  0  0  0  0
  1  2  1  0  0  0  0
  1 22  1  0  0  0  0
  1 23  1  0  0  0  0
  1 24  1  0  0  0  0
  2 18  1  0  0  0  0
  2  3  2  0  0  0  0
  3  4  1  0  0  0  0
  4  5  2  0  0  0  0
  4 25  1  0  0  0  0
  5  6  1  0  0  0  0
  5 26  1  0  0  0  0
  6  7  1  0  0  0  0
  6 18  2  0  0  0  0
  7  8  1  0  0  0  0
  7 27  1  0  0  0  0
  8  9  2  0  0  0  0
  8 10  1  0  0  0  0
 10 11  1  0  0  0  0
 10 28  1  0  0  0  0
 11 20  1  0  0  0  0
 11 17  1  0  0  0  0
 11 12  1  0  0  0  0
 12 13  1  0  0  0  0
 12 29  1  0  0  0  0
 12 30  1  0  0  0  0
 13 14  1  0  0  0  0
 13 31  1  0  0  0  0
 13 32  1  0  0  0  0
 14 21  1  0  0  0  0
 14 15  1  0  0  0  0
 14 16  1  0  0  0  0
 15 33  1  0  0  0  0
 16 17  1  0  0  0  0
 16 34  1  0  0  0  0
 16 35  1  0  0  0  0
 17 36  1  0  0  0  0
 17 37  1  0  0  0  0
 18 19  1  0  0  0  0
M  END
> <s_m_source_file>
AV-unprocessed.smi

> <i_m_source_file_index>
2298

> <i_lp_mmshare_version>
43012

> <i_f3d_flags>
0

> <s_epik_input>
W0NIM11jMW5bY0hdW2NIXWMoYzFDbClbTkhdQyg9TylbTkhdW0NASF0yW0NIMl1bQ0gyXVtDQEhdKFtPSF0pW0NIMl1bQ0gyXTI=

> <s_epik_cmdline>
J2VwaWtfcHl0aG9uJywgJy1waCcsICc3LjAnLCAnLXRuJywgJzgnLCAnLW1hJywgJzIwMCcsICctbWV0YWxfYmluZGluZycsICctaW1hZScsICc8aW5maWxlLm1hZT4nLCAnLW9tYWUnLCAnPG91dGZpbGUubWFlPic=

> <r_epik_Ionization_Penalty>
0.00999805

> <r_epik_Ionization_Penalty_Charging>
0

> <r_epik_Ionization_Penalty_Neutral>
0.00999805

> <r_epik_State_Penalty>
0.00759022

> <r_epik_Charging_Adjusted_Penalty>
0.00759022

> <i_epik_Tot_Q>
0

> <i_epik_Tot_abs_Q>
0

> <r_epik_Metal_State_Penalty>
0.00746447

> <b_epik_Metal_Only>
0

> <s_lp_Force_Field>
OPLS_2005

> <r_lp_Energy>
13.5765

> <b_lp_Chiralities_Consistent>
1

> <s_lp_Variant>
AV-unprocessed.smi:2298-1

> <Gold.Version>
5.8.1

> <Gold.Id.Protein>
6NUR|6NUR_protein|mol2

> <Gold.PLP.Fitness>
40.6533

> <Gold.PLP.PLP>
-32.0016

> <Gold.PLP.part.hbond>
-3.8006

> <Gold.PLP.part.metal>
0.0000

> <Gold.PLP.part.buried>
-3.6696

> <Gold.PLP.part.nonpolar>
-29.3628

> <Gold.PLP.part.repulsive>
4.2143

> <Gold.PLP.ligand.clash>
0.0000

> <Gold.PLP.ligand.torsion>
0.1400

> <Gold.PLP.Chemscore.Hbond>
2.9760

> <Gold.PLP.Chemscore.CHOScore>
0.0000

> <Gold.PLP.Chemscore.Metal>
0.0000

> <Gold.Chemscore.Hbonds>
donor molecule, donor type, donor heavy atom, donor atom, acceptor molecule, acceptor atom, score
      L1  H     7    27       P1  7948  0.98
      L1  H    10    28       P1  7948  1.00
      L1  H    15    33       P1 10186  1.00

> <Gold.PLP.Chemscore.Internal.Correction>
0.0036

> <Gold.Rescore>
     Score         DG    S(hbond)    S(metal)    S(lipo)     H(rot)  DE(clash)    DE(int)     intcor
     16.87     -20.92       2.94        0.00      79.14       1.42       1.62       2.43       ----

> <Gold.Chemscore.Fitness>
16.8714

> <Gold.Chemscore.DG>
-20.9232

> <Gold.Chemscore.ZeroCoef>
-5.4800

> <Gold.Chemscore.Hbond>
2.9397

> <Gold.Chemscore.Metal>
0.0000

> <Gold.Chemscore.Lipo>
79.1423

> <Gold.Chemscore.Internal_Hbond>
0.0000

> <Gold.Chemscore.DEClash>
1.6173

> <Gold.Chemscore.DEInternal>
2.4346

> <Gold.Chemscore.Rot>
1.4199

> <Gold.Chemscore.Internal.Correction>
   9.000000E+99

> <Gold.Chemscore.Hbonds>
donor molecule, donor type, donor heavy atom, donor atom, acceptor molecule, acceptor atom, score
      L1  H     7    27       P1  7948  0.93
      L1  H    10    28       P1  7948  0.94
      L1  H    15    33       P1 10186  0.96

> <Gold.Chemscore.Hbond.Weighted>
-9.8185

> <Gold.Chemscore.Metal.Weighted>
-0.0000

> <Gold.Chemscore.Lipo.Weighted>
-9.2597

> <Gold.Chemscore.Internal_Hbond.Weighted>
0.0000

> <Gold.Chemscore.DEClash.Weighted>
1.6173

> <Gold.Chemscore.DEInternal.Weighted>
2.4346

> <Gold.Chemscore.Rot.Weighted>
3.6349

> <Gold.Chemscore.Internal.Correction.Weighted>
   9.000000E+99

> <Gold.Protein.RotatedTorsions>
[ 6907 6896 6895 6894 ] final -109.87 input  -60.11 | X-H torsion
[ 7974 7965 7964 7962 ] final  123.92 input  175.53 | X-H torsion
[ 8008 7997 7996 7995 ] final -171.08 input   59.86 | X-H torsion
[ 10167 10162 10161 10158 ] final -109.48 input  -65.29 | X-H torsion
[ 10718 10713 10712 10709 ] final   80.00 input   66.30 | X-H torsion
[ 10763 10752 10751 10750 ] final   92.34 input  -60.55 | X-H torsion
[ 11005 11000 10999 10996 ] final  -71.90 input  -57.11 | X-H torsion

> <Gold.Protein.ActiveResidues>
 VAL166  LYS551  ARG553  GLY616  TRP617  ASP618  TYR619  PRO620  LYS621  CYS622 
 ASP623  PHE694  ASN695  SER759  ASP760  ASP761  ALA762  ILE779  LEU786  VAL792 
 PHE793  MET794  SER795  GLU796  ALA797  LYS798  CYS799  TRP800  GLU811  SER814 

> <Gold.Protein.RotatedAtoms>
  150.7589  133.9465  159.3472 H   0  0  0  0  0  0  0  0  0  0  0  0  # atno 6907 bound_to 6896
  151.7378  135.0859  160.0320 H   0  0  0  0  0  0  0  0  0  0  0  0  # atno 6908 bound_to 6896
  152.3548  133.6186  159.6007 H   0  0  0  0  0  0  0  0  0  0  0  0  # atno 6909 bound_to 6896
  145.0903  139.3592  143.4864 H   0  0  0  0  0  0  0  0  0  0  0  0  # atno 7974 bound_to 7965
  155.9268  140.1084  157.1164 H   0  0  0  0  0  0  0  0  0  0  0  0  # atno 8008 bound_to 7997
  154.4063  140.1245  156.4816 H   0  0  0  0  0  0  0  0  0  0  0  0  # atno 8009 bound_to 7997
  155.7129  140.3470  155.4984 H   0  0  0  0  0  0  0  0  0  0  0  0  # atno 8010 bound_to 7997
  140.1548  143.4169  152.1468 H   0  0  0  0  0  0  0  0  0  0  0  0  # atno 10167 bound_to 10162
  157.6793  130.9939  150.2014 H   0  0  0  0  0  0  0  0  0  0  0  0  # atno 10718 bound_to 10713
  153.2181  135.4365  155.0457 H   0  0  0  0  0  0  0  0  0  0  0  0  # atno 10763 bound_to 10752
  154.8235  135.3349  154.6968 H   0  0  0  0  0  0  0  0  0  0  0  0  # atno 10764 bound_to 10752
  153.7402  135.7005  153.5024 H   0  0  0  0  0  0  0  0  0  0  0  0  # atno 10765 bound_to 10752
  141.1600  133.6831  156.6976 H   0  0  0  0  0  0  0  0  0  0  0  0  # atno 11005 bound_to 11000
  146.3531  140.0734  142.8622 LP  0  0  0  0  0  0  0  0  0  0  0  0  # atno 17320 bound_to 7965
  145.1074  140.9383  143.4677 LP  0  0  0  0  0  0  0  0  0  0  0  0  # atno 17321 bound_to 7965
  139.5408  144.7255  151.4739 LP  0  0  0  0  0  0  0  0  0  0  0  0  # atno 17342 bound_to 10162
  140.6680  143.8356  150.6965 LP  0  0  0  0  0  0  0  0  0  0  0  0  # atno 17343 bound_to 10162
  156.2704  130.3721  149.8037 LP  0  0  0  0  0  0  0  0  0  0  0  0  # atno 17370 bound_to 10713
  156.5756  130.8443  151.3369 LP  0  0  0  0  0  0  0  0  0  0  0  0  # atno 17371 bound_to 10713
  140.2983  134.8184  157.4076 LP  0  0  0  0  0  0  0  0  0  0  0  0  # atno 17394 bound_to 11000
  140.1285  134.5127  155.8125 LP  0  0  0  0  0  0  0  0  0  0  0  0  # atno 17395 bound_to 11000

$$$$
