AV-unprocessed.smi:3224|AV-procd|sdf|12309|dock6
  -GOLD-   2272018153D 1   1.00000     0.00000
 Structure written by MMmdl.
 31 32  0  0  0  0  0  0  0  0  1 V2000
  149.2725  140.1340  154.3555 C   0  0  0  0  0  0  0  0  0  0  0  0
  148.2701  141.1700  154.9087 C   0  0  0  0  0  0  0  0  0  0  0  0
  148.9659  142.1212  155.7891 N   0  0  0  0  0  0  0  0  0  0  0  0
  149.7872  141.8607  156.8204 C   0  0  0  0  0  0  0  0  0  0  0  0
  150.0896  140.7266  157.1916 O   0  0  0  0  0  0  0  0  0  0  0  0
  150.2284  143.0005  157.3810 N   0  0  0  0  0  0  0  0  0  0  0  0
  151.0842  143.1537  158.5032 C   0  0  0  0  0  0  0  0  0  0  0  0
  151.4347  142.1589  159.3269 N   0  0  0  0  0  0  0  0  0  0  0  0
  152.2808  142.5974  160.3486 C   0  0  0  0  0  0  0  0  0  0  0  0
  152.5666  143.9387  160.2869 C   0  0  0  0  0  0  0  0  0  0  0  0
  151.7804  144.7087  158.9345 S   0  0  0  0  0  0  0  0  0  0  0  0
  147.5333  141.8902  153.7531 C   0  0  0  0  0  0  0  0  0  0  0  0
  146.3726  142.7622  154.2644 C   0  0  0  0  0  0  0  0  0  0  0  0
  145.4597  141.9639  155.0085 O   0  0  0  0  0  0  0  0  0  0  0  0
  146.0492  141.3787  156.1633 C   0  0  0  0  0  0  0  0  0  0  0  0
  147.2009  140.4417  155.7518 C   0  0  0  0  0  0  0  0  0  0  0  0
  148.7635  139.3657  153.7727 H   0  0  0  0  0  0  0  0  0  0  0  0
  149.8086  139.6308  155.1608 H   0  0  0  0  0  0  0  0  0  0  0  0
  150.0131  140.5902  153.6989 H   0  0  0  0  0  0  0  0  0  0  0  0
  148.7993  143.0954  155.5836 H   0  0  0  0  0  0  0  0  0  0  0  0
  149.9049  143.8603  156.9630 H   0  0  0  0  0  0  0  0  0  0  0  0
  152.6332  141.8855  161.0804 H   0  0  0  0  0  0  0  0  0  0  0  0
  153.1889  144.5176  160.9528 H   0  0  0  0  0  0  0  0  0  0  0  0
  148.2178  142.4940  153.1579 H   0  0  0  0  0  0  0  0  0  0  0  0
  147.1264  141.1460  153.0671 H   0  0  0  0  0  0  0  0  0  0  0  0
  146.7381  143.5873  154.8772 H   0  0  0  0  0  0  0  0  0  0  0  0
  145.8412  143.2061  153.4226 H   0  0  0  0  0  0  0  0  0  0  0  0
  146.3964  142.1588  156.8423 H   0  0  0  0  0  0  0  0  0  0  0  0
  145.2840  140.8157  156.6977 H   0  0  0  0  0  0  0  0  0  0  0  0
  146.7819  139.6145  155.1768 H   0  0  0  0  0  0  0  0  0  0  0  0
  147.6520  139.9949  156.6391 H   0  0  0  0  0  0  0  0  0  0  0  0
  1  2  1  0  0  0  0
  1 17  1  0  0  0  0
  1 18  1  0  0  0  0
  1 19  1  0  0  0  0
  2 16  1  0  0  0  0
  2  3  1  0  0  0  0
  2 12  1  0  0  0  0
  3  4  1  0  0  0  0
  3 20  1  0  0  0  0
  4  5  2  0  0  0  0
  4  6  1  0  0  0  0
  6  7  1  0  0  0  0
  6 21  1  0  0  0  0
  7 11  1  0  0  0  0
  7  8  2  0  0  0  0
  8  9  1  0  0  0  0
  9 10  2  0  0  0  0
  9 22  1  0  0  0  0
 10 11  1  0  0  0  0
 10 23  1  0  0  0  0
 12 13  1  0  0  0  0
 12 24  1  0  0  0  0
 12 25  1  0  0  0  0
 13 14  1  0  0  0  0
 13 26  1  0  0  0  0
 13 27  1  0  0  0  0
 14 15  1  0  0  0  0
 15 16  1  0  0  0  0
 15 28  1  0  0  0  0
 15 29  1  0  0  0  0
 16 30  1  0  0  0  0
 16 31  1  0  0  0  0
M  END
> <s_m_source_file>
AV-unprocessed.smi

> <i_m_source_file_index>
3224

> <i_lp_mmshare_version>
43012

> <i_f3d_flags>
0

> <s_epik_input>
W0NIMl0xW0NIMl1PW0NIMl1bQ0gyXUMxKFtDSDNdKVtOSF1DKD1PKVtOSF1jMm5bY0hdW2NIXXMy

> <s_epik_cmdline>
J2VwaWtfcHl0aG9uJywgJy1waCcsICc3LjAnLCAnLXRuJywgJzgnLCAnLW1hJywgJzIwMCcsICctbWV0YWxfYmluZGluZycsICctaW1hZScsICc8aW5maWxlLm1hZT4nLCAnLW9tYWUnLCAnPG91dGZpbGUubWFlPic=

> <r_lp_tautomer_probability>
1

> <r_epik_Ionization_Penalty>
0.000150899

> <r_epik_Ionization_Penalty_Charging>
0

> <r_epik_Ionization_Penalty_Neutral>
0.000150899

> <r_epik_State_Penalty>
-0

> <r_epik_Charging_Adjusted_Penalty>
0

> <i_epik_Tot_Q>
0

> <i_epik_Tot_abs_Q>
0

> <r_epik_Metal_State_Penalty>
0.0306338

> <b_epik_Metal_Only>
0

> <s_lp_Force_Field>
OPLS_2005

> <r_lp_Energy>
7.54186

> <b_lp_Chiralities_Consistent>
1

> <s_lp_Variant>
AV-unprocessed.smi:3224-1

> <Gold.Version>
5.8.1

> <Gold.Id.Protein>
6NUR|6NUR_protein|mol2

> <Gold.PLP.Fitness>
36.8522

> <Gold.PLP.PLP>
-31.0754

> <Gold.PLP.part.hbond>
-2.1218

> <Gold.PLP.part.metal>
0.0000

> <Gold.PLP.part.buried>
-5.1702

> <Gold.PLP.part.nonpolar>
-23.9816

> <Gold.PLP.part.repulsive>
0.3206

> <Gold.PLP.ligand.clash>
0.0000

> <Gold.PLP.ligand.torsion>
0.1150

> <Gold.PLP.Chemscore.Hbond>
2.0000

> <Gold.PLP.Chemscore.CHOScore>
0.0000

> <Gold.PLP.Chemscore.Metal>
0.0000

> <Gold.Chemscore.Hbonds>
donor molecule, donor type, donor heavy atom, donor atom, acceptor molecule, acceptor atom, score
      L1  H     3    20       P1  8028  1.00
      L1  H     6    21       P1  8028  1.00

> <Gold.PLP.Chemscore.Internal.Correction>
0.0067

> <Gold.Rescore>
     Score         DG    S(hbond)    S(metal)    S(lipo)     H(rot)  DE(clash)    DE(int)     intcor
     15.82     -17.12       1.90        0.00      67.20       1.00       0.02       1.28       ----

> <Gold.Chemscore.Fitness>
15.8164

> <Gold.Chemscore.DG>
-17.1242

> <Gold.Chemscore.ZeroCoef>
-5.4800

> <Gold.Chemscore.Hbond>
1.8987

> <Gold.Chemscore.Metal>
0.0000

> <Gold.Chemscore.Lipo>
67.2004

> <Gold.Chemscore.Internal_Hbond>
0.0000

> <Gold.Chemscore.DEClash>
0.0243

> <Gold.Chemscore.DEInternal>
1.2834

> <Gold.Chemscore.Rot>
1.0000

> <Gold.Chemscore.Internal.Correction>
   9.000000E+99

> <Gold.Chemscore.Hbonds>
donor molecule, donor type, donor heavy atom, donor atom, acceptor molecule, acceptor atom, score
      L1  H     3    20       P1  8028  0.99
      L1  H     6    21       P1  8028  0.90

> <Gold.Chemscore.Hbond.Weighted>
-6.3418

> <Gold.Chemscore.Metal.Weighted>
-0.0000

> <Gold.Chemscore.Lipo.Weighted>
-7.8624

> <Gold.Chemscore.Internal_Hbond.Weighted>
0.0000

> <Gold.Chemscore.DEClash.Weighted>
0.0243

> <Gold.Chemscore.DEInternal.Weighted>
1.2834

> <Gold.Chemscore.Rot.Weighted>
2.5600

> <Gold.Chemscore.Internal.Correction.Weighted>
   9.000000E+99

> <Gold.Protein.RotatedTorsions>
[ 6907 6896 6895 6894 ] final   90.75 input  -60.11 | X-H torsion
[ 7974 7965 7964 7962 ] final   79.83 input  175.53 | X-H torsion
[ 8008 7997 7996 7995 ] final    8.25 input   59.86 | X-H torsion
[ 10167 10162 10161 10158 ] final -136.17 input  -65.29 | X-H torsion
[ 10718 10713 10712 10709 ] final -172.10 input   66.30 | X-H torsion
[ 10763 10752 10751 10750 ] final   72.63 input  -60.55 | X-H torsion
[ 11005 11000 10999 10996 ] final  128.25 input  -57.11 | X-H torsion

> <Gold.Protein.ActiveResidues>
 VAL166  LYS551  ARG553  GLY616  TRP617  ASP618  TYR619  PRO620  LYS621  CYS622 
 ASP623  PHE694  ASN695  SER759  ASP760  ASP761  ALA762  ILE779  LEU786  VAL792 
 PHE793  MET794  SER795  GLU796  ALA797  LYS798  CYS799  TRP800  GLU811  SER814 

> <Gold.Protein.RotatedAtoms>
  152.5446  134.1764  159.8617 H   0  0  0  0  0  0  0  0  0  0  0  0  # atno 6907 bound_to 6896
  151.1770  133.4742  159.2601 H   0  0  0  0  0  0  0  0  0  0  0  0  # atno 6908 bound_to 6896
  151.1217  135.0094  159.8597 H   0  0  0  0  0  0  0  0  0  0  0  0  # atno 6909 bound_to 6896
  145.6591  139.2467  143.1933 H   0  0  0  0  0  0  0  0  0  0  0  0  # atno 7974 bound_to 7965
  154.7644  140.2790  155.6188 H   0  0  0  0  0  0  0  0  0  0  0  0  # atno 8008 bound_to 7997
  156.2922  140.2653  156.2358 H   0  0  0  0  0  0  0  0  0  0  0  0  # atno 8009 bound_to 7997
  154.9977  140.0373  157.2336 H   0  0  0  0  0  0  0  0  0  0  0  0  # atno 8010 bound_to 7997
  139.8705  143.6963  152.2640 H   0  0  0  0  0  0  0  0  0  0  0  0  # atno 10167 bound_to 10162
  156.7506  130.9376  151.3114 H   0  0  0  0  0  0  0  0  0  0  0  0  # atno 10718 bound_to 10713
  153.0471  135.5093  154.7772 H   0  0  0  0  0  0  0  0  0  0  0  0  # atno 10763 bound_to 10752
  154.6664  135.2946  154.9802 H   0  0  0  0  0  0  0  0  0  0  0  0  # atno 10764 bound_to 10752
  154.0635  135.6687  153.4867 H   0  0  0  0  0  0  0  0  0  0  0  0  # atno 10765 bound_to 10752
  139.9550  134.9614  156.8973 H   0  0  0  0  0  0  0  0  0  0  0  0  # atno 11005 bound_to 11000
  146.1140  140.7393  142.9489 LP  0  0  0  0  0  0  0  0  0  0  0  0  # atno 17320 bound_to 7965
  144.7095  140.3985  143.7091 LP  0  0  0  0  0  0  0  0  0  0  0  0  # atno 17321 bound_to 7965
  139.7288  144.7587  151.0835 LP  0  0  0  0  0  0  0  0  0  0  0  0  # atno 17342 bound_to 10162
  140.7761  143.5114  150.9648 LP  0  0  0  0  0  0  0  0  0  0  0  0  # atno 17343 bound_to 10162
  157.6779  130.9111  150.0194 LP  0  0  0  0  0  0  0  0  0  0  0  0  # atno 17370 bound_to 10713
  156.1404  130.3642  149.9592 LP  0  0  0  0  0  0  0  0  0  0  0  0  # atno 17371 bound_to 10713
  140.5630  134.0517  155.7405 LP  0  0  0  0  0  0  0  0  0  0  0  0  # atno 17394 bound_to 11000
  141.1220  133.9445  157.2710 LP  0  0  0  0  0  0  0  0  0  0  0  0  # atno 17395 bound_to 11000

$$$$
