AV-unprocessed.smi:2600|AV-procd|sdf|10182|dock5
  -GOLD-   2272014193D 1   1.00000     0.00000
 Structure written by MMmdl.
 44 45  0  0  0  0  0  0  0  0  1 V2000
  143.9030  142.6896  155.5451 C   0  0  0  0  0  0  0  0  0  0  0  0
  145.1970  142.8746  154.7354 C   0  0  0  0  0  0  0  0  0  0  0  0
  146.3375  141.8826  155.0660 C   0  0  2  0  0  0  0  0  0  0  0  0
  146.5653  141.9012  156.5945 C   0  0  0  0  0  0  0  0  0  0  0  0
  147.6378  142.2243  154.2902 C   0  0  0  0  0  0  0  0  0  0  0  0
  148.6259  141.1528  154.4814 N   0  0  0  0  0  0  0  0  0  0  0  0
  149.8095  141.2363  155.1382 C   0  0  0  0  0  0  0  0  0  0  0  0
  150.7338  140.4422  154.9603 O   0  0  0  0  0  0  0  0  0  0  0  0
  149.9044  142.2680  155.9956 N   0  0  0  0  0  0  0  0  0  0  0  0
  151.0652  142.5901  156.8223 C   0  0  0  0  0  0  0  0  0  0  0  0
  150.7440  142.5421  158.3285 C   0  0  0  0  0  0  0  0  0  0  0  0
  151.9247  142.3072  159.2215 C   0  0  0  0  0  0  0  0  0  0  0  0
  152.7678  141.2336  159.2874 C   0  0  0  0  0  0  0  0  0  0  0  0
  153.7013  141.5856  160.2999 C   0  0  0  0  0  0  0  0  0  0  0  0
  153.4527  142.7709  160.8280 N   0  0  0  0  0  0  0  0  0  0  0  0
  152.3584  143.2146  160.1735 N   0  0  0  0  0  0  0  0  0  0  0  0
  151.8154  144.5129  160.5244 C   0  0  0  0  0  0  0  0  0  0  0  0
  148.1010  139.8920  153.9528 C   0  0  0  0  0  0  0  0  0  0  0  0
  146.8340  139.5238  154.7411 C   0  0  0  0  0  0  0  0  0  0  0  0
  145.8775  140.5839  154.6680 O   0  0  0  0  0  0  0  0  0  0  0  0
  143.1962  143.4889  155.3209 H   0  0  0  0  0  0  0  0  0  0  0  0
  144.0947  142.7137  156.6180 H   0  0  0  0  0  0  0  0  0  0  0  0
  143.4058  141.7492  155.3102 H   0  0  0  0  0  0  0  0  0  0  0  0
  144.9579  142.8153  153.6728 H   0  0  0  0  0  0  0  0  0  0  0  0
  145.5543  143.8915  154.9029 H   0  0  0  0  0  0  0  0  0  0  0  0
  146.8543  142.8964  156.9337 H   0  0  0  0  0  0  0  0  0  0  0  0
  147.3514  141.2175  156.9107 H   0  0  0  0  0  0  0  0  0  0  0  0
  145.6591  141.6206  157.1317 H   0  0  0  0  0  0  0  0  0  0  0  0
  147.4448  142.2970  153.2202 H   0  0  0  0  0  0  0  0  0  0  0  0
  147.9922  143.2122  154.5838 H   0  0  0  0  0  0  0  0  0  0  0  0
  149.1046  142.8784  156.0816 H   0  0  0  0  0  0  0  0  0  0  0  0
  151.8980  141.9239  156.5933 H   0  0  0  0  0  0  0  0  0  0  0  0
  151.4039  143.5913  156.5560 H   0  0  0  0  0  0  0  0  0  0  0  0
  150.2469  143.4673  158.6205 H   0  0  0  0  0  0  0  0  0  0  0  0
  150.0117  141.7528  158.5030 H   0  0  0  0  0  0  0  0  0  0  0  0
  152.7297  140.3338  158.6919 H   0  0  0  0  0  0  0  0  0  0  0  0
  154.5450  141.0184  160.6648 H   0  0  0  0  0  0  0  0  0  0  0  0
  150.7423  144.5390  160.3366 H   0  0  0  0  0  0  0  0  0  0  0  0
  152.3011  145.2855  159.9283 H   0  0  0  0  0  0  0  0  0  0  0  0
  151.9868  144.7201  161.5815 H   0  0  0  0  0  0  0  0  0  0  0  0
  147.8630  140.0115  152.8949 H   0  0  0  0  0  0  0  0  0  0  0  0
  148.8211  139.0745  154.0077 H   0  0  0  0  0  0  0  0  0  0  0  0
  146.3836  138.6237  154.3224 H   0  0  0  0  0  0  0  0  0  0  0  0
  147.0752  139.2916  155.7785 H   0  0  0  0  0  0  0  0  0  0  0  0
  1  2  1  0  0  0  0
  1 21  1  0  0  0  0
  1 22  1  0  0  0  0
  1 23  1  0  0  0  0
  2  3  1  0  0  0  0
  2 24  1  0  0  0  0
  2 25  1  0  0  0  0
  3 20  1  0  0  0  0
  3  4  1  0  0  0  0
  3  5  1  0  0  0  0
  4 26  1  0  0  0  0
  4 27  1  0  0  0  0
  4 28  1  0  0  0  0
  5  6  1  0  0  0  0
  5 29  1  0  0  0  0
  5 30  1  0  0  0  0
  6  7  1  0  0  0  0
  6 18  1  0  0  0  0
  7  8  2  0  0  0  0
  7  9  1  0  0  0  0
  9 10  1  0  0  0  0
  9 31  1  0  0  0  0
 10 11  1  0  0  0  0
 10 32  1  0  0  0  0
 10 33  1  0  0  0  0
 11 12  1  0  0  0  0
 11 34  1  0  0  0  0
 11 35  1  0  0  0  0
 12 16  1  0  0  0  0
 12 13  2  0  0  0  0
 13 14  1  0  0  0  0
 13 36  1  0  0  0  0
 14 15  2  0  0  0  0
 14 37  1  0  0  0  0
 15 16  1  0  0  0  0
 16 17  1  0  0  0  0
 17 38  1  0  0  0  0
 17 39  1  0  0  0  0
 17 40  1  0  0  0  0
 18 19  1  0  0  0  0
 18 41  1  0  0  0  0
 18 42  1  0  0  0  0
 19 20  1  0  0  0  0
 19 43  1  0  0  0  0
 19 44  1  0  0  0  0
M  END
> <s_m_source_file>
AV-unprocessed.smi

> <i_m_source_file_index>
2600

> <i_lp_mmshare_version>
43012

> <i_f3d_flags>
0

> <s_epik_input>
W0NIM11bQ0gyXVtDQEBdMShbQ0gzXSlbQ0gyXU4oW0NIMl1bQ0gyXU8xKUMoPU8pW05IXVtDSDJdW0NIMl1jMltjSF1bY0hdbm4yW0NIM10=

> <s_epik_cmdline>
J2VwaWtfcHl0aG9uJywgJy1waCcsICc3LjAnLCAnLXRuJywgJzgnLCAnLW1hJywgJzIwMCcsICctbWV0YWxfYmluZGluZycsICctaW1hZScsICc8aW5maWxlLm1hZT4nLCAnLW9tYWUnLCAnPG91dGZpbGUubWFlPic=

> <r_lp_tautomer_probability>
1

> <r_epik_Ionization_Penalty>
0.00252014

> <r_epik_Ionization_Penalty_Charging>
0

> <r_epik_Ionization_Penalty_Neutral>
0.00252014

> <r_epik_State_Penalty>
0.00172506

> <r_epik_Charging_Adjusted_Penalty>
0.00172506

> <i_epik_Tot_Q>
0

> <i_epik_Tot_abs_Q>
0

> <r_epik_Metal_State_Penalty>
-0

> <b_epik_Metal_Only>
0

> <s_lp_Force_Field>
OPLS_2005

> <r_lp_Energy>
29.2507

> <b_lp_Chiralities_Consistent>
1

> <s_lp_Variant>
AV-unprocessed.smi:2600-2

> <Gold.Version>
5.8.1

> <Gold.Id.Protein>
6NUR|6NUR_protein|mol2

> <Gold.PLP.Fitness>
45.3030

> <Gold.PLP.PLP>
-40.3703

> <Gold.PLP.part.hbond>
-2.0000

> <Gold.PLP.part.metal>
0.0000

> <Gold.PLP.part.buried>
-1.9656

> <Gold.PLP.part.nonpolar>
-35.9938

> <Gold.PLP.part.repulsive>
0.8720

> <Gold.PLP.ligand.clash>
0.0000

> <Gold.PLP.ligand.torsion>
0.3930

> <Gold.PLP.Chemscore.Hbond>
1.8960

> <Gold.PLP.Chemscore.CHOScore>
0.0000

> <Gold.PLP.Chemscore.Metal>
0.0000

> <Gold.Chemscore.Hbonds>
donor molecule, donor type, donor heavy atom, donor atom, acceptor molecule, acceptor atom, score
      L1  H     9    31       P1  8028  0.62
      P1  H  7989  7998       L1     8  1.00

> <Gold.PLP.Chemscore.Internal.Correction>
0.0308

> <Gold.Rescore>
     Score         DG    S(hbond)    S(metal)    S(lipo)     H(rot)  DE(clash)    DE(int)     intcor
     15.68     -17.62       1.63        0.00      89.44       1.47       1.63       0.32       ----

> <Gold.Chemscore.Fitness>
15.6778

> <Gold.Chemscore.DG>
-17.6223

> <Gold.Chemscore.ZeroCoef>
-5.4800

> <Gold.Chemscore.Hbond>
1.6317

> <Gold.Chemscore.Metal>
0.0000

> <Gold.Chemscore.Lipo>
89.4404

> <Gold.Chemscore.Internal_Hbond>
0.0000

> <Gold.Chemscore.DEClash>
1.6283

> <Gold.Chemscore.DEInternal>
0.3162

> <Gold.Chemscore.Rot>
1.4735

> <Gold.Chemscore.Internal.Correction>
   9.000000E+99

> <Gold.Chemscore.Hbonds>
donor molecule, donor type, donor heavy atom, donor atom, acceptor molecule, acceptor atom, score
      L1  H     9    31       P1  8028  0.64
      P1  H  7989  7998       L1     8  0.72

> <Gold.Chemscore.Hbond.Weighted>
-5.4498

> <Gold.Chemscore.Metal.Weighted>
-0.0000

> <Gold.Chemscore.Lipo.Weighted>
-10.4645

> <Gold.Chemscore.Internal_Hbond.Weighted>
0.0000

> <Gold.Chemscore.DEClash.Weighted>
1.6283

> <Gold.Chemscore.DEInternal.Weighted>
0.3162

> <Gold.Chemscore.Rot.Weighted>
3.7721

> <Gold.Chemscore.Internal.Correction.Weighted>
   9.000000E+99

> <Gold.Protein.RotatedTorsions>
[ 6907 6896 6895 6894 ] final   96.34 input  -60.11 | X-H torsion
[ 7974 7965 7964 7962 ] final  -95.51 input  175.53 | X-H torsion
[ 8008 7997 7996 7995 ] final -169.08 input   59.86 | X-H torsion
[ 10167 10162 10161 10158 ] final   93.06 input  -65.29 | X-H torsion
[ 10718 10713 10712 10709 ] final  177.50 input   66.30 | X-H torsion
[ 10763 10752 10751 10750 ] final  100.83 input  -60.55 | X-H torsion
[ 11005 11000 10999 10996 ] final   41.69 input  -57.11 | X-H torsion

> <Gold.Protein.ActiveResidues>
 VAL166  LYS551  ARG553  GLY616  TRP617  ASP618  TYR619  PRO620  LYS621  CYS622 
 ASP623  PHE694  ASN695  SER759  ASP760  ASP761  ALA762  ILE779  LEU786  VAL792 
 PHE793  MET794  SER795  GLU796  ALA797  LYS798  CYS799  TRP800  GLU811  SER814 

> <Gold.Protein.RotatedAtoms>
  152.5436  134.0901  159.8272 H   0  0  0  0  0  0  0  0  0  0  0  0  # atno 6907 bound_to 6896
  151.0992  133.5249  159.2618 H   0  0  0  0  0  0  0  0  0  0  0  0  # atno 6908 bound_to 6896
  151.2011  135.0452  159.8927 H   0  0  0  0  0  0  0  0  0  0  0  0  # atno 6909 bound_to 6896
  145.3591  140.9489  143.2511 H   0  0  0  0  0  0  0  0  0  0  0  0  # atno 7974 bound_to 7965
  155.9001  140.1039  157.1356 H   0  0  0  0  0  0  0  0  0  0  0  0  # atno 8008 bound_to 7997
  154.4025  140.1294  156.4489 H   0  0  0  0  0  0  0  0  0  0  0  0  # atno 8009 bound_to 7997
  155.7432  140.3466  155.5117 H   0  0  0  0  0  0  0  0  0  0  0  0  # atno 8010 bound_to 7997
  139.8216  144.6728  150.9512 H   0  0  0  0  0  0  0  0  0  0  0  0  # atno 10167 bound_to 10162
  156.9044  130.9889  151.3030 H   0  0  0  0  0  0  0  0  0  0  0  0  # atno 10718 bound_to 10713
  153.3190  135.4065  155.1400 H   0  0  0  0  0  0  0  0  0  0  0  0  # atno 10763 bound_to 10752
  154.8595  135.3583  154.5622 H   0  0  0  0  0  0  0  0  0  0  0  0  # atno 10764 bound_to 10752
  153.6054  135.7069  153.5426 H   0  0  0  0  0  0  0  0  0  0  0  0  # atno 10765 bound_to 10752
  140.1810  134.4103  155.8200 H   0  0  0  0  0  0  0  0  0  0  0  0  # atno 11005 bound_to 11000
  144.8660  139.5107  143.6790 LP  0  0  0  0  0  0  0  0  0  0  0  0  # atno 17320 bound_to 7965
  146.2935  139.7209  142.9143 LP  0  0  0  0  0  0  0  0  0  0  0  0  # atno 17321 bound_to 7965
  140.7813  143.4086  151.1030 LP  0  0  0  0  0  0  0  0  0  0  0  0  # atno 17342 bound_to 10162
  139.7746  143.8444  152.3127 LP  0  0  0  0  0  0  0  0  0  0  0  0  # atno 17343 bound_to 10162
  157.6006  130.8510  149.8796 LP  0  0  0  0  0  0  0  0  0  0  0  0  # atno 17370 bound_to 10713
  156.0566  130.3707  150.1077 LP  0  0  0  0  0  0  0  0  0  0  0  0  # atno 17371 bound_to 10713
  141.2223  133.7000  156.7931 LP  0  0  0  0  0  0  0  0  0  0  0  0  # atno 17394 bound_to 11000
  140.2267  134.8716  157.3434 LP  0  0  0  0  0  0  0  0  0  0  0  0  # atno 17395 bound_to 11000

$$$$
