AV-unprocessed.smi:264|AV-procd|sdf|2012|dock8
  -GOLD-   2262021213D 1   1.00000     0.00000
 Structure written by MMmdl.
 52 56  0  0  0  0  0  0  0  0  1 V2000
  149.2602  133.5898  153.5595 C   0  0  0  0  0  0  0  0  0  0  0  0
  149.4967  133.8052  155.0632 C   0  0  1  0  0  0  0  0  0  0  0  0
  150.3076  132.7610  155.6014 O   0  0  0  0  0  0  0  0  0  0  0  0
  151.4496  133.3089  156.2454 C   0  0  0  0  0  0  0  0  0  0  0  0
  151.0197  134.7122  156.6516 C   0  0  0  0  0  0  0  0  0  0  0  0
  150.1523  135.1430  155.4775 C   0  0  1  0  0  0  0  0  0  0  0  0
  151.0012  135.6298  154.4494 O   0  0  0  0  0  0  0  0  0  0  0  0
  149.1221  136.2439  155.8246 C   0  0  0  0  0  0  0  0  0  0  0  0
  149.6643  137.2953  156.6718 N   0  0  0  0  0  0  0  0  0  0  0  0
  149.2637  137.6104  157.9506 C   0  0  0  0  0  0  0  0  0  0  0  0
  149.9000  138.6067  158.5033 N   0  0  0  0  0  0  0  0  0  0  0  0
  150.8207  138.9996  157.5388 C   0  0  0  0  0  0  0  0  0  0  0  0
  151.8218  140.0100  157.4664 C   0  0  0  0  0  0  0  0  0  0  0  0
  152.1037  140.8975  158.4432 N   0  0  0  0  0  0  0  0  0  0  0  0
  153.2332  140.5031  159.2700 C   0  0  0  0  0  0  0  0  0  0  0  0
  153.3244  141.4285  160.4918 C   0  0  0  0  0  0  0  0  0  0  0  0
  153.3865  142.7924  160.0739 O   0  0  0  0  0  0  0  0  0  0  0  0
  152.2836  143.2192  159.2662 C   0  0  2  0  0  0  0  0  0  0  0  0
  152.5477  144.6630  158.8480 C   0  0  0  0  0  0  0  0  0  0  0  0
  151.1634  145.2929  158.8669 C   0  0  0  0  0  0  0  0  0  0  0  0
  150.5861  144.7135  160.0217 O   0  0  0  0  0  0  0  0  0  0  0  0
  150.9629  143.3421  160.0628 C   0  0  0  0  0  0  0  0  0  0  0  0
  152.1657  142.2939  158.0319 C   0  0  0  0  0  0  0  0  0  0  0  0
  152.5374  140.1157  156.3202 N   0  0  0  0  0  0  0  0  0  0  0  0
  152.3047  139.2758  155.3071 C   0  0  0  0  0  0  0  0  0  0  0  0
  151.4150  138.2837  155.2324 N   0  0  0  0  0  0  0  0  0  0  0  0
  150.6845  138.1840  156.3800 C   0  0  0  0  0  0  0  0  0  0  0  0
  148.6510  134.3904  153.1392 H   0  0  0  0  0  0  0  0  0  0  0  0
  148.7387  132.6488  153.3834 H   0  0  0  0  0  0  0  0  0  0  0  0
  150.1986  133.5508  153.0055 H   0  0  0  0  0  0  0  0  0  0  0  0
  148.5362  133.7145  155.5722 H   0  0  0  0  0  0  0  0  0  0  0  0
  151.7613  132.7010  157.0948 H   0  0  0  0  0  0  0  0  0  0  0  0
  152.2754  133.3500  155.5337 H   0  0  0  0  0  0  0  0  0  0  0  0
  150.4196  134.6496  157.5601 H   0  0  0  0  0  0  0  0  0  0  0  0
  151.8596  135.3797  156.8498 H   0  0  0  0  0  0  0  0  0  0  0  0
  150.4628  136.0098  153.7723 H   0  0  0  0  0  0  0  0  0  0  0  0
  148.7384  136.7017  154.9118 H   0  0  0  0  0  0  0  0  0  0  0  0
  148.2600  135.8098  156.3324 H   0  0  0  0  0  0  0  0  0  0  0  0
  148.4728  137.0793  158.4605 H   0  0  0  0  0  0  0  0  0  0  0  0
  153.1214  139.4671  159.5930 H   0  0  0  0  0  0  0  0  0  0  0  0
  154.1520  140.5627  158.6848 H   0  0  0  0  0  0  0  0  0  0  0  0
  152.4759  141.2667  161.1568 H   0  0  0  0  0  0  0  0  0  0  0  0
  154.2198  141.1974  161.0688 H   0  0  0  0  0  0  0  0  0  0  0  0
  153.1716  145.1613  159.5918 H   0  0  0  0  0  0  0  0  0  0  0  0
  153.0465  144.7583  157.8829 H   0  0  0  0  0  0  0  0  0  0  0  0
  151.1942  146.3807  158.9335 H   0  0  0  0  0  0  0  0  0  0  0  0
  150.5892  145.0128  157.9825 H   0  0  0  0  0  0  0  0  0  0  0  0
  150.1705  142.7418  159.6140 H   0  0  0  0  0  0  0  0  0  0  0  0
  151.0603  143.0349  161.1035 H   0  0  0  0  0  0  0  0  0  0  0  0
  153.0350  142.4414  157.3913 H   0  0  0  0  0  0  0  0  0  0  0  0
  151.2853  142.5498  157.4404 H   0  0  0  0  0  0  0  0  0  0  0  0
  152.9178  139.4209  154.4297 H   0  0  0  0  0  0  0  0  0  0  0  0
  1  2  1  0  0  0  0
  1 28  1  0  0  0  0
  1 29  1  0  0  0  0
  1 30  1  0  0  0  0
  2  6  1  0  0  0  0
  2  3  1  0  0  0  0
  2 31  1  0  0  0  0
  3  4  1  0  0  0  0
  4  5  1  0  0  0  0
  4 32  1  0  0  0  0
  4 33  1  0  0  0  0
  5  6  1  0  0  0  0
  5 34  1  0  0  0  0
  5 35  1  0  0  0  0
  6  7  1  0  0  0  0
  6  8  1  0  0  0  0
  7 36  1  0  0  0  0
  8  9  1  0  0  0  0
  8 37  1  0  0  0  0
  8 38  1  0  0  0  0
  9 27  1  0  0  0  0
  9 10  1  0  0  0  0
 10 11  2  0  0  0  0
 10 39  1  0  0  0  0
 11 12  1  0  0  0  0
 12 27  2  0  0  0  0
 12 13  1  0  0  0  0
 13 14  1  0  0  0  0
 13 24  2  0  0  0  0
 14 23  1  0  0  0  0
 14 15  1  0  0  0  0
 15 16  1  0  0  0  0
 15 40  1  0  0  0  0
 15 41  1  0  0  0  0
 16 17  1  0  0  0  0
 16 42  1  0  0  0  0
 16 43  1  0  0  0  0
 17 18  1  0  0  0  0
 18 22  1  0  0  0  0
 18 19  1  0  0  0  0
 18 23  1  0  0  0  0
 19 20  1  0  0  0  0
 19 44  1  0  0  0  0
 19 45  1  0  0  0  0
 20 21  1  0  0  0  0
 20 46  1  0  0  0  0
 20 47  1  0  0  0  0
 21 22  1  0  0  0  0
 22 48  1  0  0  0  0
 22 49  1  0  0  0  0
 23 50  1  0  0  0  0
 23 51  1  0  0  0  0
 24 25  1  0  0  0  0
 25 26  2  0  0  0  0
 25 52  1  0  0  0  0
 26 27  1  0  0  0  0
M  END
> <s_m_source_file>
AV-unprocessed.smi

> <i_m_source_file_index>
264

> <i_lp_mmshare_version>
43012

> <i_f3d_flags>
0

> <s_epik_input>
W0NIMl0xW0NIMl1PW0NAQEhdKFtDSDNdKVtDQEBdMShbT0hdKVtDSDJdbihbY0hdbjIpYyhjMjMpbltjSF1uYzNOKFtDSDJdNClbQ0gyXVtDSDJdT1tDQF00NVtDSDJdW0NIMl1PW0NIMl01

> <s_epik_cmdline>
J2VwaWtfcHl0aG9uJywgJy1waCcsICc3LjAnLCAnLXRuJywgJzgnLCAnLW1hJywgJzIwMCcsICctbWV0YWxfYmluZGluZycsICctaW1hZScsICc8aW5maWxlLm1hZT4nLCAnLW9tYWUnLCAnPG91dGZpbGUubWFlPic=

> <r_lp_tautomer_probability>
1

> <r_epik_Ionization_Penalty>
0.00539389

> <r_epik_Ionization_Penalty_Charging>
0

> <r_epik_Ionization_Penalty_Neutral>
0.00539389

> <r_epik_State_Penalty>
0.00375441

> <r_epik_Charging_Adjusted_Penalty>
0.00375441

> <i_epik_Tot_Q>
0

> <i_epik_Tot_abs_Q>
0

> <r_epik_Metal_State_Penalty>
-0

> <b_epik_Metal_Only>
0

> <s_lp_Force_Field>
OPLS_2005

> <r_lp_Energy>
56.7772

> <b_lp_Chiralities_Consistent>
1

> <s_lp_Variant>
AV-unprocessed.smi:264-6

> <Gold.Version>
5.8.1

> <Gold.Id.Protein>
6NUR|6NUR_protein|mol2

> <Gold.PLP.Fitness>
42.2817

> <Gold.PLP.PLP>
-37.2536

> <Gold.PLP.part.hbond>
-3.4484

> <Gold.PLP.part.metal>
0.0000

> <Gold.PLP.part.buried>
-2.1723

> <Gold.PLP.part.nonpolar>
-30.3512

> <Gold.PLP.part.repulsive>
0.2268

> <Gold.PLP.ligand.clash>
0.0000

> <Gold.PLP.ligand.torsion>
0.7131

> <Gold.PLP.Chemscore.Hbond>
2.0961

> <Gold.PLP.Chemscore.CHOScore>
0.0000

> <Gold.PLP.Chemscore.Metal>
0.0000

> <Gold.Chemscore.Hbonds>
donor molecule, donor type, donor heavy atom, donor atom, acceptor molecule, acceptor atom, score
      L1  H     7    36       P1  7948  0.03
      P1  H  7997  8008       L1    24  1.00
      P1  H 10752 10764       L1     7  1.00

> <Gold.PLP.Chemscore.Internal.Correction>
0.1661

> <Gold.Rescore>
     Score         DG    S(hbond)    S(metal)    S(lipo)     H(rot)  DE(clash)    DE(int)     intcor
     14.01     -16.58       1.31        0.00     103.66       2.11       0.52       2.05       ----

> <Gold.Chemscore.Fitness>
14.0113

> <Gold.Chemscore.DG>
-16.5827

> <Gold.Chemscore.ZeroCoef>
-5.4800

> <Gold.Chemscore.Hbond>
1.3074

> <Gold.Chemscore.Metal>
0.0000

> <Gold.Chemscore.Lipo>
103.6595

> <Gold.Chemscore.Internal_Hbond>
0.0000

> <Gold.Chemscore.DEClash>
0.5176

> <Gold.Chemscore.DEInternal>
2.0537

> <Gold.Chemscore.Rot>
2.1063

> <Gold.Chemscore.Internal.Correction>
   9.000000E+99

> <Gold.Chemscore.Hbonds>
donor molecule, donor type, donor heavy atom, donor atom, acceptor molecule, acceptor atom, score
      P1  H  7997  8008       L1    24  0.29
      P1  H 10752 10764       L1     7  0.98

> <Gold.Chemscore.Hbond.Weighted>
-4.3666

> <Gold.Chemscore.Metal.Weighted>
-0.0000

> <Gold.Chemscore.Lipo.Weighted>
-12.1282

> <Gold.Chemscore.Internal_Hbond.Weighted>
0.0000

> <Gold.Chemscore.DEClash.Weighted>
0.5176

> <Gold.Chemscore.DEInternal.Weighted>
2.0537

> <Gold.Chemscore.Rot.Weighted>
5.3921

> <Gold.Chemscore.Internal.Correction.Weighted>
   9.000000E+99

> <Gold.Protein.RotatedTorsions>
[ 6907 6896 6895 6894 ] final   30.81 input  -60.11 | X-H torsion
[ 7974 7965 7964 7962 ] final -122.91 input  175.53 | X-H torsion
[ 8008 7997 7996 7995 ] final  -43.23 input   59.86 | X-H torsion
[ 10167 10162 10161 10158 ] final -111.57 input  -65.29 | X-H torsion
[ 10718 10713 10712 10709 ] final   53.44 input   66.30 | X-H torsion
[ 10763 10752 10751 10750 ] final  -66.71 input  -60.55 | X-H torsion
[ 11005 11000 10999 10996 ] final   42.98 input  -57.11 | X-H torsion

> <Gold.Protein.ActiveResidues>
 VAL166  LYS551  ARG553  GLY616  TRP617  ASP618  TYR619  PRO620  LYS621  CYS622 
 ASP623  PHE694  ASN695  SER759  ASP760  ASP761  ALA762  ILE779  LEU786  VAL792 
 PHE793  MET794  SER795  GLU796  ALA797  LYS798  CYS799  TRP800  GLU811  SER814 

> <Gold.Protein.RotatedAtoms>
  152.0513  134.9652  160.0574 H   0  0  0  0  0  0  0  0  0  0  0  0  # atno 6907 bound_to 6896
  152.1052  133.4266  159.4613 H   0  0  0  0  0  0  0  0  0  0  0  0  # atno 6908 bound_to 6896
  150.6841  134.2633  159.4601 H   0  0  0  0  0  0  0  0  0  0  0  0  # atno 6909 bound_to 6896
  145.0243  140.8015  143.4362 H   0  0  0  0  0  0  0  0  0  0  0  0  # atno 7974 bound_to 7965
  154.3997  140.1453  156.3486 H   0  0  0  0  0  0  0  0  0  0  0  0  # atno 8008 bound_to 7997
  155.8290  140.3466  155.5539 H   0  0  0  0  0  0  0  0  0  0  0  0  # atno 8009 bound_to 7997
  155.8208  140.0897  157.1840 H   0  0  0  0  0  0  0  0  0  0  0  0  # atno 8010 bound_to 7997
  140.1321  143.4351  152.1620 H   0  0  0  0  0  0  0  0  0  0  0  0  # atno 10167 bound_to 10162
  157.5167  130.8537  149.8505 H   0  0  0  0  0  0  0  0  0  0  0  0  # atno 10718 bound_to 10713
  154.3638  135.6110  153.5704 H   0  0  0  0  0  0  0  0  0  0  0  0  # atno 10763 bound_to 10752
  152.9792  135.5821  154.4601 H   0  0  0  0  0  0  0  0  0  0  0  0  # atno 10764 bound_to 10752
  154.4344  135.2848  155.1868 H   0  0  0  0  0  0  0  0  0  0  0  0  # atno 10765 bound_to 10752
  140.1688  134.4248  155.8270 H   0  0  0  0  0  0  0  0  0  0  0  0  # atno 11005 bound_to 11000
  145.1854  139.2329  143.5271 LP  0  0  0  0  0  0  0  0  0  0  0  0  # atno 17320 bound_to 7965
  146.3490  140.1637  142.8590 LP  0  0  0  0  0  0  0  0  0  0  0  0  # atno 17321 bound_to 7965
  139.5514  144.7340  151.4424 LP  0  0  0  0  0  0  0  0  0  0  0  0  # atno 17342 bound_to 10162
  140.6810  143.8081  150.7122 LP  0  0  0  0  0  0  0  0  0  0  0  0  # atno 17343 bound_to 10162
  156.0325  130.3760  150.1648 LP  0  0  0  0  0  0  0  0  0  0  0  0  # atno 17370 bound_to 10713
  156.9837  130.9872  151.3431 LP  0  0  0  0  0  0  0  0  0  0  0  0  # atno 17371 bound_to 10713
  141.2216  133.6946  156.7726 LP  0  0  0  0  0  0  0  0  0  0  0  0  # atno 17394 bound_to 11000
  140.2402  134.8619  157.3566 LP  0  0  0  0  0  0  0  0  0  0  0  0  # atno 17395 bound_to 11000

$$$$
