AV-unprocessed.smi:65|AV-procd|sdf|615|dock5
  -GOLD-   2262016503D 1   1.00000     0.00000
 Structure written by MMmdl.
 26 27  0  0  0  0  0  0  0  0  2 V2000
  146.7919  138.1682  151.7589 N   0  0  0  0  0  0  0  0  0  0  0  0
  147.3433  139.1005  152.6034 C   0  0  0  0  0  0  0  0  0  0  0  0
  146.6613  140.2246  152.8408 N   0  0  0  0  0  0  0  0  0  0  0  0
  147.1971  141.1443  153.6656 C   0  0  0  0  0  0  0  0  0  0  0  0
  148.4459  140.9449  154.2770 C   0  0  0  0  0  0  0  0  0  0  0  0
  149.1188  139.7350  153.9932 C   0  0  0  0  0  0  0  0  0  0  0  0
  150.3773  139.4230  154.5415 N   0  0  0  0  0  0  0  0  0  0  0  0
  150.9333  140.1916  155.6480 C   0  0  0  0  0  0  0  0  0  0  0  0
  151.8434  139.2199  156.4100 C   0  0  0  0  0  0  0  0  0  0  0  0
  152.1663  138.1395  155.3763 C   0  0  1  0  0  0  0  0  0  0  0  0
  152.4975  136.9021  155.9691 O   0  0  0  0  0  0  0  0  0  0  0  0
  150.8800  138.0582  154.5561 C   0  0  0  0  0  0  0  0  0  0  0  0
  148.5392  138.8392  153.1493 N   0  3  0  0  0  0  0  0  0  0  0  0
  147.2817  137.3080  151.5583 H   0  0  0  0  0  0  0  0  0  0  0  0
  145.8992  138.3357  151.3179 H   0  0  0  0  0  0  0  0  0  0  0  0
  146.6261  142.0449  153.8372 H   0  0  0  0  0  0  0  0  0  0  0  0
  148.8615  141.6995  154.9283 H   0  0  0  0  0  0  0  0  0  0  0  0
  151.5088  141.0245  155.2433 H   0  0  0  0  0  0  0  0  0  0  0  0
  150.1603  140.5943  156.3035 H   0  0  0  0  0  0  0  0  0  0  0  0
  152.7328  139.7014  156.8178 H   0  0  0  0  0  0  0  0  0  0  0  0
  151.2866  138.7853  157.2420 H   0  0  0  0  0  0  0  0  0  0  0  0
  152.9887  138.4721  154.7412 H   0  0  0  0  0  0  0  0  0  0  0  0
  152.9295  137.0674  156.7935 H   0  0  0  0  0  0  0  0  0  0  0  0
  150.1475  137.4105  155.0406 H   0  0  0  0  0  0  0  0  0  0  0  0
  151.0653  137.6816  153.5495 H   0  0  0  0  0  0  0  0  0  0  0  0
  149.0220  137.9663  152.9374 H   0  0  0  0  0  0  0  0  0  0  0  0
  1  2  1  0  0  0  0
  1 14  1  0  0  0  0
  1 15  1  0  0  0  0
  2 13  1  0  0  0  0
  2  3  2  0  0  0  0
  3  4  1  0  0  0  0
  4  5  2  0  0  0  0
  4 16  1  0  0  0  0
  5  6  1  0  0  0  0
  5 17  1  0  0  0  0
  6  7  1  0  0  0  0
  6 13  2  0  0  0  0
  7 12  1  0  0  0  0
  7  8  1  0  0  0  0
  8  9  1  0  0  0  0
  8 18  1  0  0  0  0
  8 19  1  0  0  0  0
  9 10  1  0  0  0  0
  9 20  1  0  0  0  0
  9 21  1  0  0  0  0
 10 11  1  0  0  0  0
 10 12  1  0  0  0  0
 10 22  1  0  0  0  0
 11 23  1  0  0  0  0
 12 24  1  0  0  0  0
 12 25  1  0  0  0  0
 13 26  1  0  0  0  0
M  CHG  1  13   1
M  END
> <s_m_source_file>
AV-unprocessed.smi

> <i_m_source_file_index>
65

> <i_lp_mmshare_version>
43012

> <i_f3d_flags>
0

> <s_epik_input>
W05IMl1jMW5bY0hdW2NIXWMobjEpTjJbQ0gyXVtDSDJdW0NAQEhdKFtPSF0pW0NIMl0y

> <s_epik_cmdline>
J2VwaWtfcHl0aG9uJywgJy1waCcsICc3LjAnLCAnLXRuJywgJzgnLCAnLW1hJywgJzIwMCcsICctbWV0YWxfYmluZGluZycsICctaW1hZScsICc8aW5maWxlLm1hZT4nLCAnLW9tYWUnLCAnPG91dGZpbGUubWFlPic=

> <r_lp_tautomer_probability>
0.424989

> <r_epik_Ionization_Penalty>
0.57487

> <r_epik_Ionization_Penalty_Charging>
0.574865

> <r_epik_Ionization_Penalty_Neutral>
4.40886e-06

> <r_epik_State_Penalty>
0.845539

> <r_epik_Charging_Adjusted_Penalty>
1.4204

> <i_epik_Tot_Q>
1

> <i_epik_Tot_abs_Q>
1

> <r_epik_Metal_State_Penalty>
1.14248

> <b_epik_Metal_Only>
0

> <s_lp_Force_Field>
OPLS_2005

> <r_lp_Energy>
20.8145

> <b_lp_Chiralities_Consistent>
1

> <s_lp_Variant>
AV-unprocessed.smi:65-5

> <Gold.Version>
5.8.1

> <Gold.Id.Protein>
6NUR|6NUR_protein|mol2

> <Gold.PLP.Fitness>
38.8653

> <Gold.PLP.PLP>
-25.1423

> <Gold.PLP.part.hbond>
-4.0000

> <Gold.PLP.part.metal>
0.0000

> <Gold.PLP.part.buried>
0.3548

> <Gold.PLP.part.nonpolar>
-23.5883

> <Gold.PLP.part.repulsive>
1.1942

> <Gold.PLP.ligand.clash>
0.0000

> <Gold.PLP.ligand.torsion>
0.1086

> <Gold.PLP.Chemscore.Hbond>
4.5760

> <Gold.PLP.Chemscore.CHOScore>
0.0000

> <Gold.PLP.Chemscore.Metal>
0.0000

> <Gold.Chemscore.Hbonds>
donor molecule, donor type, donor heavy atom, donor atom, acceptor molecule, acceptor atom, score
      L1  H     1    14       P1  7948  1.86
      L1  H    13    26       P1  7948  1.82
      P1  H 10752 10763       L1    11  0.88

> <Gold.PLP.Chemscore.Internal.Correction>
0.2122

> <Gold.Rescore>
     Score         DG    S(hbond)    S(metal)    S(lipo)     H(rot)  DE(clash)    DE(int)     intcor
     15.46     -16.13       2.56        0.00      39.91       1.00       0.55       0.12       ----

> <Gold.Chemscore.Fitness>
15.4643

> <Gold.Chemscore.DG>
-16.1265

> <Gold.Chemscore.ZeroCoef>
-5.4800

> <Gold.Chemscore.Hbond>
2.5559

> <Gold.Chemscore.Metal>
0.0000

> <Gold.Chemscore.Lipo>
39.9116

> <Gold.Chemscore.Internal_Hbond>
0.0000

> <Gold.Chemscore.DEClash>
0.5454

> <Gold.Chemscore.DEInternal>
0.1167

> <Gold.Chemscore.Rot>
1.0000

> <Gold.Chemscore.Internal.Correction>
   9.000000E+99

> <Gold.Chemscore.Hbonds>
donor molecule, donor type, donor heavy atom, donor atom, acceptor molecule, acceptor atom, score
      L1  H     1    14       P1  7948  0.89
      L1  H     1    15       P1 10171  0.01
      L1  H    13    26       P1  7948  0.85
      P1  H 10752 10763       L1    11  0.79

> <Gold.Chemscore.Hbond.Weighted>
-8.5368

> <Gold.Chemscore.Metal.Weighted>
-0.0000

> <Gold.Chemscore.Lipo.Weighted>
-4.6697

> <Gold.Chemscore.Internal_Hbond.Weighted>
0.0000

> <Gold.Chemscore.DEClash.Weighted>
0.5454

> <Gold.Chemscore.DEInternal.Weighted>
0.1167

> <Gold.Chemscore.Rot.Weighted>
2.5600

> <Gold.Chemscore.Internal.Correction.Weighted>
   9.000000E+99

> <Gold.Protein.RotatedTorsions>
[ 6907 6896 6895 6894 ] final   28.18 input  -60.11 | X-H torsion
[ 7974 7965 7964 7962 ] final  -76.67 input  175.53 | X-H torsion
[ 8008 7997 7996 7995 ] final   26.20 input   59.86 | X-H torsion
[ 10167 10162 10161 10158 ] final  145.75 input  -65.29 | X-H torsion
[ 10718 10713 10712 10709 ] final  -15.87 input   66.30 | X-H torsion
[ 10763 10752 10751 10750 ] final   85.52 input  -60.55 | X-H torsion
[ 11005 11000 10999 10996 ] final   13.92 input  -57.11 | X-H torsion

> <Gold.Protein.ActiveResidues>
 VAL166  LYS551  ARG553  GLY616  TRP617  ASP618  TYR619  PRO620  LYS621  CYS622 
 ASP623  PHE694  ASN695  SER759  ASP760  ASP761  ALA762  ILE779  LEU786  VAL792 
 PHE793  MET794  SER795  GLU796  ALA797  LYS798  CYS799  TRP800  GLU811  SER814 

> <Gold.Protein.RotatedAtoms>
  152.0132  134.9865  160.0568 H   0  0  0  0  0  0  0  0  0  0  0  0  # atno 6907 bound_to 6896
  152.1409  133.4458  159.4774 H   0  0  0  0  0  0  0  0  0  0  0  0  # atno 6908 bound_to 6896
  150.6865  134.2225  159.4445 H   0  0  0  0  0  0  0  0  0  0  0  0  # atno 6909 bound_to 6896
  145.6098  140.9389  143.1196 H   0  0  0  0  0  0  0  0  0  0  0  0  # atno 7974 bound_to 7965
  155.0236  140.3150  155.4784 H   0  0  0  0  0  0  0  0  0  0  0  0  # atno 8008 bound_to 7997
  156.2887  140.2193  156.5298 H   0  0  0  0  0  0  0  0  0  0  0  0  # atno 8009 bound_to 7997
  154.7430  140.0472  157.0816 H   0  0  0  0  0  0  0  0  0  0  0  0  # atno 8010 bound_to 7997
  139.4920  144.5879  151.6741 H   0  0  0  0  0  0  0  0  0  0  0  0  # atno 10167 bound_to 10162
  156.5956  130.4810  149.6261 H   0  0  0  0  0  0  0  0  0  0  0  0  # atno 10718 bound_to 10713
  153.1483  135.4614  154.9599 H   0  0  0  0  0  0  0  0  0  0  0  0  # atno 10763 bound_to 10752
  154.7804  135.3186  154.8004 H   0  0  0  0  0  0  0  0  0  0  0  0  # atno 10764 bound_to 10752
  153.8514  135.6921  153.4846 H   0  0  0  0  0  0  0  0  0  0  0  0  # atno 10765 bound_to 10752
  140.4753  134.0989  155.7740 H   0  0  0  0  0  0  0  0  0  0  0  0  # atno 11005 bound_to 11000
  144.7275  139.7830  143.7359 LP  0  0  0  0  0  0  0  0  0  0  0  0  # atno 17320 bound_to 7965
  146.1513  139.4597  143.0047 LP  0  0  0  0  0  0  0  0  0  0  0  0  # atno 17321 bound_to 7965
  140.5499  144.0442  150.6122 LP  0  0  0  0  0  0  0  0  0  0  0  0  # atno 17342 bound_to 10162
  140.3493  143.2973  152.0504 LP  0  0  0  0  0  0  0  0  0  0  0  0  # atno 17343 bound_to 10162
  156.2512  130.6908  151.1647 LP  0  0  0  0  0  0  0  0  0  0  0  0  # atno 17370 bound_to 10713
  157.7293  131.0625  150.5782 LP  0  0  0  0  0  0  0  0  0  0  0  0  # atno 17371 bound_to 10713
  141.1557  133.8887  157.1983 LP  0  0  0  0  0  0  0  0  0  0  0  0  # atno 17394 bound_to 11000
  139.9860  135.0082  156.9862 LP  0  0  0  0  0  0  0  0  0  0  0  0  # atno 17395 bound_to 11000

$$$$
