AV-unprocessed.smi:1526|AV-procd|sdf|6146|dock7
  -GOLD-   22720 6293D 1   1.00000     0.00000
 Structure written by MMmdl.
 34 35  0  0  0  0  0  0  0  0  3 V2000
  150.3038  141.4743  158.3629 O   0  0  0  0  0  0  0  0  0  0  0  0
  150.8577  142.2405  157.5757 C   0  0  0  0  0  0  0  0  0  0  0  0
  150.7534  141.9655  156.0651 C   0  0  0  0  0  0  0  0  0  0  0  0
  151.0432  140.5759  155.6643 N   0  0  0  0  0  0  0  0  0  0  0  0
  152.0765  139.9141  156.3567 C   0  0  0  0  0  0  0  0  0  0  0  0
  152.4235  138.6417  156.0807 C   0  0  0  0  0  0  0  0  0  0  0  0
  153.4815  137.9755  156.8080 N   0  3  0  0  0  0  0  0  0  0  0  0
  154.0674  138.5930  157.6915 O   0  0  0  0  0  0  0  0  0  0  0  0
  153.7628  136.8159  156.5208 O   0  5  0  0  0  0  0  0  0  0  0  0
  151.6946  137.9571  155.0304 C   0  0  0  0  0  0  0  0  0  0  0  0
  150.7023  138.5828  154.3673 C   0  0  0  0  0  0  0  0  0  0  0  0
  150.3218  139.9654  154.6744 C   0  0  0  0  0  0  0  0  0  0  0  0
  149.4063  140.5373  154.0831 O   0  0  0  0  0  0  0  0  0  0  0  0
  151.5568  143.3128  157.9797 N   0  0  0  0  0  0  0  0  0  0  0  0
  151.7718  143.6938  159.3669 C   0  0  0  0  0  0  0  0  0  0  0  0
  152.9697  142.9420  159.9337 C   0  0  0  0  0  0  0  0  0  0  0  0
  153.0183  141.4081  159.8501 C   0  0  0  0  0  0  0  0  0  0  0  0
  153.7290  141.4039  161.2063 C   0  0  0  0  0  0  0  0  0  0  0  0
  153.1225  142.7881  161.4541 C   0  0  0  0  0  0  0  0  0  0  0  0
  149.7564  142.2560  155.7296 H   0  0  0  0  0  0  0  0  0  0  0  0
  151.4295  142.6512  155.5523 H   0  0  0  0  0  0  0  0  0  0  0  0
  152.5526  140.5079  157.1240 H   0  0  0  0  0  0  0  0  0  0  0  0
  151.9389  136.9382  154.7682 H   0  0  0  0  0  0  0  0  0  0  0  0
  150.1720  138.0542  153.5887 H   0  0  0  0  0  0  0  0  0  0  0  0
  151.9832  143.8972  157.2757 H   0  0  0  0  0  0  0  0  0  0  0  0
  151.9348  144.7708  159.4250 H   0  0  0  0  0  0  0  0  0  0  0  0
  150.8729  143.4752  159.9456 H   0  0  0  0  0  0  0  0  0  0  0  0
  153.9027  143.3422  159.5300 H   0  0  0  0  0  0  0  0  0  0  0  0
  152.0288  140.9495  159.8915 H   0  0  0  0  0  0  0  0  0  0  0  0
  153.6082  141.0151  159.0214 H   0  0  0  0  0  0  0  0  0  0  0  0
  153.3945  140.6282  161.8959 H   0  0  0  0  0  0  0  0  0  0  0  0
  154.8161  141.4273  161.1149 H   0  0  0  0  0  0  0  0  0  0  0  0
  153.7975  143.5065  161.9204 H   0  0  0  0  0  0  0  0  0  0  0  0
  152.1646  142.7402  161.9748 H   0  0  0  0  0  0  0  0  0  0  0  0
  1  2  2  0  0  0  0
  2  3  1  0  0  0  0
  2 14  1  0  0  0  0
  3  4  1  0  0  0  0
  3 20  1  0  0  0  0
  3 21  1  0  0  0  0
  4 12  1  0  0  0  0
  4  5  1  0  0  0  0
  5  6  2  0  0  0  0
  5 22  1  0  0  0  0
  6  7  1  0  0  0  0
  6 10  1  0  0  0  0
  7  8  2  0  0  0  0
  7  9  1  0  0  0  0
 10 11  2  0  0  0  0
 10 23  1  0  0  0  0
 11 12  1  0  0  0  0
 11 24  1  0  0  0  0
 12 13  2  0  0  0  0
 14 15  1  0  0  0  0
 14 25  1  0  0  0  0
 15 16  1  0  0  0  0
 15 26  1  0  0  0  0
 15 27  1  0  0  0  0
 16 19  1  0  0  0  0
 16 17  1  0  0  0  0
 16 28  1  0  0  0  0
 17 18  1  0  0  0  0
 17 29  1  0  0  0  0
 17 30  1  0  0  0  0
 18 19  1  0  0  0  0
 18 31  1  0  0  0  0
 18 32  1  0  0  0  0
 19 33  1  0  0  0  0
 19 34  1  0  0  0  0
M  CHG  1   7   1
M  CHG  1   9  -1
M  END
> <s_m_source_file>
AV-unprocessed.smi

> <i_m_source_file_index>
1526

> <i_lp_mmshare_version>
43012

> <i_f3d_flags>
0

> <s_epik_input>
W0NIMl0xW0NIMl1bQ0gyXVtDSF0xW0NIMl1bTkhdQyg9TylbQ0gyXW4yW2NIXWMoW04rXSg9TylbTy1dKVtjSF1bY0hdYzI9Tw==

> <s_epik_cmdline>
J2VwaWtfcHl0aG9uJywgJy1waCcsICc3LjAnLCAnLXRuJywgJzgnLCAnLW1hJywgJzIwMCcsICctbWV0YWxfYmluZGluZycsICctaW1hZScsICc8aW5maWxlLm1hZT4nLCAnLW9tYWUnLCAnPG91dGZpbGUubWFlPic=

> <r_lp_tautomer_probability>
1

> <r_epik_Ionization_Penalty>
1.93777e-08

> <r_epik_Ionization_Penalty_Charging>
7.59562e-11

> <r_epik_Ionization_Penalty_Neutral>
1.93017e-08

> <r_epik_State_Penalty>
-0

> <r_epik_Charging_Adjusted_Penalty>
7.59562e-11

> <i_epik_Tot_Q>
0

> <i_epik_Tot_abs_Q>
2

> <r_epik_Metal_State_Penalty>
-0

> <b_epik_Metal_Only>
0

> <s_lp_Force_Field>
OPLS_2005

> <r_lp_Energy>
24.467

> <b_lp_Chiralities_Consistent>
1

> <s_lp_Variant>
AV-unprocessed.smi:1526-1

> <Gold.Version>
5.8.1

> <Gold.Id.Protein>
6NUR|6NUR_protein|mol2

> <Gold.PLP.Fitness>
45.5466

> <Gold.PLP.PLP>
-41.4432

> <Gold.PLP.part.hbond>
-2.6018

> <Gold.PLP.part.metal>
0.0000

> <Gold.PLP.part.buried>
-3.7556

> <Gold.PLP.part.nonpolar>
-35.7379

> <Gold.PLP.part.repulsive>
0.9736

> <Gold.PLP.ligand.clash>
0.0000

> <Gold.PLP.ligand.torsion>
0.7190

> <Gold.PLP.Chemscore.Hbond>
1.8160

> <Gold.PLP.Chemscore.CHOScore>
0.0000

> <Gold.PLP.Chemscore.Metal>
0.0000

> <Gold.Chemscore.Hbonds>
donor molecule, donor type, donor heavy atom, donor atom, acceptor molecule, acceptor atom, score
      P1  H  7997  8008       L1     8  0.99
      P1  H 10752 10764       L1     9  0.74

> <Gold.PLP.Chemscore.Internal.Correction>
0.0934

> <Gold.Rescore>
     Score         DG    S(hbond)    S(metal)    S(lipo)     H(rot)  DE(clash)    DE(int)     intcor
     16.55     -17.39       1.86        0.00      88.56       1.82       0.15       0.68       ----

> <Gold.Chemscore.Fitness>
16.5519

> <Gold.Chemscore.DG>
-17.3853

> <Gold.Chemscore.ZeroCoef>
-5.4800

> <Gold.Chemscore.Hbond>
1.8563

> <Gold.Chemscore.Metal>
0.0000

> <Gold.Chemscore.Lipo>
88.5648

> <Gold.Chemscore.Internal_Hbond>
0.0000

> <Gold.Chemscore.DEClash>
0.1524

> <Gold.Chemscore.DEInternal>
0.6810

> <Gold.Chemscore.Rot>
1.8190

> <Gold.Chemscore.Internal.Correction>
   9.000000E+99

> <Gold.Chemscore.Hbonds>
donor molecule, donor type, donor heavy atom, donor atom, acceptor molecule, acceptor atom, score
      P1  H  7997  8008       L1     8  0.66
      P1  H 10752 10764       L1     9  0.74

> <Gold.Chemscore.Hbond.Weighted>
-6.1999

> <Gold.Chemscore.Metal.Weighted>
-0.0000

> <Gold.Chemscore.Lipo.Weighted>
-10.3621

> <Gold.Chemscore.Internal_Hbond.Weighted>
0.0000

> <Gold.Chemscore.DEClash.Weighted>
0.1524

> <Gold.Chemscore.DEInternal.Weighted>
0.6810

> <Gold.Chemscore.Rot.Weighted>
4.6567

> <Gold.Chemscore.Internal.Correction.Weighted>
   9.000000E+99

> <Gold.Protein.RotatedTorsions>
[ 6907 6896 6895 6894 ] final   29.26 input  -60.11 | X-H torsion
[ 7974 7965 7964 7962 ] final  151.41 input  175.53 | X-H torsion
[ 8008 7997 7996 7995 ] final  -89.41 input   59.86 | X-H torsion
[ 10167 10162 10161 10158 ] final -168.75 input  -65.29 | X-H torsion
[ 10718 10713 10712 10709 ] final  130.18 input   66.30 | X-H torsion
[ 10763 10752 10751 10750 ] final    7.75 input  -60.55 | X-H torsion
[ 11005 11000 10999 10996 ] final  -33.41 input  -57.11 | X-H torsion

> <Gold.Protein.ActiveResidues>
 VAL166  LYS551  ARG553  GLY616  TRP617  ASP618  TYR619  PRO620  LYS621  CYS622 
 ASP623  PHE694  ASN695  SER759  ASP760  ASP761  ALA762  ILE779  LEU786  VAL792 
 PHE793  MET794  SER795  GLU796  ALA797  LYS798  CYS799  TRP800  GLU811  SER814 

> <Gold.Protein.RotatedAtoms>
  152.0290  134.9779  160.0571 H   0  0  0  0  0  0  0  0  0  0  0  0  # atno 6907 bound_to 6896
  152.1263  133.4377  159.4707 H   0  0  0  0  0  0  0  0  0  0  0  0  # atno 6908 bound_to 6896
  150.6853  134.2393  159.4509 H   0  0  0  0  0  0  0  0  0  0  0  0  # atno 6909 bound_to 6896
  144.8294  139.6534  143.6065 H   0  0  0  0  0  0  0  0  0  0  0  0  # atno 7974 bound_to 7965
  154.6863  140.0542  157.0317 H   0  0  0  0  0  0  0  0  0  0  0  0  # atno 8008 bound_to 7997
  155.0880  140.3216  155.4563 H   0  0  0  0  0  0  0  0  0  0  0  0  # atno 8009 bound_to 7997
  156.2712  140.2053  156.6008 H   0  0  0  0  0  0  0  0  0  0  0  0  # atno 8010 bound_to 7997
  139.5966  144.1100  152.1696 H   0  0  0  0  0  0  0  0  0  0  0  0  # atno 10167 bound_to 10162
  157.5086  131.1096  150.9326 H   0  0  0  0  0  0  0  0  0  0  0  0  # atno 10718 bound_to 10713
  153.2327  135.6894  153.7871 H   0  0  0  0  0  0  0  0  0  0  0  0  # atno 10763 bound_to 10752
  153.7029  135.3294  155.3230 H   0  0  0  0  0  0  0  0  0  0  0  0  # atno 10764 bound_to 10752
  154.8321  135.4572  154.1219 H   0  0  0  0  0  0  0  0  0  0  0  0  # atno 10765 bound_to 10752
  140.9632  133.7152  156.1403 H   0  0  0  0  0  0  0  0  0  0  0  0  # atno 11005 bound_to 11000
  146.2598  139.6384  142.9370 LP  0  0  0  0  0  0  0  0  0  0  0  0  # atno 17320 bound_to 7965
  145.4928  141.0438  143.2583 LP  0  0  0  0  0  0  0  0  0  0  0  0  # atno 17321 bound_to 7965
  140.0686  144.5798  150.7208 LP  0  0  0  0  0  0  0  0  0  0  0  0  # atno 17342 bound_to 10162
  140.7216  143.2595  151.4258 LP  0  0  0  0  0  0  0  0  0  0  0  0  # atno 17343 bound_to 10162
  156.9974  130.5586  149.5308 LP  0  0  0  0  0  0  0  0  0  0  0  0  # atno 17370 bound_to 10713
  156.0274  130.5367  150.8443 LP  0  0  0  0  0  0  0  0  0  0  0  0  # atno 17371 bound_to 10713
  140.7437  134.4122  157.5551 LP  0  0  0  0  0  0  0  0  0  0  0  0  # atno 17394 bound_to 11000
  139.8885  134.8854  156.2469 LP  0  0  0  0  0  0  0  0  0  0  0  0  # atno 17395 bound_to 11000

$$$$
