AV-unprocessed.smi:2862|AV-procd|sdf|11009|dock3
  -GOLD-   2272015473D 1   1.00000     0.00000
 Structure written by MMmdl.
 52 54  0  0  0  0  0  0  0  0  1 V2000
  142.8303  137.6412  154.2830 C   0  0  0  0  0  0  0  0  0  0  0  0
  143.4805  136.9638  153.0643 C   0  0  1  0  0  0  0  0  0  0  0  0
  144.6910  137.6717  152.6508 N   0  0  0  0  0  0  0  0  0  0  0  0
  145.8383  137.8042  153.3423 C   0  0  0  0  0  0  0  0  0  0  0  0
  146.0095  137.3168  154.4586 O   0  0  0  0  0  0  0  0  0  0  0  0
  146.9847  138.6067  152.7013 C   0  0  0  0  0  0  0  0  0  0  0  0
  147.4540  139.7625  153.4887 N   0  0  0  0  0  0  0  0  0  0  0  0
  146.6220  140.8998  153.5010 C   0  0  0  0  0  0  0  0  0  0  0  0
  146.9391  142.0090  154.1855 C   0  0  0  0  0  0  0  0  0  0  0  0
  148.1750  142.0247  154.9281 C   0  0  0  0  0  0  0  0  0  0  0  0
  148.9675  140.9287  154.9512 C   0  0  0  0  0  0  0  0  0  0  0  0
  150.2623  140.9125  155.6453 C   0  0  0  0  0  0  0  0  0  0  0  0
  151.2939  140.5013  155.1101 O   0  0  0  0  0  0  0  0  0  0  0  0
  150.2657  141.4162  156.9137 N   0  0  0  0  0  0  0  0  0  0  0  0
  149.0577  141.5157  157.7508 C   0  0  0  0  0  0  0  0  0  0  0  0
  151.5105  141.7515  157.6399 C   0  0  2  0  0  0  0  0  0  0  0  0
  151.8314  140.7167  158.7372 C   0  0  0  0  0  0  0  0  0  0  0  0
  151.5656  143.1716  158.1884 C   0  0  0  0  0  0  0  0  0  0  0  0
  152.8807  143.8238  158.5412 C   0  0  0  0  0  0  0  0  0  0  0  0
  151.9124  143.4317  159.6347 C   0  0  0  0  0  0  0  0  0  0  0  0
  148.6345  139.7076  154.1822 C   0  0  0  0  0  0  0  0  0  0  0  0
  149.3312  138.6889  154.1635 O   0  0  0  0  0  0  0  0  0  0  0  0
  143.6567  135.4681  153.2778 C   0  0  0  0  0  0  0  0  0  0  0  0
  143.6622  134.5106  152.1109 C   0  0  0  0  0  0  0  0  0  0  0  0
  142.5028  134.5143  153.0825 C   0  0  0  0  0  0  0  0  0  0  0  0
  141.8581  137.1983  154.5011 H   0  0  0  0  0  0  0  0  0  0  0  0
  142.6726  138.7054  154.1046 H   0  0  0  0  0  0  0  0  0  0  0  0
  143.4440  137.5398  155.1783 H   0  0  0  0  0  0  0  0  0  0  0  0
  142.7883  137.0866  152.2305 H   0  0  0  0  0  0  0  0  0  0  0  0
  144.6536  138.1103  151.7421 H   0  0  0  0  0  0  0  0  0  0  0  0
  147.8131  137.9252  152.4993 H   0  0  0  0  0  0  0  0  0  0  0  0
  146.6512  138.9350  151.7161 H   0  0  0  0  0  0  0  0  0  0  0  0
  145.7113  140.8091  152.9267 H   0  0  0  0  0  0  0  0  0  0  0  0
  146.2838  142.8676  154.1835 H   0  0  0  0  0  0  0  0  0  0  0  0
  148.4618  142.9252  155.4522 H   0  0  0  0  0  0  0  0  0  0  0  0
  148.2782  140.8114  157.4574 H   0  0  0  0  0  0  0  0  0  0  0  0
  148.6466  142.5245  157.7061 H   0  0  0  0  0  0  0  0  0  0  0  0
  149.2727  141.2923  158.7962 H   0  0  0  0  0  0  0  0  0  0  0  0
  152.3403  141.6638  156.9363 H   0  0  0  0  0  0  0  0  0  0  0  0
  152.8315  140.8794  159.1399 H   0  0  0  0  0  0  0  0  0  0  0  0
  151.8020  139.7014  158.3402 H   0  0  0  0  0  0  0  0  0  0  0  0
  151.1373  140.7688  159.5755 H   0  0  0  0  0  0  0  0  0  0  0  0
  150.8076  143.8347  157.7767 H   0  0  0  0  0  0  0  0  0  0  0  0
  153.7871  143.2308  158.4389 H   0  0  0  0  0  0  0  0  0  0  0  0
  152.9893  144.8834  158.3194 H   0  0  0  0  0  0  0  0  0  0  0  0
  151.3757  144.2300  160.1430 H   0  0  0  0  0  0  0  0  0  0  0  0
  152.1770  142.5784  160.2560 H   0  0  0  0  0  0  0  0  0  0  0  0
  144.3265  135.2169  154.0981 H   0  0  0  0  0  0  0  0  0  0  0  0
  143.4869  134.9202  151.1180 H   0  0  0  0  0  0  0  0  0  0  0  0
  144.3545  133.6722  152.1542 H   0  0  0  0  0  0  0  0  0  0  0  0
  142.4216  133.6758  153.7714 H   0  0  0  0  0  0  0  0  0  0  0  0
  141.5572  134.9252  152.7341 H   0  0  0  0  0  0  0  0  0  0  0  0
  1  2  1  0  0  0  0
  1 26  1  0  0  0  0
  1 27  1  0  0  0  0
  1 28  1  0  0  0  0
  2  3  1  0  0  0  0
  2 23  1  0  0  0  0
  2 29  1  0  0  0  0
  3  4  1  0  0  0  0
  3 30  1  0  0  0  0
  4  5  2  0  0  0  0
  4  6  1  0  0  0  0
  6  7  1  0  0  0  0
  6 31  1  0  0  0  0
  6 32  1  0  0  0  0
  7 21  1  0  0  0  0
  7  8  1  0  0  0  0
  8  9  2  0  0  0  0
  8 33  1  0  0  0  0
  9 10  1  0  0  0  0
  9 34  1  0  0  0  0
 10 11  2  0  0  0  0
 10 35  1  0  0  0  0
 11 12  1  0  0  0  0
 11 21  1  0  0  0  0
 12 13  2  0  0  0  0
 12 14  1  0  0  0  0
 14 15  1  0  0  0  0
 14 16  1  0  0  0  0
 15 36  1  0  0  0  0
 15 37  1  0  0  0  0
 15 38  1  0  0  0  0
 16 17  1  0  0  0  0
 16 18  1  0  0  0  0
 16 39  1  0  0  0  0
 17 40  1  0  0  0  0
 17 41  1  0  0  0  0
 17 42  1  0  0  0  0
 18 20  1  0  0  0  0
 18 19  1  0  0  0  0
 18 43  1  0  0  0  0
 19 20  1  0  0  0  0
 19 44  1  0  0  0  0
 19 45  1  0  0  0  0
 20 46  1  0  0  0  0
 20 47  1  0  0  0  0
 21 22  2  0  0  0  0
 23 25  1  0  0  0  0
 23 24  1  0  0  0  0
 23 48  1  0  0  0  0
 24 25  1  0  0  0  0
 24 49  1  0  0  0  0
 24 50  1  0  0  0  0
 25 51  1  0  0  0  0
 25 52  1  0  0  0  0
M  END
> <s_m_source_file>
AV-unprocessed.smi

> <i_m_source_file_index>
2862

> <i_lp_mmshare_version>
43012

> <i_f3d_flags>
0

> <s_epik_input>
W0NIMl0xW0NIMl1bQ0hdMVtDQEhdKFtDSDNdKVtOSF1DKD1PKVtDSDJdbjJbY0hdW2NIXVtjSF1jKGMyPU8pQyg9TylOKFtDSDNdKVtDQEhdKFtDSDNdKVtDSF0zW0NIMl1bQ0gyXTM=

> <s_epik_cmdline>
J2VwaWtfcHl0aG9uJywgJy1waCcsICc3LjAnLCAnLXRuJywgJzgnLCAnLW1hJywgJzIwMCcsICctbWV0YWxfYmluZGluZycsICctaW1hZScsICc8aW5maWxlLm1hZT4nLCAnLW9tYWUnLCAnPG91dGZpbGUubWFlPic=

> <r_lp_tautomer_probability>
1

> <r_epik_Ionization_Penalty>
4.00841e-08

> <r_epik_Ionization_Penalty_Charging>
2.07773e-08

> <r_epik_Ionization_Penalty_Neutral>
1.93069e-08

> <r_epik_State_Penalty>
-0

> <r_epik_Charging_Adjusted_Penalty>
2.07773e-08

> <i_epik_Tot_Q>
0

> <i_epik_Tot_abs_Q>
0

> <r_epik_Metal_State_Penalty>
-0

> <b_epik_Metal_Only>
0

> <s_lp_Force_Field>
OPLS_2005

> <r_lp_Energy>
60.0482

> <b_lp_Chiralities_Consistent>
1

> <s_lp_Variant>
AV-unprocessed.smi:2862-2

> <Gold.Version>
5.8.1

> <Gold.Id.Protein>
6NUR|6NUR_protein|mol2

> <Gold.PLP.Fitness>
55.3670

> <Gold.PLP.PLP>
-47.0589

> <Gold.PLP.part.hbond>
-3.0000

> <Gold.PLP.part.metal>
0.0000

> <Gold.PLP.part.buried>
-0.9400

> <Gold.PLP.part.nonpolar>
-44.0586

> <Gold.PLP.part.repulsive>
0.3617

> <Gold.PLP.ligand.clash>
0.0000

> <Gold.PLP.ligand.torsion>
2.6418

> <Gold.PLP.Chemscore.Hbond>
1.9760

> <Gold.PLP.Chemscore.CHOScore>
0.9865

> <Gold.PLP.Chemscore.Metal>
0.0000

> <Gold.Chemscore.Hbonds>
donor molecule, donor type, donor heavy atom, donor atom, acceptor molecule, acceptor atom, score
      L1  H     3    30       P1 10171  0.75
      P1  H  7989  7998       L1    13  0.94
      L1  C     8    33       P1 10175  1.00

> <Gold.PLP.Chemscore.Internal.Correction>
4.7041

> <Gold.Rescore>
     Score         DG    S(hbond)    S(metal)    S(lipo)     H(rot)  DE(clash)    DE(int)     intcor
     14.05     -19.35       1.85        0.00     103.81       1.73       1.24       4.07       ----

> <Gold.Chemscore.Fitness>
14.0472

> <Gold.Chemscore.DG>
-19.3534

> <Gold.Chemscore.ZeroCoef>
-5.4800

> <Gold.Chemscore.Hbond>
1.8468

> <Gold.Chemscore.Metal>
0.0000

> <Gold.Chemscore.Lipo>
103.8130

> <Gold.Chemscore.Internal_Hbond>
0.0000

> <Gold.Chemscore.DEClash>
1.2367

> <Gold.Chemscore.DEInternal>
4.0695

> <Gold.Chemscore.Rot>
1.7348

> <Gold.Chemscore.Internal.Correction>
   9.000000E+99

> <Gold.Chemscore.Hbonds>
donor molecule, donor type, donor heavy atom, donor atom, acceptor molecule, acceptor atom, score
      L1  H     3    30       P1 10171  0.72
      P1  H  7989  7998       L1    13  0.89

> <Gold.Chemscore.Hbond.Weighted>
-6.1684

> <Gold.Chemscore.Metal.Weighted>
-0.0000

> <Gold.Chemscore.Lipo.Weighted>
-12.1461

> <Gold.Chemscore.Internal_Hbond.Weighted>
0.0000

> <Gold.Chemscore.DEClash.Weighted>
1.2367

> <Gold.Chemscore.DEInternal.Weighted>
4.0695

> <Gold.Chemscore.Rot.Weighted>
4.4412

> <Gold.Chemscore.Internal.Correction.Weighted>
   9.000000E+99

> <Gold.Protein.RotatedTorsions>
[ 6907 6896 6895 6894 ] final -121.05 input  -60.11 | X-H torsion
[ 7974 7965 7964 7962 ] final  -71.00 input  175.53 | X-H torsion
[ 8008 7997 7996 7995 ] final   40.63 input   59.86 | X-H torsion
[ 10167 10162 10161 10158 ] final  116.06 input  -65.29 | X-H torsion
[ 10718 10713 10712 10709 ] final  166.61 input   66.30 | X-H torsion
[ 10763 10752 10751 10750 ] final  -78.86 input  -60.55 | X-H torsion
[ 11005 11000 10999 10996 ] final   82.61 input  -57.11 | X-H torsion

> <Gold.Protein.ActiveResidues>
 VAL166  LYS551  ARG553  GLY616  TRP617  ASP618  TYR619  PRO620  LYS621  CYS622 
 ASP623  PHE694  ASN695  SER759  ASP760  ASP761  ALA762  ILE779  LEU786  VAL792 
 PHE793  MET794  SER795  GLU796  ALA797  LYS798  CYS799  TRP800  GLU811  SER814 

> <Gold.Protein.RotatedAtoms>
  150.8448  133.7879  159.3047 H   0  0  0  0  0  0  0  0  0  0  0  0  # atno 6907 bound_to 6896
  151.5569  135.1065  159.9973 H   0  0  0  0  0  0  0  0  0  0  0  0  # atno 6908 bound_to 6896
  152.4504  133.7575  159.6784 H   0  0  0  0  0  0  0  0  0  0  0  0  # atno 6909 bound_to 6896
  145.6837  140.9178  143.0818 H   0  0  0  0  0  0  0  0  0  0  0  0  # atno 7974 bound_to 7965
  155.2564  140.3356  155.4277 H   0  0  0  0  0  0  0  0  0  0  0  0  # atno 8008 bound_to 7997
  156.2194  140.1802  156.7557 H   0  0  0  0  0  0  0  0  0  0  0  0  # atno 8009 bound_to 7997
  154.5802  140.0655  156.9077 H   0  0  0  0  0  0  0  0  0  0  0  0  # atno 8010 bound_to 7997
  139.6273  144.7110  151.2505 H   0  0  0  0  0  0  0  0  0  0  0  0  # atno 10167 bound_to 10162
  157.0634  131.0346  151.2638 H   0  0  0  0  0  0  0  0  0  0  0  0  # atno 10718 bound_to 10713
  154.5313  135.5715  153.6761 H   0  0  0  0  0  0  0  0  0  0  0  0  # atno 10763 bound_to 10752
  152.9940  135.6205  154.2625 H   0  0  0  0  0  0  0  0  0  0  0  0  # atno 10764 bound_to 10752
  154.2552  135.2858  155.2780 H   0  0  0  0  0  0  0  0  0  0  0  0  # atno 10765 bound_to 10752
  139.9058  134.8084  156.2198 H   0  0  0  0  0  0  0  0  0  0  0  0  # atno 11005 bound_to 11000
  144.7018  139.8730  143.7442 LP  0  0  0  0  0  0  0  0  0  0  0  0  # atno 17320 bound_to 7965
  146.0942  139.3933  143.0387 LP  0  0  0  0  0  0  0  0  0  0  0  0  # atno 17321 bound_to 7965
  140.7419  143.6544  150.8220 LP  0  0  0  0  0  0  0  0  0  0  0  0  # atno 17342 bound_to 10162
  140.0163  143.5589  152.2818 LP  0  0  0  0  0  0  0  0  0  0  0  0  # atno 17343 bound_to 10162
  157.4937  130.7837  149.7533 LP  0  0  0  0  0  0  0  0  0  0  0  0  # atno 17370 bound_to 10713
  155.9972  130.3901  150.2751 LP  0  0  0  0  0  0  0  0  0  0  0  0  # atno 17371 bound_to 10713
  141.0413  133.6936  156.1603 LP  0  0  0  0  0  0  0  0  0  0  0  0  # atno 17394 bound_to 11000
  140.6951  134.4624  157.5588 LP  0  0  0  0  0  0  0  0  0  0  0  0  # atno 17395 bound_to 11000

$$$$
