AV-unprocessed.smi:1077|AV-procd|sdf|4701|dock6
  -GOLD-   22720 3223D 1   1.00000     0.00000
 Structure written by MMmdl.
 42 43  0  0  0  0  0  0  0  0  1 V2000
  156.5927  137.8400  165.5216 C   0  0  0  0  0  0  0  0  0  0  0  0
  155.2629  137.3280  164.9476 C   0  0  0  0  0  0  0  0  0  0  0  0
  155.2531  137.2749  163.5086 N   0  0  0  0  0  0  0  0  0  0  0  0
  155.0444  136.0940  162.8269 C   0  0  0  0  0  0  0  0  0  0  0  0
  155.0382  136.0246  161.4799 C   0  0  0  0  0  0  0  0  0  0  0  0
  154.8171  134.7959  160.7919 C   0  0  0  0  0  0  0  0  0  0  0  0
  154.6287  133.8107  160.2143 N   0  0  0  0  0  0  0  0  0  0  0  0
  155.2602  137.2150  160.6629 C   0  0  0  0  0  0  0  0  0  0  0  0
  155.2531  137.2041  159.4305 O   0  0  0  0  0  0  0  0  0  0  0  0
  155.4855  138.4167  161.3817 N   0  0  0  0  0  0  0  0  0  0  0  0
  155.7023  139.6629  160.6146 C   0  0  0  0  0  0  0  0  0  0  0  0
  154.5454  140.6642  160.7478 C   0  0  0  0  0  0  0  0  0  0  0  0
  154.2727  141.1753  161.8351 O   0  0  0  0  0  0  0  0  0  0  0  0
  153.8772  140.9400  159.6177 N   0  0  0  0  0  0  0  0  0  0  0  0
  152.7403  141.8487  159.5066 C   0  0  0  0  0  0  0  0  0  0  0  0
  152.0568  141.7004  158.1305 C   0  0  0  0  0  0  0  0  0  0  0  0
  150.9116  142.7110  157.9569 C   0  0  0  0  0  0  0  0  0  0  0  0
  151.4009  144.1508  158.1748 C   0  0  0  0  0  0  0  0  0  0  0  0
  152.0709  144.3045  159.5490 C   0  0  0  0  0  0  0  0  0  0  0  0
  153.2183  143.2968  159.7259 C   0  0  0  0  0  0  0  0  0  0  0  0
  155.4806  138.4756  162.7964 C   0  0  0  0  0  0  0  0  0  0  0  0
  155.6664  139.5431  163.3865 O   0  0  0  0  0  0  0  0  0  0  0  0
  156.5769  137.8138  166.6113 H   0  0  0  0  0  0  0  0  0  0  0  0
  156.7914  138.8688  165.2208 H   0  0  0  0  0  0  0  0  0  0  0  0
  157.4286  137.2255  165.1868 H   0  0  0  0  0  0  0  0  0  0  0  0
  155.0663  136.3097  165.2862 H   0  0  0  0  0  0  0  0  0  0  0  0
  154.4088  137.9320  165.2600 H   0  0  0  0  0  0  0  0  0  0  0  0
  154.8784  135.1883  163.3926 H   0  0  0  0  0  0  0  0  0  0  0  0
  156.6223  140.1653  160.9159 H   0  0  0  0  0  0  0  0  0  0  0  0
  155.8601  139.4372  159.5582 H   0  0  0  0  0  0  0  0  0  0  0  0
  154.1731  140.4779  158.7700 H   0  0  0  0  0  0  0  0  0  0  0  0
  152.0178  141.6072  160.2888 H   0  0  0  0  0  0  0  0  0  0  0  0
  152.7908  141.8480  157.3368 H   0  0  0  0  0  0  0  0  0  0  0  0
  151.6690  140.6887  158.0069 H   0  0  0  0  0  0  0  0  0  0  0  0
  150.4774  142.6125  156.9615 H   0  0  0  0  0  0  0  0  0  0  0  0
  150.1145  142.4842  158.6658 H   0  0  0  0  0  0  0  0  0  0  0  0
  152.1092  144.4189  157.3898 H   0  0  0  0  0  0  0  0  0  0  0  0
  150.5651  144.8455  158.0879 H   0  0  0  0  0  0  0  0  0  0  0  0
  152.4476  145.3209  159.6671 H   0  0  0  0  0  0  0  0  0  0  0  0
  151.3299  144.1561  160.3356 H   0  0  0  0  0  0  0  0  0  0  0  0
  153.6468  143.4018  160.7236 H   0  0  0  0  0  0  0  0  0  0  0  0
  154.0166  143.5336  159.0207 H   0  0  0  0  0  0  0  0  0  0  0  0
  1  2  1  0  0  0  0
  1 23  1  0  0  0  0
  1 24  1  0  0  0  0
  1 25  1  0  0  0  0
  2  3  1  0  0  0  0
  2 26  1  0  0  0  0
  2 27  1  0  0  0  0
  3 21  1  0  0  0  0
  3  4  1  0  0  0  0
  4  5  2  0  0  0  0
  4 28  1  0  0  0  0
  5  6  1  0  0  0  0
  5  8  1  0  0  0  0
  6  7  3  0  0  0  0
  8  9  2  0  0  0  0
  8 10  1  0  0  0  0
 10 11  1  0  0  0  0
 10 21  1  0  0  0  0
 11 12  1  0  0  0  0
 11 29  1  0  0  0  0
 11 30  1  0  0  0  0
 12 13  2  0  0  0  0
 12 14  1  0  0  0  0
 14 15  1  0  0  0  0
 14 31  1  0  0  0  0
 15 20  1  0  0  0  0
 15 16  1  0  0  0  0
 15 32  1  0  0  0  0
 16 17  1  0  0  0  0
 16 33  1  0  0  0  0
 16 34  1  0  0  0  0
 17 18  1  0  0  0  0
 17 35  1  0  0  0  0
 17 36  1  0  0  0  0
 18 19  1  0  0  0  0
 18 37  1  0  0  0  0
 18 38  1  0  0  0  0
 19 20  1  0  0  0  0
 19 39  1  0  0  0  0
 19 40  1  0  0  0  0
 20 41  1  0  0  0  0
 20 42  1  0  0  0  0
 21 22  2  0  0  0  0
M  END
> <s_m_source_file>
AV-unprocessed.smi

> <i_m_source_file_index>
1077

> <i_lp_mmshare_version>
43012

> <i_f3d_flags>
0

> <s_epik_input>
W0NIM11bQ0gyXW4xW2NIXWMoQyNOKWMoPU8pbihjMT1PKVtDSDJdQyg9TylbTkhdW0NIXTJbQ0gyXVtDSDJdW0NIMl1bQ0gyXVtDSDJdMg==

> <s_epik_cmdline>
J2VwaWtfcHl0aG9uJywgJy1waCcsICc3LjAnLCAnLXRuJywgJzgnLCAnLW1hJywgJzIwMCcsICctbWV0YWxfYmluZGluZycsICctaW1hZScsICc8aW5maWxlLm1hZT4nLCAnLW9tYWUnLCAnPG91dGZpbGUubWFlPic=

> <r_lp_tautomer_probability>
1

> <r_epik_Ionization_Penalty>
1.90876e-08

> <r_epik_Ionization_Penalty_Charging>
4.07395e-11

> <r_epik_Ionization_Penalty_Neutral>
1.90469e-08

> <r_epik_State_Penalty>
-0

> <r_epik_Charging_Adjusted_Penalty>
4.07395e-11

> <i_epik_Tot_Q>
0

> <i_epik_Tot_abs_Q>
0

> <r_epik_Metal_State_Penalty>
-0

> <b_epik_Metal_Only>
0

> <s_lp_Force_Field>
OPLS_2005

> <r_lp_Energy>
10.9803

> <b_lp_Chiralities_Consistent>
1

> <s_lp_Variant>
AV-unprocessed.smi:1077-1

> <Gold.Version>
5.8.1

> <Gold.Id.Protein>
6NUR|6NUR_protein|mol2

> <Gold.PLP.Fitness>
43.2473

> <Gold.PLP.PLP>
-40.5816

> <Gold.PLP.part.hbond>
-2.0000

> <Gold.PLP.part.metal>
0.0000

> <Gold.PLP.part.buried>
-4.6228

> <Gold.PLP.part.nonpolar>
-33.9853

> <Gold.PLP.part.repulsive>
0.0735

> <Gold.PLP.ligand.clash>
0.0000

> <Gold.PLP.ligand.torsion>
0.1802

> <Gold.PLP.Chemscore.Hbond>
1.0000

> <Gold.PLP.Chemscore.CHOScore>
0.0000

> <Gold.PLP.Chemscore.Metal>
0.0000

> <Gold.Chemscore.Hbonds>
donor molecule, donor type, donor heavy atom, donor atom, acceptor molecule, acceptor atom, score
      P1  H  6896  6909       L1     7  0.50

> <Gold.PLP.Chemscore.Internal.Correction>
0.0260

> <Gold.Rescore>
     Score         DG    S(hbond)    S(metal)    S(lipo)     H(rot)  DE(clash)    DE(int)     intcor
     11.11     -14.26       0.51        0.00      98.88       1.75       0.09       3.05       ----

> <Gold.Chemscore.Fitness>
11.1135

> <Gold.Chemscore.DG>
-14.2578

> <Gold.Chemscore.ZeroCoef>
-5.4800

> <Gold.Chemscore.Hbond>
0.5072

> <Gold.Chemscore.Metal>
0.0000

> <Gold.Chemscore.Lipo>
98.8790

> <Gold.Chemscore.Internal_Hbond>
0.0000

> <Gold.Chemscore.DEClash>
0.0931

> <Gold.Chemscore.DEInternal>
3.0513

> <Gold.Chemscore.Rot>
1.7520

> <Gold.Chemscore.Internal.Correction>
   9.000000E+99

> <Gold.Chemscore.Hbonds>
donor molecule, donor type, donor heavy atom, donor atom, acceptor molecule, acceptor atom, score
      P1  H  6896  6909       L1     7  0.03

> <Gold.Chemscore.Hbond.Weighted>
-1.6942

> <Gold.Chemscore.Metal.Weighted>
-0.0000

> <Gold.Chemscore.Lipo.Weighted>
-11.5688

> <Gold.Chemscore.Internal_Hbond.Weighted>
0.0000

> <Gold.Chemscore.DEClash.Weighted>
0.0931

> <Gold.Chemscore.DEInternal.Weighted>
3.0513

> <Gold.Chemscore.Rot.Weighted>
4.4852

> <Gold.Chemscore.Internal.Correction.Weighted>
   9.000000E+99

> <Gold.Protein.RotatedTorsions>
[ 6907 6896 6895 6894 ] final -156.78 input  -60.11 | X-H torsion
[ 7974 7965 7964 7962 ] final  -66.84 input  175.53 | X-H torsion
[ 8008 7997 7996 7995 ] final  -15.43 input   59.86 | X-H torsion
[ 10167 10162 10161 10158 ] final -179.59 input  -65.29 | X-H torsion
[ 10718 10713 10712 10709 ] final   37.10 input   66.30 | X-H torsion
[ 10763 10752 10751 10750 ] final  137.79 input  -60.55 | X-H torsion
[ 11005 11000 10999 10996 ] final  -42.82 input  -57.11 | X-H torsion

> <Gold.Protein.ActiveResidues>
 VAL166  LYS551  ARG553  GLY616  TRP617  ASP618  TYR619  PRO620  LYS621  CYS622 
 ASP623  PHE694  ASN695  SER759  ASP760  ASP761  ALA762  ILE779  LEU786  VAL792 
 PHE793  MET794  SER795  GLU796  ALA797  LYS798  CYS799  TRP800  GLU811  SER814 

> <Gold.Protein.RotatedAtoms>
  151.2929  133.4157  159.2634 H   0  0  0  0  0  0  0  0  0  0  0  0  # atno 6907 bound_to 6896
  151.0262  134.9506  159.8096 H   0  0  0  0  0  0  0  0  0  0  0  0  # atno 6908 bound_to 6896
  152.5335  134.2891  159.9089 H   0  0  0  0  0  0  0  0  0  0  0  0  # atno 6909 bound_to 6896
  145.7367  140.8972  143.0551 H   0  0  0  0  0  0  0  0  0  0  0  0  # atno 7974 bound_to 7965
  154.5131  140.2196  155.9118 H   0  0  0  0  0  0  0  0  0  0  0  0  # atno 8008 bound_to 7997
  156.1575  140.3149  155.8717 H   0  0  0  0  0  0  0  0  0  0  0  0  # atno 8009 bound_to 7997
  155.3817  140.0473  157.3034 H   0  0  0  0  0  0  0  0  0  0  0  0  # atno 8010 bound_to 7997
  139.5379  144.2444  152.0834 H   0  0  0  0  0  0  0  0  0  0  0  0  # atno 10167 bound_to 10162
  157.3428  130.7557  149.6924 H   0  0  0  0  0  0  0  0  0  0  0  0  # atno 10718 bound_to 10713
  153.8788  135.3047  155.3444 H   0  0  0  0  0  0  0  0  0  0  0  0  # atno 10763 bound_to 10752
  154.7771  135.4855  153.9770 H   0  0  0  0  0  0  0  0  0  0  0  0  # atno 10764 bound_to 10752
  153.1363  135.6814  153.9194 H   0  0  0  0  0  0  0  0  0  0  0  0  # atno 10765 bound_to 10752
  141.0342  133.6807  156.2647 H   0  0  0  0  0  0  0  0  0  0  0  0  # atno 11005 bound_to 11000
  144.6880  139.9405  143.7475 LP  0  0  0  0  0  0  0  0  0  0  0  0  # atno 17320 bound_to 7965
  146.0486  139.3490  143.0653 LP  0  0  0  0  0  0  0  0  0  0  0  0  # atno 17321 bound_to 7965
  140.1918  144.4745  150.6475 LP  0  0  0  0  0  0  0  0  0  0  0  0  # atno 17342 bound_to 10162
  140.6595  143.2248  151.5888 LP  0  0  0  0  0  0  0  0  0  0  0  0  # atno 17343 bound_to 10162
  155.9710  130.4163  150.4222 LP  0  0  0  0  0  0  0  0  0  0  0  0  # atno 17370 bound_to 10713
  157.2273  131.0496  151.2513 LP  0  0  0  0  0  0  0  0  0  0  0  0  # atno 17371 bound_to 10713
  140.6353  134.5222  157.5564 LP  0  0  0  0  0  0  0  0  0  0  0  0  # atno 17394 bound_to 11000
  139.9228  134.8114  156.1158 LP  0  0  0  0  0  0  0  0  0  0  0  0  # atno 17395 bound_to 11000

$$$$
