AV-unprocessed.smi:1834|AV-procd|sdf|7472|dock5
  -GOLD-   22720 9163D 1   1.00000     0.00000
 Structure written by MMmdl.
 46 47  0  0  0  0  0  0  0  0  2 V2000
  144.3087  132.6628  149.5258 C   0  0  0  0  0  0  0  0  0  0  0  0
  144.9391  132.5887  150.9244 C   0  0  0  0  0  0  0  0  0  0  0  0
  144.6766  133.8043  151.7362 N   0  3  2  0  0  0  0  0  0  0  0  0
  143.2265  134.0068  151.9838 C   0  0  0  0  0  0  0  0  0  0  0  0
  142.9904  135.1856  152.9390 C   0  0  0  0  0  0  0  0  0  0  0  0
  143.6281  136.4674  152.3910 C   0  0  0  0  0  0  0  0  0  0  0  0
  145.1259  136.2513  152.1097 C   0  0  2  0  0  0  0  0  0  0  0  0
  145.7591  137.5428  151.5460 C   0  0  0  0  0  0  0  0  0  0  0  0
  147.1138  137.7754  152.0408 N   0  0  0  0  0  0  0  0  0  0  0  0
  147.4605  138.6910  152.9577 C   0  0  0  0  0  0  0  0  0  0  0  0
  146.6571  139.4670  153.4756 O   0  0  0  0  0  0  0  0  0  0  0  0
  148.7795  138.6476  153.2134 N   0  0  0  0  0  0  0  0  0  0  0  0
  149.5103  139.4413  154.0408 C   0  0  0  0  0  0  0  0  0  0  0  0
  149.1783  140.6503  154.5890 C   0  0  0  0  0  0  0  0  0  0  0  0
  150.3377  140.9783  155.3503 C   0  0  0  0  0  0  0  0  0  0  0  0
  150.5785  142.2001  156.1865 C   0  0  0  0  0  0  0  0  0  0  0  0
  151.2844  140.0502  155.2677 N   0  0  0  0  0  0  0  0  0  0  0  0
  150.7767  139.0966  154.4574 N   0  0  0  0  0  0  0  0  0  0  0  0
  151.5590  137.9156  154.1484 C   0  0  0  0  0  0  0  0  0  0  0  0
  145.3139  135.0285  151.1807 C   0  0  0  0  0  0  0  0  0  0  0  0
  144.6089  131.8030  148.9264 H   0  0  0  0  0  0  0  0  0  0  0  0
  144.6282  133.5608  148.9961 H   0  0  0  0  0  0  0  0  0  0  0  0
  143.2197  132.6617  149.5635 H   0  0  0  0  0  0  0  0  0  0  0  0
  144.5941  131.7008  151.4562 H   0  0  0  0  0  0  0  0  0  0  0  0
  146.0158  132.4710  150.7944 H   0  0  0  0  0  0  0  0  0  0  0  0
  142.7137  134.1795  151.0360 H   0  0  0  0  0  0  0  0  0  0  0  0
  142.7949  133.1042  152.4184 H   0  0  0  0  0  0  0  0  0  0  0  0
  141.9207  135.3364  153.0871 H   0  0  0  0  0  0  0  0  0  0  0  0
  143.4095  134.9553  153.9196 H   0  0  0  0  0  0  0  0  0  0  0  0
  143.1169  136.7673  151.4750 H   0  0  0  0  0  0  0  0  0  0  0  0
  143.4903  137.2806  153.1044 H   0  0  0  0  0  0  0  0  0  0  0  0
  145.6141  136.0297  153.0604 H   0  0  0  0  0  0  0  0  0  0  0  0
  145.7415  137.5317  150.4546 H   0  0  0  0  0  0  0  0  0  0  0  0
  145.1589  138.4025  151.8455 H   0  0  0  0  0  0  0  0  0  0  0  0
  147.8395  137.1792  151.6696 H   0  0  0  0  0  0  0  0  0  0  0  0
  149.3076  137.9459  152.7159 H   0  0  0  0  0  0  0  0  0  0  0  0
  148.2685  141.2207  154.4792 H   0  0  0  0  0  0  0  0  0  0  0  0
  149.7150  142.8654  156.1699 H   0  0  0  0  0  0  0  0  0  0  0  0
  151.4375  142.7631  155.8208 H   0  0  0  0  0  0  0  0  0  0  0  0
  150.7709  141.9334  157.2259 H   0  0  0  0  0  0  0  0  0  0  0  0
  151.5796  137.7595  153.0692 H   0  0  0  0  0  0  0  0  0  0  0  0
  151.1094  137.0451  154.6267 H   0  0  0  0  0  0  0  0  0  0  0  0
  152.5829  138.0286  154.5077 H   0  0  0  0  0  0  0  0  0  0  0  0
  146.3773  134.8409  151.0462 H   0  0  0  0  0  0  0  0  0  0  0  0
  144.9022  135.2386  150.1921 H   0  0  0  0  0  0  0  0  0  0  0  0
  145.0948  133.6390  152.6405 H   0  0  0  0  0  0  0  0  0  0  0  0
  1  2  1  0  0  0  0
  1 21  1  0  0  0  0
  1 22  1  0  0  0  0
  1 23  1  0  0  0  0
  2  3  1  0  0  0  0
  2 24  1  0  0  0  0
  2 25  1  0  0  0  0
  3 20  1  0  0  0  0
  3  4  1  0  0  0  0
  3 46  1  0  0  0  0
  4  5  1  0  0  0  0
  4 26  1  0  0  0  0
  4 27  1  0  0  0  0
  5  6  1  0  0  0  0
  5 28  1  0  0  0  0
  5 29  1  0  0  0  0
  6  7  1  0  0  0  0
  6 30  1  0  0  0  0
  6 31  1  0  0  0  0
  7  8  1  0  0  0  0
  7 20  1  0  0  0  0
  7 32  1  0  0  0  0
  8  9  1  0  0  0  0
  8 33  1  0  0  0  0
  8 34  1  0  0  0  0
  9 10  1  0  0  0  0
  9 35  1  0  0  0  0
 10 11  2  0  0  0  0
 10 12  1  0  0  0  0
 12 13  1  0  0  0  0
 12 36  1  0  0  0  0
 13 18  1  0  0  0  0
 13 14  2  0  0  0  0
 14 15  1  0  0  0  0
 14 37  1  0  0  0  0
 15 16  1  0  0  0  0
 15 17  2  0  0  0  0
 16 38  1  0  0  0  0
 16 39  1  0  0  0  0
 16 40  1  0  0  0  0
 17 18  1  0  0  0  0
 18 19  1  0  0  0  0
 19 41  1  0  0  0  0
 19 42  1  0  0  0  0
 19 43  1  0  0  0  0
 20 44  1  0  0  0  0
 20 45  1  0  0  0  0
M  CHG  1   3   1
M  END
> <s_m_source_file>
AV-unprocessed.smi

> <i_m_source_file_index>
1834

> <i_lp_mmshare_version>
43012

> <i_f3d_flags>
0

> <s_epik_input>
W0NIM11bQ0gyXU4xW0NIMl1bQ0gyXVtDSDJdW0NASF0oW0NIMl0xKVtDSDJdW05IXUMoPU8pW05IXWMyW2NIXWMoW0NIM10pbm4yW0NIM10=

> <s_epik_cmdline>
J2VwaWtfcHl0aG9uJywgJy1waCcsICc3LjAnLCAnLXRuJywgJzgnLCAnLW1hJywgJzIwMCcsICctbWV0YWxfYmluZGluZycsICctaW1hZScsICc8aW5maWxlLm1hZT4nLCAnLW9tYWUnLCAnPG91dGZpbGUubWFlPic=

> <r_lp_tautomer_probability>
1

> <r_epik_Ionization_Penalty>
0.000466842

> <r_epik_Ionization_Penalty_Charging>
0.000378984

> <r_epik_Ionization_Penalty_Neutral>
8.78572e-05

> <r_epik_State_Penalty>
0.000231434

> <r_epik_Charging_Adjusted_Penalty>
0.000610418

> <i_epik_Tot_Q>
1

> <i_epik_Tot_abs_Q>
1

> <r_epik_Metal_State_Penalty>
-0

> <b_epik_Metal_Only>
0

> <s_lp_Force_Field>
OPLS_2005

> <r_lp_Energy>
19.5344

> <b_lp_Chiralities_Consistent>
1

> <s_lp_Variant>
AV-unprocessed.smi:1834-4

> <Gold.Version>
5.8.1

> <Gold.Id.Protein>
6NUR|6NUR_protein|mol2

> <Gold.PLP.Fitness>
43.6831

> <Gold.PLP.PLP>
-39.4428

> <Gold.PLP.part.hbond>
-3.7945

> <Gold.PLP.part.metal>
0.0000

> <Gold.PLP.part.buried>
0.4132

> <Gold.PLP.part.nonpolar>
-35.9661

> <Gold.PLP.part.repulsive>
0.3606

> <Gold.PLP.ligand.clash>
0.0000

> <Gold.PLP.ligand.torsion>
0.6433

> <Gold.PLP.Chemscore.Hbond>
1.8302

> <Gold.PLP.Chemscore.CHOScore>
0.0000

> <Gold.PLP.Chemscore.Metal>
0.0000

> <Gold.Chemscore.Hbonds>
donor molecule, donor type, donor heavy atom, donor atom, acceptor molecule, acceptor atom, score
      L1  H     9    35       P1  7948  0.78
      L1  H    12    36       P1  7948  0.77

> <Gold.PLP.Chemscore.Internal.Correction>
0.0364

> <Gold.Rescore>
     Score         DG    S(hbond)    S(metal)    S(lipo)     H(rot)  DE(clash)    DE(int)     intcor
     15.07     -16.74       1.93        0.00      72.29       1.43       0.16       1.51       ----

> <Gold.Chemscore.Fitness>
15.0670

> <Gold.Chemscore.DG>
-16.7377

> <Gold.Chemscore.ZeroCoef>
-5.4800

> <Gold.Chemscore.Hbond>
1.9336

> <Gold.Chemscore.Metal>
0.0000

> <Gold.Chemscore.Lipo>
72.2899

> <Gold.Chemscore.Internal_Hbond>
0.0000

> <Gold.Chemscore.DEClash>
0.1604

> <Gold.Chemscore.DEInternal>
1.5104

> <Gold.Chemscore.Rot>
1.4291

> <Gold.Chemscore.Internal.Correction>
   9.000000E+99

> <Gold.Chemscore.Hbonds>
donor molecule, donor type, donor heavy atom, donor atom, acceptor molecule, acceptor atom, score
      L1  H     9    35       P1  7948  0.74
      L1  H    12    36       P1  7948  0.72

> <Gold.Chemscore.Hbond.Weighted>
-6.4583

> <Gold.Chemscore.Metal.Weighted>
-0.0000

> <Gold.Chemscore.Lipo.Weighted>
-8.4579

> <Gold.Chemscore.Internal_Hbond.Weighted>
0.0000

> <Gold.Chemscore.DEClash.Weighted>
0.1604

> <Gold.Chemscore.DEInternal.Weighted>
1.5104

> <Gold.Chemscore.Rot.Weighted>
3.6584

> <Gold.Chemscore.Internal.Correction.Weighted>
   9.000000E+99

> <Gold.Protein.RotatedTorsions>
[ 6907 6896 6895 6894 ] final  132.65 input  -60.11 | X-H torsion
[ 7974 7965 7964 7962 ] final  -50.05 input  175.53 | X-H torsion
[ 8008 7997 7996 7995 ] final  -93.37 input   59.86 | X-H torsion
[ 10167 10162 10161 10158 ] final -159.81 input  -65.29 | X-H torsion
[ 10718 10713 10712 10709 ] final  133.24 input   66.30 | X-H torsion
[ 10763 10752 10751 10750 ] final -164.79 input  -60.55 | X-H torsion
[ 11005 11000 10999 10996 ] final  152.74 input  -57.11 | X-H torsion

> <Gold.Protein.ActiveResidues>
 VAL166  LYS551  ARG553  GLY616  TRP617  ASP618  TYR619  PRO620  LYS621  CYS622 
 ASP623  PHE694  ASN695  SER759  ASP760  ASP761  ALA762  ILE779  LEU786  VAL792 
 PHE793  MET794  SER795  GLU796  ALA797  LYS798  CYS799  TRP800  GLU811  SER814 

> <Gold.Protein.RotatedAtoms>
  152.3302  133.5950  159.5804 H   0  0  0  0  0  0  0  0  0  0  0  0  # atno 6907 bound_to 6896
  150.7419  133.9879  159.3606 H   0  0  0  0  0  0  0  0  0  0  0  0  # atno 6908 bound_to 6896
  151.7755  135.0776  160.0417 H   0  0  0  0  0  0  0  0  0  0  0  0  # atno 6909 bound_to 6896
  145.9340  140.7723  142.9585 H   0  0  0  0  0  0  0  0  0  0  0  0  # atno 7974 bound_to 7965
  154.7348  140.0499  157.0759 H   0  0  0  0  0  0  0  0  0  0  0  0  # atno 8008 bound_to 7997
  155.0254  140.3152  155.4758 H   0  0  0  0  0  0  0  0  0  0  0  0  # atno 8009 bound_to 7997
  156.2850  140.2159  156.5374 H   0  0  0  0  0  0  0  0  0  0  0  0  # atno 8010 bound_to 7997
  139.6587  143.9952  152.2211 H   0  0  0  0  0  0  0  0  0  0  0  0  # atno 10167 bound_to 10162
  157.4792  131.1085  150.9703 H   0  0  0  0  0  0  0  0  0  0  0  0  # atno 10718 bound_to 10713
  154.6994  135.2985  154.9363 H   0  0  0  0  0  0  0  0  0  0  0  0  # atno 10763 bound_to 10752
  154.0300  135.6671  153.4784 H   0  0  0  0  0  0  0  0  0  0  0  0  # atno 10764 bound_to 10752
  153.0670  135.5082  154.8130 H   0  0  0  0  0  0  0  0  0  0  0  0  # atno 10765 bound_to 10752
  140.1335  134.8786  157.2235 H   0  0  0  0  0  0  0  0  0  0  0  0  # atno 11005 bound_to 11000
  144.6769  140.2173  143.7370 LP  0  0  0  0  0  0  0  0  0  0  0  0  # atno 17320 bound_to 7965
  145.8388  139.2120  143.1839 LP  0  0  0  0  0  0  0  0  0  0  0  0  # atno 17321 bound_to 7965
  139.9685  144.6509  150.8011 LP  0  0  0  0  0  0  0  0  0  0  0  0  # atno 17342 bound_to 10162
  140.7570  143.3078  151.2919 LP  0  0  0  0  0  0  0  0  0  0  0  0  # atno 17343 bound_to 10162
  157.0442  130.5761  149.5360 LP  0  0  0  0  0  0  0  0  0  0  0  0  # atno 17370 bound_to 10713
  156.0113  130.5204  150.7996 LP  0  0  0  0  0  0  0  0  0  0  0  0  # atno 17371 bound_to 10713
  140.2812  134.3347  155.7342 LP  0  0  0  0  0  0  0  0  0  0  0  0  # atno 17394 bound_to 11000
  141.2174  133.7480  156.9367 LP  0  0  0  0  0  0  0  0  0  0  0  0  # atno 17395 bound_to 11000

$$$$
