AV-unprocessed.smi:3162|AV-procd|sdf|12068|dock6
  -GOLD-   2272017493D 1   1.00000     0.00000
 Structure written by MMmdl.
 36 36  0  0  0  0  0  0  0  0  1 V2000
  147.2321  141.7689  154.2539 C   0  0  0  0  0  0  0  0  0  0  0  0
  148.7383  141.7359  154.5574 C   0  0  0  0  0  0  0  0  0  0  0  0
  149.2547  140.3731  155.0683 C   0  0  1  0  0  0  0  0  0  0  0  0
  148.8391  140.1949  156.4750 N   0  0  0  0  0  0  0  0  0  0  0  0
  149.4570  141.0660  157.4788 C   0  0  2  0  0  0  0  0  0  0  0  0
  148.4673  142.2098  157.7552 C   0  0  0  0  0  0  0  0  0  0  0  0
  150.8557  141.5763  157.0475 C   0  0  0  0  0  0  0  0  0  0  0  0
  151.4590  142.5068  157.9892 N   0  0  0  0  0  0  0  0  0  0  0  0
  151.0176  143.7597  158.3603 C   0  0  0  0  0  0  0  0  0  0  0  0
  151.9050  144.2565  159.2725 C   0  0  0  0  0  0  0  0  0  0  0  0
  151.8783  145.5752  159.9897 C   0  0  0  0  0  0  0  0  0  0  0  0
  152.8742  143.2201  159.3888 C   0  0  0  0  0  0  0  0  0  0  0  0
  152.6082  142.1783  158.6181 N   0  0  0  0  0  0  0  0  0  0  0  0
  148.8041  139.2174  154.1567 C   0  0  0  0  0  0  0  0  0  0  0  0
  149.7610  138.5142  153.5455 N   0  0  0  0  0  0  0  0  0  0  0  0
  147.6109  138.9518  154.0245 O   0  0  0  0  0  0  0  0  0  0  0  0
  146.9443  142.7346  153.8380 H   0  0  0  0  0  0  0  0  0  0  0  0
  146.6349  141.6091  155.1518 H   0  0  0  0  0  0  0  0  0  0  0  0
  146.9609  141.0022  153.5280 H   0  0  0  0  0  0  0  0  0  0  0  0
  149.2709  141.9946  153.6410 H   0  0  0  0  0  0  0  0  0  0  0  0
  148.9809  142.5229  155.2729 H   0  0  0  0  0  0  0  0  0  0  0  0
  150.3433  140.4217  155.0420 H   0  0  0  0  0  0  0  0  0  0  0  0
  148.9524  139.2333  156.7630 H   0  0  0  0  0  0  0  0  0  0  0  0
  149.5669  140.5197  158.4155 H   0  0  0  0  0  0  0  0  0  0  0  0
  148.8724  142.9061  158.4899 H   0  0  0  0  0  0  0  0  0  0  0  0
  147.5260  141.8276  158.1516 H   0  0  0  0  0  0  0  0  0  0  0  0
  148.2377  142.7767  156.8521 H   0  0  0  0  0  0  0  0  0  0  0  0
  151.5259  140.7225  156.9352 H   0  0  0  0  0  0  0  0  0  0  0  0
  150.8255  142.0472  156.0655 H   0  0  0  0  0  0  0  0  0  0  0  0
  150.1137  144.1880  157.9527 H   0  0  0  0  0  0  0  0  0  0  0  0
  152.0052  145.4502  161.0650 H   0  0  0  0  0  0  0  0  0  0  0  0
  150.9361  146.1023  159.8371 H   0  0  0  0  0  0  0  0  0  0  0  0
  152.6752  146.2349  159.6460 H   0  0  0  0  0  0  0  0  0  0  0  0
  153.7589  143.1948  160.0079 H   0  0  0  0  0  0  0  0  0  0  0  0
  149.5129  137.7462  152.9393 H   0  0  0  0  0  0  0  0  0  0  0  0
  150.7306  138.7536  153.6940 H   0  0  0  0  0  0  0  0  0  0  0  0
  1  2  1  0  0  0  0
  1 17  1  0  0  0  0
  1 18  1  0  0  0  0
  1 19  1  0  0  0  0
  2  3  1  0  0  0  0
  2 20  1  0  0  0  0
  2 21  1  0  0  0  0
  3  4  1  0  0  0  0
  3 14  1  0  0  0  0
  3 22  1  0  0  0  0
  4  5  1  0  0  0  0
  4 23  1  0  0  0  0
  5  6  1  0  0  0  0
  5  7  1  0  0  0  0
  5 24  1  0  0  0  0
  6 25  1  0  0  0  0
  6 26  1  0  0  0  0
  6 27  1  0  0  0  0
  7  8  1  0  0  0  0
  7 28  1  0  0  0  0
  7 29  1  0  0  0  0
  8 13  1  0  0  0  0
  8  9  1  0  0  0  0
  9 10  2  0  0  0  0
  9 30  1  0  0  0  0
 10 11  1  0  0  0  0
 10 12  1  0  0  0  0
 11 31  1  0  0  0  0
 11 32  1  0  0  0  0
 11 33  1  0  0  0  0
 12 13  2  0  0  0  0
 12 34  1  0  0  0  0
 14 15  1  0  0  0  0
 14 16  2  0  0  0  0
 15 35  1  0  0  0  0
 15 36  1  0  0  0  0
M  END
> <s_m_source_file>
AV-unprocessed.smi

> <i_m_source_file_index>
3162

> <i_lp_mmshare_version>
43012

> <i_f3d_flags>
0

> <s_epik_input>
W0NIM11bQ0gyXVtDQEBIXShDKD1PKVtOSDJdKVtOSF1bQ0BIXShbQ0gzXSlbQ0gyXW4xW2NIXWMoW0NIM10pW2NIXW4x

> <s_epik_cmdline>
J2VwaWtfcHl0aG9uJywgJy1waCcsICc3LjAnLCAnLXRuJywgJzgnLCAnLW1hJywgJzIwMCcsICctbWV0YWxfYmluZGluZycsICctaW1hZScsICc8aW5maWxlLm1hZT4nLCAnLW9tYWUnLCAnPG91dGZpbGUubWFlPic=

> <r_lp_tautomer_probability>
1

> <r_epik_Ionization_Penalty>
1.04167

> <r_epik_Ionization_Penalty_Charging>
0

> <r_epik_Ionization_Penalty_Neutral>
1.04167

> <r_epik_State_Penalty>
1.09367

> <r_epik_Charging_Adjusted_Penalty>
1.09367

> <i_epik_Tot_Q>
0

> <i_epik_Tot_abs_Q>
0

> <r_epik_Metal_State_Penalty>
1.09362

> <b_epik_Metal_Only>
0

> <s_lp_Force_Field>
OPLS_2005

> <r_lp_Energy>
2.92083

> <b_lp_Chiralities_Consistent>
1

> <s_lp_Variant>
AV-unprocessed.smi:3162-6

> <Gold.Version>
5.8.1

> <Gold.Id.Protein>
6NUR|6NUR_protein|mol2

> <Gold.PLP.Fitness>
39.9222

> <Gold.PLP.PLP>
-34.7674

> <Gold.PLP.part.hbond>
-2.0000

> <Gold.PLP.part.metal>
0.0000

> <Gold.PLP.part.buried>
-2.3630

> <Gold.PLP.part.nonpolar>
-30.0282

> <Gold.PLP.part.repulsive>
0.2561

> <Gold.PLP.ligand.clash>
0.0000

> <Gold.PLP.ligand.torsion>
0.6685

> <Gold.PLP.Chemscore.Hbond>
1.0000

> <Gold.PLP.Chemscore.CHOScore>
1.0946

> <Gold.PLP.Chemscore.Metal>
0.0000

> <Gold.Chemscore.Hbonds>
donor molecule, donor type, donor heavy atom, donor atom, acceptor molecule, acceptor atom, score
      L1  H    15    35       P1  7948  1.00
      L1  C     9    30       P1  8028  0.77
      L1  C     9    30       P1  8029  0.04

> <Gold.PLP.Chemscore.Internal.Correction>
0.2079

> <Gold.Rescore>
     Score         DG    S(hbond)    S(metal)    S(lipo)     H(rot)  DE(clash)    DE(int)     intcor
     11.25     -11.76       1.00        0.00      78.52       2.43       0.00       0.51       ----

> <Gold.Chemscore.Fitness>
11.2531

> <Gold.Chemscore.DG>
-11.7629

> <Gold.Chemscore.ZeroCoef>
-5.4800

> <Gold.Chemscore.Hbond>
0.9953

> <Gold.Chemscore.Metal>
0.0000

> <Gold.Chemscore.Lipo>
78.5179

> <Gold.Chemscore.Internal_Hbond>
0.0000

> <Gold.Chemscore.DEClash>
0.0038

> <Gold.Chemscore.DEInternal>
0.5060

> <Gold.Chemscore.Rot>
2.4328

> <Gold.Chemscore.Internal.Correction>
   9.000000E+99

> <Gold.Chemscore.Hbonds>
donor molecule, donor type, donor heavy atom, donor atom, acceptor molecule, acceptor atom, score
      L1  H    15    35       P1  7948  0.82

> <Gold.Chemscore.Hbond.Weighted>
-3.3242

> <Gold.Chemscore.Metal.Weighted>
-0.0000

> <Gold.Chemscore.Lipo.Weighted>
-9.1866

> <Gold.Chemscore.Internal_Hbond.Weighted>
0.0000

> <Gold.Chemscore.DEClash.Weighted>
0.0038

> <Gold.Chemscore.DEInternal.Weighted>
0.5060

> <Gold.Chemscore.Rot.Weighted>
6.2279

> <Gold.Chemscore.Internal.Correction.Weighted>
   9.000000E+99

> <Gold.Protein.RotatedTorsions>
[ 6907 6896 6895 6894 ] final -145.30 input  -60.11 | X-H torsion
[ 7974 7965 7964 7962 ] final   25.75 input  175.53 | X-H torsion
[ 8008 7997 7996 7995 ] final   -0.89 input   59.86 | X-H torsion
[ 10167 10162 10161 10158 ] final  -98.96 input  -65.29 | X-H torsion
[ 10718 10713 10712 10709 ] final  125.47 input   66.30 | X-H torsion
[ 10763 10752 10751 10750 ] final   36.67 input  -60.55 | X-H torsion
[ 11005 11000 10999 10996 ] final  -31.36 input  -57.11 | X-H torsion

> <Gold.Protein.ActiveResidues>
 VAL166  LYS551  ARG553  GLY616  TRP617  ASP618  TYR619  PRO620  LYS621  CYS622 
 ASP623  PHE694  ASN695  SER759  ASP760  ASP761  ALA762  ILE779  LEU786  VAL792 
 PHE793  MET794  SER795  GLU796  ALA797  LYS798  CYS799  TRP800  GLU811  SER814 

> <Gold.Protein.RotatedAtoms>
  151.1259  133.5071  159.2600 H   0  0  0  0  0  0  0  0  0  0  0  0  # atno 6907 bound_to 6896
  151.1810  135.0360  159.8802 H   0  0  0  0  0  0  0  0  0  0  0  0  # atno 6908 bound_to 6896
  152.5458  134.1111  159.8412 H   0  0  0  0  0  0  0  0  0  0  0  0  # atno 6909 bound_to 6896
  146.1873  139.7423  142.8857 H   0  0  0  0  0  0  0  0  0  0  0  0  # atno 7974 bound_to 7965
  154.6529  140.2573  155.7193 H   0  0  0  0  0  0  0  0  0  0  0  0  # atno 8008 bound_to 7997
  156.2583  140.2864  156.0892 H   0  0  0  0  0  0  0  0  0  0  0  0  # atno 8009 bound_to 7997
  155.1423  140.0380  157.2791 H   0  0  0  0  0  0  0  0  0  0  0  0  # atno 8010 bound_to 7997
  140.2675  143.3366  152.0567 H   0  0  0  0  0  0  0  0  0  0  0  0  # atno 10167 bound_to 10162
  157.5501  131.1094  150.8717 H   0  0  0  0  0  0  0  0  0  0  0  0  # atno 10718 bound_to 10713
  153.0068  135.6299  154.2022 H   0  0  0  0  0  0  0  0  0  0  0  0  # atno 10763 bound_to 10752
  154.1765  135.2815  155.3067 H   0  0  0  0  0  0  0  0  0  0  0  0  # atno 10764 bound_to 10752
  154.5868  135.5630  153.7298 H   0  0  0  0  0  0  0  0  0  0  0  0  # atno 10765 bound_to 10752
  140.9461  133.7249  156.1149 H   0  0  0  0  0  0  0  0  0  0  0  0  # atno 11005 bound_to 11000
  145.3900  141.0371  143.3129 LP  0  0  0  0  0  0  0  0  0  0  0  0  # atno 17320 bound_to 7965
  144.8420  139.5456  143.6896 LP  0  0  0  0  0  0  0  0  0  0  0  0  # atno 17321 bound_to 7965
  139.4998  144.6678  151.6314 LP  0  0  0  0  0  0  0  0  0  0  0  0  # atno 17342 bound_to 10162
  140.5916  143.9769  150.6328 LP  0  0  0  0  0  0  0  0  0  0  0  0  # atno 17343 bound_to 10162
  156.9244  130.5327  149.5279 LP  0  0  0  0  0  0  0  0  0  0  0  0  # atno 17370 bound_to 10713
  156.0569  130.5629  150.9110 LP  0  0  0  0  0  0  0  0  0  0  0  0  # atno 17371 bound_to 10713
  140.7667  134.3878  157.5515 LP  0  0  0  0  0  0  0  0  0  0  0  0  # atno 17394 bound_to 11000
  139.8834  134.8996  156.2770 LP  0  0  0  0  0  0  0  0  0  0  0  0  # atno 17395 bound_to 11000

$$$$
