AV-unprocessed.smi:236|AV-procd|sdf|1809|dock7
  -GOLD-   2262020393D 1   1.00000     0.00000
 Structure written by MMmdl.
 58 62  0  0  0  0  0  0  0  0  1 V2000
  142.1248  134.9749  153.1999 C   0  0  0  0  0  0  0  0  0  0  0  0
  143.1565  135.4407  152.1619 C   0  0  2  0  0  0  0  0  0  0  0  0
  143.9603  134.3484  151.7228 O   0  0  0  0  0  0  0  0  0  0  0  0
  145.2910  134.7878  151.4649 C   0  0  0  0  0  0  0  0  0  0  0  0
  145.2544  136.3079  151.5874 C   0  0  0  0  0  0  0  0  0  0  0  0
  144.1486  136.5300  152.6124 C   0  0  1  0  0  0  0  0  0  0  0  0
  143.5901  137.8155  152.4144 O   0  0  0  0  0  0  0  0  0  0  0  0
  144.6170  136.3908  154.0866 C   0  0  0  0  0  0  0  0  0  0  0  0
  145.8741  137.0656  154.3690 N   0  0  0  0  0  0  0  0  0  0  0  0
  146.1190  138.4188  154.3068 C   0  0  0  0  0  0  0  0  0  0  0  0
  147.3386  138.7774  154.6017 N   0  0  0  0  0  0  0  0  0  0  0  0
  147.9813  137.5824  154.9030 C   0  0  0  0  0  0  0  0  0  0  0  0
  149.3042  137.2312  155.2964 C   0  0  0  0  0  0  0  0  0  0  0  0
  150.3193  138.1033  155.4694 N   0  0  0  0  0  0  0  0  0  0  0  0
  151.2959  138.0676  154.3903 C   0  0  0  0  0  0  0  0  0  0  0  0
  152.5034  138.9474  154.7522 C   0  0  0  0  0  0  0  0  0  0  0  0
  152.0565  140.2645  155.0607 O   0  0  0  0  0  0  0  0  0  0  0  0
  151.1739  140.2932  156.1812 C   0  0  1  0  0  0  0  0  0  0  0  0
  150.8167  141.7561  156.4710 C   0  0  0  0  0  0  0  0  0  0  0  0
  150.7165  141.9384  157.8736 O   0  0  0  0  0  0  0  0  0  0  0  0
  151.9263  142.3967  158.4514 C   0  0  0  0  0  0  0  0  0  0  0  0
  152.0216  143.8974  158.2764 C   0  0  0  0  0  0  0  0  0  0  0  0
  152.2882  144.8004  159.4595 C   0  0  0  0  0  0  0  0  0  0  0  0
  150.9280  144.7950  158.8099 C   0  0  0  0  0  0  0  0  0  0  0  0
  149.9257  139.4580  155.8368 C   0  0  0  0  0  0  0  0  0  0  0  0
  149.5834  135.9192  155.4908 N   0  0  0  0  0  0  0  0  0  0  0  0
  148.6265  135.0009  155.3256 C   0  0  0  0  0  0  0  0  0  0  0  0
  147.3524  135.1772  154.9690 N   0  0  0  0  0  0  0  0  0  0  0  0
  147.0724  136.4962  154.7630 C   0  0  0  0  0  0  0  0  0  0  0  0
  141.5293  135.8120  153.5644 H   0  0  0  0  0  0  0  0  0  0  0  0
  142.5999  134.4982  154.0573 H   0  0  0  0  0  0  0  0  0  0  0  0
  141.4405  134.2479  152.7621 H   0  0  0  0  0  0  0  0  0  0  0  0
  142.6226  135.7954  151.2780 H   0  0  0  0  0  0  0  0  0  0  0  0
  145.9533  134.3570  152.2163 H   0  0  0  0  0  0  0  0  0  0  0  0
  145.6356  134.4605  150.4840 H   0  0  0  0  0  0  0  0  0  0  0  0
  146.2187  136.7413  151.8500 H   0  0  0  0  0  0  0  0  0  0  0  0
  144.9645  136.7312  150.6239 H   0  0  0  0  0  0  0  0  0  0  0  0
  143.7100  138.0580  151.5091 H   0  0  0  0  0  0  0  0  0  0  0  0
  143.8626  136.7895  154.7661 H   0  0  0  0  0  0  0  0  0  0  0  0
  144.7326  135.3384  154.3483 H   0  0  0  0  0  0  0  0  0  0  0  0
  145.3611  139.1360  154.0268 H   0  0  0  0  0  0  0  0  0  0  0  0
  151.6207  137.0416  154.2120 H   0  0  0  0  0  0  0  0  0  0  0  0
  150.8352  138.4258  153.4685 H   0  0  0  0  0  0  0  0  0  0  0  0
  153.0497  138.5299  155.5996 H   0  0  0  0  0  0  0  0  0  0  0  0
  153.1998  138.9947  153.9152 H   0  0  0  0  0  0  0  0  0  0  0  0
  151.6685  139.8649  157.0550 H   0  0  0  0  0  0  0  0  0  0  0  0
  151.5661  142.4238  156.0425 H   0  0  0  0  0  0  0  0  0  0  0  0
  149.8573  142.0012  156.0127 H   0  0  0  0  0  0  0  0  0  0  0  0
  151.9475  142.1638  159.5168 H   0  0  0  0  0  0  0  0  0  0  0  0
  152.7854  141.9129  157.9837 H   0  0  0  0  0  0  0  0  0  0  0  0
  152.4587  144.2025  157.3273 H   0  0  0  0  0  0  0  0  0  0  0  0
  152.3789  144.3373  160.4401 H   0  0  0  0  0  0  0  0  0  0  0  0
  152.9214  145.6696  159.2941 H   0  0  0  0  0  0  0  0  0  0  0  0
  150.6523  145.6607  158.2108 H   0  0  0  0  0  0  0  0  0  0  0  0
  150.1121  144.3299  159.3599 H   0  0  0  0  0  0  0  0  0  0  0  0
  149.3891  139.9295  155.0136 H   0  0  0  0  0  0  0  0  0  0  0  0
  149.2470  139.4242  156.6903 H   0  0  0  0  0  0  0  0  0  0  0  0
  148.9250  133.9781  155.5027 H   0  0  0  0  0  0  0  0  0  0  0  0
  1  2  1  0  0  0  0
  1 30  1  0  0  0  0
  1 31  1  0  0  0  0
  1 32  1  0  0  0  0
  2  6  1  0  0  0  0
  2  3  1  0  0  0  0
  2 33  1  0  0  0  0
  3  4  1  0  0  0  0
  4  5  1  0  0  0  0
  4 34  1  0  0  0  0
  4 35  1  0  0  0  0
  5  6  1  0  0  0  0
  5 36  1  0  0  0  0
  5 37  1  0  0  0  0
  6  7  1  0  0  0  0
  6  8  1  0  0  0  0
  7 38  1  0  0  0  0
  8  9  1  0  0  0  0
  8 39  1  0  0  0  0
  8 40  1  0  0  0  0
  9 29  1  0  0  0  0
  9 10  1  0  0  0  0
 10 11  2  0  0  0  0
 10 41  1  0  0  0  0
 11 12  1  0  0  0  0
 12 29  2  0  0  0  0
 12 13  1  0  0  0  0
 13 14  1  0  0  0  0
 13 26  2  0  0  0  0
 14 25  1  0  0  0  0
 14 15  1  0  0  0  0
 15 16  1  0  0  0  0
 15 42  1  0  0  0  0
 15 43  1  0  0  0  0
 16 17  1  0  0  0  0
 16 44  1  0  0  0  0
 16 45  1  0  0  0  0
 17 18  1  0  0  0  0
 18 19  1  0  0  0  0
 18 25  1  0  0  0  0
 18 46  1  0  0  0  0
 19 20  1  0  0  0  0
 19 47  1  0  0  0  0
 19 48  1  0  0  0  0
 20 21  1  0  0  0  0
 21 22  1  0  0  0  0
 21 49  1  0  0  0  0
 21 50  1  0  0  0  0
 22 24  1  0  0  0  0
 22 23  1  0  0  0  0
 22 51  1  0  0  0  0
 23 24  1  0  0  0  0
 23 52  1  0  0  0  0
 23 53  1  0  0  0  0
 24 54  1  0  0  0  0
 24 55  1  0  0  0  0
 25 56  1  0  0  0  0
 25 57  1  0  0  0  0
 26 27  1  0  0  0  0
 27 28  2  0  0  0  0
 27 58  1  0  0  0  0
 28 29  1  0  0  0  0
M  END
> <s_m_source_file>
AV-unprocessed.smi

> <i_m_source_file_index>
236

> <i_lp_mmshare_version>
43012

> <i_f3d_flags>
0

> <s_epik_input>
W0NIMl0xW0NIMl1PW0NAQEhdKFtDSDNdKVtDQEBdMShbT0hdKVtDSDJdbihbY0hdbjIpYyhjMjMpbltjSF1uYzNONFtDSDJdW0NIMl1PW0NASF0oW0NIMl00KVtDSDJdT1tDSDJdW0NIXTVbQ0gyXVtDSDJdNQ==

> <s_epik_cmdline>
J2VwaWtfcHl0aG9uJywgJy1waCcsICc3LjAnLCAnLXRuJywgJzgnLCAnLW1hJywgJzIwMCcsICctbWV0YWxfYmluZGluZycsICctaW1hZScsICc8aW5maWxlLm1hZT4nLCAnLW9tYWUnLCAnPG91dGZpbGUubWFlPic=

> <r_lp_tautomer_probability>
1

> <r_epik_Ionization_Penalty>
7.21838e-05

> <r_epik_Ionization_Penalty_Charging>
0

> <r_epik_Ionization_Penalty_Neutral>
7.21838e-05

> <r_epik_State_Penalty>
-0

> <r_epik_Charging_Adjusted_Penalty>
0

> <i_epik_Tot_Q>
0

> <i_epik_Tot_abs_Q>
0

> <r_epik_Metal_State_Penalty>
-0

> <b_epik_Metal_Only>
0

> <s_lp_Force_Field>
OPLS_2005

> <r_lp_Energy>
49.116

> <b_lp_Chiralities_Consistent>
1

> <s_lp_Variant>
AV-unprocessed.smi:236-1

> <Gold.Version>
5.8.1

> <Gold.Id.Protein>
6NUR|6NUR_protein|mol2

> <Gold.PLP.Fitness>
50.3656

> <Gold.PLP.PLP>
-45.9870

> <Gold.PLP.part.hbond>
-2.9407

> <Gold.PLP.part.metal>
0.0000

> <Gold.PLP.part.buried>
-8.2900

> <Gold.PLP.part.nonpolar>
-35.4201

> <Gold.PLP.part.repulsive>
0.5798

> <Gold.PLP.ligand.clash>
0.0000

> <Gold.PLP.ligand.torsion>
1.9902

> <Gold.PLP.Chemscore.Hbond>
1.7200

> <Gold.PLP.Chemscore.CHOScore>
0.7947

> <Gold.PLP.Chemscore.Metal>
0.0000

> <Gold.Chemscore.Hbonds>
donor molecule, donor type, donor heavy atom, donor atom, acceptor molecule, acceptor atom, score
      L1  H     7    38       P1 10171  1.00
      P1  H  7989  7998       L1    17  0.72
      L1  C    10    41       P1 10175  0.70

> <Gold.PLP.Chemscore.Internal.Correction>
0.8147

> <Gold.Rescore>
     Score         DG    S(hbond)    S(metal)    S(lipo)     H(rot)  DE(clash)    DE(int)     intcor
     13.44     -16.84       1.65        0.00     112.80       2.87       0.14       3.26       ----

> <Gold.Chemscore.Fitness>
13.4356

> <Gold.Chemscore.DG>
-16.8365

> <Gold.Chemscore.ZeroCoef>
-5.4800

> <Gold.Chemscore.Hbond>
1.6451

> <Gold.Chemscore.Metal>
0.0000

> <Gold.Chemscore.Lipo>
112.7991

> <Gold.Chemscore.Internal_Hbond>
0.0000

> <Gold.Chemscore.DEClash>
0.1429

> <Gold.Chemscore.DEInternal>
3.2579

> <Gold.Chemscore.Rot>
2.8655

> <Gold.Chemscore.Internal.Correction>
   9.000000E+99

> <Gold.Chemscore.Hbonds>
donor molecule, donor type, donor heavy atom, donor atom, acceptor molecule, acceptor atom, score
      L1  H     7    38       P1 10171  0.97
      P1  H  7989  7998       L1    17  0.25

> <Gold.Chemscore.Hbond.Weighted>
-5.4947

> <Gold.Chemscore.Metal.Weighted>
-0.0000

> <Gold.Chemscore.Lipo.Weighted>
-13.1975

> <Gold.Chemscore.Internal_Hbond.Weighted>
0.0000

> <Gold.Chemscore.DEClash.Weighted>
0.1429

> <Gold.Chemscore.DEInternal.Weighted>
3.2579

> <Gold.Chemscore.Rot.Weighted>
7.3358

> <Gold.Chemscore.Internal.Correction.Weighted>
   9.000000E+99

> <Gold.Protein.RotatedTorsions>
[ 6907 6896 6895 6894 ] final   28.46 input  -60.11 | X-H torsion
[ 7974 7965 7964 7962 ] final   11.65 input  175.53 | X-H torsion
[ 8008 7997 7996 7995 ] final  -34.86 input   59.86 | X-H torsion
[ 10167 10162 10161 10158 ] final  112.62 input  -65.29 | X-H torsion
[ 10718 10713 10712 10709 ] final   91.86 input   66.30 | X-H torsion
[ 10763 10752 10751 10750 ] final  169.94 input  -60.55 | X-H torsion
[ 11005 11000 10999 10996 ] final  123.29 input  -57.11 | X-H torsion

> <Gold.Protein.ActiveResidues>
 VAL166  LYS551  ARG553  GLY616  TRP617  ASP618  TYR619  PRO620  LYS621  CYS622 
 ASP623  PHE694  ASN695  SER759  ASP760  ASP761  ALA762  ILE779  LEU786  VAL792 
 PHE793  MET794  SER795  GLU796  ALA797  LYS798  CYS799  TRP800  GLU811  SER814 

> <Gold.Protein.RotatedAtoms>
  152.0173  134.9842  160.0569 H   0  0  0  0  0  0  0  0  0  0  0  0  # atno 6907 bound_to 6896
  152.1371  133.4437  159.4757 H   0  0  0  0  0  0  0  0  0  0  0  0  # atno 6908 bound_to 6896
  150.6861  134.2268  159.4462 H   0  0  0  0  0  0  0  0  0  0  0  0  # atno 6909 bound_to 6896
  146.2367  139.9454  142.8477 H   0  0  0  0  0  0  0  0  0  0  0  0  # atno 7974 bound_to 7965
  154.4110  140.1673  156.2117 H   0  0  0  0  0  0  0  0  0  0  0  0  # atno 8008 bound_to 7997
  155.9438  140.3406  155.6326 H   0  0  0  0  0  0  0  0  0  0  0  0  # atno 8009 bound_to 7997
  155.6956  140.0739  157.2422 H   0  0  0  0  0  0  0  0  0  0  0  0  # atno 8010 bound_to 7997
  139.6522  144.7128  151.2026 H   0  0  0  0  0  0  0  0  0  0  0  0  # atno 10167 bound_to 10162
  157.6960  131.0422  150.3794 H   0  0  0  0  0  0  0  0  0  0  0  0  # atno 10718 bound_to 10713
  154.3904  135.2754  155.2158 H   0  0  0  0  0  0  0  0  0  0  0  0  # atno 10763 bound_to 10752
  154.4226  135.5996  153.6023 H   0  0  0  0  0  0  0  0  0  0  0  0  # atno 10764 bound_to 10752
  152.9832  135.5976  154.4159 H   0  0  0  0  0  0  0  0  0  0  0  0  # atno 10765 bound_to 10752
  139.9306  134.9641  156.8237 H   0  0  0  0  0  0  0  0  0  0  0  0  # atno 11005 bound_to 11000
  145.1912  140.9812  143.4210 LP  0  0  0  0  0  0  0  0  0  0  0  0  # atno 17320 bound_to 7965
  144.9855  139.3740  143.6240 LP  0  0  0  0  0  0  0  0  0  0  0  0  # atno 17321 bound_to 7965
  140.7543  143.6131  150.8586 LP  0  0  0  0  0  0  0  0  0  0  0  0  # atno 17342 bound_to 10162
  139.9780  143.5982  152.2952 LP  0  0  0  0  0  0  0  0  0  0  0  0  # atno 17343 bound_to 10162
  156.4209  130.3953  149.6825 LP  0  0  0  0  0  0  0  0  0  0  0  0  # atno 17370 bound_to 10713
  156.4077  130.7706  151.2717 LP  0  0  0  0  0  0  0  0  0  0  0  0  # atno 17371 bound_to 10713
  140.6213  133.9991  155.7619 LP  0  0  0  0  0  0  0  0  0  0  0  0  # atno 17394 bound_to 11000
  141.0892  133.9943  157.3264 LP  0  0  0  0  0  0  0  0  0  0  0  0  # atno 17395 bound_to 11000

$$$$
