AV-unprocessed.smi:1840|AV-procd|sdf|7489|dock3
  -GOLD-   22720 9183D 1   1.00000     0.00000
 Structure written by MMmdl.
 43 44  0  0  0  0  0  0  0  0  1 V2000
  148.0853  139.8506  154.6075 C   0  0  0  0  0  0  0  0  0  0  0  0
  148.5346  141.2079  154.0470 C   0  0  1  0  0  0  0  0  0  0  0  0
  147.3592  141.9828  153.4207 C   0  0  0  0  0  0  0  0  0  0  0  0
  146.4571  142.5204  154.4242 N   0  0  0  0  0  0  0  0  0  0  0  0
  145.3015  143.2494  154.2363 C   0  0  0  0  0  0  0  0  0  0  0  0
  144.7862  143.5196  155.4715 C   0  0  0  0  0  0  0  0  0  0  0  0
  145.7113  142.9090  156.3640 C   0  0  0  0  0  0  0  0  0  0  0  0
  146.7103  142.3122  155.7341 N   0  0  0  0  0  0  0  0  0  0  0  0
  149.1447  142.0030  155.1109 N   0  0  0  0  0  0  0  0  0  0  0  0
  150.1647  141.6123  155.8870 C   0  0  0  0  0  0  0  0  0  0  0  0
  150.6941  140.5026  155.8265 O   0  0  0  0  0  0  0  0  0  0  0  0
  150.5439  142.5863  156.7268 N   0  0  0  0  0  0  0  0  0  0  0  0
  151.6334  142.5044  157.6986 C   0  0  2  0  0  0  0  0  0  0  0  0
  151.3339  141.3516  158.6774 C   0  0  0  0  0  0  0  0  0  0  0  0
  152.4047  141.2417  159.7720 C   0  0  0  0  0  0  0  0  0  0  0  0
  152.5540  142.5687  160.5272 C   0  0  0  0  0  0  0  0  0  0  0  0
  152.8731  143.7182  159.5595 C   0  0  0  0  0  0  0  0  0  0  0  0
  151.8101  143.8505  158.4493 C   0  0  1  0  0  0  0  0  0  0  0  0
  152.1582  145.0183  157.5082 C   0  0  0  0  0  0  0  0  0  0  0  0
  147.6474  139.2306  153.8249 H   0  0  0  0  0  0  0  0  0  0  0  0
  147.3390  139.9720  155.3931 H   0  0  0  0  0  0  0  0  0  0  0  0
  148.9273  139.3004  155.0290 H   0  0  0  0  0  0  0  0  0  0  0  0
  149.2690  141.0195  153.2614 H   0  0  0  0  0  0  0  0  0  0  0  0
  147.7327  142.8126  152.8185 H   0  0  0  0  0  0  0  0  0  0  0  0
  146.7904  141.3409  152.7464 H   0  0  0  0  0  0  0  0  0  0  0  0
  144.9437  143.5073  153.2506 H   0  0  0  0  0  0  0  0  0  0  0  0
  143.8855  144.0686  155.7019 H   0  0  0  0  0  0  0  0  0  0  0  0
  145.6866  142.8813  157.4435 H   0  0  0  0  0  0  0  0  0  0  0  0
  148.7799  142.9348  155.2443 H   0  0  0  0  0  0  0  0  0  0  0  0
  150.0424  143.4616  156.6894 H   0  0  0  0  0  0  0  0  0  0  0  0
  152.5700  142.2692  157.1894 H   0  0  0  0  0  0  0  0  0  0  0  0
  150.3588  141.5046  159.1427 H   0  0  0  0  0  0  0  0  0  0  0  0
  151.2707  140.4083  158.1337 H   0  0  0  0  0  0  0  0  0  0  0  0
  152.1455  140.4436  160.4683 H   0  0  0  0  0  0  0  0  0  0  0  0
  153.3600  140.9647  159.3243 H   0  0  0  0  0  0  0  0  0  0  0  0
  151.6336  142.7892  161.0693 H   0  0  0  0  0  0  0  0  0  0  0  0
  153.3418  142.4835  161.2762 H   0  0  0  0  0  0  0  0  0  0  0  0
  152.9458  144.6514  160.1190 H   0  0  0  0  0  0  0  0  0  0  0  0
  153.8537  143.5515  159.1115 H   0  0  0  0  0  0  0  0  0  0  0  0
  150.8623  144.0943  158.9321 H   0  0  0  0  0  0  0  0  0  0  0  0
  153.0720  144.8155  156.9489 H   0  0  0  0  0  0  0  0  0  0  0  0
  152.3092  145.9415  158.0681 H   0  0  0  0  0  0  0  0  0  0  0  0
  151.3625  145.2075  156.7876 H   0  0  0  0  0  0  0  0  0  0  0  0
  1  2  1  0  0  0  0
  1 20  1  0  0  0  0
  1 21  1  0  0  0  0
  1 22  1  0  0  0  0
  2  3  1  0  0  0  0
  2  9  1  0  0  0  0
  2 23  1  0  0  0  0
  3  4  1  0  0  0  0
  3 24  1  0  0  0  0
  3 25  1  0  0  0  0
  4  8  1  0  0  0  0
  4  5  1  0  0  0  0
  5  6  2  0  0  0  0
  5 26  1  0  0  0  0
  6  7  1  0  0  0  0
  6 27  1  0  0  0  0
  7  8  2  0  0  0  0
  7 28  1  0  0  0  0
  9 10  1  0  0  0  0
  9 29  1  0  0  0  0
 10 11  2  0  0  0  0
 10 12  1  0  0  0  0
 12 13  1  0  0  0  0
 12 30  1  0  0  0  0
 13 18  1  0  0  0  0
 13 14  1  0  0  0  0
 13 31  1  0  0  0  0
 14 15  1  0  0  0  0
 14 32  1  0  0  0  0
 14 33  1  0  0  0  0
 15 16  1  0  0  0  0
 15 34  1  0  0  0  0
 15 35  1  0  0  0  0
 16 17  1  0  0  0  0
 16 36  1  0  0  0  0
 16 37  1  0  0  0  0
 17 18  1  0  0  0  0
 17 38  1  0  0  0  0
 17 39  1  0  0  0  0
 18 19  1  0  0  0  0
 18 40  1  0  0  0  0
 19 41  1  0  0  0  0
 19 42  1  0  0  0  0
 19 43  1  0  0  0  0
M  END
> <s_m_source_file>
AV-unprocessed.smi

> <i_m_source_file_index>
1840

> <i_lp_mmshare_version>
43012

> <i_f3d_flags>
0

> <s_epik_input>
bjFbY0hdW2NIXVtjSF1uMVtDSDJdW0NAQEhdKFtDSDNdKVtOSF1DKD1PKVtOSF1bQ0BASF0yW0NIMl1bQ0gyXVtDSDJdW0NIMl1bQ0BIXTJbQ0gzXQ==

> <s_epik_cmdline>
J2VwaWtfcHl0aG9uJywgJy1waCcsICc3LjAnLCAnLXRuJywgJzgnLCAnLW1hJywgJzIwMCcsICctbWV0YWxfYmluZGluZycsICctaW1hZScsICc8aW5maWxlLm1hZT4nLCAnLW9tYWUnLCAnPG91dGZpbGUubWFlPic=

> <r_lp_tautomer_probability>
1

> <r_epik_Ionization_Penalty>
7.38659e-05

> <r_epik_Ionization_Penalty_Charging>
0

> <r_epik_Ionization_Penalty_Neutral>
7.38659e-05

> <r_epik_State_Penalty>
-0

> <r_epik_Charging_Adjusted_Penalty>
0

> <i_epik_Tot_Q>
0

> <i_epik_Tot_abs_Q>
0

> <r_epik_Metal_State_Penalty>
-0

> <b_epik_Metal_Only>
0

> <s_lp_Force_Field>
OPLS_2005

> <r_lp_Energy>
8.744

> <b_lp_Chiralities_Consistent>
1

> <s_lp_Variant>
AV-unprocessed.smi:1840-2

> <Gold.Version>
5.8.1

> <Gold.Id.Protein>
6NUR|6NUR_protein|mol2

> <Gold.PLP.Fitness>
47.9718

> <Gold.PLP.PLP>
-41.5487

> <Gold.PLP.part.hbond>
-2.0000

> <Gold.PLP.part.metal>
0.0000

> <Gold.PLP.part.buried>
-7.9489

> <Gold.PLP.part.nonpolar>
-32.2529

> <Gold.PLP.part.repulsive>
0.4205

> <Gold.PLP.ligand.clash>
0.0000

> <Gold.PLP.ligand.torsion>
0.0931

> <Gold.PLP.Chemscore.Hbond>
2.0000

> <Gold.PLP.Chemscore.CHOScore>
0.1924

> <Gold.PLP.Chemscore.Metal>
0.0000

> <Gold.Chemscore.Hbonds>
donor molecule, donor type, donor heavy atom, donor atom, acceptor molecule, acceptor atom, score
      L1  H     9    29       P1  8028  1.00
      L1  H    12    30       P1  8028  0.99
      L1  C     5    26       P1 10174  0.20

> <Gold.PLP.Chemscore.Internal.Correction>
0.0323

> <Gold.Rescore>
     Score         DG    S(hbond)    S(metal)    S(lipo)     H(rot)  DE(clash)    DE(int)     intcor
     16.34     -20.94       1.94        0.00     110.79       1.56       1.97       2.63       ----

> <Gold.Chemscore.Fitness>
16.3351

> <Gold.Chemscore.DG>
-20.9383

> <Gold.Chemscore.ZeroCoef>
-5.4800

> <Gold.Chemscore.Hbond>
1.9410

> <Gold.Chemscore.Metal>
0.0000

> <Gold.Chemscore.Lipo>
110.7950

> <Gold.Chemscore.Internal_Hbond>
0.0000

> <Gold.Chemscore.DEClash>
1.9740

> <Gold.Chemscore.DEInternal>
2.6291

> <Gold.Chemscore.Rot>
1.5576

> <Gold.Chemscore.Internal.Correction>
   9.000000E+99

> <Gold.Chemscore.Hbonds>
donor molecule, donor type, donor heavy atom, donor atom, acceptor molecule, acceptor atom, score
      L1  H     9    29       P1  8028  0.99
      L1  H    12    30       P1  8028  0.91

> <Gold.Chemscore.Hbond.Weighted>
-6.4828

> <Gold.Chemscore.Metal.Weighted>
-0.0000

> <Gold.Chemscore.Lipo.Weighted>
-12.9630

> <Gold.Chemscore.Internal_Hbond.Weighted>
0.0000

> <Gold.Chemscore.DEClash.Weighted>
1.9740

> <Gold.Chemscore.DEInternal.Weighted>
2.6291

> <Gold.Chemscore.Rot.Weighted>
3.9875

> <Gold.Chemscore.Internal.Correction.Weighted>
   9.000000E+99

> <Gold.Protein.RotatedTorsions>
[ 6907 6896 6895 6894 ] final  101.06 input  -60.11 | X-H torsion
[ 7974 7965 7964 7962 ] final  -99.21 input  175.53 | X-H torsion
[ 8008 7997 7996 7995 ] final -168.15 input   59.86 | X-H torsion
[ 10167 10162 10161 10158 ] final -177.05 input  -65.29 | X-H torsion
[ 10718 10713 10712 10709 ] final -117.31 input   66.30 | X-H torsion
[ 10763 10752 10751 10750 ] final   47.27 input  -60.55 | X-H torsion
[ 11005 11000 10999 10996 ] final  -28.78 input  -57.11 | X-H torsion

> <Gold.Protein.ActiveResidues>
 VAL166  LYS551  ARG553  GLY616  TRP617  ASP618  TYR619  PRO620  LYS621  CYS622 
 ASP623  PHE694  ASN695  SER759  ASP760  ASP761  ALA762  ILE779  LEU786  VAL792 
 PHE793  MET794  SER795  GLU796  ALA797  LYS798  CYS799  TRP800  GLU811  SER814 

> <Gold.Protein.RotatedAtoms>
  152.5358  134.0183  159.7969 H   0  0  0  0  0  0  0  0  0  0  0  0  # atno 6907 bound_to 6896
  151.0374  133.5729  159.2661 H   0  0  0  0  0  0  0  0  0  0  0  0  # atno 6908 bound_to 6896
  151.2711  135.0692  159.9188 H   0  0  0  0  0  0  0  0  0  0  0  0  # atno 6909 bound_to 6896
  145.3105  140.9399  143.2772 H   0  0  0  0  0  0  0  0  0  0  0  0  # atno 7974 bound_to 7965
  155.8875  140.1019  157.1442 H   0  0  0  0  0  0  0  0  0  0  0  0  # atno 8008 bound_to 7997
  154.4011  140.1317  156.4338 H   0  0  0  0  0  0  0  0  0  0  0  0  # atno 8009 bound_to 7997
  155.7572  140.3464  155.5182 H   0  0  0  0  0  0  0  0  0  0  0  0  # atno 8010 bound_to 7997
  139.5499  144.2136  152.1058 H   0  0  0  0  0  0  0  0  0  0  0  0  # atno 10167 bound_to 10162
  156.1025  130.6183  150.9147 H   0  0  0  0  0  0  0  0  0  0  0  0  # atno 10718 bound_to 10713
  152.9801  135.5981  154.3735 H   0  0  0  0  0  0  0  0  0  0  0  0  # atno 10763 bound_to 10752
  154.3407  135.2767  155.2426 H   0  0  0  0  0  0  0  0  0  0  0  0  # atno 10764 bound_to 10752
  154.4509  135.5990  153.6246 H   0  0  0  0  0  0  0  0  0  0  0  0  # atno 10765 bound_to 10752
  140.9238  133.7381  156.0839 H   0  0  0  0  0  0  0  0  0  0  0  0  # atno 11005 bound_to 11000
  144.9019  139.4638  143.6628 LP  0  0  0  0  0  0  0  0  0  0  0  0  # atno 17320 bound_to 7965
  146.3119  139.7778  142.9013 LP  0  0  0  0  0  0  0  0  0  0  0  0  # atno 17321 bound_to 7965
  140.1630  144.5008  150.6622 LP  0  0  0  0  0  0  0  0  0  0  0  0  # atno 17342 bound_to 10162
  140.6759  143.2305  151.5509 LP  0  0  0  0  0  0  0  0  0  0  0  0  # atno 17343 bound_to 10162
  157.6197  131.0930  150.8645 LP  0  0  0  0  0  0  0  0  0  0  0  0  # atno 17370 bound_to 10713
  156.8771  130.5166  149.5293 LP  0  0  0  0  0  0  0  0  0  0  0  0  # atno 17371 bound_to 10713
  140.7952  134.3571  157.5454 LP  0  0  0  0  0  0  0  0  0  0  0  0  # atno 17394 bound_to 11000
  139.8781  134.9165  156.3155 LP  0  0  0  0  0  0  0  0  0  0  0  0  # atno 17395 bound_to 11000

$$$$
