AV-unprocessed.smi:224|AV-procd|sdf|1714|dock3
  -GOLD-   2262020183D 1   1.00000     0.00000
 Structure written by MMmdl.
 56 59  0  0  0  0  0  0  0  0  2 V2000
  145.4511  132.1234  148.9434 C   0  0  0  0  0  0  0  0  0  0  0  0
  144.0925  132.7763  149.2284 C   0  0  1  0  0  0  0  0  0  0  0  0
  143.0983  132.0057  148.5832 O   0  0  0  0  0  0  0  0  0  0  0  0
  143.7976  132.8395  150.7418 C   0  0  0  0  0  0  0  0  0  0  0  0
  143.4839  134.2068  151.2413 N   0  3  1  0  0  0  0  0  0  0  0  0
  143.0146  134.1921  152.6529 C   0  0  0  0  0  0  0  0  0  0  0  0
  142.5432  135.5878  153.0995 C   0  0  0  0  0  0  0  0  0  0  0  0
  143.5718  136.5888  152.8449 N   0  0  0  0  0  0  0  0  0  0  0  0
  144.4286  136.9964  153.8228 C   0  0  0  0  0  0  0  0  0  0  0  0
  144.2118  136.5193  155.0768 N   0  0  0  0  0  0  0  0  0  0  0  0
  145.0099  136.8653  156.0895 C   0  0  0  0  0  0  0  0  0  0  0  0
  146.0713  137.6705  156.0738 N   0  0  0  0  0  0  0  0  0  0  0  0
  146.3003  138.1622  154.8236 C   0  0  0  0  0  0  0  0  0  0  0  0
  145.5404  137.8788  153.6500 C   0  0  0  0  0  0  0  0  0  0  0  0
  146.0845  138.5738  152.5745 N   0  0  0  0  0  0  0  0  0  0  0  0
  147.1043  139.2131  153.0760 C   0  0  0  0  0  0  0  0  0  0  0  0
  147.3005  139.0320  154.4247 N   0  0  0  0  0  0  0  0  0  0  0  0
  148.3530  139.6243  155.2373 C   0  0  0  0  0  0  0  0  0  0  0  0
  149.7507  139.5713  154.5763 C   0  0  2  0  0  0  0  0  0  0  0  0
  149.7866  140.4911  153.4981 O   0  0  0  0  0  0  0  0  0  0  0  0
  150.1001  138.1897  154.0385 C   0  0  0  0  0  0  0  0  0  0  0  0
  151.6207  138.1750  154.1174 C   0  0  0  0  0  0  0  0  0  0  0  0
  151.8820  138.8359  155.3443 O   0  0  0  0  0  0  0  0  0  0  0  0
  150.9298  139.8810  155.5220 C   0  0  0  0  0  0  0  0  0  0  0  0
  144.0213  136.6387  151.4540 C   0  0  0  0  0  0  0  0  0  0  0  0
  144.5180  135.2570  150.9748 C   0  0  1  0  0  0  0  0  0  0  0  0
  145.9082  134.9154  151.5524 C   0  0  0  0  0  0  0  0  0  0  0  0
  146.2615  132.6898  149.4035 H   0  0  0  0  0  0  0  0  0  0  0  0
  145.6492  132.0787  147.8718 H   0  0  0  0  0  0  0  0  0  0  0  0
  145.4945  131.1054  149.3326 H   0  0  0  0  0  0  0  0  0  0  0  0
  144.1036  133.7729  148.7887 H   0  0  0  0  0  0  0  0  0  0  0  0
  143.0917  132.2198  147.6632 H   0  0  0  0  0  0  0  0  0  0  0  0
  142.9465  132.1893  150.9502 H   0  0  0  0  0  0  0  0  0  0  0  0
  144.6296  132.4218  151.3089 H   0  0  0  0  0  0  0  0  0  0  0  0
  142.1882  133.4888  152.7590 H   0  0  0  0  0  0  0  0  0  0  0  0
  143.8148  133.8294  153.2978 H   0  0  0  0  0  0  0  0  0  0  0  0
  141.6610  135.8679  152.5231 H   0  0  0  0  0  0  0  0  0  0  0  0
  142.2201  135.5904  154.1396 H   0  0  0  0  0  0  0  0  0  0  0  0
  144.7636  136.4346  157.0490 H   0  0  0  0  0  0  0  0  0  0  0  0
  147.7416  139.8444  152.4736 H   0  0  0  0  0  0  0  0  0  0  0  0
  148.0792  140.6580  155.4527 H   0  0  0  0  0  0  0  0  0  0  0  0
  148.3713  139.1088  156.1985 H   0  0  0  0  0  0  0  0  0  0  0  0
  149.5754  140.0264  152.7027 H   0  0  0  0  0  0  0  0  0  0  0  0
  149.7040  137.4154  154.6971 H   0  0  0  0  0  0  0  0  0  0  0  0
  149.7190  137.9984  153.0344 H   0  0  0  0  0  0  0  0  0  0  0  0
  152.0357  137.1670  154.1061 H   0  0  0  0  0  0  0  0  0  0  0  0
  152.0617  138.7403  153.2949 H   0  0  0  0  0  0  0  0  0  0  0  0
  151.3869  140.8494  155.3128 H   0  0  0  0  0  0  0  0  0  0  0  0
  150.6285  139.8821  156.5687 H   0  0  0  0  0  0  0  0  0  0  0  0
  143.1694  136.9455  150.8457 H   0  0  0  0  0  0  0  0  0  0  0  0
  144.7895  137.3926  151.2820 H   0  0  0  0  0  0  0  0  0  0  0  0
  144.6355  135.3467  149.8959 H   0  0  0  0  0  0  0  0  0  0  0  0
  146.6093  135.7308  151.3727 H   0  0  0  0  0  0  0  0  0  0  0  0
  146.3346  134.0274  151.0866 H   0  0  0  0  0  0  0  0  0  0  0  0
  145.8778  134.7474  152.6288 H   0  0  0  0  0  0  0  0  0  0  0  0
  142.6751  134.4974  150.7111 H   0  0  0  0  0  0  0  0  0  0  0  0
  1  2  1  0  0  0  0
  1 28  1  0  0  0  0
  1 29  1  0  0  0  0
  1 30  1  0  0  0  0
  2  3  1  0  0  0  0
  2  4  1  0  0  0  0
  2 31  1  0  0  0  0
  3 32  1  0  0  0  0
  4  5  1  0  0  0  0
  4 33  1  0  0  0  0
  4 34  1  0  0  0  0
  5 26  1  0  0  0  0
  5  6  1  0  0  0  0
  5 56  1  0  0  0  0
  6  7  1  0  0  0  0
  6 35  1  0  0  0  0
  6 36  1  0  0  0  0
  7  8  1  0  0  0  0
  7 37  1  0  0  0  0
  7 38  1  0  0  0  0
  8  9  1  0  0  0  0
  8 25  1  0  0  0  0
  9 14  1  0  0  0  0
  9 10  2  0  0  0  0
 10 11  1  0  0  0  0
 11 12  2  0  0  0  0
 11 39  1  0  0  0  0
 12 13  1  0  0  0  0
 13 17  1  0  0  0  0
 13 14  2  0  0  0  0
 14 15  1  0  0  0  0
 15 16  2  0  0  0  0
 16 17  1  0  0  0  0
 16 40  1  0  0  0  0
 17 18  1  0  0  0  0
 18 19  1  0  0  0  0
 18 41  1  0  0  0  0
 18 42  1  0  0  0  0
 19 24  1  0  0  0  0
 19 20  1  0  0  0  0
 19 21  1  0  0  0  0
 20 43  1  0  0  0  0
 21 22  1  0  0  0  0
 21 44  1  0  0  0  0
 21 45  1  0  0  0  0
 22 23  1  0  0  0  0
 22 46  1  0  0  0  0
 22 47  1  0  0  0  0
 23 24  1  0  0  0  0
 24 48  1  0  0  0  0
 24 49  1  0  0  0  0
 25 26  1  0  0  0  0
 25 50  1  0  0  0  0
 25 51  1  0  0  0  0
 26 27  1  0  0  0  0
 26 52  1  0  0  0  0
 27 53  1  0  0  0  0
 27 54  1  0  0  0  0
 27 55  1  0  0  0  0
M  CHG  1   5   1
M  END
> <s_m_source_file>
AV-unprocessed.smi

> <i_m_source_file_index>
224

> <i_lp_mmshare_version>
43012

> <i_f3d_flags>
0

> <s_epik_input>
W0NIM11bQ0BIXShbT0hdKVtDSDJdTjFbQ0gyXVtDSDJdTihbQ0gyXVtDQEhdMVtDSDNdKWMobltjSF1uMiljKGMyMyluW2NIXW4zW0NIMl1bQ0BAXTQoW09IXSlbQ0gyXVtDSDJdT1tDSDJdNA==

> <s_epik_cmdline>
J2VwaWtfcHl0aG9uJywgJy1waCcsICc3LjAnLCAnLXRuJywgJzgnLCAnLW1hJywgJzIwMCcsICctbWV0YWxfYmluZGluZycsICctaW1hZScsICc8aW5maWxlLm1hZT4nLCAnLW9tYWUnLCAnPG91dGZpbGUubWFlPic=

> <r_lp_tautomer_probability>
1

> <r_epik_Ionization_Penalty>
0.00516958

> <r_epik_Ionization_Penalty_Charging>
0.00509693

> <r_epik_Ionization_Penalty_Neutral>
7.26542e-05

> <r_epik_State_Penalty>
-0

> <r_epik_Charging_Adjusted_Penalty>
0.00509693

> <i_epik_Tot_Q>
1

> <i_epik_Tot_abs_Q>
1

> <r_epik_Metal_State_Penalty>
-0

> <b_epik_Metal_Only>
0

> <s_lp_Force_Field>
OPLS_2005

> <r_lp_Energy>
50.9618

> <b_lp_Chiralities_Consistent>
1

> <s_lp_Variant>
AV-unprocessed.smi:224-8

> <Gold.Version>
5.8.1

> <Gold.Id.Protein>
6NUR|6NUR_protein|mol2

> <Gold.PLP.Fitness>
53.9651

> <Gold.PLP.PLP>
-39.5988

> <Gold.PLP.part.hbond>
-4.9542

> <Gold.PLP.part.metal>
0.0000

> <Gold.PLP.part.buried>
-2.5276

> <Gold.PLP.part.nonpolar>
-33.0800

> <Gold.PLP.part.repulsive>
0.7670

> <Gold.PLP.ligand.clash>
0.0000

> <Gold.PLP.ligand.torsion>
1.1770

> <Gold.PLP.Chemscore.Hbond>
4.4941

> <Gold.PLP.Chemscore.CHOScore>
1.0000

> <Gold.PLP.Chemscore.Metal>
0.0000

> <Gold.Chemscore.Hbonds>
donor molecule, donor type, donor heavy atom, donor atom, acceptor molecule, acceptor atom, score
      L1  H     5    56       P1 10186  2.00
      L1  H    20    43       P1  7957  0.93
      P1  H  7989  7998       L1    20  0.48
      P1  H  8011  8017       L1    20  0.21
      P1  H 10785 10796       L1     3  0.88
      L1  C    16    40       P1  7957  1.00

> <Gold.PLP.Chemscore.Internal.Correction>
0.2379

> <Gold.Rescore>
     Score         DG    S(hbond)    S(metal)    S(lipo)     H(rot)  DE(clash)    DE(int)     intcor
     13.89     -17.55       2.58        0.00      95.67       3.02       1.66       2.00       ----

> <Gold.Chemscore.Fitness>
13.8908

> <Gold.Chemscore.DG>
-17.5486

> <Gold.Chemscore.ZeroCoef>
-5.4800

> <Gold.Chemscore.Hbond>
2.5790

> <Gold.Chemscore.Metal>
0.0000

> <Gold.Chemscore.Lipo>
95.6723

> <Gold.Chemscore.Internal_Hbond>
0.0000

> <Gold.Chemscore.DEClash>
1.6588

> <Gold.Chemscore.DEInternal>
1.9990

> <Gold.Chemscore.Rot>
3.0231

> <Gold.Chemscore.Internal.Correction>
   9.000000E+99

> <Gold.Chemscore.Hbonds>
donor molecule, donor type, donor heavy atom, donor atom, acceptor molecule, acceptor atom, score
      L1  H     5    56       P1 10186  0.24
      L1  H    20    43       P1  7957  0.85
      P1  H  7989  7998       L1    20  0.09
      P1  H  8011  8017       L1    20  0.01
      P1  H 10785 10796       L1     3  0.50

> <Gold.Chemscore.Hbond.Weighted>
-8.6140

> <Gold.Chemscore.Metal.Weighted>
-0.0000

> <Gold.Chemscore.Lipo.Weighted>
-11.1937

> <Gold.Chemscore.Internal_Hbond.Weighted>
0.0000

> <Gold.Chemscore.DEClash.Weighted>
1.6588

> <Gold.Chemscore.DEInternal.Weighted>
1.9990

> <Gold.Chemscore.Rot.Weighted>
7.7391

> <Gold.Chemscore.Internal.Correction.Weighted>
   9.000000E+99

> <Gold.Protein.RotatedTorsions>
[ 6907 6896 6895 6894 ] final -140.29 input  -60.11 | X-H torsion
[ 7974 7965 7964 7962 ] final  -45.37 input  175.53 | X-H torsion
[ 8008 7997 7996 7995 ] final  141.87 input   59.86 | X-H torsion
[ 10167 10162 10161 10158 ] final -161.03 input  -65.29 | X-H torsion
[ 10718 10713 10712 10709 ] final -157.17 input   66.30 | X-H torsion
[ 10763 10752 10751 10750 ] final    5.56 input  -60.55 | X-H torsion
[ 11005 11000 10999 10996 ] final  -97.19 input  -57.11 | X-H torsion

> <Gold.Protein.ActiveResidues>
 VAL166  LYS551  ARG553  GLY616  TRP617  ASP618  TYR619  PRO620  LYS621  CYS622 
 ASP623  PHE694  ASN695  SER759  ASP760  ASP761  ALA762  ILE779  LEU786  VAL792 
 PHE793  MET794  SER795  GLU796  ALA797  LYS798  CYS799  TRP800  GLU811  SER814 

> <Gold.Protein.RotatedAtoms>
  151.0588  133.5561  159.2635 H   0  0  0  0  0  0  0  0  0  0  0  0  # atno 6907 bound_to 6896
  151.2544  135.0632  159.9084 H   0  0  0  0  0  0  0  0  0  0  0  0  # atno 6908 bound_to 6896
  152.5394  134.0344  159.8093 H   0  0  0  0  0  0  0  0  0  0  0  0  # atno 6909 bound_to 6896
  145.9827  140.7266  142.9355 H   0  0  0  0  0  0  0  0  0  0  0  0  # atno 7974 bound_to 7965
  156.2959  140.2304  156.4635 H   0  0  0  0  0  0  0  0  0  0  0  0  # atno 8008 bound_to 7997
  154.7998  140.0449  157.1285 H   0  0  0  0  0  0  0  0  0  0  0  0  # atno 8009 bound_to 7997
  154.9547  140.3046  155.5062 H   0  0  0  0  0  0  0  0  0  0  0  0  # atno 8010 bound_to 7997
  139.6495  144.0109  152.2152 H   0  0  0  0  0  0  0  0  0  0  0  0  # atno 10167 bound_to 10162
  156.5366  130.8545  151.2734 H   0  0  0  0  0  0  0  0  0  0  0  0  # atno 10718 bound_to 10713
  153.2579  135.6920  153.7609 H   0  0  0  0  0  0  0  0  0  0  0  0  # atno 10763 bound_to 10752
  153.6679  135.3349  155.3146 H   0  0  0  0  0  0  0  0  0  0  0  0  # atno 10764 bound_to 10752
  154.8419  135.4493  154.1559 H   0  0  0  0  0  0  0  0  0  0  0  0  # atno 10765 bound_to 10752
  141.1387  133.8153  157.0673 H   0  0  0  0  0  0  0  0  0  0  0  0  # atno 11005 bound_to 11000
  144.6866  140.2936  143.7274 LP  0  0  0  0  0  0  0  0  0  0  0  0  # atno 17320 bound_to 7965
  145.7745  139.1869  143.2193 LP  0  0  0  0  0  0  0  0  0  0  0  0  # atno 17321 bound_to 7965
  139.9820  144.6422  150.7892 LP  0  0  0  0  0  0  0  0  0  0  0  0  # atno 17342 bound_to 10162
  140.7531  143.3002  151.3100 LP  0  0  0  0  0  0  0  0  0  0  0  0  # atno 17343 bound_to 10162
  157.7412  130.9866  150.2433 LP  0  0  0  0  0  0  0  0  0  0  0  0  # atno 17370 bound_to 10713
  156.3010  130.3758  149.7750 LP  0  0  0  0  0  0  0  0  0  0  0  0  # atno 17371 bound_to 10713
  140.0533  134.9794  157.1176 LP  0  0  0  0  0  0  0  0  0  0  0  0  # atno 17394 bound_to 11000
  140.3956  134.2137  155.7165 LP  0  0  0  0  0  0  0  0  0  0  0  0  # atno 17395 bound_to 11000

$$$$
