AV-unprocessed.smi:1648|AV-procd|sdf|6633|dock10
  -GOLD-   22720 7333D 1   1.00000     0.00000
 Structure written by MMmdl.
 41 41  0  0  0  0  0  0  0  0  1 V2000
  147.4105  137.1486  158.2685 C   0  0  0  0  0  0  0  0  0  0  0  0
  148.9111  136.8938  158.1131 C   0  0  0  0  0  0  0  0  0  0  0  0
  149.4932  136.1947  158.9391 O   0  0  0  0  0  0  0  0  0  0  0  0
  149.5687  137.4430  157.0769 N   0  0  0  0  0  0  0  0  0  0  0  0
  150.9939  137.3181  156.7577 C   0  0  2  0  0  0  0  0  0  0  0  0
  151.6253  138.7234  156.7640 C   0  0  0  0  0  0  0  0  0  0  0  0
  152.8239  138.8737  156.5214 O   0  0  0  0  0  0  0  0  0  0  0  0
  150.8001  139.7413  157.0540 N   0  0  0  0  0  0  0  0  0  0  0  0
  151.1781  141.1496  157.1133 C   0  0  1  0  0  0  0  0  0  0  0  0
  150.6191  141.8999  155.8894 C   0  0  0  0  0  0  0  0  0  0  0  0
  150.7036  141.7380  158.4571 C   0  0  0  0  0  0  0  0  0  0  0  0
  151.1738  143.0925  158.6781 N   0  0  0  0  0  0  0  0  0  0  0  0
  152.4749  143.4957  158.9501 C   0  0  0  0  0  0  0  0  0  0  0  0
  152.4426  144.8658  159.0797 C   0  0  0  0  0  0  0  0  0  0  0  0
  151.1415  145.3244  158.8872 N   0  0  0  0  0  0  0  0  0  0  0  0
  150.4475  144.2184  158.6516 C   0  0  0  0  0  0  0  0  0  0  0  0
  151.1377  136.6793  155.3444 C   0  0  0  0  0  0  0  0  0  0  0  0
  150.6500  137.6287  154.2318 C   0  0  0  0  0  0  0  0  0  0  0  0
  150.3984  135.3311  155.2132 C   0  0  0  0  0  0  0  0  0  0  0  0
  147.2119  138.2116  158.4062 H   0  0  0  0  0  0  0  0  0  0  0  0
  147.0201  136.6208  159.1393 H   0  0  0  0  0  0  0  0  0  0  0  0
  146.8627  136.7985  157.3934 H   0  0  0  0  0  0  0  0  0  0  0  0
  149.0281  138.0229  156.4515 H   0  0  0  0  0  0  0  0  0  0  0  0
  151.4909  136.6785  157.4893 H   0  0  0  0  0  0  0  0  0  0  0  0
  149.8326  139.5233  157.2444 H   0  0  0  0  0  0  0  0  0  0  0  0
  152.2673  141.2188  157.0869 H   0  0  0  0  0  0  0  0  0  0  0  0
  150.9500  142.9385  155.8713 H   0  0  0  0  0  0  0  0  0  0  0  0
  149.5287  141.8969  155.8880 H   0  0  0  0  0  0  0  0  0  0  0  0
  150.9534  141.4424  154.9576 H   0  0  0  0  0  0  0  0  0  0  0  0
  149.6135  141.7404  158.5060 H   0  0  0  0  0  0  0  0  0  0  0  0
  151.0520  141.1184  159.2847 H   0  0  0  0  0  0  0  0  0  0  0  0
  153.2926  142.7946  159.0299 H   0  0  0  0  0  0  0  0  0  0  0  0
  153.2493  145.5511  159.2935 H   0  0  0  0  0  0  0  0  0  0  0  0
  149.3848  144.2272  158.4577 H   0  0  0  0  0  0  0  0  0  0  0  0
  152.1958  136.4868  155.1571 H   0  0  0  0  0  0  0  0  0  0  0  0
  149.6032  137.8984  154.3744 H   0  0  0  0  0  0  0  0  0  0  0  0
  150.7407  137.1625  153.2502 H   0  0  0  0  0  0  0  0  0  0  0  0
  151.2299  138.5512  154.1974 H   0  0  0  0  0  0  0  0  0  0  0  0
  149.3364  135.4404  155.4350 H   0  0  0  0  0  0  0  0  0  0  0  0
  150.8028  134.5715  155.8822 H   0  0  0  0  0  0  0  0  0  0  0  0
  150.4842  134.9343  154.2010 H   0  0  0  0  0  0  0  0  0  0  0  0
  1  2  1  0  0  0  0
  1 20  1  0  0  0  0
  1 21  1  0  0  0  0
  1 22  1  0  0  0  0
  2  3  2  0  0  0  0
  2  4  1  0  0  0  0
  4  5  1  0  0  0  0
  4 23  1  0  0  0  0
  5  6  1  0  0  0  0
  5 17  1  0  0  0  0
  5 24  1  0  0  0  0
  6  7  2  0  0  0  0
  6  8  1  0  0  0  0
  8  9  1  0  0  0  0
  8 25  1  0  0  0  0
  9 10  1  0  0  0  0
  9 11  1  0  0  0  0
  9 26  1  0  0  0  0
 10 27  1  0  0  0  0
 10 28  1  0  0  0  0
 10 29  1  0  0  0  0
 11 12  1  0  0  0  0
 11 30  1  0  0  0  0
 11 31  1  0  0  0  0
 12 16  1  0  0  0  0
 12 13  1  0  0  0  0
 13 14  2  0  0  0  0
 13 32  1  0  0  0  0
 14 15  1  0  0  0  0
 14 33  1  0  0  0  0
 15 16  2  0  0  0  0
 16 34  1  0  0  0  0
 17 18  1  0  0  0  0
 17 19  1  0  0  0  0
 17 35  1  0  0  0  0
 18 36  1  0  0  0  0
 18 37  1  0  0  0  0
 18 38  1  0  0  0  0
 19 39  1  0  0  0  0
 19 40  1  0  0  0  0
 19 41  1  0  0  0  0
M  END
> <s_m_source_file>
AV-unprocessed.smi

> <i_m_source_file_index>
1648

> <i_lp_mmshare_version>
43012

> <i_f3d_flags>
0

> <s_epik_input>
W0NIM11DKD1PKVtOSF1bQ0BASF0oW0NIXShbQ0gzXSlbQ0gzXSlDKD1PKVtOSF1bQ0BIXShbQ0gzXSlbQ0gyXW4xW2NIXVtjSF1uW2NIXTE=

> <s_epik_cmdline>
J2VwaWtfcHl0aG9uJywgJy1waCcsICc3LjAnLCAnLXRuJywgJzgnLCAnLW1hJywgJzIwMCcsICctbWV0YWxfYmluZGluZycsICctaW1hZScsICc8aW5maWxlLm1hZT4nLCAnLW9tYWUnLCAnPG91dGZpbGUubWFlPic=

> <r_lp_tautomer_probability>
1

> <r_epik_Ionization_Penalty>
0.628885

> <r_epik_Ionization_Penalty_Charging>
0.628884

> <r_epik_Ionization_Penalty_Neutral>
4.35155e-07

> <r_epik_State_Penalty>
0.64556

> <r_epik_Charging_Adjusted_Penalty>
1.27444

> <i_epik_Tot_Q>
0

> <i_epik_Tot_abs_Q>
0

> <r_epik_Metal_State_Penalty>
0.30874

> <b_epik_Metal_Only>
0

> <s_lp_Force_Field>
OPLS_2005

> <r_lp_Energy>
9.63914

> <b_lp_Chiralities_Consistent>
1

> <s_lp_Variant>
AV-unprocessed.smi:1648-7

> <Gold.Version>
5.8.1

> <Gold.Id.Protein>
6NUR|6NUR_protein|mol2

> <Gold.PLP.Fitness>
39.0677

> <Gold.PLP.PLP>
-30.5342

> <Gold.PLP.part.hbond>
-2.9633

> <Gold.PLP.part.metal>
0.0000

> <Gold.PLP.part.buried>
-4.9419

> <Gold.PLP.part.nonpolar>
-22.1196

> <Gold.PLP.part.repulsive>
0.2024

> <Gold.PLP.ligand.clash>
0.0000

> <Gold.PLP.ligand.torsion>
0.2987

> <Gold.PLP.Chemscore.Hbond>
2.0000

> <Gold.PLP.Chemscore.CHOScore>
1.0234

> <Gold.PLP.Chemscore.Metal>
0.0000

> <Gold.Chemscore.Hbonds>
donor molecule, donor type, donor heavy atom, donor atom, acceptor molecule, acceptor atom, score
      P1  H  6896  6908       L1     3  0.94
      P1  H  7997  8010       L1     7  1.00
      L1  C    16    34       P1  8028  0.05
      L1  C    16    34       P1  8029  0.93

> <Gold.PLP.Chemscore.Internal.Correction>
0.0607

> <Gold.Rescore>
     Score         DG    S(hbond)    S(metal)    S(lipo)     H(rot)  DE(clash)    DE(int)     intcor
     13.81     -13.89       2.00        0.00      69.96       2.52       0.04       0.05       ----

> <Gold.Chemscore.Fitness>
13.8050

> <Gold.Chemscore.DG>
-13.8896

> <Gold.Chemscore.ZeroCoef>
-5.4800

> <Gold.Chemscore.Hbond>
1.9999

> <Gold.Chemscore.Metal>
0.0000

> <Gold.Chemscore.Lipo>
69.9585

> <Gold.Chemscore.Internal_Hbond>
0.0000

> <Gold.Chemscore.DEClash>
0.0358

> <Gold.Chemscore.DEInternal>
0.0488

> <Gold.Chemscore.Rot>
2.5216

> <Gold.Chemscore.Internal.Correction>
   9.000000E+99

> <Gold.Chemscore.Hbonds>
donor molecule, donor type, donor heavy atom, donor atom, acceptor molecule, acceptor atom, score
      P1  H  6896  6908       L1     3  0.90
      P1  H  7997  8010       L1     7  0.98

> <Gold.Chemscore.Hbond.Weighted>
-6.6797

> <Gold.Chemscore.Metal.Weighted>
-0.0000

> <Gold.Chemscore.Lipo.Weighted>
-8.1851

> <Gold.Chemscore.Internal_Hbond.Weighted>
0.0000

> <Gold.Chemscore.DEClash.Weighted>
0.0358

> <Gold.Chemscore.DEInternal.Weighted>
0.0488

> <Gold.Chemscore.Rot.Weighted>
6.4553

> <Gold.Chemscore.Internal.Correction.Weighted>
   9.000000E+99

> <Gold.Protein.RotatedTorsions>
[ 6907 6896 6895 6894 ] final  175.59 input  -60.11 | X-H torsion
[ 7974 7965 7964 7962 ] final  -74.24 input  175.53 | X-H torsion
[ 8008 7997 7996 7995 ] final   61.04 input   59.86 | X-H torsion
[ 10167 10162 10161 10158 ] final -172.14 input  -65.29 | X-H torsion
[ 10718 10713 10712 10709 ] final -154.61 input   66.30 | X-H torsion
[ 10763 10752 10751 10750 ] final   84.42 input  -60.55 | X-H torsion
[ 11005 11000 10999 10996 ] final  -72.28 input  -57.11 | X-H torsion

> <Gold.Protein.ActiveResidues>
 VAL166  LYS551  ARG553  GLY616  TRP617  ASP618  TYR619  PRO620  LYS621  CYS622 
 ASP623  PHE694  ASN695  SER759  ASP760  ASP761  ALA762  ILE779  LEU786  VAL792 
 PHE793  MET794  SER795  GLU796  ALA797  LYS798  CYS799  TRP800  GLU811  SER814 

> <Gold.Protein.RotatedAtoms>
  151.7337  133.3319  159.3346 H   0  0  0  0  0  0  0  0  0  0  0  0  # atno 6907 bound_to 6896
  150.7602  134.6340  159.6211 H   0  0  0  0  0  0  0  0  0  0  0  0  # atno 6908 bound_to 6896
  152.3575  134.6921  160.0269 H   0  0  0  0  0  0  0  0  0  0  0  0  # atno 6909 bound_to 6896
  145.6416  140.9309  143.1032 H   0  0  0  0  0  0  0  0  0  0  0  0  # atno 7974 bound_to 7965
  155.5919  140.3493  155.4569 H   0  0  0  0  0  0  0  0  0  0  0  0  # atno 8008 bound_to 7997
  156.0294  140.1271  157.0298 H   0  0  0  0  0  0  0  0  0  0  0  0  # atno 8009 bound_to 7997
  154.4346  140.1046  156.6064 H   0  0  0  0  0  0  0  0  0  0  0  0  # atno 8010 bound_to 7997
  139.5762  144.1528  152.1453 H   0  0  0  0  0  0  0  0  0  0  0  0  # atno 10167 bound_to 10162
  156.5016  130.8394  151.2611 H   0  0  0  0  0  0  0  0  0  0  0  0  # atno 10718 bound_to 10713
  153.1380  135.4655  154.9452 H   0  0  0  0  0  0  0  0  0  0  0  0  # atno 10763 bound_to 10752
  154.7722  135.3162  154.8168 H   0  0  0  0  0  0  0  0  0  0  0  0  # atno 10764 bound_to 10752
  153.8696  135.6905  153.4829 H   0  0  0  0  0  0  0  0  0  0  0  0  # atno 10765 bound_to 10752
  141.1606  133.6842  156.7035 H   0  0  0  0  0  0  0  0  0  0  0  0  # atno 11005 bound_to 11000
  144.7155  139.8213  143.7400 LP  0  0  0  0  0  0  0  0  0  0  0  0  # atno 17320 bound_to 7965
  146.1276  139.4305  143.0189 LP  0  0  0  0  0  0  0  0  0  0  0  0  # atno 17321 bound_to 7965
  140.1071  144.5489  150.6949 LP  0  0  0  0  0  0  0  0  0  0  0  0  # atno 17342 bound_to 10162
  140.7044  143.2457  151.4770 LP  0  0  0  0  0  0  0  0  0  0  0  0  # atno 17343 bound_to 10162
  157.7462  130.9979  150.2835 LP  0  0  0  0  0  0  0  0  0  0  0  0  # atno 17370 bound_to 10713
  156.3327  130.3803  149.7477 LP  0  0  0  0  0  0  0  0  0  0  0  0  # atno 17371 bound_to 10713
  140.2941  134.8217  157.4042 LP  0  0  0  0  0  0  0  0  0  0  0  0  # atno 17394 bound_to 11000
  140.1320  134.5082  155.8098 LP  0  0  0  0  0  0  0  0  0  0  0  0  # atno 17395 bound_to 11000

$$$$
