AV-unprocessed.smi:2575|AV-procd|sdf|10116|dock5
  -GOLD-   2272014133D 1   1.00000     0.00000
 Structure written by MMmdl.
 31 32  0  0  0  0  0  0  0  0  1 V2000
  154.0940  135.8995  164.2618 C   0  0  0  0  0  0  0  0  0  0  0  0
  154.2678  137.1527  163.4010 C   0  0  0  0  0  0  0  0  0  0  0  0
  155.4064  136.9876  162.5728 O   0  0  0  0  0  0  0  0  0  0  0  0
  155.0881  136.4301  161.3082 C   0  0  0  0  0  0  0  0  0  0  0  0
  154.1264  137.3701  160.5663 C   0  0  2  0  0  0  0  0  0  0  0  0
  153.3269  136.5929  159.6956 O   0  0  0  0  0  0  0  0  0  0  0  0
  154.8661  138.4614  159.7670 C   0  0  0  0  0  0  0  0  0  0  0  0
  154.0359  139.6265  159.5159 N   0  0  0  0  0  0  0  0  0  0  0  0
  153.4135  139.7563  158.3103 N   0  0  0  0  0  0  0  0  0  0  0  0
  152.7388  140.8671  158.3076 N   0  0  0  0  0  0  0  0  0  0  0  0
  152.9226  141.4829  159.5343 C   0  0  0  0  0  0  0  0  0  0  0  0
  152.4310  142.6981  160.0614 C   0  0  0  0  0  0  0  0  0  0  0  0
  152.7800  143.1023  161.3688 C   0  0  0  0  0  0  0  0  0  0  0  0
  152.1584  144.5947  161.9784 Cl  0  0  0  0  0  0  0  0  0  0  0  0
  153.6271  142.2935  162.1646 C   0  0  0  0  0  0  0  0  0  0  0  0
  154.0662  142.7743  163.7650 Cl  0  0  0  0  0  0  0  0  0  0  0  0
  154.1244  141.0790  161.6516 C   0  0  0  0  0  0  0  0  0  0  0  0
  153.7646  140.6949  160.3487 C   0  0  0  0  0  0  0  0  0  0  0  0
  153.2235  135.9909  164.9114 H   0  0  0  0  0  0  0  0  0  0  0  0
  154.9670  135.7342  164.8935 H   0  0  0  0  0  0  0  0  0  0  0  0
  153.9566  135.0142  163.6405 H   0  0  0  0  0  0  0  0  0  0  0  0
  153.3781  137.3101  162.7895 H   0  0  0  0  0  0  0  0  0  0  0  0
  154.3891  138.0290  164.0398 H   0  0  0  0  0  0  0  0  0  0  0  0
  155.9942  136.2689  160.7216 H   0  0  0  0  0  0  0  0  0  0  0  0
  154.6168  135.4568  161.4561 H   0  0  0  0  0  0  0  0  0  0  0  0
  153.4595  137.8379  161.2917 H   0  0  0  0  0  0  0  0  0  0  0  0
  153.3809  136.9622  158.8274 H   0  0  0  0  0  0  0  0  0  0  0  0
  155.7592  138.7848  160.3042 H   0  0  0  0  0  0  0  0  0  0  0  0
  155.2083  138.0669  158.8093 H   0  0  0  0  0  0  0  0  0  0  0  0
  151.7857  143.3199  159.4588 H   0  0  0  0  0  0  0  0  0  0  0  0
  154.7729  140.4539  162.2477 H   0  0  0  0  0  0  0  0  0  0  0  0
  1  2  1  0  0  0  0
  1 19  1  0  0  0  0
  1 20  1  0  0  0  0
  1 21  1  0  0  0  0
  2  3  1  0  0  0  0
  2 22  1  0  0  0  0
  2 23  1  0  0  0  0
  3  4  1  0  0  0  0
  4  5  1  0  0  0  0
  4 24  1  0  0  0  0
  4 25  1  0  0  0  0
  5  6  1  0  0  0  0
  5  7  1  0  0  0  0
  5 26  1  0  0  0  0
  6 27  1  0  0  0  0
  7  8  1  0  0  0  0
  7 28  1  0  0  0  0
  7 29  1  0  0  0  0
  8 18  1  0  0  0  0
  8  9  1  0  0  0  0
  9 10  2  0  0  0  0
 10 11  1  0  0  0  0
 11 18  2  0  0  0  0
 11 12  1  0  0  0  0
 12 13  2  0  0  0  0
 12 30  1  0  0  0  0
 13 14  1  0  0  0  0
 13 15  1  0  0  0  0
 15 16  1  0  0  0  0
 15 17  2  0  0  0  0
 17 18  1  0  0  0  0
 17 31  1  0  0  0  0
M  END
> <s_m_source_file>
AV-unprocessed.smi

> <i_m_source_file_index>
2575

> <i_lp_mmshare_version>
43012

> <i_f3d_flags>
0

> <s_epik_input>
W0NIM11bQ0gyXU9bQ0gyXVtDQEhdKFtPSF0pW0NIMl1uKG5uMSljKGMxMilbY0hdYyhDbCljKENsKVtjSF0y

> <s_epik_cmdline>
J2VwaWtfcHl0aG9uJywgJy1waCcsICc3LjAnLCAnLXRuJywgJzgnLCAnLW1hJywgJzIwMCcsICctbWV0YWxfYmluZGluZycsICctaW1hZScsICc8aW5maWxlLm1hZT4nLCAnLW9tYWUnLCAnPG91dGZpbGUubWFlPic=

> <r_lp_tautomer_probability>
1

> <r_epik_Ionization_Penalty>
2.39516e-06

> <r_epik_Ionization_Penalty_Charging>
0

> <r_epik_Ionization_Penalty_Neutral>
2.39516e-06

> <r_epik_State_Penalty>
-0

> <r_epik_Charging_Adjusted_Penalty>
0

> <i_epik_Tot_Q>
0

> <i_epik_Tot_abs_Q>
0

> <r_epik_Metal_State_Penalty>
-0

> <b_epik_Metal_Only>
0

> <s_lp_Force_Field>
OPLS_2005

> <r_lp_Energy>
6.35742

> <b_lp_Chiralities_Consistent>
1

> <s_lp_Variant>
AV-unprocessed.smi:2575-1

> <Gold.Version>
5.8.1

> <Gold.Id.Protein>
6NUR|6NUR_protein|mol2

> <Gold.PLP.Fitness>
43.9651

> <Gold.PLP.PLP>
-40.0877

> <Gold.PLP.part.hbond>
-2.9287

> <Gold.PLP.part.metal>
0.0000

> <Gold.PLP.part.buried>
-0.0751

> <Gold.PLP.part.nonpolar>
-36.4134

> <Gold.PLP.part.repulsive>
0.0000

> <Gold.PLP.ligand.clash>
0.0000

> <Gold.PLP.ligand.torsion>
1.0746

> <Gold.PLP.Chemscore.Hbond>
2.0000

> <Gold.PLP.Chemscore.CHOScore>
0.0000

> <Gold.PLP.Chemscore.Metal>
0.0000

> <Gold.Chemscore.Hbonds>
donor molecule, donor type, donor heavy atom, donor atom, acceptor molecule, acceptor atom, score
      P1  H  6896  6908       L1     6  1.00
      P1  H  7997  8009       L1     9  1.00

> <Gold.PLP.Chemscore.Internal.Correction>
0.0267

> <Gold.Rescore>
     Score         DG    S(hbond)    S(metal)    S(lipo)     H(rot)  DE(clash)    DE(int)     intcor
     15.76     -18.02       1.23        0.00     119.94       2.19       1.30       0.96       ----

> <Gold.Chemscore.Fitness>
15.7598

> <Gold.Chemscore.DG>
-18.0211

> <Gold.Chemscore.ZeroCoef>
-5.4800

> <Gold.Chemscore.Hbond>
1.2319

> <Gold.Chemscore.Metal>
0.0000

> <Gold.Chemscore.Lipo>
119.9420

> <Gold.Chemscore.Internal_Hbond>
0.0000

> <Gold.Chemscore.DEClash>
1.3011

> <Gold.Chemscore.DEInternal>
0.9602

> <Gold.Chemscore.Rot>
2.1901

> <Gold.Chemscore.Internal.Correction>
   9.000000E+99

> <Gold.Chemscore.Hbonds>
donor molecule, donor type, donor heavy atom, donor atom, acceptor molecule, acceptor atom, score
      P1  H  6896  6908       L1     6  0.91
      P1  H  7997  8009       L1     9  0.22

> <Gold.Chemscore.Hbond.Weighted>
-4.1144

> <Gold.Chemscore.Metal.Weighted>
-0.0000

> <Gold.Chemscore.Lipo.Weighted>
-14.0332

> <Gold.Chemscore.Internal_Hbond.Weighted>
0.0000

> <Gold.Chemscore.DEClash.Weighted>
1.3011

> <Gold.Chemscore.DEInternal.Weighted>
0.9602

> <Gold.Chemscore.Rot.Weighted>
5.6066

> <Gold.Chemscore.Internal.Correction.Weighted>
   9.000000E+99

> <Gold.Protein.RotatedTorsions>
[ 6907 6896 6895 6894 ] final  -86.08 input  -60.11 | X-H torsion
[ 7974 7965 7964 7962 ] final  -67.55 input  175.53 | X-H torsion
[ 8008 7997 7996 7995 ] final  141.52 input   59.86 | X-H torsion
[ 10167 10162 10161 10158 ] final -165.31 input  -65.29 | X-H torsion
[ 10718 10713 10712 10709 ] final  -19.62 input   66.30 | X-H torsion
[ 10763 10752 10751 10750 ] final   91.77 input  -60.55 | X-H torsion
[ 11005 11000 10999 10996 ] final -139.84 input  -57.11 | X-H torsion

> <Gold.Protein.ActiveResidues>
 VAL166  LYS551  ARG553  GLY616  TRP617  ASP618  TYR619  PRO620  LYS621  CYS622 
 ASP623  PHE694  ASN695  SER759  ASP760  ASP761  ALA762  ILE779  LEU786  VAL792 
 PHE793  MET794  SER795  GLU796  ALA797  LYS798  CYS799  TRP800  GLU811  SER814 

> <Gold.Protein.RotatedAtoms>
  150.6868  134.3105  159.4744 H   0  0  0  0  0  0  0  0  0  0  0  0  # atno 6907 bound_to 6896
  152.0991  134.9351  160.0579 H   0  0  0  0  0  0  0  0  0  0  0  0  # atno 6908 bound_to 6896
  152.0637  133.4039  159.4466 H   0  0  0  0  0  0  0  0  0  0  0  0  # atno 6909 bound_to 6896
  145.7277  140.9010  143.0596 H   0  0  0  0  0  0  0  0  0  0  0  0  # atno 7974 bound_to 7965
  156.2964  140.2313  156.4578 H   0  0  0  0  0  0  0  0  0  0  0  0  # atno 8008 bound_to 7997
  154.8045  140.0446  157.1318 H   0  0  0  0  0  0  0  0  0  0  0  0  # atno 8009 bound_to 7997
  154.9495  140.3040  155.5085 H   0  0  0  0  0  0  0  0  0  0  0  0  # atno 8010 bound_to 7997
  139.6191  144.0661  152.1915 H   0  0  0  0  0  0  0  0  0  0  0  0  # atno 10167 bound_to 10162
  156.5432  130.4683  149.6488 H   0  0  0  0  0  0  0  0  0  0  0  0  # atno 10718 bound_to 10713
  153.2119  135.4385  155.0389 H   0  0  0  0  0  0  0  0  0  0  0  0  # atno 10763 bound_to 10752
  154.8204  135.3335  154.7056 H   0  0  0  0  0  0  0  0  0  0  0  0  # atno 10764 bound_to 10752
  153.7493  135.6999  153.5005 H   0  0  0  0  0  0  0  0  0  0  0  0  # atno 10765 bound_to 10752
  140.8480  134.2320  157.4775 H   0  0  0  0  0  0  0  0  0  0  0  0  # atno 11005 bound_to 11000
  144.6900  139.9289  143.7471 LP  0  0  0  0  0  0  0  0  0  0  0  0  # atno 17320 bound_to 7965
  146.0566  139.3563  143.0607 LP  0  0  0  0  0  0  0  0  0  0  0  0  # atno 17321 bound_to 7965
  140.0298  144.6089  150.7497 LP  0  0  0  0  0  0  0  0  0  0  0  0  # atno 17342 bound_to 10162
  140.7370  143.2760  151.3741 LP  0  0  0  0  0  0  0  0  0  0  0  0  # atno 17343 bound_to 10162
  156.2952  130.7146  151.2005 LP  0  0  0  0  0  0  0  0  0  0  0  0  # atno 17370 bound_to 10713
  157.7401  131.0520  150.5186 LP  0  0  0  0  0  0  0  0  0  0  0  0  # atno 17371 bound_to 10713
  139.8704  134.9669  156.4579 LP  0  0  0  0  0  0  0  0  0  0  0  0  # atno 17394 bound_to 11000
  140.8821  133.7910  155.9478 LP  0  0  0  0  0  0  0  0  0  0  0  0  # atno 17395 bound_to 11000

$$$$
