AV-unprocessed.smi:1005|AV-procd|sdf|4382|dock9
  -GOLD-   22720 2303D 1   1.00000     0.00000
 Structure written by MMmdl.
 58 60  0  0  0  0  0  0  0  0  4 V2000
  152.1046  144.6152  160.4793 C   0  0  0  0  0  0  0  0  0  0  0  0
  151.9745  143.5126  159.4424 C   0  0  0  0  0  0  0  0  0  0  0  0
  151.1238  143.7259  158.3342 C   0  0  0  0  0  0  0  0  0  0  0  0
  151.0278  142.7002  157.4015 C   0  0  0  0  0  0  0  0  0  0  0  0
  150.2897  142.6024  156.2200 N   0  3  0  0  0  0  0  0  0  0  0  0
  150.5230  141.3942  155.6365 C   0  0  0  0  0  0  0  0  0  0  0  0
  151.4022  140.7198  156.4272 N   0  0  0  0  0  0  0  0  0  0  0  0
  151.9890  139.3828  156.2647 C   0  0  0  0  0  0  0  0  0  0  0  0
  151.0291  138.2517  156.6848 C   0  0  2  0  0  0  0  0  0  0  0  0
  151.7542  137.0421  156.7956 O   0  0  0  0  0  0  0  0  0  0  0  0
  149.8858  138.0584  155.6689 C   0  0  0  0  0  0  0  0  0  0  0  0
  148.8233  137.1497  156.1794 N   0  3  1  0  0  0  0  0  0  0  0  0
  148.0708  137.6696  157.3496 C   0  0  0  0  0  0  0  0  0  0  0  0
  147.0066  138.6989  156.9251 C   0  0  0  0  0  0  0  0  0  0  0  0
  146.1519  138.1297  155.9409 O   0  0  0  0  0  0  0  0  0  0  0  0
  146.8502  137.7515  154.7587 C   0  0  2  0  0  0  0  0  0  0  0  0
  145.8146  137.2200  153.7500 C   0  0  0  0  0  0  0  0  0  0  0  0
  146.2913  137.2921  152.3446 N   0  3  0  0  0  0  0  0  0  0  0  0
  145.4736  136.4905  151.4050 C   0  0  0  0  0  0  0  0  0  0  0  0
  146.4411  138.6880  151.8774 C   0  0  0  0  0  0  0  0  0  0  0  0
  147.8880  136.6707  155.1314 C   0  0  0  0  0  0  0  0  0  0  0  0
  151.7410  141.4940  157.5421 C   0  0  0  0  0  0  0  0  0  0  0  0
  152.5805  141.2656  158.6294 C   0  0  0  0  0  0  0  0  0  0  0  0
  152.6933  142.2977  159.5883 C   0  0  0  0  0  0  0  0  0  0  0  0
  153.6056  142.0799  160.7835 C   0  0  0  0  0  0  0  0  0  0  0  0
  151.5040  145.4858  160.2139 H   0  0  0  0  0  0  0  0  0  0  0  0
  153.1417  144.9401  160.5652 H   0  0  0  0  0  0  0  0  0  0  0  0
  151.7692  144.2639  161.4554 H   0  0  0  0  0  0  0  0  0  0  0  0
  150.5730  144.6478  158.2173 H   0  0  0  0  0  0  0  0  0  0  0  0
  150.0911  141.0385  154.7120 H   0  0  0  0  0  0  0  0  0  0  0  0
  152.2959  139.2692  155.2241 H   0  0  0  0  0  0  0  0  0  0  0  0
  152.9014  139.3502  156.8622 H   0  0  0  0  0  0  0  0  0  0  0  0
  150.6223  138.4871  157.6674 H   0  0  0  0  0  0  0  0  0  0  0  0
  151.4738  136.4540  156.1106 H   0  0  0  0  0  0  0  0  0  0  0  0
  149.4514  139.0218  155.4019 H   0  0  0  0  0  0  0  0  0  0  0  0
  150.3080  137.6552  154.7471 H   0  0  0  0  0  0  0  0  0  0  0  0
  147.5769  136.8266  157.8346 H   0  0  0  0  0  0  0  0  0  0  0  0
  148.7398  138.0977  158.0951 H   0  0  0  0  0  0  0  0  0  0  0  0
  146.4036  138.9867  157.7865 H   0  0  0  0  0  0  0  0  0  0  0  0
  147.4624  139.6134  156.5442 H   0  0  0  0  0  0  0  0  0  0  0  0
  147.3656  138.6175  154.3425 H   0  0  0  0  0  0  0  0  0  0  0  0
  145.5402  136.1905  153.9858 H   0  0  0  0  0  0  0  0  0  0  0  0
  144.9027  137.8098  153.8562 H   0  0  0  0  0  0  0  0  0  0  0  0
  144.4451  136.8527  151.3748 H   0  0  0  0  0  0  0  0  0  0  0  0
  145.4569  135.4377  151.6845 H   0  0  0  0  0  0  0  0  0  0  0  0
  145.8821  136.5498  150.3955 H   0  0  0  0  0  0  0  0  0  0  0  0
  145.4811  139.2057  151.8758 H   0  0  0  0  0  0  0  0  0  0  0  0
  146.8469  138.7158  150.8654 H   0  0  0  0  0  0  0  0  0  0  0  0
  147.1276  139.2401  152.5201 H   0  0  0  0  0  0  0  0  0  0  0  0
  148.4403  136.3387  154.2516 H   0  0  0  0  0  0  0  0  0  0  0  0
  147.3729  135.7890  155.5156 H   0  0  0  0  0  0  0  0  0  0  0  0
  153.1271  140.3413  158.7409 H   0  0  0  0  0  0  0  0  0  0  0  0
  154.0696  141.0934  160.7575 H   0  0  0  0  0  0  0  0  0  0  0  0
  153.0440  142.1584  161.7147 H   0  0  0  0  0  0  0  0  0  0  0  0
  154.4035  142.8228  160.7959 H   0  0  0  0  0  0  0  0  0  0  0  0
  147.2220  136.8990  152.3351 H   0  0  0  0  0  0  0  0  0  0  0  0
  149.3207  136.3294  156.4983 H   0  0  0  0  0  0  0  0  0  0  0  0
  149.6721  143.3071  155.8371 H   0  0  0  0  0  0  0  0  0  0  0  0
  1  2  1  0  0  0  0
  1 26  1  0  0  0  0
  1 27  1  0  0  0  0
  1 28  1  0  0  0  0
  2 24  1  0  0  0  0
  2  3  2  0  0  0  0
  3  4  1  0  0  0  0
  3 29  1  0  0  0  0
  4 22  2  0  0  0  0
  4  5  1  0  0  0  0
  5  6  2  0  0  0  0
  5 58  1  0  0  0  0
  6  7  1  0  0  0  0
  6 30  1  0  0  0  0
  7  8  1  0  0  0  0
  7 22  1  0  0  0  0
  8  9  1  0  0  0  0
  8 31  1  0  0  0  0
  8 32  1  0  0  0  0
  9 10  1  0  0  0  0
  9 11  1  0  0  0  0
  9 33  1  0  0  0  0
 10 34  1  0  0  0  0
 11 12  1  0  0  0  0
 11 35  1  0  0  0  0
 11 36  1  0  0  0  0
 12 21  1  0  0  0  0
 12 13  1  0  0  0  0
 12 57  1  0  0  0  0
 13 14  1  0  0  0  0
 13 37  1  0  0  0  0
 13 38  1  0  0  0  0
 14 15  1  0  0  0  0
 14 39  1  0  0  0  0
 14 40  1  0  0  0  0
 15 16  1  0  0  0  0
 16 17  1  0  0  0  0
 16 21  1  0  0  0  0
 16 41  1  0  0  0  0
 17 18  1  0  0  0  0
 17 42  1  0  0  0  0
 17 43  1  0  0  0  0
 18 19  1  0  0  0  0
 18 20  1  0  0  0  0
 18 56  1  0  0  0  0
 19 44  1  0  0  0  0
 19 45  1  0  0  0  0
 19 46  1  0  0  0  0
 20 47  1  0  0  0  0
 20 48  1  0  0  0  0
 20 49  1  0  0  0  0
 21 50  1  0  0  0  0
 21 51  1  0  0  0  0
 22 23  1  0  0  0  0
 23 24  2  0  0  0  0
 23 52  1  0  0  0  0
 24 25  1  0  0  0  0
 25 53  1  0  0  0  0
 25 54  1  0  0  0  0
 25 55  1  0  0  0  0
M  CHG  1   5   1
M  CHG  1  12   1
M  CHG  1  18   1
M  END
> <s_m_source_file>
AV-unprocessed.smi

> <i_m_source_file_index>
1005

> <i_lp_mmshare_version>
43012

> <i_f3d_flags>
0

> <s_epik_input>
W0NIM11jKFtjSF0xKWMoW0NIM10pW2NIXWMoYzEyKW4oW2NIXW4yKVtDSDJdW0NASF0oW09IXSlbQ0gyXU4zW0NIMl1bQ0gyXU9bQ0BIXShbQ0gyXTMpW0NIMl1OKFtDSDNdKVtDSDNd

> <s_epik_cmdline>
J2VwaWtfcHl0aG9uJywgJy1waCcsICc3LjAnLCAnLXRuJywgJzgnLCAnLW1hJywgJzIwMCcsICctbWV0YWxfYmluZGluZycsICctaW1hZScsICc8aW5maWxlLm1hZT4nLCAnLW9tYWUnLCAnPG91dGZpbGUubWFlPic=

> <r_epik_Ionization_Penalty>
2.30802

> <r_epik_Ionization_Penalty_Charging>
2.30798

> <r_epik_Ionization_Penalty_Neutral>
3.4851e-05

> <r_epik_State_Penalty>
2.52618

> <r_epik_Charging_Adjusted_Penalty>
4.83416

> <i_epik_Tot_Q>
3

> <i_epik_Tot_abs_Q>
3

> <r_epik_Metal_State_Penalty>
6.53149

> <b_epik_Metal_Only>
0

> <s_lp_Force_Field>
OPLS_2005

> <r_lp_Energy>
46.1367

> <b_lp_Chiralities_Consistent>
1

> <s_lp_Variant>
AV-unprocessed.smi:1005-21

> <Gold.Version>
5.8.1

> <Gold.Id.Protein>
6NUR|6NUR_protein|mol2

> <Gold.PLP.Fitness>
53.1569

> <Gold.PLP.PLP>
-42.5370

> <Gold.PLP.part.hbond>
-2.0000

> <Gold.PLP.part.metal>
0.0000

> <Gold.PLP.part.buried>
-5.5525

> <Gold.PLP.part.nonpolar>
-35.7392

> <Gold.PLP.part.repulsive>
0.1554

> <Gold.PLP.ligand.clash>
0.0000

> <Gold.PLP.ligand.torsion>
0.7691

> <Gold.PLP.Chemscore.Hbond>
4.0000

> <Gold.PLP.Chemscore.CHOScore>
0.0000

> <Gold.PLP.Chemscore.Metal>
0.0000

> <Gold.Chemscore.Hbonds>
donor molecule, donor type, donor heavy atom, donor atom, acceptor molecule, acceptor atom, score
      L1  H     5    58       P1  8028  2.00
      L1  H    18    56       P1  7948  2.00

> <Gold.PLP.Chemscore.Internal.Correction>
0.1580

> <Gold.Rescore>
     Score         DG    S(hbond)    S(metal)    S(lipo)     H(rot)  DE(clash)    DE(int)     intcor
     18.66     -19.41       2.00        0.00     118.00       2.56       0.04       0.71       ----

> <Gold.Chemscore.Fitness>
18.6641

> <Gold.Chemscore.DG>
-19.4114

> <Gold.Chemscore.ZeroCoef>
-5.4800

> <Gold.Chemscore.Hbond>
1.9970

> <Gold.Chemscore.Metal>
0.0000

> <Gold.Chemscore.Lipo>
118.0035

> <Gold.Chemscore.Internal_Hbond>
0.0000

> <Gold.Chemscore.DEClash>
0.0356

> <Gold.Chemscore.DEInternal>
0.7117

> <Gold.Chemscore.Rot>
2.5566

> <Gold.Chemscore.Internal.Correction>
   9.000000E+99

> <Gold.Chemscore.Hbonds>
donor molecule, donor type, donor heavy atom, donor atom, acceptor molecule, acceptor atom, score
      L1  H     5    58       P1  8028  0.99
      L1  H    18    56       P1  7948  1.00

> <Gold.Chemscore.Hbond.Weighted>
-6.6700

> <Gold.Chemscore.Metal.Weighted>
-0.0000

> <Gold.Chemscore.Lipo.Weighted>
-13.8064

> <Gold.Chemscore.Internal_Hbond.Weighted>
0.0000

> <Gold.Chemscore.DEClash.Weighted>
0.0356

> <Gold.Chemscore.DEInternal.Weighted>
0.7117

> <Gold.Chemscore.Rot.Weighted>
6.5450

> <Gold.Chemscore.Internal.Correction.Weighted>
   9.000000E+99

> <Gold.Protein.RotatedTorsions>
[ 6907 6896 6895 6894 ] final  -97.00 input  -60.11 | X-H torsion
[ 7974 7965 7964 7962 ] final   71.59 input  175.53 | X-H torsion
[ 8008 7997 7996 7995 ] final   41.34 input   59.86 | X-H torsion
[ 10167 10162 10161 10158 ] final -101.21 input  -65.29 | X-H torsion
[ 10718 10713 10712 10709 ] final   32.26 input   66.30 | X-H torsion
[ 10763 10752 10751 10750 ] final  -24.24 input  -60.55 | X-H torsion
[ 11005 11000 10999 10996 ] final  132.04 input  -57.11 | X-H torsion

> <Gold.Protein.ActiveResidues>
 VAL166  LYS551  ARG553  GLY616  TRP617  ASP618  TYR619  PRO620  LYS621  CYS622 
 ASP623  PHE694  ASN695  SER759  ASP760  ASP761  ALA762  ILE779  LEU786  VAL792 
 PHE793  MET794  SER795  GLU796  ALA797  LYS798  CYS799  TRP800  GLU811  SER814 

> <Gold.Protein.RotatedAtoms>
  150.7004  134.1416  159.4106 H   0  0  0  0  0  0  0  0  0  0  0  0  # atno 6907 bound_to 6896
  151.9400  135.0215  160.0544 H   0  0  0  0  0  0  0  0  0  0  0  0  # atno 6908 bound_to 6896
  152.2102  133.4870  159.5142 H   0  0  0  0  0  0  0  0  0  0  0  0  # atno 6909 bound_to 6896
  145.7639  139.2813  143.1360 H   0  0  0  0  0  0  0  0  0  0  0  0  # atno 7974 bound_to 7965
  155.2681  140.3364  155.4267 H   0  0  0  0  0  0  0  0  0  0  0  0  # atno 8008 bound_to 7997
  156.2145  140.1783  156.7662 H   0  0  0  0  0  0  0  0  0  0  0  0  # atno 8009 bound_to 7997
  154.5733  140.0666  156.8982 H   0  0  0  0  0  0  0  0  0  0  0  0  # atno 8010 bound_to 7997
  140.2437  143.3521  152.0778 H   0  0  0  0  0  0  0  0  0  0  0  0  # atno 10167 bound_to 10162
  157.2830  130.7264  149.6567 H   0  0  0  0  0  0  0  0  0  0  0  0  # atno 10718 bound_to 10713
  153.6806  135.6967  153.5119 H   0  0  0  0  0  0  0  0  0  0  0  0  # atno 10763 bound_to 10752
  153.2488  135.4282  155.0775 H   0  0  0  0  0  0  0  0  0  0  0  0  # atno 10764 bound_to 10752
  154.8401  135.3526  154.6349 H   0  0  0  0  0  0  0  0  0  0  0  0  # atno 10765 bound_to 10752
  139.9766  134.9561  156.9524 H   0  0  0  0  0  0  0  0  0  0  0  0  # atno 11005 bound_to 11000
  146.0237  140.8324  142.9910 LP  0  0  0  0  0  0  0  0  0  0  0  0  # atno 17320 bound_to 7965
  144.6825  140.2666  143.7311 LP  0  0  0  0  0  0  0  0  0  0  0  0  # atno 17321 bound_to 7965
  139.5069  144.6822  151.5980 LP  0  0  0  0  0  0  0  0  0  0  0  0  # atno 17342 bound_to 10162
  140.6094  143.9464  150.6442 LP  0  0  0  0  0  0  0  0  0  0  0  0  # atno 17343 bound_to 10162
  155.9665  130.4332  150.4997 LP  0  0  0  0  0  0  0  0  0  0  0  0  # atno 17370 bound_to 10713
  157.2944  131.0633  151.2111 LP  0  0  0  0  0  0  0  0  0  0  0  0  # atno 17371 bound_to 10713
  140.5182  134.0933  155.7286 LP  0  0  0  0  0  0  0  0  0  0  0  0  # atno 17394 bound_to 11000
  141.1442  133.9084  157.2254 LP  0  0  0  0  0  0  0  0  0  0  0  0  # atno 17395 bound_to 11000

$$$$
