AV-unprocessed.smi:101|AV-procd|sdf|930|dock6
  -GOLD-   2262017443D 1   1.00000     0.00000
 Structure written by MMmdl.
 43 45  0  0  0  0  0  0  0  0  2 V2000
  144.4543  145.3541  153.2021 C   0  0  0  0  0  0  0  0  0  0  0  0
  145.1087  144.2516  154.0161 C   0  0  0  0  0  0  0  0  0  0  0  0
  146.1606  143.5409  153.5531 C   0  0  0  0  0  0  0  0  0  0  0  0
  146.7562  142.5394  154.2993 N   0  0  0  0  0  0  0  0  0  0  0  0
  147.9383  141.7729  153.7431 C   0  0  1  0  0  0  0  0  0  0  0  0
  148.8789  141.6073  154.7623 O   0  0  0  0  0  0  0  0  0  0  0  0
  149.3971  140.2833  154.7233 C   0  0  1  0  0  0  0  0  0  0  0  0
  149.9863  139.8809  156.0827 C   0  0  0  0  0  0  0  0  0  0  0  0
  150.7314  140.9674  156.6068 O   0  0  0  0  0  0  0  0  0  0  0  0
  151.3470  140.8498  157.7987 C   0  0  0  0  0  0  0  0  0  0  0  0
  151.5778  139.7681  158.3433 O   0  0  0  0  0  0  0  0  0  0  0  0
  151.7226  142.1667  158.3901 C   0  0  0  0  0  0  0  0  0  0  0  0
  151.4534  143.3527  157.6680 C   0  0  0  0  0  0  0  0  0  0  0  0
  151.7976  144.6106  158.2005 C   0  0  0  0  0  0  0  0  0  0  0  0
  152.4158  144.6976  159.4614 C   0  0  0  0  0  0  0  0  0  0  0  0
  152.6896  143.5252  160.1896 C   0  0  0  0  0  0  0  0  0  0  0  0
  152.3459  142.2665  159.6588 C   0  0  0  0  0  0  0  0  0  0  0  0
  148.2128  139.4398  154.2363 C   0  0  1  0  0  0  0  0  0  0  0  0
  147.3500  139.1093  155.3131 O   0  0  0  0  0  0  0  0  0  0  0  0
  147.5570  140.3703  153.2207 C   0  0  1  0  0  0  0  0  0  0  0  0
  146.1713  140.1240  153.0533 O   0  0  0  0  0  0  0  0  0  0  0  0
  146.2664  142.2460  155.5990 C   0  0  0  0  0  0  0  0  0  0  0  0
  146.8320  141.3680  156.2508 O   0  0  0  0  0  0  0  0  0  0  0  0
  145.2008  142.9536  156.0717 N   0  5  0  0  0  0  0  0  0  0  0  0
  144.5921  143.9416  155.3545 C   0  0  0  0  0  0  0  0  0  0  0  0
  143.6322  144.5732  155.7953 O   0  0  0  0  0  0  0  0  0  0  0  0
  144.9164  145.4482  152.2189 H   0  0  0  0  0  0  0  0  0  0  0  0
  144.5499  146.3117  153.7145 H   0  0  0  0  0  0  0  0  0  0  0  0
  143.3940  145.1443  153.0578 H   0  0  0  0  0  0  0  0  0  0  0  0
  146.5477  143.7660  152.5706 H   0  0  0  0  0  0  0  0  0  0  0  0
  148.3895  142.4008  152.9742 H   0  0  0  0  0  0  0  0  0  0  0  0
  150.1774  140.2494  153.9604 H   0  0  0  0  0  0  0  0  0  0  0  0
  149.1945  139.5900  156.7747 H   0  0  0  0  0  0  0  0  0  0  0  0
  150.6510  139.0248  155.9598 H   0  0  0  0  0  0  0  0  0  0  0  0
  150.9795  143.3108  156.6976 H   0  0  0  0  0  0  0  0  0  0  0  0
  151.5865  145.5093  157.6400 H   0  0  0  0  0  0  0  0  0  0  0  0
  152.6795  145.6621  159.8695 H   0  0  0  0  0  0  0  0  0  0  0  0
  153.1646  143.5906  161.1574 H   0  0  0  0  0  0  0  0  0  0  0  0
  152.5717  141.3865  160.2431 H   0  0  0  0  0  0  0  0  0  0  0  0
  148.5444  138.5103  153.7722 H   0  0  0  0  0  0  0  0  0  0  0  0
  147.4785  139.7382  156.0063 H   0  0  0  0  0  0  0  0  0  0  0  0
  148.0480  140.2448  152.2549 H   0  0  0  0  0  0  0  0  0  0  0  0
  145.8098  140.8222  152.5286 H   0  0  0  0  0  0  0  0  0  0  0  0
  1  2  1  0  0  0  0
  1 27  1  0  0  0  0
  1 28  1  0  0  0  0
  1 29  1  0  0  0  0
  2 25  1  0  0  0  0
  2  3  2  0  0  0  0
  3  4  1  0  0  0  0
  3 30  1  0  0  0  0
  4  5  1  0  0  0  0
  4 22  1  0  0  0  0
  5 20  1  0  0  0  0
  5  6  1  0  0  0  0
  5 31  1  0  0  0  0
  6  7  1  0  0  0  0
  7  8  1  0  0  0  0
  7 18  1  0  0  0  0
  7 32  1  0  0  0  0
  8  9  1  0  0  0  0
  8 33  1  0  0  0  0
  8 34  1  0  0  0  0
  9 10  1  0  0  0  0
 10 11  2  0  0  0  0
 10 12  1  0  0  0  0
 12 17  1  0  0  0  0
 12 13  2  0  0  0  0
 13 14  1  0  0  0  0
 13 35  1  0  0  0  0
 14 15  2  0  0  0  0
 14 36  1  0  0  0  0
 15 16  1  0  0  0  0
 15 37  1  0  0  0  0
 16 17  2  0  0  0  0
 16 38  1  0  0  0  0
 17 39  1  0  0  0  0
 18 19  1  0  0  0  0
 18 20  1  0  0  0  0
 18 40  1  0  0  0  0
 19 41  1  0  0  0  0
 20 21  1  0  0  0  0
 20 42  1  0  0  0  0
 21 43  1  0  0  0  0
 22 23  2  0  0  0  0
 22 24  1  0  0  0  0
 24 25  1  0  0  0  0
 25 26  2  0  0  0  0
M  CHG  1  24  -1
M  END
> <s_m_source_file>
AV-unprocessed.smi

> <i_m_source_file_index>
101

> <i_lp_mmshare_version>
43012

> <i_f3d_flags>
0

> <s_epik_input>
Tz1jMVtuSF1jKD1PKW4oW2NIXWMxW0NIM10pW0NAQEhdMk9bQ0BIXShbQ0BASF0oW09IXSlbQ0BIXTJbT0hdKVtDSDJdT0MoPU8pYzNbY0hdW2NIXVtjSF1bY0hdW2NIXTM=

> <s_epik_cmdline>
J2VwaWtfcHl0aG9uJywgJy1waCcsICc3LjAnLCAnLXRuJywgJzgnLCAnLW1hJywgJzIwMCcsICctbWV0YWxfYmluZGluZycsICctaW1hZScsICc8aW5maWxlLm1hZT4nLCAnLW9tYWUnLCAnPG91dGZpbGUubWFlPic=

> <r_lp_tautomer_probability>
0.999537

> <r_epik_Ionization_Penalty>
3.21006

> <r_epik_Ionization_Penalty_Charging>
5.75142e-08

> <r_epik_Ionization_Penalty_Neutral>
3.21006

> <r_epik_State_Penalty>
3.20925

> <r_epik_Charging_Adjusted_Penalty>
3.20925

> <i_epik_Tot_Q>
-1

> <i_epik_Tot_abs_Q>
1

> <r_epik_Metal_State_Penalty>
0.119957

> <b_epik_Metal_Only>
1

> <s_epik_Chemistry_Notes>
This compound has an ester and may undergo hydrolysis at high or low pH. This compound contains an acetal/aminal-like group ( X-CH(R)-Y where X, Y are N, S, or O) that may be acid/base labile, releasing an aldehyde.

> <s_lp_Force_Field>
OPLS_2005

> <r_lp_Energy>
50.5402

> <b_lp_Chiralities_Consistent>
1

> <s_lp_Variant>
AV-unprocessed.smi:101-18

> <Gold.Version>
5.8.1

> <Gold.Id.Protein>
6NUR|6NUR_protein|mol2

> <Gold.PLP.Fitness>
49.0090

> <Gold.PLP.PLP>
-49.9331

> <Gold.PLP.part.hbond>
-1.0000

> <Gold.PLP.part.metal>
0.0000

> <Gold.PLP.part.buried>
-7.0322

> <Gold.PLP.part.nonpolar>
-44.2989

> <Gold.PLP.part.repulsive>
0.3505

> <Gold.PLP.ligand.clash>
0.0055

> <Gold.PLP.ligand.torsion>
0.9035

> <Gold.PLP.Chemscore.Hbond>
0.2880

> <Gold.PLP.Chemscore.CHOScore>
0.0000

> <Gold.PLP.Chemscore.Metal>
0.0000

> <Gold.Chemscore.Hbonds>
donor molecule, donor type, donor heavy atom, donor atom, acceptor molecule, acceptor atom, score
      L1  H    21    43       P1 10175  0.09

> <Gold.PLP.Chemscore.Internal.Correction>
0.0243

> <Gold.Rescore>
     Score         DG    S(hbond)    S(metal)    S(lipo)     H(rot)  DE(clash)    DE(int)     intcor
      7.88     -12.55       0.57        0.00     115.52       3.27       0.25       4.41       ----

> <Gold.Chemscore.Fitness>
7.8840

> <Gold.Chemscore.DG>
-12.5484

> <Gold.Chemscore.ZeroCoef>
-5.4800

> <Gold.Chemscore.Hbond>
0.5726

> <Gold.Chemscore.Metal>
0.0000

> <Gold.Chemscore.Lipo>
115.5181

> <Gold.Chemscore.Internal_Hbond>
0.0000

> <Gold.Chemscore.DEClash>
0.2516

> <Gold.Chemscore.DEInternal>
4.4128

> <Gold.Chemscore.Rot>
3.2656

> <Gold.Chemscore.Internal.Correction>
   9.000000E+99

> <Gold.Chemscore.Hbonds>
donor molecule, donor type, donor heavy atom, donor atom, acceptor molecule, acceptor atom, score
      L1  H    21    43       P1 10175  0.02

> <Gold.Chemscore.Hbond.Weighted>
-1.9126

> <Gold.Chemscore.Metal.Weighted>
-0.0000

> <Gold.Chemscore.Lipo.Weighted>
-13.5156

> <Gold.Chemscore.Internal_Hbond.Weighted>
0.0000

> <Gold.Chemscore.DEClash.Weighted>
0.2516

> <Gold.Chemscore.DEInternal.Weighted>
4.4128

> <Gold.Chemscore.Rot.Weighted>
8.3598

> <Gold.Chemscore.Internal.Correction.Weighted>
   9.000000E+99

> <Gold.Protein.RotatedTorsions>
[ 6907 6896 6895 6894 ] final  -40.75 input  -60.11 | X-H torsion
[ 7974 7965 7964 7962 ] final  -49.25 input  175.53 | X-H torsion
[ 8008 7997 7996 7995 ] final  -93.93 input   59.86 | X-H torsion
[ 10167 10162 10161 10158 ] final   86.48 input  -65.29 | X-H torsion
[ 10718 10713 10712 10709 ] final   36.18 input   66.30 | X-H torsion
[ 10763 10752 10751 10750 ] final   64.66 input  -60.55 | X-H torsion
[ 11005 11000 10999 10996 ] final  118.09 input  -57.11 | X-H torsion

> <Gold.Protein.ActiveResidues>
 VAL166  LYS551  ARG553  GLY616  TRP617  ASP618  TYR619  PRO620  LYS621  CYS622 
 ASP623  PHE694  ASN695  SER759  ASP760  ASP761  ALA762  ILE779  LEU786  VAL792 
 PHE793  MET794  SER795  GLU796  ALA797  LYS798  CYS799  TRP800  GLU811  SER814 

> <Gold.Protein.RotatedAtoms>
  150.9748  134.9114  159.7809 H   0  0  0  0  0  0  0  0  0  0  0  0  # atno 6907 bound_to 6896
  152.5202  134.3491  159.9255 H   0  0  0  0  0  0  0  0  0  0  0  0  # atno 6908 bound_to 6896
  151.3500  133.3888  159.2714 H   0  0  0  0  0  0  0  0  0  0  0  0  # atno 6909 bound_to 6896
  145.9426  140.7648  142.9544 H   0  0  0  0  0  0  0  0  0  0  0  0  # atno 7974 bound_to 7965
  154.7419  140.0494  157.0819 H   0  0  0  0  0  0  0  0  0  0  0  0  # atno 8008 bound_to 7997
  155.0167  140.3142  155.4789 H   0  0  0  0  0  0  0  0  0  0  0  0  # atno 8009 bound_to 7997
  156.2866  140.2174  156.5284 H   0  0  0  0  0  0  0  0  0  0  0  0  # atno 8010 bound_to 7997
  139.8871  144.6407  150.8779 H   0  0  0  0  0  0  0  0  0  0  0  0  # atno 10167 bound_to 10162
  157.3317  130.7501  149.6852 H   0  0  0  0  0  0  0  0  0  0  0  0  # atno 10718 bound_to 10713
  153.0064  135.5385  154.6544 H   0  0  0  0  0  0  0  0  0  0  0  0  # atno 10763 bound_to 10752
  154.5769  135.2846  155.0774 H   0  0  0  0  0  0  0  0  0  0  0  0  # atno 10764 bound_to 10752
  154.1918  135.6499  153.5115 H   0  0  0  0  0  0  0  0  0  0  0  0  # atno 10765 bound_to 10752
  139.9097  134.9617  156.7451 H   0  0  0  0  0  0  0  0  0  0  0  0  # atno 11005 bound_to 11000
  144.6781  140.2305  143.7356 LP  0  0  0  0  0  0  0  0  0  0  0  0  # atno 17320 bound_to 7965
  145.8279  139.2073  143.1900 LP  0  0  0  0  0  0  0  0  0  0  0  0  # atno 17321 bound_to 7965
  140.7734  143.3539  151.1959 LP  0  0  0  0  0  0  0  0  0  0  0  0  # atno 17342 bound_to 10162
  139.7143  143.9326  152.2960 LP  0  0  0  0  0  0  0  0  0  0  0  0  # atno 17343 bound_to 10162
  155.9696  130.4193  150.4370 LP  0  0  0  0  0  0  0  0  0  0  0  0  # atno 17370 bound_to 10713
  157.2403  131.0524  151.2441 LP  0  0  0  0  0  0  0  0  0  0  0  0  # atno 17371 bound_to 10713
  140.6819  133.9467  155.7915 LP  0  0  0  0  0  0  0  0  0  0  0  0  # atno 17394 bound_to 11000
  141.0504  134.0493  157.3790 LP  0  0  0  0  0  0  0  0  0  0  0  0  # atno 17395 bound_to 11000

$$$$
