AV-unprocessed.smi:1205|AV-procd|sdf|5046|dock6
  -GOLD-   22720 4 73D 1   1.00000     0.00000
 Structure written by MMmdl.
 49 50  0  0  0  0  0  0  0  0  2 V2000
  150.8144  142.2536  156.3593 C   0  0  0  0  0  0  0  0  0  0  0  0
  150.1567  141.1193  155.6302 C   0  0  0  0  0  0  0  0  0  0  0  0
  150.5381  139.7458  155.6155 C   0  0  0  0  0  0  0  0  0  0  0  0
  149.5968  139.1812  154.7990 C   0  0  0  0  0  0  0  0  0  0  0  0
  149.4670  137.8842  154.4126 N   0  0  0  0  0  0  0  0  0  0  0  0
  149.8287  136.7709  155.0733 C   0  0  0  0  0  0  0  0  0  0  0  0
  150.3560  136.7367  156.1854 O   0  0  0  0  0  0  0  0  0  0  0  0
  149.5317  135.6709  154.3669 N   0  0  0  0  0  0  0  0  0  0  0  0
  149.7876  134.3027  154.8054 C   0  0  0  0  0  0  0  0  0  0  0  0
  149.1132  133.2490  153.8894 C   0  0  1  0  0  0  0  0  0  0  0  0
  148.7074  131.9720  154.6500 C   0  0  0  0  0  0  0  0  0  0  0  0
  147.9565  133.7940  153.1203 N   0  3  2  0  0  0  0  0  0  0  0  0
  146.8729  134.3341  153.9834 C   0  0  0  0  0  0  0  0  0  0  0  0
  145.8452  135.1105  153.1443 C   0  0  0  0  0  0  0  0  0  0  0  0
  145.2743  134.2335  152.0218 C   0  0  0  0  0  0  0  0  0  0  0  0
  146.4105  133.6515  151.1629 C   0  0  2  0  0  0  0  0  0  0  0  0
  145.8649  132.7459  150.0500 C   0  0  0  0  0  0  0  0  0  0  0  0
  147.4201  132.9025  152.0551 C   0  0  0  0  0  0  0  0  0  0  0  0
  148.7332  140.1640  154.3687 N   0  0  0  0  0  0  0  0  0  0  0  0
  147.5847  140.0621  153.4893 C   0  0  0  0  0  0  0  0  0  0  0  0
  149.0827  141.3610  154.8867 N   0  0  0  0  0  0  0  0  0  0  0  0
  151.6662  141.9057  156.9436 H   0  0  0  0  0  0  0  0  0  0  0  0
  150.1176  142.7368  157.0447 H   0  0  0  0  0  0  0  0  0  0  0  0
  151.1767  143.0100  155.6627 H   0  0  0  0  0  0  0  0  0  0  0  0
  151.3678  139.2773  156.1229 H   0  0  0  0  0  0  0  0  0  0  0  0
  149.0258  137.7470  153.5154 H   0  0  0  0  0  0  0  0  0  0  0  0
  149.1015  135.7876  153.4609 H   0  0  0  0  0  0  0  0  0  0  0  0
  150.8694  134.1696  154.8102 H   0  0  0  0  0  0  0  0  0  0  0  0
  149.4582  134.1913  155.8394 H   0  0  0  0  0  0  0  0  0  0  0  0
  149.8485  132.9268  153.1508 H   0  0  0  0  0  0  0  0  0  0  0  0
  149.5794  131.4639  155.0629 H   0  0  0  0  0  0  0  0  0  0  0  0
  148.2086  131.2632  153.9883 H   0  0  0  0  0  0  0  0  0  0  0  0
  148.0342  132.1860  155.4798 H   0  0  0  0  0  0  0  0  0  0  0  0
  146.3798  133.5207  154.5168 H   0  0  0  0  0  0  0  0  0  0  0  0
  147.2918  135.0010  154.7381 H   0  0  0  0  0  0  0  0  0  0  0  0
  145.0378  135.4704  153.7828 H   0  0  0  0  0  0  0  0  0  0  0  0
  146.3169  135.9952  152.7142 H   0  0  0  0  0  0  0  0  0  0  0  0
  144.6832  133.4249  152.4544 H   0  0  0  0  0  0  0  0  0  0  0  0
  144.5940  134.8202  151.4033 H   0  0  0  0  0  0  0  0  0  0  0  0
  146.9333  134.4813  150.6844 H   0  0  0  0  0  0  0  0  0  0  0  0
  145.3303  131.8891  150.4615 H   0  0  0  0  0  0  0  0  0  0  0  0
  146.6705  132.3645  149.4220 H   0  0  0  0  0  0  0  0  0  0  0  0
  145.1746  133.2900  149.4046 H   0  0  0  0  0  0  0  0  0  0  0  0
  148.2340  132.5272  151.4354 H   0  0  0  0  0  0  0  0  0  0  0  0
  146.9364  132.0343  152.5047 H   0  0  0  0  0  0  0  0  0  0  0  0
  146.9507  139.2334  153.8058 H   0  0  0  0  0  0  0  0  0  0  0  0
  147.9217  139.8844  152.4679 H   0  0  0  0  0  0  0  0  0  0  0  0
  146.9988  140.9819  153.5154 H   0  0  0  0  0  0  0  0  0  0  0  0
  148.3273  134.6002  152.6380 H   0  0  0  0  0  0  0  0  0  0  0  0
  1  2  1  0  0  0  0
  1 22  1  0  0  0  0
  1 23  1  0  0  0  0
  1 24  1  0  0  0  0
  2 21  2  0  0  0  0
  2  3  1  0  0  0  0
  3  4  2  0  0  0  0
  3 25  1  0  0  0  0
  4  5  1  0  0  0  0
  4 19  1  0  0  0  0
  5  6  1  0  0  0  0
  5 26  1  0  0  0  0
  6  7  2  0  0  0  0
  6  8  1  0  0  0  0
  8  9  1  0  0  0  0
  8 27  1  0  0  0  0
  9 10  1  0  0  0  0
  9 28  1  0  0  0  0
  9 29  1  0  0  0  0
 10 11  1  0  0  0  0
 10 12  1  0  0  0  0
 10 30  1  0  0  0  0
 11 31  1  0  0  0  0
 11 32  1  0  0  0  0
 11 33  1  0  0  0  0
 12 18  1  0  0  0  0
 12 13  1  0  0  0  0
 12 49  1  0  0  0  0
 13 14  1  0  0  0  0
 13 34  1  0  0  0  0
 13 35  1  0  0  0  0
 14 15  1  0  0  0  0
 14 36  1  0  0  0  0
 14 37  1  0  0  0  0
 15 16  1  0  0  0  0
 15 38  1  0  0  0  0
 15 39  1  0  0  0  0
 16 17  1  0  0  0  0
 16 18  1  0  0  0  0
 16 40  1  0  0  0  0
 17 41  1  0  0  0  0
 17 42  1  0  0  0  0
 17 43  1  0  0  0  0
 18 44  1  0  0  0  0
 18 45  1  0  0  0  0
 19 20  1  0  0  0  0
 19 21  1  0  0  0  0
 20 46  1  0  0  0  0
 20 47  1  0  0  0  0
 20 48  1  0  0  0  0
M  CHG  1  12   1
M  END
> <s_m_source_file>
AV-unprocessed.smi

> <i_m_source_file_index>
1205

> <i_lp_mmshare_version>
43012

> <i_f3d_flags>
0

> <s_epik_input>
W0NIM11jMVtjSF1jKG4objEpW0NIM10pW05IXUMoPU8pW05IXVtDSDJdW0NASF0oW0NIM10pTjJbQ0gyXVtDSDJdW0NIMl1bQ0BASF0oW0NIM10pW0NIMl0y

> <s_epik_cmdline>
J2VwaWtfcHl0aG9uJywgJy1waCcsICc3LjAnLCAnLXRuJywgJzgnLCAnLW1hJywgJzIwMCcsICctbWV0YWxfYmluZGluZycsICctaW1hZScsICc8aW5maWxlLm1hZT4nLCAnLW9tYWUnLCAnPG91dGZpbGUubWFlPic=

> <r_lp_tautomer_probability>
1

> <r_epik_Ionization_Penalty>
0.0020309

> <r_epik_Ionization_Penalty_Charging>
0.00195276

> <r_epik_Ionization_Penalty_Neutral>
7.81448e-05

> <r_epik_State_Penalty>
0.00133177

> <r_epik_Charging_Adjusted_Penalty>
0.00328452

> <i_epik_Tot_Q>
1

> <i_epik_Tot_abs_Q>
1

> <r_epik_Metal_State_Penalty>
-0

> <b_epik_Metal_Only>
0

> <s_lp_Force_Field>
OPLS_2005

> <r_lp_Energy>
21.2667

> <b_lp_Chiralities_Consistent>
1

> <s_lp_Variant>
AV-unprocessed.smi:1205-8

> <Gold.Version>
5.8.1

> <Gold.Id.Protein>
6NUR|6NUR_protein|mol2

> <Gold.PLP.Fitness>
43.7219

> <Gold.PLP.PLP>
-34.5826

> <Gold.PLP.part.hbond>
-3.4013

> <Gold.PLP.part.metal>
0.0000

> <Gold.PLP.part.buried>
-2.2248

> <Gold.PLP.part.nonpolar>
-29.8744

> <Gold.PLP.part.repulsive>
0.2236

> <Gold.PLP.ligand.clash>
0.0000

> <Gold.PLP.ligand.torsion>
0.7203

> <Gold.PLP.Chemscore.Hbond>
3.4867

> <Gold.PLP.Chemscore.CHOScore>
0.0000

> <Gold.PLP.Chemscore.Metal>
0.0000

> <Gold.Chemscore.Hbonds>
donor molecule, donor type, donor heavy atom, donor atom, acceptor molecule, acceptor atom, score
      L1  H     5    26       P1  7948  0.41
      L1  H     8    27       P1  7948  1.00
      L1  H    12    49       P1  7948  2.00

> <Gold.PLP.Chemscore.Internal.Correction>
0.1197

> <Gold.Rescore>
     Score         DG    S(hbond)    S(metal)    S(lipo)     H(rot)  DE(clash)    DE(int)     intcor
     15.29     -16.72       1.97        0.00      71.95       1.47       0.04       1.39       ----

> <Gold.Chemscore.Fitness>
15.2894

> <Gold.Chemscore.DG>
-16.7226

> <Gold.Chemscore.ZeroCoef>
-5.4800

> <Gold.Chemscore.Hbond>
1.9693

> <Gold.Chemscore.Metal>
0.0000

> <Gold.Chemscore.Lipo>
71.9457

> <Gold.Chemscore.Internal_Hbond>
0.0000

> <Gold.Chemscore.DEClash>
0.0392

> <Gold.Chemscore.DEInternal>
1.3940

> <Gold.Chemscore.Rot>
1.4658

> <Gold.Chemscore.Internal.Correction>
   9.000000E+99

> <Gold.Chemscore.Hbonds>
donor molecule, donor type, donor heavy atom, donor atom, acceptor molecule, acceptor atom, score
      L1  H     5    26       P1  7948  0.40
      L1  H     8    27       P1  7948  0.77
      L1  H    12    49       P1  7948  0.30

> <Gold.Chemscore.Hbond.Weighted>
-6.5776

> <Gold.Chemscore.Metal.Weighted>
-0.0000

> <Gold.Chemscore.Lipo.Weighted>
-8.4176

> <Gold.Chemscore.Internal_Hbond.Weighted>
0.0000

> <Gold.Chemscore.DEClash.Weighted>
0.0392

> <Gold.Chemscore.DEInternal.Weighted>
1.3940

> <Gold.Chemscore.Rot.Weighted>
3.7526

> <Gold.Chemscore.Internal.Correction.Weighted>
   9.000000E+99

> <Gold.Protein.RotatedTorsions>
[ 6907 6896 6895 6894 ] final  167.44 input  -60.11 | X-H torsion
[ 7974 7965 7964 7962 ] final  -24.74 input  175.53 | X-H torsion
[ 8008 7997 7996 7995 ] final   34.51 input   59.86 | X-H torsion
[ 10167 10162 10161 10158 ] final  -27.05 input  -65.29 | X-H torsion
[ 10718 10713 10712 10709 ] final -103.96 input   66.30 | X-H torsion
[ 10763 10752 10751 10750 ] final  100.91 input  -60.55 | X-H torsion
[ 11005 11000 10999 10996 ] final -134.38 input  -57.11 | X-H torsion

> <Gold.Protein.ActiveResidues>
 VAL166  LYS551  ARG553  GLY616  TRP617  ASP618  TYR619  PRO620  LYS621  CYS622 
 ASP623  PHE694  ASN695  SER759  ASP760  ASP761  ALA762  ILE779  LEU786  VAL792 
 PHE793  MET794  SER795  GLU796  ALA797  LYS798  CYS799  TRP800  GLU811  SER814 

> <Gold.Protein.RotatedAtoms>
  151.8633  133.3461  159.3710 H   0  0  0  0  0  0  0  0  0  0  0  0  # atno 6907 bound_to 6896
  150.7173  134.5185  159.5651 H   0  0  0  0  0  0  0  0  0  0  0  0  # atno 6908 bound_to 6896
  152.2703  134.7940  160.0466 H   0  0  0  0  0  0  0  0  0  0  0  0  # atno 6909 bound_to 6896
  146.1535  140.4793  142.8601 H   0  0  0  0  0  0  0  0  0  0  0  0  # atno 7974 bound_to 7965
  155.1561  140.3279  155.4421 H   0  0  0  0  0  0  0  0  0  0  0  0  # atno 8008 bound_to 7997
  156.2558  140.1968  156.6621 H   0  0  0  0  0  0  0  0  0  0  0  0  # atno 8009 bound_to 7997
  154.6438  140.0567  156.9863 H   0  0  0  0  0  0  0  0  0  0  0  0  # atno 8010 bound_to 7997
  140.7279  143.4126  151.1080 H   0  0  0  0  0  0  0  0  0  0  0  0  # atno 10167 bound_to 10162
  156.0285  130.5492  150.7328 H   0  0  0  0  0  0  0  0  0  0  0  0  # atno 10718 bound_to 10713
  153.3199  135.4063  155.1408 H   0  0  0  0  0  0  0  0  0  0  0  0  # atno 10763 bound_to 10752
  154.8598  135.3585  154.5610 H   0  0  0  0  0  0  0  0  0  0  0  0  # atno 10764 bound_to 10752
  153.6043  135.7070  153.5431 H   0  0  0  0  0  0  0  0  0  0  0  0  # atno 10765 bound_to 10752
  140.8995  134.1709  157.4471 H   0  0  0  0  0  0  0  0  0  0  0  0  # atno 11005 bound_to 11000
  144.7934  140.6076  143.6526 LP  0  0  0  0  0  0  0  0  0  0  0  0  # atno 17320 bound_to 7965
  145.4765  139.1499  143.3785 LP  0  0  0  0  0  0  0  0  0  0  0  0  # atno 17321 bound_to 7965
  139.7762  143.8422  152.3129 LP  0  0  0  0  0  0  0  0  0  0  0  0  # atno 17342 bound_to 10162
  139.8357  144.7233  150.9393 LP  0  0  0  0  0  0  0  0  0  0  0  0  # atno 17343 bound_to 10162
  157.4916  131.0911  151.0420 LP  0  0  0  0  0  0  0  0  0  0  0  0  # atno 17370 bound_to 10713
  157.0825  130.5909  149.5423 LP  0  0  0  0  0  0  0  0  0  0  0  0  # atno 17371 bound_to 10713
  139.8740  134.9892  156.5446 LP  0  0  0  0  0  0  0  0  0  0  0  0  # atno 17394 bound_to 11000
  140.8248  133.8325  155.8929 LP  0  0  0  0  0  0  0  0  0  0  0  0  # atno 17395 bound_to 11000

$$$$
