AV-unprocessed.smi:257|AV-procd|sdf|1963|dock6
  -GOLD-   2262021113D 1   1.00000     0.00000
 Structure written by MMmdl.
 50 53  0  0  0  0  0  0  0  0  1 V2000
  146.2198  133.0866  151.3421 C   0  0  0  0  0  0  0  0  0  0  0  0
  147.1957  132.1690  151.9090 N   0  0  0  0  0  0  0  0  0  0  0  0
  147.4701  132.0730  153.2176 C   0  0  0  0  0  0  0  0  0  0  0  0
  146.9051  132.7551  154.0740 O   0  0  0  0  0  0  0  0  0  0  0  0
  148.5417  131.0393  153.6099 C   0  0  2  0  0  0  0  0  0  0  0  0
  147.9958  129.6023  153.5383 C   0  0  0  0  0  0  0  0  0  0  0  0
  147.4539  129.3288  154.9401 C   0  0  0  0  0  0  0  0  0  0  0  0
  148.4230  130.0952  155.8391 C   0  0  0  0  0  0  0  0  0  0  0  0
  148.9528  131.1720  155.0081 N   0  0  0  0  0  0  0  0  0  0  0  0
  149.8276  132.1000  155.4873 C   0  0  0  0  0  0  0  0  0  0  0  0
  150.8994  131.6521  156.1941 N   0  0  0  0  0  0  0  0  0  0  0  0
  151.7948  132.5054  156.6962 C   0  0  0  0  0  0  0  0  0  0  0  0
  151.8154  133.8348  156.6111 N   0  0  0  0  0  0  0  0  0  0  0  0
  150.7491  134.3004  155.9017 C   0  0  0  0  0  0  0  0  0  0  0  0
  149.7162  133.5140  155.3104 C   0  0  0  0  0  0  0  0  0  0  0  0
  148.8084  134.3559  154.6751 N   0  0  0  0  0  0  0  0  0  0  0  0
  149.2725  135.5570  154.8796 C   0  0  0  0  0  0  0  0  0  0  0  0
  150.4420  135.6160  155.6000 N   0  0  0  0  0  0  0  0  0  0  0  0
  151.1757  136.8178  155.9703 C   0  0  0  0  0  0  0  0  0  0  0  0
  151.6234  137.6860  154.7624 C   0  0  0  0  0  0  0  0  0  0  0  0
  152.1884  136.8170  153.7976 O   0  0  0  0  0  0  0  0  0  0  0  0
  150.4281  138.3941  154.0937 C   0  0  0  0  0  0  0  0  0  0  0  0
  149.9319  139.5864  154.9321 C   0  0  0  0  0  0  0  0  0  0  0  0
  151.0018  140.4954  155.1672 O   0  0  0  0  0  0  0  0  0  0  0  0
  152.0728  139.9171  155.9051 C   0  0  0  0  0  0  0  0  0  0  0  0
  152.6865  138.7501  155.1111 C   0  0  0  0  0  0  0  0  0  0  0  0
  146.1732  132.9579  150.2609 H   0  0  0  0  0  0  0  0  0  0  0  0
  146.4947  134.1213  151.5511 H   0  0  0  0  0  0  0  0  0  0  0  0
  145.2264  132.9001  151.7522 H   0  0  0  0  0  0  0  0  0  0  0  0
  147.7006  131.5751  151.2671 H   0  0  0  0  0  0  0  0  0  0  0  0
  149.4007  131.1213  152.9433 H   0  0  0  0  0  0  0  0  0  0  0  0
  147.2401  129.4594  152.7644 H   0  0  0  0  0  0  0  0  0  0  0  0
  148.8138  128.9131  153.3237 H   0  0  0  0  0  0  0  0  0  0  0  0
  146.4501  129.7452  155.0350 H   0  0  0  0  0  0  0  0  0  0  0  0
  147.4023  128.2666  155.1796 H   0  0  0  0  0  0  0  0  0  0  0  0
  147.9176  130.4745  156.7282 H   0  0  0  0  0  0  0  0  0  0  0  0
  149.2432  129.4500  156.1567 H   0  0  0  0  0  0  0  0  0  0  0  0
  152.6108  132.0585  157.2445 H   0  0  0  0  0  0  0  0  0  0  0  0
  148.7740  136.4386  154.5036 H   0  0  0  0  0  0  0  0  0  0  0  0
  150.5419  137.4039  156.6373 H   0  0  0  0  0  0  0  0  0  0  0  0
  152.0342  136.5153  156.5694 H   0  0  0  0  0  0  0  0  0  0  0  0
  151.5989  136.7624  153.0608 H   0  0  0  0  0  0  0  0  0  0  0  0
  150.7250  138.7695  153.1130 H   0  0  0  0  0  0  0  0  0  0  0  0
  149.6131  137.6909  153.9170 H   0  0  0  0  0  0  0  0  0  0  0  0
  149.1403  140.1116  154.3976 H   0  0  0  0  0  0  0  0  0  0  0  0
  149.5032  139.2568  155.8789 H   0  0  0  0  0  0  0  0  0  0  0  0
  152.8278  140.6826  156.0838 H   0  0  0  0  0  0  0  0  0  0  0  0
  151.7177  139.5921  156.8830 H   0  0  0  0  0  0  0  0  0  0  0  0
  153.5227  138.3150  155.6585 H   0  0  0  0  0  0  0  0  0  0  0  0
  153.1121  139.1550  154.1916 H   0  0  0  0  0  0  0  0  0  0  0  0
  1  2  1  0  0  0  0
  1 27  1  0  0  0  0
  1 28  1  0  0  0  0
  1 29  1  0  0  0  0
  2  3  1  0  0  0  0
  2 30  1  0  0  0  0
  3  4  2  0  0  0  0
  3  5  1  0  0  0  0
  5  9  1  0  0  0  0
  5  6  1  0  0  0  0
  5 31  1  0  0  0  0
  6  7  1  0  0  0  0
  6 32  1  0  0  0  0
  6 33  1  0  0  0  0
  7  8  1  0  0  0  0
  7 34  1  0  0  0  0
  7 35  1  0  0  0  0
  8  9  1  0  0  0  0
  8 36  1  0  0  0  0
  8 37  1  0  0  0  0
  9 10  1  0  0  0  0
 10 15  1  0  0  0  0
 10 11  2  0  0  0  0
 11 12  1  0  0  0  0
 12 13  2  0  0  0  0
 12 38  1  0  0  0  0
 13 14  1  0  0  0  0
 14 18  1  0  0  0  0
 14 15  2  0  0  0  0
 15 16  1  0  0  0  0
 16 17  2  0  0  0  0
 17 18  1  0  0  0  0
 17 39  1  0  0  0  0
 18 19  1  0  0  0  0
 19 20  1  0  0  0  0
 19 40  1  0  0  0  0
 19 41  1  0  0  0  0
 20 26  1  0  0  0  0
 20 21  1  0  0  0  0
 20 22  1  0  0  0  0
 21 42  1  0  0  0  0
 22 23  1  0  0  0  0
 22 43  1  0  0  0  0
 22 44  1  0  0  0  0
 23 24  1  0  0  0  0
 23 45  1  0  0  0  0
 23 46  1  0  0  0  0
 24 25  1  0  0  0  0
 25 26  1  0  0  0  0
 25 47  1  0  0  0  0
 25 48  1  0  0  0  0
 26 49  1  0  0  0  0
 26 50  1  0  0  0  0
M  END
> <s_m_source_file>
AV-unprocessed.smi

> <i_m_source_file_index>
257

> <i_lp_mmshare_version>
43012

> <i_f3d_flags>
0

> <s_epik_input>
W0NIM11bTkhdQyg9TylbQ0BASF0xW0NIMl1bQ0gyXVtDSDJdTjFjKG5bY0hdbjIpYyhjMjMpbltjSF1uM1tDSDJdQzQoW09IXSlbQ0gyXVtDSDJdT1tDSDJdW0NIMl00

> <s_epik_cmdline>
J2VwaWtfcHl0aG9uJywgJy1waCcsICc3LjAnLCAnLXRuJywgJzgnLCAnLW1hJywgJzIwMCcsICctbWV0YWxfYmluZGluZycsICctaW1hZScsICc8aW5maWxlLm1hZT4nLCAnLW9tYWUnLCAnPG91dGZpbGUubWFlPic=

> <r_lp_tautomer_probability>
1

> <r_epik_Ionization_Penalty>
0.000951012

> <r_epik_Ionization_Penalty_Charging>
0

> <r_epik_Ionization_Penalty_Neutral>
0.000951012

> <r_epik_State_Penalty>
0.000495984

> <r_epik_Charging_Adjusted_Penalty>
0.000495984

> <i_epik_Tot_Q>
0

> <i_epik_Tot_abs_Q>
0

> <r_epik_Metal_State_Penalty>
-0

> <b_epik_Metal_Only>
0

> <s_lp_Force_Field>
OPLS_2005

> <r_lp_Energy>
35.0404

> <b_lp_Chiralities_Consistent>
1

> <s_lp_Variant>
AV-unprocessed.smi:257-1

> <Gold.Version>
5.8.1

> <Gold.Id.Protein>
6NUR|6NUR_protein|mol2

> <Gold.PLP.Fitness>
50.7696

> <Gold.PLP.PLP>
-40.1488

> <Gold.PLP.part.hbond>
-4.0788

> <Gold.PLP.part.metal>
0.0000

> <Gold.PLP.part.buried>
-4.5984

> <Gold.PLP.part.nonpolar>
-32.5466

> <Gold.PLP.part.repulsive>
0.2932

> <Gold.PLP.ligand.clash>
0.0000

> <Gold.PLP.ligand.torsion>
1.3459

> <Gold.PLP.Chemscore.Hbond>
3.9353

> <Gold.PLP.Chemscore.CHOScore>
0.4737

> <Gold.PLP.Chemscore.Metal>
0.0000

> <Gold.Chemscore.Hbonds>
donor molecule, donor type, donor heavy atom, donor atom, acceptor molecule, acceptor atom, score
      L1  H     2    30       P1 10747  1.00
      L1  H    21    42       P1  7949  0.96
      P1  H  7989  7998       L1    24  0.99
      P1  H 10752 10765       L1    21  0.76
      L1  C    17    39       P1  7948  0.34

> <Gold.PLP.Chemscore.Internal.Correction>
0.0857

> <Gold.Rescore>
     Score         DG    S(hbond)    S(metal)    S(lipo)     H(rot)  DE(clash)    DE(int)     intcor
     13.23     -18.76       3.25        0.00      70.71       2.29       1.45       4.08       ----

> <Gold.Chemscore.Fitness>
13.2320

> <Gold.Chemscore.DG>
-18.7576

> <Gold.Chemscore.ZeroCoef>
-5.4800

> <Gold.Chemscore.Hbond>
3.2526

> <Gold.Chemscore.Metal>
0.0000

> <Gold.Chemscore.Lipo>
70.7135

> <Gold.Chemscore.Internal_Hbond>
0.0000

> <Gold.Chemscore.DEClash>
1.4470

> <Gold.Chemscore.DEInternal>
4.0786

> <Gold.Chemscore.Rot>
2.2889

> <Gold.Chemscore.Internal.Correction>
   9.000000E+99

> <Gold.Chemscore.Hbonds>
donor molecule, donor type, donor heavy atom, donor atom, acceptor molecule, acceptor atom, score
      L1  H     2    30       P1 10747  1.00
      L1  H    21    42       P1  7949  0.88
      P1  H  7989  7998       L1    24  0.28
      P1  H 10752 10765       L1    21  0.70

> <Gold.Chemscore.Hbond.Weighted>
-10.8637

> <Gold.Chemscore.Metal.Weighted>
-0.0000

> <Gold.Chemscore.Lipo.Weighted>
-8.2735

> <Gold.Chemscore.Internal_Hbond.Weighted>
0.0000

> <Gold.Chemscore.DEClash.Weighted>
1.4470

> <Gold.Chemscore.DEInternal.Weighted>
4.0786

> <Gold.Chemscore.Rot.Weighted>
5.8596

> <Gold.Chemscore.Internal.Correction.Weighted>
   9.000000E+99

> <Gold.Protein.RotatedTorsions>
[ 6907 6896 6895 6894 ] final  129.93 input  -60.11 | X-H torsion
[ 7974 7965 7964 7962 ] final   60.90 input  175.53 | X-H torsion
[ 8008 7997 7996 7995 ] final   45.80 input   59.86 | X-H torsion
[ 10167 10162 10161 10158 ] final   -1.13 input  -65.29 | X-H torsion
[ 10718 10713 10712 10709 ] final  104.54 input   66.30 | X-H torsion
[ 10763 10752 10751 10750 ] final  159.47 input  -60.55 | X-H torsion
[ 11005 11000 10999 10996 ] final -122.74 input  -57.11 | X-H torsion

> <Gold.Protein.ActiveResidues>
 VAL166  LYS551  ARG553  GLY616  TRP617  ASP618  TYR619  PRO620  LYS621  CYS622 
 ASP623  PHE694  ASN695  SER759  ASP760  ASP761  ALA762  ILE779  LEU786  VAL792 
 PHE793  MET794  SER795  GLU796  ALA797  LYS798  CYS799  TRP800  GLU811  SER814 

> <Gold.Protein.RotatedAtoms>
  152.3576  133.6256  159.5990 H   0  0  0  0  0  0  0  0  0  0  0  0  # atno 6907 bound_to 6896
  150.7579  133.9475  159.3484 H   0  0  0  0  0  0  0  0  0  0  0  0  # atno 6908 bound_to 6896
  151.7318  135.0874  160.0352 H   0  0  0  0  0  0  0  0  0  0  0  0  # atno 6909 bound_to 6896
  145.8908  139.3509  143.0650 H   0  0  0  0  0  0  0  0  0  0  0  0  # atno 7974 bound_to 7965
  155.3420  140.3408  155.4239 H   0  0  0  0  0  0  0  0  0  0  0  0  # atno 8008 bound_to 7997
  156.1808  140.1663  156.8313 H   0  0  0  0  0  0  0  0  0  0  0  0  # atno 8009 bound_to 7997
  154.5332  140.0741  156.8364 H   0  0  0  0  0  0  0  0  0  0  0  0  # atno 8010 bound_to 7997
  140.6797  143.6812  150.8104 H   0  0  0  0  0  0  0  0  0  0  0  0  # atno 10167 bound_to 10162
  157.6737  131.0806  150.5721 H   0  0  0  0  0  0  0  0  0  0  0  0  # atno 10718 bound_to 10713
  154.2323  135.2778  155.2885 H   0  0  0  0  0  0  0  0  0  0  0  0  # atno 10763 bound_to 10752
  154.5614  135.5646  153.7014 H   0  0  0  0  0  0  0  0  0  0  0  0  # atno 10764 bound_to 10752
  153.0017  135.6299  154.2465 H   0  0  0  0  0  0  0  0  0  0  0  0  # atno 10765 bound_to 10752
  140.9972  134.0455  157.3582 H   0  0  0  0  0  0  0  0  0  0  0  0  # atno 11005 bound_to 11000
  145.8911  140.9303  143.0552 LP  0  0  0  0  0  0  0  0  0  0  0  0  # atno 17320 bound_to 7965
  144.6730  140.0906  143.7465 LP  0  0  0  0  0  0  0  0  0  0  0  0  # atno 17321 bound_to 7965
  140.0510  143.5250  152.2673 LP  0  0  0  0  0  0  0  0  0  0  0  0  # atno 17342 bound_to 10162
  139.6111  144.7609  151.2949 LP  0  0  0  0  0  0  0  0  0  0  0  0  # atno 17343 bound_to 10162
  156.6023  130.4357  149.5892 LP  0  0  0  0  0  0  0  0  0  0  0  0  # atno 17370 bound_to 10713
  156.2497  130.6899  151.1633 LP  0  0  0  0  0  0  0  0  0  0  0  0  # atno 17371 bound_to 10713
  139.9020  135.0168  156.7315 LP  0  0  0  0  0  0  0  0  0  0  0  0  # atno 17394 bound_to 11000
  140.6947  133.9359  155.7987 LP  0  0  0  0  0  0  0  0  0  0  0  0  # atno 17395 bound_to 11000

$$$$
