AV-unprocessed.smi:1533|AV-procd|sdf|6162|dock4
  -GOLD-   22720 6313D 1   1.00000     0.00000
 Structure written by MMmdl.
 37 39  0  0  0  0  0  0  0  0  1 V2000
  147.0372  141.0506  153.6009 C   0  0  0  0  0  0  0  0  0  0  0  0
  148.3995  140.7232  154.1085 C   0  0  0  0  0  0  0  0  0  0  0  0
  149.3137  141.6671  154.2955 N   0  0  0  0  0  0  0  0  0  0  0  0
  150.4350  140.9485  154.7350 O   0  0  0  0  0  0  0  0  0  0  0  0
  150.0504  139.6503  154.7720 C   0  0  0  0  0  0  0  0  0  0  0  0
  151.0656  138.6057  155.1080 C   0  0  0  0  0  0  0  0  0  0  0  0
  151.6996  138.7759  156.5032 C   0  0  0  0  0  0  0  0  0  0  0  0
  151.3838  140.0694  157.1065 N   0  0  0  0  0  0  0  0  0  0  0  0
  152.1226  140.6976  158.0353 C   0  0  0  0  0  0  0  0  0  0  0  0
  153.2007  140.2626  158.4411 O   0  0  0  0  0  0  0  0  0  0  0  0
  151.5323  142.0007  158.6018 C   0  0  2  0  0  0  0  0  0  0  0  0
  151.4157  143.1429  157.5606 C   0  0  0  0  0  0  0  0  0  0  0  0
  152.2233  144.2886  158.2033 C   0  0  1  0  0  0  0  0  0  0  0  0
  151.4601  144.8258  159.4288 C   0  0  0  0  0  0  0  0  0  0  0  0
  151.6315  143.6922  160.4583 C   0  0  0  0  0  0  0  0  0  0  0  0
  152.4458  142.6459  159.6741 C   0  0  2  0  0  0  0  0  0  0  0  0
  153.3770  143.5411  158.8588 C   0  0  0  0  0  0  0  0  0  0  0  0
  148.7910  139.4507  154.3894 N   0  0  0  0  0  0  0  0  0  0  0  0
  146.8359  142.1190  153.6860 H   0  0  0  0  0  0  0  0  0  0  0  0
  146.2809  140.5116  154.1717 H   0  0  0  0  0  0  0  0  0  0  0  0
  146.9505  140.7648  152.5524 H   0  0  0  0  0  0  0  0  0  0  0  0
  150.5923  137.6261  155.0353 H   0  0  0  0  0  0  0  0  0  0  0  0
  151.8451  138.6268  154.3456 H   0  0  0  0  0  0  0  0  0  0  0  0
  151.3834  137.9616  157.1573 H   0  0  0  0  0  0  0  0  0  0  0  0
  152.7835  138.6947  156.4228 H   0  0  0  0  0  0  0  0  0  0  0  0
  150.5125  140.4983  156.8303 H   0  0  0  0  0  0  0  0  0  0  0  0
  150.5510  141.7809  159.0260 H   0  0  0  0  0  0  0  0  0  0  0  0
  151.8433  142.8744  156.5934 H   0  0  0  0  0  0  0  0  0  0  0  0
  150.3779  143.4283  157.3840 H   0  0  0  0  0  0  0  0  0  0  0  0
  152.5184  145.0653  157.4973 H   0  0  0  0  0  0  0  0  0  0  0  0
  151.9127  145.7478  159.7960 H   0  0  0  0  0  0  0  0  0  0  0  0
  150.4125  145.0322  159.2064 H   0  0  0  0  0  0  0  0  0  0  0  0
  152.1895  144.0448  161.3266 H   0  0  0  0  0  0  0  0  0  0  0  0
  150.6772  143.3008  160.8126 H   0  0  0  0  0  0  0  0  0  0  0  0
  152.9557  141.9278  160.3172 H   0  0  0  0  0  0  0  0  0  0  0  0
  154.0067  143.0044  158.1488 H   0  0  0  0  0  0  0  0  0  0  0  0
  154.0110  144.1802  159.4763 H   0  0  0  0  0  0  0  0  0  0  0  0
  1  2  1  0  0  0  0
  1 19  1  0  0  0  0
  1 20  1  0  0  0  0
  1 21  1  0  0  0  0
  2 18  1  0  0  0  0
  2  3  2  0  0  0  0
  3  4  1  0  0  0  0
  4  5  1  0  0  0  0
  5  6  1  0  0  0  0
  5 18  2  0  0  0  0
  6  7  1  0  0  0  0
  6 22  1  0  0  0  0
  6 23  1  0  0  0  0
  7  8  1  0  0  0  0
  7 24  1  0  0  0  0
  7 25  1  0  0  0  0
  8  9  1  0  0  0  0
  8 26  1  0  0  0  0
  9 10  2  0  0  0  0
  9 11  1  0  0  0  0
 11 16  1  0  0  0  0
 11 12  1  0  0  0  0
 11 27  1  0  0  0  0
 12 13  1  0  0  0  0
 12 28  1  0  0  0  0
 12 29  1  0  0  0  0
 13 17  1  0  0  0  0
 13 14  1  0  0  0  0
 13 30  1  0  0  0  0
 14 15  1  0  0  0  0
 14 31  1  0  0  0  0
 14 32  1  0  0  0  0
 15 16  1  0  0  0  0
 15 33  1  0  0  0  0
 15 34  1  0  0  0  0
 16 17  1  0  0  0  0
 16 35  1  0  0  0  0
 17 36  1  0  0  0  0
 17 37  1  0  0  0  0
M  END
> <s_m_source_file>
AV-unprocessed.smi

> <i_m_source_file_index>
1533

> <i_lp_mmshare_version>
43012

> <i_f3d_flags>
0

> <s_epik_input>
W0NIM11jMW5vYyhuMSlbQ0gyXVtDSDJdW05IXUMoPU8pW0NASF0oW0NIMl1bQ0BASF0yMylbQ0BASF0oW0NIMl0zKVtDSDJdW0NIMl0y

> <s_epik_cmdline>
J2VwaWtfcHl0aG9uJywgJy1waCcsICc3LjAnLCAnLXRuJywgJzgnLCAnLW1hJywgJzIwMCcsICctbWV0YWxfYmluZGluZycsICctaW1hZScsICc8aW5maWxlLm1hZT4nLCAnLW9tYWUnLCAnPG91dGZpbGUubWFlPic=

> <r_lp_tautomer_probability>
1

> <r_epik_Ionization_Penalty>
1.90116e-08

> <r_epik_Ionization_Penalty_Charging>
0

> <r_epik_Ionization_Penalty_Neutral>
1.90116e-08

> <r_epik_State_Penalty>
-0

> <r_epik_Charging_Adjusted_Penalty>
0

> <i_epik_Tot_Q>
0

> <i_epik_Tot_abs_Q>
0

> <r_epik_Metal_State_Penalty>
-0

> <b_epik_Metal_Only>
0

> <s_lp_Force_Field>
OPLS_2005

> <r_lp_Energy>
43.4718

> <b_lp_Chiralities_Consistent>
1

> <s_lp_Variant>
AV-unprocessed.smi:1533-1

> <Gold.Version>
5.8.1

> <Gold.Id.Protein>
6NUR|6NUR_protein|mol2

> <Gold.PLP.Fitness>
43.1688

> <Gold.PLP.PLP>
-38.9661

> <Gold.PLP.part.hbond>
-3.8887

> <Gold.PLP.part.metal>
0.0000

> <Gold.PLP.part.buried>
-2.2346

> <Gold.PLP.part.nonpolar>
-32.4949

> <Gold.PLP.part.repulsive>
0.5296

> <Gold.PLP.ligand.clash>
1.0502

> <Gold.PLP.ligand.torsion>
0.5568

> <Gold.PLP.Chemscore.Hbond>
2.1016

> <Gold.PLP.Chemscore.CHOScore>
0.0000

> <Gold.PLP.Chemscore.Metal>
0.0000

> <Gold.Chemscore.Hbonds>
donor molecule, donor type, donor heavy atom, donor atom, acceptor molecule, acceptor atom, score
      P1  H  7989  7998       L1     4  0.72
      P1  H  7997  8008       L1    10  0.93
      P1  H  8011  8017       L1     3  0.37

> <Gold.PLP.Chemscore.Internal.Correction>
0.0618

> <Gold.Rescore>
     Score         DG    S(hbond)    S(metal)    S(lipo)     H(rot)  DE(clash)    DE(int)     intcor
     17.21     -17.92       1.63        0.00     100.12       1.85       0.12       0.59       ----

> <Gold.Chemscore.Fitness>
17.2105

> <Gold.Chemscore.DG>
-17.9172

> <Gold.Chemscore.ZeroCoef>
-5.4800

> <Gold.Chemscore.Hbond>
1.6338

> <Gold.Chemscore.Metal>
0.0000

> <Gold.Chemscore.Lipo>
100.1174

> <Gold.Chemscore.Internal_Hbond>
0.0000

> <Gold.Chemscore.DEClash>
0.1196

> <Gold.Chemscore.DEInternal>
0.5870

> <Gold.Chemscore.Rot>
1.8490

> <Gold.Chemscore.Internal.Correction>
   9.000000E+99

> <Gold.Chemscore.Hbonds>
donor molecule, donor type, donor heavy atom, donor atom, acceptor molecule, acceptor atom, score
      P1  H  7989  7998       L1     4  0.16
      P1  H  7997  8008       L1    10  0.76
      P1  H  8011  8017       L1     3  0.13

> <Gold.Chemscore.Hbond.Weighted>
-5.4568

> <Gold.Chemscore.Metal.Weighted>
-0.0000

> <Gold.Chemscore.Lipo.Weighted>
-11.7137

> <Gold.Chemscore.Internal_Hbond.Weighted>
0.0000

> <Gold.Chemscore.DEClash.Weighted>
0.1196

> <Gold.Chemscore.DEInternal.Weighted>
0.5870

> <Gold.Chemscore.Rot.Weighted>
4.7334

> <Gold.Chemscore.Internal.Correction.Weighted>
   9.000000E+99

> <Gold.Protein.RotatedTorsions>
[ 6907 6896 6895 6894 ] final  -44.98 input  -60.11 | X-H torsion
[ 7974 7965 7964 7962 ] final  139.62 input  175.53 | X-H torsion
[ 8008 7997 7996 7995 ] final  -85.43 input   59.86 | X-H torsion
[ 10167 10162 10161 10158 ] final -117.73 input  -65.29 | X-H torsion
[ 10718 10713 10712 10709 ] final   -3.58 input   66.30 | X-H torsion
[ 10763 10752 10751 10750 ] final -113.52 input  -60.55 | X-H torsion
[ 11005 11000 10999 10996 ] final   -8.99 input  -57.11 | X-H torsion

> <Gold.Protein.ActiveResidues>
 VAL166  LYS551  ARG553  GLY616  TRP617  ASP618  TYR619  PRO620  LYS621  CYS622 
 ASP623  PHE694  ASN695  SER759  ASP760  ASP761  ALA762  ILE779  LEU786  VAL792 
 PHE793  MET794  SER795  GLU796  ALA797  LYS798  CYS799  TRP800  GLU811  SER814 

> <Gold.Protein.RotatedAtoms>
  150.9269  134.8685  159.7525 H   0  0  0  0  0  0  0  0  0  0  0  0  # atno 6907 bound_to 6896
  152.5019  134.4136  159.9467 H   0  0  0  0  0  0  0  0  0  0  0  0  # atno 6908 bound_to 6896
  151.4166  133.3671  159.2786 H   0  0  0  0  0  0  0  0  0  0  0  0  # atno 6909 bound_to 6896
  144.9261  139.5105  143.5640 H   0  0  0  0  0  0  0  0  0  0  0  0  # atno 7974 bound_to 7965
  154.6406  140.0591  156.9841 H   0  0  0  0  0  0  0  0  0  0  0  0  # atno 8008 bound_to 7997
  155.1522  140.3275  155.4410 H   0  0  0  0  0  0  0  0  0  0  0  0  # atno 8009 bound_to 7997
  156.2529  140.1945  156.6633 H   0  0  0  0  0  0  0  0  0  0  0  0  # atno 8010 bound_to 7997
  140.0652  143.4930  152.2010 H   0  0  0  0  0  0  0  0  0  0  0  0  # atno 10167 bound_to 10162
  156.7739  130.5309  149.5762 H   0  0  0  0  0  0  0  0  0  0  0  0  # atno 10718 bound_to 10713
  154.8400  135.4451  154.1362 H   0  0  0  0  0  0  0  0  0  0  0  0  # atno 10763 bound_to 10752
  153.2559  135.6931  153.7636 H   0  0  0  0  0  0  0  0  0  0  0  0  # atno 10764 bound_to 10752
  153.6930  135.3384  155.3182 H   0  0  0  0  0  0  0  0  0  0  0  0  # atno 10765 bound_to 10752
  140.7294  133.8762  155.8881 H   0  0  0  0  0  0  0  0  0  0  0  0  # atno 11005 bound_to 11000
  146.3227  139.8177  142.8933 LP  0  0  0  0  0  0  0  0  0  0  0  0  # atno 17320 bound_to 7965
  145.3216  141.0245  143.3497 LP  0  0  0  0  0  0  0  0  0  0  0  0  # atno 17321 bound_to 7965
  139.5869  144.7535  151.3497 LP  0  0  0  0  0  0  0  0  0  0  0  0  # atno 17342 bound_to 10162
  140.7152  143.7284  150.7642 LP  0  0  0  0  0  0  0  0  0  0  0  0  # atno 17343 bound_to 10162
  156.1260  130.6144  151.0264 LP  0  0  0  0  0  0  0  0  0  0  0  0  # atno 17370 bound_to 10713
  157.6678  131.0868  150.7686 LP  0  0  0  0  0  0  0  0  0  0  0  0  # atno 17371 bound_to 10713
  140.9934  134.1247  157.4386 LP  0  0  0  0  0  0  0  0  0  0  0  0  # atno 17394 bound_to 11000
  139.8830  135.0047  156.6267 LP  0  0  0  0  0  0  0  0  0  0  0  0  # atno 17395 bound_to 11000

$$$$
