AV-unprocessed.smi:2651|AV-procd|sdf|10293|dock10
  -GOLD-   2272014303D 1   1.00000     0.00000
 Structure written by MMmdl.
 43 44  0  0  0  0  0  0  0  0  1 V2000
  151.6675  140.3956  155.9091 C   0  0  0  0  0  0  0  0  0  0  0  0
  151.3891  138.9744  155.5583 C   0  0  0  0  0  0  0  0  0  0  0  0
  150.4274  138.3757  154.7937 C   0  0  0  0  0  0  0  0  0  0  0  0
  150.7527  136.9967  154.8924 C   0  0  0  0  0  0  0  0  0  0  0  0
  149.9715  136.0162  154.2290 N   0  0  0  0  0  0  0  0  0  0  0  0
  149.6851  134.7724  154.6495 C   0  0  0  0  0  0  0  0  0  0  0  0
  150.0983  134.2711  155.6944 O   0  0  0  0  0  0  0  0  0  0  0  0
  148.8884  134.1421  153.7692 N   0  0  0  0  0  0  0  0  0  0  0  0
  148.3245  132.7850  153.8374 C   0  0  2  0  0  0  0  0  0  0  0  0
  147.4735  132.7935  155.1290 C   0  0  0  0  0  0  0  0  0  0  0  0
  149.4784  131.7622  154.0705 C   0  0  0  0  0  0  0  0  0  0  0  0
  149.0423  130.4571  154.3934 O   0  0  0  0  0  0  0  0  0  0  0  0
  147.4325  132.4583  152.5841 C   0  0  0  0  0  0  0  0  0  0  0  0
  146.4478  133.5896  152.1882 C   0  0  0  0  0  0  0  0  0  0  0  0
  145.6979  133.2596  150.8871 C   0  0  0  0  0  0  0  0  0  0  0  0
  144.9514  131.9224  150.9965 C   0  0  0  0  0  0  0  0  0  0  0  0
  145.9084  130.7895  151.3944 C   0  0  0  0  0  0  0  0  0  0  0  0
  146.6549  131.1225  152.6962 C   0  0  0  0  0  0  0  0  0  0  0  0
  151.8171  136.7738  155.6477 N   0  0  0  0  0  0  0  0  0  0  0  0
  152.2304  138.0401  156.0784 O   0  0  0  0  0  0  0  0  0  0  0  0
  150.9730  141.0658  155.4022 H   0  0  0  0  0  0  0  0  0  0  0  0
  152.6800  140.6751  155.6172 H   0  0  0  0  0  0  0  0  0  0  0  0
  151.5683  140.5547  156.9830 H   0  0  0  0  0  0  0  0  0  0  0  0
  149.6218  138.8506  154.2538 H   0  0  0  0  0  0  0  0  0  0  0  0
  149.5781  136.2965  153.3430 H   0  0  0  0  0  0  0  0  0  0  0  0
  148.6295  134.6680  152.9478 H   0  0  0  0  0  0  0  0  0  0  0  0
  147.0152  131.8254  155.3284 H   0  0  0  0  0  0  0  0  0  0  0  0
  146.6754  133.5345  155.0937 H   0  0  0  0  0  0  0  0  0  0  0  0
  148.0861  133.0326  155.9995 H   0  0  0  0  0  0  0  0  0  0  0  0
  150.1403  131.7138  153.2047 H   0  0  0  0  0  0  0  0  0  0  0  0
  150.1015  132.0845  154.9055 H   0  0  0  0  0  0  0  0  0  0  0  0
  148.1076  130.4766  154.5299 H   0  0  0  0  0  0  0  0  0  0  0  0
  148.1031  132.3436  151.7323 H   0  0  0  0  0  0  0  0  0  0  0  0
  145.7186  133.7531  152.9814 H   0  0  0  0  0  0  0  0  0  0  0  0
  146.9734  134.5345  152.0535 H   0  0  0  0  0  0  0  0  0  0  0  0
  144.9942  134.0583  150.6511 H   0  0  0  0  0  0  0  0  0  0  0  0
  146.4059  133.2173  150.0583 H   0  0  0  0  0  0  0  0  0  0  0  0
  144.1561  132.0067  151.7382 H   0  0  0  0  0  0  0  0  0  0  0  0
  144.4679  131.6864  150.0483 H   0  0  0  0  0  0  0  0  0  0  0  0
  145.3524  129.8591  151.5123 H   0  0  0  0  0  0  0  0  0  0  0  0
  146.6290  130.6194  150.5933 H   0  0  0  0  0  0  0  0  0  0  0  0
  147.3297  130.3005  152.9327 H   0  0  0  0  0  0  0  0  0  0  0  0
  145.9312  131.1704  153.5095 H   0  0  0  0  0  0  0  0  0  0  0  0
  1  2  1  0  0  0  0
  1 21  1  0  0  0  0
  1 22  1  0  0  0  0
  1 23  1  0  0  0  0
  2 20  1  0  0  0  0
  2  3  2  0  0  0  0
  3  4  1  0  0  0  0
  3 24  1  0  0  0  0
  4  5  1  0  0  0  0
  4 19  2  0  0  0  0
  5  6  1  0  0  0  0
  5 25  1  0  0  0  0
  6  7  2  0  0  0  0
  6  8  1  0  0  0  0
  8  9  1  0  0  0  0
  8 26  1  0  0  0  0
  9 10  1  0  0  0  0
  9 11  1  0  0  0  0
  9 13  1  0  0  0  0
 10 27  1  0  0  0  0
 10 28  1  0  0  0  0
 10 29  1  0  0  0  0
 11 12  1  0  0  0  0
 11 30  1  0  0  0  0
 11 31  1  0  0  0  0
 12 32  1  0  0  0  0
 13 18  1  0  0  0  0
 13 14  1  0  0  0  0
 13 33  1  0  0  0  0
 14 15  1  0  0  0  0
 14 34  1  0  0  0  0
 14 35  1  0  0  0  0
 15 16  1  0  0  0  0
 15 36  1  0  0  0  0
 15 37  1  0  0  0  0
 16 17  1  0  0  0  0
 16 38  1  0  0  0  0
 16 39  1  0  0  0  0
 17 18  1  0  0  0  0
 17 40  1  0  0  0  0
 17 41  1  0  0  0  0
 18 42  1  0  0  0  0
 18 43  1  0  0  0  0
 19 20  1  0  0  0  0
M  END
> <s_m_source_file>
AV-unprocessed.smi

> <i_m_source_file_index>
2651

> <i_lp_mmshare_version>
43012

> <i_f3d_flags>
0

> <s_epik_input>
W0NIM11jMVtjSF1jKG5vMSlbTkhdQyg9TylbTkhdW0NAQF0oW0NIM10pKFtDSDJdW09IXSlbQ0hdMltDSDJdW0NIMl1bQ0gyXVtDSDJdW0NIMl0y

> <s_epik_cmdline>
J2VwaWtfcHl0aG9uJywgJy1waCcsICc3LjAnLCAnLXRuJywgJzgnLCAnLW1hJywgJzIwMCcsICctbWV0YWxfYmluZGluZycsICctaW1hZScsICc8aW5maWxlLm1hZT4nLCAnLW9tYWUnLCAnPG91dGZpbGUubWFlPic=

> <r_lp_tautomer_probability>
1

> <r_epik_Ionization_Penalty>
2.26451e-05

> <r_epik_Ionization_Penalty_Charging>
0

> <r_epik_Ionization_Penalty_Neutral>
2.26451e-05

> <r_epik_State_Penalty>
-0

> <r_epik_Charging_Adjusted_Penalty>
0

> <i_epik_Tot_Q>
0

> <i_epik_Tot_abs_Q>
0

> <r_epik_Metal_State_Penalty>
-0

> <b_epik_Metal_Only>
0

> <s_lp_Force_Field>
OPLS_2005

> <r_lp_Energy>
19.0521

> <b_lp_Chiralities_Consistent>
1

> <s_lp_Variant>
AV-unprocessed.smi:2651-2

> <Gold.Version>
5.8.1

> <Gold.Id.Protein>
6NUR|6NUR_protein|mol2

> <Gold.PLP.Fitness>
41.6758

> <Gold.PLP.PLP>
-33.6038

> <Gold.PLP.part.hbond>
-4.0000

> <Gold.PLP.part.metal>
0.0000

> <Gold.PLP.part.buried>
-2.0982

> <Gold.PLP.part.nonpolar>
-26.8430

> <Gold.PLP.part.repulsive>
0.1427

> <Gold.PLP.ligand.clash>
0.0000

> <Gold.PLP.ligand.torsion>
0.4312

> <Gold.PLP.Chemscore.Hbond>
2.9440

> <Gold.PLP.Chemscore.CHOScore>
0.0000

> <Gold.PLP.Chemscore.Metal>
0.0000

> <Gold.Chemscore.Hbonds>
donor molecule, donor type, donor heavy atom, donor atom, acceptor molecule, acceptor atom, score
      L1  H     5    25       P1  7948  1.00
      L1  H     8    26       P1  7948  0.90
      P1  H 10752 10763       L1    19  1.00

> <Gold.PLP.Chemscore.Internal.Correction>
0.1024

> <Gold.Rescore>
     Score         DG    S(hbond)    S(metal)    S(lipo)     H(rot)  DE(clash)    DE(int)     intcor
     14.34     -16.20       2.40        0.00      68.94       2.09       0.02       1.84       ----

> <Gold.Chemscore.Fitness>
14.3370

> <Gold.Chemscore.DG>
-16.1964

> <Gold.Chemscore.ZeroCoef>
-5.4800

> <Gold.Chemscore.Hbond>
2.3983

> <Gold.Chemscore.Metal>
0.0000

> <Gold.Chemscore.Lipo>
68.9364

> <Gold.Chemscore.Internal_Hbond>
0.0000

> <Gold.Chemscore.DEClash>
0.0155

> <Gold.Chemscore.DEInternal>
1.8439

> <Gold.Chemscore.Rot>
2.0935

> <Gold.Chemscore.Internal.Correction>
   9.000000E+99

> <Gold.Chemscore.Hbonds>
donor molecule, donor type, donor heavy atom, donor atom, acceptor molecule, acceptor atom, score
      L1  H     5    25       P1  7948  0.38
      L1  H     8    26       P1  7948  0.20
      P1  H 10752 10763       L1    19  0.64

> <Gold.Chemscore.Hbond.Weighted>
-8.0102

> <Gold.Chemscore.Metal.Weighted>
-0.0000

> <Gold.Chemscore.Lipo.Weighted>
-8.0656

> <Gold.Chemscore.Internal_Hbond.Weighted>
0.0000

> <Gold.Chemscore.DEClash.Weighted>
0.0155

> <Gold.Chemscore.DEInternal.Weighted>
1.8439

> <Gold.Chemscore.Rot.Weighted>
5.3594

> <Gold.Chemscore.Internal.Correction.Weighted>
   9.000000E+99

> <Gold.Protein.RotatedTorsions>
[ 6907 6896 6895 6894 ] final   88.24 input  -60.11 | X-H torsion
[ 7974 7965 7964 7962 ] final  101.45 input  175.53 | X-H torsion
[ 8008 7997 7996 7995 ] final -158.32 input   59.86 | X-H torsion
[ 10167 10162 10161 10158 ] final  120.93 input  -65.29 | X-H torsion
[ 10718 10713 10712 10709 ] final   51.73 input   66.30 | X-H torsion
[ 10763 10752 10751 10750 ] final   65.03 input  -60.55 | X-H torsion
[ 11005 11000 10999 10996 ] final   15.94 input  -57.11 | X-H torsion

> <Gold.Protein.ActiveResidues>
 VAL166  LYS551  ARG553  GLY616  TRP617  ASP618  TYR619  PRO620  LYS621  CYS622 
 ASP623  PHE694  ASN695  SER759  ASP760  ASP761  ALA762  ILE779  LEU786  VAL792 
 PHE793  MET794  SER795  GLU796  ALA797  LYS798  CYS799  TRP800  GLU811  SER814 

> <Gold.Protein.RotatedAtoms>
  152.5422  134.2151  159.8765 H   0  0  0  0  0  0  0  0  0  0  0  0  # atno 6907 bound_to 6896
  151.2132  133.4537  159.2606 H   0  0  0  0  0  0  0  0  0  0  0  0  # atno 6908 bound_to 6896
  151.0877  134.9910  159.8443 H   0  0  0  0  0  0  0  0  0  0  0  0  # atno 6909 bound_to 6896
  145.3721  139.2396  143.3449 H   0  0  0  0  0  0  0  0  0  0  0  0  # atno 7974 bound_to 7965
  155.7458  140.0820  157.2224 H   0  0  0  0  0  0  0  0  0  0  0  0  # atno 8008 bound_to 7997
  154.4017  140.1569  156.2723 H   0  0  0  0  0  0  0  0  0  0  0  0  # atno 8009 bound_to 7997
  155.8977  140.3411  155.6006 H   0  0  0  0  0  0  0  0  0  0  0  0  # atno 8010 bound_to 7997
  139.5951  144.7039  151.3196 H   0  0  0  0  0  0  0  0  0  0  0  0  # atno 10167 bound_to 10162
  157.5008  130.8437  149.8314 H   0  0  0  0  0  0  0  0  0  0  0  0  # atno 10718 bound_to 10713
  153.0080  135.5371  154.6604 H   0  0  0  0  0  0  0  0  0  0  0  0  # atno 10763 bound_to 10752
  154.5814  135.2850  155.0731 H   0  0  0  0  0  0  0  0  0  0  0  0  # atno 10764 bound_to 10752
  154.1859  135.6508  153.5099 H   0  0  0  0  0  0  0  0  0  0  0  0  # atno 10765 bound_to 10752
  140.4527  134.1208  155.7705 H   0  0  0  0  0  0  0  0  0  0  0  0  # atno 11005 bound_to 11000
  146.2880  140.4374  142.8750 LP  0  0  0  0  0  0  0  0  0  0  0  0  # atno 17320 bound_to 7965
  144.8568  140.7082  143.6132 LP  0  0  0  0  0  0  0  0  0  0  0  0  # atno 17321 bound_to 7965
  140.7205  143.7148  150.7741 LP  0  0  0  0  0  0  0  0  0  0  0  0  # atno 17342 bound_to 10162
  140.0713  143.5059  152.2578 LP  0  0  0  0  0  0  0  0  0  0  0  0  # atno 17343 bound_to 10162
  156.0228  130.3789  150.1911 LP  0  0  0  0  0  0  0  0  0  0  0  0  # atno 17370 bound_to 10713
  157.0100  130.9948  151.3368 LP  0  0  0  0  0  0  0  0  0  0  0  0  # atno 17371 bound_to 10713
  141.1657  133.8708  157.1722 LP  0  0  0  0  0  0  0  0  0  0  0  0  # atno 17394 bound_to 11000
  139.9996  135.0033  157.0160 LP  0  0  0  0  0  0  0  0  0  0  0  0  # atno 17395 bound_to 11000

$$$$
