AV-unprocessed.smi:2556|AV-procd|sdf|10024|dock7
  -GOLD-   2272014 73D 1   1.00000     0.00000
 Structure written by MMmdl.
 35 37  0  0  0  0  0  0  0  0  1 V2000
  145.6329  142.1082  154.7601 C   0  0  0  0  0  0  0  0  0  0  0  0
  147.0282  141.6649  154.7884 N   0  0  0  0  0  0  0  0  0  0  0  0
  147.6460  141.1365  153.6807 C   0  0  0  0  0  0  0  0  0  0  0  0
  147.0733  141.0064  152.5994 O   0  0  0  0  0  0  0  0  0  0  0  0
  148.9524  140.7461  153.8060 N   0  0  0  0  0  0  0  0  0  0  0  0
  149.7333  140.8210  154.9114 C   0  0  0  0  0  0  0  0  0  0  0  0
  150.9043  140.4487  154.9479 O   0  0  0  0  0  0  0  0  0  0  0  0
  149.0352  141.3971  156.0643 C   0  0  0  0  0  0  0  0  0  0  0  0
  147.7401  141.8032  156.0123 C   0  0  0  0  0  0  0  0  0  0  0  0
  147.3236  142.3112  157.2379 N   0  0  0  0  0  0  0  0  0  0  0  0
  148.4240  142.1800  157.9822 C   0  0  0  0  0  0  0  0  0  0  0  0
  149.4919  141.6437  157.3555 N   0  0  0  0  0  0  0  0  0  0  0  0
  150.8043  141.3936  157.9301 C   0  0  0  0  0  0  0  0  0  0  0  0
  151.6546  142.6739  158.0537 C   0  0  1  0  0  0  0  0  0  0  0  0
  150.9221  143.7871  157.5775 O   0  0  0  0  0  0  0  0  0  0  0  0
  152.1466  142.8721  159.4790 C   0  0  0  0  0  0  0  0  0  0  0  0
  151.7560  144.0053  160.2268 C   0  0  0  0  0  0  0  0  0  0  0  0
  152.2098  144.1743  161.5493 C   0  0  0  0  0  0  0  0  0  0  0  0
  153.0534  143.2104  162.1337 C   0  0  0  0  0  0  0  0  0  0  0  0
  153.4426  142.0768  161.3945 C   0  0  0  0  0  0  0  0  0  0  0  0
  152.9895  141.9074  160.0716 C   0  0  0  0  0  0  0  0  0  0  0  0
  149.3832  140.3583  152.9795 H   0  0  0  0  0  0  0  0  0  0  0  0
  145.1312  141.9384  153.8068 H   0  0  0  0  0  0  0  0  0  0  0  0
  145.5773  143.1760  154.9736 H   0  0  0  0  0  0  0  0  0  0  0  0
  145.0597  141.5837  155.5253 H   0  0  0  0  0  0  0  0  0  0  0  0
  148.4555  142.4872  159.0174 H   0  0  0  0  0  0  0  0  0  0  0  0
  150.6707  140.9333  158.9102 H   0  0  0  0  0  0  0  0  0  0  0  0
  151.3154  140.6537  157.3133 H   0  0  0  0  0  0  0  0  0  0  0  0
  152.5270  142.5834  157.4059 H   0  0  0  0  0  0  0  0  0  0  0  0
  150.3043  143.4829  156.9300 H   0  0  0  0  0  0  0  0  0  0  0  0
  151.1045  144.7482  159.7900 H   0  0  0  0  0  0  0  0  0  0  0  0
  151.9085  145.0428  162.1162 H   0  0  0  0  0  0  0  0  0  0  0  0
  153.3998  143.3395  163.1485 H   0  0  0  0  0  0  0  0  0  0  0  0
  154.0875  141.3358  161.8433 H   0  0  0  0  0  0  0  0  0  0  0  0
  153.2897  141.0319  159.5143 H   0  0  0  0  0  0  0  0  0  0  0  0
  1  2  1  0  0  0  0
  1 23  1  0  0  0  0
  1 24  1  0  0  0  0
  1 25  1  0  0  0  0
  2  9  1  0  0  0  0
  2  3  1  0  0  0  0
  3  4  2  0  0  0  0
  3  5  1  0  0  0  0
  5 22  1  0  0  0  0
  5  6  1  0  0  0  0
  6  7  2  0  0  0  0
  6  8  1  0  0  0  0
  8 12  1  0  0  0  0
  8  9  2  0  0  0  0
  9 10  1  0  0  0  0
 10 11  2  0  0  0  0
 11 12  1  0  0  0  0
 11 26  1  0  0  0  0
 12 13  1  0  0  0  0
 13 14  1  0  0  0  0
 13 27  1  0  0  0  0
 13 28  1  0  0  0  0
 14 15  1  0  0  0  0
 14 16  1  0  0  0  0
 14 29  1  0  0  0  0
 15 30  1  0  0  0  0
 16 21  1  0  0  0  0
 16 17  2  0  0  0  0
 17 18  1  0  0  0  0
 17 31  1  0  0  0  0
 18 19  2  0  0  0  0
 18 32  1  0  0  0  0
 19 20  1  0  0  0  0
 19 33  1  0  0  0  0
 20 21  2  0  0  0  0
 20 34  1  0  0  0  0
 21 35  1  0  0  0  0
M  END
> <s_m_source_file>
AV-unprocessed.smi

> <i_m_source_file_index>
2556

> <i_lp_mmshare_version>
43012

> <i_f3d_flags>
0

> <s_epik_input>
Tz1jMVtuSF1jKD1PKW4oW0NIM10pYyhjMTIpbltjSF1uMltDSDJdW0NASF0oW09IXSljM1tjSF1bY0hdW2NIXVtjSF1bY0hdMw==

> <s_epik_cmdline>
J2VwaWtfcHl0aG9uJywgJy1waCcsICc3LjAnLCAnLXRuJywgJzgnLCAnLW1hJywgJzIwMCcsICctbWV0YWxfYmluZGluZycsICctaW1hZScsICc8aW5maWxlLm1hZT4nLCAnLW9tYWUnLCAnPG91dGZpbGUubWFlPic=

> <r_lp_tautomer_probability>
1

> <r_epik_Ionization_Penalty>
0.000177505

> <r_epik_Ionization_Penalty_Charging>
0.000176585

> <r_epik_Ionization_Penalty_Neutral>
9.19728e-07

> <r_epik_State_Penalty>
-0

> <r_epik_Charging_Adjusted_Penalty>
0.000176585

> <i_epik_Tot_Q>
0

> <i_epik_Tot_abs_Q>
0

> <r_epik_Metal_State_Penalty>
0.122509

> <b_epik_Metal_Only>
0

> <s_lp_Force_Field>
OPLS_2005

> <r_lp_Energy>
28.4521

> <b_lp_Chiralities_Consistent>
1

> <s_lp_Variant>
AV-unprocessed.smi:2556-2

> <Gold.Version>
5.8.1

> <Gold.Id.Protein>
6NUR|6NUR_protein|mol2

> <Gold.PLP.Fitness>
47.9282

> <Gold.PLP.PLP>
-43.4687

> <Gold.PLP.part.hbond>
-3.0000

> <Gold.PLP.part.metal>
0.0000

> <Gold.PLP.part.buried>
-4.0684

> <Gold.PLP.part.nonpolar>
-36.0973

> <Gold.PLP.part.repulsive>
1.0700

> <Gold.PLP.ligand.clash>
0.0723

> <Gold.PLP.ligand.torsion>
1.0106

> <Gold.PLP.Chemscore.Hbond>
2.1768

> <Gold.PLP.Chemscore.CHOScore>
0.0000

> <Gold.PLP.Chemscore.Metal>
0.0000

> <Gold.Chemscore.Hbonds>
donor molecule, donor type, donor heavy atom, donor atom, acceptor molecule, acceptor atom, score
      L1  H     5    22       P1  7957  1.00
      L1  H    15    30       P1  8028  0.23
      P1  H  7989  7998       L1     7  1.00

> <Gold.PLP.Chemscore.Internal.Correction>
0.0224

> <Gold.Rescore>
     Score         DG    S(hbond)    S(metal)    S(lipo)     H(rot)  DE(clash)    DE(int)     intcor
     15.33     -17.15       2.13        0.00      89.40       2.31       0.15       1.67       ----

> <Gold.Chemscore.Fitness>
15.3327

> <Gold.Chemscore.DG>
-17.1463

> <Gold.Chemscore.ZeroCoef>
-5.4800

> <Gold.Chemscore.Hbond>
2.1330

> <Gold.Chemscore.Metal>
0.0000

> <Gold.Chemscore.Lipo>
89.3967

> <Gold.Chemscore.Internal_Hbond>
0.0000

> <Gold.Chemscore.DEClash>
0.1455

> <Gold.Chemscore.DEInternal>
1.6681

> <Gold.Chemscore.Rot>
2.3115

> <Gold.Chemscore.Internal.Correction>
   9.000000E+99

> <Gold.Chemscore.Hbonds>
donor molecule, donor type, donor heavy atom, donor atom, acceptor molecule, acceptor atom, score
      L1  H     5    22       P1  7957  0.99
      L1  H    15    30       P1  8028  0.23
      P1  H  7989  7998       L1     7  0.63

> <Gold.Chemscore.Hbond.Weighted>
-7.1243

> <Gold.Chemscore.Metal.Weighted>
-0.0000

> <Gold.Chemscore.Lipo.Weighted>
-10.4594

> <Gold.Chemscore.Internal_Hbond.Weighted>
0.0000

> <Gold.Chemscore.DEClash.Weighted>
0.1455

> <Gold.Chemscore.DEInternal.Weighted>
1.6681

> <Gold.Chemscore.Rot.Weighted>
5.9174

> <Gold.Chemscore.Internal.Correction.Weighted>
   9.000000E+99

> <Gold.Protein.RotatedTorsions>
[ 6907 6896 6895 6894 ] final   78.93 input  -60.11 | X-H torsion
[ 7974 7965 7964 7962 ] final  167.35 input  175.53 | X-H torsion
[ 8008 7997 7996 7995 ] final  -52.35 input   59.86 | X-H torsion
[ 10167 10162 10161 10158 ] final -134.29 input  -65.29 | X-H torsion
[ 10718 10713 10712 10709 ] final  125.45 input   66.30 | X-H torsion
[ 10763 10752 10751 10750 ] final   43.76 input  -60.55 | X-H torsion
[ 11005 11000 10999 10996 ] final  121.41 input  -57.11 | X-H torsion

> <Gold.Protein.ActiveResidues>
 VAL166  LYS551  ARG553  GLY616  TRP617  ASP618  TYR619  PRO620  LYS621  CYS622 
 ASP623  PHE694  ASN695  SER759  ASP760  ASP761  ALA762  ILE779  LEU786  VAL792 
 PHE793  MET794  SER795  GLU796  ALA797  LYS798  CYS799  TRP800  GLU811  SER814 

> <Gold.Protein.RotatedAtoms>
  152.5179  134.3588  159.9277 H   0  0  0  0  0  0  0  0  0  0  0  0  # atno 6907 bound_to 6896
  151.3540  133.3908  159.2691 H   0  0  0  0  0  0  0  0  0  0  0  0  # atno 6908 bound_to 6896
  150.9704  134.9097  159.7843 H   0  0  0  0  0  0  0  0  0  0  0  0  # atno 6909 bound_to 6896
  144.7428  139.8747  143.6391 H   0  0  0  0  0  0  0  0  0  0  0  0  # atno 7974 bound_to 7965
  154.4104  140.1226  156.4977 H   0  0  0  0  0  0  0  0  0  0  0  0  # atno 8008 bound_to 7997
  155.6926  140.3495  155.4880 H   0  0  0  0  0  0  0  0  0  0  0  0  # atno 8009 bound_to 7997
  155.9455  140.1095  157.1010 H   0  0  0  0  0  0  0  0  0  0  0  0  # atno 8010 bound_to 7997
  139.8896  143.6739  152.2614 H   0  0  0  0  0  0  0  0  0  0  0  0  # atno 10167 bound_to 10162
  157.5502  131.1094  150.8715 H   0  0  0  0  0  0  0  0  0  0  0  0  # atno 10718 bound_to 10713
  152.9854  135.6091  154.3163 H   0  0  0  0  0  0  0  0  0  0  0  0  # atno 10763 bound_to 10752
  154.2876  135.2775  155.2671 H   0  0  0  0  0  0  0  0  0  0  0  0  # atno 10764 bound_to 10752
  154.4981  135.5874  153.6567 H   0  0  0  0  0  0  0  0  0  0  0  0  # atno 10765 bound_to 10752
  139.9225  134.9638  156.7953 H   0  0  0  0  0  0  0  0  0  0  0  0  # atno 11005 bound_to 11000
  146.1254  139.4280  143.0202 LP  0  0  0  0  0  0  0  0  0  0  0  0  # atno 17320 bound_to 7965
  145.7242  141.0064  143.1386 LP  0  0  0  0  0  0  0  0  0  0  0  0  # atno 17321 bound_to 7965
  139.7122  144.7618  151.1094 LP  0  0  0  0  0  0  0  0  0  0  0  0  # atno 17342 bound_to 10162
  140.7729  143.5316  150.9416 LP  0  0  0  0  0  0  0  0  0  0  0  0  # atno 17343 bound_to 10162
  156.9242  130.5326  149.5279 LP  0  0  0  0  0  0  0  0  0  0  0  0  # atno 17370 bound_to 10713
  156.0570  130.5630  150.9113 LP  0  0  0  0  0  0  0  0  0  0  0  0  # atno 17371 bound_to 10713
  140.6433  133.9798  155.7718 LP  0  0  0  0  0  0  0  0  0  0  0  0  # atno 17394 bound_to 11000
  141.0756  134.0139  157.3462 LP  0  0  0  0  0  0  0  0  0  0  0  0  # atno 17395 bound_to 11000

$$$$
