AV-unprocessed.smi:861|AV-procd|sdf|3971|dock9
  -GOLD-   22720 1443D 1   1.00000     0.00000
 Structure written by MMmdl.
 43 44  0  0  0  0  0  0  0  0  1 V2000
  152.4674  144.3922  159.0241 C   0  0  0  0  0  0  0  0  0  0  0  0
  151.9653  143.1683  159.8091 C   0  0  0  0  0  0  0  0  0  0  0  0
  152.9627  142.8035  160.9195 C   0  0  0  0  0  0  0  0  0  0  0  0
  151.6913  141.9517  158.9006 C   0  0  0  0  0  0  0  0  0  0  0  0
  150.7058  142.2408  157.7506 C   0  0  0  0  0  0  0  0  0  0  0  0
  150.4081  141.0991  156.8855 N   0  0  0  0  0  0  0  0  0  0  0  0
  151.6235  140.5955  156.2552 C   0  0  0  0  0  0  0  0  0  0  0  0
  151.3394  139.3978  155.3347 C   0  0  0  0  0  0  0  0  0  0  0  0
  150.3768  139.7748  154.3570 O   0  0  0  0  0  0  0  0  0  0  0  0
  149.1452  140.2147  154.9244 C   0  0  2  0  0  0  0  0  0  0  0  0
  148.1746  140.5908  153.7916 C   0  0  0  0  0  0  0  0  0  0  0  0
  147.9505  139.4891  152.8622 N   0  0  0  0  0  0  0  0  0  0  0  0
  146.7692  138.7340  152.9020 C   0  0  0  0  0  0  0  0  0  0  0  0
  146.4534  137.9100  151.8032 C   0  0  0  0  0  0  0  0  0  0  0  0
  145.2666  137.1598  151.8688 C   0  0  0  0  0  0  0  0  0  0  0  0
  144.4852  137.2892  153.0314 C   0  0  0  0  0  0  0  0  0  0  0  0
  144.8375  138.0930  154.0596 N   0  0  0  0  0  0  0  0  0  0  0  0
  145.9684  138.8049  153.9953 N   0  0  0  0  0  0  0  0  0  0  0  0
  149.4351  141.4196  155.8423 C   0  0  0  0  0  0  0  0  0  0  0  0
  153.3854  144.1655  158.4810 H   0  0  0  0  0  0  0  0  0  0  0  0
  152.6778  145.2258  159.6948 H   0  0  0  0  0  0  0  0  0  0  0  0
  151.7297  144.7428  158.3031 H   0  0  0  0  0  0  0  0  0  0  0  0
  151.0287  143.4434  160.2958 H   0  0  0  0  0  0  0  0  0  0  0  0
  153.9258  142.5055  160.5039 H   0  0  0  0  0  0  0  0  0  0  0  0
  152.5924  141.9775  161.5276 H   0  0  0  0  0  0  0  0  0  0  0  0
  153.1349  143.6481  161.5873 H   0  0  0  0  0  0  0  0  0  0  0  0
  152.6319  141.5775  158.4938 H   0  0  0  0  0  0  0  0  0  0  0  0
  151.2908  141.1514  159.5221 H   0  0  0  0  0  0  0  0  0  0  0  0
  149.7780  142.6450  158.1581 H   0  0  0  0  0  0  0  0  0  0  0  0
  151.1307  143.0323  157.1337 H   0  0  0  0  0  0  0  0  0  0  0  0
  152.0955  141.3896  155.6744 H   0  0  0  0  0  0  0  0  0  0  0  0
  152.3428  140.2984  157.0192 H   0  0  0  0  0  0  0  0  0  0  0  0
  152.2527  139.0804  154.8311 H   0  0  0  0  0  0  0  0  0  0  0  0
  150.9746  138.5445  155.9081 H   0  0  0  0  0  0  0  0  0  0  0  0
  148.7106  139.4086  155.5191 H   0  0  0  0  0  0  0  0  0  0  0  0
  147.2040  140.8378  154.2226 H   0  0  0  0  0  0  0  0  0  0  0  0
  148.5088  141.4903  153.2736 H   0  0  0  0  0  0  0  0  0  0  0  0
  148.5084  139.4638  152.0212 H   0  0  0  0  0  0  0  0  0  0  0  0
  147.0967  137.8541  150.9372 H   0  0  0  0  0  0  0  0  0  0  0  0
  144.9663  136.5103  151.0603 H   0  0  0  0  0  0  0  0  0  0  0  0
  143.5629  136.7382  153.1408 H   0  0  0  0  0  0  0  0  0  0  0  0
  148.4961  141.7432  156.2893 H   0  0  0  0  0  0  0  0  0  0  0  0
  149.8002  142.2541  155.2417 H   0  0  0  0  0  0  0  0  0  0  0  0
  1  2  1  0  0  0  0
  1 20  1  0  0  0  0
  1 21  1  0  0  0  0
  1 22  1  0  0  0  0
  2  3  1  0  0  0  0
  2  4  1  0  0  0  0
  2 23  1  0  0  0  0
  3 24  1  0  0  0  0
  3 25  1  0  0  0  0
  3 26  1  0  0  0  0
  4  5  1  0  0  0  0
  4 27  1  0  0  0  0
  4 28  1  0  0  0  0
  5  6  1  0  0  0  0
  5 29  1  0  0  0  0
  5 30  1  0  0  0  0
  6 19  1  0  0  0  0
  6  7  1  0  0  0  0
  7  8  1  0  0  0  0
  7 31  1  0  0  0  0
  7 32  1  0  0  0  0
  8  9  1  0  0  0  0
  8 33  1  0  0  0  0
  8 34  1  0  0  0  0
  9 10  1  0  0  0  0
 10 11  1  0  0  0  0
 10 19  1  0  0  0  0
 10 35  1  0  0  0  0
 11 12  1  0  0  0  0
 11 36  1  0  0  0  0
 11 37  1  0  0  0  0
 12 13  1  0  0  0  0
 12 38  1  0  0  0  0
 13 18  1  0  0  0  0
 13 14  2  0  0  0  0
 14 15  1  0  0  0  0
 14 39  1  0  0  0  0
 15 16  2  0  0  0  0
 15 40  1  0  0  0  0
 16 17  1  0  0  0  0
 16 41  1  0  0  0  0
 17 18  2  0  0  0  0
 19 42  1  0  0  0  0
 19 43  1  0  0  0  0
M  END
> <s_m_source_file>
AV-unprocessed.smi

> <i_m_source_file_index>
861

> <i_lp_mmshare_version>
43012

> <i_f3d_flags>
0

> <s_epik_input>
W0NIM11bQ0hdKFtDSDNdKVtDSDJdW0NIMl1OMVtDSDJdW0NIMl1PW0NASF0oW0NIMl0xKVtDSDJdW05IXWMyW2NIXVtjSF1bY0hdbm4y

> <s_epik_cmdline>
J2VwaWtfcHl0aG9uJywgJy1waCcsICc3LjAnLCAnLXRuJywgJzgnLCAnLW1hJywgJzIwMCcsICctbWV0YWxfYmluZGluZycsICctaW1hZScsICc8aW5maWxlLm1hZT4nLCAnLW9tYWUnLCAnPG91dGZpbGUubWFlPic=

> <r_lp_tautomer_probability>
0.999978

> <r_epik_Ionization_Penalty>
1.1508

> <r_epik_Ionization_Penalty_Charging>
0

> <r_epik_Ionization_Penalty_Neutral>
1.1508

> <r_epik_State_Penalty>
1.22808

> <r_epik_Charging_Adjusted_Penalty>
1.22808

> <i_epik_Tot_Q>
0

> <i_epik_Tot_abs_Q>
0

> <r_epik_Metal_State_Penalty>
1.22149

> <b_epik_Metal_Only>
0

> <s_lp_Force_Field>
OPLS_2005

> <r_lp_Energy>
31.1204

> <b_lp_Chiralities_Consistent>
1

> <s_lp_Variant>
AV-unprocessed.smi:861-6

> <Gold.Version>
5.8.1

> <Gold.Id.Protein>
6NUR|6NUR_protein|mol2

> <Gold.PLP.Fitness>
40.4794

> <Gold.PLP.PLP>
-36.1554

> <Gold.PLP.part.hbond>
-1.7418

> <Gold.PLP.part.metal>
0.0000

> <Gold.PLP.part.buried>
-1.0345

> <Gold.PLP.part.nonpolar>
-35.0962

> <Gold.PLP.part.repulsive>
0.5266

> <Gold.PLP.ligand.clash>
0.0000

> <Gold.PLP.ligand.torsion>
0.1782

> <Gold.PLP.Chemscore.Hbond>
1.5413

> <Gold.PLP.Chemscore.CHOScore>
0.0000

> <Gold.PLP.Chemscore.Metal>
0.0000

> <Gold.Chemscore.Hbonds>
donor molecule, donor type, donor heavy atom, donor atom, acceptor molecule, acceptor atom, score
      L1  H    12    38       P1  7957  0.91
      P1  H  7989  7998       L1     9  0.60

> <Gold.PLP.Chemscore.Internal.Correction>
0.0567

> <Gold.Rescore>
     Score         DG    S(hbond)    S(metal)    S(lipo)     H(rot)  DE(clash)    DE(int)     intcor
     17.38     -17.75       1.46        0.00      99.39       1.66       0.15       0.22       ----

> <Gold.Chemscore.Fitness>
17.3813

> <Gold.Chemscore.DG>
-17.7525

> <Gold.Chemscore.ZeroCoef>
-5.4800

> <Gold.Chemscore.Hbond>
1.4646

> <Gold.Chemscore.Metal>
0.0000

> <Gold.Chemscore.Lipo>
99.3863

> <Gold.Chemscore.Internal_Hbond>
0.0000

> <Gold.Chemscore.DEClash>
0.1510

> <Gold.Chemscore.DEInternal>
0.2202

> <Gold.Chemscore.Rot>
1.6591

> <Gold.Chemscore.Internal.Correction>
   9.000000E+99

> <Gold.Chemscore.Hbonds>
donor molecule, donor type, donor heavy atom, donor atom, acceptor molecule, acceptor atom, score
      L1  H    12    38       P1  7957  0.84
      P1  H  7989  7998       L1     9  0.04

> <Gold.Chemscore.Hbond.Weighted>
-4.8917

> <Gold.Chemscore.Metal.Weighted>
-0.0000

> <Gold.Chemscore.Lipo.Weighted>
-11.6282

> <Gold.Chemscore.Internal_Hbond.Weighted>
0.0000

> <Gold.Chemscore.DEClash.Weighted>
0.1510

> <Gold.Chemscore.DEInternal.Weighted>
0.2202

> <Gold.Chemscore.Rot.Weighted>
4.2474

> <Gold.Chemscore.Internal.Correction.Weighted>
   9.000000E+99

> <Gold.Protein.RotatedTorsions>
[ 6907 6896 6895 6894 ] final -162.17 input  -60.11 | X-H torsion
[ 7974 7965 7964 7962 ] final  170.36 input  175.53 | X-H torsion
[ 8008 7997 7996 7995 ] final -130.72 input   59.86 | X-H torsion
[ 10167 10162 10161 10158 ] final  -85.70 input  -65.29 | X-H torsion
[ 10718 10713 10712 10709 ] final   41.10 input   66.30 | X-H torsion
[ 10763 10752 10751 10750 ] final   90.96 input  -60.55 | X-H torsion
[ 11005 11000 10999 10996 ] final   56.47 input  -57.11 | X-H torsion

> <Gold.Protein.ActiveResidues>
 VAL166  LYS551  ARG553  GLY616  TRP617  ASP618  TYR619  PRO620  LYS621  CYS622 
 ASP623  PHE694  ASN695  SER759  ASP760  ASP761  ALA762  ILE779  LEU786  VAL792 
 PHE793  MET794  SER795  GLU796  ALA797  LYS798  CYS799  TRP800  GLU811  SER814 

> <Gold.Protein.RotatedAtoms>
  151.3761  133.3837  159.2704 H   0  0  0  0  0  0  0  0  0  0  0  0  # atno 6907 bound_to 6896
  150.9613  134.9002  159.7743 H   0  0  0  0  0  0  0  0  0  0  0  0  # atno 6908 bound_to 6896
  152.5150  134.3720  159.9373 H   0  0  0  0  0  0  0  0  0  0  0  0  # atno 6909 bound_to 6896
  144.7326  139.9191  143.6419 H   0  0  0  0  0  0  0  0  0  0  0  0  # atno 7974 bound_to 7965
  155.3004  140.0452  157.3029 H   0  0  0  0  0  0  0  0  0  0  0  0  # atno 8008 bound_to 7997
  154.5490  140.2311  155.8483 H   0  0  0  0  0  0  0  0  0  0  0  0  # atno 8009 bound_to 7997
  156.1950  140.3041  155.9415 H   0  0  0  0  0  0  0  0  0  0  0  0  # atno 8010 bound_to 7997
  140.4012  143.2662  151.9139 H   0  0  0  0  0  0  0  0  0  0  0  0  # atno 10167 bound_to 10162
  157.3897  130.7800  149.7260 H   0  0  0  0  0  0  0  0  0  0  0  0  # atno 10718 bound_to 10713
  153.2031  135.4415  155.0290 H   0  0  0  0  0  0  0  0  0  0  0  0  # atno 10763 bound_to 10752
  154.8158  135.3314  154.7182 H   0  0  0  0  0  0  0  0  0  0  0  0  # atno 10764 bound_to 10752
  153.7625  135.6990  153.4978 H   0  0  0  0  0  0  0  0  0  0  0  0  # atno 10765 bound_to 10752
  140.0527  134.5714  155.9244 H   0  0  0  0  0  0  0  0  0  0  0  0  # atno 11005 bound_to 11000
  146.0943  139.3935  143.0386 LP  0  0  0  0  0  0  0  0  0  0  0  0  # atno 17320 bound_to 7965
  145.7667  140.9913  143.1171 LP  0  0  0  0  0  0  0  0  0  0  0  0  # atno 17321 bound_to 7965
  139.4784  144.5631  151.8208 LP  0  0  0  0  0  0  0  0  0  0  0  0  # atno 17342 bound_to 10162
  140.4737  144.1550  150.5922 LP  0  0  0  0  0  0  0  0  0  0  0  0  # atno 17343 bound_to 10162
  155.9795  130.4039  150.3582 LP  0  0  0  0  0  0  0  0  0  0  0  0  # atno 17370 bound_to 10713
  157.1696  131.0365  151.2802 LP  0  0  0  0  0  0  0  0  0  0  0  0  # atno 17371 bound_to 10713
  141.1938  133.6580  156.5563 LP  0  0  0  0  0  0  0  0  0  0  0  0  # atno 17394 bound_to 11000
  140.3892  134.7455  157.4711 LP  0  0  0  0  0  0  0  0  0  0  0  0  # atno 17395 bound_to 11000

$$$$
