AV-unprocessed.smi:101|AV-procd|sdf|933|dock4
  -GOLD-   2262017453D 1   1.00000     0.00000
 Structure written by MMmdl.
 43 45  0  0  0  0  0  0  0  0  2 V2000
  151.3588  136.8198  155.9393 C   0  0  0  0  0  0  0  0  0  0  0  0
  150.7598  138.1154  155.4200 C   0  0  0  0  0  0  0  0  0  0  0  0
  149.4575  138.2207  155.0734 C   0  0  0  0  0  0  0  0  0  0  0  0
  148.9141  139.4029  154.5948 N   0  0  0  0  0  0  0  0  0  0  0  0
  147.4429  139.5262  154.2273 C   0  0  2  0  0  0  0  0  0  0  0  0
  146.7281  138.4336  154.7227 O   0  0  0  0  0  0  0  0  0  0  0  0
  146.6269  137.4345  153.7175 C   0  0  1  0  0  0  0  0  0  0  0  0
  145.4545  136.5002  154.0416 C   0  0  0  0  0  0  0  0  0  0  0  0
  145.4873  135.3827  153.1689 O   0  0  0  0  0  0  0  0  0  0  0  0
  144.7619  135.3865  152.0344 C   0  0  0  0  0  0  0  0  0  0  0  0
  143.9789  136.2880  151.7279 O   0  0  0  0  0  0  0  0  0  0  0  0
  145.0055  134.1828  151.1880 C   0  0  0  0  0  0  0  0  0  0  0  0
  146.2572  133.5276  151.2580 C   0  0  0  0  0  0  0  0  0  0  0  0
  146.5169  132.3910  150.4677 C   0  0  0  0  0  0  0  0  0  0  0  0
  145.5284  131.8955  149.5977 C   0  0  0  0  0  0  0  0  0  0  0  0
  144.2787  132.5374  149.5200 C   0  0  0  0  0  0  0  0  0  0  0  0
  144.0164  133.6737  150.3101 C   0  0  0  0  0  0  0  0  0  0  0  0
  146.4520  138.2434  152.4307 C   0  0  2  0  0  0  0  0  0  0  0  0
  146.9994  137.5404  151.3326 O   0  0  0  0  0  0  0  0  0  0  0  0
  147.2416  139.5255  152.6942 C   0  0  1  0  0  0  0  0  0  0  0  0
  146.4943  140.6474  152.2694 O   0  0  0  0  0  0  0  0  0  0  0  0
  149.7331  140.5615  154.5208 C   0  0  0  0  0  0  0  0  0  0  0  0
  149.2118  141.6145  154.1535 O   0  0  0  0  0  0  0  0  0  0  0  0
  151.0499  140.4628  154.8590 N   0  5  0  0  0  0  0  0  0  0  0  0
  151.6152  139.3008  155.2933 C   0  0  0  0  0  0  0  0  0  0  0  0
  152.8088  139.2219  155.5824 O   0  0  0  0  0  0  0  0  0  0  0  0
  150.6089  136.0303  155.9971 H   0  0  0  0  0  0  0  0  0  0  0  0
  151.7745  136.9645  156.9369 H   0  0  0  0  0  0  0  0  0  0  0  0
  152.1569  136.4797  155.2790 H   0  0  0  0  0  0  0  0  0  0  0  0
  148.8351  137.3473  155.1873 H   0  0  0  0  0  0  0  0  0  0  0  0
  147.1114  140.4385  154.7268 H   0  0  0  0  0  0  0  0  0  0  0  0
  147.5613  136.8716  153.6900 H   0  0  0  0  0  0  0  0  0  0  0  0
  145.5320  136.1482  155.0709 H   0  0  0  0  0  0  0  0  0  0  0  0
  144.5085  137.0355  153.9488 H   0  0  0  0  0  0  0  0  0  0  0  0
  147.0322  133.8902  151.9178 H   0  0  0  0  0  0  0  0  0  0  0  0
  147.4766  131.8992  150.5294 H   0  0  0  0  0  0  0  0  0  0  0  0
  145.7287  131.0247  148.9910 H   0  0  0  0  0  0  0  0  0  0  0  0
  143.5186  132.1577  148.8532 H   0  0  0  0  0  0  0  0  0  0  0  0
  143.0462  134.1416  150.2264 H   0  0  0  0  0  0  0  0  0  0  0  0
  145.3962  138.4573  152.2561 H   0  0  0  0  0  0  0  0  0  0  0  0
  147.5314  136.8347  151.6670 H   0  0  0  0  0  0  0  0  0  0  0  0
  148.2072  139.5151  152.1858 H   0  0  0  0  0  0  0  0  0  0  0  0
  145.6029  140.5417  152.5640 H   0  0  0  0  0  0  0  0  0  0  0  0
  1  2  1  0  0  0  0
  1 27  1  0  0  0  0
  1 28  1  0  0  0  0
  1 29  1  0  0  0  0
  2 25  1  0  0  0  0
  2  3  2  0  0  0  0
  3  4  1  0  0  0  0
  3 30  1  0  0  0  0
  4  5  1  0  0  0  0
  4 22  1  0  0  0  0
  5 20  1  0  0  0  0
  5  6  1  0  0  0  0
  5 31  1  0  0  0  0
  6  7  1  0  0  0  0
  7  8  1  0  0  0  0
  7 18  1  0  0  0  0
  7 32  1  0  0  0  0
  8  9  1  0  0  0  0
  8 33  1  0  0  0  0
  8 34  1  0  0  0  0
  9 10  1  0  0  0  0
 10 11  2  0  0  0  0
 10 12  1  0  0  0  0
 12 17  1  0  0  0  0
 12 13  2  0  0  0  0
 13 14  1  0  0  0  0
 13 35  1  0  0  0  0
 14 15  2  0  0  0  0
 14 36  1  0  0  0  0
 15 16  1  0  0  0  0
 15 37  1  0  0  0  0
 16 17  2  0  0  0  0
 16 38  1  0  0  0  0
 17 39  1  0  0  0  0
 18 19  1  0  0  0  0
 18 20  1  0  0  0  0
 18 40  1  0  0  0  0
 19 41  1  0  0  0  0
 20 21  1  0  0  0  0
 20 42  1  0  0  0  0
 21 43  1  0  0  0  0
 22 23  2  0  0  0  0
 22 24  1  0  0  0  0
 24 25  1  0  0  0  0
 25 26  2  0  0  0  0
M  CHG  1  24  -1
M  END
> <s_m_source_file>
AV-unprocessed.smi

> <i_m_source_file_index>
101

> <i_lp_mmshare_version>
43012

> <i_f3d_flags>
0

> <s_epik_input>
Tz1jMVtuSF1jKD1PKW4oW2NIXWMxW0NIM10pW0NAQEhdMk9bQ0BIXShbQ0BASF0oW09IXSlbQ0BIXTJbT0hdKVtDSDJdT0MoPU8pYzNbY0hdW2NIXVtjSF1bY0hdW2NIXTM=

> <s_epik_cmdline>
J2VwaWtfcHl0aG9uJywgJy1waCcsICc3LjAnLCAnLXRuJywgJzgnLCAnLW1hJywgJzIwMCcsICctbWV0YWxfYmluZGluZycsICctaW1hZScsICc8aW5maWxlLm1hZT4nLCAnLW9tYWUnLCAnPG91dGZpbGUubWFlPic=

> <r_lp_tautomer_probability>
0.999537

> <r_epik_Ionization_Penalty>
3.21006

> <r_epik_Ionization_Penalty_Charging>
5.75142e-08

> <r_epik_Ionization_Penalty_Neutral>
3.21006

> <r_epik_State_Penalty>
3.20925

> <r_epik_Charging_Adjusted_Penalty>
3.20925

> <i_epik_Tot_Q>
-1

> <i_epik_Tot_abs_Q>
1

> <r_epik_Metal_State_Penalty>
0.119957

> <b_epik_Metal_Only>
1

> <s_epik_Chemistry_Notes>
This compound has an ester and may undergo hydrolysis at high or low pH. This compound contains an acetal/aminal-like group ( X-CH(R)-Y where X, Y are N, S, or O) that may be acid/base labile, releasing an aldehyde.

> <s_lp_Force_Field>
OPLS_2005

> <r_lp_Energy>
40.7876

> <b_lp_Chiralities_Consistent>
1

> <s_lp_Variant>
AV-unprocessed.smi:101-21

> <Gold.Version>
5.8.1

> <Gold.Id.Protein>
6NUR|6NUR_protein|mol2

> <Gold.PLP.Fitness>
50.8986

> <Gold.PLP.PLP>
-37.6399

> <Gold.PLP.part.hbond>
-6.0988

> <Gold.PLP.part.metal>
0.0000

> <Gold.PLP.part.buried>
0.2362

> <Gold.PLP.part.nonpolar>
-33.4421

> <Gold.PLP.part.repulsive>
1.2580

> <Gold.PLP.ligand.clash>
0.0000

> <Gold.PLP.ligand.torsion>
1.0876

> <Gold.PLP.Chemscore.Hbond>
5.1199

> <Gold.PLP.Chemscore.CHOScore>
0.0000

> <Gold.PLP.Chemscore.Metal>
0.0000

> <Gold.Chemscore.Hbonds>
donor molecule, donor type, donor heavy atom, donor atom, acceptor molecule, acceptor atom, score
      L1  H    19    41       P1  7948  0.94
      L1  H    21    43       P1 10175  1.00
      P1  H  7954  7966       L1    19  0.65
      P1  H  7989  7998       L1    24  0.90
      P1  H  7997  8010       L1    26  1.00
      P1  H  8011  8017       L1    23  0.54

> <Gold.PLP.Chemscore.Internal.Correction>
0.0741

> <Gold.Rescore>
     Score         DG    S(hbond)    S(metal)    S(lipo)     H(rot)  DE(clash)    DE(int)     intcor
     17.11     -18.74       3.59        0.00      82.29       3.27       0.80       0.82       ----

> <Gold.Chemscore.Fitness>
17.1113

> <Gold.Chemscore.DG>
-18.7368

> <Gold.Chemscore.ZeroCoef>
-5.4800

> <Gold.Chemscore.Hbond>
3.5896

> <Gold.Chemscore.Metal>
0.0000

> <Gold.Chemscore.Lipo>
82.2863

> <Gold.Chemscore.Internal_Hbond>
0.0000

> <Gold.Chemscore.DEClash>
0.8018

> <Gold.Chemscore.DEInternal>
0.8237

> <Gold.Chemscore.Rot>
3.2656

> <Gold.Chemscore.Internal.Correction>
   9.000000E+99

> <Gold.Chemscore.Hbonds>
donor molecule, donor type, donor heavy atom, donor atom, acceptor molecule, acceptor atom, score
      L1  H    19    41       P1  7948  0.84
      L1  H    21    43       P1 10175  0.49
      P1  H  7954  7966       L1    19  0.06
      P1  H  7989  7998       L1    24  0.13
      P1  H  7997  8010       L1    26  1.00
      P1  H  8011  8017       L1    23  0.51

> <Gold.Chemscore.Hbond.Weighted>
-11.9891

> <Gold.Chemscore.Metal.Weighted>
-0.0000

> <Gold.Chemscore.Lipo.Weighted>
-9.6275

> <Gold.Chemscore.Internal_Hbond.Weighted>
0.0000

> <Gold.Chemscore.DEClash.Weighted>
0.8018

> <Gold.Chemscore.DEInternal.Weighted>
0.8237

> <Gold.Chemscore.Rot.Weighted>
8.3598

> <Gold.Chemscore.Internal.Correction.Weighted>
   9.000000E+99

> <Gold.Protein.RotatedTorsions>
[ 6907 6896 6895 6894 ] final  -80.81 input  -60.11 | X-H torsion
[ 7974 7965 7964 7962 ] final  -32.24 input  175.53 | X-H torsion
[ 8008 7997 7996 7995 ] final   81.13 input   59.86 | X-H torsion
[ 10167 10162 10161 10158 ] final   21.71 input  -65.29 | X-H torsion
[ 10718 10713 10712 10709 ] final -114.38 input   66.30 | X-H torsion
[ 10763 10752 10751 10750 ] final  -47.28 input  -60.55 | X-H torsion
[ 11005 11000 10999 10996 ] final  133.34 input  -57.11 | X-H torsion

> <Gold.Protein.ActiveResidues>
 VAL166  LYS551  ARG553  GLY616  TRP617  ASP618  TYR619  PRO620  LYS621  CYS622 
 ASP623  PHE694  ASN695  SER759  ASP760  ASP761  ALA762  ILE779  LEU786  VAL792 
 PHE793  MET794  SER795  GLU796  ALA797  LYS798  CYS799  TRP800  GLU811  SER814 

> <Gold.Protein.RotatedAtoms>
  150.6922  134.3912  159.5077 H   0  0  0  0  0  0  0  0  0  0  0  0  # atno 6907 bound_to 6896
  152.1700  134.8839  160.0544 H   0  0  0  0  0  0  0  0  0  0  0  0  # atno 6908 bound_to 6896
  151.9869  133.3742  159.4166 H   0  0  0  0  0  0  0  0  0  0  0  0  # atno 6909 bound_to 6896
  146.1005  140.5767  142.8823 H   0  0  0  0  0  0  0  0  0  0  0  0  # atno 7974 bound_to 7965
  155.8930  140.3438  155.5970 H   0  0  0  0  0  0  0  0  0  0  0  0  # atno 8008 bound_to 7997
  155.7589  140.0830  157.2184 H   0  0  0  0  0  0  0  0  0  0  0  0  # atno 8009 bound_to 7997
  154.4035  140.1539  156.2797 H   0  0  0  0  0  0  0  0  0  0  0  0  # atno 8010 bound_to 7997
  140.5405  143.9685  150.6516 H   0  0  0  0  0  0  0  0  0  0  0  0  # atno 10167 bound_to 10162
  156.0827  130.6024  150.8768 H   0  0  0  0  0  0  0  0  0  0  0  0  # atno 10718 bound_to 10713
  154.0588  135.6621  153.4809 H   0  0  0  0  0  0  0  0  0  0  0  0  # atno 10763 bound_to 10752
  153.0435  135.5130  154.7679 H   0  0  0  0  0  0  0  0  0  0  0  0  # atno 10764 bound_to 10752
  154.6709  135.3029  154.9710 H   0  0  0  0  0  0  0  0  0  0  0  0  # atno 10765 bound_to 10752
  139.9845  134.9537  156.9710 H   0  0  0  0  0  0  0  0  0  0  0  0  # atno 11005 bound_to 11000
  144.7429  140.4991  143.6856 LP  0  0  0  0  0  0  0  0  0  0  0  0  # atno 17320 bound_to 7965
  145.5863  139.1492  143.3207 LP  0  0  0  0  0  0  0  0  0  0  0  0  # atno 17321 bound_to 7965
  140.3084  143.3214  152.0903 LP  0  0  0  0  0  0  0  0  0  0  0  0  # atno 17342 bound_to 10162
  139.4987  144.6652  151.6373 LP  0  0  0  0  0  0  0  0  0  0  0  0  # atno 17343 bound_to 10162
  157.5949  131.0943  150.9057 LP  0  0  0  0  0  0  0  0  0  0  0  0  # atno 17370 bound_to 10713
  156.9225  130.5320  149.5279 LP  0  0  0  0  0  0  0  0  0  0  0  0  # atno 17371 bound_to 10713
  140.5029  134.1079  155.7254 LP  0  0  0  0  0  0  0  0  0  0  0  0  # atno 17394 bound_to 11000
  141.1512  133.8964  157.2092 LP  0  0  0  0  0  0  0  0  0  0  0  0  # atno 17395 bound_to 11000

$$$$
