AV-unprocessed.smi:2019|AV-procd|sdf|8172|dock8
  -GOLD-   2272010423D 1   1.00000     0.00000
 Structure written by MMmdl.
 36 37  0  0  0  0  0  0  0  0  1 V2000
  150.6517  141.2688  158.2197 O   0  0  0  0  0  0  0  0  0  0  0  0
  150.6141  142.3574  157.6446 C   0  0  0  0  0  0  0  0  0  0  0  0
  151.1758  143.6180  158.3154 C   0  0  0  0  0  0  0  0  0  0  0  0
  151.8342  143.3389  159.6024 N   0  0  0  0  0  0  0  0  0  0  0  0
  152.9623  142.4945  159.5782 C   0  0  0  0  0  0  0  0  0  0  0  0
  153.6385  142.1808  160.6948 C   0  0  0  0  0  0  0  0  0  0  0  0
  153.1818  142.7345  161.9476 C   0  0  0  0  0  0  0  0  0  0  0  0
  152.1051  143.5446  161.9816 C   0  0  0  0  0  0  0  0  0  0  0  0
  151.3631  143.8906  160.7636 C   0  0  0  0  0  0  0  0  0  0  0  0
  150.3788  144.6300  160.7857 O   0  0  0  0  0  0  0  0  0  0  0  0
  150.0779  142.5272  156.4256 N   0  0  0  0  0  0  0  0  0  0  0  0
  149.5112  141.4652  155.5911 C   0  0  1  0  0  0  0  0  0  0  0  0
  148.1660  141.9794  155.0286 C   0  0  0  0  0  0  0  0  0  0  0  0
  147.2047  140.8580  154.5967 C   0  0  0  0  0  0  0  0  0  0  0  0
  147.6903  140.0063  153.4138 C   0  0  0  0  0  0  0  0  0  0  0  0
  148.9874  139.2310  153.7013 C   0  0  0  0  0  0  0  0  0  0  0  0
  150.1651  140.0855  153.6232 N   0  0  0  0  0  0  0  0  0  0  0  0
  150.4588  141.1276  154.4154 C   0  0  0  0  0  0  0  0  0  0  0  0
  151.4646  141.8047  154.2030 O   0  0  0  0  0  0  0  0  0  0  0  0
  151.8749  144.1143  157.6391 H   0  0  0  0  0  0  0  0  0  0  0  0
  150.3556  144.3250  158.4469 H   0  0  0  0  0  0  0  0  0  0  0  0
  153.2429  142.1280  158.6014 H   0  0  0  0  0  0  0  0  0  0  0  0
  154.5033  141.5347  160.6565 H   0  0  0  0  0  0  0  0  0  0  0  0
  153.7066  142.4992  162.8617 H   0  0  0  0  0  0  0  0  0  0  0  0
  151.7785  143.9505  162.9280 H   0  0  0  0  0  0  0  0  0  0  0  0
  150.0921  143.4554  156.0288 H   0  0  0  0  0  0  0  0  0  0  0  0
  149.3464  140.5791  156.2070 H   0  0  0  0  0  0  0  0  0  0  0  0
  147.6549  142.5558  155.8014 H   0  0  0  0  0  0  0  0  0  0  0  0
  148.3270  142.6774  154.2046 H   0  0  0  0  0  0  0  0  0  0  0  0
  146.9999  140.2096  155.4497 H   0  0  0  0  0  0  0  0  0  0  0  0
  146.2471  141.3059  154.3293 H   0  0  0  0  0  0  0  0  0  0  0  0
  146.9063  139.2882  153.1705 H   0  0  0  0  0  0  0  0  0  0  0  0
  147.8114  140.6279  152.5252 H   0  0  0  0  0  0  0  0  0  0  0  0
  148.9418  138.7269  154.6677 H   0  0  0  0  0  0  0  0  0  0  0  0
  149.1096  138.4476  152.9530 H   0  0  0  0  0  0  0  0  0  0  0  0
  150.8107  139.8864  152.8724 H   0  0  0  0  0  0  0  0  0  0  0  0
  1  2  2  0  0  0  0
  2  3  1  0  0  0  0
  2 11  1  0  0  0  0
  3  4  1  0  0  0  0
  3 20  1  0  0  0  0
  3 21  1  0  0  0  0
  4  9  1  0  0  0  0
  4  5  1  0  0  0  0
  5  6  2  0  0  0  0
  5 22  1  0  0  0  0
  6  7  1  0  0  0  0
  6 23  1  0  0  0  0
  7  8  2  0  0  0  0
  7 24  1  0  0  0  0
  8  9  1  0  0  0  0
  8 25  1  0  0  0  0
  9 10  2  0  0  0  0
 11 12  1  0  0  0  0
 11 26  1  0  0  0  0
 12 18  1  0  0  0  0
 12 13  1  0  0  0  0
 12 27  1  0  0  0  0
 13 14  1  0  0  0  0
 13 28  1  0  0  0  0
 13 29  1  0  0  0  0
 14 15  1  0  0  0  0
 14 30  1  0  0  0  0
 14 31  1  0  0  0  0
 15 16  1  0  0  0  0
 15 32  1  0  0  0  0
 15 33  1  0  0  0  0
 16 17  1  0  0  0  0
 16 34  1  0  0  0  0
 16 35  1  0  0  0  0
 17 18  1  0  0  0  0
 17 36  1  0  0  0  0
 18 19  2  0  0  0  0
M  END
> <s_m_source_file>
AV-unprocessed.smi

> <i_m_source_file_index>
2019

> <i_lp_mmshare_version>
43012

> <i_f3d_flags>
0

> <s_epik_input>
Tz1jMVtjSF1bY0hdW2NIXVtjSF1uMVtDSDJdQyg9TylbTkhdW0NAQEhdMltDSDJdW0NIMl1bQ0gyXVtDSDJdW05IXUMyPU8=

> <s_epik_cmdline>
J2VwaWtfcHl0aG9uJywgJy1waCcsICc3LjAnLCAnLXRuJywgJzgnLCAnLW1hJywgJzIwMCcsICctbWV0YWxfYmluZGluZycsICctaW1hZScsICc8aW5maWxlLm1hZT4nLCAnLW9tYWUnLCAnPG91dGZpbGUubWFlPic=

> <r_lp_tautomer_probability>
1

> <r_epik_Ionization_Penalty>
3.70786e-07

> <r_epik_Ionization_Penalty_Charging>
3.17464e-07

> <r_epik_Ionization_Penalty_Neutral>
5.33217e-08

> <r_epik_State_Penalty>
-0

> <r_epik_Charging_Adjusted_Penalty>
3.17464e-07

> <i_epik_Tot_Q>
0

> <i_epik_Tot_abs_Q>
0

> <r_epik_Metal_State_Penalty>
-0

> <b_epik_Metal_Only>
0

> <s_lp_Force_Field>
OPLS_2005

> <r_lp_Energy>
20.0442

> <b_lp_Chiralities_Consistent>
1

> <s_lp_Variant>
AV-unprocessed.smi:2019-2

> <Gold.Version>
5.8.1

> <Gold.Id.Protein>
6NUR|6NUR_protein|mol2

> <Gold.PLP.Fitness>
46.4945

> <Gold.PLP.PLP>
-43.8831

> <Gold.PLP.part.hbond>
-2.7198

> <Gold.PLP.part.metal>
0.0000

> <Gold.PLP.part.buried>
-3.8388

> <Gold.PLP.part.nonpolar>
-37.2891

> <Gold.PLP.part.repulsive>
0.4529

> <Gold.PLP.ligand.clash>
0.0000

> <Gold.PLP.ligand.torsion>
0.1947

> <Gold.PLP.Chemscore.Hbond>
1.0000

> <Gold.PLP.Chemscore.CHOScore>
0.0000

> <Gold.PLP.Chemscore.Metal>
0.0000

> <Gold.Chemscore.Hbonds>
donor molecule, donor type, donor heavy atom, donor atom, acceptor molecule, acceptor atom, score
      L1  H    11    26       P1  8028  0.74
      L1  H    17    36       P1  7957  0.09

> <Gold.PLP.Chemscore.Internal.Correction>
0.0009

> <Gold.Rescore>
     Score         DG    S(hbond)    S(metal)    S(lipo)     H(rot)  DE(clash)    DE(int)     intcor
     14.29     -14.70       0.97        0.00      85.90       1.59       0.03       0.39       ----

> <Gold.Chemscore.Fitness>
14.2889

> <Gold.Chemscore.DG>
-14.7022

> <Gold.Chemscore.ZeroCoef>
-5.4800

> <Gold.Chemscore.Hbond>
0.9736

> <Gold.Chemscore.Metal>
0.0000

> <Gold.Chemscore.Lipo>
85.9044

> <Gold.Chemscore.Internal_Hbond>
0.0000

> <Gold.Chemscore.DEClash>
0.0272

> <Gold.Chemscore.DEInternal>
0.3860

> <Gold.Chemscore.Rot>
1.5939

> <Gold.Chemscore.Internal.Correction>
   9.000000E+99

> <Gold.Chemscore.Hbonds>
donor molecule, donor type, donor heavy atom, donor atom, acceptor molecule, acceptor atom, score
      L1  H    11    26       P1  8028  0.74
      L1  H    17    36       P1  7957  0.07

> <Gold.Chemscore.Hbond.Weighted>
-3.2518

> <Gold.Chemscore.Metal.Weighted>
-0.0000

> <Gold.Chemscore.Lipo.Weighted>
-10.0508

> <Gold.Chemscore.Internal_Hbond.Weighted>
0.0000

> <Gold.Chemscore.DEClash.Weighted>
0.0272

> <Gold.Chemscore.DEInternal.Weighted>
0.3860

> <Gold.Chemscore.Rot.Weighted>
4.0804

> <Gold.Chemscore.Internal.Correction.Weighted>
   9.000000E+99

> <Gold.Protein.RotatedTorsions>
[ 6907 6896 6895 6894 ] final  101.52 input  -60.11 | X-H torsion
[ 7974 7965 7964 7962 ] final  -82.55 input  175.53 | X-H torsion
[ 8008 7997 7996 7995 ] final -113.71 input   59.86 | X-H torsion
[ 10167 10162 10161 10158 ] final  140.55 input  -65.29 | X-H torsion
[ 10718 10713 10712 10709 ] final -133.29 input   66.30 | X-H torsion
[ 10763 10752 10751 10750 ] final -116.70 input  -60.55 | X-H torsion
[ 11005 11000 10999 10996 ] final  -30.31 input  -57.11 | X-H torsion

> <Gold.Protein.ActiveResidues>
 VAL166  LYS551  ARG553  GLY616  TRP617  ASP618  TYR619  PRO620  LYS621  CYS622 
 ASP623  PHE694  ASN695  SER759  ASP760  ASP761  ALA762  ILE779  LEU786  VAL792 
 PHE793  MET794  SER795  GLU796  ALA797  LYS798  CYS799  TRP800  GLU811  SER814 

> <Gold.Protein.RotatedAtoms>
  152.5347  134.0113  159.7939 H   0  0  0  0  0  0  0  0  0  0  0  0  # atno 6907 bound_to 6896
  151.0315  133.5778  159.2667 H   0  0  0  0  0  0  0  0  0  0  0  0  # atno 6908 bound_to 6896
  151.2782  135.0713  159.9213 H   0  0  0  0  0  0  0  0  0  0  0  0  # atno 6909 bound_to 6896
  145.5318  140.9520  143.1599 H   0  0  0  0  0  0  0  0  0  0  0  0  # atno 7974 bound_to 7965
  155.0250  140.0393  157.2452 H   0  0  0  0  0  0  0  0  0  0  0  0  # atno 8008 bound_to 7997
  154.7345  140.2737  155.6403 H   0  0  0  0  0  0  0  0  0  0  0  0  # atno 8009 bound_to 7997
  156.2849  140.2677  156.2055 H   0  0  0  0  0  0  0  0  0  0  0  0  # atno 8010 bound_to 7997
  139.5045  144.6227  151.6012 H   0  0  0  0  0  0  0  0  0  0  0  0  # atno 10167 bound_to 10162
  156.2434  130.7110  151.0980 H   0  0  0  0  0  0  0  0  0  0  0  0  # atno 10718 bound_to 10713
  154.8529  135.4336  154.1863 H   0  0  0  0  0  0  0  0  0  0  0  0  # atno 10763 bound_to 10752
  153.2942  135.6964  153.7270 H   0  0  0  0  0  0  0  0  0  0  0  0  # atno 10764 bound_to 10752
  153.6426  135.3465  155.3050 H   0  0  0  0  0  0  0  0  0  0  0  0  # atno 10765 bound_to 10752
  140.9372  133.7301  156.1022 H   0  0  0  0  0  0  0  0  0  0  0  0  # atno 11005 bound_to 11000
  144.7622  139.6930  143.7230 LP  0  0  0  0  0  0  0  0  0  0  0  0  # atno 17320 bound_to 7965
  146.2039  139.5351  142.9725 LP  0  0  0  0  0  0  0  0  0  0  0  0  # atno 17321 bound_to 7965
  140.5934  143.9739  150.6339 LP  0  0  0  0  0  0  0  0  0  0  0  0  # atno 17342 bound_to 10162
  140.2927  143.3313  152.1047 LP  0  0  0  0  0  0  0  0  0  0  0  0  # atno 17343 bound_to 10162
  157.7185  131.0696  150.6232 LP  0  0  0  0  0  0  0  0  0  0  0  0  # atno 17370 bound_to 10713
  156.6307  130.4431  149.5788 LP  0  0  0  0  0  0  0  0  0  0  0  0  # atno 17371 bound_to 10713
  140.7783  134.3754  157.5493 LP  0  0  0  0  0  0  0  0  0  0  0  0  # atno 17394 bound_to 11000
  139.8811  134.9065  156.2925 LP  0  0  0  0  0  0  0  0  0  0  0  0  # atno 17395 bound_to 11000

$$$$
