AV-unprocessed.smi:3009|AV-procd|sdf|11453|dock3
  -GOLD-   2272016383D 1   1.00000     0.00000
 Structure written by MMmdl.
 43 44  0  0  0  0  0  0  0  0  1 V2000
  151.8341  141.3248  158.5510 C   0  0  0  0  0  0  0  0  0  0  0  0
  151.3515  142.1951  157.3784 C   0  0  0  0  0  0  0  0  0  0  0  0
  151.5109  143.7008  157.6518 C   0  0  0  0  0  0  0  0  0  0  0  0
  149.9518  141.8021  156.8442 C   0  0  0  0  0  0  0  0  0  0  0  0
  149.8930  140.9213  155.6728 N   0  0  0  0  0  0  0  0  0  0  0  0
  150.9460  139.9094  155.6583 C   0  0  0  0  0  0  0  0  0  0  0  0
  150.8263  138.9674  154.4481 C   0  0  0  0  0  0  0  0  0  0  0  0
  149.5353  138.3692  154.4310 O   0  0  0  0  0  0  0  0  0  0  0  0
  148.4831  139.3289  154.3709 C   0  0  1  0  0  0  0  0  0  0  0  0
  147.1391  138.5815  154.3366 C   0  0  0  0  0  0  0  0  0  0  0  0
  147.1359  137.5208  153.3349 N   0  0  0  0  0  0  0  0  0  0  0  0
  146.0417  136.8919  152.8837 C   0  0  0  0  0  0  0  0  0  0  0  0
  144.9030  137.1351  153.2842 O   0  0  0  0  0  0  0  0  0  0  0  0
  146.3540  135.9772  151.9511 N   0  0  0  0  0  0  0  0  0  0  0  0
  145.4640  135.1291  151.2448 C   0  0  0  0  0  0  0  0  0  0  0  0
  145.7388  133.7791  150.8950 C   0  0  0  0  0  0  0  0  0  0  0  0
  144.7258  133.2345  150.2363 N   0  0  0  0  0  0  0  0  0  0  0  0
  143.8075  134.2244  150.1614 N   0  0  0  0  0  0  0  0  0  0  0  0
  144.2138  135.3960  150.7610 C   0  0  0  0  0  0  0  0  0  0  0  0
  148.5963  140.2545  155.5978 C   0  0  0  0  0  0  0  0  0  0  0  0
  142.9181  134.0872  149.7022 H   0  0  0  0  0  0  0  0  0  0  0  0
  151.2430  141.4940  159.4511 H   0  0  0  0  0  0  0  0  0  0  0  0
  152.8739  141.5424  158.7961 H   0  0  0  0  0  0  0  0  0  0  0  0
  151.7694  140.2649  158.3038 H   0  0  0  0  0  0  0  0  0  0  0  0
  152.0367  141.9915  156.5544 H   0  0  0  0  0  0  0  0  0  0  0  0
  150.9308  144.0368  158.5087 H   0  0  0  0  0  0  0  0  0  0  0  0
  151.2014  144.2907  156.7888 H   0  0  0  0  0  0  0  0  0  0  0  0
  152.5538  143.9468  157.8549 H   0  0  0  0  0  0  0  0  0  0  0  0
  149.3493  141.3870  157.6535 H   0  0  0  0  0  0  0  0  0  0  0  0
  149.4583  142.7376  156.5761 H   0  0  0  0  0  0  0  0  0  0  0  0
  151.9234  140.3839  155.6157 H   0  0  0  0  0  0  0  0  0  0  0  0
  150.9134  139.3250  156.5790 H   0  0  0  0  0  0  0  0  0  0  0  0
  150.9948  139.5112  153.5172 H   0  0  0  0  0  0  0  0  0  0  0  0
  151.5818  138.1836  154.5020 H   0  0  0  0  0  0  0  0  0  0  0  0
  148.5912  139.9246  153.4626 H   0  0  0  0  0  0  0  0  0  0  0  0
  146.9342  138.1351  155.3101 H   0  0  0  0  0  0  0  0  0  0  0  0
  146.3226  139.2778  154.1376 H   0  0  0  0  0  0  0  0  0  0  0  0
  148.0307  137.2610  152.9464 H   0  0  0  0  0  0  0  0  0  0  0  0
  147.3318  135.8783  151.7204 H   0  0  0  0  0  0  0  0  0  0  0  0
  146.6214  133.1886  151.0932 H   0  0  0  0  0  0  0  0  0  0  0  0
  143.5929  136.2795  150.7841 H   0  0  0  0  0  0  0  0  0  0  0  0
  148.4279  139.6739  156.5065 H   0  0  0  0  0  0  0  0  0  0  0  0
  147.8021  141.0011  155.5549 H   0  0  0  0  0  0  0  0  0  0  0  0
  1  2  1  0  0  0  0
  1 22  1  0  0  0  0
  1 23  1  0  0  0  0
  1 24  1  0  0  0  0
  2  3  1  0  0  0  0
  2  4  1  0  0  0  0
  2 25  1  0  0  0  0
  3 26  1  0  0  0  0
  3 27  1  0  0  0  0
  3 28  1  0  0  0  0
  4  5  1  0  0  0  0
  4 29  1  0  0  0  0
  4 30  1  0  0  0  0
  5 20  1  0  0  0  0
  5  6  1  0  0  0  0
  6  7  1  0  0  0  0
  6 31  1  0  0  0  0
  6 32  1  0  0  0  0
  7  8  1  0  0  0  0
  7 33  1  0  0  0  0
  7 34  1  0  0  0  0
  8  9  1  0  0  0  0
  9 10  1  0  0  0  0
  9 20  1  0  0  0  0
  9 35  1  0  0  0  0
 10 11  1  0  0  0  0
 10 36  1  0  0  0  0
 10 37  1  0  0  0  0
 11 12  1  0  0  0  0
 11 38  1  0  0  0  0
 12 13  2  0  0  0  0
 12 14  1  0  0  0  0
 14 15  1  0  0  0  0
 14 39  1  0  0  0  0
 15 19  2  0  0  0  0
 15 16  1  0  0  0  0
 16 17  2  0  0  0  0
 16 40  1  0  0  0  0
 17 18  1  0  0  0  0
 18 21  1  0  0  0  0
 18 19  1  0  0  0  0
 19 41  1  0  0  0  0
 20 42  1  0  0  0  0
 20 43  1  0  0  0  0
M  END
> <s_m_source_file>
AV-unprocessed.smi

> <i_m_source_file_index>
3009

> <i_lp_mmshare_version>
43012

> <i_f3d_flags>
0

> <s_epik_input>
W0NIM11bQ0hdKFtDSDNdKVtDSDJdTjFbQ0gyXVtDSDJdT1tDQEhdKFtDSDJdMSlbQ0gyXVtOSF1DKD1PKVtOSF1jMltjSF1uW25IXVtjSF0y

> <s_epik_cmdline>
J2VwaWtfcHl0aG9uJywgJy1waCcsICc3LjAnLCAnLXRuJywgJzgnLCAnLW1hJywgJzIwMCcsICctbWV0YWxfYmluZGluZycsICctaW1hZScsICc8aW5maWxlLm1hZT4nLCAnLW9tYWUnLCAnPG91dGZpbGUubWFlPic=

> <r_lp_tautomer_probability>
0.5

> <r_epik_Ionization_Penalty>
1.11801

> <r_epik_Ionization_Penalty_Charging>
0

> <r_epik_Ionization_Penalty_Neutral>
1.11801

> <r_epik_State_Penalty>
1.17654

> <r_epik_Charging_Adjusted_Penalty>
1.17654

> <i_epik_Tot_Q>
0

> <i_epik_Tot_abs_Q>
0

> <r_epik_Metal_State_Penalty>
1.17654

> <b_epik_Metal_Only>
0

> <s_lp_Force_Field>
OPLS_2005

> <r_lp_Energy>
30.4002

> <b_lp_Chiralities_Consistent>
1

> <s_lp_Variant>
AV-unprocessed.smi:3009-5

> <Gold.Version>
5.8.1

> <Gold.Id.Protein>
6NUR|6NUR_protein|mol2

> <Gold.PLP.Fitness>
39.3316

> <Gold.PLP.PLP>
-29.7946

> <Gold.PLP.part.hbond>
-3.0000

> <Gold.PLP.part.metal>
0.0000

> <Gold.PLP.part.buried>
-5.7291

> <Gold.PLP.part.nonpolar>
-22.5783

> <Gold.PLP.part.repulsive>
0.6794

> <Gold.PLP.ligand.clash>
0.0000

> <Gold.PLP.ligand.torsion>
1.2481

> <Gold.PLP.Chemscore.Hbond>
2.9920

> <Gold.PLP.Chemscore.CHOScore>
1.0000

> <Gold.PLP.Chemscore.Metal>
0.0000

> <Gold.Chemscore.Hbonds>
donor molecule, donor type, donor heavy atom, donor atom, acceptor molecule, acceptor atom, score
      L1  H    11    38       P1  7948  0.98
      L1  H    14    39       P1  7948  1.00
      L1  H    18    21       P1 10186  1.00
      L1  C    19    41       P1 10171  1.00

> <Gold.PLP.Chemscore.Internal.Correction>
0.0573

> <Gold.Rescore>
     Score         DG    S(hbond)    S(metal)    S(lipo)     H(rot)  DE(clash)    DE(int)     intcor
     18.34     -19.71       2.94        0.00      76.19       1.76       0.01       1.36       ----

> <Gold.Chemscore.Fitness>
18.3410

> <Gold.Chemscore.DG>
-19.7081

> <Gold.Chemscore.ZeroCoef>
-5.4800

> <Gold.Chemscore.Hbond>
2.9376

> <Gold.Chemscore.Metal>
0.0000

> <Gold.Chemscore.Lipo>
76.1881

> <Gold.Chemscore.Internal_Hbond>
0.0000

> <Gold.Chemscore.DEClash>
0.0067

> <Gold.Chemscore.DEInternal>
1.3604

> <Gold.Chemscore.Rot>
1.7568

> <Gold.Chemscore.Internal.Correction>
   9.000000E+99

> <Gold.Chemscore.Hbonds>
donor molecule, donor type, donor heavy atom, donor atom, acceptor molecule, acceptor atom, score
      L1  H    11    38       P1  7948  0.93
      L1  H    14    39       P1  7948  0.98
      L1  H    18    21       P1 10186  0.95

> <Gold.Chemscore.Hbond.Weighted>
-9.8115

> <Gold.Chemscore.Metal.Weighted>
-0.0000

> <Gold.Chemscore.Lipo.Weighted>
-8.9140

> <Gold.Chemscore.Internal_Hbond.Weighted>
0.0000

> <Gold.Chemscore.DEClash.Weighted>
0.0067

> <Gold.Chemscore.DEInternal.Weighted>
1.3604

> <Gold.Chemscore.Rot.Weighted>
4.4974

> <Gold.Chemscore.Internal.Correction.Weighted>
   9.000000E+99

> <Gold.Protein.RotatedTorsions>
[ 6907 6896 6895 6894 ] final  171.34 input  -60.11 | X-H torsion
[ 7974 7965 7964 7962 ] final   24.50 input  175.53 | X-H torsion
[ 8008 7997 7996 7995 ] final   25.46 input   59.86 | X-H torsion
[ 10167 10162 10161 10158 ] final  138.07 input  -65.29 | X-H torsion
[ 10718 10713 10712 10709 ] final   71.08 input   66.30 | X-H torsion
[ 10763 10752 10751 10750 ] final   52.51 input  -60.55 | X-H torsion
[ 11005 11000 10999 10996 ] final   79.67 input  -57.11 | X-H torsion

> <Gold.Protein.ActiveResidues>
 VAL166  LYS551  ARG553  GLY616  TRP617  ASP618  TYR619  PRO620  LYS621  CYS622 
 ASP623  PHE694  ASN695  SER759  ASP760  ASP761  ALA762  ILE779  LEU786  VAL792 
 PHE793  MET794  SER795  GLU796  ALA797  LYS798  CYS799  TRP800  GLU811  SER814 

> <Gold.Protein.RotatedAtoms>
  151.8018  133.3371  159.3528 H   0  0  0  0  0  0  0  0  0  0  0  0  # atno 6907 bound_to 6896
  150.7356  134.5747  159.5917 H   0  0  0  0  0  0  0  0  0  0  0  0  # atno 6908 bound_to 6896
  152.3138  134.7466  160.0381 H   0  0  0  0  0  0  0  0  0  0  0  0  # atno 6909 bound_to 6896
  146.1935  139.7597  142.8815 H   0  0  0  0  0  0  0  0  0  0  0  0  # atno 7974 bound_to 7965
  155.0121  140.3138  155.4825 H   0  0  0  0  0  0  0  0  0  0  0  0  # atno 8008 bound_to 7997
  156.2907  140.2212  156.5178 H   0  0  0  0  0  0  0  0  0  0  0  0  # atno 8009 bound_to 7997
  154.7525  140.0465  157.0893 H   0  0  0  0  0  0  0  0  0  0  0  0  # atno 8010 bound_to 7997
  139.5123  144.6374  151.5660 H   0  0  0  0  0  0  0  0  0  0  0  0  # atno 10167 bound_to 10162
  157.6433  130.9510  150.0739 H   0  0  0  0  0  0  0  0  0  0  0  0  # atno 10718 bound_to 10713
  152.9789  135.5810  154.4591 H   0  0  0  0  0  0  0  0  0  0  0  0  # atno 10763 bound_to 10752
  154.4169  135.2771  155.2002 H   0  0  0  0  0  0  0  0  0  0  0  0  # atno 10764 bound_to 10752
  154.3768  135.6155  153.5823 H   0  0  0  0  0  0  0  0  0  0  0  0  # atno 10765 bound_to 10752
  139.9164  134.7860  156.1808 H   0  0  0  0  0  0  0  0  0  0  0  0  # atno 11005 bound_to 11000
  145.3719  141.0344  143.3226 LP  0  0  0  0  0  0  0  0  0  0  0  0  # atno 17320 bound_to 7965
  144.8532  139.5289  143.6846 LP  0  0  0  0  0  0  0  0  0  0  0  0  # atno 17321 bound_to 7965
  140.6128  143.9404  150.6466 LP  0  0  0  0  0  0  0  0  0  0  0  0  # atno 17342 bound_to 10162
  140.2652  143.3495  152.1287 LP  0  0  0  0  0  0  0  0  0  0  0  0  # atno 17343 bound_to 10162
  156.1735  130.3647  149.9132 LP  0  0  0  0  0  0  0  0  0  0  0  0  # atno 17370 bound_to 10713
  156.7102  130.8967  151.3608 LP  0  0  0  0  0  0  0  0  0  0  0  0  # atno 17371 bound_to 10713
  141.0643  133.6826  156.2014 LP  0  0  0  0  0  0  0  0  0  0  0  0  # atno 17394 bound_to 11000
  140.6610  134.4967  157.5583 LP  0  0  0  0  0  0  0  0  0  0  0  0  # atno 17395 bound_to 11000

$$$$
