AV-unprocessed.smi:38|AV-procd|sdf|350|dock5
  -GOLD-   2262016193D 1   1.00000     0.00000
 Structure written by MMmdl.
 27 28  0  0  0  0  0  0  0  0  2 V2000
  151.6816  134.9503  157.3232 O   0  0  0  0  0  0  0  0  0  0  0  0
  151.6910  136.1482  157.0444 C   0  0  0  0  0  0  0  0  0  0  0  0
  152.6243  136.7080  156.2214 N   0  5  0  0  0  0  0  0  0  0  0  0
  152.6324  138.0379  155.9122 C   0  0  0  0  0  0  0  0  0  0  0  0
  153.4822  138.5536  155.1857 O   0  0  0  0  0  0  0  0  0  0  0  0
  151.6221  138.8773  156.4573 N   0  0  0  0  0  0  0  0  0  0  0  0
  151.6277  140.3544  156.1218 C   0  0  2  0  0  0  0  0  0  0  0  0
  151.0436  141.1654  157.2814 C   0  0  0  0  0  0  0  0  0  0  0  0
  149.6029  141.3309  156.8452 C   0  0  1  0  0  0  0  0  0  0  0  0
  149.0217  142.4701  157.4456 O   0  0  0  0  0  0  0  0  0  0  0  0
  149.7514  141.4767  155.3288 C   0  0  2  0  0  0  0  0  0  0  0  0
  148.4817  141.1038  154.5471 C   0  0  0  0  0  0  0  0  0  0  0  0
  148.7576  141.0542  153.1635 O   0  0  0  0  0  0  0  0  0  0  0  0
  150.8162  140.5824  155.0039 O   0  0  0  0  0  0  0  0  0  0  0  0
  150.6689  138.3373  157.3048 C   0  0  0  0  0  0  0  0  0  0  0  0
  150.6681  137.0243  157.6118 C   0  0  0  0  0  0  0  0  0  0  0  0
  149.7305  136.5311  158.4390 F   0  0  0  0  0  0  0  0  0  0  0  0
  152.6615  140.6064  155.8804 H   0  0  0  0  0  0  0  0  0  0  0  0
  149.0286  140.4378  157.0958 H   0  0  0  0  0  0  0  0  0  0  0  0
  150.0715  142.4943  155.0950 H   0  0  0  0  0  0  0  0  0  0  0  0
  151.1634  140.6682  158.2450 H   0  0  0  0  0  0  0  0  0  0  0  0
  151.5569  142.1277  157.3150 H   0  0  0  0  0  0  0  0  0  0  0  0
  148.8856  143.1234  156.7767 H   0  0  0  0  0  0  0  0  0  0  0  0
  148.0661  140.1548  154.8851 H   0  0  0  0  0  0  0  0  0  0  0  0
  147.7140  141.8631  154.6981 H   0  0  0  0  0  0  0  0  0  0  0  0
  148.9629  140.1619  152.9303 H   0  0  0  0  0  0  0  0  0  0  0  0
  149.9089  138.9670  157.7394 H   0  0  0  0  0  0  0  0  0  0  0  0
  1  2  2  0  0  0  0
  2 16  1  0  0  0  0
  2  3  1  0  0  0  0
  3  4  1  0  0  0  0
  4  5  2  0  0  0  0
  4  6  1  0  0  0  0
  6  7  1  0  0  0  0
  6 15  1  0  0  0  0
  7 18  1  0  0  0  0
  7 14  1  0  0  0  0
  7  8  1  0  0  0  0
  8  9  1  0  0  0  0
  8 21  1  0  0  0  0
  8 22  1  0  0  0  0
  9 19  1  0  0  0  0
  9 10  1  0  0  0  0
  9 11  1  0  0  0  0
 10 23  1  0  0  0  0
 11 20  1  0  0  0  0
 11 12  1  0  0  0  0
 11 14  1  0  0  0  0
 12 13  1  0  0  0  0
 12 24  1  0  0  0  0
 12 25  1  0  0  0  0
 13 26  1  0  0  0  0
 15 16  2  0  0  0  0
 15 27  1  0  0  0  0
 16 17  1  0  0  0  0
M  CHG  1   3  -1
M  END
> <s_m_source_file>
AV-unprocessed.smi

> <i_m_source_file_index>
38

> <i_lp_mmshare_version>
43012

> <i_f3d_flags>
0

> <s_epik_input>
Tz1jMVtuSF1jKD1PKW4oW2NIXWMxRilbQ0BIXTJbQ0gyXVtDQEhdKFtPSF0pW0NASF0oTzIpW0NIMl1bT0hd

> <s_epik_cmdline>
J2VwaWtfcHl0aG9uJywgJy1waCcsICc3LjAnLCAnLXRuJywgJzgnLCAnLW1hJywgJzIwMCcsICctbWV0YWxfYmluZGluZycsICctaW1hZScsICc8aW5maWxlLm1hZT4nLCAnLW9tYWUnLCAnPG91dGZpbGUubWFlPic=

> <r_epik_Ionization_Penalty>
1.68146

> <r_epik_Ionization_Penalty_Charging>
3.4211e-08

> <r_epik_Ionization_Penalty_Neutral>
1.68146

> <r_epik_State_Penalty>
1.78593

> <r_epik_Charging_Adjusted_Penalty>
1.78593

> <i_epik_Tot_Q>
-1

> <i_epik_Tot_abs_Q>
1

> <r_epik_Metal_State_Penalty>
0.0113696

> <b_epik_Metal_Only>
0

> <s_epik_Chemistry_Notes>
This compound contains an acetal/aminal-like group ( X-CH(R)-Y where X, Y are N, S, or O) that may be acid/base labile, releasing an aldehyde.

> <s_lp_Force_Field>
OPLS_2005

> <r_lp_Energy>
36.3433

> <b_lp_Chiralities_Consistent>
1

> <s_lp_Variant>
AV-unprocessed.smi:38-16

> <Gold.Version>
5.8.1

> <Gold.Id.Protein>
6NUR|6NUR_protein|mol2

> <Gold.PLP.Fitness>
42.8949

> <Gold.PLP.PLP>
-26.0727

> <Gold.PLP.part.hbond>
-6.8776

> <Gold.PLP.part.metal>
0.0000

> <Gold.PLP.part.buried>
-2.7729

> <Gold.PLP.part.nonpolar>
-16.2700

> <Gold.PLP.part.repulsive>
0.0787

> <Gold.PLP.ligand.clash>
0.0000

> <Gold.PLP.ligand.torsion>
0.7741

> <Gold.PLP.Chemscore.Hbond>
6.1200

> <Gold.PLP.Chemscore.CHOScore>
0.0000

> <Gold.PLP.Chemscore.Metal>
0.0000

> <Gold.Chemscore.Hbonds>
donor molecule, donor type, donor heavy atom, donor atom, acceptor molecule, acceptor atom, score
      L1  H    10    23       P1  8028  1.00
      L1  H    13    26       P1  7957  0.22
      P1  H  7989  7998       L1    14  0.98
      P1  H  7997  8010       L1     5  0.90
      P1  H  8011  8017       L1    13  1.00
      P1  H 10752 10765       L1     3  1.95

> <Gold.PLP.Chemscore.Internal.Correction>
0.0104

> <Gold.Rescore>
     Score         DG    S(hbond)    S(metal)    S(lipo)     H(rot)  DE(clash)    DE(int)     intcor
     16.30     -17.32       4.62        0.00      32.41       2.88       0.25       0.77       ----

> <Gold.Chemscore.Fitness>
16.3013

> <Gold.Chemscore.DG>
-17.3225

> <Gold.Chemscore.ZeroCoef>
-5.4800

> <Gold.Chemscore.Hbond>
4.6190

> <Gold.Chemscore.Metal>
0.0000

> <Gold.Chemscore.Lipo>
32.4065

> <Gold.Chemscore.Internal_Hbond>
0.0000

> <Gold.Chemscore.DEClash>
0.2504

> <Gold.Chemscore.DEInternal>
0.7708

> <Gold.Chemscore.Rot>
2.8815

> <Gold.Chemscore.Internal.Correction>
   9.000000E+99

> <Gold.Chemscore.Hbonds>
donor molecule, donor type, donor heavy atom, donor atom, acceptor molecule, acceptor atom, score
      L1  H    10    23       P1  8028  0.87
      L1  H    13    26       P1  7957  0.22
      P1  H  6896  6907       L1     1  0.01
      P1  H  7989  7998       L1    14  0.82
      P1  H  7997  8010       L1     5  0.77
      P1  H  8011  8017       L1    13  0.90
      P1  H 10752 10765       L1     3  0.65

> <Gold.Chemscore.Hbond.Weighted>
-15.4274

> <Gold.Chemscore.Metal.Weighted>
-0.0000

> <Gold.Chemscore.Lipo.Weighted>
-3.7916

> <Gold.Chemscore.Internal_Hbond.Weighted>
0.0000

> <Gold.Chemscore.DEClash.Weighted>
0.2504

> <Gold.Chemscore.DEInternal.Weighted>
0.7708

> <Gold.Chemscore.Rot.Weighted>
7.3765

> <Gold.Chemscore.Internal.Correction.Weighted>
   9.000000E+99

> <Gold.Protein.RotatedTorsions>
[ 6907 6896 6895 6894 ] final -119.64 input  -60.11 | X-H torsion
[ 7974 7965 7964 7962 ] final   79.44 input  175.53 | X-H torsion
[ 8008 7997 7996 7995 ] final  100.21 input   59.86 | X-H torsion
[ 10167 10162 10161 10158 ] final  122.70 input  -65.29 | X-H torsion
[ 10718 10713 10712 10709 ] final  -77.08 input   66.30 | X-H torsion
[ 10763 10752 10751 10750 ] final -146.43 input  -60.55 | X-H torsion
[ 11005 11000 10999 10996 ] final  -43.75 input  -57.11 | X-H torsion

> <Gold.Protein.ActiveResidues>
 VAL166  LYS551  ARG553  GLY616  TRP617  ASP618  TYR619  PRO620  LYS621  CYS622 
 ASP623  PHE694  ASN695  SER759  ASP760  ASP761  ALA762  ILE779  LEU786  VAL792 
 PHE793  MET794  SER795  GLU796  ALA797  LYS798  CYS799  TRP800  GLU811  SER814 

> <Gold.Protein.RotatedAtoms>
  150.8323  133.8071  159.3093 H   0  0  0  0  0  0  0  0  0  0  0  0  # atno 6907 bound_to 6896
  151.5798  135.1057  160.0024 H   0  0  0  0  0  0  0  0  0  0  0  0  # atno 6908 bound_to 6896
  152.4400  133.7389  159.6686 H   0  0  0  0  0  0  0  0  0  0  0  0  # atno 6909 bound_to 6896
  145.6642  139.2479  143.1905 H   0  0  0  0  0  0  0  0  0  0  0  0  # atno 7974 bound_to 7965
  156.1181  140.3217  155.8168 H   0  0  0  0  0  0  0  0  0  0  0  0  # atno 8008 bound_to 7997
  155.4554  140.0535  157.3014 H   0  0  0  0  0  0  0  0  0  0  0  0  # atno 8009 bound_to 7997
  154.4807  140.2052  155.9784 H   0  0  0  0  0  0  0  0  0  0  0  0  # atno 8010 bound_to 7997
  139.5843  144.7000  151.3449 H   0  0  0  0  0  0  0  0  0  0  0  0  # atno 10167 bound_to 10162
  156.0155  130.4482  150.3291 H   0  0  0  0  0  0  0  0  0  0  0  0  # atno 10718 bound_to 10713
  154.8336  135.3386  154.6661 H   0  0  0  0  0  0  0  0  0  0  0  0  # atno 10763 bound_to 10752
  153.7278  135.6954  153.5001 H   0  0  0  0  0  0  0  0  0  0  0  0  # atno 10764 bound_to 10752
  153.2334  135.4408  155.0573 H   0  0  0  0  0  0  0  0  0  0  0  0  # atno 10765 bound_to 10752
  141.0405  133.6782  156.2776 H   0  0  0  0  0  0  0  0  0  0  0  0  # atno 11005 bound_to 11000
  146.1100  140.7440  142.9508 LP  0  0  0  0  0  0  0  0  0  0  0  0  # atno 17320 bound_to 7965
  144.7078  140.3923  143.7104 LP  0  0  0  0  0  0  0  0  0  0  0  0  # atno 17321 bound_to 7965
  140.7117  143.7373  150.7579 LP  0  0  0  0  0  0  0  0  0  0  0  0  # atno 17342 bound_to 10162
  140.0913  143.4875  152.2477 LP  0  0  0  0  0  0  0  0  0  0  0  0  # atno 17343 bound_to 10162
  157.1389  131.0291  151.2936 LP  0  0  0  0  0  0  0  0  0  0  0  0  # atno 17370 bound_to 10713
  157.4488  130.7586  149.7133 LP  0  0  0  0  0  0  0  0  0  0  0  0  # atno 17371 bound_to 10713
  140.6244  134.5329  157.5552 LP  0  0  0  0  0  0  0  0  0  0  0  0  # atno 17394 bound_to 11000
  139.9272  134.8033  156.1034 LP  0  0  0  0  0  0  0  0  0  0  0  0  # atno 17395 bound_to 11000

$$$$
