AV-unprocessed.smi:2073|AV-procd|sdf|8450|dock9
  -GOLD-   2272011143D 1   1.00000     0.00000
 Structure written by MMmdl.
 28 28  0  0  0  0  0  0  0  0  1 V2000
  152.8106  144.8065  158.0311 C   0  0  0  0  0  0  0  0  0  0  0  0
  151.4381  144.1675  158.3016 C   0  0  0  0  0  0  0  0  0  0  0  0
  151.1320  144.1210  159.8076 C   0  0  0  0  0  0  0  0  0  0  0  0
  151.3617  142.7627  157.6880 C   0  0  0  0  0  0  0  0  0  0  0  0
  152.0721  141.8625  158.1382 O   0  0  0  0  0  0  0  0  0  0  0  0
  150.4944  142.6131  156.6687 N   0  0  0  0  0  0  0  0  0  0  0  0
  150.2228  141.4454  155.9090 C   0  0  0  0  0  0  0  0  0  0  0  0
  151.0202  140.3725  155.8661 N   0  0  0  0  0  0  0  0  0  0  0  0
  150.5188  139.3715  155.0271 C   0  0  0  0  0  0  0  0  0  0  0  0
  151.2840  138.0927  154.8475 C   0  0  0  0  0  0  0  0  0  0  0  0
  150.4753  136.9102  155.3845 C   0  0  0  0  0  0  0  0  0  0  0  0
  150.2261  135.9072  154.5378 N   0  0  0  0  0  0  0  0  0  0  0  0
  150.0830  136.9005  156.5493 O   0  0  0  0  0  0  0  0  0  0  0  0
  149.3181  139.7035  154.4470 C   0  0  0  0  0  0  0  0  0  0  0  0
  148.7772  141.2911  154.9230 S   0  0  0  0  0  0  0  0  0  0  0  0
  153.0338  144.8314  156.9637 H   0  0  0  0  0  0  0  0  0  0  0  0
  153.6137  144.2599  158.5273 H   0  0  0  0  0  0  0  0  0  0  0  0
  152.8394  145.8342  158.3938 H   0  0  0  0  0  0  0  0  0  0  0  0
  150.6802  144.7929  157.8264 H   0  0  0  0  0  0  0  0  0  0  0  0
  150.1617  143.6619  160.0016 H   0  0  0  0  0  0  0  0  0  0  0  0
  151.1077  145.1257  160.2300 H   0  0  0  0  0  0  0  0  0  0  0  0
  151.8853  143.5520  160.3541 H   0  0  0  0  0  0  0  0  0  0  0  0
  149.9738  143.4355  156.4008 H   0  0  0  0  0  0  0  0  0  0  0  0
  151.5209  137.9251  153.7957 H   0  0  0  0  0  0  0  0  0  0  0  0
  152.2390  138.1401  155.3724 H   0  0  0  0  0  0  0  0  0  0  0  0
  149.7045  135.1012  154.8521 H   0  0  0  0  0  0  0  0  0  0  0  0
  150.5689  135.9534  153.5894 H   0  0  0  0  0  0  0  0  0  0  0  0
  148.7234  139.1122  153.7667 H   0  0  0  0  0  0  0  0  0  0  0  0
  1  2  1  0  0  0  0
  1 16  1  0  0  0  0
  1 17  1  0  0  0  0
  1 18  1  0  0  0  0
  2  3  1  0  0  0  0
  2  4  1  0  0  0  0
  2 19  1  0  0  0  0
  3 20  1  0  0  0  0
  3 21  1  0  0  0  0
  3 22  1  0  0  0  0
  4  5  2  0  0  0  0
  4  6  1  0  0  0  0
  6  7  1  0  0  0  0
  6 23  1  0  0  0  0
  7 15  1  0  0  0  0
  7  8  2  0  0  0  0
  8  9  1  0  0  0  0
  9 10  1  0  0  0  0
  9 14  2  0  0  0  0
 10 11  1  0  0  0  0
 10 24  1  0  0  0  0
 10 25  1  0  0  0  0
 11 12  1  0  0  0  0
 11 13  2  0  0  0  0
 12 26  1  0  0  0  0
 12 27  1  0  0  0  0
 14 15  1  0  0  0  0
 14 28  1  0  0  0  0
M  END
> <s_m_source_file>
AV-unprocessed.smi

> <i_m_source_file_index>
2073

> <i_lp_mmshare_version>
43012

> <i_f3d_flags>
0

> <s_epik_input>
W0NIM11bQ0hdKFtDSDNdKUMoPU8pW05IXWMxbmMoW2NIXXMxKVtDSDJdQyg9TylbTkgyXQ==

> <s_epik_cmdline>
J2VwaWtfcHl0aG9uJywgJy1waCcsICc3LjAnLCAnLXRuJywgJzgnLCAnLW1hJywgJzIwMCcsICctbWV0YWxfYmluZGluZycsICctaW1hZScsICc8aW5maWxlLm1hZT4nLCAnLW9tYWUnLCAnPG91dGZpbGUubWFlPic=

> <r_lp_tautomer_probability>
1

> <r_epik_Ionization_Penalty>
0.000158353

> <r_epik_Ionization_Penalty_Charging>
0

> <r_epik_Ionization_Penalty_Neutral>
0.000158353

> <r_epik_State_Penalty>
-0

> <r_epik_Charging_Adjusted_Penalty>
0

> <i_epik_Tot_Q>
0

> <i_epik_Tot_abs_Q>
0

> <r_epik_Metal_State_Penalty>
0.0986865

> <b_epik_Metal_Only>
0

> <s_lp_Force_Field>
OPLS_2005

> <r_lp_Energy>
2.86857

> <b_lp_Chiralities_Consistent>
1

> <s_lp_Variant>
AV-unprocessed.smi:2073-1

> <Gold.Version>
5.8.1

> <Gold.Id.Protein>
6NUR|6NUR_protein|mol2

> <Gold.PLP.Fitness>
40.5524

> <Gold.PLP.PLP>
-32.8181

> <Gold.PLP.part.hbond>
-3.0963

> <Gold.PLP.part.metal>
0.0000

> <Gold.PLP.part.buried>
-2.3611

> <Gold.PLP.part.nonpolar>
-27.2294

> <Gold.PLP.part.repulsive>
0.1718

> <Gold.PLP.ligand.clash>
0.0000

> <Gold.PLP.ligand.torsion>
0.1431

> <Gold.PLP.Chemscore.Hbond>
2.0000

> <Gold.PLP.Chemscore.CHOScore>
0.6678

> <Gold.PLP.Chemscore.Metal>
0.0000

> <Gold.Chemscore.Hbonds>
donor molecule, donor type, donor heavy atom, donor atom, acceptor molecule, acceptor atom, score
      L1  H     6    23       P1  8028  1.00
      L1  H    12    27       P1  7949  0.23
      L1  C    14    28       P1  7957  0.03

> <Gold.PLP.Chemscore.Internal.Correction>
0.0171

> <Gold.Rescore>
     Score         DG    S(hbond)    S(metal)    S(lipo)     H(rot)  DE(clash)    DE(int)     intcor
     11.95     -13.71       1.60        0.00      67.04       1.93       0.41       1.35       ----

> <Gold.Chemscore.Fitness>
11.9534

> <Gold.Chemscore.DG>
-13.7097

> <Gold.Chemscore.ZeroCoef>
-5.4800

> <Gold.Chemscore.Hbond>
1.5968

> <Gold.Chemscore.Metal>
0.0000

> <Gold.Chemscore.Lipo>
67.0354

> <Gold.Chemscore.Internal_Hbond>
0.0000

> <Gold.Chemscore.DEClash>
0.4076

> <Gold.Chemscore.DEInternal>
1.3486

> <Gold.Chemscore.Rot>
1.9323

> <Gold.Chemscore.Internal.Correction>
   9.000000E+99

> <Gold.Chemscore.Hbonds>
donor molecule, donor type, donor heavy atom, donor atom, acceptor molecule, acceptor atom, score
      L1  H     6    23       P1  8028  1.00

> <Gold.Chemscore.Hbond.Weighted>
-5.3333

> <Gold.Chemscore.Metal.Weighted>
-0.0000

> <Gold.Chemscore.Lipo.Weighted>
-7.8431

> <Gold.Chemscore.Internal_Hbond.Weighted>
0.0000

> <Gold.Chemscore.DEClash.Weighted>
0.4076

> <Gold.Chemscore.DEInternal.Weighted>
1.3486

> <Gold.Chemscore.Rot.Weighted>
4.9468

> <Gold.Chemscore.Internal.Correction.Weighted>
   9.000000E+99

> <Gold.Protein.RotatedTorsions>
[ 6907 6896 6895 6894 ] final   65.49 input  -60.11 | X-H torsion
[ 7974 7965 7964 7962 ] final -120.43 input  175.53 | X-H torsion
[ 8008 7997 7996 7995 ] final   -1.02 input   59.86 | X-H torsion
[ 10167 10162 10161 10158 ] final   17.38 input  -65.29 | X-H torsion
[ 10718 10713 10712 10709 ] final  -38.33 input   66.30 | X-H torsion
[ 10763 10752 10751 10750 ] final  -19.88 input  -60.55 | X-H torsion
[ 11005 11000 10999 10996 ] final   68.85 input  -57.11 | X-H torsion

> <Gold.Protein.ActiveResidues>
 VAL166  LYS551  ARG553  GLY616  TRP617  ASP618  TYR619  PRO620  LYS621  CYS622 
 ASP623  PHE694  ASN695  SER759  ASP760  ASP761  ALA762  ILE779  LEU786  VAL792 
 PHE793  MET794  SER795  GLU796  ALA797  LYS798  CYS799  TRP800  GLU811  SER814 

> <Gold.Protein.RotatedAtoms>
  152.4412  134.5588  159.9887 H   0  0  0  0  0  0  0  0  0  0  0  0  # atno 6907 bound_to 6896
  151.5685  133.3387  159.2993 H   0  0  0  0  0  0  0  0  0  0  0  0  # atno 6908 bound_to 6896
  150.8318  134.7608  159.6924 H   0  0  0  0  0  0  0  0  0  0  0  0  # atno 6909 bound_to 6896
  145.0514  140.8221  143.4207 H   0  0  0  0  0  0  0  0  0  0  0  0  # atno 7974 bound_to 7965
  154.6515  140.2570  155.7209 H   0  0  0  0  0  0  0  0  0  0  0  0  # atno 8008 bound_to 7997
  156.2577  140.2867  156.0871 H   0  0  0  0  0  0  0  0  0  0  0  0  # atno 8009 bound_to 7997
  155.1444  140.0381  157.2796 H   0  0  0  0  0  0  0  0  0  0  0  0  # atno 8010 bound_to 7997
  140.5730  143.9125  150.6728 H   0  0  0  0  0  0  0  0  0  0  0  0  # atno 10167 bound_to 10162
  156.3050  130.4245  149.8106 H   0  0  0  0  0  0  0  0  0  0  0  0  # atno 10718 bound_to 10713
  153.6117  135.6996  153.5344 H   0  0  0  0  0  0  0  0  0  0  0  0  # atno 10763 bound_to 10752
  153.3011  135.4128  155.1253 H   0  0  0  0  0  0  0  0  0  0  0  0  # atno 10764 bound_to 10752
  154.8562  135.3649  154.5656 H   0  0  0  0  0  0  0  0  0  0  0  0  # atno 10765 bound_to 10752
  139.9687  134.6936  156.0491 H   0  0  0  0  0  0  0  0  0  0  0  0  # atno 11005 bound_to 11000
  145.1522  139.2507  143.5435 LP  0  0  0  0  0  0  0  0  0  0  0  0  # atno 17320 bound_to 7965
  146.3518  140.1228  142.8599 LP  0  0  0  0  0  0  0  0  0  0  0  0  # atno 17321 bound_to 7965
  140.2605  143.3527  152.1327 LP  0  0  0  0  0  0  0  0  0  0  0  0  # atno 17342 bound_to 10162
  139.5128  144.6922  151.5729 LP  0  0  0  0  0  0  0  0  0  0  0  0  # atno 17343 bound_to 10162
  156.5470  130.8325  151.3287 LP  0  0  0  0  0  0  0  0  0  0  0  0  # atno 17370 bound_to 10713
  157.7377  130.9801  150.2210 LP  0  0  0  0  0  0  0  0  0  0  0  0  # atno 17371 bound_to 10713
  141.1367  133.6573  156.3614 LP  0  0  0  0  0  0  0  0  0  0  0  0  # atno 17394 bound_to 11000
  140.5339  134.6185  157.5359 LP  0  0  0  0  0  0  0  0  0  0  0  0  # atno 17395 bound_to 11000

$$$$
