AV-unprocessed.smi:148|AV-procd|sdf|1227|dock1
  -GOLD-   2262018423D 1   1.00000     0.00000
 Structure written by MMmdl.
 63 67  0  0  0  0  0  0  0  0  1 V2000
  150.8498  142.6282  156.5118 O   0  0  0  0  0  0  0  0  0  0  0  0
  150.1914  142.1739  157.6759 C   0  0  0  0  0  0  0  0  0  0  0  0
  151.0325  141.0938  158.3966 C   0  0  1  0  0  0  0  0  0  0  0  0
  151.1190  139.8123  157.5296 C   0  0  0  0  0  0  0  0  0  0  0  0
  150.5975  138.6305  158.1940 N   0  0  0  0  0  0  0  0  0  0  0  0
  151.1376  138.0028  159.2941 C   0  0  0  0  0  0  0  0  0  0  0  0
  150.4839  136.9535  159.7139 N   0  0  0  0  0  0  0  0  0  0  0  0
  149.4112  136.8558  158.8377 C   0  0  0  0  0  0  0  0  0  0  0  0
  148.3140  135.9642  158.7184 C   0  0  0  0  0  0  0  0  0  0  0  0
  148.1421  134.9270  159.5666 N   0  0  0  0  0  0  0  0  0  0  0  0
  148.1959  133.6684  158.8191 C   0  0  0  0  0  0  0  0  0  0  0  0
  148.2904  132.4628  159.7581 C   0  0  0  0  0  0  0  0  0  0  0  0
  147.1186  132.4805  160.7398 C   0  0  0  0  0  0  0  0  0  0  0  0
  147.0994  133.8117  161.5017 C   0  0  0  0  0  0  0  0  0  0  0  0
  147.0554  135.0474  160.5614 C   0  0  1  0  0  0  0  0  0  0  0  0
  147.1148  136.3709  161.4035 C   0  0  2  0  0  0  0  0  0  0  0  0
  148.1034  136.3502  162.5845 C   0  0  0  0  0  0  0  0  0  0  0  0
  147.7134  137.5188  163.4957 C   0  0  0  0  0  0  0  0  0  0  0  0
  146.2737  137.8882  163.1225 C   0  0  0  0  0  0  0  0  0  0  0  0
  145.8158  136.8456  162.0961 C   0  0  2  0  0  0  0  0  0  0  0  0
  145.1793  135.7819  162.7798 O   0  0  0  0  0  0  0  0  0  0  0  0
  147.4280  136.1713  157.7081 N   0  0  0  0  0  0  0  0  0  0  0  0
  147.6003  137.2014  156.8739 C   0  0  0  0  0  0  0  0  0  0  0  0
  148.5694  138.1198  156.8701 N   0  0  0  0  0  0  0  0  0  0  0  0
  149.4629  137.9042  157.8782 C   0  0  0  0  0  0  0  0  0  0  0  0
  152.4341  141.5905  158.8540 C   0  0  1  0  0  0  0  0  0  0  0  0
  152.4608  142.8070  159.7607 C   0  0  0  0  0  0  0  0  0  0  0  0
  153.8969  142.7692  160.2722 C   0  0  0  0  0  0  0  0  0  0  0  0
  154.2419  141.3889  160.3535 O   0  0  0  0  0  0  0  0  0  0  0  0
  153.2833  140.5984  159.6546 C   0  0  0  0  0  0  0  0  0  0  0  0
  150.6382  143.5400  156.3819 H   0  0  0  0  0  0  0  0  0  0  0  0
  150.0022  143.0262  158.3287 H   0  0  0  0  0  0  0  0  0  0  0  0
  149.2222  141.7904  157.3636 H   0  0  0  0  0  0  0  0  0  0  0  0
  150.4962  140.8289  159.3092 H   0  0  0  0  0  0  0  0  0  0  0  0
  150.5591  139.9372  156.6025 H   0  0  0  0  0  0  0  0  0  0  0  0
  152.1528  139.6238  157.2379 H   0  0  0  0  0  0  0  0  0  0  0  0
  152.0401  138.3494  159.7766 H   0  0  0  0  0  0  0  0  0  0  0  0
  147.3055  133.5754  158.1952 H   0  0  0  0  0  0  0  0  0  0  0  0
  149.0559  133.6697  158.1472 H   0  0  0  0  0  0  0  0  0  0  0  0
  148.2877  131.5367  159.1828 H   0  0  0  0  0  0  0  0  0  0  0  0
  149.2343  132.4913  160.3041 H   0  0  0  0  0  0  0  0  0  0  0  0
  146.1796  132.3485  160.2007 H   0  0  0  0  0  0  0  0  0  0  0  0
  147.2000  131.6469  161.4380 H   0  0  0  0  0  0  0  0  0  0  0  0
  146.2371  133.7994  162.1673 H   0  0  0  0  0  0  0  0  0  0  0  0
  147.9826  133.8702  162.1398 H   0  0  0  0  0  0  0  0  0  0  0  0
  146.1070  135.0094  160.0240 H   0  0  0  0  0  0  0  0  0  0  0  0
  147.4441  137.1714  160.7382 H   0  0  0  0  0  0  0  0  0  0  0  0
  147.9969  135.4165  163.1386 H   0  0  0  0  0  0  0  0  0  0  0  0
  149.1428  136.4260  162.2636 H   0  0  0  0  0  0  0  0  0  0  0  0
  147.7970  137.2384  164.5460 H   0  0  0  0  0  0  0  0  0  0  0  0
  148.3728  138.3718  163.3320 H   0  0  0  0  0  0  0  0  0  0  0  0
  145.6172  137.9409  163.9924 H   0  0  0  0  0  0  0  0  0  0  0  0
  146.2691  138.8758  162.6596 H   0  0  0  0  0  0  0  0  0  0  0  0
  145.1022  137.2966  161.4095 H   0  0  0  0  0  0  0  0  0  0  0  0
  145.4919  135.7710  163.6719 H   0  0  0  0  0  0  0  0  0  0  0  0
  146.8536  137.3063  156.1007 H   0  0  0  0  0  0  0  0  0  0  0  0
  153.0249  141.8321  157.9697 H   0  0  0  0  0  0  0  0  0  0  0  0
  152.2233  143.7369  159.2445 H   0  0  0  0  0  0  0  0  0  0  0  0
  151.7717  142.6940  160.5975 H   0  0  0  0  0  0  0  0  0  0  0  0
  154.5656  143.2521  159.5583 H   0  0  0  0  0  0  0  0  0  0  0  0
  154.0113  143.2683  161.2344 H   0  0  0  0  0  0  0  0  0  0  0  0
  152.6999  140.0562  160.3965 H   0  0  0  0  0  0  0  0  0  0  0  0
  153.7714  139.8635  159.0143 H   0  0  0  0  0  0  0  0  0  0  0  0
  1  2  1  0  0  0  0
  1 31  1  0  0  0  0
  2  3  1  0  0  0  0
  2 32  1  0  0  0  0
  2 33  1  0  0  0  0
  3  4  1  0  0  0  0
  3 26  1  0  0  0  0
  3 34  1  0  0  0  0
  4  5  1  0  0  0  0
  4 35  1  0  0  0  0
  4 36  1  0  0  0  0
  5 25  1  0  0  0  0
  5  6  1  0  0  0  0
  6  7  2  0  0  0  0
  6 37  1  0  0  0  0
  7  8  1  0  0  0  0
  8 25  2  0  0  0  0
  8  9  1  0  0  0  0
  9 10  1  0  0  0  0
  9 22  2  0  0  0  0
 10 15  1  0  0  0  0
 10 11  1  0  0  0  0
 11 12  1  0  0  0  0
 11 38  1  0  0  0  0
 11 39  1  0  0  0  0
 12 13  1  0  0  0  0
 12 40  1  0  0  0  0
 12 41  1  0  0  0  0
 13 14  1  0  0  0  0
 13 42  1  0  0  0  0
 13 43  1  0  0  0  0
 14 15  1  0  0  0  0
 14 44  1  0  0  0  0
 14 45  1  0  0  0  0
 15 16  1  0  0  0  0
 15 46  1  0  0  0  0
 16 20  1  0  0  0  0
 16 17  1  0  0  0  0
 16 47  1  0  0  0  0
 17 18  1  0  0  0  0
 17 48  1  0  0  0  0
 17 49  1  0  0  0  0
 18 19  1  0  0  0  0
 18 50  1  0  0  0  0
 18 51  1  0  0  0  0
 19 20  1  0  0  0  0
 19 52  1  0  0  0  0
 19 53  1  0  0  0  0
 20 21  1  0  0  0  0
 20 54  1  0  0  0  0
 21 55  1  0  0  0  0
 22 23  1  0  0  0  0
 23 24  2  0  0  0  0
 23 56  1  0  0  0  0
 24 25  1  0  0  0  0
 26 30  1  0  0  0  0
 26 27  1  0  0  0  0
 26 57  1  0  0  0  0
 27 28  1  0  0  0  0
 27 58  1  0  0  0  0
 27 59  1  0  0  0  0
 28 29  1  0  0  0  0
 28 60  1  0  0  0  0
 28 61  1  0  0  0  0
 29 30  1  0  0  0  0
 30 62  1  0  0  0  0
 30 63  1  0  0  0  0
M  END
> <s_m_source_file>
AV-unprocessed.smi

> <i_m_source_file_index>
148

> <i_lp_mmshare_version>
43012

> <i_f3d_flags>
0

> <s_epik_input>
W0NIMl0xT1tDSDJdW0NIMl1bQ0BIXTFbQ0BIXShbQ0gyXVtPSF0pW0NIMl1uKFtjSF1uMiljKGMyMyluW2NIXW5jM040W0NIMl1bQ0gyXVtDSDJdW0NIMl1bQ0BIXTRbQ0BASF01W0NIMl1bQ0gyXVtDSDJdW0NASF01W09IXQ==

> <s_epik_cmdline>
J2VwaWtfcHl0aG9uJywgJy1waCcsICc3LjAnLCAnLXRuJywgJzgnLCAnLW1hJywgJzIwMCcsICctbWV0YWxfYmluZGluZycsICctaW1hZScsICc8aW5maWxlLm1hZT4nLCAnLW9tYWUnLCAnPG91dGZpbGUubWFlPic=

> <r_lp_tautomer_probability>
1

> <r_epik_Ionization_Penalty>
0.00556303

> <r_epik_Ionization_Penalty_Charging>
0

> <r_epik_Ionization_Penalty_Neutral>
0.00556303

> <r_epik_State_Penalty>
0.00401767

> <r_epik_Charging_Adjusted_Penalty>
0.00401767

> <i_epik_Tot_Q>
0

> <i_epik_Tot_abs_Q>
0

> <r_epik_Metal_State_Penalty>
-0

> <b_epik_Metal_Only>
0

> <s_lp_Force_Field>
OPLS_2005

> <r_lp_Energy>
69.6846

> <b_lp_Chiralities_Consistent>
1

> <s_lp_Variant>
AV-unprocessed.smi:148-26

> <Gold.Version>
5.8.1

> <Gold.Id.Protein>
6NUR|6NUR_protein|mol2

> <Gold.PLP.Fitness>
48.3363

> <Gold.PLP.PLP>
-43.6067

> <Gold.PLP.part.hbond>
-2.0000

> <Gold.PLP.part.metal>
0.0000

> <Gold.PLP.part.buried>
-6.1383

> <Gold.PLP.part.nonpolar>
-35.9215

> <Gold.PLP.part.repulsive>
0.0000

> <Gold.PLP.ligand.clash>
0.0000

> <Gold.PLP.ligand.torsion>
1.3339

> <Gold.PLP.Chemscore.Hbond>
2.0000

> <Gold.PLP.Chemscore.CHOScore>
0.0000

> <Gold.PLP.Chemscore.Metal>
0.0000

> <Gold.Chemscore.Hbonds>
donor molecule, donor type, donor heavy atom, donor atom, acceptor molecule, acceptor atom, score
      L1  H     1    31       P1  8028  0.39
      P1  H  6896  6908       L1     7  0.95

> <Gold.PLP.Chemscore.Internal.Correction>
1.3974

> <Gold.Rescore>
     Score         DG    S(hbond)    S(metal)    S(lipo)     H(rot)  DE(clash)    DE(int)     intcor
     14.81     -16.57       1.92        0.00     112.52       3.32       0.02       1.74       ----

> <Gold.Chemscore.Fitness>
14.8104

> <Gold.Chemscore.DG>
-16.5734

> <Gold.Chemscore.ZeroCoef>
-5.4800

> <Gold.Chemscore.Hbond>
1.9247

> <Gold.Chemscore.Metal>
0.0000

> <Gold.Chemscore.Lipo>
112.5197

> <Gold.Chemscore.Internal_Hbond>
0.0000

> <Gold.Chemscore.DEClash>
0.0186

> <Gold.Chemscore.DEInternal>
1.7445

> <Gold.Chemscore.Rot>
3.3203

> <Gold.Chemscore.Internal.Correction>
   9.000000E+99

> <Gold.Chemscore.Hbonds>
donor molecule, donor type, donor heavy atom, donor atom, acceptor molecule, acceptor atom, score
      L1  H     1    31       P1  8028  0.39
      P1  H  6896  6908       L1     7  0.21

> <Gold.Chemscore.Hbond.Weighted>
-6.4286

> <Gold.Chemscore.Metal.Weighted>
-0.0000

> <Gold.Chemscore.Lipo.Weighted>
-13.1648

> <Gold.Chemscore.Internal_Hbond.Weighted>
0.0000

> <Gold.Chemscore.DEClash.Weighted>
0.0186

> <Gold.Chemscore.DEInternal.Weighted>
1.7445

> <Gold.Chemscore.Rot.Weighted>
8.5000

> <Gold.Chemscore.Internal.Correction.Weighted>
   9.000000E+99

> <Gold.Protein.RotatedTorsions>
[ 6907 6896 6895 6894 ] final -156.55 input  -60.11 | X-H torsion
[ 7974 7965 7964 7962 ] final  -98.23 input  175.53 | X-H torsion
[ 8008 7997 7996 7995 ] final   -7.39 input   59.86 | X-H torsion
[ 10167 10162 10161 10158 ] final   81.86 input  -65.29 | X-H torsion
[ 10718 10713 10712 10709 ] final  -99.11 input   66.30 | X-H torsion
[ 10763 10752 10751 10750 ] final -153.06 input  -60.55 | X-H torsion
[ 11005 11000 10999 10996 ] final  -36.64 input  -57.11 | X-H torsion

> <Gold.Protein.ActiveResidues>
 VAL166  LYS551  ARG553  GLY616  TRP617  ASP618  TYR619  PRO620  LYS621  CYS622 
 ASP623  PHE694  ASN695  SER759  ASP760  ASP761  ALA762  ILE779  LEU786  VAL792 
 PHE793  MET794  SER795  GLU796  ALA797  LYS798  CYS799  TRP800  GLU811  SER814 

> <Gold.Protein.RotatedAtoms>
  151.2893  133.4173  159.2631 H   0  0  0  0  0  0  0  0  0  0  0  0  # atno 6907 bound_to 6896
  151.0291  134.9527  159.8112 H   0  0  0  0  0  0  0  0  0  0  0  0  # atno 6908 bound_to 6896
  152.5342  134.2854  159.9076 H   0  0  0  0  0  0  0  0  0  0  0  0  # atno 6909 bound_to 6896
  145.3234  140.9426  143.2703 H   0  0  0  0  0  0  0  0  0  0  0  0  # atno 7974 bound_to 7965
  154.5843  140.2408  155.8009 H   0  0  0  0  0  0  0  0  0  0  0  0  # atno 8008 bound_to 7997
  156.2202  140.3000  155.9889 H   0  0  0  0  0  0  0  0  0  0  0  0  # atno 8009 bound_to 7997
  155.2485  140.0410  157.2974 H   0  0  0  0  0  0  0  0  0  0  0  0  # atno 8010 bound_to 7997
  139.9348  144.6128  150.8309 H   0  0  0  0  0  0  0  0  0  0  0  0  # atno 10167 bound_to 10162
  156.0125  130.5268  150.6622 H   0  0  0  0  0  0  0  0  0  0  0  0  # atno 10718 bound_to 10713
  154.7953  135.3221  154.7682 H   0  0  0  0  0  0  0  0  0  0  0  0  # atno 10763 bound_to 10752
  153.8362  135.6875  153.4813 H   0  0  0  0  0  0  0  0  0  0  0  0  # atno 10764 bound_to 10752
  153.1641  135.4649  154.9755 H   0  0  0  0  0  0  0  0  0  0  0  0  # atno 10765 bound_to 10752
  140.9891  133.7015  156.1817 H   0  0  0  0  0  0  0  0  0  0  0  0  # atno 11005 bound_to 11000
  144.8921  139.4760  143.6673 LP  0  0  0  0  0  0  0  0  0  0  0  0  # atno 17320 bound_to 7965
  146.3074  139.7626  142.9046 LP  0  0  0  0  0  0  0  0  0  0  0  0  # atno 17321 bound_to 7965
  140.7627  143.3205  151.2633 LP  0  0  0  0  0  0  0  0  0  0  0  0  # atno 17342 bound_to 10162
  139.6752  143.9950  152.2777 LP  0  0  0  0  0  0  0  0  0  0  0  0  # atno 17343 bound_to 10162
  157.4362  131.0855  151.0990 LP  0  0  0  0  0  0  0  0  0  0  0  0  # atno 17370 bound_to 10713
  157.1548  130.6199  149.5593 LP  0  0  0  0  0  0  0  0  0  0  0  0  # atno 17371 bound_to 10713
  140.7069  134.4504  157.5583 LP  0  0  0  0  0  0  0  0  0  0  0  0  # atno 17394 bound_to 11000
  139.8984  134.8615  156.2004 LP  0  0  0  0  0  0  0  0  0  0  0  0  # atno 17395 bound_to 11000

$$$$
