AV-unprocessed.smi:102|AV-procd|sdf|958|dock8
  -GOLD-   2262017493D 1   1.00000     0.00000
 Structure written by MMmdl.
 44 45  0  0  0  0  0  0  0  0  1 V2000
  146.9688  135.0690  161.8695 C   0  0  0  0  0  0  0  0  0  0  0  0
  146.8576  135.7270  160.5008 C   0  0  0  0  0  0  0  0  0  0  0  0
  146.7948  136.9508  160.3791 O   0  0  0  0  0  0  0  0  0  0  0  0
  146.8401  134.8275  159.5000 O   0  0  0  0  0  0  0  0  0  0  0  0
  146.4809  135.2247  158.1839 C   0  0  0  0  0  0  0  0  0  0  0  0
  147.6993  135.7608  157.4165 C   0  0  1  0  0  0  0  0  0  0  0  0
  148.5600  134.6935  157.0300 O   0  0  0  0  0  0  0  0  0  0  0  0
  149.1998  134.9917  155.8256 C   0  0  1  0  0  0  0  0  0  0  0  0
  148.9527  133.8641  154.8517 N   0  0  0  0  0  0  0  0  0  0  0  0
  148.1539  134.0414  153.7292 C   0  0  0  0  0  0  0  0  0  0  0  0
  147.9203  133.0578  152.8287 C   0  0  0  0  0  0  0  0  0  0  0  0
  147.1360  133.3038  151.7653 F   0  0  0  0  0  0  0  0  0  0  0  0
  148.5174  131.7364  152.9981 C   0  0  0  0  0  0  0  0  0  0  0  0
  148.3624  130.7816  152.2395 O   0  0  0  0  0  0  0  0  0  0  0  0
  149.3251  131.6091  154.1320 N   0  0  0  0  0  0  0  0  0  0  0  0
  149.5770  132.6153  155.0663 C   0  0  0  0  0  0  0  0  0  0  0  0
  150.3198  132.3941  156.0215 O   0  0  0  0  0  0  0  0  0  0  0  0
  148.6028  136.2950  155.2783 C   0  0  2  0  0  0  0  0  0  0  0  0
  149.4942  137.3737  155.5457 O   0  0  0  0  0  0  0  0  0  0  0  0
  150.6904  137.4343  154.9364 C   0  0  0  0  0  0  0  0  0  0  0  0
  151.3442  138.8020  155.0791 C   0  0  0  0  0  0  0  0  0  0  0  0
  151.2403  136.5202  154.3225 O   0  0  0  0  0  0  0  0  0  0  0  0
  147.3217  136.4190  156.0918 C   0  0  2  0  0  0  0  0  0  0  0  0
  146.9057  137.7689  156.2631 O   0  0  0  0  0  0  0  0  0  0  0  0
  146.4717  138.4798  155.2081 C   0  0  0  0  0  0  0  0  0  0  0  0
  146.1378  139.9194  155.5754 C   0  0  0  0  0  0  0  0  0  0  0  0
  146.3499  138.0647  154.0556 O   0  0  0  0  0  0  0  0  0  0  0  0
  149.7672  130.7144  154.2852 H   0  0  0  0  0  0  0  0  0  0  0  0
  147.9061  134.5182  161.9489 H   0  0  0  0  0  0  0  0  0  0  0  0
  146.1430  134.3744  162.0249 H   0  0  0  0  0  0  0  0  0  0  0  0
  146.9415  135.8206  162.6589 H   0  0  0  0  0  0  0  0  0  0  0  0
  145.9919  134.4175  157.6366 H   0  0  0  0  0  0  0  0  0  0  0  0
  145.7431  136.0212  158.2805 H   0  0  0  0  0  0  0  0  0  0  0  0
  148.2679  136.4635  158.0282 H   0  0  0  0  0  0  0  0  0  0  0  0
  150.2765  135.0289  156.0017 H   0  0  0  0  0  0  0  0  0  0  0  0
  147.6935  135.0015  153.5486 H   0  0  0  0  0  0  0  0  0  0  0  0
  148.3824  136.2113  154.2127 H   0  0  0  0  0  0  0  0  0  0  0  0
  150.6126  139.5938  154.9171 H   0  0  0  0  0  0  0  0  0  0  0  0
  152.1466  138.9201  154.3507 H   0  0  0  0  0  0  0  0  0  0  0  0
  151.7644  138.9169  156.0782 H   0  0  0  0  0  0  0  0  0  0  0  0
  146.5356  135.8273  155.6200 H   0  0  0  0  0  0  0  0  0  0  0  0
  145.5731  139.9550  156.5073 H   0  0  0  0  0  0  0  0  0  0  0  0
  145.5397  140.3852  154.7918 H   0  0  0  0  0  0  0  0  0  0  0  0
  147.0535  140.4974  155.7010 H   0  0  0  0  0  0  0  0  0  0  0  0
  1  2  1  0  0  0  0
  1 29  1  0  0  0  0
  1 30  1  0  0  0  0
  1 31  1  0  0  0  0
  2  3  2  0  0  0  0
  2  4  1  0  0  0  0
  4  5  1  0  0  0  0
  5  6  1  0  0  0  0
  5 32  1  0  0  0  0
  5 33  1  0  0  0  0
  6 23  1  0  0  0  0
  6  7  1  0  0  0  0
  6 34  1  0  0  0  0
  7  8  1  0  0  0  0
  8  9  1  0  0  0  0
  8 18  1  0  0  0  0
  8 35  1  0  0  0  0
  9 16  1  0  0  0  0
  9 10  1  0  0  0  0
 10 11  2  0  0  0  0
 10 36  1  0  0  0  0
 11 12  1  0  0  0  0
 11 13  1  0  0  0  0
 13 14  2  0  0  0  0
 13 15  1  0  0  0  0
 15 28  1  0  0  0  0
 15 16  1  0  0  0  0
 16 17  2  0  0  0  0
 18 19  1  0  0  0  0
 18 23  1  0  0  0  0
 18 37  1  0  0  0  0
 19 20  1  0  0  0  0
 20 21  1  0  0  0  0
 20 22  2  0  0  0  0
 21 38  1  0  0  0  0
 21 39  1  0  0  0  0
 21 40  1  0  0  0  0
 23 24  1  0  0  0  0
 23 41  1  0  0  0  0
 24 25  1  0  0  0  0
 25 26  1  0  0  0  0
 25 27  2  0  0  0  0
 26 42  1  0  0  0  0
 26 43  1  0  0  0  0
 26 44  1  0  0  0  0
M  END
> <s_m_source_file>
AV-unprocessed.smi

> <i_m_source_file_index>
102

> <i_lp_mmshare_version>
43012

> <i_f3d_flags>
0

> <s_epik_input>
W0NIM11DKD1PKU9bQ0gyXVtDQEBIXTFPW0NASF0oW0NAQEhdKE9DKD1PKVtDSDNdKVtDQEhdMU9DKD1PKVtDSDNdKW4yW2NIXWMoRiljKD1PKVtuSF1jMj1P

> <s_epik_cmdline>
J2VwaWtfcHl0aG9uJywgJy1waCcsICc3LjAnLCAnLXRuJywgJzgnLCAnLW1hJywgJzIwMCcsICctbWV0YWxfYmluZGluZycsICctaW1hZScsICc8aW5maWxlLm1hZT4nLCAnLW9tYWUnLCAnPG91dGZpbGUubWFlPic=

> <r_lp_tautomer_probability>
0.999537

> <r_epik_Ionization_Penalty>
0.058267

> <r_epik_Ionization_Penalty_Charging>
0.058267

> <r_epik_Ionization_Penalty_Neutral>
6.57791e-16

> <r_epik_State_Penalty>
0.0503774

> <r_epik_Charging_Adjusted_Penalty>
0.108644

> <i_epik_Tot_Q>
0

> <i_epik_Tot_abs_Q>
0

> <r_epik_Metal_State_Penalty>
2.6644

> <b_epik_Metal_Only>
0

> <s_epik_Chemistry_Notes>
This compound has an ester and may undergo hydrolysis at high or low pH. This compound contains an acetal/aminal-like group ( X-CH(R)-Y where X, Y are N, S, or O) that may be acid/base labile, releasing an aldehyde.

> <s_lp_Force_Field>
OPLS_2005

> <r_lp_Energy>
14.1022

> <b_lp_Chiralities_Consistent>
1

> <s_lp_Variant>
AV-unprocessed.smi:102-14

> <Gold.Version>
5.8.1

> <Gold.Id.Protein>
6NUR|6NUR_protein|mol2

> <Gold.PLP.Fitness>
43.2315

> <Gold.PLP.PLP>
-33.2114

> <Gold.PLP.part.hbond>
-4.0000

> <Gold.PLP.part.metal>
0.0000

> <Gold.PLP.part.buried>
-6.1500

> <Gold.PLP.part.nonpolar>
-24.3382

> <Gold.PLP.part.repulsive>
0.4067

> <Gold.PLP.ligand.clash>
0.0000

> <Gold.PLP.ligand.torsion>
0.7171

> <Gold.PLP.Chemscore.Hbond>
3.7760

> <Gold.PLP.Chemscore.CHOScore>
0.0000

> <Gold.PLP.Chemscore.Metal>
0.0000

> <Gold.Chemscore.Hbonds>
donor molecule, donor type, donor heavy atom, donor atom, acceptor molecule, acceptor atom, score
      P1  H  6934  6947       L1     3  0.63
      P1  H 10752 10763       L1    22  1.00
      L1  C    10    36       P1  7948  0.58

> <Gold.PLP.Chemscore.Internal.Correction>
0.1263

> <Gold.Rescore>
     Score         DG    S(hbond)    S(metal)    S(lipo)     H(rot)  DE(clash)    DE(int)     intcor
     11.11     -11.85       3.71        0.00      37.17       4.05       0.12       0.62       ----

> <Gold.Chemscore.Fitness>
11.1148

> <Gold.Chemscore.DG>
-11.8509

> <Gold.Chemscore.ZeroCoef>
-5.4800

> <Gold.Chemscore.Hbond>
3.7110

> <Gold.Chemscore.Metal>
0.0000

> <Gold.Chemscore.Lipo>
37.1737

> <Gold.Chemscore.Internal_Hbond>
0.0000

> <Gold.Chemscore.DEClash>
0.1172

> <Gold.Chemscore.DEInternal>
0.6189

> <Gold.Chemscore.Rot>
4.0520

> <Gold.Chemscore.Internal.Correction>
   9.000000E+99

> <Gold.Chemscore.Hbonds>
donor molecule, donor type, donor heavy atom, donor atom, acceptor molecule, acceptor atom, score
      P1  H  6934  6947       L1     3  0.65
      P1  H 10752 10763       L1    22  0.99

> <Gold.Chemscore.Hbond.Weighted>
-12.3947

> <Gold.Chemscore.Metal.Weighted>
-0.0000

> <Gold.Chemscore.Lipo.Weighted>
-4.3493

> <Gold.Chemscore.Internal_Hbond.Weighted>
0.0000

> <Gold.Chemscore.DEClash.Weighted>
0.1172

> <Gold.Chemscore.DEInternal.Weighted>
0.6189

> <Gold.Chemscore.Rot.Weighted>
10.3732

> <Gold.Chemscore.Internal.Correction.Weighted>
   9.000000E+99

> <Gold.Protein.RotatedTorsions>
[ 6907 6896 6895 6894 ] final  166.61 input  -60.11 | X-H torsion
[ 7974 7965 7964 7962 ] final  -34.46 input  175.53 | X-H torsion
[ 8008 7997 7996 7995 ] final -132.61 input   59.86 | X-H torsion
[ 10167 10162 10161 10158 ] final -143.99 input  -65.29 | X-H torsion
[ 10718 10713 10712 10709 ] final  117.55 input   66.30 | X-H torsion
[ 10763 10752 10751 10750 ] final   33.59 input  -60.55 | X-H torsion
[ 11005 11000 10999 10996 ] final  -59.90 input  -57.11 | X-H torsion

> <Gold.Protein.ActiveResidues>
 VAL166  LYS551  ARG553  GLY616  TRP617  ASP618  TYR619  PRO620  LYS621  CYS622 
 ASP623  PHE694  ASN695  SER759  ASP760  ASP761  ALA762  ILE779  LEU786  VAL792 
 PHE793  MET794  SER795  GLU796  ALA797  LYS798  CYS799  TRP800  GLU811  SER814 

> <Gold.Protein.RotatedAtoms>
  151.8761  133.3485  159.3750 H   0  0  0  0  0  0  0  0  0  0  0  0  # atno 6907 bound_to 6896
  150.7139  134.5064  159.5595 H   0  0  0  0  0  0  0  0  0  0  0  0  # atno 6908 bound_to 6896
  152.2607  134.8038  160.0482 H   0  0  0  0  0  0  0  0  0  0  0  0  # atno 6909 bound_to 6896
  146.0828  140.6041  142.8900 H   0  0  0  0  0  0  0  0  0  0  0  0  # atno 7974 bound_to 7965
  155.3317  140.0467  157.3043 H   0  0  0  0  0  0  0  0  0  0  0  0  # atno 8008 bound_to 7997
  154.5325  140.2261  155.8746 H   0  0  0  0  0  0  0  0  0  0  0  0  # atno 8009 bound_to 7997
  156.1802  140.3075  155.9141 H   0  0  0  0  0  0  0  0  0  0  0  0  # atno 8010 bound_to 7997
  139.7941  143.7925  152.2652 H   0  0  0  0  0  0  0  0  0  0  0  0  # atno 10167 bound_to 10162
  157.6089  131.1038  150.7630 H   0  0  0  0  0  0  0  0  0  0  0  0  # atno 10718 bound_to 10713
  153.0204  135.6383  154.1536 H   0  0  0  0  0  0  0  0  0  0  0  0  # atno 10763 bound_to 10752
  154.1271  135.2843  155.3196 H   0  0  0  0  0  0  0  0  0  0  0  0  # atno 10764 bound_to 10752
  154.6221  135.5521  153.7649 H   0  0  0  0  0  0  0  0  0  0  0  0  # atno 10765 bound_to 10752
  141.1266  133.6619  156.5141 H   0  0  0  0  0  0  0  0  0  0  0  0  # atno 11005 bound_to 11000
  144.7305  140.4655  143.6942 LP  0  0  0  0  0  0  0  0  0  0  0  0  # atno 17320 bound_to 7965
  145.6187  139.1521  143.3035 LP  0  0  0  0  0  0  0  0  0  0  0  0  # atno 17321 bound_to 7965
  139.8025  144.7368  150.9805 LP  0  0  0  0  0  0  0  0  0  0  0  0  # atno 17342 bound_to 10162
  140.7820  143.4331  151.0665 LP  0  0  0  0  0  0  0  0  0  0  0  0  # atno 17343 bound_to 10162
  156.8012  130.4922  149.5369 LP  0  0  0  0  0  0  0  0  0  0  0  0  # atno 17370 bound_to 10713
  156.1185  130.6092  151.0157 LP  0  0  0  0  0  0  0  0  0  0  0  0  # atno 17371 bound_to 10713
  140.4345  134.7072  157.4959 LP  0  0  0  0  0  0  0  0  0  0  0  0  # atno 17394 bound_to 11000
  140.0271  134.6461  155.9157 LP  0  0  0  0  0  0  0  0  0  0  0  0  # atno 17395 bound_to 11000

$$$$
