AV-unprocessed.smi:675|AV-procd|sdf|3305|dock5
  -GOLD-   22720 0263D 1   1.00000     0.00000
 Structure written by MMmdl.
 28 29  0  0  0  0  0  0  0  0  2 V2000
  152.7613  135.3199  157.1203 O   0  0  0  0  0  0  0  0  0  0  0  0
  152.7288  136.3800  157.7436 C   0  0  0  0  0  0  0  0  0  0  0  0
  153.1857  136.4956  159.0247 N   0  5  0  0  0  0  0  0  0  0  0  0
  153.1544  137.6643  159.7360 C   0  0  0  0  0  0  0  0  0  0  0  0
  153.5681  137.7378  160.8930 O   0  0  0  0  0  0  0  0  0  0  0  0
  152.6400  138.7828  159.1415 N   0  0  0  0  0  0  0  0  0  0  0  0
  152.5361  140.0817  159.8257 C   0  0  0  0  0  0  0  0  0  0  0  0
  153.3888  141.1789  159.1488 C   0  0  2  0  0  0  0  0  0  0  0  0
  154.7170  141.0489  159.6156 O   0  0  0  0  0  0  0  0  0  0  0  0
  152.8345  142.5875  159.3648 C   0  0  0  0  0  0  0  0  0  0  0  0
  152.3628  143.3166  158.2492 C   0  0  0  0  0  0  0  0  0  0  0  0
  151.8686  144.6255  158.4013 C   0  0  0  0  0  0  0  0  0  0  0  0
  151.8410  145.2218  159.6744 C   0  0  0  0  0  0  0  0  0  0  0  0
  152.3100  144.5075  160.7918 C   0  0  0  0  0  0  0  0  0  0  0  0
  152.8073  143.1969  160.6463 C   0  0  0  0  0  0  0  0  0  0  0  0
  153.3815  142.3829  162.0602 Cl  0  0  0  0  0  0  0  0  0  0  0  0
  152.1638  138.7187  157.8213 C   0  0  0  0  0  0  0  0  0  0  0  0
  152.1840  137.5771  157.1069 C   0  0  0  0  0  0  0  0  0  0  0  0
  151.5779  137.5273  155.4899 Cl  0  0  0  0  0  0  0  0  0  0  0  0
  151.4979  140.4095  159.8971 H   0  0  0  0  0  0  0  0  0  0  0  0
  152.8592  139.9566  160.8606 H   0  0  0  0  0  0  0  0  0  0  0  0
  153.4443  140.9643  158.0829 H   0  0  0  0  0  0  0  0  0  0  0  0
  154.6999  141.0203  160.5598 H   0  0  0  0  0  0  0  0  0  0  0  0
  152.3908  142.8761  157.2633 H   0  0  0  0  0  0  0  0  0  0  0  0
  151.5162  145.1734  157.5401 H   0  0  0  0  0  0  0  0  0  0  0  0
  151.4652  146.2273  159.7935 H   0  0  0  0  0  0  0  0  0  0  0  0
  152.2927  144.9708  161.7673 H   0  0  0  0  0  0  0  0  0  0  0  0
  151.7734  139.6485  157.4336 H   0  0  0  0  0  0  0  0  0  0  0  0
  1  2  2  0  0  0  0
  2 18  1  0  0  0  0
  2  3  1  0  0  0  0
  3  4  1  0  0  0  0
  4  5  2  0  0  0  0
  4  6  1  0  0  0  0
  6  7  1  0  0  0  0
  6 17  1  0  0  0  0
  7  8  1  0  0  0  0
  7 20  1  0  0  0  0
  7 21  1  0  0  0  0
  8  9  1  0  0  0  0
  8 10  1  0  0  0  0
  8 22  1  0  0  0  0
  9 23  1  0  0  0  0
 10 15  1  0  0  0  0
 10 11  2  0  0  0  0
 11 12  1  0  0  0  0
 11 24  1  0  0  0  0
 12 13  2  0  0  0  0
 12 25  1  0  0  0  0
 13 14  1  0  0  0  0
 13 26  1  0  0  0  0
 14 15  2  0  0  0  0
 14 27  1  0  0  0  0
 15 16  1  0  0  0  0
 17 18  2  0  0  0  0
 17 28  1  0  0  0  0
 18 19  1  0  0  0  0
M  CHG  1   3  -1
M  END
> <s_m_source_file>
AV-unprocessed.smi

> <i_m_source_file_index>
675

> <i_lp_mmshare_version>
43012

> <i_f3d_flags>
0

> <s_epik_input>
Tz1jMVtuSF1jKD1PKW4oW2NIXWMxQ2wpW0NIMl1bQ0BIXShbT0hdKWMyW2NIXVtjSF1bY0hdW2NIXWMyQ2w=

> <s_epik_cmdline>
J2VwaWtfcHl0aG9uJywgJy1waCcsICc3LjAnLCAnLXRuJywgJzgnLCAnLW1hJywgJzIwMCcsICctbWV0YWxfYmluZGluZycsICctaW1hZScsICc8aW5maWxlLm1hZT4nLCAnLW9tYWUnLCAnPG91dGZpbGUubWFlPic=

> <r_epik_Ionization_Penalty>
1.79791

> <r_epik_Ionization_Penalty_Charging>
3.23819e-08

> <r_epik_Ionization_Penalty_Neutral>
1.79791

> <r_epik_State_Penalty>
1.91135

> <r_epik_Charging_Adjusted_Penalty>
1.91135

> <i_epik_Tot_Q>
-1

> <i_epik_Tot_abs_Q>
1

> <r_epik_Metal_State_Penalty>
0.014155

> <b_epik_Metal_Only>
0

> <s_lp_Force_Field>
OPLS_2005

> <r_lp_Energy>
20.012

> <b_lp_Chiralities_Consistent>
1

> <s_lp_Variant>
AV-unprocessed.smi:675-3

> <Gold.Version>
5.8.1

> <Gold.Id.Protein>
6NUR|6NUR_protein|mol2

> <Gold.PLP.Fitness>
48.6970

> <Gold.PLP.PLP>
-40.8357

> <Gold.PLP.part.hbond>
-2.0882

> <Gold.PLP.part.metal>
0.0000

> <Gold.PLP.part.buried>
-6.2041

> <Gold.PLP.part.nonpolar>
-33.0821

> <Gold.PLP.part.repulsive>
0.0000

> <Gold.PLP.ligand.clash>
0.0000

> <Gold.PLP.ligand.torsion>
0.3374

> <Gold.PLP.Chemscore.Hbond>
2.8398

> <Gold.PLP.Chemscore.CHOScore>
0.0000

> <Gold.PLP.Chemscore.Metal>
0.0000

> <Gold.Chemscore.Hbonds>
donor molecule, donor type, donor heavy atom, donor atom, acceptor molecule, acceptor atom, score
      P1  H  6896  6909       L1     3  1.51
      P1  H 10752 10763       L1     1  1.00

> <Gold.PLP.Chemscore.Internal.Correction>
0.0168

> <Gold.Rescore>
     Score         DG    S(hbond)    S(metal)    S(lipo)     H(rot)  DE(clash)    DE(int)     intcor
     18.67     -19.14       1.50        0.00     120.50       2.13       0.15       0.32       ----

> <Gold.Chemscore.Fitness>
18.6680

> <Gold.Chemscore.DG>
-19.1367

> <Gold.Chemscore.ZeroCoef>
-5.4800

> <Gold.Chemscore.Hbond>
1.4986

> <Gold.Chemscore.Metal>
0.0000

> <Gold.Chemscore.Lipo>
120.4992

> <Gold.Chemscore.Internal_Hbond>
0.0000

> <Gold.Chemscore.DEClash>
0.1499

> <Gold.Chemscore.DEInternal>
0.3188

> <Gold.Chemscore.Rot>
2.1278

> <Gold.Chemscore.Internal.Correction>
   9.000000E+99

> <Gold.Chemscore.Hbonds>
donor molecule, donor type, donor heavy atom, donor atom, acceptor molecule, acceptor atom, score
      P1  H  6896  6909       L1     3  0.18
      P1  H 10752 10763       L1     1  0.90

> <Gold.Chemscore.Hbond.Weighted>
-5.0054

> <Gold.Chemscore.Metal.Weighted>
-0.0000

> <Gold.Chemscore.Lipo.Weighted>
-14.0984

> <Gold.Chemscore.Internal_Hbond.Weighted>
0.0000

> <Gold.Chemscore.DEClash.Weighted>
0.1499

> <Gold.Chemscore.DEInternal.Weighted>
0.3188

> <Gold.Chemscore.Rot.Weighted>
5.4470

> <Gold.Chemscore.Internal.Correction.Weighted>
   9.000000E+99

> <Gold.Protein.RotatedTorsions>
[ 6907 6896 6895 6894 ] final  150.38 input  -60.11 | X-H torsion
[ 7974 7965 7964 7962 ] final  108.11 input  175.53 | X-H torsion
[ 8008 7997 7996 7995 ] final -148.79 input   59.86 | X-H torsion
[ 10167 10162 10161 10158 ] final   78.07 input  -65.29 | X-H torsion
[ 10718 10713 10712 10709 ] final   35.02 input   66.30 | X-H torsion
[ 10763 10752 10751 10750 ] final  101.26 input  -60.55 | X-H torsion
[ 11005 11000 10999 10996 ] final -152.65 input  -57.11 | X-H torsion

> <Gold.Protein.ActiveResidues>
 VAL166  LYS551  ARG553  GLY616  TRP617  ASP618  TYR619  PRO620  LYS621  CYS622 
 ASP623  PHE694  ASN695  SER759  ASP760  ASP761  ALA762  ILE779  LEU786  VAL792 
 PHE793  MET794  SER795  GLU796  ALA797  LYS798  CYS799  TRP800  GLU811  SER814 

> <Gold.Protein.RotatedAtoms>
  152.1152  133.4322  159.4649 H   0  0  0  0  0  0  0  0  0  0  0  0  # atno 6907 bound_to 6896
  150.6869  134.2601  159.4555 H   0  0  0  0  0  0  0  0  0  0  0  0  # atno 6908 bound_to 6896
  152.0473  134.9674  160.0625 H   0  0  0  0  0  0  0  0  0  0  0  0  # atno 6909 bound_to 6896
  145.2850  139.2620  143.3895 H   0  0  0  0  0  0  0  0  0  0  0  0  # atno 7974 bound_to 7965
  155.5972  140.0658  157.2743 H   0  0  0  0  0  0  0  0  0  0  0  0  # atno 8008 bound_to 7997
  154.4288  140.1824  156.1183 H   0  0  0  0  0  0  0  0  0  0  0  0  # atno 8009 bound_to 7997
  156.0187  140.3319  155.7019 H   0  0  0  0  0  0  0  0  0  0  0  0  # atno 8010 bound_to 7997
  139.9748  144.5868  150.7953 H   0  0  0  0  0  0  0  0  0  0  0  0  # atno 10167 bound_to 10162
  157.3176  130.7431  149.6764 H   0  0  0  0  0  0  0  0  0  0  0  0  # atno 10718 bound_to 10713
  153.3244  135.4050  155.1444 H   0  0  0  0  0  0  0  0  0  0  0  0  # atno 10763 bound_to 10752
  154.8608  135.3595  154.5553 H   0  0  0  0  0  0  0  0  0  0  0  0  # atno 10764 bound_to 10752
  153.5988  135.7071  153.5452 H   0  0  0  0  0  0  0  0  0  0  0  0  # atno 10765 bound_to 10752
  140.7166  134.3773  157.5190 H   0  0  0  0  0  0  0  0  0  0  0  0  # atno 11005 bound_to 11000
  146.3204  140.3326  142.8641 LP  0  0  0  0  0  0  0  0  0  0  0  0  # atno 17320 bound_to 7965
  144.9221  140.7880  143.5742 LP  0  0  0  0  0  0  0  0  0  0  0  0  # atno 17321 bound_to 7965
  140.7509  143.2964  151.3194 LP  0  0  0  0  0  0  0  0  0  0  0  0  # atno 17342 bound_to 10162
  139.6454  144.0462  152.2586 LP  0  0  0  0  0  0  0  0  0  0  0  0  # atno 17343 bound_to 10162
  155.9683  130.4233  150.4555 LP  0  0  0  0  0  0  0  0  0  0  0  0  # atno 17370 bound_to 10713
  157.2564  131.0557  151.2347 LP  0  0  0  0  0  0  0  0  0  0  0  0  # atno 17371 bound_to 10713
  139.8858  134.8926  156.2621 LP  0  0  0  0  0  0  0  0  0  0  0  0  # atno 17394 bound_to 11000
  141.0039  133.7135  156.1003 LP  0  0  0  0  0  0  0  0  0  0  0  0  # atno 17395 bound_to 11000

$$$$
