AV-unprocessed.smi:2867|AV-procd|sdf|11026|dock6
  -GOLD-   2272015493D 1   1.00000     0.00000
 Structure written by MMmdl.
 40 42  0  0  0  0  0  0  0  0  3 V2000
  152.3933  138.5753  155.0012 C   0  0  0  0  0  0  0  0  0  0  0  0
  152.9038  139.4176  156.0187 O   0  0  0  0  0  0  0  0  0  0  0  0
  152.7066  138.8860  157.3194 C   0  0  0  0  0  0  0  0  0  0  0  0
  151.2923  139.2339  157.8034 C   0  0  0  0  0  0  0  0  0  0  0  0
  150.6231  140.1912  156.9081 N   0  0  0  0  0  0  0  0  0  0  0  0
  150.6435  141.5540  156.8685 C   0  0  0  0  0  0  0  0  0  0  0  0
  151.3959  142.4492  157.7602 C   0  0  0  0  0  0  0  0  0  0  0  0
  151.5267  143.8194  157.4448 C   0  0  0  0  0  0  0  0  0  0  0  0
  152.2411  144.6881  158.2924 C   0  0  0  0  0  0  0  0  0  0  0  0
  152.8387  144.1920  159.4658 C   0  0  0  0  0  0  0  0  0  0  0  0
  152.7212  142.8272  159.7874 C   0  0  0  0  0  0  0  0  0  0  0  0
  153.2967  142.3446  160.9139 F   0  0  0  0  0  0  0  0  0  0  0  0
  152.0059  141.9624  158.9369 C   0  0  0  0  0  0  0  0  0  0  0  0
  149.8084  141.9731  155.8808 N   0  3  0  0  0  0  0  0  0  0  0  0
  149.2413  140.8566  155.2644 C   0  0  0  0  0  0  0  0  0  0  0  0
  148.3360  140.7652  154.2134 C   0  0  0  0  0  0  0  0  0  0  0  0
  147.9461  139.4641  153.8328 C   0  0  0  0  0  0  0  0  0  0  0  0
  146.7778  139.2712  152.4904 S   0  0  0  0  0  0  0  0  0  0  0  0
  145.4742  139.0021  153.4005 N   0  5  0  0  0  0  0  0  0  0  0  0
  146.7297  140.5622  151.7871 O   0  0  0  0  0  0  0  0  0  0  0  0
  147.2036  138.0820  151.7362 O   0  0  0  0  0  0  0  0  0  0  0  0
  148.4473  138.3167  154.4838 C   0  0  0  0  0  0  0  0  0  0  0  0
  149.3665  138.4243  155.5482 C   0  0  0  0  0  0  0  0  0  0  0  0
  149.7529  139.7124  155.9199 C   0  0  0  0  0  0  0  0  0  0  0  0
  152.5706  139.0313  154.0272 H   0  0  0  0  0  0  0  0  0  0  0  0
  151.3186  138.4271  155.1133 H   0  0  0  0  0  0  0  0  0  0  0  0
  152.8853  137.6018  155.0124 H   0  0  0  0  0  0  0  0  0  0  0  0
  152.8364  137.8029  157.3046 H   0  0  0  0  0  0  0  0  0  0  0  0
  153.4480  139.2956  158.0076 H   0  0  0  0  0  0  0  0  0  0  0  0
  150.6857  138.3314  157.8544 H   0  0  0  0  0  0  0  0  0  0  0  0
  151.3131  139.6411  158.8144 H   0  0  0  0  0  0  0  0  0  0  0  0
  151.0680  144.2117  156.5488 H   0  0  0  0  0  0  0  0  0  0  0  0
  152.3297  145.7351  158.0427 H   0  0  0  0  0  0  0  0  0  0  0  0
  153.3874  144.8566  160.1170 H   0  0  0  0  0  0  0  0  0  0  0  0
  151.9295  140.9152  159.1908 H   0  0  0  0  0  0  0  0  0  0  0  0
  147.9473  141.6379  153.7097 H   0  0  0  0  0  0  0  0  0  0  0  0
  144.6577  139.3600  152.8908 H   0  0  0  0  0  0  0  0  0  0  0  0
  148.1259  137.3370  154.1618 H   0  0  0  0  0  0  0  0  0  0  0  0
  149.7433  137.5410  156.0417 H   0  0  0  0  0  0  0  0  0  0  0  0
  149.6396  142.9435  155.6496 H   0  0  0  0  0  0  0  0  0  0  0  0
  1  2  1  0  0  0  0
  1 25  1  0  0  0  0
  1 26  1  0  0  0  0
  1 27  1  0  0  0  0
  2  3  1  0  0  0  0
  3  4  1  0  0  0  0
  3 28  1  0  0  0  0
  3 29  1  0  0  0  0
  4  5  1  0  0  0  0
  4 30  1  0  0  0  0
  4 31  1  0  0  0  0
  5 24  1  0  0  0  0
  5  6  1  0  0  0  0
  6  7  1  0  0  0  0
  6 14  2  0  0  0  0
  7 13  1  0  0  0  0
  7  8  2  0  0  0  0
  8  9  1  0  0  0  0
  8 32  1  0  0  0  0
  9 10  2  0  0  0  0
  9 33  1  0  0  0  0
 10 11  1  0  0  0  0
 10 34  1  0  0  0  0
 11 12  1  0  0  0  0
 11 13  2  0  0  0  0
 13 35  1  0  0  0  0
 14 15  1  0  0  0  0
 14 40  1  0  0  0  0
 15 24  2  0  0  0  0
 15 16  1  0  0  0  0
 16 17  2  0  0  0  0
 16 36  1  0  0  0  0
 17 18  1  0  0  0  0
 17 22  1  0  0  0  0
 18 19  1  0  0  0  0
 18 20  2  0  0  0  0
 18 21  2  0  0  0  0
 19 37  1  0  0  0  0
 22 23  2  0  0  0  0
 22 38  1  0  0  0  0
 23 24  1  0  0  0  0
 23 39  1  0  0  0  0
M  CHG  1  14   1
M  CHG  1  19  -1
M  END
> <s_m_source_file>
AV-unprocessed.smi

> <i_m_source_file_index>
2867

> <i_lp_mmshare_version>
43012

> <i_f3d_flags>
0

> <s_epik_input>
W05IMl1TKD1PKSg9TyljKFtjSF0xKVtjSF1bY0hdYyhjMTIpbihbQ0gyXVtDSDJdT1tDSDNdKWMobjIpLWMzW2NIXVtjSF1bY0hdYyhGKVtjSF0z

> <s_epik_cmdline>
J2VwaWtfcHl0aG9uJywgJy1waCcsICc3LjAnLCAnLXRuJywgJzgnLCAnLW1hJywgJzIwMCcsICctbWV0YWxfYmluZGluZycsICctaW1hZScsICc8aW5maWxlLm1hZT4nLCAnLW9tYWUnLCAnPG91dGZpbGUubWFlPic=

> <r_epik_Ionization_Penalty>
2.60795

> <r_epik_Ionization_Penalty_Charging>
2.60795

> <r_epik_Ionization_Penalty_Neutral>
2.51e-12

> <r_epik_State_Penalty>
3.58678

> <r_epik_Charging_Adjusted_Penalty>
6.19473

> <i_epik_Tot_Q>
0

> <i_epik_Tot_abs_Q>
2

> <r_epik_Metal_State_Penalty>
1.73828

> <b_epik_Metal_Only>
1

> <s_lp_Force_Field>
OPLS_2005

> <r_lp_Energy>
13.6429

> <b_lp_Chiralities_Consistent>
1

> <s_lp_Variant>
AV-unprocessed.smi:2867-4

> <Gold.Version>
5.8.1

> <Gold.Id.Protein>
6NUR|6NUR_protein|mol2

> <Gold.PLP.Fitness>
54.9448

> <Gold.PLP.PLP>
-41.7414

> <Gold.PLP.part.hbond>
-3.9107

> <Gold.PLP.part.metal>
0.0000

> <Gold.PLP.part.buried>
-1.6959

> <Gold.PLP.part.nonpolar>
-42.2324

> <Gold.PLP.part.repulsive>
7.1072

> <Gold.PLP.ligand.clash>
0.0000

> <Gold.PLP.ligand.torsion>
1.9563

> <Gold.PLP.Chemscore.Hbond>
5.0000

> <Gold.PLP.Chemscore.CHOScore>
0.0000

> <Gold.PLP.Chemscore.Metal>
0.0000

> <Gold.Chemscore.Hbonds>
donor molecule, donor type, donor heavy atom, donor atom, acceptor molecule, acceptor atom, score
      L1  H    14    40       P1  8028  2.00
      L1  H    19    37       P1 10175  1.00
      P1  H  7954  7966       L1    21  0.86
      P1  H  7997  8010       L1     2  1.00

> <Gold.PLP.Chemscore.Internal.Correction>
2.1160

> <Gold.Rescore>
     Score         DG    S(hbond)    S(metal)    S(lipo)     H(rot)  DE(clash)    DE(int)     intcor
     21.52     -27.38       3.60        0.00     116.11       1.45       3.03       2.83       ----

> <Gold.Chemscore.Fitness>
21.5160

> <Gold.Chemscore.DG>
-27.3771

> <Gold.Chemscore.ZeroCoef>
-5.4800

> <Gold.Chemscore.Hbond>
3.6022

> <Gold.Chemscore.Metal>
0.0000

> <Gold.Chemscore.Lipo>
116.1144

> <Gold.Chemscore.Internal_Hbond>
0.0000

> <Gold.Chemscore.DEClash>
3.0311

> <Gold.Chemscore.DEInternal>
2.8300

> <Gold.Chemscore.Rot>
1.4530

> <Gold.Chemscore.Internal.Correction>
   9.000000E+99

> <Gold.Chemscore.Hbonds>
donor molecule, donor type, donor heavy atom, donor atom, acceptor molecule, acceptor atom, score
      L1  H    14    40       P1  8028  0.99
      L1  H    19    37       P1 10175  0.91
      P1  H  7954  7966       L1    21  0.84
      P1  H  7997  8010       L1     2  0.59

> <Gold.Chemscore.Hbond.Weighted>
-12.0314

> <Gold.Chemscore.Metal.Weighted>
-0.0000

> <Gold.Chemscore.Lipo.Weighted>
-13.5854

> <Gold.Chemscore.Internal_Hbond.Weighted>
0.0000

> <Gold.Chemscore.DEClash.Weighted>
3.0311

> <Gold.Chemscore.DEInternal.Weighted>
2.8300

> <Gold.Chemscore.Rot.Weighted>
3.7196

> <Gold.Chemscore.Internal.Correction.Weighted>
   9.000000E+99

> <Gold.Protein.RotatedTorsions>
[ 6907 6896 6895 6894 ] final  134.72 input  -60.11 | X-H torsion
[ 7974 7965 7964 7962 ] final  131.33 input  175.53 | X-H torsion
[ 8008 7997 7996 7995 ] final   98.13 input   59.86 | X-H torsion
[ 10167 10162 10161 10158 ] final -109.46 input  -65.29 | X-H torsion
[ 10718 10713 10712 10709 ] final  -67.29 input   66.30 | X-H torsion
[ 10763 10752 10751 10750 ] final  -39.18 input  -60.55 | X-H torsion
[ 11005 11000 10999 10996 ] final  114.60 input  -57.11 | X-H torsion

> <Gold.Protein.ActiveResidues>
 VAL166  LYS551  ARG553  GLY616  TRP617  ASP618  TYR619  PRO620  LYS621  CYS622 
 ASP623  PHE694  ASN695  SER759  ASP760  ASP761  ALA762  ILE779  LEU786  VAL792 
 PHE793  MET794  SER795  GLU796  ALA797  LYS798  CYS799  TRP800  GLU811  SER814 

> <Gold.Protein.RotatedAtoms>
  152.3082  133.5725  159.5662 H   0  0  0  0  0  0  0  0  0  0  0  0  # atno 6907 bound_to 6896
  150.7310  134.0191  159.3704 H   0  0  0  0  0  0  0  0  0  0  0  0  # atno 6908 bound_to 6896
  151.8086  135.0688  160.0461 H   0  0  0  0  0  0  0  0  0  0  0  0  # atno 6909 bound_to 6896
  145.0084  139.4244  143.5257 H   0  0  0  0  0  0  0  0  0  0  0  0  # atno 7974 bound_to 7965
  156.0973  140.3248  155.7895 H   0  0  0  0  0  0  0  0  0  0  0  0  # atno 8008 bound_to 7997
  155.4896  140.0560  157.2973 H   0  0  0  0  0  0  0  0  0  0  0  0  # atno 8009 bound_to 7997
  154.4675  140.1996  156.0097 H   0  0  0  0  0  0  0  0  0  0  0  0  # atno 8010 bound_to 7997
  140.1550  143.4167  152.1467 H   0  0  0  0  0  0  0  0  0  0  0  0  # atno 10167 bound_to 10162
  156.0565  130.4275  150.1833 H   0  0  0  0  0  0  0  0  0  0  0  0  # atno 10718 bound_to 10713
  153.9251  135.6778  153.4747 H   0  0  0  0  0  0  0  0  0  0  0  0  # atno 10763 bound_to 10752
  153.1008  135.4829  154.8861 H   0  0  0  0  0  0  0  0  0  0  0  0  # atno 10764 bound_to 10752
  154.7457  135.3172  154.8605 H   0  0  0  0  0  0  0  0  0  0  0  0  # atno 10765 bound_to 10752
  139.8985  134.9570  156.6917 H   0  0  0  0  0  0  0  0  0  0  0  0  # atno 11005 bound_to 11000
  146.3465  139.9514  142.8728 LP  0  0  0  0  0  0  0  0  0  0  0  0  # atno 17320 bound_to 7965
  145.2056  140.9873  143.4130 LP  0  0  0  0  0  0  0  0  0  0  0  0  # atno 17321 bound_to 7965
  139.5408  144.7254  151.4742 LP  0  0  0  0  0  0  0  0  0  0  0  0  # atno 17342 bound_to 10162
  140.6679  143.8359  150.6963 LP  0  0  0  0  0  0  0  0  0  0  0  0  # atno 17343 bound_to 10162
  156.9909  130.9893  151.3415 LP  0  0  0  0  0  0  0  0  0  0  0  0  # atno 17370 bound_to 10713
  157.5540  130.8201  149.8180 LP  0  0  0  0  0  0  0  0  0  0  0  0  # atno 17371 bound_to 10713
  140.7220  133.9133  155.8153 LP  0  0  0  0  0  0  0  0  0  0  0  0  # atno 17394 bound_to 11000
  141.0220  134.0875  157.4110 LP  0  0  0  0  0  0  0  0  0  0  0  0  # atno 17395 bound_to 11000

$$$$
