AV-unprocessed.smi:3069|AV-procd|sdf|11710|dock4
  -GOLD-   2272017113D 1   1.00000     0.00000
 Structure written by MMmdl.
 39 40  0  0  0  0  0  0  0  0  1 V2000
  149.7613  136.9782  155.1292 N   0  0  0  0  0  0  0  0  0  0  0  0
  149.3197  137.9829  154.7622 C   0  0  0  0  0  0  0  0  0  0  0  0
  148.7658  139.2487  154.2984 C   0  0  0  0  0  0  0  0  0  0  0  0
  147.5144  139.2141  153.7854 N   0  0  0  0  0  0  0  0  0  0  0  0
  146.9820  140.3855  153.3763 C   0  0  0  0  0  0  0  0  0  0  0  0
  147.6940  141.5963  153.4793 C   0  0  0  0  0  0  0  0  0  0  0  0
  148.9428  141.6412  153.9902 N   0  0  0  0  0  0  0  0  0  0  0  0
  149.4887  140.4703  154.4022 C   0  0  0  0  0  0  0  0  0  0  0  0
  150.7861  140.5079  154.9415 N   0  0  0  0  0  0  0  0  0  0  0  0
  151.0664  141.4678  156.0039 C   0  0  0  0  0  0  0  0  0  0  0  0
  151.7100  140.7994  157.2283 C   0  0  0  0  0  0  0  0  0  0  0  0
  151.3251  141.5297  158.3845 O   0  0  0  0  0  0  0  0  0  0  0  0
  152.2006  142.5875  158.7549 C   0  0  0  0  0  0  0  0  0  0  0  0
  153.3858  141.9350  159.4919 C   0  0  0  0  0  0  0  0  0  0  0  0
  153.0996  141.5066  160.9411 C   0  0  0  0  0  0  0  0  0  0  0  0
  153.3750  142.6245  161.9602 C   0  0  0  0  0  0  0  0  0  0  0  0
  152.3665  143.7823  161.9325 C   0  0  0  0  0  0  0  0  0  0  0  0
  152.2255  144.4806  160.5683 C   0  0  0  0  0  0  0  0  0  0  0  0
  151.4149  143.6533  159.5568 C   0  0  0  0  0  0  0  0  0  0  0  0
  145.9832  140.3567  152.9666 H   0  0  0  0  0  0  0  0  0  0  0  0
  147.2618  142.5300  153.1512 H   0  0  0  0  0  0  0  0  0  0  0  0
  151.2289  139.6080  155.0626 H   0  0  0  0  0  0  0  0  0  0  0  0
  151.7408  142.2258  155.6051 H   0  0  0  0  0  0  0  0  0  0  0  0
  150.1525  141.9893  156.2900 H   0  0  0  0  0  0  0  0  0  0  0  0
  151.3699  139.7673  157.3189 H   0  0  0  0  0  0  0  0  0  0  0  0
  152.7929  140.7695  157.1092 H   0  0  0  0  0  0  0  0  0  0  0  0
  152.6028  143.0445  157.8490 H   0  0  0  0  0  0  0  0  0  0  0  0
  153.7004  141.0607  158.9207 H   0  0  0  0  0  0  0  0  0  0  0  0
  154.2449  142.6067  159.4742 H   0  0  0  0  0  0  0  0  0  0  0  0
  152.0836  141.1233  161.0428 H   0  0  0  0  0  0  0  0  0  0  0  0
  153.7580  140.6714  161.1821 H   0  0  0  0  0  0  0  0  0  0  0  0
  153.3695  142.1918  162.9610 H   0  0  0  0  0  0  0  0  0  0  0  0
  154.3832  143.0138  161.8137 H   0  0  0  0  0  0  0  0  0  0  0  0
  151.3913  143.4281  162.2692 H   0  0  0  0  0  0  0  0  0  0  0  0
  152.6806  144.5212  162.6702 H   0  0  0  0  0  0  0  0  0  0  0  0
  151.6922  145.4171  160.7347 H   0  0  0  0  0  0  0  0  0  0  0  0
  153.1976  144.7617  160.1619 H   0  0  0  0  0  0  0  0  0  0  0  0
  150.9499  144.3386  158.8478 H   0  0  0  0  0  0  0  0  0  0  0  0
  150.5845  143.1792  160.0805 H   0  0  0  0  0  0  0  0  0  0  0  0
  1  2  3  0  0  0  0
  2  3  1  0  0  0  0
  3  8  1  0  0  0  0
  3  4  2  0  0  0  0
  4  5  1  0  0  0  0
  5  6  2  0  0  0  0
  5 20  1  0  0  0  0
  6  7  1  0  0  0  0
  6 21  1  0  0  0  0
  7  8  2  0  0  0  0
  8  9  1  0  0  0  0
  9 10  1  0  0  0  0
  9 22  1  0  0  0  0
 10 11  1  0  0  0  0
 10 23  1  0  0  0  0
 10 24  1  0  0  0  0
 11 12  1  0  0  0  0
 11 25  1  0  0  0  0
 11 26  1  0  0  0  0
 12 13  1  0  0  0  0
 13 19  1  0  0  0  0
 13 14  1  0  0  0  0
 13 27  1  0  0  0  0
 14 15  1  0  0  0  0
 14 28  1  0  0  0  0
 14 29  1  0  0  0  0
 15 16  1  0  0  0  0
 15 30  1  0  0  0  0
 15 31  1  0  0  0  0
 16 17  1  0  0  0  0
 16 32  1  0  0  0  0
 16 33  1  0  0  0  0
 17 18  1  0  0  0  0
 17 34  1  0  0  0  0
 17 35  1  0  0  0  0
 18 19  1  0  0  0  0
 18 36  1  0  0  0  0
 18 37  1  0  0  0  0
 19 38  1  0  0  0  0
 19 39  1  0  0  0  0
M  END
> <s_m_source_file>
AV-unprocessed.smi

> <i_m_source_file_index>
3069

> <i_lp_mmshare_version>
43012

> <i_f3d_flags>
0

> <s_epik_input>
TiNDYzFuW2NIXVtjSF1uYzFbTkhdW0NIMl1bQ0gyXU9bQ0hdMltDSDJdW0NIMl1bQ0gyXVtDSDJdW0NIMl1bQ0gyXTI=

> <s_epik_cmdline>
J2VwaWtfcHl0aG9uJywgJy1waCcsICc3LjAnLCAnLXRuJywgJzgnLCAnLW1hJywgJzIwMCcsICctbWV0YWxfYmluZGluZycsICctaW1hZScsICc8aW5maWxlLm1hZT4nLCAnLW9tYWUnLCAnPG91dGZpbGUubWFlPic=

> <r_lp_tautomer_probability>
1

> <r_epik_Ionization_Penalty>
5.57718e-05

> <r_epik_Ionization_Penalty_Charging>
0

> <r_epik_Ionization_Penalty_Neutral>
5.57718e-05

> <r_epik_State_Penalty>
-0

> <r_epik_Charging_Adjusted_Penalty>
0

> <i_epik_Tot_Q>
0

> <i_epik_Tot_abs_Q>
0

> <r_epik_Metal_State_Penalty>
-0

> <b_epik_Metal_Only>
0

> <s_lp_Force_Field>
OPLS_2005

> <r_lp_Energy>
28.0763

> <b_lp_Chiralities_Consistent>
1

> <s_lp_Variant>
AV-unprocessed.smi:3069-1

> <Gold.Version>
5.8.1

> <Gold.Id.Protein>
6NUR|6NUR_protein|mol2

> <Gold.PLP.Fitness>
45.7233

> <Gold.PLP.PLP>
-40.9106

> <Gold.PLP.part.hbond>
-2.1506

> <Gold.PLP.part.metal>
0.0000

> <Gold.PLP.part.buried>
-5.8925

> <Gold.PLP.part.nonpolar>
-31.8676

> <Gold.PLP.part.repulsive>
0.4934

> <Gold.PLP.ligand.clash>
0.0000

> <Gold.PLP.ligand.torsion>
1.0442

> <Gold.PLP.Chemscore.Hbond>
1.2817

> <Gold.PLP.Chemscore.CHOScore>
1.0000

> <Gold.PLP.Chemscore.Metal>
0.0000

> <Gold.Chemscore.Hbonds>
donor molecule, donor type, donor heavy atom, donor atom, acceptor molecule, acceptor atom, score
      P1  H  7989  7998       L1     9  0.68
      P1  H  8011  8017       L1     7  0.46
      L1  C     5    20       P1 10175  1.00

> <Gold.PLP.Chemscore.Internal.Correction>
0.0559

> <Gold.Rescore>
     Score         DG    S(hbond)    S(metal)    S(lipo)     H(rot)  DE(clash)    DE(int)     intcor
     12.96     -14.02       0.20        0.00     111.97       2.04       0.07       1.00       ----

> <Gold.Chemscore.Fitness>
12.9552

> <Gold.Chemscore.DG>
-14.0220

> <Gold.Chemscore.ZeroCoef>
-5.4800

> <Gold.Chemscore.Hbond>
0.1956

> <Gold.Chemscore.Metal>
0.0000

> <Gold.Chemscore.Lipo>
111.9702

> <Gold.Chemscore.Internal_Hbond>
0.0000

> <Gold.Chemscore.DEClash>
0.0679

> <Gold.Chemscore.DEInternal>
0.9988

> <Gold.Chemscore.Rot>
2.0359

> <Gold.Chemscore.Internal.Correction>
   9.000000E+99

> <Gold.Chemscore.Hbonds>
donor molecule, donor type, donor heavy atom, donor atom, acceptor molecule, acceptor atom, score
      P1  H  7989  7998       L1     9  0.01
      P1  H  8011  8017       L1     7  0.05

> <Gold.Chemscore.Hbond.Weighted>
-0.6533

> <Gold.Chemscore.Metal.Weighted>
-0.0000

> <Gold.Chemscore.Lipo.Weighted>
-13.1005

> <Gold.Chemscore.Internal_Hbond.Weighted>
0.0000

> <Gold.Chemscore.DEClash.Weighted>
0.0679

> <Gold.Chemscore.DEInternal.Weighted>
0.9988

> <Gold.Chemscore.Rot.Weighted>
5.2119

> <Gold.Chemscore.Internal.Correction.Weighted>
   9.000000E+99

> <Gold.Protein.RotatedTorsions>
[ 6907 6896 6895 6894 ] final   -1.20 input  -60.11 | X-H torsion
[ 7974 7965 7964 7962 ] final  114.78 input  175.53 | X-H torsion
[ 8008 7997 7996 7995 ] final -158.80 input   59.86 | X-H torsion
[ 10167 10162 10161 10158 ] final  136.11 input  -65.29 | X-H torsion
[ 10718 10713 10712 10709 ] final -103.12 input   66.30 | X-H torsion
[ 10763 10752 10751 10750 ] final  165.79 input  -60.55 | X-H torsion
[ 11005 11000 10999 10996 ] final  -71.11 input  -57.11 | X-H torsion

> <Gold.Protein.ActiveResidues>
 VAL166  LYS551  ARG553  GLY616  TRP617  ASP618  TYR619  PRO620  LYS621  CYS622 
 ASP623  PHE694  ASN695  SER759  ASP760  ASP761  ALA762  ILE779  LEU786  VAL792 
 PHE793  MET794  SER795  GLU796  ALA797  LYS798  CYS799  TRP800  GLU811  SER814 

> <Gold.Protein.RotatedAtoms>
  151.5499  135.1067  159.9946 H   0  0  0  0  0  0  0  0  0  0  0  0  # atno 6907 bound_to 6896
  152.4496  133.7599  159.6751 H   0  0  0  0  0  0  0  0  0  0  0  0  # atno 6908 bound_to 6896
  150.8421  133.7853  159.3081 H   0  0  0  0  0  0  0  0  0  0  0  0  # atno 6909 bound_to 6896
  145.2002  139.2956  143.4322 H   0  0  0  0  0  0  0  0  0  0  0  0  # atno 7974 bound_to 7965
  155.7530  140.0829  157.2192 H   0  0  0  0  0  0  0  0  0  0  0  0  # atno 8008 bound_to 7997
  154.4010  140.1557  156.2801 H   0  0  0  0  0  0  0  0  0  0  0  0  # atno 8009 bound_to 7997
  155.8912  140.3415  155.5960 H   0  0  0  0  0  0  0  0  0  0  0  0  # atno 8010 bound_to 7997
  139.5192  144.6481  151.5380 H   0  0  0  0  0  0  0  0  0  0  0  0  # atno 10167 bound_to 10162
  156.0253  130.5452  150.7207 H   0  0  0  0  0  0  0  0  0  0  0  0  # atno 10718 bound_to 10713
  154.3293  135.2755  155.2480 H   0  0  0  0  0  0  0  0  0  0  0  0  # atno 10763 bound_to 10752
  154.4799  135.5861  153.6385 H   0  0  0  0  0  0  0  0  0  0  0  0  # atno 10764 bound_to 10752
  152.9868  135.6108  154.3484 H   0  0  0  0  0  0  0  0  0  0  0  0  # atno 10765 bound_to 10752
  141.1586  133.6808  156.6856 H   0  0  0  0  0  0  0  0  0  0  0  0  # atno 11005 bound_to 11000
  146.3419  140.2244  142.8592 LP  0  0  0  0  0  0  0  0  0  0  0  0  # atno 17320 bound_to 7965
  144.9955  140.8585  143.5313 LP  0  0  0  0  0  0  0  0  0  0  0  0  # atno 17321 bound_to 7965
  140.6275  143.9140  150.6577 LP  0  0  0  0  0  0  0  0  0  0  0  0  # atno 17342 bound_to 10162
  140.2434  143.3647  152.1468 LP  0  0  0  0  0  0  0  0  0  0  0  0  # atno 17343 bound_to 10162
  157.4823  131.0903  151.0522 LP  0  0  0  0  0  0  0  0  0  0  0  0  # atno 17370 bound_to 10713
  157.0952  130.5959  149.5448 LP  0  0  0  0  0  0  0  0  0  0  0  0  # atno 17371 bound_to 10713
  140.3069  134.8118  157.4144 LP  0  0  0  0  0  0  0  0  0  0  0  0  # atno 17394 bound_to 11000
  140.1212  134.5217  155.8182 LP  0  0  0  0  0  0  0  0  0  0  0  0  # atno 17395 bound_to 11000

$$$$
