AV-unprocessed.smi:2293|AV-procd|sdf|9214|dock3
  -GOLD-   2272012433D 1   1.00000     0.00000
 Structure written by MMmdl.
 34 35  0  0  0  0  0  0  0  0  1 V2000
  148.5426  138.7817  153.3184 C   0  0  0  0  0  0  0  0  0  0  0  0
  149.3561  139.6716  154.2419 C   0  0  0  0  0  0  0  0  0  0  0  0
  148.6342  140.6573  154.9212 N   0  0  0  0  0  0  0  0  0  0  0  0
  149.2434  141.4596  155.7317 C   0  0  0  0  0  0  0  0  0  0  0  0
  150.6277  141.3737  155.9533 N   0  0  0  0  0  0  0  0  0  0  0  0
  151.1973  142.3392  156.9084 C   0  0  0  0  0  0  0  0  0  0  0  0
  151.7663  141.6489  158.1683 C   0  0  2  0  0  0  0  0  0  0  0  0
  150.9387  140.5501  158.4957 O   0  0  0  0  0  0  0  0  0  0  0  0
  151.8700  142.6285  159.3276 C   0  0  0  0  0  0  0  0  0  0  0  0
  151.3335  143.9278  159.1997 C   0  0  0  0  0  0  0  0  0  0  0  0
  151.4195  144.8403  160.2693 C   0  0  0  0  0  0  0  0  0  0  0  0
  152.0394  144.4578  161.4743 C   0  0  0  0  0  0  0  0  0  0  0  0
  152.5715  143.1610  161.6102 C   0  0  0  0  0  0  0  0  0  0  0  0
  153.1651  142.7909  162.7695 F   0  0  0  0  0  0  0  0  0  0  0  0
  152.4856  142.2483  160.5409 C   0  0  0  0  0  0  0  0  0  0  0  0
  151.4064  140.4401  155.3334 C   0  0  0  0  0  0  0  0  0  0  0  0
  152.6193  140.3680  155.5421 O   0  0  0  0  0  0  0  0  0  0  0  0
  150.6992  139.5339  154.4140 C   0  0  0  0  0  0  0  0  0  0  0  0
  151.5370  138.4783  153.7033 C   0  0  0  0  0  0  0  0  0  0  0  0
  148.9112  138.8539  152.2949 H   0  0  0  0  0  0  0  0  0  0  0  0
  147.4903  139.0689  153.3152 H   0  0  0  0  0  0  0  0  0  0  0  0
  148.6040  137.7416  153.6396 H   0  0  0  0  0  0  0  0  0  0  0  0
  148.7254  142.2410  156.2907 H   0  0  0  0  0  0  0  0  0  0  0  0
  152.0006  142.8771  156.4009 H   0  0  0  0  0  0  0  0  0  0  0  0
  150.4867  143.1204  157.1869 H   0  0  0  0  0  0  0  0  0  0  0  0
  152.7641  141.2579  157.9657 H   0  0  0  0  0  0  0  0  0  0  0  0
  150.1100  140.8817  158.8065 H   0  0  0  0  0  0  0  0  0  0  0  0
  150.8522  144.2297  158.2809 H   0  0  0  0  0  0  0  0  0  0  0  0
  151.0083  145.8337  160.1652 H   0  0  0  0  0  0  0  0  0  0  0  0
  152.1048  145.1577  162.2943 H   0  0  0  0  0  0  0  0  0  0  0  0
  152.8926  141.2542  160.6562 H   0  0  0  0  0  0  0  0  0  0  0  0
  152.0325  137.8378  154.4337 H   0  0  0  0  0  0  0  0  0  0  0  0
  152.3056  138.9557  153.0943 H   0  0  0  0  0  0  0  0  0  0  0  0
  150.9521  137.8350  153.0479 H   0  0  0  0  0  0  0  0  0  0  0  0
  1  2  1  0  0  0  0
  1 20  1  0  0  0  0
  1 21  1  0  0  0  0
  1 22  1  0  0  0  0
  2 18  2  0  0  0  0
  2  3  1  0  0  0  0
  3  4  2  0  0  0  0
  4  5  1  0  0  0  0
  4 23  1  0  0  0  0
  5  6  1  0  0  0  0
  5 16  1  0  0  0  0
  6  7  1  0  0  0  0
  6 24  1  0  0  0  0
  6 25  1  0  0  0  0
  7  8  1  0  0  0  0
  7  9  1  0  0  0  0
  7 26  1  0  0  0  0
  8 27  1  0  0  0  0
  9 15  1  0  0  0  0
  9 10  2  0  0  0  0
 10 11  1  0  0  0  0
 10 28  1  0  0  0  0
 11 12  2  0  0  0  0
 11 29  1  0  0  0  0
 12 13  1  0  0  0  0
 12 30  1  0  0  0  0
 13 14  1  0  0  0  0
 13 15  2  0  0  0  0
 15 31  1  0  0  0  0
 16 17  2  0  0  0  0
 16 18  1  0  0  0  0
 18 19  1  0  0  0  0
 19 32  1  0  0  0  0
 19 33  1  0  0  0  0
 19 34  1  0  0  0  0
M  END
> <s_m_source_file>
AV-unprocessed.smi

> <i_m_source_file_index>
2293

> <i_lp_mmshare_version>
43012

> <i_f3d_flags>
0

> <s_epik_input>
W0NIM11jMW5bY0hdbihjKD1PKWMxW0NIM10pW0NIMl1bQ0BIXShbT0hdKWMyW2NIXVtjSF1bY0hdYyhGKVtjSF0y

> <s_epik_cmdline>
J2VwaWtfcHl0aG9uJywgJy1waCcsICc3LjAnLCAnLXRuJywgJzgnLCAnLW1hJywgJzIwMCcsICctbWV0YWxfYmluZGluZycsICctaW1hZScsICc8aW5maWxlLm1hZT4nLCAnLW9tYWUnLCAnPG91dGZpbGUubWFlPic=

> <r_lp_tautomer_probability>
1

> <r_epik_Ionization_Penalty>
5.08222e-05

> <r_epik_Ionization_Penalty_Charging>
7.56727e-08

> <r_epik_Ionization_Penalty_Neutral>
5.07465e-05

> <r_epik_State_Penalty>
-0

> <r_epik_Charging_Adjusted_Penalty>
7.56727e-08

> <i_epik_Tot_Q>
0

> <i_epik_Tot_abs_Q>
0

> <r_epik_Metal_State_Penalty>
-0

> <b_epik_Metal_Only>
0

> <s_lp_Force_Field>
OPLS_2005

> <r_lp_Energy>
18.7837

> <b_lp_Chiralities_Consistent>
1

> <s_lp_Variant>
AV-unprocessed.smi:2293-1

> <Gold.Version>
5.8.1

> <Gold.Id.Protein>
6NUR|6NUR_protein|mol2

> <Gold.PLP.Fitness>
50.7046

> <Gold.PLP.PLP>
-45.3335

> <Gold.PLP.part.hbond>
-1.0000

> <Gold.PLP.part.metal>
0.0000

> <Gold.PLP.part.buried>
-1.3431

> <Gold.PLP.part.nonpolar>
-41.5792

> <Gold.PLP.part.repulsive>
0.1061

> <Gold.PLP.ligand.clash>
0.0000

> <Gold.PLP.ligand.torsion>
0.3175

> <Gold.PLP.Chemscore.Hbond>
1.0000

> <Gold.PLP.Chemscore.CHOScore>
1.0000

> <Gold.PLP.Chemscore.Metal>
0.0000

> <Gold.Chemscore.Hbonds>
donor molecule, donor type, donor heavy atom, donor atom, acceptor molecule, acceptor atom, score
      P1  H  7997  8008       L1    17  1.00
      L1  C     4    23       P1  8028  0.80

> <Gold.PLP.Chemscore.Internal.Correction>
0.0062

> <Gold.Rescore>
     Score         DG    S(hbond)    S(metal)    S(lipo)     H(rot)  DE(clash)    DE(int)     intcor
     14.91     -16.15       0.84        0.00     111.39       2.02       0.45       0.79       ----

> <Gold.Chemscore.Fitness>
14.9127

> <Gold.Chemscore.DG>
-16.1493

> <Gold.Chemscore.ZeroCoef>
-5.4800

> <Gold.Chemscore.Hbond>
0.8392

> <Gold.Chemscore.Metal>
0.0000

> <Gold.Chemscore.Lipo>
111.3902

> <Gold.Chemscore.Internal_Hbond>
0.0000

> <Gold.Chemscore.DEClash>
0.4507

> <Gold.Chemscore.DEInternal>
0.7859

> <Gold.Chemscore.Rot>
2.0181

> <Gold.Chemscore.Internal.Correction>
   9.000000E+99

> <Gold.Chemscore.Hbonds>
donor molecule, donor type, donor heavy atom, donor atom, acceptor molecule, acceptor atom, score
      P1  H  7997  8008       L1    17  0.98

> <Gold.Chemscore.Hbond.Weighted>
-2.8030

> <Gold.Chemscore.Metal.Weighted>
-0.0000

> <Gold.Chemscore.Lipo.Weighted>
-13.0327

> <Gold.Chemscore.Internal_Hbond.Weighted>
0.0000

> <Gold.Chemscore.DEClash.Weighted>
0.4507

> <Gold.Chemscore.DEInternal.Weighted>
0.7859

> <Gold.Chemscore.Rot.Weighted>
5.1663

> <Gold.Chemscore.Internal.Correction.Weighted>
   9.000000E+99

> <Gold.Protein.RotatedTorsions>
[ 6907 6896 6895 6894 ] final  -30.23 input  -60.11 | X-H torsion
[ 7974 7965 7964 7962 ] final   27.80 input  175.53 | X-H torsion
[ 8008 7997 7996 7995 ] final  -29.40 input   59.86 | X-H torsion
[ 10167 10162 10161 10158 ] final -138.26 input  -65.29 | X-H torsion
[ 10718 10713 10712 10709 ] final -129.92 input   66.30 | X-H torsion
[ 10763 10752 10751 10750 ] final   12.84 input  -60.55 | X-H torsion
[ 11005 11000 10999 10996 ] final -108.19 input  -57.11 | X-H torsion

> <Gold.Protein.ActiveResidues>
 VAL166  LYS551  ARG553  GLY616  TRP617  ASP618  TYR619  PRO620  LYS621  CYS622 
 ASP623  PHE694  ASN695  SER759  ASP760  ASP761  ALA762  ILE779  LEU786  VAL792 
 PHE793  MET794  SER795  GLU796  ALA797  LYS798  CYS799  TRP800  GLU811  SER814 

> <Gold.Protein.RotatedAtoms>
  151.1083  135.0012  159.8481 H   0  0  0  0  0  0  0  0  0  0  0  0  # atno 6907 bound_to 6896
  152.5441  134.1866  159.8667 H   0  0  0  0  0  0  0  0  0  0  0  0  # atno 6908 bound_to 6896
  151.1914  133.4620  159.2628 H   0  0  0  0  0  0  0  0  0  0  0  0  # atno 6909 bound_to 6896
  146.1764  139.7142  142.8931 H   0  0  0  0  0  0  0  0  0  0  0  0  # atno 7974 bound_to 7965
  154.4292  140.1819  156.1241 H   0  0  0  0  0  0  0  0  0  0  0  0  # atno 8008 bound_to 7997
  156.0119  140.3349  155.6925 H   0  0  0  0  0  0  0  0  0  0  0  0  # atno 8009 bound_to 7997
  155.6098  140.0649  157.2700 H   0  0  0  0  0  0  0  0  0  0  0  0  # atno 8010 bound_to 7997
  139.8496  143.7216  152.2658 H   0  0  0  0  0  0  0  0  0  0  0  0  # atno 10167 bound_to 10162
  156.2094  130.6908  151.0632 H   0  0  0  0  0  0  0  0  0  0  0  0  # atno 10718 bound_to 10713
  153.1782  135.6823  153.8515 H   0  0  0  0  0  0  0  0  0  0  0  0  # atno 10763 bound_to 10752
  153.7855  135.3176  155.3373 H   0  0  0  0  0  0  0  0  0  0  0  0  # atno 10764 bound_to 10752
  154.8042  135.4759  154.0445 H   0  0  0  0  0  0  0  0  0  0  0  0  # atno 10765 bound_to 10752
  141.0915  133.9047  157.2065 H   0  0  0  0  0  0  0  0  0  0  0  0  # atno 11005 bound_to 11000
  145.4199  141.0405  143.2969 LP  0  0  0  0  0  0  0  0  0  0  0  0  # atno 17320 bound_to 7965
  144.8243  139.5737  143.6972 LP  0  0  0  0  0  0  0  0  0  0  0  0  # atno 17321 bound_to 7965
  139.7478  144.7542  151.0552 LP  0  0  0  0  0  0  0  0  0  0  0  0  # atno 17342 bound_to 10162
  140.7789  143.4895  150.9911 LP  0  0  0  0  0  0  0  0  0  0  0  0  # atno 17343 bound_to 10162
  157.7030  131.0768  150.6759 LP  0  0  0  0  0  0  0  0  0  0  0  0  # atno 17370 bound_to 10713
  156.6818  130.4569  149.5625 LP  0  0  0  0  0  0  0  0  0  0  0  0  # atno 17371 bound_to 10713
  139.9741  135.0119  156.9588 LP  0  0  0  0  0  0  0  0  0  0  0  0  # atno 17394 bound_to 11000
  140.5241  134.0878  155.7299 LP  0  0  0  0  0  0  0  0  0  0  0  0  # atno 17395 bound_to 11000

$$$$
