AV-unprocessed.smi:2923|AV-procd|sdf|11208|dock9
  -GOLD-   2272016103D 1   1.00000     0.00000
 Structure written by MMmdl.
 47 49  0  0  0  0  0  0  0  0  2 V2000
  146.3217  137.2078  153.3677 C   0  0  0  0  0  0  0  0  0  0  0  0
  146.7318  138.4616  152.7451 N   0  0  0  0  0  0  0  0  0  0  0  0
  146.5058  138.6860  151.3234 C   0  0  0  0  0  0  0  0  0  0  0  0
  147.3696  139.4542  153.5202 C   0  0  0  0  0  0  0  0  0  0  0  0
  147.2272  140.8418  153.2737 C   0  0  0  0  0  0  0  0  0  0  0  0
  147.9020  141.7721  154.0904 C   0  0  0  0  0  0  0  0  0  0  0  0
  148.7090  141.3186  155.1546 C   0  0  0  0  0  0  0  0  0  0  0  0
  149.3820  142.2970  155.9359 N   0  0  0  0  0  0  0  0  0  0  0  0
  150.4739  142.1546  156.7068 C   0  0  0  0  0  0  0  0  0  0  0  0
  151.0638  141.0960  156.9206 O   0  0  0  0  0  0  0  0  0  0  0  0
  150.8466  143.3265  157.2373 N   0  0  0  0  0  0  0  0  0  0  0  0
  152.0084  143.5101  158.0987 C   0  0  2  0  0  0  0  0  0  0  0  0
  152.1815  142.3637  159.0953 C   0  0  1  0  0  0  0  0  0  0  0  0
  153.1955  141.2941  159.2937 C   0  0  0  0  0  0  0  0  0  0  0  0
  153.3680  141.4491  160.8286 C   0  0  0  0  0  0  0  0  0  0  0  0
  152.6878  142.6783  161.1832 O   0  0  0  0  0  0  0  0  0  0  0  0
  152.7401  143.4457  159.9982 C   0  0  2  0  0  0  0  0  0  0  0  0
  151.7241  144.4132  159.3582 C   0  0  0  0  0  0  0  0  0  0  0  0
  152.1922  145.8641  159.2434 C   0  0  0  0  0  0  0  0  0  0  0  0
  150.3043  144.4629  159.9588 C   0  0  0  0  0  0  0  0  0  0  0  0
  148.8244  139.9227  155.3571 C   0  0  0  0  0  0  0  0  0  0  0  0
  148.1622  139.0666  154.5493 N   0  3  0  0  0  0  0  0  0  0  0  0
  147.1806  136.6951  153.8018 H   0  0  0  0  0  0  0  0  0  0  0  0
  145.8643  136.5348  152.6421 H   0  0  0  0  0  0  0  0  0  0  0  0
  145.5923  137.3927  154.1569 H   0  0  0  0  0  0  0  0  0  0  0  0
  147.4499  138.8613  150.8068 H   0  0  0  0  0  0  0  0  0  0  0  0
  145.8585  139.5500  151.1711 H   0  0  0  0  0  0  0  0  0  0  0  0
  146.0271  137.8248  150.8568 H   0  0  0  0  0  0  0  0  0  0  0  0
  146.6114  141.2113  152.4675 H   0  0  0  0  0  0  0  0  0  0  0  0
  147.7953  142.8298  153.8976 H   0  0  0  0  0  0  0  0  0  0  0  0
  148.9719  143.2193  155.9201 H   0  0  0  0  0  0  0  0  0  0  0  0
  150.3042  144.1495  157.0191 H   0  0  0  0  0  0  0  0  0  0  0  0
  152.9305  143.7579  157.5644 H   0  0  0  0  0  0  0  0  0  0  0  0
  151.2061  141.9953  159.4225 H   0  0  0  0  0  0  0  0  0  0  0  0
  152.8322  140.3062  159.0098 H   0  0  0  0  0  0  0  0  0  0  0  0
  154.1206  141.5030  158.7545 H   0  0  0  0  0  0  0  0  0  0  0  0
  152.9230  140.6169  161.3747 H   0  0  0  0  0  0  0  0  0  0  0  0
  154.4234  141.5060  161.0976 H   0  0  0  0  0  0  0  0  0  0  0  0
  153.7740  143.7257  159.7656 H   0  0  0  0  0  0  0  0  0  0  0  0
  152.2333  146.3496  160.2189 H   0  0  0  0  0  0  0  0  0  0  0  0
  151.5277  146.4516  158.6093 H   0  0  0  0  0  0  0  0  0  0  0  0
  153.1896  145.9300  158.8083 H   0  0  0  0  0  0  0  0  0  0  0  0
  150.3191  144.8874  160.9630 H   0  0  0  0  0  0  0  0  0  0  0  0
  149.8268  143.4881  160.0398 H   0  0  0  0  0  0  0  0  0  0  0  0
  149.6410  145.0841  159.3559 H   0  0  0  0  0  0  0  0  0  0  0  0
  149.4250  139.4488  156.1184 H   0  0  0  0  0  0  0  0  0  0  0  0
  148.2692  138.0671  154.7233 H   0  0  0  0  0  0  0  0  0  0  0  0
  1  2  1  0  0  0  0
  1 23  1  0  0  0  0
  1 24  1  0  0  0  0
  1 25  1  0  0  0  0
  2  3  1  0  0  0  0
  2  4  1  0  0  0  0
  3 26  1  0  0  0  0
  3 27  1  0  0  0  0
  3 28  1  0  0  0  0
  4 22  1  0  0  0  0
  4  5  2  0  0  0  0
  5  6  1  0  0  0  0
  5 29  1  0  0  0  0
  6  7  2  0  0  0  0
  6 30  1  0  0  0  0
  7  8  1  0  0  0  0
  7 21  1  0  0  0  0
  8  9  1  0  0  0  0
  8 31  1  0  0  0  0
  9 10  2  0  0  0  0
  9 11  1  0  0  0  0
 11 12  1  0  0  0  0
 11 32  1  0  0  0  0
 12 18  1  0  0  0  0
 12 13  1  0  0  0  0
 12 33  1  0  0  0  0
 13 17  1  0  0  0  0
 13 14  1  0  0  0  0
 13 34  1  0  0  0  0
 14 15  1  0  0  0  0
 14 35  1  0  0  0  0
 14 36  1  0  0  0  0
 15 16  1  0  0  0  0
 15 37  1  0  0  0  0
 15 38  1  0  0  0  0
 16 17  1  0  0  0  0
 17 18  1  0  0  0  0
 17 39  1  0  0  0  0
 18 19  1  0  0  0  0
 18 20  1  0  0  0  0
 19 40  1  0  0  0  0
 19 41  1  0  0  0  0
 19 42  1  0  0  0  0
 20 43  1  0  0  0  0
 20 44  1  0  0  0  0
 20 45  1  0  0  0  0
 21 22  2  0  0  0  0
 21 46  1  0  0  0  0
 22 47  1  0  0  0  0
M  CHG  1  22   1
M  END
> <s_m_source_file>
AV-unprocessed.smi

> <i_m_source_file_index>
2923

> <i_lp_mmshare_version>
43012

> <i_f3d_flags>
0

> <s_epik_input>
W0NIM11OKFtDSDNdKWMxW2NIXVtjSF1jKFtjSF1uMSlbTkhdQyg9TylbTkhdW0NASF0yQyhbQ0gzXSkoW0NIM10pW0NAQEhdKFtDQEhdMjMpT1tDSDJdW0NIMl0z

> <s_epik_cmdline>
J2VwaWtfcHl0aG9uJywgJy1waCcsICc3LjAnLCAnLXRuJywgJzgnLCAnLW1hJywgJzIwMCcsICctbWV0YWxfYmluZGluZycsICctaW1hZScsICc8aW5maWxlLm1hZT4nLCAnLW9tYWUnLCAnPG91dGZpbGUubWFlPic=

> <r_lp_tautomer_probability>
0.999994

> <r_epik_Ionization_Penalty>
0.252205

> <r_epik_Ionization_Penalty_Charging>
0.252185

> <r_epik_Ionization_Penalty_Neutral>
1.99479e-05

> <r_epik_State_Penalty>
0.243573

> <r_epik_Charging_Adjusted_Penalty>
0.495758

> <i_epik_Tot_Q>
1

> <i_epik_Tot_abs_Q>
1

> <r_epik_Metal_State_Penalty>
0.534372

> <b_epik_Metal_Only>
0

> <s_lp_Force_Field>
OPLS_2005

> <r_lp_Energy>
68.0101

> <b_lp_Chiralities_Consistent>
1

> <s_lp_Variant>
AV-unprocessed.smi:2923-7

> <Gold.Version>
5.8.1

> <Gold.Id.Protein>
6NUR|6NUR_protein|mol2

> <Gold.PLP.Fitness>
50.3241

> <Gold.PLP.PLP>
-46.2261

> <Gold.PLP.part.hbond>
-1.9261

> <Gold.PLP.part.metal>
0.0000

> <Gold.PLP.part.buried>
-2.1932

> <Gold.PLP.part.nonpolar>
-41.9262

> <Gold.PLP.part.repulsive>
0.1974

> <Gold.PLP.ligand.clash>
0.0000

> <Gold.PLP.ligand.torsion>
0.7748

> <Gold.PLP.Chemscore.Hbond>
1.7930

> <Gold.PLP.Chemscore.CHOScore>
0.0000

> <Gold.PLP.Chemscore.Metal>
0.0000

> <Gold.Chemscore.Hbonds>
donor molecule, donor type, donor heavy atom, donor atom, acceptor molecule, acceptor atom, score
      L1  H     8    31       P1  8028  0.98
      L1  H    11    32       P1  8028  0.78

> <Gold.PLP.Chemscore.Internal.Correction>
0.2685

> <Gold.Rescore>
     Score         DG    S(hbond)    S(metal)    S(lipo)     H(rot)  DE(clash)    DE(int)     intcor
     20.10     -23.37       1.90        0.00     120.67       1.00       0.36       2.92       ----

> <Gold.Chemscore.Fitness>
20.0970

> <Gold.Chemscore.DG>
-23.3691

> <Gold.Chemscore.ZeroCoef>
-5.4800

> <Gold.Chemscore.Hbond>
1.8956

> <Gold.Chemscore.Metal>
0.0000

> <Gold.Chemscore.Lipo>
120.6650

> <Gold.Chemscore.Internal_Hbond>
0.0000

> <Gold.Chemscore.DEClash>
0.3568

> <Gold.Chemscore.DEInternal>
2.9152

> <Gold.Chemscore.Rot>
1.0000

> <Gold.Chemscore.Internal.Correction>
   9.000000E+99

> <Gold.Chemscore.Hbonds>
donor molecule, donor type, donor heavy atom, donor atom, acceptor molecule, acceptor atom, score
      L1  H     8    31       P1  8028  0.92
      L1  H    11    32       P1  8028  0.69

> <Gold.Chemscore.Hbond.Weighted>
-6.3313

> <Gold.Chemscore.Metal.Weighted>
-0.0000

> <Gold.Chemscore.Lipo.Weighted>
-14.1178

> <Gold.Chemscore.Internal_Hbond.Weighted>
0.0000

> <Gold.Chemscore.DEClash.Weighted>
0.3568

> <Gold.Chemscore.DEInternal.Weighted>
2.9152

> <Gold.Chemscore.Rot.Weighted>
2.5600

> <Gold.Chemscore.Internal.Correction.Weighted>
   9.000000E+99

> <Gold.Protein.RotatedTorsions>
[ 6907 6896 6895 6894 ] final   -8.08 input  -60.11 | X-H torsion
[ 7974 7965 7964 7962 ] final  168.06 input  175.53 | X-H torsion
[ 8008 7997 7996 7995 ] final  172.17 input   59.86 | X-H torsion
[ 10167 10162 10161 10158 ] final  -47.64 input  -65.29 | X-H torsion
[ 10718 10713 10712 10709 ] final   90.42 input   66.30 | X-H torsion
[ 10763 10752 10751 10750 ] final   70.24 input  -60.55 | X-H torsion
[ 11005 11000 10999 10996 ] final -129.35 input  -57.11 | X-H torsion

> <Gold.Protein.ActiveResidues>
 VAL166  LYS551  ARG553  GLY616  TRP617  ASP618  TYR619  PRO620  LYS621  CYS622 
 ASP623  PHE694  ASN695  SER759  ASP760  ASP761  ALA762  ILE779  LEU786  VAL792 
 PHE793  MET794  SER795  GLU796  ALA797  LYS798  CYS799  TRP800  GLU811  SER814 

> <Gold.Protein.RotatedAtoms>
  151.4393  135.1018  159.9665 H   0  0  0  0  0  0  0  0  0  0  0  0  # atno 6907 bound_to 6896
  152.4928  133.8544  159.7228 H   0  0  0  0  0  0  0  0  0  0  0  0  # atno 6908 bound_to 6896
  150.9099  133.6951  159.2885 H   0  0  0  0  0  0  0  0  0  0  0  0  # atno 6909 bound_to 6896
  144.7402  139.8853  143.6399 H   0  0  0  0  0  0  0  0  0  0  0  0  # atno 7974 bound_to 7965
  156.1200  140.1493  156.9218 H   0  0  0  0  0  0  0  0  0  0  0  0  # atno 8008 bound_to 7997
  154.4829  140.0874  156.7461 H   0  0  0  0  0  0  0  0  0  0  0  0  # atno 8009 bound_to 7997
  155.4445  140.3432  155.4296 H   0  0  0  0  0  0  0  0  0  0  0  0  # atno 8010 bound_to 7997
  140.6766  143.2775  151.3956 H   0  0  0  0  0  0  0  0  0  0  0  0  # atno 10167 bound_to 10162
  157.6959  131.0370  150.3575 H   0  0  0  0  0  0  0  0  0  0  0  0  # atno 10718 bound_to 10713
  153.0330  135.5181  154.7410 H   0  0  0  0  0  0  0  0  0  0  0  0  # atno 10763 bound_to 10752
  154.6410  135.2912  155.0106 H   0  0  0  0  0  0  0  0  0  0  0  0  # atno 10764 bound_to 10752
  154.1024  135.6634  153.4923 H   0  0  0  0  0  0  0  0  0  0  0  0  # atno 10765 bound_to 10752
  140.9439  134.1157  157.4126 H   0  0  0  0  0  0  0  0  0  0  0  0  # atno 11005 bound_to 11000
  146.1182  139.4196  143.0245 LP  0  0  0  0  0  0  0  0  0  0  0  0  # atno 17320 bound_to 7965
  145.7344  141.0031  143.1334 LP  0  0  0  0  0  0  0  0  0  0  0  0  # atno 17321 bound_to 7965
  139.6062  144.1192  152.2251 LP  0  0  0  0  0  0  0  0  0  0  0  0  # atno 17342 bound_to 10162
  140.0592  144.5871  150.7276 LP  0  0  0  0  0  0  0  0  0  0  0  0  # atno 17343 bound_to 10162
  156.4016  130.3917  149.6956 LP  0  0  0  0  0  0  0  0  0  0  0  0  # atno 17370 bound_to 10713
  156.4271  130.7797  151.2816 LP  0  0  0  0  0  0  0  0  0  0  0  0  # atno 17371 bound_to 10713
  139.8828  135.0045  156.6253 LP  0  0  0  0  0  0  0  0  0  0  0  0  # atno 17394 bound_to 11000
  140.7697  133.8749  155.8482 LP  0  0  0  0  0  0  0  0  0  0  0  0  # atno 17395 bound_to 11000

$$$$
