AV-unprocessed.smi:882|AV-procd|sdf|4037|dock7
  -GOLD-   22720 1533D 1   1.00000     0.00000
 Structure written by MMmdl.
 33 34  0  0  0  0  0  0  0  0  1 V2000
  138.8238  140.6928  154.8962 C   0  0  0  0  0  0  0  0  0  0  0  0
  140.0417  140.6148  154.9368 C   0  0  0  0  0  0  0  0  0  0  0  0
  141.5094  140.5064  154.9942 C   0  0  0  0  0  0  0  0  0  0  0  0
  142.0086  139.2874  154.3683 N   0  0  0  0  0  0  0  0  0  0  0  0
  141.7054  138.0354  154.7512 C   0  0  0  0  0  0  0  0  0  0  0  0
  140.9787  137.7739  155.7100 O   0  0  0  0  0  0  0  0  0  0  0  0
  142.3665  136.9394  153.9664 C   0  0  0  0  0  0  0  0  0  0  0  0
  142.0240  135.5819  154.1505 C   0  0  0  0  0  0  0  0  0  0  0  0
  142.6966  134.5971  153.4019 C   0  0  0  0  0  0  0  0  0  0  0  0
  143.7065  134.9896  152.4918 C   0  0  0  0  0  0  0  0  0  0  0  0
  144.3960  134.0192  151.7324 N   0  0  0  0  0  0  0  0  0  0  0  0
  143.7473  132.7139  151.6339 C   0  0  0  0  0  0  0  0  0  0  0  0
  144.4254  131.8581  150.5501 C   0  0  0  0  0  0  0  0  0  0  0  0
  145.8212  131.7634  150.8131 O   0  0  0  0  0  0  0  0  0  0  0  0
  146.4515  133.0395  150.7905 C   0  0  0  0  0  0  0  0  0  0  0  0
  145.8473  133.9341  151.8858 C   0  0  0  0  0  0  0  0  0  0  0  0
  144.0366  136.2935  152.3206 N   0  0  0  0  0  0  0  0  0  0  0  0
  143.3906  137.2342  153.0414 C   0  0  0  0  0  0  0  0  0  0  0  0
  137.7596  140.7581  154.8596 H   0  0  0  0  0  0  0  0  0  0  0  0
  141.9298  141.3668  154.4740 H   0  0  0  0  0  0  0  0  0  0  0  0
  141.8252  140.5756  156.0363 H   0  0  0  0  0  0  0  0  0  0  0  0
  142.6337  139.4037  153.5840 H   0  0  0  0  0  0  0  0  0  0  0  0
  141.2579  135.2868  154.8529 H   0  0  0  0  0  0  0  0  0  0  0  0
  142.4229  133.5602  153.5263 H   0  0  0  0  0  0  0  0  0  0  0  0
  143.8169  132.2140  152.6009 H   0  0  0  0  0  0  0  0  0  0  0  0
  142.6876  132.8043  151.4003 H   0  0  0  0  0  0  0  0  0  0  0  0
  143.9978  130.8555  150.5421 H   0  0  0  0  0  0  0  0  0  0  0  0
  144.2588  132.2829  149.5588 H   0  0  0  0  0  0  0  0  0  0  0  0
  147.5206  132.9105  150.9590 H   0  0  0  0  0  0  0  0  0  0  0  0
  146.3368  133.4972  149.8066 H   0  0  0  0  0  0  0  0  0  0  0  0
  146.2929  134.9279  151.8258 H   0  0  0  0  0  0  0  0  0  0  0  0
  146.0837  133.5287  152.8706 H   0  0  0  0  0  0  0  0  0  0  0  0
  143.7027  138.2533  152.8644 H   0  0  0  0  0  0  0  0  0  0  0  0
  1  2  3  0  0  0  0
  1 19  1  0  0  0  0
  2  3  1  0  0  0  0
  3  4  1  0  0  0  0
  3 20  1  0  0  0  0
  3 21  1  0  0  0  0
  4  5  1  0  0  0  0
  4 22  1  0  0  0  0
  5  6  2  0  0  0  0
  5  7  1  0  0  0  0
  7 18  1  0  0  0  0
  7  8  2  0  0  0  0
  8  9  1  0  0  0  0
  8 23  1  0  0  0  0
  9 10  2  0  0  0  0
  9 24  1  0  0  0  0
 10 11  1  0  0  0  0
 10 17  1  0  0  0  0
 11 16  1  0  0  0  0
 11 12  1  0  0  0  0
 12 13  1  0  0  0  0
 12 25  1  0  0  0  0
 12 26  1  0  0  0  0
 13 14  1  0  0  0  0
 13 27  1  0  0  0  0
 13 28  1  0  0  0  0
 14 15  1  0  0  0  0
 15 16  1  0  0  0  0
 15 29  1  0  0  0  0
 15 30  1  0  0  0  0
 16 31  1  0  0  0  0
 16 32  1  0  0  0  0
 17 18  2  0  0  0  0
 18 33  1  0  0  0  0
M  END
> <s_m_source_file>
AV-unprocessed.smi

> <i_m_source_file_index>
882

> <i_lp_mmshare_version>
43012

> <i_f3d_flags>
0

> <s_epik_input>
W0NIXSNDW0NIMl1bTkhdQyg9TyljMVtjSF1bY0hdYyhuW2NIXTEpTjJbQ0gyXVtDSDJdT1tDSDJdW0NIMl0y

> <s_epik_cmdline>
J2VwaWtfcHl0aG9uJywgJy1waCcsICc3LjAnLCAnLXRuJywgJzgnLCAnLW1hJywgJzIwMCcsICctbWV0YWxfYmluZGluZycsICctaW1hZScsICc8aW5maWxlLm1hZT4nLCAnLW9tYWUnLCAnPG91dGZpbGUubWFlPic=

> <r_lp_tautomer_probability>
1

> <r_epik_Ionization_Penalty>
1.53095e-05

> <r_epik_Ionization_Penalty_Charging>
0

> <r_epik_Ionization_Penalty_Neutral>
1.53095e-05

> <r_epik_State_Penalty>
-0

> <r_epik_Charging_Adjusted_Penalty>
0

> <i_epik_Tot_Q>
0

> <i_epik_Tot_abs_Q>
0

> <r_epik_Metal_State_Penalty>
-0

> <b_epik_Metal_Only>
0

> <s_lp_Force_Field>
OPLS_2005

> <r_lp_Energy>
17.8132

> <b_lp_Chiralities_Consistent>
1

> <s_lp_Variant>
AV-unprocessed.smi:882-1

> <Gold.Version>
5.8.1

> <Gold.Id.Protein>
6NUR|6NUR_protein|mol2

> <Gold.PLP.Fitness>
38.7999

> <Gold.PLP.PLP>
-32.3504

> <Gold.PLP.part.hbond>
-1.7118

> <Gold.PLP.part.metal>
0.0000

> <Gold.PLP.part.buried>
-4.8305

> <Gold.PLP.part.nonpolar>
-25.4718

> <Gold.PLP.part.repulsive>
0.4537

> <Gold.PLP.ligand.clash>
0.0000

> <Gold.PLP.ligand.torsion>
0.2951

> <Gold.PLP.Chemscore.Hbond>
0.8960

> <Gold.PLP.Chemscore.CHOScore>
1.3381

> <Gold.PLP.Chemscore.Metal>
0.0000

> <Gold.Chemscore.Hbonds>
donor molecule, donor type, donor heavy atom, donor atom, acceptor molecule, acceptor atom, score
      L1  H     4    22       P1 10175  1.00
      L1  C    18    33       P1 10175  1.00

> <Gold.PLP.Chemscore.Internal.Correction>
0.3374

> <Gold.Rescore>
     Score         DG    S(hbond)    S(metal)    S(lipo)     H(rot)  DE(clash)    DE(int)     intcor
     13.28     -13.50       0.93        0.00      67.88       1.19       0.00       0.22       ----

> <Gold.Chemscore.Fitness>
13.2805

> <Gold.Chemscore.DG>
-13.4979

> <Gold.Chemscore.ZeroCoef>
-5.4800

> <Gold.Chemscore.Hbond>
0.9339

> <Gold.Chemscore.Metal>
0.0000

> <Gold.Chemscore.Lipo>
67.8780

> <Gold.Chemscore.Internal_Hbond>
0.0000

> <Gold.Chemscore.DEClash>
0.0021

> <Gold.Chemscore.DEInternal>
0.2153

> <Gold.Chemscore.Rot>
1.1887

> <Gold.Chemscore.Internal.Correction>
   9.000000E+99

> <Gold.Chemscore.Hbonds>
donor molecule, donor type, donor heavy atom, donor atom, acceptor molecule, acceptor atom, score
      L1  H     4    22       P1 10175  0.95

> <Gold.Chemscore.Hbond.Weighted>
-3.1194

> <Gold.Chemscore.Metal.Weighted>
-0.0000

> <Gold.Chemscore.Lipo.Weighted>
-7.9417

> <Gold.Chemscore.Internal_Hbond.Weighted>
0.0000

> <Gold.Chemscore.DEClash.Weighted>
0.0021

> <Gold.Chemscore.DEInternal.Weighted>
0.2153

> <Gold.Chemscore.Rot.Weighted>
3.0432

> <Gold.Chemscore.Internal.Correction.Weighted>
   9.000000E+99

> <Gold.Protein.RotatedTorsions>
[ 6907 6896 6895 6894 ] final -140.62 input  -60.11 | X-H torsion
[ 7974 7965 7964 7962 ] final  164.88 input  175.53 | X-H torsion
[ 8008 7997 7996 7995 ] final  -48.61 input   59.86 | X-H torsion
[ 10167 10162 10161 10158 ] final  175.02 input  -65.29 | X-H torsion
[ 10718 10713 10712 10709 ] final   99.80 input   66.30 | X-H torsion
[ 10763 10752 10751 10750 ] final   54.32 input  -60.55 | X-H torsion
[ 11005 11000 10999 10996 ] final   71.17 input  -57.11 | X-H torsion

> <Gold.Protein.ActiveResidues>
 VAL166  LYS551  ARG553  GLY616  TRP617  ASP618  TYR619  PRO620  LYS621  CYS622 
 ASP623  PHE694  ASN695  SER759  ASP760  ASP761  ALA762  ILE779  LEU786  VAL792 
 PHE793  MET794  SER795  GLU796  ALA797  LYS798  CYS799  TRP800  GLU811  SER814 

> <Gold.Protein.RotatedAtoms>
  151.0631  133.5527  159.2632 H   0  0  0  0  0  0  0  0  0  0  0  0  # atno 6907 bound_to 6896
  151.2495  135.0616  159.9066 H   0  0  0  0  0  0  0  0  0  0  0  0  # atno 6908 bound_to 6896
  152.5400  134.0394  159.8114 H   0  0  0  0  0  0  0  0  0  0  0  0  # atno 6909 bound_to 6896
  144.7526  139.8389  143.6361 H   0  0  0  0  0  0  0  0  0  0  0  0  # atno 7974 bound_to 7965
  154.4031  140.1317  156.4367 H   0  0  0  0  0  0  0  0  0  0  0  0  # atno 8008 bound_to 7997
  155.7498  140.3488  155.5125 H   0  0  0  0  0  0  0  0  0  0  0  0  # atno 8009 bound_to 7997
  155.8960  140.1011  157.1375 H   0  0  0  0  0  0  0  0  0  0  0  0  # atno 8010 bound_to 7997
  139.5162  144.3080  152.0318 H   0  0  0  0  0  0  0  0  0  0  0  0  # atno 10167 bound_to 10162
  157.6868  131.0680  150.5003 H   0  0  0  0  0  0  0  0  0  0  0  0  # atno 10718 bound_to 10713
  152.9803  135.5749  154.4885 H   0  0  0  0  0  0  0  0  0  0  0  0  # atno 10763 bound_to 10752
  154.4423  135.2776  155.1841 H   0  0  0  0  0  0  0  0  0  0  0  0  # atno 10764 bound_to 10752
  154.3503  135.6210  153.5693 H   0  0  0  0  0  0  0  0  0  0  0  0  # atno 10765 bound_to 10752
  139.9558  134.7147  156.0757 H   0  0  0  0  0  0  0  0  0  0  0  0  # atno 11005 bound_to 11000
  146.1497  139.4576  143.0057 LP  0  0  0  0  0  0  0  0  0  0  0  0  # atno 17320 bound_to 7965
  145.6890  141.0170  143.1566 LP  0  0  0  0  0  0  0  0  0  0  0  0  # atno 17321 bound_to 7965
  140.2525  144.4154  150.6216 LP  0  0  0  0  0  0  0  0  0  0  0  0  # atno 17342 bound_to 10162
  140.6214  143.2177  151.6685 LP  0  0  0  0  0  0  0  0  0  0  0  0  # atno 17343 bound_to 10162
  156.5325  130.4188  149.6194 LP  0  0  0  0  0  0  0  0  0  0  0  0  # atno 17370 bound_to 10713
  156.3057  130.7201  151.2083 LP  0  0  0  0  0  0  0  0  0  0  0  0  # atno 17371 bound_to 10713
  141.1229  133.6607  156.3260 LP  0  0  0  0  0  0  0  0  0  0  0  0  # atno 17394 bound_to 11000
  140.5614  134.5931  157.5434 LP  0  0  0  0  0  0  0  0  0  0  0  0  # atno 17395 bound_to 11000

$$$$
