AV-unprocessed.smi:236|AV-procd|sdf|1815|dock3
  -GOLD-   2262020403D 1   1.00000     0.00000
 Structure written by MMmdl.
 58 62  0  0  0  0  0  0  0  0  1 V2000
  144.8014  135.8958  150.9448 C   0  0  0  0  0  0  0  0  0  0  0  0
  145.6824  135.3581  152.0841 C   0  0  2  0  0  0  0  0  0  0  0  0
  146.5124  134.3027  151.6216 O   0  0  0  0  0  0  0  0  0  0  0  0
  146.9951  133.6249  152.7673 C   0  0  0  0  0  0  0  0  0  0  0  0
  145.7517  133.5092  153.6406 C   0  0  0  0  0  0  0  0  0  0  0  0
  144.9575  134.7822  153.3291 C   0  0  2  0  0  0  0  0  0  0  0  0
  143.6224  134.4059  153.0318 O   0  0  0  0  0  0  0  0  0  0  0  0
  144.9327  135.7614  154.5288 C   0  0  0  0  0  0  0  0  0  0  0  0
  146.2118  136.4093  154.7792 N   0  0  0  0  0  0  0  0  0  0  0  0
  147.2444  135.9222  155.5491 C   0  0  0  0  0  0  0  0  0  0  0  0
  148.2972  136.6894  155.6204 N   0  0  0  0  0  0  0  0  0  0  0  0
  147.9687  137.7886  154.8366 C   0  0  0  0  0  0  0  0  0  0  0  0
  148.6414  138.9899  154.4744 C   0  0  0  0  0  0  0  0  0  0  0  0
  149.8859  139.3277  154.8721 N   0  0  0  0  0  0  0  0  0  0  0  0
  150.8826  138.3089  154.5715 C   0  0  0  0  0  0  0  0  0  0  0  0
  152.2850  138.8313  154.9220 C   0  0  0  0  0  0  0  0  0  0  0  0
  152.3084  139.2471  156.2843 O   0  0  0  0  0  0  0  0  0  0  0  0
  151.3958  140.3124  156.5446 C   0  0  2  0  0  0  0  0  0  0  0  0
  151.5539  140.7325  158.0115 C   0  0  0  0  0  0  0  0  0  0  0  0
  150.5837  141.7207  158.3147 O   0  0  0  0  0  0  0  0  0  0  0  0
  150.9704  143.0203  157.8955 C   0  0  0  0  0  0  0  0  0  0  0  0
  152.2061  143.4966  158.6379 C   0  0  0  0  0  0  0  0  0  0  0  0
  152.2412  143.5387  160.1519 C   0  0  0  0  0  0  0  0  0  0  0  0
  152.2112  144.8235  159.3692 C   0  0  0  0  0  0  0  0  0  0  0  0
  149.9686  139.8145  156.2439 C   0  0  0  0  0  0  0  0  0  0  0  0
  147.9980  139.8585  153.6571 N   0  0  0  0  0  0  0  0  0  0  0  0
  146.7671  139.5759  153.2193 C   0  0  0  0  0  0  0  0  0  0  0  0
  146.0168  138.5007  153.4713 N   0  0  0  0  0  0  0  0  0  0  0  0
  146.6631  137.6250  154.2939 C   0  0  0  0  0  0  0  0  0  0  0  0
  144.1467  136.6936  151.2960 H   0  0  0  0  0  0  0  0  0  0  0  0
  144.1790  135.1116  150.5135 H   0  0  0  0  0  0  0  0  0  0  0  0
  145.4172  136.3036  150.1430 H   0  0  0  0  0  0  0  0  0  0  0  0
  146.3602  136.1521  152.3987 H   0  0  0  0  0  0  0  0  0  0  0  0
  147.4241  132.6555  152.5130 H   0  0  0  0  0  0  0  0  0  0  0  0
  147.7634  134.2265  153.2561 H   0  0  0  0  0  0  0  0  0  0  0  0
  145.1971  132.6171  153.3445 H   0  0  0  0  0  0  0  0  0  0  0  0
  146.0010  133.3990  154.6964 H   0  0  0  0  0  0  0  0  0  0  0  0
  143.3795  133.6886  153.5969 H   0  0  0  0  0  0  0  0  0  0  0  0
  144.1846  136.5389  154.3683 H   0  0  0  0  0  0  0  0  0  0  0  0
  144.6322  135.2349  155.4356 H   0  0  0  0  0  0  0  0  0  0  0  0
  147.1906  134.9738  156.0638 H   0  0  0  0  0  0  0  0  0  0  0  0
  150.6716  137.4048  155.1438 H   0  0  0  0  0  0  0  0  0  0  0  0
  150.8358  138.0416  153.5147 H   0  0  0  0  0  0  0  0  0  0  0  0
  153.0266  138.0458  154.7763 H   0  0  0  0  0  0  0  0  0  0  0  0
  152.5660  139.6612  154.2716 H   0  0  0  0  0  0  0  0  0  0  0  0
  151.6272  141.1639  155.9020 H   0  0  0  0  0  0  0  0  0  0  0  0
  151.3993  139.8706  158.6626 H   0  0  0  0  0  0  0  0  0  0  0  0
  152.5622  141.1069  158.1951 H   0  0  0  0  0  0  0  0  0  0  0  0
  151.1820  143.0226  156.8254 H   0  0  0  0  0  0  0  0  0  0  0  0
  150.1614  143.7296  158.0754 H   0  0  0  0  0  0  0  0  0  0  0  0
  153.1392  143.2212  158.1500 H   0  0  0  0  0  0  0  0  0  0  0  0
  151.3399  143.2598  160.6940 H   0  0  0  0  0  0  0  0  0  0  0  0
  153.1765  143.2695  160.6384 H   0  0  0  0  0  0  0  0  0  0  0  0
  153.1260  145.4115  159.3347 H   0  0  0  0  0  0  0  0  0  0  0  0
  151.2892  145.4015  159.3888 H   0  0  0  0  0  0  0  0  0  0  0  0
  149.2503  140.6224  156.3900 H   0  0  0  0  0  0  0  0  0  0  0  0
  149.7048  139.0178  156.9399 H   0  0  0  0  0  0  0  0  0  0  0  0
  146.3195  140.3169  152.5735 H   0  0  0  0  0  0  0  0  0  0  0  0
  1  2  1  0  0  0  0
  1 30  1  0  0  0  0
  1 31  1  0  0  0  0
  1 32  1  0  0  0  0
  2  6  1  0  0  0  0
  2  3  1  0  0  0  0
  2 33  1  0  0  0  0
  3  4  1  0  0  0  0
  4  5  1  0  0  0  0
  4 34  1  0  0  0  0
  4 35  1  0  0  0  0
  5  6  1  0  0  0  0
  5 36  1  0  0  0  0
  5 37  1  0  0  0  0
  6  7  1  0  0  0  0
  6  8  1  0  0  0  0
  7 38  1  0  0  0  0
  8  9  1  0  0  0  0
  8 39  1  0  0  0  0
  8 40  1  0  0  0  0
  9 29  1  0  0  0  0
  9 10  1  0  0  0  0
 10 11  2  0  0  0  0
 10 41  1  0  0  0  0
 11 12  1  0  0  0  0
 12 29  2  0  0  0  0
 12 13  1  0  0  0  0
 13 14  1  0  0  0  0
 13 26  2  0  0  0  0
 14 25  1  0  0  0  0
 14 15  1  0  0  0  0
 15 16  1  0  0  0  0
 15 42  1  0  0  0  0
 15 43  1  0  0  0  0
 16 17  1  0  0  0  0
 16 44  1  0  0  0  0
 16 45  1  0  0  0  0
 17 18  1  0  0  0  0
 18 19  1  0  0  0  0
 18 25  1  0  0  0  0
 18 46  1  0  0  0  0
 19 20  1  0  0  0  0
 19 47  1  0  0  0  0
 19 48  1  0  0  0  0
 20 21  1  0  0  0  0
 21 22  1  0  0  0  0
 21 49  1  0  0  0  0
 21 50  1  0  0  0  0
 22 24  1  0  0  0  0
 22 23  1  0  0  0  0
 22 51  1  0  0  0  0
 23 24  1  0  0  0  0
 23 52  1  0  0  0  0
 23 53  1  0  0  0  0
 24 54  1  0  0  0  0
 24 55  1  0  0  0  0
 25 56  1  0  0  0  0
 25 57  1  0  0  0  0
 26 27  1  0  0  0  0
 27 28  2  0  0  0  0
 27 58  1  0  0  0  0
 28 29  1  0  0  0  0
M  END
> <s_m_source_file>
AV-unprocessed.smi

> <i_m_source_file_index>
236

> <i_lp_mmshare_version>
43012

> <i_f3d_flags>
0

> <s_epik_input>
W0NIMl0xW0NIMl1PW0NAQEhdKFtDSDNdKVtDQEBdMShbT0hdKVtDSDJdbihbY0hdbjIpYyhjMjMpbltjSF1uYzNONFtDSDJdW0NIMl1PW0NASF0oW0NIMl00KVtDSDJdT1tDSDJdW0NIXTVbQ0gyXVtDSDJdNQ==

> <s_epik_cmdline>
J2VwaWtfcHl0aG9uJywgJy1waCcsICc3LjAnLCAnLXRuJywgJzgnLCAnLW1hJywgJzIwMCcsICctbWV0YWxfYmluZGluZycsICctaW1hZScsICc8aW5maWxlLm1hZT4nLCAnLW9tYWUnLCAnPG91dGZpbGUubWFlPic=

> <r_lp_tautomer_probability>
1

> <r_epik_Ionization_Penalty>
7.21838e-05

> <r_epik_Ionization_Penalty_Charging>
0

> <r_epik_Ionization_Penalty_Neutral>
7.21838e-05

> <r_epik_State_Penalty>
-0

> <r_epik_Charging_Adjusted_Penalty>
0

> <i_epik_Tot_Q>
0

> <i_epik_Tot_abs_Q>
0

> <r_epik_Metal_State_Penalty>
-0

> <b_epik_Metal_Only>
0

> <s_lp_Force_Field>
OPLS_2005

> <r_lp_Energy>
47.5689

> <b_lp_Chiralities_Consistent>
1

> <s_lp_Variant>
AV-unprocessed.smi:236-7

> <Gold.Version>
5.8.1

> <Gold.Id.Protein>
6NUR|6NUR_protein|mol2

> <Gold.PLP.Fitness>
49.2619

> <Gold.PLP.PLP>
-42.2461

> <Gold.PLP.part.hbond>
-2.0000

> <Gold.PLP.part.metal>
0.0000

> <Gold.PLP.part.buried>
-7.5146

> <Gold.PLP.part.nonpolar>
-35.6568

> <Gold.PLP.part.repulsive>
2.1940

> <Gold.PLP.ligand.clash>
0.0000

> <Gold.PLP.ligand.torsion>
1.2209

> <Gold.PLP.Chemscore.Hbond>
2.0000

> <Gold.PLP.Chemscore.CHOScore>
0.8320

> <Gold.PLP.Chemscore.Metal>
0.0000

> <Gold.Chemscore.Hbonds>
donor molecule, donor type, donor heavy atom, donor atom, acceptor molecule, acceptor atom, score
      L1  H     7    38       P1 10957  0.15
      P1  H  7997  8009       L1    17  0.50
      L1  C    27    58       P1 10175  0.58

> <Gold.PLP.Chemscore.Internal.Correction>
0.9618

> <Gold.Rescore>
     Score         DG    S(hbond)    S(metal)    S(lipo)     H(rot)  DE(clash)    DE(int)     intcor
     13.77     -15.10       1.53        0.00     101.15       2.87       0.37       0.97       ----

> <Gold.Chemscore.Fitness>
13.7699

> <Gold.Chemscore.DG>
-15.1008

> <Gold.Chemscore.ZeroCoef>
-5.4800

> <Gold.Chemscore.Hbond>
1.5337

> <Gold.Chemscore.Metal>
0.0000

> <Gold.Chemscore.Lipo>
101.1456

> <Gold.Chemscore.Internal_Hbond>
0.0000

> <Gold.Chemscore.DEClash>
0.3656

> <Gold.Chemscore.DEInternal>
0.9653

> <Gold.Chemscore.Rot>
2.8655

> <Gold.Chemscore.Internal.Correction>
   9.000000E+99

> <Gold.Chemscore.Hbonds>
donor molecule, donor type, donor heavy atom, donor atom, acceptor molecule, acceptor atom, score
      L1  H     7    38       P1 10957  0.18
      P1  H  7997  8009       L1    17  0.06

> <Gold.Chemscore.Hbond.Weighted>
-5.1225

> <Gold.Chemscore.Metal.Weighted>
-0.0000

> <Gold.Chemscore.Lipo.Weighted>
-11.8340

> <Gold.Chemscore.Internal_Hbond.Weighted>
0.0000

> <Gold.Chemscore.DEClash.Weighted>
0.3656

> <Gold.Chemscore.DEInternal.Weighted>
0.9653

> <Gold.Chemscore.Rot.Weighted>
7.3358

> <Gold.Chemscore.Internal.Correction.Weighted>
   9.000000E+99

> <Gold.Protein.RotatedTorsions>
[ 6907 6896 6895 6894 ] final  153.02 input  -60.11 | X-H torsion
[ 7974 7965 7964 7962 ] final  -62.47 input  175.53 | X-H torsion
[ 8008 7997 7996 7995 ] final -160.48 input   59.86 | X-H torsion
[ 10167 10162 10161 10158 ] final    2.72 input  -65.29 | X-H torsion
[ 10718 10713 10712 10709 ] final  -59.37 input   66.30 | X-H torsion
[ 10763 10752 10751 10750 ] final  -22.87 input  -60.55 | X-H torsion
[ 11005 11000 10999 10996 ] final   90.56 input  -57.11 | X-H torsion

> <Gold.Protein.ActiveResidues>
 VAL166  LYS551  ARG553  GLY616  TRP617  ASP618  TYR619  PRO620  LYS621  CYS622 
 ASP623  PHE694  ASN695  SER759  ASP760  ASP761  ALA762  ILE779  LEU786  VAL792 
 PHE793  MET794  SER795  GLU796  ALA797  LYS798  CYS799  TRP800  GLU811  SER814 

> <Gold.Protein.RotatedAtoms>
  152.0786  133.4141  159.4490 H   0  0  0  0  0  0  0  0  0  0  0  0  # atno 6907 bound_to 6896
  150.6862  134.3009  159.4715 H   0  0  0  0  0  0  0  0  0  0  0  0  # atno 6908 bound_to 6896
  152.0848  134.9446  160.0623 H   0  0  0  0  0  0  0  0  0  0  0  0  # atno 6909 bound_to 6896
  145.7909  140.8710  143.0281 H   0  0  0  0  0  0  0  0  0  0  0  0  # atno 7974 bound_to 7965
  155.7781  140.0861  157.2073 H   0  0  0  0  0  0  0  0  0  0  0  0  # atno 8008 bound_to 7997
  154.3992  140.1513  156.3078 H   0  0  0  0  0  0  0  0  0  0  0  0  # atno 8009 bound_to 7997
  155.8681  140.3427  155.5804 H   0  0  0  0  0  0  0  0  0  0  0  0  # atno 8010 bound_to 7997
  140.6621  143.7276  150.7758 H   0  0  0  0  0  0  0  0  0  0  0  0  # atno 10167 bound_to 10162
  156.1067  130.4179  150.0706 H   0  0  0  0  0  0  0  0  0  0  0  0  # atno 10718 bound_to 10713
  153.6587  135.6977  153.5184 H   0  0  0  0  0  0  0  0  0  0  0  0  # atno 10763 bound_to 10752
  153.2648  135.4233  155.0929 H   0  0  0  0  0  0  0  0  0  0  0  0  # atno 10764 bound_to 10752
  154.8457  135.3564  154.6132 H   0  0  0  0  0  0  0  0  0  0  0  0  # atno 10765 bound_to 10752
  139.8854  134.8621  156.3303 H   0  0  0  0  0  0  0  0  0  0  0  0  # atno 11005 bound_to 11000
  144.6782  140.0122  143.7484 LP  0  0  0  0  0  0  0  0  0  0  0  0  # atno 17320 bound_to 7965
  145.9978  139.3066  143.0946 LP  0  0  0  0  0  0  0  0  0  0  0  0  # atno 17321 bound_to 7965
  140.0946  143.4845  152.2459 LP  0  0  0  0  0  0  0  0  0  0  0  0  # atno 17342 bound_to 10162
  139.5858  144.7530  151.3523 LP  0  0  0  0  0  0  0  0  0  0  0  0  # atno 17343 bound_to 10162
  156.8679  130.9514  151.3612 LP  0  0  0  0  0  0  0  0  0  0  0  0  # atno 17370 bound_to 10713
  157.6244  130.8680  149.9164 LP  0  0  0  0  0  0  0  0  0  0  0  0  # atno 17371 bound_to 10713
  140.9727  133.7317  156.0558 LP  0  0  0  0  0  0  0  0  0  0  0  0  # atno 17394 bound_to 11000
  140.7850  134.3682  157.5478 LP  0  0  0  0  0  0  0  0  0  0  0  0  # atno 17395 bound_to 11000

$$$$
