AV-unprocessed.smi:1605|AV-procd|sdf|6451|dock6
  -GOLD-   22720 7103D 1   1.00000     0.00000
 Structure written by MMmdl.
 51 53  0  0  0  0  0  0  0  0  2 V2000
  144.3215  134.8754  150.2928 C   0  0  0  0  0  0  0  0  0  0  0  0
  144.9951  134.9677  151.5390 O   0  0  0  0  0  0  0  0  0  0  0  0
  145.2195  136.2980  151.9863 C   0  0  2  0  0  0  0  0  0  0  0  0
  146.1466  137.0636  151.0247 C   0  0  0  0  0  0  0  0  0  0  0  0
  146.5073  138.4467  151.5908 C   0  0  0  0  0  0  0  0  0  0  0  0
  147.1346  138.3334  152.9349 N   0  3  1  0  0  0  0  0  0  0  0  0
  147.6060  139.6365  153.4685 C   0  0  0  0  0  0  0  0  0  0  0  0
  148.7624  139.4751  154.4801 C   0  0  2  0  0  0  0  0  0  0  0  0
  148.2386  138.9780  155.6949 O   0  0  0  0  0  0  0  0  0  0  0  0
  149.5003  140.7926  154.7868 C   0  0  0  0  0  0  0  0  0  0  0  0
  150.6067  140.6048  155.7075 N   0  0  0  0  0  0  0  0  0  0  0  0
  151.5696  139.6659  155.6318 C   0  0  0  0  0  0  0  0  0  0  0  0
  152.5031  139.6741  156.5784 N   0  0  0  0  0  0  0  0  0  0  0  0
  152.0946  140.7371  157.3653 C   0  0  0  0  0  0  0  0  0  0  0  0
  152.6591  141.2777  158.5411 C   0  0  0  0  0  0  0  0  0  0  0  0
  152.0665  142.3866  159.1861 C   0  0  0  0  0  0  0  0  0  0  0  0
  152.7056  142.9329  160.4508 C   0  0  0  0  0  0  0  0  0  0  0  0
  150.8913  142.9744  158.6528 C   0  0  0  0  0  0  0  0  0  0  0  0
  150.2390  144.1680  159.3277 C   0  0  0  0  0  0  0  0  0  0  0  0
  150.3134  142.4461  157.4794 C   0  0  0  0  0  0  0  0  0  0  0  0
  150.9109  141.3406  156.8482 C   0  0  0  0  0  0  0  0  0  0  0  0
  146.2481  137.6204  153.8904 C   0  0  0  0  0  0  0  0  0  0  0  0
  145.8813  136.2208  153.3698 C   0  0  0  0  0  0  0  0  0  0  0  0
  144.1570  133.8263  150.0475 H   0  0  0  0  0  0  0  0  0  0  0  0
  144.9020  135.3154  149.4824 H   0  0  0  0  0  0  0  0  0  0  0  0
  143.3475  135.3643  150.3327 H   0  0  0  0  0  0  0  0  0  0  0  0
  144.2676  136.8234  152.0859 H   0  0  0  0  0  0  0  0  0  0  0  0
  147.0584  136.4890  150.8553 H   0  0  0  0  0  0  0  0  0  0  0  0
  145.6737  137.1885  150.0509 H   0  0  0  0  0  0  0  0  0  0  0  0
  147.1811  138.9469  150.8962 H   0  0  0  0  0  0  0  0  0  0  0  0
  145.6114  139.0660  151.6579 H   0  0  0  0  0  0  0  0  0  0  0  0
  147.8983  140.2655  152.6272 H   0  0  0  0  0  0  0  0  0  0  0  0
  146.7860  140.1605  153.9625 H   0  0  0  0  0  0  0  0  0  0  0  0
  149.4922  138.7534  154.1141 H   0  0  0  0  0  0  0  0  0  0  0  0
  147.5484  138.3620  155.4996 H   0  0  0  0  0  0  0  0  0  0  0  0
  149.8805  141.2438  153.8695 H   0  0  0  0  0  0  0  0  0  0  0  0
  148.8136  141.5169  155.2279 H   0  0  0  0  0  0  0  0  0  0  0  0
  151.5893  138.9387  154.8332 H   0  0  0  0  0  0  0  0  0  0  0  0
  153.5552  140.8309  158.9463 H   0  0  0  0  0  0  0  0  0  0  0  0
  151.9904  142.9309  161.2736 H   0  0  0  0  0  0  0  0  0  0  0  0
  153.0515  143.9549  160.2935 H   0  0  0  0  0  0  0  0  0  0  0  0
  153.5630  142.3318  160.7547 H   0  0  0  0  0  0  0  0  0  0  0  0
  149.3756  144.5216  158.7640 H   0  0  0  0  0  0  0  0  0  0  0  0
  150.9445  144.9950  159.4106 H   0  0  0  0  0  0  0  0  0  0  0  0
  149.8992  143.9012  160.3285 H   0  0  0  0  0  0  0  0  0  0  0  0
  149.4178  142.8843  157.0647 H   0  0  0  0  0  0  0  0  0  0  0  0
  146.7495  137.5208  154.8539 H   0  0  0  0  0  0  0  0  0  0  0  0
  145.3454  138.2093  154.0608 H   0  0  0  0  0  0  0  0  0  0  0  0
  145.2120  135.7272  154.0752 H   0  0  0  0  0  0  0  0  0  0  0  0
  146.7807  135.6055  153.3150 H   0  0  0  0  0  0  0  0  0  0  0  0
  147.9582  137.7570  152.8313 H   0  0  0  0  0  0  0  0  0  0  0  0
  1  2  1  0  0  0  0
  1 24  1  0  0  0  0
  1 25  1  0  0  0  0
  1 26  1  0  0  0  0
  2  3  1  0  0  0  0
  3 23  1  0  0  0  0
  3  4  1  0  0  0  0
  3 27  1  0  0  0  0
  4  5  1  0  0  0  0
  4 28  1  0  0  0  0
  4 29  1  0  0  0  0
  5  6  1  0  0  0  0
  5 30  1  0  0  0  0
  5 31  1  0  0  0  0
  6  7  1  0  0  0  0
  6 22  1  0  0  0  0
  6 51  1  0  0  0  0
  7  8  1  0  0  0  0
  7 32  1  0  0  0  0
  7 33  1  0  0  0  0
  8  9  1  0  0  0  0
  8 10  1  0  0  0  0
  8 34  1  0  0  0  0
  9 35  1  0  0  0  0
 10 11  1  0  0  0  0
 10 36  1  0  0  0  0
 10 37  1  0  0  0  0
 11 21  1  0  0  0  0
 11 12  1  0  0  0  0
 12 13  2  0  0  0  0
 12 38  1  0  0  0  0
 13 14  1  0  0  0  0
 14 21  2  0  0  0  0
 14 15  1  0  0  0  0
 15 16  2  0  0  0  0
 15 39  1  0  0  0  0
 16 17  1  0  0  0  0
 16 18  1  0  0  0  0
 17 40  1  0  0  0  0
 17 41  1  0  0  0  0
 17 42  1  0  0  0  0
 18 19  1  0  0  0  0
 18 20  2  0  0  0  0
 19 43  1  0  0  0  0
 19 44  1  0  0  0  0
 19 45  1  0  0  0  0
 20 21  1  0  0  0  0
 20 46  1  0  0  0  0
 22 23  1  0  0  0  0
 22 47  1  0  0  0  0
 22 48  1  0  0  0  0
 23 49  1  0  0  0  0
 23 50  1  0  0  0  0
M  CHG  1   6   1
M  END
> <s_m_source_file>
AV-unprocessed.smi

> <i_m_source_file_index>
1605

> <i_lp_mmshare_version>
43012

> <i_f3d_flags>
0

> <s_epik_input>
W0NIM11PW0NIXTFbQ0gyXVtDSDJdTihbQ0gyXVtDSDJdMSlbQ0gyXVtDQEhdKFtPSF0pW0NIMl1uKFtjSF1uMiljKGMyMylbY0hdYyhbQ0gzXSljKFtjSF0zKVtDSDNd

> <s_epik_cmdline>
J2VwaWtfcHl0aG9uJywgJy1waCcsICc3LjAnLCAnLXRuJywgJzgnLCAnLW1hJywgJzIwMCcsICctbWV0YWxfYmluZGluZycsICctaW1hZScsICc8aW5maWxlLm1hZT4nLCAnLW9tYWUnLCAnPG91dGZpbGUubWFlPic=

> <r_epik_Ionization_Penalty>
0.110943

> <r_epik_Ionization_Penalty_Charging>
0.0229283

> <r_epik_Ionization_Penalty_Neutral>
0.0880146

> <r_epik_State_Penalty>
0.0947554

> <r_epik_Charging_Adjusted_Penalty>
0.117684

> <i_epik_Tot_Q>
1

> <i_epik_Tot_abs_Q>
1

> <r_epik_Metal_State_Penalty>
0.0192456

> <b_epik_Metal_Only>
0

> <s_lp_Force_Field>
OPLS_2005

> <r_lp_Energy>
22.9289

> <b_lp_Chiralities_Consistent>
1

> <s_lp_Variant>
AV-unprocessed.smi:1605-1

> <Gold.Version>
5.8.1

> <Gold.Id.Protein>
6NUR|6NUR_protein|mol2

> <Gold.PLP.Fitness>
49.2517

> <Gold.PLP.PLP>
-41.0675

> <Gold.PLP.part.hbond>
-2.0000

> <Gold.PLP.part.metal>
0.0000

> <Gold.PLP.part.buried>
1.2300

> <Gold.PLP.part.nonpolar>
-40.8486

> <Gold.PLP.part.repulsive>
0.2141

> <Gold.PLP.ligand.clash>
0.0000

> <Gold.PLP.ligand.torsion>
0.4587

> <Gold.PLP.Chemscore.Hbond>
2.9840

> <Gold.PLP.Chemscore.CHOScore>
0.0000

> <Gold.PLP.Chemscore.Metal>
0.0000

> <Gold.Chemscore.Hbonds>
donor molecule, donor type, donor heavy atom, donor atom, acceptor molecule, acceptor atom, score
      L1  H     6    51       P1  7948  1.87
      P1  H  7997  8010       L1    13  1.00

> <Gold.PLP.Chemscore.Internal.Correction>
0.1497

> <Gold.Rescore>
     Score         DG    S(hbond)    S(metal)    S(lipo)     H(rot)  DE(clash)    DE(int)     intcor
     16.57     -18.64       1.74        0.00     111.40       2.22       0.61       1.46       ----

> <Gold.Chemscore.Fitness>
16.5726

> <Gold.Chemscore.DG>
-18.6392

> <Gold.Chemscore.ZeroCoef>
-5.4800

> <Gold.Chemscore.Hbond>
1.7368

> <Gold.Chemscore.Metal>
0.0000

> <Gold.Chemscore.Lipo>
111.3978

> <Gold.Chemscore.Internal_Hbond>
0.0000

> <Gold.Chemscore.DEClash>
0.6076

> <Gold.Chemscore.DEInternal>
1.4590

> <Gold.Chemscore.Rot>
2.2169

> <Gold.Chemscore.Internal.Correction>
   9.000000E+99

> <Gold.Chemscore.Hbonds>
donor molecule, donor type, donor heavy atom, donor atom, acceptor molecule, acceptor atom, score
      L1  H     6    51       P1  7948  0.85
      P1  H  7997  8010       L1    13  0.30

> <Gold.Chemscore.Hbond.Weighted>
-5.8010

> <Gold.Chemscore.Metal.Weighted>
-0.0000

> <Gold.Chemscore.Lipo.Weighted>
-13.0335

> <Gold.Chemscore.Internal_Hbond.Weighted>
0.0000

> <Gold.Chemscore.DEClash.Weighted>
0.6076

> <Gold.Chemscore.DEInternal.Weighted>
1.4590

> <Gold.Chemscore.Rot.Weighted>
5.6753

> <Gold.Chemscore.Internal.Correction.Weighted>
   9.000000E+99

> <Gold.Protein.RotatedTorsions>
[ 6907 6896 6895 6894 ] final  117.85 input  -60.11 | X-H torsion
[ 7974 7965 7964 7962 ] final -153.13 input  175.53 | X-H torsion
[ 8008 7997 7996 7995 ] final   82.37 input   59.86 | X-H torsion
[ 10167 10162 10161 10158 ] final  152.72 input  -65.29 | X-H torsion
[ 10718 10713 10712 10709 ] final   21.70 input   66.30 | X-H torsion
[ 10763 10752 10751 10750 ] final  179.76 input  -60.55 | X-H torsion
[ 11005 11000 10999 10996 ] final   33.61 input  -57.11 | X-H torsion

> <Gold.Protein.ActiveResidues>
 VAL166  LYS551  ARG553  GLY616  TRP617  ASP618  TYR619  PRO620  LYS621  CYS622 
 ASP623  PHE694  ASN695  SER759  ASP760  ASP761  ALA762  ILE779  LEU786  VAL792 
 PHE793  MET794  SER795  GLU796  ALA797  LYS798  CYS799  TRP800  GLU811  SER814 

> <Gold.Protein.RotatedAtoms>
  152.4584  133.7770  159.6829 H   0  0  0  0  0  0  0  0  0  0  0  0  # atno 6907 bound_to 6896
  150.8518  133.7765  159.3029 H   0  0  0  0  0  0  0  0  0  0  0  0  # atno 6908 bound_to 6896
  151.5358  135.1071  159.9966 H   0  0  0  0  0  0  0  0  0  0  0  0  # atno 6909 bound_to 6896
  144.7757  140.4567  143.5875 H   0  0  0  0  0  0  0  0  0  0  0  0  # atno 7974 bound_to 7965
  155.9098  140.3428  155.6089 H   0  0  0  0  0  0  0  0  0  0  0  0  # atno 8008 bound_to 7997
  155.7402  140.0806  157.2268 H   0  0  0  0  0  0  0  0  0  0  0  0  # atno 8009 bound_to 7997
  154.4054  140.1572  156.2594 H   0  0  0  0  0  0  0  0  0  0  0  0  # atno 8010 bound_to 7997
  139.4831  144.5334  151.7685 H   0  0  0  0  0  0  0  0  0  0  0  0  # atno 10167 bound_to 10162
  157.1421  130.6637  149.5984 H   0  0  0  0  0  0  0  0  0  0  0  0  # atno 10718 bound_to 10713
  154.5248  135.2796  155.1231 H   0  0  0  0  0  0  0  0  0  0  0  0  # atno 10763 bound_to 10752
  154.2775  135.6292  153.5337 H   0  0  0  0  0  0  0  0  0  0  0  0  # atno 10764 bound_to 10752
  152.9944  135.5643  154.5746 H   0  0  0  0  0  0  0  0  0  0  0  0  # atno 10765 bound_to 10752
  140.2613  134.3188  155.7857 H   0  0  0  0  0  0  0  0  0  0  0  0  # atno 11005 bound_to 11000
  145.6194  139.1522  143.3031 LP  0  0  0  0  0  0  0  0  0  0  0  0  # atno 17320 bound_to 7965
  146.1934  140.6305  142.9135 LP  0  0  0  0  0  0  0  0  0  0  0  0  # atno 17321 bound_to 7965
  140.4863  144.1375  150.5941 LP  0  0  0  0  0  0  0  0  0  0  0  0  # atno 17342 bound_to 10162
  140.4221  143.2607  151.9702 LP  0  0  0  0  0  0  0  0  0  0  0  0  # atno 17343 bound_to 10162
  155.9786  130.4774  150.6668 LP  0  0  0  0  0  0  0  0  0  0  0  0  # atno 17370 bound_to 10713
  157.4298  131.0848  151.1050 LP  0  0  0  0  0  0  0  0  0  0  0  0  # atno 17371 bound_to 10713
  141.2190  133.7411  156.9192 LP  0  0  0  0  0  0  0  0  0  0  0  0  # atno 17394 bound_to 11000
  140.1461  134.9261  157.2532 LP  0  0  0  0  0  0  0  0  0  0  0  0  # atno 17395 bound_to 11000

$$$$
