AV-unprocessed.smi:427|AV-procd|sdf|2542|dock8
  -GOLD-   2262022503D 1   1.00000     0.00000
 Structure written by MMmdl.
 51 52  0  0  0  0  0  0  0  0  1 V2000
  152.1223  138.7723  159.5993 C   0  0  0  0  0  0  0  0  0  0  0  0
  151.7114  139.9816  158.7793 C   0  0  0  0  0  0  0  0  0  0  0  0
  151.9872  141.2773  159.2639 C   0  0  0  0  0  0  0  0  0  0  0  0
  151.6125  142.4279  158.5286 C   0  0  0  0  0  0  0  0  0  0  0  0
  151.8970  143.8576  159.0278 C   0  0  0  0  0  0  0  0  0  0  0  0
  150.5691  144.6319  159.1548 C   0  0  0  0  0  0  0  0  0  0  0  0
  152.8185  144.6570  158.0788 C   0  0  0  0  0  0  0  0  0  0  0  0
  152.5873  143.8002  160.4069 C   0  0  0  0  0  0  0  0  0  0  0  0
  150.9566  142.2399  157.2905 C   0  0  0  0  0  0  0  0  0  0  0  0
  150.6772  140.9502  156.8027 C   0  0  0  0  0  0  0  0  0  0  0  0
  151.0500  139.8039  157.5446 C   0  0  0  0  0  0  0  0  0  0  0  0
  150.8071  138.5111  157.1314 O   0  0  0  0  0  0  0  0  0  0  0  0
  150.6815  138.2540  155.7391 C   0  0  0  0  0  0  0  0  0  0  0  0
  150.8542  136.7454  155.5095 C   0  0  2  0  0  0  0  0  0  0  0  0
  151.2942  136.5711  154.1781 O   0  0  0  0  0  0  0  0  0  0  0  0
  149.5288  135.9737  155.7019 C   0  0  0  0  0  0  0  0  0  0  0  0
  149.6611  134.5474  155.4608 N   0  0  0  0  0  0  0  0  0  0  0  0
  150.6529  133.8400  156.1841 C   0  0  0  0  0  0  0  0  0  0  0  0
  151.3927  134.3933  156.9986 O   0  0  0  0  0  0  0  0  0  0  0  0
  150.7135  132.4105  155.8981 C   0  0  0  0  0  0  0  0  0  0  0  0
  149.8610  131.8412  155.0184 C   0  0  0  0  0  0  0  0  0  0  0  0
  148.8912  132.5577  154.3448 N   0  0  0  0  0  0  0  0  0  0  0  0
  147.9784  131.9430  153.4247 C   0  0  0  0  0  0  0  0  0  0  0  0
  148.7565  133.9473  154.5525 C   0  0  0  0  0  0  0  0  0  0  0  0
  147.8826  134.5993  153.9737 O   0  0  0  0  0  0  0  0  0  0  0  0
  152.7028  139.0601  160.4762 H   0  0  0  0  0  0  0  0  0  0  0  0
  152.7306  138.0937  159.0006 H   0  0  0  0  0  0  0  0  0  0  0  0
  151.2388  138.2318  159.9398 H   0  0  0  0  0  0  0  0  0  0  0  0
  152.4913  141.3631  160.2136 H   0  0  0  0  0  0  0  0  0  0  0  0
  150.7368  145.6554  159.4916 H   0  0  0  0  0  0  0  0  0  0  0  0
  149.8902  144.1675  159.8702 H   0  0  0  0  0  0  0  0  0  0  0  0
  150.0509  144.6834  158.1965 H   0  0  0  0  0  0  0  0  0  0  0  0
  152.3757  144.7744  157.0890 H   0  0  0  0  0  0  0  0  0  0  0  0
  153.7902  144.1756  157.9610 H   0  0  0  0  0  0  0  0  0  0  0  0
  153.0053  145.6607  158.4626 H   0  0  0  0  0  0  0  0  0  0  0  0
  152.8224  144.7997  160.7749 H   0  0  0  0  0  0  0  0  0  0  0  0
  153.5232  143.2423  160.3558 H   0  0  0  0  0  0  0  0  0  0  0  0
  151.9621  143.3235  161.1619 H   0  0  0  0  0  0  0  0  0  0  0  0
  150.6588  143.0906  156.6961 H   0  0  0  0  0  0  0  0  0  0  0  0
  150.1754  140.8681  155.8509 H   0  0  0  0  0  0  0  0  0  0  0  0
  149.7076  138.5802  155.3696 H   0  0  0  0  0  0  0  0  0  0  0  0
  151.4539  138.8034  155.1978 H   0  0  0  0  0  0  0  0  0  0  0  0
  151.6282  136.3726  156.1818 H   0  0  0  0  0  0  0  0  0  0  0  0
  150.5906  136.8143  153.5957 H   0  0  0  0  0  0  0  0  0  0  0  0
  149.1505  136.0745  156.7208 H   0  0  0  0  0  0  0  0  0  0  0  0
  148.7181  136.3646  155.0844 H   0  0  0  0  0  0  0  0  0  0  0  0
  151.4490  131.7995  156.4007 H   0  0  0  0  0  0  0  0  0  0  0  0
  149.9420  130.7788  154.8407 H   0  0  0  0  0  0  0  0  0  0  0  0
  148.1147  132.4229  152.4539 H   0  0  0  0  0  0  0  0  0  0  0  0
  146.9700  132.0861  153.8173 H   0  0  0  0  0  0  0  0  0  0  0  0
  148.2222  130.8815  153.3671 H   0  0  0  0  0  0  0  0  0  0  0  0
  1  2  1  0  0  0  0
  1 26  1  0  0  0  0
  1 27  1  0  0  0  0
  1 28  1  0  0  0  0
  2 11  1  0  0  0  0
  2  3  2  0  0  0  0
  3  4  1  0  0  0  0
  3 29  1  0  0  0  0
  4  5  1  0  0  0  0
  4  9  2  0  0  0  0
  5  6  1  0  0  0  0
  5  7  1  0  0  0  0
  5  8  1  0  0  0  0
  6 30  1  0  0  0  0
  6 31  1  0  0  0  0
  6 32  1  0  0  0  0
  7 33  1  0  0  0  0
  7 34  1  0  0  0  0
  7 35  1  0  0  0  0
  8 36  1  0  0  0  0
  8 37  1  0  0  0  0
  8 38  1  0  0  0  0
  9 10  1  0  0  0  0
  9 39  1  0  0  0  0
 10 11  2  0  0  0  0
 10 40  1  0  0  0  0
 11 12  1  0  0  0  0
 12 13  1  0  0  0  0
 13 14  1  0  0  0  0
 13 41  1  0  0  0  0
 13 42  1  0  0  0  0
 14 15  1  0  0  0  0
 14 16  1  0  0  0  0
 14 43  1  0  0  0  0
 15 44  1  0  0  0  0
 16 17  1  0  0  0  0
 16 45  1  0  0  0  0
 16 46  1  0  0  0  0
 17 24  1  0  0  0  0
 17 18  1  0  0  0  0
 18 19  2  0  0  0  0
 18 20  1  0  0  0  0
 20 21  2  0  0  0  0
 20 47  1  0  0  0  0
 21 22  1  0  0  0  0
 21 48  1  0  0  0  0
 22 23  1  0  0  0  0
 22 24  1  0  0  0  0
 23 49  1  0  0  0  0
 23 50  1  0  0  0  0
 23 51  1  0  0  0  0
 24 25  2  0  0  0  0
M  END
> <s_m_source_file>
AV-unprocessed.smi

> <i_m_source_file_index>
427

> <i_lp_mmshare_version>
43012

> <i_f3d_flags>
0

> <s_epik_input>
W0NIM11jMVtjSF1jKEMoW0NIM10pKFtDSDNdKVtDSDNdKVtjSF1bY0hdYzFPW0NIMl1bQ0BIXShbT0hdKVtDSDJdbjJjKD1PKVtjSF1bY0hdbihbQ0gzXSljMj1P

> <s_epik_cmdline>
J2VwaWtfcHl0aG9uJywgJy1waCcsICc3LjAnLCAnLXRuJywgJzgnLCAnLW1hJywgJzIwMCcsICctbWV0YWxfYmluZGluZycsICctaW1hZScsICc8aW5maWxlLm1hZT4nLCAnLW9tYWUnLCAnPG91dGZpbGUubWFlPic=

> <r_lp_tautomer_probability>
1

> <r_epik_Ionization_Penalty>
2.02112e-07

> <r_epik_Ionization_Penalty_Charging>
8.49383e-08

> <r_epik_Ionization_Penalty_Neutral>
1.17174e-07

> <r_epik_State_Penalty>
-0

> <r_epik_Charging_Adjusted_Penalty>
8.49383e-08

> <i_epik_Tot_Q>
0

> <i_epik_Tot_abs_Q>
0

> <r_epik_Metal_State_Penalty>
-0

> <b_epik_Metal_Only>
0

> <s_lp_Force_Field>
OPLS_2005

> <r_lp_Energy>
25.5029

> <b_lp_Chiralities_Consistent>
1

> <s_lp_Variant>
AV-unprocessed.smi:427-1

> <Gold.Version>
5.8.1

> <Gold.Id.Protein>
6NUR|6NUR_protein|mol2

> <Gold.PLP.Fitness>
51.3221

> <Gold.PLP.PLP>
-49.5633

> <Gold.PLP.part.hbond>
-3.3308

> <Gold.PLP.part.metal>
0.0000

> <Gold.PLP.part.buried>
-7.5114

> <Gold.PLP.part.nonpolar>
-39.0248

> <Gold.PLP.part.repulsive>
1.1511

> <Gold.PLP.ligand.clash>
0.0000

> <Gold.PLP.ligand.torsion>
0.7574

> <Gold.PLP.Chemscore.Hbond>
1.0698

> <Gold.PLP.Chemscore.CHOScore>
0.0000

> <Gold.PLP.Chemscore.Metal>
0.0000

> <Gold.Chemscore.Hbonds>
donor molecule, donor type, donor heavy atom, donor atom, acceptor molecule, acceptor atom, score
      L1  H    15    44       P1  7948  0.03
      P1  H  6896  6907       L1    19  0.01
      P1  H 10752 10763       L1    15  1.00

> <Gold.PLP.Chemscore.Internal.Correction>
0.0643

> <Gold.Rescore>
     Score         DG    S(hbond)    S(metal)    S(lipo)     H(rot)  DE(clash)    DE(int)     intcor
     14.75     -17.28       1.14        0.00     122.70       2.49       0.06       2.47       ----

> <Gold.Chemscore.Fitness>
14.7543

> <Gold.Chemscore.DG>
-17.2808

> <Gold.Chemscore.ZeroCoef>
-5.4800

> <Gold.Chemscore.Hbond>
1.1432

> <Gold.Chemscore.Metal>
0.0000

> <Gold.Chemscore.Lipo>
122.6953

> <Gold.Chemscore.Internal_Hbond>
0.0000

> <Gold.Chemscore.DEClash>
0.0610

> <Gold.Chemscore.DEInternal>
2.4655

> <Gold.Chemscore.Rot>
2.4894

> <Gold.Chemscore.Internal.Correction>
   9.000000E+99

> <Gold.Chemscore.Hbonds>
donor molecule, donor type, donor heavy atom, donor atom, acceptor molecule, acceptor atom, score
      P1  H  6896  6907       L1    19  0.02
      P1  H 10752 10763       L1    15  0.70

> <Gold.Chemscore.Hbond.Weighted>
-3.8182

> <Gold.Chemscore.Metal.Weighted>
-0.0000

> <Gold.Chemscore.Lipo.Weighted>
-14.3553

> <Gold.Chemscore.Internal_Hbond.Weighted>
0.0000

> <Gold.Chemscore.DEClash.Weighted>
0.0610

> <Gold.Chemscore.DEInternal.Weighted>
2.4655

> <Gold.Chemscore.Rot.Weighted>
6.3728

> <Gold.Chemscore.Internal.Correction.Weighted>
   9.000000E+99

> <Gold.Protein.RotatedTorsions>
[ 6907 6896 6895 6894 ] final -158.55 input  -60.11 | X-H torsion
[ 7974 7965 7964 7962 ] final  -69.68 input  175.53 | X-H torsion
[ 8008 7997 7996 7995 ] final  147.68 input   59.86 | X-H torsion
[ 10167 10162 10161 10158 ] final -165.44 input  -65.29 | X-H torsion
[ 10718 10713 10712 10709 ] final -123.13 input   66.30 | X-H torsion
[ 10763 10752 10751 10750 ] final   35.34 input  -60.55 | X-H torsion
[ 11005 11000 10999 10996 ] final  -87.17 input  -57.11 | X-H torsion

> <Gold.Protein.ActiveResidues>
 VAL166  LYS551  ARG553  GLY616  TRP617  ASP618  TYR619  PRO620  LYS621  CYS622 
 ASP623  PHE694  ASN695  SER759  ASP760  ASP761  ALA762  ILE779  LEU786  VAL792 
 PHE793  MET794  SER795  GLU796  ALA797  LYS798  CYS799  TRP800  GLU811  SER814 

> <Gold.Protein.RotatedAtoms>
  151.3199  133.4044  159.2653 H   0  0  0  0  0  0  0  0  0  0  0  0  # atno 6907 bound_to 6896
  151.0043  134.9347  159.7982 H   0  0  0  0  0  0  0  0  0  0  0  0  # atno 6908 bound_to 6896
  152.5284  134.3164  159.9185 H   0  0  0  0  0  0  0  0  0  0  0  0  # atno 6909 bound_to 6896
  145.7006  140.9118  143.0733 H   0  0  0  0  0  0  0  0  0  0  0  0  # atno 7974 bound_to 7965
  156.2816  140.2149  156.5577 H   0  0  0  0  0  0  0  0  0  0  0  0  # atno 8008 bound_to 7997
  154.7238  140.0501  157.0687 H   0  0  0  0  0  0  0  0  0  0  0  0  # atno 8009 bound_to 7997
  155.0443  140.3149  155.4717 H   0  0  0  0  0  0  0  0  0  0  0  0  # atno 8010 bound_to 7997
  139.6182  144.0677  152.1908 H   0  0  0  0  0  0  0  0  0  0  0  0  # atno 10167 bound_to 10162
  156.1476  130.6511  150.9866 H   0  0  0  0  0  0  0  0  0  0  0  0  # atno 10718 bound_to 10713
  153.0123  135.6336  154.1811 H   0  0  0  0  0  0  0  0  0  0  0  0  # atno 10763 bound_to 10752
  154.1553  135.2826  155.3126 H   0  0  0  0  0  0  0  0  0  0  0  0  # atno 10764 bound_to 10752
  154.6023  135.5583  153.7447 H   0  0  0  0  0  0  0  0  0  0  0  0  # atno 10765 bound_to 10752
  141.1620  133.7496  156.9268 H   0  0  0  0  0  0  0  0  0  0  0  0  # atno 11005 bound_to 11000
  144.6969  139.8943  143.7455 LP  0  0  0  0  0  0  0  0  0  0  0  0  # atno 17320 bound_to 7965
  146.0801  139.3789  143.0470 LP  0  0  0  0  0  0  0  0  0  0  0  0  # atno 17321 bound_to 7965
  140.0313  144.6079  150.7486 LP  0  0  0  0  0  0  0  0  0  0  0  0  # atno 17342 bound_to 10162
  140.7365  143.2753  151.3760 LP  0  0  0  0  0  0  0  0  0  0  0  0  # atno 17343 bound_to 10162
  157.6630  131.0877  150.7794 LP  0  0  0  0  0  0  0  0  0  0  0  0  # atno 17370 bound_to 10713
  156.7864  130.4876  149.5392 LP  0  0  0  0  0  0  0  0  0  0  0  0  # atno 17371 bound_to 10713
  140.1414  134.9291  157.2471 LP  0  0  0  0  0  0  0  0  0  0  0  0  # atno 17394 bound_to 11000
  140.2833  134.3325  155.7336 LP  0  0  0  0  0  0  0  0  0  0  0  0  # atno 17395 bound_to 11000

$$$$
