AV-unprocessed.smi:1575|AV-procd|sdf|6342|dock2
  -GOLD-   22720 6563D 1   1.00000     0.00000
 Structure written by MMmdl.
 40 40  0  0  0  0  0  0  0  0  2 V2000
  145.8707  135.6563  152.2625 C   0  0  0  0  0  0  0  0  0  0  0  0
  146.9921  135.3272  153.1285 N   0  0  0  0  0  0  0  0  0  0  0  0
  146.8965  135.1621  154.4555 C   0  0  0  0  0  0  0  0  0  0  0  0
  145.8389  135.2924  155.0742 O   0  0  0  0  0  0  0  0  0  0  0  0
  148.2006  134.8195  155.1955 C   0  0  1  0  0  0  0  0  0  0  0  0
  148.6255  133.3933  154.7716 C   0  0  0  0  0  0  0  0  0  0  0  0
  149.7553  132.7631  155.6184 C   0  0  0  0  0  0  0  0  0  0  0  0
  149.8080  131.2433  155.4007 C   0  0  0  0  0  0  0  0  0  0  0  0
  149.6184  133.0845  157.1161 C   0  0  0  0  0  0  0  0  0  0  0  0
  149.2501  135.7603  154.8045 N   0  0  0  0  0  0  0  0  0  0  0  0
  150.1597  136.2950  155.6336 C   0  0  0  0  0  0  0  0  0  0  0  0
  150.2308  136.0113  156.8302 O   0  0  0  0  0  0  0  0  0  0  0  0
  151.1528  137.2782  155.0001 C   0  0  0  0  0  0  0  0  0  0  0  0
  150.5768  138.6149  154.7820 N   0  0  0  0  0  0  0  0  0  0  0  0
  149.3227  138.6931  154.1513 C   0  0  0  0  0  0  0  0  0  0  0  0
  148.7218  139.8735  153.9090 C   0  0  0  0  0  0  0  0  0  0  0  0
  149.4058  141.0935  154.3193 C   0  0  0  0  0  0  0  0  0  0  0  0
  148.8694  142.1801  154.1111 O   0  0  0  0  0  0  0  0  0  0  0  0
  150.6235  140.9658  154.9228 N   0  5  0  0  0  0  0  0  0  0  0  0
  151.2238  139.7584  155.1611 C   0  0  0  0  0  0  0  0  0  0  0  0
  152.3243  139.6660  155.7060 O   0  0  0  0  0  0  0  0  0  0  0  0
  146.2078  135.7288  151.2288 H   0  0  0  0  0  0  0  0  0  0  0  0
  145.4287  136.6122  152.5453 H   0  0  0  0  0  0  0  0  0  0  0  0
  145.1001  134.8864  152.3167 H   0  0  0  0  0  0  0  0  0  0  0  0
  147.8949  135.2072  152.6929 H   0  0  0  0  0  0  0  0  0  0  0  0
  148.0305  134.8618  156.2724 H   0  0  0  0  0  0  0  0  0  0  0  0
  147.7579  132.7318  154.8033 H   0  0  0  0  0  0  0  0  0  0  0  0
  148.9431  133.4117  153.7272 H   0  0  0  0  0  0  0  0  0  0  0  0
  150.7111  133.1632  155.2789 H   0  0  0  0  0  0  0  0  0  0  0  0
  148.8832  130.7646  155.7245 H   0  0  0  0  0  0  0  0  0  0  0  0
  150.6293  130.7932  155.9596 H   0  0  0  0  0  0  0  0  0  0  0  0
  149.9581  131.0005  154.3483 H   0  0  0  0  0  0  0  0  0  0  0  0
  148.6577  132.7494  157.5078 H   0  0  0  0  0  0  0  0  0  0  0  0
  149.7049  134.1536  157.3077 H   0  0  0  0  0  0  0  0  0  0  0  0
  150.4015  132.5934  157.6945 H   0  0  0  0  0  0  0  0  0  0  0  0
  149.2616  136.0531  153.8384 H   0  0  0  0  0  0  0  0  0  0  0  0
  152.0281  137.3394  155.6481 H   0  0  0  0  0  0  0  0  0  0  0  0
  151.5229  136.8741  154.0560 H   0  0  0  0  0  0  0  0  0  0  0  0
  148.8869  137.7446  153.8737 H   0  0  0  0  0  0  0  0  0  0  0  0
  147.7596  139.9168  153.4205 H   0  0  0  0  0  0  0  0  0  0  0  0
  1  2  1  0  0  0  0
  1 22  1  0  0  0  0
  1 23  1  0  0  0  0
  1 24  1  0  0  0  0
  2  3  1  0  0  0  0
  2 25  1  0  0  0  0
  3  4  2  0  0  0  0
  3  5  1  0  0  0  0
  5  6  1  0  0  0  0
  5 10  1  0  0  0  0
  5 26  1  0  0  0  0
  6  7  1  0  0  0  0
  6 27  1  0  0  0  0
  6 28  1  0  0  0  0
  7  8  1  0  0  0  0
  7  9  1  0  0  0  0
  7 29  1  0  0  0  0
  8 30  1  0  0  0  0
  8 31  1  0  0  0  0
  8 32  1  0  0  0  0
  9 33  1  0  0  0  0
  9 34  1  0  0  0  0
  9 35  1  0  0  0  0
 10 11  1  0  0  0  0
 10 36  1  0  0  0  0
 11 12  2  0  0  0  0
 11 13  1  0  0  0  0
 13 14  1  0  0  0  0
 13 37  1  0  0  0  0
 13 38  1  0  0  0  0
 14 20  1  0  0  0  0
 14 15  1  0  0  0  0
 15 16  2  0  0  0  0
 15 39  1  0  0  0  0
 16 17  1  0  0  0  0
 16 40  1  0  0  0  0
 17 18  2  0  0  0  0
 17 19  1  0  0  0  0
 19 20  1  0  0  0  0
 20 21  2  0  0  0  0
M  CHG  1  19  -1
M  END
> <s_m_source_file>
AV-unprocessed.smi

> <i_m_source_file_index>
1575

> <i_lp_mmshare_version>
43012

> <i_f3d_flags>
0

> <s_epik_input>
W0NIM11bTkhdQyg9TylbQ0BIXShbQ0gyXVtDSF0oW0NIM10pW0NIM10pW05IXUMoPU8pW0NIMl1uMVtjSF1bY0hdYyg9TylbbkhdYzE9Tw==

> <s_epik_cmdline>
J2VwaWtfcHl0aG9uJywgJy1waCcsICc3LjAnLCAnLXRuJywgJzgnLCAnLW1hJywgJzIwMCcsICctbWV0YWxfYmluZGluZycsICctaW1hZScsICc8aW5maWxlLm1hZT4nLCAnLW9tYWUnLCAnPG91dGZpbGUubWFlPic=

> <r_lp_tautomer_probability>
0.999537

> <r_epik_Ionization_Penalty>
3.03017

> <r_epik_Ionization_Penalty_Charging>
2.35557e-08

> <r_epik_Ionization_Penalty_Neutral>
3.03017

> <r_epik_State_Penalty>
3.02913

> <r_epik_Charging_Adjusted_Penalty>
3.02913

> <i_epik_Tot_Q>
-1

> <i_epik_Tot_abs_Q>
1

> <r_epik_Metal_State_Penalty>
0.455824

> <b_epik_Metal_Only>
1

> <s_lp_Force_Field>
OPLS_2005

> <r_lp_Energy>
14.624

> <b_lp_Chiralities_Consistent>
1

> <s_lp_Variant>
AV-unprocessed.smi:1575-4

> <Gold.Version>
5.8.1

> <Gold.Id.Protein>
6NUR|6NUR_protein|mol2

> <Gold.PLP.Fitness>
39.6920

> <Gold.PLP.PLP>
-30.4791

> <Gold.PLP.part.hbond>
-5.7140

> <Gold.PLP.part.metal>
0.0000

> <Gold.PLP.part.buried>
1.6420

> <Gold.PLP.part.nonpolar>
-27.0884

> <Gold.PLP.part.repulsive>
1.7397

> <Gold.PLP.ligand.clash>
0.0000

> <Gold.PLP.ligand.torsion>
1.0100

> <Gold.PLP.Chemscore.Hbond>
2.6863

> <Gold.PLP.Chemscore.CHOScore>
1.0000

> <Gold.PLP.Chemscore.Metal>
0.0000

> <Gold.Chemscore.Hbonds>
donor molecule, donor type, donor heavy atom, donor atom, acceptor molecule, acceptor atom, score
      L1  H     2    25       P1  7948  0.72
      L1  H    10    36       P1  7948  1.00
      P1  H  7989  7998       L1    19  0.07
      P1  H  7997  8008       L1    21  0.73
      P1  H  8011  8017       L1    18  0.21
      L1  C    15    39       P1  7948  1.00

> <Gold.PLP.Chemscore.Internal.Correction>
0.1738

> <Gold.Rescore>
     Score         DG    S(hbond)    S(metal)    S(lipo)     H(rot)  DE(clash)    DE(int)     intcor
     11.27     -13.88       2.90        0.00      48.95       2.74       1.81       0.80       ----

> <Gold.Chemscore.Fitness>
11.2651

> <Gold.Chemscore.DG>
-13.8785

> <Gold.Chemscore.ZeroCoef>
-5.4800

> <Gold.Chemscore.Hbond>
2.9026

> <Gold.Chemscore.Metal>
0.0000

> <Gold.Chemscore.Lipo>
48.9486

> <Gold.Chemscore.Internal_Hbond>
0.0000

> <Gold.Chemscore.DEClash>
1.8137

> <Gold.Chemscore.DEInternal>
0.7997

> <Gold.Chemscore.Rot>
2.7435

> <Gold.Chemscore.Internal.Correction>
   9.000000E+99

> <Gold.Chemscore.Hbonds>
donor molecule, donor type, donor heavy atom, donor atom, acceptor molecule, acceptor atom, score
      L1  H     2    25       P1  7948  0.71
      L1  H    10    36       P1  7948  0.83
      P1  H  7997  8008       L1    21  0.73
      P1  H  8011  8017       L1    18  0.02

> <Gold.Chemscore.Hbond.Weighted>
-9.6948

> <Gold.Chemscore.Metal.Weighted>
-0.0000

> <Gold.Chemscore.Lipo.Weighted>
-5.7270

> <Gold.Chemscore.Internal_Hbond.Weighted>
0.0000

> <Gold.Chemscore.DEClash.Weighted>
1.8137

> <Gold.Chemscore.DEInternal.Weighted>
0.7997

> <Gold.Chemscore.Rot.Weighted>
7.0233

> <Gold.Chemscore.Internal.Correction.Weighted>
   9.000000E+99

> <Gold.Protein.RotatedTorsions>
[ 6907 6896 6895 6894 ] final   61.28 input  -60.11 | X-H torsion
[ 7974 7965 7964 7962 ] final  -90.31 input  175.53 | X-H torsion
[ 8008 7997 7996 7995 ] final  -38.56 input   59.86 | X-H torsion
[ 10167 10162 10161 10158 ] final  120.69 input  -65.29 | X-H torsion
[ 10718 10713 10712 10709 ] final  -32.39 input   66.30 | X-H torsion
[ 10763 10752 10751 10750 ] final  100.09 input  -60.55 | X-H torsion
[ 11005 11000 10999 10996 ] final  -78.76 input  -57.11 | X-H torsion

> <Gold.Protein.ActiveResidues>
 VAL166  LYS551  ARG553  GLY616  TRP617  ASP618  TYR619  PRO620  LYS621  CYS622 
 ASP623  PHE694  ASN695  SER759  ASP760  ASP761  ALA762  ILE779  LEU786  VAL792 
 PHE793  MET794  SER795  GLU796  ALA797  LYS798  CYS799  TRP800  GLU811  SER814 

> <Gold.Protein.RotatedAtoms>
  152.4075  134.6181  160.0043 H   0  0  0  0  0  0  0  0  0  0  0  0  # atno 6907 bound_to 6896
  151.6368  133.3323  159.3129 H   0  0  0  0  0  0  0  0  0  0  0  0  # atno 6908 bound_to 6896
  150.7969  134.7076  159.6630 H   0  0  0  0  0  0  0  0  0  0  0  0  # atno 6909 bound_to 6896
  145.4282  140.9554  143.2143 H   0  0  0  0  0  0  0  0  0  0  0  0  # atno 7974 bound_to 7965
  154.4035  140.1574  156.2720 H   0  0  0  0  0  0  0  0  0  0  0  0  # atno 8008 bound_to 7997
  155.8945  140.3437  155.5958 H   0  0  0  0  0  0  0  0  0  0  0  0  # atno 8009 bound_to 7997
  155.7520  140.0806  157.2187 H   0  0  0  0  0  0  0  0  0  0  0  0  # atno 8010 bound_to 7997
  139.5966  144.7044  151.3161 H   0  0  0  0  0  0  0  0  0  0  0  0  # atno 10167 bound_to 10162
  156.3755  130.4347  149.7511 H   0  0  0  0  0  0  0  0  0  0  0  0  # atno 10718 bound_to 10713
  153.3096  135.4091  155.1324 H   0  0  0  0  0  0  0  0  0  0  0  0  # atno 10763 bound_to 10752
  154.8572  135.3561  154.5741 H   0  0  0  0  0  0  0  0  0  0  0  0  # atno 10764 bound_to 10752
  153.6170  135.7066  153.5384 H   0  0  0  0  0  0  0  0  0  0  0  0  # atno 10765 bound_to 10752
  141.1666  133.7077  156.8020 H   0  0  0  0  0  0  0  0  0  0  0  0  # atno 11005 bound_to 11000
  144.8200  139.5808  143.6991 LP  0  0  0  0  0  0  0  0  0  0  0  0  # atno 17320 bound_to 7965
  146.2621  139.6434  142.9355 LP  0  0  0  0  0  0  0  0  0  0  0  0  # atno 17321 bound_to 7965
  140.7217  143.7117  150.7764 LP  0  0  0  0  0  0  0  0  0  0  0  0  # atno 17342 bound_to 10162
  140.0685  143.5084  152.2592 LP  0  0  0  0  0  0  0  0  0  0  0  0  # atno 17343 bound_to 10162
  156.4622  130.7957  151.2977 LP  0  0  0  0  0  0  0  0  0  0  0  0  # atno 17370 bound_to 10713
  157.7488  131.0062  150.3143 LP  0  0  0  0  0  0  0  0  0  0  0  0  # atno 17371 bound_to 10713
  140.2249  134.8729  157.3416 LP  0  0  0  0  0  0  0  0  0  0  0  0  # atno 17394 bound_to 11000
  140.1950  134.4325  155.7694 LP  0  0  0  0  0  0  0  0  0  0  0  0  # atno 17395 bound_to 11000

$$$$
