AV-unprocessed.smi:694|AV-procd|sdf|3380|dock3
  -GOLD-   22720 0363D 1   1.00000     0.00000
 Structure written by MMmdl.
 42 43  0  0  0  0  0  0  0  0  1 V2000
  146.9449  136.7598  154.3075 C   0  0  0  0  0  0  0  0  0  0  0  0
  146.9969  138.0624  153.6509 N   0  0  0  0  0  0  0  0  0  0  0  0
  146.2257  138.2931  152.4362 C   0  0  0  0  0  0  0  0  0  0  0  0
  147.7074  139.1251  154.2546 C   0  0  0  0  0  0  0  0  0  0  0  0
  148.5439  138.9121  155.3781 C   0  0  0  0  0  0  0  0  0  0  0  0
  149.2338  140.0039  155.9380 C   0  0  0  0  0  0  0  0  0  0  0  0
  149.0846  141.2827  155.3684 C   0  0  0  0  0  0  0  0  0  0  0  0
  149.7891  142.3627  155.9675 N   0  0  0  0  0  0  0  0  0  0  0  0
  150.8559  142.3248  156.7844 C   0  0  0  0  0  0  0  0  0  0  0  0
  151.4250  141.3048  157.1714 O   0  0  0  0  0  0  0  0  0  0  0  0
  151.2263  143.5595  157.1520 N   0  0  0  0  0  0  0  0  0  0  0  0
  152.3389  143.8703  158.0437 C   0  0  0  0  0  0  0  0  0  0  0  0
  152.1873  143.1983  159.4237 C   0  0  2  0  0  0  0  0  0  0  0  0
  152.1311  144.1859  160.6006 C   0  0  0  0  0  0  0  0  0  0  0  0
  152.7168  143.4484  161.8156 C   0  0  0  0  0  0  0  0  0  0  0  0
  153.2141  142.0926  161.3009 C   0  0  0  0  0  0  0  0  0  0  0  0
  153.3487  142.2684  159.7880 C   0  0  1  0  0  0  0  0  0  0  0  0
  153.2737  141.0272  159.1176 O   0  0  0  0  0  0  0  0  0  0  0  0
  148.2175  141.4046  154.2572 C   0  0  0  0  0  0  0  0  0  0  0  0
  147.5539  140.3603  153.7181 N   0  0  0  0  0  0  0  0  0  0  0  0
  146.4724  136.8439  155.2868 H   0  0  0  0  0  0  0  0  0  0  0  0
  147.9492  136.3560  154.4403 H   0  0  0  0  0  0  0  0  0  0  0  0
  146.3729  136.0407  153.7212 H   0  0  0  0  0  0  0  0  0  0  0  0
  146.8791  138.6057  151.6214 H   0  0  0  0  0  0  0  0  0  0  0  0
  145.4743  139.0661  152.5991 H   0  0  0  0  0  0  0  0  0  0  0  0
  145.7077  137.3886  152.1175 H   0  0  0  0  0  0  0  0  0  0  0  0
  148.6704  137.9362  155.8213 H   0  0  0  0  0  0  0  0  0  0  0  0
  149.8739  139.8553  156.7955 H   0  0  0  0  0  0  0  0  0  0  0  0
  149.4010  143.2780  155.7922 H   0  0  0  0  0  0  0  0  0  0  0  0
  150.7002  144.3418  156.7910 H   0  0  0  0  0  0  0  0  0  0  0  0
  153.2788  143.5707  157.5772 H   0  0  0  0  0  0  0  0  0  0  0  0
  152.3856  144.9535  158.1582 H   0  0  0  0  0  0  0  0  0  0  0  0
  151.2671  142.6109  159.4395 H   0  0  0  0  0  0  0  0  0  0  0  0
  152.7392  145.0662  160.3876 H   0  0  0  0  0  0  0  0  0  0  0  0
  151.1137  144.5330  160.7842 H   0  0  0  0  0  0  0  0  0  0  0  0
  153.5426  144.0227  162.2371 H   0  0  0  0  0  0  0  0  0  0  0  0
  151.9752  143.3182  162.6045 H   0  0  0  0  0  0  0  0  0  0  0  0
  154.1473  141.7806  161.7708 H   0  0  0  0  0  0  0  0  0  0  0  0
  152.4643  141.3312  161.5222 H   0  0  0  0  0  0  0  0  0  0  0  0
  154.3012  142.7484  159.5580 H   0  0  0  0  0  0  0  0  0  0  0  0
  152.6954  140.4580  159.6018 H   0  0  0  0  0  0  0  0  0  0  0  0
  148.0195  142.3518  153.7818 H   0  0  0  0  0  0  0  0  0  0  0  0
  1  2  1  0  0  0  0
  1 21  1  0  0  0  0
  1 22  1  0  0  0  0
  1 23  1  0  0  0  0
  2  3  1  0  0  0  0
  2  4  1  0  0  0  0
  3 24  1  0  0  0  0
  3 25  1  0  0  0  0
  3 26  1  0  0  0  0
  4 20  1  0  0  0  0
  4  5  2  0  0  0  0
  5  6  1  0  0  0  0
  5 27  1  0  0  0  0
  6  7  2  0  0  0  0
  6 28  1  0  0  0  0
  7  8  1  0  0  0  0
  7 19  1  0  0  0  0
  8  9  1  0  0  0  0
  8 29  1  0  0  0  0
  9 10  2  0  0  0  0
  9 11  1  0  0  0  0
 11 12  1  0  0  0  0
 11 30  1  0  0  0  0
 12 13  1  0  0  0  0
 12 31  1  0  0  0  0
 12 32  1  0  0  0  0
 13 17  1  0  0  0  0
 13 14  1  0  0  0  0
 13 33  1  0  0  0  0
 14 15  1  0  0  0  0
 14 34  1  0  0  0  0
 14 35  1  0  0  0  0
 15 16  1  0  0  0  0
 15 36  1  0  0  0  0
 15 37  1  0  0  0  0
 16 17  1  0  0  0  0
 16 38  1  0  0  0  0
 16 39  1  0  0  0  0
 17 18  1  0  0  0  0
 17 40  1  0  0  0  0
 18 41  1  0  0  0  0
 19 20  2  0  0  0  0
 19 42  1  0  0  0  0
M  END
> <s_m_source_file>
AV-unprocessed.smi

> <i_m_source_file_index>
694

> <i_lp_mmshare_version>
43012

> <i_f3d_flags>
0

> <s_epik_input>
W0NIM11OKFtDSDNdKWMxW2NIXVtjSF1jKFtjSF1uMSlbTkhdQyg9TylbTkhdW0NIMl1bQ0BASF0yW0NIMl1bQ0gyXVtDSDJdW0NASF0yW09IXQ==

> <s_epik_cmdline>
J2VwaWtfcHl0aG9uJywgJy1waCcsICc3LjAnLCAnLXRuJywgJzgnLCAnLW1hJywgJzIwMCcsICctbWV0YWxfYmluZGluZycsICctaW1hZScsICc8aW5maWxlLm1hZT4nLCAnLW9tYWUnLCAnPG91dGZpbGUubWFlPic=

> <r_lp_tautomer_probability>
1

> <r_epik_Ionization_Penalty>
0.60335

> <r_epik_Ionization_Penalty_Charging>
0

> <r_epik_Ionization_Penalty_Neutral>
0.60335

> <r_epik_State_Penalty>
0.616805

> <r_epik_Charging_Adjusted_Penalty>
0.616805

> <i_epik_Tot_Q>
0

> <i_epik_Tot_abs_Q>
0

> <r_epik_Metal_State_Penalty>
0.301709

> <b_epik_Metal_Only>
0

> <s_lp_Force_Field>
OPLS_2005

> <r_lp_Energy>
26.6001

> <b_lp_Chiralities_Consistent>
1

> <s_lp_Variant>
AV-unprocessed.smi:694-5

> <Gold.Version>
5.8.1

> <Gold.Id.Protein>
6NUR|6NUR_protein|mol2

> <Gold.PLP.Fitness>
43.5326

> <Gold.PLP.PLP>
-40.6993

> <Gold.PLP.part.hbond>
-1.8443

> <Gold.PLP.part.metal>
0.0000

> <Gold.PLP.part.buried>
-5.8930

> <Gold.PLP.part.nonpolar>
-33.9824

> <Gold.PLP.part.repulsive>
0.3372

> <Gold.PLP.ligand.clash>
0.0000

> <Gold.PLP.ligand.torsion>
0.8571

> <Gold.PLP.Chemscore.Hbond>
1.5088

> <Gold.PLP.Chemscore.CHOScore>
0.0000

> <Gold.PLP.Chemscore.Metal>
0.0000

> <Gold.Chemscore.Hbonds>
donor molecule, donor type, donor heavy atom, donor atom, acceptor molecule, acceptor atom, score
      L1  H     8    29       P1  8028  1.00
      L1  H    11    30       P1  8028  0.58

> <Gold.PLP.Chemscore.Internal.Correction>
0.0211

> <Gold.Rescore>
     Score         DG    S(hbond)    S(metal)    S(lipo)     H(rot)  DE(clash)    DE(int)     intcor
     16.47     -18.75       1.76        0.00     100.89       1.73       0.10       2.17       ----

> <Gold.Chemscore.Fitness>
16.4740

> <Gold.Chemscore.DG>
-18.7469

> <Gold.Chemscore.ZeroCoef>
-5.4800

> <Gold.Chemscore.Hbond>
1.7608

> <Gold.Chemscore.Metal>
0.0000

> <Gold.Chemscore.Lipo>
100.8892

> <Gold.Chemscore.Internal_Hbond>
0.0000

> <Gold.Chemscore.DEClash>
0.1000

> <Gold.Chemscore.DEInternal>
2.1729

> <Gold.Chemscore.Rot>
1.7259

> <Gold.Chemscore.Internal.Correction>
   9.000000E+99

> <Gold.Chemscore.Hbonds>
donor molecule, donor type, donor heavy atom, donor atom, acceptor molecule, acceptor atom, score
      L1  H     8    29       P1  8028  0.93
      L1  H    11    30       P1  8028  0.58

> <Gold.Chemscore.Hbond.Weighted>
-5.8812

> <Gold.Chemscore.Metal.Weighted>
-0.0000

> <Gold.Chemscore.Lipo.Weighted>
-11.8040

> <Gold.Chemscore.Internal_Hbond.Weighted>
0.0000

> <Gold.Chemscore.DEClash.Weighted>
0.1000

> <Gold.Chemscore.DEInternal.Weighted>
2.1729

> <Gold.Chemscore.Rot.Weighted>
4.4184

> <Gold.Chemscore.Internal.Correction.Weighted>
   9.000000E+99

> <Gold.Protein.RotatedTorsions>
[ 6907 6896 6895 6894 ] final -150.03 input  -60.11 | X-H torsion
[ 7974 7965 7964 7962 ] final  138.84 input  175.53 | X-H torsion
[ 8008 7997 7996 7995 ] final  -93.54 input   59.86 | X-H torsion
[ 10167 10162 10161 10158 ] final   61.35 input  -65.29 | X-H torsion
[ 10718 10713 10712 10709 ] final -144.06 input   66.30 | X-H torsion
[ 10763 10752 10751 10750 ] final  126.93 input  -60.55 | X-H torsion
[ 11005 11000 10999 10996 ] final   91.38 input  -57.11 | X-H torsion

> <Gold.Protein.ActiveResidues>
 VAL166  LYS551  ARG553  GLY616  TRP617  ASP618  TYR619  PRO620  LYS621  CYS622 
 ASP623  PHE694  ASN695  SER759  ASP760  ASP761  ALA762  ILE779  LEU786  VAL792 
 PHE793  MET794  SER795  GLU796  ALA797  LYS798  CYS799  TRP800  GLU811  SER814 

> <Gold.Protein.RotatedAtoms>
  151.1926  133.4658  159.2594 H   0  0  0  0  0  0  0  0  0  0  0  0  # atno 6907 bound_to 6896
  151.1148  135.0047  159.8521 H   0  0  0  0  0  0  0  0  0  0  0  0  # atno 6908 bound_to 6896
  152.5452  134.1842  159.8701 H   0  0  0  0  0  0  0  0  0  0  0  0  # atno 6909 bound_to 6896
  144.9335  139.5018  143.5606 H   0  0  0  0  0  0  0  0  0  0  0  0  # atno 7974 bound_to 7965
  154.7370  140.0498  157.0777 H   0  0  0  0  0  0  0  0  0  0  0  0  # atno 8008 bound_to 7997
  155.0227  140.3149  155.4768 H   0  0  0  0  0  0  0  0  0  0  0  0  # atno 8009 bound_to 7997
  156.2855  140.2164  156.5346 H   0  0  0  0  0  0  0  0  0  0  0  0  # atno 8010 bound_to 7997
  140.1557  144.4419  150.6735 H   0  0  0  0  0  0  0  0  0  0  0  0  # atno 10167 bound_to 10162
  156.3655  130.7760  151.1934 H   0  0  0  0  0  0  0  0  0  0  0  0  # atno 10718 bound_to 10713
  153.7013  135.3283  155.3225 H   0  0  0  0  0  0  0  0  0  0  0  0  # atno 10763 bound_to 10752
  154.8412  135.4455  154.1408 H   0  0  0  0  0  0  0  0  0  0  0  0  # atno 10764 bound_to 10752
  153.2476  135.6978  153.7792 H   0  0  0  0  0  0  0  0  0  0  0  0  # atno 10765 bound_to 10752
  139.8840  134.8670  156.3420 H   0  0  0  0  0  0  0  0  0  0  0  0  # atno 11005 bound_to 11000
  146.3257  139.8302  142.8910 LP  0  0  0  0  0  0  0  0  0  0  0  0  # atno 17320 bound_to 7965
  145.3104  141.0218  143.3558 LP  0  0  0  0  0  0  0  0  0  0  0  0  # atno 17321 bound_to 7965
  140.6674  143.2273  151.5708 LP  0  0  0  0  0  0  0  0  0  0  0  0  # atno 17342 bound_to 10162
  139.5404  144.2662  152.1340 LP  0  0  0  0  0  0  0  0  0  0  0  0  # atno 17343 bound_to 10162
  157.7478  131.0387  150.4518 LP  0  0  0  0  0  0  0  0  0  0  0  0  # atno 17370 bound_to 10713
  156.4736  130.4058  149.6503 LP  0  0  0  0  0  0  0  0  0  0  0  0  # atno 17371 bound_to 10713
  140.9652  133.7362  156.0457 LP  0  0  0  0  0  0  0  0  0  0  0  0  # atno 17394 bound_to 11000
  140.7939  134.3585  157.5457 LP  0  0  0  0  0  0  0  0  0  0  0  0  # atno 17395 bound_to 11000

$$$$
