AV-unprocessed.smi:3162|AV-procd|sdf|12070|dock7
  -GOLD-   2272017503D 1   1.00000     0.00000
 Structure written by MMmdl.
 36 36  0  0  0  0  0  0  0  0  1 V2000
  147.7277  141.3175  153.8339 C   0  0  0  0  0  0  0  0  0  0  0  0
  149.2062  141.0931  154.1885 C   0  0  0  0  0  0  0  0  0  0  0  0
  149.4574  139.9127  155.1526 C   0  0  1  0  0  0  0  0  0  0  0  0
  148.7857  140.1828  156.4388 N   0  0  0  0  0  0  0  0  0  0  0  0
  149.6092  140.8070  157.4725 C   0  0  1  0  0  0  0  0  0  0  0  0
  150.4987  139.7090  158.0794 C   0  0  0  0  0  0  0  0  0  0  0  0
  150.4312  141.9630  156.8585 C   0  0  0  0  0  0  0  0  0  0  0  0
  151.1423  142.7382  157.8583 N   0  0  0  0  0  0  0  0  0  0  0  0
  150.8749  144.0147  158.3048 C   0  0  0  0  0  0  0  0  0  0  0  0
  151.8091  144.3227  159.2528 C   0  0  0  0  0  0  0  0  0  0  0  0
  151.9613  145.5916  160.0412 C   0  0  0  0  0  0  0  0  0  0  0  0
  152.6118  143.1485  159.3194 C   0  0  0  0  0  0  0  0  0  0  0  0
  152.2095  142.2019  158.4874 N   0  0  0  0  0  0  0  0  0  0  0  0
  149.0426  138.5672  154.5286 C   0  0  0  0  0  0  0  0  0  0  0  0
  148.8446  138.5406  153.2084 N   0  0  0  0  0  0  0  0  0  0  0  0
  148.9231  137.5624  155.2274 O   0  0  0  0  0  0  0  0  0  0  0  0
  147.6250  142.1174  153.1006 H   0  0  0  0  0  0  0  0  0  0  0  0
  147.1398  141.5984  154.7080 H   0  0  0  0  0  0  0  0  0  0  0  0
  147.2856  140.4174  153.4059 H   0  0  0  0  0  0  0  0  0  0  0  0
  149.7500  140.9121  153.2602 H   0  0  0  0  0  0  0  0  0  0  0  0
  149.6233  142.0131  154.6009 H   0  0  0  0  0  0  0  0  0  0  0  0
  150.5310  139.8793  155.3482 H   0  0  0  0  0  0  0  0  0  0  0  0
  148.3188  139.3652  156.8043 H   0  0  0  0  0  0  0  0  0  0  0  0
  148.9774  141.1897  158.2757 H   0  0  0  0  0  0  0  0  0  0  0  0
  151.0982  140.0929  158.9052 H   0  0  0  0  0  0  0  0  0  0  0  0
  151.1823  139.2937  157.3382 H   0  0  0  0  0  0  0  0  0  0  0  0
  149.8969  138.8896  158.4740 H   0  0  0  0  0  0  0  0  0  0  0  0
  151.1599  141.5709  156.1476 H   0  0  0  0  0  0  0  0  0  0  0  0
  149.7943  142.6473  156.2983 H   0  0  0  0  0  0  0  0  0  0  0  0
  150.0519  144.5939  157.9125 H   0  0  0  0  0  0  0  0  0  0  0  0
  152.7904  145.5340  160.7469 H   0  0  0  0  0  0  0  0  0  0  0  0
  151.0639  145.8163  160.6180 H   0  0  0  0  0  0  0  0  0  0  0  0
  152.1503  146.4473  159.3927 H   0  0  0  0  0  0  0  0  0  0  0  0
  153.4705  142.9573  159.9458 H   0  0  0  0  0  0  0  0  0  0  0  0
  148.5693  137.6805  152.7572 H   0  0  0  0  0  0  0  0  0  0  0  0
  148.9691  139.3833  152.6662 H   0  0  0  0  0  0  0  0  0  0  0  0
  1  2  1  0  0  0  0
  1 17  1  0  0  0  0
  1 18  1  0  0  0  0
  1 19  1  0  0  0  0
  2  3  1  0  0  0  0
  2 20  1  0  0  0  0
  2 21  1  0  0  0  0
  3  4  1  0  0  0  0
  3 14  1  0  0  0  0
  3 22  1  0  0  0  0
  4  5  1  0  0  0  0
  4 23  1  0  0  0  0
  5  6  1  0  0  0  0
  5  7  1  0  0  0  0
  5 24  1  0  0  0  0
  6 25  1  0  0  0  0
  6 26  1  0  0  0  0
  6 27  1  0  0  0  0
  7  8  1  0  0  0  0
  7 28  1  0  0  0  0
  7 29  1  0  0  0  0
  8 13  1  0  0  0  0
  8  9  1  0  0  0  0
  9 10  2  0  0  0  0
  9 30  1  0  0  0  0
 10 11  1  0  0  0  0
 10 12  1  0  0  0  0
 11 31  1  0  0  0  0
 11 32  1  0  0  0  0
 11 33  1  0  0  0  0
 12 13  2  0  0  0  0
 12 34  1  0  0  0  0
 14 15  1  0  0  0  0
 14 16  2  0  0  0  0
 15 35  1  0  0  0  0
 15 36  1  0  0  0  0
M  END
> <s_m_source_file>
AV-unprocessed.smi

> <i_m_source_file_index>
3162

> <i_lp_mmshare_version>
43012

> <i_f3d_flags>
0

> <s_epik_input>
W0NIM11bQ0gyXVtDQEBIXShDKD1PKVtOSDJdKVtOSF1bQ0BIXShbQ0gzXSlbQ0gyXW4xW2NIXWMoW0NIM10pW2NIXW4x

> <s_epik_cmdline>
J2VwaWtfcHl0aG9uJywgJy1waCcsICc3LjAnLCAnLXRuJywgJzgnLCAnLW1hJywgJzIwMCcsICctbWV0YWxfYmluZGluZycsICctaW1hZScsICc8aW5maWxlLm1hZT4nLCAnLW9tYWUnLCAnPG91dGZpbGUubWFlPic=

> <r_lp_tautomer_probability>
1

> <r_epik_Ionization_Penalty>
1.04167

> <r_epik_Ionization_Penalty_Charging>
0

> <r_epik_Ionization_Penalty_Neutral>
1.04167

> <r_epik_State_Penalty>
1.09367

> <r_epik_Charging_Adjusted_Penalty>
1.09367

> <i_epik_Tot_Q>
0

> <i_epik_Tot_abs_Q>
0

> <r_epik_Metal_State_Penalty>
1.09362

> <b_epik_Metal_Only>
0

> <s_lp_Force_Field>
OPLS_2005

> <r_lp_Energy>
2.92594

> <b_lp_Chiralities_Consistent>
1

> <s_lp_Variant>
AV-unprocessed.smi:3162-8

> <Gold.Version>
5.8.1

> <Gold.Id.Protein>
6NUR|6NUR_protein|mol2

> <Gold.PLP.Fitness>
40.1846

> <Gold.PLP.PLP>
-33.5040

> <Gold.PLP.part.hbond>
-2.0000

> <Gold.PLP.part.metal>
0.0000

> <Gold.PLP.part.buried>
-3.3993

> <Gold.PLP.part.nonpolar>
-28.8027

> <Gold.PLP.part.repulsive>
0.1787

> <Gold.PLP.ligand.clash>
0.0000

> <Gold.PLP.ligand.torsion>
1.2336

> <Gold.PLP.Chemscore.Hbond>
1.8960

> <Gold.PLP.Chemscore.CHOScore>
1.1136

> <Gold.PLP.Chemscore.Metal>
0.0000

> <Gold.Chemscore.Hbonds>
donor molecule, donor type, donor heavy atom, donor atom, acceptor molecule, acceptor atom, score
      L1  H    15    35       P1  7948  0.99
      L1  H    15    36       P1  7957  0.88
      L1  C     9    30       P1  8028  0.72
      L1  C     9    30       P1  8029  0.38

> <Gold.PLP.Chemscore.Internal.Correction>
0.1188

> <Gold.Rescore>
     Score         DG    S(hbond)    S(metal)    S(lipo)     H(rot)  DE(clash)    DE(int)     intcor
     13.98     -15.50       1.93        0.00      83.66       2.43       0.10       1.41       ----

> <Gold.Chemscore.Fitness>
13.9848

> <Gold.Chemscore.DG>
-15.4974

> <Gold.Chemscore.ZeroCoef>
-5.4800

> <Gold.Chemscore.Hbond>
1.9333

> <Gold.Chemscore.Metal>
0.0000

> <Gold.Chemscore.Lipo>
83.6590

> <Gold.Chemscore.Internal_Hbond>
0.0000

> <Gold.Chemscore.DEClash>
0.0990

> <Gold.Chemscore.DEInternal>
1.4136

> <Gold.Chemscore.Rot>
2.4328

> <Gold.Chemscore.Internal.Correction>
   9.000000E+99

> <Gold.Chemscore.Hbonds>
donor molecule, donor type, donor heavy atom, donor atom, acceptor molecule, acceptor atom, score
      L1  H    15    35       P1  7948  0.94
      L1  H    15    36       P1  7957  0.87

> <Gold.Chemscore.Hbond.Weighted>
-6.4573

> <Gold.Chemscore.Metal.Weighted>
-0.0000

> <Gold.Chemscore.Lipo.Weighted>
-9.7881

> <Gold.Chemscore.Internal_Hbond.Weighted>
0.0000

> <Gold.Chemscore.DEClash.Weighted>
0.0990

> <Gold.Chemscore.DEInternal.Weighted>
1.4136

> <Gold.Chemscore.Rot.Weighted>
6.2279

> <Gold.Chemscore.Internal.Correction.Weighted>
   9.000000E+99

> <Gold.Protein.RotatedTorsions>
[ 6907 6896 6895 6894 ] final -158.82 input  -60.11 | X-H torsion
[ 7974 7965 7964 7962 ] final   45.21 input  175.53 | X-H torsion
[ 8008 7997 7996 7995 ] final -164.03 input   59.86 | X-H torsion
[ 10167 10162 10161 10158 ] final   76.85 input  -65.29 | X-H torsion
[ 10718 10713 10712 10709 ] final  -23.18 input   66.30 | X-H torsion
[ 10763 10752 10751 10750 ] final   57.10 input  -60.55 | X-H torsion
[ 11005 11000 10999 10996 ] final  113.16 input  -57.11 | X-H torsion

> <Gold.Protein.ActiveResidues>
 VAL166  LYS551  ARG553  GLY616  TRP617  ASP618  TYR619  PRO620  LYS621  CYS622 
 ASP623  PHE694  ASN695  SER759  ASP760  ASP761  ALA762  ILE779  LEU786  VAL792 
 PHE793  MET794  SER795  GLU796  ALA797  LYS798  CYS799  TRP800  GLU811  SER814 

> <Gold.Protein.RotatedAtoms>
  151.3241  133.4027  159.2656 H   0  0  0  0  0  0  0  0  0  0  0  0  # atno 6907 bound_to 6896
  151.0010  134.9322  159.7964 H   0  0  0  0  0  0  0  0  0  0  0  0  # atno 6908 bound_to 6896
  152.5275  134.3206  159.9199 H   0  0  0  0  0  0  0  0  0  0  0  0  # atno 6909 bound_to 6896
  146.0500  139.4989  142.9724 H   0  0  0  0  0  0  0  0  0  0  0  0  # atno 7974 bound_to 7965
  155.8298  140.0932  157.1799 H   0  0  0  0  0  0  0  0  0  0  0  0  # atno 8008 bound_to 7997
  154.3979  140.1421  156.3661 H   0  0  0  0  0  0  0  0  0  0  0  0  # atno 8009 bound_to 7997
  155.8177  140.3447  155.5498 H   0  0  0  0  0  0  0  0  0  0  0  0  # atno 8010 bound_to 7997
  139.9879  144.5779  150.7843 H   0  0  0  0  0  0  0  0  0  0  0  0  # atno 10167 bound_to 10162
  156.4945  130.4574  149.6736 H   0  0  0  0  0  0  0  0  0  0  0  0  # atno 10718 bound_to 10713
  152.9843  135.5653  154.5336 H   0  0  0  0  0  0  0  0  0  0  0  0  # atno 10763 bound_to 10752
  154.4803  135.2788  155.1577 H   0  0  0  0  0  0  0  0  0  0  0  0  # atno 10764 bound_to 10752
  154.3089  135.6292  153.5510 H   0  0  0  0  0  0  0  0  0  0  0  0  # atno 10765 bound_to 10752
  139.8945  134.9544  156.6696 H   0  0  0  0  0  0  0  0  0  0  0  0  # atno 11005 bound_to 11000
  145.6740  141.0209  143.1642 LP  0  0  0  0  0  0  0  0  0  0  0  0  # atno 17320 bound_to 7965
  144.7118  139.8344  143.7412 LP  0  0  0  0  0  0  0  0  0  0  0  0  # atno 17321 bound_to 7965
  140.7465  143.2892  151.3377 LP  0  0  0  0  0  0  0  0  0  0  0  0  # atno 17342 bound_to 10162
  139.6362  144.0627  152.2517 LP  0  0  0  0  0  0  0  0  0  0  0  0  # atno 17343 bound_to 10162
  156.3393  130.7373  151.2316 LP  0  0  0  0  0  0  0  0  0  0  0  0  # atno 17370 bound_to 10713
  157.7470  131.0408  150.4615 LP  0  0  0  0  0  0  0  0  0  0  0  0  # atno 17371 bound_to 10713
  140.7384  133.8999  155.8260 LP  0  0  0  0  0  0  0  0  0  0  0  0  # atno 17394 bound_to 11000
  141.0098  134.1037  157.4233 LP  0  0  0  0  0  0  0  0  0  0  0  0  # atno 17395 bound_to 11000

$$$$
