AV-unprocessed.smi:183|AV-procd|sdf|1460|dock4
  -GOLD-   2262019273D 1   1.00000     0.00000
 Structure written by MMmdl.
 55 57  0  0  0  0  0  0  0  0  1 V2000
  154.1224  133.5942  160.4060 C   0  0  0  0  0  0  0  0  0  0  0  0
  152.8225  134.3635  160.6124 C   0  0  0  0  0  0  0  0  0  0  0  0
  152.8156  135.5929  160.5490 O   0  0  0  0  0  0  0  0  0  0  0  0
  151.7275  133.6268  160.8573 N   0  0  0  0  0  0  0  0  0  0  0  0
  150.3972  134.1765  161.0839 C   0  0  0  0  0  0  0  0  0  0  0  0
  149.3089  133.2940  160.4381 C   0  0  0  0  0  0  0  0  0  0  0  0
  147.9788  133.9107  160.4374 N   0  0  0  0  0  0  0  0  0  0  0  0
  147.7544  134.5866  159.2827 C   0  0  0  0  0  0  0  0  0  0  0  0
  146.6671  134.2217  158.5573 N   0  0  0  0  0  0  0  0  0  0  0  0
  146.4063  134.8189  157.3913 C   0  0  0  0  0  0  0  0  0  0  0  0
  147.0970  135.7777  156.7720 N   0  0  0  0  0  0  0  0  0  0  0  0
  148.1971  136.1405  157.4915 C   0  0  0  0  0  0  0  0  0  0  0  0
  148.5927  135.6100  158.7521 C   0  0  0  0  0  0  0  0  0  0  0  0
  149.7608  136.2314  159.1788 N   0  0  0  0  0  0  0  0  0  0  0  0
  150.0411  137.0757  158.2248 C   0  0  0  0  0  0  0  0  0  0  0  0
  149.1655  137.0728  157.1629 N   0  0  0  0  0  0  0  0  0  0  0  0
  149.2506  137.8910  155.9638 C   0  0  0  0  0  0  0  0  0  0  0  0
  150.6157  137.7908  155.2271 C   0  0  2  0  0  0  0  0  0  0  0  0
  150.9164  136.4334  154.9633 O   0  0  0  0  0  0  0  0  0  0  0  0
  151.7799  138.4133  155.9891 C   0  0  0  0  0  0  0  0  0  0  0  0
  151.6576  139.8915  155.6320 C   0  0  0  0  0  0  0  0  0  0  0  0
  151.0795  139.9269  154.3302 O   0  0  0  0  0  0  0  0  0  0  0  0
  150.6892  138.6161  153.9282 C   0  0  2  0  0  0  0  0  0  0  0  0
  149.4183  138.6649  153.0672 C   0  0  0  0  0  0  0  0  0  0  0  0
  147.4216  134.4578  161.6860 C   0  0  0  0  0  0  0  0  0  0  0  0
  147.3692  133.3942  162.7997 C   0  0  0  0  0  0  0  0  0  0  0  0
  146.0043  135.0417  161.4965 C   0  0  0  0  0  0  0  0  0  0  0  0
  154.0560  132.9682  159.5158 H   0  0  0  0  0  0  0  0  0  0  0  0
  154.3291  132.9553  161.2650 H   0  0  0  0  0  0  0  0  0  0  0  0
  154.9620  134.2791  160.2805 H   0  0  0  0  0  0  0  0  0  0  0  0
  151.8227  132.6220  160.8903 H   0  0  0  0  0  0  0  0  0  0  0  0
  150.2269  134.2633  162.1570 H   0  0  0  0  0  0  0  0  0  0  0  0
  150.3711  135.1920  160.6898 H   0  0  0  0  0  0  0  0  0  0  0  0
  149.5919  133.0642  159.4093 H   0  0  0  0  0  0  0  0  0  0  0  0
  149.2663  132.3265  160.9377 H   0  0  0  0  0  0  0  0  0  0  0  0
  145.5212  134.4745  156.8774 H   0  0  0  0  0  0  0  0  0  0  0  0
  150.9097  137.7170  158.2614 H   0  0  0  0  0  0  0  0  0  0  0  0
  148.4374  137.5961  155.2995 H   0  0  0  0  0  0  0  0  0  0  0  0
  149.0488  138.9241  156.2492 H   0  0  0  0  0  0  0  0  0  0  0  0
  151.6171  136.3977  154.3307 H   0  0  0  0  0  0  0  0  0  0  0  0
  151.7796  138.2282  157.0624 H   0  0  0  0  0  0  0  0  0  0  0  0
  152.7284  138.0371  155.6013 H   0  0  0  0  0  0  0  0  0  0  0  0
  150.9882  140.4009  156.3260 H   0  0  0  0  0  0  0  0  0  0  0  0
  152.6202  140.4029  155.6539 H   0  0  0  0  0  0  0  0  0  0  0  0
  151.5069  138.2330  153.3143 H   0  0  0  0  0  0  0  0  0  0  0  0
  149.0985  137.6616  152.7845 H   0  0  0  0  0  0  0  0  0  0  0  0
  149.5965  139.2267  152.1503 H   0  0  0  0  0  0  0  0  0  0  0  0
  148.5932  139.1488  153.5898 H   0  0  0  0  0  0  0  0  0  0  0  0
  148.0770  135.2585  162.0284 H   0  0  0  0  0  0  0  0  0  0  0  0
  146.9193  133.7989  163.7065 H   0  0  0  0  0  0  0  0  0  0  0  0
  148.3625  133.0413  163.0753 H   0  0  0  0  0  0  0  0  0  0  0  0
  146.7778  132.5302  162.4948 H   0  0  0  0  0  0  0  0  0  0  0  0
  145.6020  135.4024  162.4434 H   0  0  0  0  0  0  0  0  0  0  0  0
  145.3160  134.2886  161.1118 H   0  0  0  0  0  0  0  0  0  0  0  0
  145.9878  135.8879  160.8106 H   0  0  0  0  0  0  0  0  0  0  0  0
  1  2  1  0  0  0  0
  1 28  1  0  0  0  0
  1 29  1  0  0  0  0
  1 30  1  0  0  0  0
  2  3  2  0  0  0  0
  2  4  1  0  0  0  0
  4  5  1  0  0  0  0
  4 31  1  0  0  0  0
  5  6  1  0  0  0  0
  5 32  1  0  0  0  0
  5 33  1  0  0  0  0
  6  7  1  0  0  0  0
  6 34  1  0  0  0  0
  6 35  1  0  0  0  0
  7  8  1  0  0  0  0
  7 25  1  0  0  0  0
  8 13  1  0  0  0  0
  8  9  2  0  0  0  0
  9 10  1  0  0  0  0
 10 11  2  0  0  0  0
 10 36  1  0  0  0  0
 11 12  1  0  0  0  0
 12 16  1  0  0  0  0
 12 13  2  0  0  0  0
 13 14  1  0  0  0  0
 14 15  2  0  0  0  0
 15 16  1  0  0  0  0
 15 37  1  0  0  0  0
 16 17  1  0  0  0  0
 17 18  1  0  0  0  0
 17 38  1  0  0  0  0
 17 39  1  0  0  0  0
 18 23  1  0  0  0  0
 18 19  1  0  0  0  0
 18 20  1  0  0  0  0
 19 40  1  0  0  0  0
 20 21  1  0  0  0  0
 20 41  1  0  0  0  0
 20 42  1  0  0  0  0
 21 22  1  0  0  0  0
 21 43  1  0  0  0  0
 21 44  1  0  0  0  0
 22 23  1  0  0  0  0
 23 24  1  0  0  0  0
 23 45  1  0  0  0  0
 24 46  1  0  0  0  0
 24 47  1  0  0  0  0
 24 48  1  0  0  0  0
 25 26  1  0  0  0  0
 25 27  1  0  0  0  0
 25 49  1  0  0  0  0
 26 50  1  0  0  0  0
 26 51  1  0  0  0  0
 26 52  1  0  0  0  0
 27 53  1  0  0  0  0
 27 54  1  0  0  0  0
 27 55  1  0  0  0  0
M  END
> <s_m_source_file>
AV-unprocessed.smi

> <i_m_source_file_index>
183

> <i_lp_mmshare_version>
43012

> <i_f3d_flags>
0

> <s_epik_input>
W0NIM11DKD1PKVtOSF1bQ0gyXVtDSDJdTihbQ0hdKFtDSDNdKVtDSDNdKWMobltjSF1uMSljKGMxMiluW2NIXW4yW0NIMl1bQ0BAXTMoW09IXSlbQ0gyXVtDSDJdT1tDQEhdM1tDSDNd

> <s_epik_cmdline>
J2VwaWtfcHl0aG9uJywgJy1waCcsICc3LjAnLCAnLXRuJywgJzgnLCAnLW1hJywgJzIwMCcsICctbWV0YWxfYmluZGluZycsICctaW1hZScsICc8aW5maWxlLm1hZT4nLCAnLW9tYWUnLCAnPG91dGZpbGUubWFlPic=

> <r_lp_tautomer_probability>
1

> <r_epik_Ionization_Penalty>
0.00156158

> <r_epik_Ionization_Penalty_Charging>
0

> <r_epik_Ionization_Penalty_Neutral>
0.00156158

> <r_epik_State_Penalty>
0.000865808

> <r_epik_Charging_Adjusted_Penalty>
0.000865808

> <i_epik_Tot_Q>
0

> <i_epik_Tot_abs_Q>
0

> <r_epik_Metal_State_Penalty>
-0

> <b_epik_Metal_Only>
0

> <s_lp_Force_Field>
OPLS_2005

> <r_lp_Energy>
30.6117

> <b_lp_Chiralities_Consistent>
1

> <s_lp_Variant>
AV-unprocessed.smi:183-4

> <Gold.Version>
5.8.1

> <Gold.Id.Protein>
6NUR|6NUR_protein|mol2

> <Gold.PLP.Fitness>
41.1995

> <Gold.PLP.PLP>
-30.3260

> <Gold.PLP.part.hbond>
-4.0000

> <Gold.PLP.part.metal>
0.0000

> <Gold.PLP.part.buried>
-2.8570

> <Gold.PLP.part.nonpolar>
-23.6173

> <Gold.PLP.part.repulsive>
0.1624

> <Gold.PLP.ligand.clash>
0.0000

> <Gold.PLP.ligand.torsion>
1.0665

> <Gold.PLP.Chemscore.Hbond>
3.9913

> <Gold.PLP.Chemscore.CHOScore>
0.0000

> <Gold.PLP.Chemscore.Metal>
0.0000

> <Gold.Chemscore.Hbonds>
donor molecule, donor type, donor heavy atom, donor atom, acceptor molecule, acceptor atom, score
      P1  H  6896  6907       L1    14  1.00
      P1  H  7989  7998       L1    22  0.60

> <Gold.PLP.Chemscore.Internal.Correction>
1.0328

> <Gold.Rescore>
     Score         DG    S(hbond)    S(metal)    S(lipo)     H(rot)  DE(clash)    DE(int)     intcor
     14.46     -16.15       3.34        0.00      71.29       3.45       0.34       1.35       ----

> <Gold.Chemscore.Fitness>
14.4584

> <Gold.Chemscore.DG>
-16.1482

> <Gold.Chemscore.ZeroCoef>
-5.4800

> <Gold.Chemscore.Hbond>
3.3373

> <Gold.Chemscore.Metal>
0.0000

> <Gold.Chemscore.Lipo>
71.2921

> <Gold.Chemscore.Internal_Hbond>
0.0000

> <Gold.Chemscore.DEClash>
0.3399

> <Gold.Chemscore.DEInternal>
1.3500

> <Gold.Chemscore.Rot>
3.4451

> <Gold.Chemscore.Internal.Correction>
   9.000000E+99

> <Gold.Chemscore.Hbonds>
donor molecule, donor type, donor heavy atom, donor atom, acceptor molecule, acceptor atom, score
      P1  H  6896  6907       L1    14  0.40
      P1  H  7989  7998       L1    22  0.53

> <Gold.Chemscore.Hbond.Weighted>
-11.1465

> <Gold.Chemscore.Metal.Weighted>
-0.0000

> <Gold.Chemscore.Lipo.Weighted>
-8.3412

> <Gold.Chemscore.Internal_Hbond.Weighted>
0.0000

> <Gold.Chemscore.DEClash.Weighted>
0.3399

> <Gold.Chemscore.DEInternal.Weighted>
1.3500

> <Gold.Chemscore.Rot.Weighted>
8.8194

> <Gold.Chemscore.Internal.Correction.Weighted>
   9.000000E+99

> <Gold.Protein.RotatedTorsions>
[ 6907 6896 6895 6894 ] final  -52.42 input  -60.11 | X-H torsion
[ 7974 7965 7964 7962 ] final  141.84 input  175.53 | X-H torsion
[ 8008 7997 7996 7995 ] final  -71.99 input   59.86 | X-H torsion
[ 10167 10162 10161 10158 ] final  169.35 input  -65.29 | X-H torsion
[ 10718 10713 10712 10709 ] final  115.11 input   66.30 | X-H torsion
[ 10763 10752 10751 10750 ] final   73.70 input  -60.55 | X-H torsion
[ 11005 11000 10999 10996 ] final -166.08 input  -57.11 | X-H torsion

> <Gold.Protein.ActiveResidues>
 VAL166  LYS551  ARG553  GLY616  TRP617  ASP618  TYR619  PRO620  LYS621  CYS622 
 ASP623  PHE694  ASN695  SER759  ASP760  ASP761  ALA762  ILE779  LEU786  VAL792 
 PHE793  MET794  SER795  GLU796  ALA797  LYS798  CYS799  TRP800  GLU811  SER814 

> <Gold.Protein.RotatedAtoms>
  150.8519  134.7847  159.7015 H   0  0  0  0  0  0  0  0  0  0  0  0  # atno 6907 bound_to 6896
  152.4582  134.5242  159.9801 H   0  0  0  0  0  0  0  0  0  0  0  0  # atno 6908 bound_to 6896
  151.5361  133.3402  159.2962 H   0  0  0  0  0  0  0  0  0  0  0  0  # atno 6909 bound_to 6896
  144.9060  139.5357  143.5731 H   0  0  0  0  0  0  0  0  0  0  0  0  # atno 7974 bound_to 7965
  154.5131  140.0805  156.8028 H   0  0  0  0  0  0  0  0  0  0  0  0  # atno 8008 bound_to 7997
  155.3741  140.3424  155.4226 H   0  0  0  0  0  0  0  0  0  0  0  0  # atno 8009 bound_to 7997
  156.1596  140.1584  156.8621 H   0  0  0  0  0  0  0  0  0  0  0  0  # atno 8010 bound_to 7997
  139.4990  144.3716  151.9719 H   0  0  0  0  0  0  0  0  0  0  0  0  # atno 10167 bound_to 10162
  157.6241  131.1008  150.7283 H   0  0  0  0  0  0  0  0  0  0  0  0  # atno 10718 bound_to 10713
  153.0538  135.5053  154.7932 H   0  0  0  0  0  0  0  0  0  0  0  0  # atno 10763 bound_to 10752
  154.6774  135.2962  154.9663 H   0  0  0  0  0  0  0  0  0  0  0  0  # atno 10764 bound_to 10752
  154.0460  135.6710  153.4848 H   0  0  0  0  0  0  0  0  0  0  0  0  # atno 10765 bound_to 10752
  140.5685  134.5262  157.5157 H   0  0  0  0  0  0  0  0  0  0  0  0  # atno 11005 bound_to 11000
  146.3134  139.7829  142.9002 LP  0  0  0  0  0  0  0  0  0  0  0  0  # atno 17320 bound_to 7965
  145.3534  141.0312  143.3325 LP  0  0  0  0  0  0  0  0  0  0  0  0  # atno 17321 bound_to 7965
  140.3152  144.3492  150.6023 LP  0  0  0  0  0  0  0  0  0  0  0  0  # atno 17342 bound_to 10162
  140.5767  143.2176  151.7502 LP  0  0  0  0  0  0  0  0  0  0  0  0  # atno 17343 bound_to 10162
  156.7634  130.4806  149.5432 LP  0  0  0  0  0  0  0  0  0  0  0  0  # atno 17370 bound_to 10713
  156.1403  130.6240  151.0458 LP  0  0  0  0  0  0  0  0  0  0  0  0  # atno 17371 bound_to 10713
  139.9373  134.7851  156.0769 LP  0  0  0  0  0  0  0  0  0  0  0  0  # atno 17394 bound_to 11000
  141.1071  133.6656  156.2889 LP  0  0  0  0  0  0  0  0  0  0  0  0  # atno 17395 bound_to 11000

$$$$
