AV-unprocessed.smi:2583|AV-procd|sdf|10142|dock7
  -GOLD-   2272014153D 1   1.00000     0.00000
 Structure written by MMmdl.
 54 56  0  0  0  0  0  0  0  0  2 V2000
  153.5078  142.3743  161.6513 C   0  0  0  0  0  0  0  0  0  0  0  0
  152.6984  142.7706  160.4346 C   0  0  0  0  0  0  0  0  0  0  0  0
  152.3609  144.1181  160.1913 C   0  0  0  0  0  0  0  0  0  0  0  0
  151.6319  144.5180  159.1283 N   0  0  0  0  0  0  0  0  0  0  0  0
  151.2141  143.5748  158.2577 C   0  0  0  0  0  0  0  0  0  0  0  0
  151.5048  142.2009  158.3928 C   0  0  0  0  0  0  0  0  0  0  0  0
  150.9857  141.3094  157.4159 N   0  0  0  0  0  0  0  0  0  0  0  0
  149.7783  141.3290  156.8264 C   0  0  0  0  0  0  0  0  0  0  0  0
  148.8734  142.1214  157.0862 O   0  0  0  0  0  0  0  0  0  0  0  0
  149.6699  140.3487  155.9183 N   0  0  0  0  0  0  0  0  0  0  0  0
  148.4970  140.0750  155.0923 C   0  0  2  0  0  0  0  0  0  0  0  0
  148.4217  141.0872  153.9338 C   0  0  0  0  0  0  0  0  0  0  0  0
  147.1018  140.9417  153.1518 C   0  0  0  0  0  0  0  0  0  0  0  0
  145.9125  141.0847  154.0401 N   0  3  2  0  0  0  0  0  0  0  0  0
  145.6510  142.4768  154.5415 C   0  0  0  0  0  0  0  0  0  0  0  0
  144.3165  142.5801  155.3185 C   0  0  0  0  0  0  0  0  0  0  0  0
  143.9891  144.0269  155.7247 C   0  0  0  0  0  0  0  0  0  0  0  0
  143.9140  144.8754  154.5391 N   0  0  0  0  0  0  0  0  0  0  0  0
  143.5279  146.2231  154.9331 C   0  0  0  0  0  0  0  0  0  0  0  0
  145.2199  144.9159  153.8875 C   0  0  0  0  0  0  0  0  0  0  0  0
  145.6066  143.5123  153.3923 C   0  0  0  0  0  0  0  0  0  0  0  0
  145.9574  140.0267  155.0897 C   0  0  0  0  0  0  0  0  0  0  0  0
  147.2250  140.1381  155.9577 C   0  0  0  0  0  0  0  0  0  0  0  0
  152.2588  141.7930  159.5194 C   0  0  0  0  0  0  0  0  0  0  0  0
  153.7984  143.2473  162.2367 H   0  0  0  0  0  0  0  0  0  0  0  0
  154.4144  141.8502  161.3474 H   0  0  0  0  0  0  0  0  0  0  0  0
  152.9258  141.7110  162.2916 H   0  0  0  0  0  0  0  0  0  0  0  0
  152.6772  144.8973  160.8692 H   0  0  0  0  0  0  0  0  0  0  0  0
  150.6304  143.9314  157.4215 H   0  0  0  0  0  0  0  0  0  0  0  0
  151.5907  140.5399  157.1691 H   0  0  0  0  0  0  0  0  0  0  0  0
  150.4673  139.7442  155.7839 H   0  0  0  0  0  0  0  0  0  0  0  0
  148.5562  139.0737  154.6617 H   0  0  0  0  0  0  0  0  0  0  0  0
  148.5189  142.1052  154.3126 H   0  0  0  0  0  0  0  0  0  0  0  0
  149.2643  140.9357  153.2583 H   0  0  0  0  0  0  0  0  0  0  0  0
  147.0706  141.6281  152.3083 H   0  0  0  0  0  0  0  0  0  0  0  0
  147.0689  139.9497  152.6989 H   0  0  0  0  0  0  0  0  0  0  0  0
  146.4529  142.7665  155.2204 H   0  0  0  0  0  0  0  0  0  0  0  0
  143.5004  142.1768  154.7169 H   0  0  0  0  0  0  0  0  0  0  0  0
  144.3527  141.9934  156.2351 H   0  0  0  0  0  0  0  0  0  0  0  0
  143.0323  144.0477  156.2481 H   0  0  0  0  0  0  0  0  0  0  0  0
  144.7413  144.4071  156.4182 H   0  0  0  0  0  0  0  0  0  0  0  0
  143.4593  146.8720  154.0591 H   0  0  0  0  0  0  0  0  0  0  0  0
  144.2478  146.6593  155.6273 H   0  0  0  0  0  0  0  0  0  0  0  0
  142.5498  146.2149  155.4153 H   0  0  0  0  0  0  0  0  0  0  0  0
  145.1817  145.6008  153.0393 H   0  0  0  0  0  0  0  0  0  0  0  0
  145.9765  145.2996  154.5742 H   0  0  0  0  0  0  0  0  0  0  0  0
  146.5787  143.6018  152.9097 H   0  0  0  0  0  0  0  0  0  0  0  0
  144.9017  143.1893  152.6244 H   0  0  0  0  0  0  0  0  0  0  0  0
  145.0607  140.0190  155.7059 H   0  0  0  0  0  0  0  0  0  0  0  0
  145.9557  139.0556  154.5926 H   0  0  0  0  0  0  0  0  0  0  0  0
  147.2385  139.3298  156.6898 H   0  0  0  0  0  0  0  0  0  0  0  0
  147.2020  141.0652  156.5318 H   0  0  0  0  0  0  0  0  0  0  0  0
  152.4920  140.7560  159.7058 H   0  0  0  0  0  0  0  0  0  0  0  0
  145.1130  140.8625  153.4640 H   0  0  0  0  0  0  0  0  0  0  0  0
  1  2  1  0  0  0  0
  1 25  1  0  0  0  0
  1 26  1  0  0  0  0
  1 27  1  0  0  0  0
  2 24  1  0  0  0  0
  2  3  2  0  0  0  0
  3  4  1  0  0  0  0
  3 28  1  0  0  0  0
  4  5  2  0  0  0  0
  5  6  1  0  0  0  0
  5 29  1  0  0  0  0
  6  7  1  0  0  0  0
  6 24  2  0  0  0  0
  7  8  1  0  0  0  0
  7 30  1  0  0  0  0
  8  9  2  0  0  0  0
  8 10  1  0  0  0  0
 10 11  1  0  0  0  0
 10 31  1  0  0  0  0
 11 23  1  0  0  0  0
 11 12  1  0  0  0  0
 11 32  1  0  0  0  0
 12 13  1  0  0  0  0
 12 33  1  0  0  0  0
 12 34  1  0  0  0  0
 13 14  1  0  0  0  0
 13 35  1  0  0  0  0
 13 36  1  0  0  0  0
 14 15  1  0  0  0  0
 14 22  1  0  0  0  0
 14 54  1  0  0  0  0
 15 21  1  0  0  0  0
 15 16  1  0  0  0  0
 15 37  1  0  0  0  0
 16 17  1  0  0  0  0
 16 38  1  0  0  0  0
 16 39  1  0  0  0  0
 17 18  1  0  0  0  0
 17 40  1  0  0  0  0
 17 41  1  0  0  0  0
 18 19  1  0  0  0  0
 18 20  1  0  0  0  0
 19 42  1  0  0  0  0
 19 43  1  0  0  0  0
 19 44  1  0  0  0  0
 20 21  1  0  0  0  0
 20 45  1  0  0  0  0
 20 46  1  0  0  0  0
 21 47  1  0  0  0  0
 21 48  1  0  0  0  0
 22 23  1  0  0  0  0
 22 49  1  0  0  0  0
 22 50  1  0  0  0  0
 23 51  1  0  0  0  0
 23 52  1  0  0  0  0
 24 53  1  0  0  0  0
M  CHG  1  14   1
M  END
> <s_m_source_file>
AV-unprocessed.smi

> <i_m_source_file_index>
2583

> <i_lp_mmshare_version>
43012

> <i_f3d_flags>
0

> <s_epik_input>
W0NIM11jMVtjSF1uW2NIXWMoW2NIXTEpW05IXUMoPU8pW05IXVtDSF0yW0NIMl1bQ0gyXU4oW0NIMl1bQ0gyXTIpW0NIXTNbQ0gyXVtDSDJdTihbQ0gzXSlbQ0gyXVtDSDJdMw==

> <s_epik_cmdline>
J2VwaWtfcHl0aG9uJywgJy1waCcsICc3LjAnLCAnLXRuJywgJzgnLCAnLW1hJywgJzIwMCcsICctbWV0YWxfYmluZGluZycsICctaW1hZScsICc8aW5maWxlLm1hZT4nLCAnLW9tYWUnLCAnPG91dGZpbGUubWFlPic=

> <r_epik_Ionization_Penalty>
1.38006

> <r_epik_Ionization_Penalty_Charging>
0.00081195

> <r_epik_Ionization_Penalty_Neutral>
1.37925

> <r_epik_State_Penalty>
1.55585

> <r_epik_Charging_Adjusted_Penalty>
1.55666

> <i_epik_Tot_Q>
1

> <i_epik_Tot_abs_Q>
1

> <r_epik_Metal_State_Penalty>
1.55173

> <b_epik_Metal_Only>
0

> <s_lp_Force_Field>
OPLS_2005

> <r_lp_Energy>
35.4229

> <b_lp_Chiralities_Consistent>
1

> <s_lp_Variant>
AV-unprocessed.smi:2583-8

> <Gold.Version>
5.8.1

> <Gold.Id.Protein>
6NUR|6NUR_protein|mol2

> <Gold.PLP.Fitness>
46.5741

> <Gold.PLP.PLP>
-39.1606

> <Gold.PLP.part.hbond>
-1.0000

> <Gold.PLP.part.metal>
0.0000

> <Gold.PLP.part.buried>
-8.2944

> <Gold.PLP.part.nonpolar>
-31.5445

> <Gold.PLP.part.repulsive>
1.3168

> <Gold.PLP.ligand.clash>
0.0000

> <Gold.PLP.ligand.torsion>
0.5599

> <Gold.PLP.Chemscore.Hbond>
2.0000

> <Gold.PLP.Chemscore.CHOScore>
0.8303

> <Gold.PLP.Chemscore.Metal>
0.0000

> <Gold.Chemscore.Hbonds>
donor molecule, donor type, donor heavy atom, donor atom, acceptor molecule, acceptor atom, score
      L1  H    14    54       P1 10175  2.00
      L1  C     5    29       P1  8028  0.88

> <Gold.PLP.Chemscore.Internal.Correction>
0.0421

> <Gold.Rescore>
     Score         DG    S(hbond)    S(metal)    S(lipo)     H(rot)  DE(clash)    DE(int)     intcor
     14.93     -19.26       0.97        0.00     116.21       1.19       1.36       2.97       ----

> <Gold.Chemscore.Fitness>
14.9333

> <Gold.Chemscore.DG>
-19.2626

> <Gold.Chemscore.ZeroCoef>
-5.4800

> <Gold.Chemscore.Hbond>
0.9687

> <Gold.Chemscore.Metal>
0.0000

> <Gold.Chemscore.Lipo>
116.2072

> <Gold.Chemscore.Internal_Hbond>
0.0000

> <Gold.Chemscore.DEClash>
1.3619

> <Gold.Chemscore.DEInternal>
2.9675

> <Gold.Chemscore.Rot>
1.1910

> <Gold.Chemscore.Internal.Correction>
   9.000000E+99

> <Gold.Chemscore.Hbonds>
donor molecule, donor type, donor heavy atom, donor atom, acceptor molecule, acceptor atom, score
      L1  H    14    54       P1 10175  0.78

> <Gold.Chemscore.Hbond.Weighted>
-3.2353

> <Gold.Chemscore.Metal.Weighted>
-0.0000

> <Gold.Chemscore.Lipo.Weighted>
-13.5962

> <Gold.Chemscore.Internal_Hbond.Weighted>
0.0000

> <Gold.Chemscore.DEClash.Weighted>
1.3619

> <Gold.Chemscore.DEInternal.Weighted>
2.9675

> <Gold.Chemscore.Rot.Weighted>
3.0489

> <Gold.Chemscore.Internal.Correction.Weighted>
   9.000000E+99

> <Gold.Protein.RotatedTorsions>
[ 6907 6896 6895 6894 ] final    1.52 input  -60.11 | X-H torsion
[ 7974 7965 7964 7962 ] final   79.66 input  175.53 | X-H torsion
[ 8008 7997 7996 7995 ] final  118.10 input   59.86 | X-H torsion
[ 10167 10162 10161 10158 ] final  155.57 input  -65.29 | X-H torsion
[ 10718 10713 10712 10709 ] final  -18.94 input   66.30 | X-H torsion
[ 10763 10752 10751 10750 ] final    8.93 input  -60.55 | X-H torsion
[ 11005 11000 10999 10996 ] final  131.64 input  -57.11 | X-H torsion

> <Gold.Protein.ActiveResidues>
 VAL166  LYS551  ARG553  GLY616  TRP617  ASP618  TYR619  PRO620  LYS621  CYS622 
 ASP623  PHE694  ASN695  SER759  ASP760  ASP761  ALA762  ILE779  LEU786  VAL792 
 PHE793  MET794  SER795  GLU796  ALA797  LYS798  CYS799  TRP800  GLU811  SER814 

> <Gold.Protein.RotatedAtoms>
  151.5940  135.1051  160.0045 H   0  0  0  0  0  0  0  0  0  0  0  0  # atno 6907 bound_to 6896
  152.4292  133.7243  159.6562 H   0  0  0  0  0  0  0  0  0  0  0  0  # atno 6908 bound_to 6896
  150.8183  133.8227  159.3173 H   0  0  0  0  0  0  0  0  0  0  0  0  # atno 6909 bound_to 6896
  145.6613  139.2472  143.1921 H   0  0  0  0  0  0  0  0  0  0  0  0  # atno 7974 bound_to 7965
  156.2529  140.2882  156.0781 H   0  0  0  0  0  0  0  0  0  0  0  0  # atno 8008 bound_to 7997
  155.1597  140.0399  157.2857 H   0  0  0  0  0  0  0  0  0  0  0  0  # atno 8009 bound_to 7997
  154.6402  140.2520  155.7338 H   0  0  0  0  0  0  0  0  0  0  0  0  # atno 8010 bound_to 7997
  139.4821  144.5086  151.8059 H   0  0  0  0  0  0  0  0  0  0  0  0  # atno 10167 bound_to 10162
  156.5526  130.4705  149.6445 H   0  0  0  0  0  0  0  0  0  0  0  0  # atno 10718 bound_to 10713
  153.2196  135.6879  153.8016 H   0  0  0  0  0  0  0  0  0  0  0  0  # atno 10763 bound_to 10752
  153.7219  135.3266  155.3269 H   0  0  0  0  0  0  0  0  0  0  0  0  # atno 10764 bound_to 10752
  154.8263  135.4615  154.1038 H   0  0  0  0  0  0  0  0  0  0  0  0  # atno 10765 bound_to 10752
  139.9742  134.9568  156.9467 H   0  0  0  0  0  0  0  0  0  0  0  0  # atno 11005 bound_to 11000
  146.1123  140.7413  142.9497 LP  0  0  0  0  0  0  0  0  0  0  0  0  # atno 17320 bound_to 7965
  144.7088  140.3959  143.7097 LP  0  0  0  0  0  0  0  0  0  0  0  0  # atno 17321 bound_to 7965
  140.4587  144.1753  150.5904 LP  0  0  0  0  0  0  0  0  0  0  0  0  # atno 17342 bound_to 10162
  140.4508  143.2487  151.9350 LP  0  0  0  0  0  0  0  0  0  0  0  0  # atno 17343 bound_to 10162
  156.2871  130.7103  151.1942 LP  0  0  0  0  0  0  0  0  0  0  0  0  # atno 17370 bound_to 10713
  157.7384  131.0540  150.5294 LP  0  0  0  0  0  0  0  0  0  0  0  0  # atno 17371 bound_to 10713
  140.5229  134.0889  155.7296 LP  0  0  0  0  0  0  0  0  0  0  0  0  # atno 17394 bound_to 11000
  141.1420  133.9121  157.2303 LP  0  0  0  0  0  0  0  0  0  0  0  0  # atno 17395 bound_to 11000

$$$$
