AV-unprocessed.smi:3314|AV-procd|sdf|12748|dock1
  -GOLD-   2272019 83D 1   1.00000     0.00000
 Structure written by MMmdl.
 37 38  0  0  0  0  0  0  0  0  1 V2000
  151.8140  145.7197  160.0915 C   0  0  0  0  0  0  0  0  0  0  0  0
  152.0460  144.2761  159.6938 C   0  0  0  0  0  0  0  0  0  0  0  0
  152.8497  143.4027  160.5319 C   0  0  0  0  0  0  0  0  0  0  0  0
  153.0418  142.1249  160.1625 C   0  0  0  0  0  0  0  0  0  0  0  0
  153.8607  141.1333  160.9619 C   0  0  0  0  0  0  0  0  0  0  0  0
  152.4828  141.6294  158.9913 N   0  0  0  0  0  0  0  0  0  0  0  0
  151.6972  142.4097  158.1252 C   0  0  0  0  0  0  0  0  0  0  0  0
  151.1578  141.9952  157.0155 N   0  0  0  0  0  0  0  0  0  0  0  0
  151.2965  140.6881  156.5541 C   0  0  0  0  0  0  0  0  0  0  0  0
  152.2612  139.9237  156.6493 O   0  0  0  0  0  0  0  0  0  0  0  0
  150.0367  140.1988  155.8294 C   0  0  1  0  0  0  0  0  0  0  0  0
  148.9891  141.3262  155.7102 C   0  0  0  0  0  0  0  0  0  0  0  0
  147.8231  140.9037  154.9441 N   0  0  0  0  0  0  0  0  0  0  0  0
  146.8405  141.9706  154.8285 C   0  0  0  0  0  0  0  0  0  0  0  0
  148.2452  140.4176  153.6370 C   0  0  0  0  0  0  0  0  0  0  0  0
  149.2891  139.2946  153.7595 C   0  0  0  0  0  0  0  0  0  0  0  0
  150.4001  139.7579  154.5211 O   0  0  0  0  0  0  0  0  0  0  0  0
  151.5054  143.7878  158.5521 C   0  0  0  0  0  0  0  0  0  0  0  0
  152.3128  145.9553  161.0321 H   0  0  0  0  0  0  0  0  0  0  0  0
  150.7481  145.9130  160.2145 H   0  0  0  0  0  0  0  0  0  0  0  0
  152.2000  146.3917  159.3244 H   0  0  0  0  0  0  0  0  0  0  0  0
  153.2893  143.7774  161.4450 H   0  0  0  0  0  0  0  0  0  0  0  0
  154.2531  141.5884  161.8719 H   0  0  0  0  0  0  0  0  0  0  0  0
  154.7035  140.7738  160.3709 H   0  0  0  0  0  0  0  0  0  0  0  0
  153.2484  140.2773  161.2464 H   0  0  0  0  0  0  0  0  0  0  0  0
  149.6117  139.3521  156.3729 H   0  0  0  0  0  0  0  0  0  0  0  0
  148.6763  141.6412  156.7069 H   0  0  0  0  0  0  0  0  0  0  0  0
  149.4430  142.1989  155.2370 H   0  0  0  0  0  0  0  0  0  0  0  0
  145.9643  141.6305  154.2755 H   0  0  0  0  0  0  0  0  0  0  0  0
  147.2557  142.8347  154.3081 H   0  0  0  0  0  0  0  0  0  0  0  0
  146.5057  142.2959  155.8141 H   0  0  0  0  0  0  0  0  0  0  0  0
  147.3812  140.0513  153.0814 H   0  0  0  0  0  0  0  0  0  0  0  0
  148.6659  141.2388  153.0545 H   0  0  0  0  0  0  0  0  0  0  0  0
  148.8558  138.4137  154.2357 H   0  0  0  0  0  0  0  0  0  0  0  0
  149.6356  138.9881  152.7726 H   0  0  0  0  0  0  0  0  0  0  0  0
  150.9136  144.4667  157.9545 H   0  0  0  0  0  0  0  0  0  0  0  0
  152.6722  140.6592  158.7824 H   0  0  0  0  0  0  0  0  0  0  0  0
  1  2  1  0  0  0  0
  1 19  1  0  0  0  0
  1 20  1  0  0  0  0
  1 21  1  0  0  0  0
  2 18  2  0  0  0  0
  2  3  1  0  0  0  0
  3  4  2  0  0  0  0
  3 22  1  0  0  0  0
  4  5  1  0  0  0  0
  4  6  1  0  0  0  0
  5 23  1  0  0  0  0
  5 24  1  0  0  0  0
  5 25  1  0  0  0  0
  6  7  1  0  0  0  0
  6 37  1  0  0  0  0
  7  8  2  0  0  0  0
  7 18  1  0  0  0  0
  8  9  1  0  0  0  0
  9 10  2  0  0  0  0
  9 11  1  0  0  0  0
 11 17  1  0  0  0  0
 11 12  1  0  0  0  0
 11 26  1  0  0  0  0
 12 13  1  0  0  0  0
 12 27  1  0  0  0  0
 12 28  1  0  0  0  0
 13 14  1  0  0  0  0
 13 15  1  0  0  0  0
 14 29  1  0  0  0  0
 14 30  1  0  0  0  0
 14 31  1  0  0  0  0
 15 16  1  0  0  0  0
 15 32  1  0  0  0  0
 15 33  1  0  0  0  0
 16 17  1  0  0  0  0
 16 34  1  0  0  0  0
 16 35  1  0  0  0  0
 18 36  1  0  0  0  0
M  END
> <s_m_source_file>
AV-unprocessed.smi

> <i_m_source_file_index>
3314

> <i_lp_mmshare_version>
43012

> <i_f3d_flags>
0

> <s_epik_input>
W0NIM11jMVtjSF1jKFtDSDNdKW5jKFtjSF0xKVtOSF1DKD1PKVtDQEBIXTJbQ0gyXU4oW0NIM10pW0NIMl1bQ0gyXU8y

> <s_epik_cmdline>
J2VwaWtfcHl0aG9uJywgJy1waCcsICc3LjAnLCAnLXRuJywgJzgnLCAnLW1hJywgJzIwMCcsICctbWV0YWxfYmluZGluZycsICctaW1hZScsICc8aW5maWxlLm1hZT4nLCAnLW9tYWUnLCAnPG91dGZpbGUubWFlPic=

> <r_epik_Ionization_Penalty>
1.13914

> <r_epik_Ionization_Penalty_Charging>
0.583937

> <r_epik_Ionization_Penalty_Neutral>
0.555199

> <r_epik_State_Penalty>
2.94598

> <r_epik_Charging_Adjusted_Penalty>
3.52991

> <i_epik_Tot_Q>
0

> <i_epik_Tot_abs_Q>
0

> <r_epik_Metal_State_Penalty>
2.95583

> <b_epik_Metal_Only>
1

> <s_lp_Force_Field>
OPLS_2005

> <r_lp_Energy>
39.2006

> <b_lp_Chiralities_Consistent>
1

> <s_lp_Variant>
AV-unprocessed.smi:3314-18

> <Gold.Version>
5.8.1

> <Gold.Id.Protein>
6NUR|6NUR_protein|mol2

> <Gold.PLP.Fitness>
42.2826

> <Gold.PLP.PLP>
-36.8792

> <Gold.PLP.part.hbond>
-2.0000

> <Gold.PLP.part.metal>
0.0000

> <Gold.PLP.part.buried>
1.7100

> <Gold.PLP.part.nonpolar>
-37.6494

> <Gold.PLP.part.repulsive>
0.3837

> <Gold.PLP.ligand.clash>
0.0000

> <Gold.PLP.ligand.torsion>
0.2853

> <Gold.PLP.Chemscore.Hbond>
1.9913

> <Gold.PLP.Chemscore.CHOScore>
0.0000

> <Gold.PLP.Chemscore.Metal>
0.0000

> <Gold.Chemscore.Hbonds>
donor molecule, donor type, donor heavy atom, donor atom, acceptor molecule, acceptor atom, score
      P1  H  7989  7998       L1    17  1.00
      P1  H  7997  8008       L1    10  0.83

> <Gold.PLP.Chemscore.Internal.Correction>
0.0002

> <Gold.Rescore>
     Score         DG    S(hbond)    S(metal)    S(lipo)     H(rot)  DE(clash)    DE(int)     intcor
     17.84     -20.61       1.95        0.00      95.62       1.00       1.28       1.49       ----

> <Gold.Chemscore.Fitness>
17.8394

> <Gold.Chemscore.DG>
-20.6147

> <Gold.Chemscore.ZeroCoef>
-5.4800

> <Gold.Chemscore.Hbond>
1.9481

> <Gold.Chemscore.Metal>
0.0000

> <Gold.Chemscore.Lipo>
95.6234

> <Gold.Chemscore.Internal_Hbond>
0.0000

> <Gold.Chemscore.DEClash>
1.2815

> <Gold.Chemscore.DEInternal>
1.4937

> <Gold.Chemscore.Rot>
1.0000

> <Gold.Chemscore.Internal.Correction>
   9.000000E+99

> <Gold.Chemscore.Hbonds>
donor molecule, donor type, donor heavy atom, donor atom, acceptor molecule, acceptor atom, score
      P1  H  7989  7998       L1    17  0.81
      P1  H  7997  8008       L1    10  0.82

> <Gold.Chemscore.Hbond.Weighted>
-6.5068

> <Gold.Chemscore.Metal.Weighted>
-0.0000

> <Gold.Chemscore.Lipo.Weighted>
-11.1879

> <Gold.Chemscore.Internal_Hbond.Weighted>
0.0000

> <Gold.Chemscore.DEClash.Weighted>
1.2815

> <Gold.Chemscore.DEInternal.Weighted>
1.4937

> <Gold.Chemscore.Rot.Weighted>
2.5600

> <Gold.Chemscore.Internal.Correction.Weighted>
   9.000000E+99

> <Gold.Protein.RotatedTorsions>
[ 6907 6896 6895 6894 ] final  150.51 input  -60.11 | X-H torsion
[ 7974 7965 7964 7962 ] final -171.04 input  175.53 | X-H torsion
[ 8008 7997 7996 7995 ] final  -45.20 input   59.86 | X-H torsion
[ 10167 10162 10161 10158 ] final    0.05 input  -65.29 | X-H torsion
[ 10718 10713 10712 10709 ] final -176.86 input   66.30 | X-H torsion
[ 10763 10752 10751 10750 ] final  141.70 input  -60.55 | X-H torsion
[ 11005 11000 10999 10996 ] final   35.21 input  -57.11 | X-H torsion

> <Gold.Protein.ActiveResidues>
 VAL166  LYS551  ARG553  GLY616  TRP617  ASP618  TYR619  PRO620  LYS621  CYS622 
 ASP623  PHE694  ASN695  SER759  ASP760  ASP761  ALA762  ILE779  LEU786  VAL792 
 PHE793  MET794  SER795  GLU796  ALA797  LYS798  CYS799  TRP800  GLU811  SER814 

> <Gold.Protein.RotatedAtoms>
  152.1134  133.4313  159.4641 H   0  0  0  0  0  0  0  0  0  0  0  0  # atno 6907 bound_to 6896
  150.6868  134.2621  159.4562 H   0  0  0  0  0  0  0  0  0  0  0  0  # atno 6908 bound_to 6896
  152.0491  134.9664  160.0625 H   0  0  0  0  0  0  0  0  0  0  0  0  # atno 6909 bound_to 6896
  144.7162  140.1982  143.6341 H   0  0  0  0  0  0  0  0  0  0  0  0  # atno 7974 bound_to 7965
  154.4000  140.1403  156.3808 H   0  0  0  0  0  0  0  0  0  0  0  0  # atno 8008 bound_to 7997
  155.8005  140.3476  155.5379 H   0  0  0  0  0  0  0  0  0  0  0  0  # atno 8009 bound_to 7997
  155.8488  140.0938  157.1678 H   0  0  0  0  0  0  0  0  0  0  0  0  # atno 8010 bound_to 7997
  140.6746  143.6953  150.7995 H   0  0  0  0  0  0  0  0  0  0  0  0  # atno 10167 bound_to 10162
  156.8209  130.9619  151.3112 H   0  0  0  0  0  0  0  0  0  0  0  0  # atno 10718 bound_to 10713
  153.9435  135.2977  155.3441 H   0  0  0  0  0  0  0  0  0  0  0  0  # atno 10763 bound_to 10752
  154.7464  135.5001  153.9215 H   0  0  0  0  0  0  0  0  0  0  0  0  # atno 10764 bound_to 10752
  153.1030  135.6739  153.9745 H   0  0  0  0  0  0  0  0  0  0  0  0  # atno 10765 bound_to 10752
  140.2449  134.3371  155.7911 H   0  0  0  0  0  0  0  0  0  0  0  0  # atno 11005 bound_to 11000
  145.8705  139.2269  143.1664 LP  0  0  0  0  0  0  0  0  0  0  0  0  # atno 17320 bound_to 7965
  146.0089  140.8453  142.9981 LP  0  0  0  0  0  0  0  0  0  0  0  0  # atno 17321 bound_to 7965
  140.0644  143.5123  152.2611 LP  0  0  0  0  0  0  0  0  0  0  0  0  # atno 17342 bound_to 10162
  139.6031  144.7588  151.3125 LP  0  0  0  0  0  0  0  0  0  0  0  0  # atno 17343 bound_to 10162
  157.6457  130.8842  149.9534 LP  0  0  0  0  0  0  0  0  0  0  0  0  # atno 17370 bound_to 10713
  156.0989  130.3657  150.0254 LP  0  0  0  0  0  0  0  0  0  0  0  0  # atno 17371 bound_to 10713
  141.2207  133.7320  156.8945 LP  0  0  0  0  0  0  0  0  0  0  0  0  # atno 17394 bound_to 11000
  140.1616  134.9162  157.2721 LP  0  0  0  0  0  0  0  0  0  0  0  0  # atno 17395 bound_to 11000

$$$$
