AV-unprocessed.smi:2831|AV-procd|sdf|10908|dock1
  -GOLD-   2272015353D 1   1.00000     0.00000
 Structure written by MMmdl.
 30 31  0  0  0  0  0  0  0  0  1 V2000
  143.1406  138.0351  147.4043 C   0  0  0  0  0  0  0  0  0  0  0  0
  144.2101  138.4563  148.3531 C   0  0  0  0  0  0  0  0  0  0  0  0
  144.2334  139.6655  148.9269 N   0  0  0  0  0  0  0  0  0  0  0  0
  145.3271  139.8289  149.7655 N   0  0  0  0  0  0  0  0  0  0  0  0
  146.1002  138.7347  149.7978 C   0  0  0  0  0  0  0  0  0  0  0  0
  147.2875  138.6292  150.5695 N   0  0  0  0  0  0  0  0  0  0  0  0
  148.0606  139.6189  151.0499 C   0  0  0  0  0  0  0  0  0  0  0  0
  147.8479  140.8223  150.9009 O   0  0  0  0  0  0  0  0  0  0  0  0
  149.1121  139.1247  151.7243 N   0  0  0  0  0  0  0  0  0  0  0  0
  150.1683  139.8835  152.4045 C   0  0  1  0  0  0  0  0  0  0  0  0
  150.8982  140.8050  151.4034 C   0  0  0  0  0  0  0  0  0  0  0  0
  149.5490  140.7070  153.5439 C   0  0  0  0  0  0  0  0  0  0  0  0
  150.1335  140.1076  154.8202 C   0  0  0  0  0  0  0  0  0  0  0  0
  151.3850  139.6032  154.3949 O   0  0  0  0  0  0  0  0  0  0  0  0
  151.1507  138.9579  153.1548 C   0  0  0  0  0  0  0  0  0  0  0  0
  145.5469  137.4021  148.7979 S   0  0  0  0  0  0  0  0  0  0  0  0
  142.2114  138.5651  147.6160 H   0  0  0  0  0  0  0  0  0  0  0  0
  142.9580  136.9640  147.4939 H   0  0  0  0  0  0  0  0  0  0  0  0
  143.4447  138.2545  146.3809 H   0  0  0  0  0  0  0  0  0  0  0  0
  147.5857  137.6877  150.7773 H   0  0  0  0  0  0  0  0  0  0  0  0
  149.1905  138.1199  151.7806 H   0  0  0  0  0  0  0  0  0  0  0  0
  151.6591  141.4053  151.9034 H   0  0  0  0  0  0  0  0  0  0  0  0
  150.2028  141.4908  150.9181 H   0  0  0  0  0  0  0  0  0  0  0  0
  151.4022  140.2378  150.6208 H   0  0  0  0  0  0  0  0  0  0  0  0
  149.8467  141.7538  153.4715 H   0  0  0  0  0  0  0  0  0  0  0  0
  148.4583  140.6887  153.5572 H   0  0  0  0  0  0  0  0  0  0  0  0
  150.2437  140.8410  155.6192 H   0  0  0  0  0  0  0  0  0  0  0  0
  149.5135  139.2881  155.1873 H   0  0  0  0  0  0  0  0  0  0  0  0
  150.7095  137.9807  153.3588 H   0  0  0  0  0  0  0  0  0  0  0  0
  152.0829  138.7929  152.6137 H   0  0  0  0  0  0  0  0  0  0  0  0
  1  2  1  0  0  0  0
  1 17  1  0  0  0  0
  1 18  1  0  0  0  0
  1 19  1  0  0  0  0
  2 16  1  0  0  0  0
  2  3  2  0  0  0  0
  3  4  1  0  0  0  0
  4  5  2  0  0  0  0
  5  6  1  0  0  0  0
  5 16  1  0  0  0  0
  6  7  1  0  0  0  0
  6 20  1  0  0  0  0
  7  8  2  0  0  0  0
  7  9  1  0  0  0  0
  9 10  1  0  0  0  0
  9 21  1  0  0  0  0
 10 15  1  0  0  0  0
 10 11  1  0  0  0  0
 10 12  1  0  0  0  0
 11 22  1  0  0  0  0
 11 23  1  0  0  0  0
 11 24  1  0  0  0  0
 12 13  1  0  0  0  0
 12 25  1  0  0  0  0
 12 26  1  0  0  0  0
 13 14  1  0  0  0  0
 13 27  1  0  0  0  0
 13 28  1  0  0  0  0
 14 15  1  0  0  0  0
 15 29  1  0  0  0  0
 15 30  1  0  0  0  0
M  END
> <s_m_source_file>
AV-unprocessed.smi

> <i_m_source_file_index>
2831

> <i_lp_mmshare_version>
43012

> <i_f3d_flags>
0

> <s_epik_input>
W0NIM11jMW5uYyhzMSlbTkhdQyg9TylbTkhdW0NAQF0yKFtDSDNdKVtDSDJdW0NIMl1PW0NIMl0y

> <s_epik_cmdline>
J2VwaWtfcHl0aG9uJywgJy1waCcsICc3LjAnLCAnLXRuJywgJzgnLCAnLW1hJywgJzIwMCcsICctbWV0YWxfYmluZGluZycsICctaW1hZScsICc8aW5maWxlLm1hZT4nLCAnLW9tYWUnLCAnPG91dGZpbGUubWFlPic=

> <r_lp_tautomer_probability>
1

> <r_epik_Ionization_Penalty>
0.00277018

> <r_epik_Ionization_Penalty_Charging>
0

> <r_epik_Ionization_Penalty_Neutral>
0.00277018

> <r_epik_State_Penalty>
-0

> <r_epik_Charging_Adjusted_Penalty>
0

> <i_epik_Tot_Q>
0

> <i_epik_Tot_abs_Q>
0

> <r_epik_Metal_State_Penalty>
0.356997

> <b_epik_Metal_Only>
0

> <s_lp_Force_Field>
OPLS_2005

> <r_lp_Energy>
15.109

> <b_lp_Chiralities_Consistent>
1

> <s_lp_Variant>
AV-unprocessed.smi:2831-1

> <Gold.Version>
5.8.1

> <Gold.Id.Protein>
6NUR|6NUR_protein|mol2

> <Gold.PLP.Fitness>
33.3026

> <Gold.PLP.PLP>
-25.5594

> <Gold.PLP.part.hbond>
-3.0000

> <Gold.PLP.part.metal>
0.0000

> <Gold.PLP.part.buried>
-4.7642

> <Gold.PLP.part.nonpolar>
-18.7393

> <Gold.PLP.part.repulsive>
0.1825

> <Gold.PLP.ligand.clash>
0.0000

> <Gold.PLP.ligand.torsion>
0.1172

> <Gold.PLP.Chemscore.Hbond>
2.6500

> <Gold.PLP.Chemscore.CHOScore>
0.0000

> <Gold.PLP.Chemscore.Metal>
0.0000

> <Gold.Chemscore.Hbonds>
donor molecule, donor type, donor heavy atom, donor atom, acceptor molecule, acceptor atom, score
      L1  H     6    20       P1  7948  0.54
      L1  H     9    21       P1  7948  1.00
      P1  H  7989  7998       L1    14  0.09

> <Gold.PLP.Chemscore.Internal.Correction>
0.0275

> <Gold.Rescore>
     Score         DG    S(hbond)    S(metal)    S(lipo)     H(rot)  DE(clash)    DE(int)     intcor
     12.75     -14.04       1.81        0.00      43.43       1.00       0.00       1.29       ----

> <Gold.Chemscore.Fitness>
12.7474

> <Gold.Chemscore.DG>
-14.0422

> <Gold.Chemscore.ZeroCoef>
-5.4800

> <Gold.Chemscore.Hbond>
1.8086

> <Gold.Chemscore.Metal>
0.0000

> <Gold.Chemscore.Lipo>
43.4310

> <Gold.Chemscore.Internal_Hbond>
0.0000

> <Gold.Chemscore.DEClash>
0.0029

> <Gold.Chemscore.DEInternal>
1.2919

> <Gold.Chemscore.Rot>
1.0000

> <Gold.Chemscore.Internal.Correction>
   9.000000E+99

> <Gold.Chemscore.Hbonds>
donor molecule, donor type, donor heavy atom, donor atom, acceptor molecule, acceptor atom, score
      L1  H     6    20       P1  7948  0.50
      L1  H     9    21       P1  7948  0.55

> <Gold.Chemscore.Hbond.Weighted>
-6.0408

> <Gold.Chemscore.Metal.Weighted>
-0.0000

> <Gold.Chemscore.Lipo.Weighted>
-5.0814

> <Gold.Chemscore.Internal_Hbond.Weighted>
0.0000

> <Gold.Chemscore.DEClash.Weighted>
0.0029

> <Gold.Chemscore.DEInternal.Weighted>
1.2919

> <Gold.Chemscore.Rot.Weighted>
2.5600

> <Gold.Chemscore.Internal.Correction.Weighted>
   9.000000E+99

> <Gold.Protein.RotatedTorsions>
[ 6907 6896 6895 6894 ] final -169.80 input  -60.11 | X-H torsion
[ 7974 7965 7964 7962 ] final  -39.45 input  175.53 | X-H torsion
[ 8008 7997 7996 7995 ] final -104.86 input   59.86 | X-H torsion
[ 10167 10162 10161 10158 ] final  138.14 input  -65.29 | X-H torsion
[ 10718 10713 10712 10709 ] final   22.37 input   66.30 | X-H torsion
[ 10763 10752 10751 10750 ] final -146.71 input  -60.55 | X-H torsion
[ 11005 11000 10999 10996 ] final   69.15 input  -57.11 | X-H torsion

> <Gold.Protein.ActiveResidues>
 VAL166  LYS551  ARG553  GLY616  TRP617  ASP618  TYR619  PRO620  LYS621  CYS622 
 ASP623  PHE694  ASN695  SER759  ASP760  ASP761  ALA762  ILE779  LEU786  VAL792 
 PHE793  MET794  SER795  GLU796  ALA797  LYS798  CYS799  TRP800  GLU811  SER814 

> <Gold.Protein.RotatedAtoms>
  151.4974  133.3511  159.2863 H   0  0  0  0  0  0  0  0  0  0  0  0  # atno 6907 bound_to 6896
  150.8795  134.8185  159.7225 H   0  0  0  0  0  0  0  0  0  0  0  0  # atno 6908 bound_to 6896
  152.4753  134.4870  159.9735 H   0  0  0  0  0  0  0  0  0  0  0  0  # atno 6909 bound_to 6896
  146.0395  140.6627  142.9094 H   0  0  0  0  0  0  0  0  0  0  0  0  # atno 7974 bound_to 7965
  154.8915  140.0416  157.1841 H   0  0  0  0  0  0  0  0  0  0  0  0  # atno 8008 bound_to 7997
  154.8536  140.2933  155.5561 H   0  0  0  0  0  0  0  0  0  0  0  0  # atno 8009 bound_to 7997
  156.2996  140.2460  156.3499 H   0  0  0  0  0  0  0  0  0  0  0  0  # atno 8010 bound_to 7997
  139.5120  144.6370  151.5670 H   0  0  0  0  0  0  0  0  0  0  0  0  # atno 10167 bound_to 10162
  157.1513  130.6676  149.6013 H   0  0  0  0  0  0  0  0  0  0  0  0  # atno 10718 bound_to 10713
  154.8322  135.3379  154.6704 H   0  0  0  0  0  0  0  0  0  0  0  0  # atno 10763 bound_to 10752
  153.7322  135.6951  153.4991 H   0  0  0  0  0  0  0  0  0  0  0  0  # atno 10764 bound_to 10752
  153.2304  135.4418  155.0540 H   0  0  0  0  0  0  0  0  0  0  0  0  # atno 10765 bound_to 10752
  139.9670  134.6964  156.0524 H   0  0  0  0  0  0  0  0  0  0  0  0  # atno 11005 bound_to 11000
  144.7068  140.3882  143.7112 LP  0  0  0  0  0  0  0  0  0  0  0  0  # atno 17320 bound_to 7965
  145.6908  139.1638  143.2648 LP  0  0  0  0  0  0  0  0  0  0  0  0  # atno 17321 bound_to 7965
  140.6123  143.9414  150.6462 LP  0  0  0  0  0  0  0  0  0  0  0  0  # atno 17342 bound_to 10162
  140.2660  143.3489  152.1280 LP  0  0  0  0  0  0  0  0  0  0  0  0  # atno 17343 bound_to 10162
  155.9770  130.4743  150.6565 LP  0  0  0  0  0  0  0  0  0  0  0  0  # atno 17370 bound_to 10713
  157.4218  131.0837  151.1124 LP  0  0  0  0  0  0  0  0  0  0  0  0  # atno 17371 bound_to 10713
  141.1350  133.6577  156.3569 LP  0  0  0  0  0  0  0  0  0  0  0  0  # atno 17394 bound_to 11000
  140.5374  134.6153  157.5369 LP  0  0  0  0  0  0  0  0  0  0  0  0  # atno 17395 bound_to 11000

$$$$
