AV-unprocessed.smi:639|AV-procd|sdf|3149|dock5
  -GOLD-   22720 0 73D 1   1.00000     0.00000
 Structure written by MMmdl.
 23 24  0  0  0  0  0  0  0  0  2 V2000
  151.8541  145.1936  160.1431 C   0  0  0  0  0  0  0  0  0  0  0  0
  151.6479  144.1009  159.2171 N   0  0  0  0  0  0  0  0  0  0  0  0
  151.8318  142.7513  159.4241 C   0  0  0  0  0  0  0  0  0  0  0  0
  151.5087  142.1022  158.2629 C   0  0  0  0  0  0  0  0  0  0  0  0
  151.5265  140.6160  157.9496 C   0  0  2  0  0  0  0  0  0  0  0  0
  151.9510  139.7935  159.1818 C   0  0  0  0  0  0  0  0  0  0  0  0
  152.3832  140.2871  156.8188 N   0  5  0  0  0  0  0  0  0  0  0  0
  151.6173  139.7813  155.8229 C   0  0  0  0  0  0  0  0  0  0  0  0
  151.9814  139.4023  154.7120 O   0  0  0  0  0  0  0  0  0  0  0  0
  150.3350  139.7284  156.1951 N   0  0  0  0  0  0  0  0  0  0  0  0
  150.1625  140.1783  157.4342 C   0  0  0  0  0  0  0  0  0  0  0  0
  149.1065  140.2338  158.0642 O   0  0  0  0  0  0  0  0  0  0  0  0
  151.1305  143.1712  157.3968 C   0  0  0  0  0  0  0  0  0  0  0  0
  151.2169  144.3618  157.9671 N   0  0  0  0  0  0  0  0  0  0  0  0
  152.2138  144.8108  161.0986 H   0  0  0  0  0  0  0  0  0  0  0  0
  150.9141  145.7222  160.3046 H   0  0  0  0  0  0  0  0  0  0  0  0
  152.5919  145.8869  159.7385 H   0  0  0  0  0  0  0  0  0  0  0  0
  152.1738  142.3639  160.3727 H   0  0  0  0  0  0  0  0  0  0  0  0
  151.2824  139.9640  160.0264 H   0  0  0  0  0  0  0  0  0  0  0  0
  152.9583  140.0610  159.5035 H   0  0  0  0  0  0  0  0  0  0  0  0
  151.9474  138.7224  158.9737 H   0  0  0  0  0  0  0  0  0  0  0  0
  149.5915  139.3766  155.6108 H   0  0  0  0  0  0  0  0  0  0  0  0
  150.7981  143.1131  156.3709 H   0  0  0  0  0  0  0  0  0  0  0  0
  1  2  1  0  0  0  0
  1 15  1  0  0  0  0
  1 16  1  0  0  0  0
  1 17  1  0  0  0  0
  2 14  1  0  0  0  0
  2  3  1  0  0  0  0
  3  4  2  0  0  0  0
  3 18  1  0  0  0  0
  4  5  1  0  0  0  0
  4 13  1  0  0  0  0
  5 11  1  0  0  0  0
  5  6  1  0  0  0  0
  5  7  1  0  0  0  0
  6 19  1  0  0  0  0
  6 20  1  0  0  0  0
  6 21  1  0  0  0  0
  7  8  1  0  0  0  0
  8  9  2  0  0  0  0
  8 10  1  0  0  0  0
 10 11  1  0  0  0  0
 10 22  1  0  0  0  0
 11 12  2  0  0  0  0
 13 14  2  0  0  0  0
 13 23  1  0  0  0  0
M  CHG  1   7  -1
M  END
> <s_m_source_file>
AV-unprocessed.smi

> <i_m_source_file_index>
639

> <i_lp_mmshare_version>
43012

> <i_f3d_flags>
0

> <s_epik_input>
W0NIM11uMVtjSF1jKFtjSF1uMSlbQ0BAXTIoW0NIM10pW05IXUMoPU8pW05IXUMyPU8=

> <s_epik_cmdline>
J2VwaWtfcHl0aG9uJywgJy1waCcsICc3LjAnLCAnLXRuJywgJzgnLCAnLW1hJywgJzIwMCcsICctbWV0YWxfYmluZGluZycsICctaW1hZScsICc8aW5maWxlLm1hZT4nLCAnLW9tYWUnLCAnPG91dGZpbGUubWFlPic=

> <r_lp_tautomer_probability>
1

> <r_epik_Ionization_Penalty>
4.83415

> <r_epik_Ionization_Penalty_Charging>
4.8337

> <r_epik_Ionization_Penalty_Neutral>
0.000449923

> <r_epik_State_Penalty>
4.85653

> <r_epik_Charging_Adjusted_Penalty>
9.69023

> <i_epik_Tot_Q>
-1

> <i_epik_Tot_abs_Q>
1

> <r_epik_Metal_State_Penalty>
1.31841

> <b_epik_Metal_Only>
1

> <s_lp_Force_Field>
OPLS_2005

> <r_lp_Energy>
8.78459

> <b_lp_Chiralities_Consistent>
1

> <s_lp_Variant>
AV-unprocessed.smi:639-6

> <Gold.Version>
5.8.1

> <Gold.Id.Protein>
6NUR|6NUR_protein|mol2

> <Gold.PLP.Fitness>
37.0578

> <Gold.PLP.PLP>
-25.6733

> <Gold.PLP.part.hbond>
-2.4577

> <Gold.PLP.part.metal>
0.0000

> <Gold.PLP.part.buried>
-2.3173

> <Gold.PLP.part.nonpolar>
-21.3782

> <Gold.PLP.part.repulsive>
0.2631

> <Gold.PLP.ligand.clash>
0.0000

> <Gold.PLP.ligand.torsion>
0.0386

> <Gold.PLP.Chemscore.Hbond>
3.0000

> <Gold.PLP.Chemscore.CHOScore>
0.8013

> <Gold.PLP.Chemscore.Metal>
0.0000

> <Gold.Chemscore.Hbonds>
donor molecule, donor type, donor heavy atom, donor atom, acceptor molecule, acceptor atom, score
      P1  H  7989  7998       L1     9  0.93
      P1  H  7997  8009       L1     7  2.00
      L1  C    13    23       P1  8028  0.63

> <Gold.PLP.Chemscore.Internal.Correction>
0.0578

> <Gold.Rescore>
     Score         DG    S(hbond)    S(metal)    S(lipo)     H(rot)  DE(clash)    DE(int)     intcor
     14.71     -14.82       1.77        0.00      51.24       1.00       0.07       0.04       ----

> <Gold.Chemscore.Fitness>
14.7092

> <Gold.Chemscore.DG>
-14.8162

> <Gold.Chemscore.ZeroCoef>
-5.4800

> <Gold.Chemscore.Hbond>
1.7669

> <Gold.Chemscore.Metal>
0.0000

> <Gold.Chemscore.Lipo>
51.2355

> <Gold.Chemscore.Internal_Hbond>
0.0000

> <Gold.Chemscore.DEClash>
0.0667

> <Gold.Chemscore.DEInternal>
0.0403

> <Gold.Chemscore.Rot>
1.0000

> <Gold.Chemscore.Internal.Correction>
   9.000000E+99

> <Gold.Chemscore.Hbonds>
donor molecule, donor type, donor heavy atom, donor atom, acceptor molecule, acceptor atom, score
      P1  H  7989  7998       L1     9  0.55
      P1  H  7997  8009       L1     7  0.79

> <Gold.Chemscore.Hbond.Weighted>
-5.9016

> <Gold.Chemscore.Metal.Weighted>
-0.0000

> <Gold.Chemscore.Lipo.Weighted>
-5.9946

> <Gold.Chemscore.Internal_Hbond.Weighted>
0.0000

> <Gold.Chemscore.DEClash.Weighted>
0.0667

> <Gold.Chemscore.DEInternal.Weighted>
0.0403

> <Gold.Chemscore.Rot.Weighted>
2.5600

> <Gold.Chemscore.Internal.Correction.Weighted>
   9.000000E+99

> <Gold.Protein.RotatedTorsions>
[ 6907 6896 6895 6894 ] final -156.28 input  -60.11 | X-H torsion
[ 7974 7965 7964 7962 ] final  128.51 input  175.53 | X-H torsion
[ 8008 7997 7996 7995 ] final -167.93 input   59.86 | X-H torsion
[ 10167 10162 10161 10158 ] final  162.59 input  -65.29 | X-H torsion
[ 10718 10713 10712 10709 ] final -132.29 input   66.30 | X-H torsion
[ 10763 10752 10751 10750 ] final   90.40 input  -60.55 | X-H torsion
[ 11005 11000 10999 10996 ] final -179.37 input  -57.11 | X-H torsion

> <Gold.Protein.ActiveResidues>
 VAL166  LYS551  ARG553  GLY616  TRP617  ASP618  TYR619  PRO620  LYS621  CYS622 
 ASP623  PHE694  ASN695  SER759  ASP760  ASP761  ALA762  ILE779  LEU786  VAL792 
 PHE793  MET794  SER795  GLU796  ALA797  LYS798  CYS799  TRP800  GLU811  SER814 

> <Gold.Protein.RotatedAtoms>
  151.2853  133.4190  159.2629 H   0  0  0  0  0  0  0  0  0  0  0  0  # atno 6907 bound_to 6896
  151.0325  134.9550  159.8129 H   0  0  0  0  0  0  0  0  0  0  0  0  # atno 6908 bound_to 6896
  152.5348  134.2813  159.9061 H   0  0  0  0  0  0  0  0  0  0  0  0  # atno 6909 bound_to 6896
  145.0387  139.3982  143.5113 H   0  0  0  0  0  0  0  0  0  0  0  0  # atno 7974 bound_to 7965
  155.8844  140.1014  157.1462 H   0  0  0  0  0  0  0  0  0  0  0  0  # atno 8008 bound_to 7997
  154.4008  140.1323  156.4301 H   0  0  0  0  0  0  0  0  0  0  0  0  # atno 8009 bound_to 7997
  155.7605  140.3463  155.5198 H   0  0  0  0  0  0  0  0  0  0  0  0  # atno 8010 bound_to 7997
  139.4862  144.4422  151.8937 H   0  0  0  0  0  0  0  0  0  0  0  0  # atno 10167 bound_to 10162
  156.2331  130.7050  151.0879 H   0  0  0  0  0  0  0  0  0  0  0  0  # atno 10718 bound_to 10713
  153.1972  135.4435  155.0222 H   0  0  0  0  0  0  0  0  0  0  0  0  # atno 10763 bound_to 10752
  154.8125  135.3301  154.7268 H   0  0  0  0  0  0  0  0  0  0  0  0  # atno 10764 bound_to 10752
  153.7716  135.6984  153.4960 H   0  0  0  0  0  0  0  0  0  0  0  0  # atno 10765 bound_to 10752
  140.4194  134.6619  157.4656 H   0  0  0  0  0  0  0  0  0  0  0  0  # atno 11005 bound_to 11000
  146.3507  139.9977  142.8679 LP  0  0  0  0  0  0  0  0  0  0  0  0  # atno 17320 bound_to 7965
  145.1675  140.9704  143.4341 LP  0  0  0  0  0  0  0  0  0  0  0  0  # atno 17321 bound_to 7965
  140.3874  144.2659  150.5902 LP  0  0  0  0  0  0  0  0  0  0  0  0  # atno 17342 bound_to 10162
  140.5177  143.2273  151.8437 LP  0  0  0  0  0  0  0  0  0  0  0  0  # atno 17343 bound_to 10162
  157.7142  131.0718  150.6389 LP  0  0  0  0  0  0  0  0  0  0  0  0  # atno 17370 bound_to 10713
  156.6458  130.4471  149.5736 LP  0  0  0  0  0  0  0  0  0  0  0  0  # atno 17371 bound_to 10713
  140.0211  134.6546  155.9239 LP  0  0  0  0  0  0  0  0  0  0  0  0  # atno 17394 bound_to 11000
  141.1790  133.6544  156.4942 LP  0  0  0  0  0  0  0  0  0  0  0  0  # atno 17395 bound_to 11000

$$$$
