AV-unprocessed.smi:1745|AV-procd|sdf|7032|dock2
  -GOLD-   22720 8253D 1   1.00000     0.00000
 Structure written by MMmdl.
 47 49  0  0  0  0  0  0  0  0  1 V2000
  144.4212  136.4644  153.0813 C   0  0  0  0  0  0  0  0  0  0  0  0
  145.3278  136.7913  151.8845 C   0  0  1  0  0  0  0  0  0  0  0  0
  146.6545  137.1433  152.3861 N   0  0  0  0  0  0  0  0  0  0  0  0
  146.9188  138.0442  153.3436 C   0  0  0  0  0  0  0  0  0  0  0  0
  146.0518  138.6899  153.9318 O   0  0  0  0  0  0  0  0  0  0  0  0
  148.2402  138.1254  153.5747 N   0  0  0  0  0  0  0  0  0  0  0  0
  148.9320  138.9278  154.5223 C   0  0  0  0  0  0  0  0  0  0  0  0
  148.4067  139.3223  155.7760 C   0  0  0  0  0  0  0  0  0  0  0  0
  149.1934  140.1301  156.6194 C   0  0  0  0  0  0  0  0  0  0  0  0
  150.4775  140.5263  156.1805 C   0  0  0  0  0  0  0  0  0  0  0  0
  151.3110  141.3266  156.9730 N   0  0  0  0  0  0  0  0  0  0  0  0
  150.8118  142.6823  157.1642 C   0  0  0  0  0  0  0  0  0  0  0  0
  151.8466  143.5187  157.9367 C   0  0  0  0  0  0  0  0  0  0  0  0
  152.1580  142.8740  159.1688 O   0  0  0  0  0  0  0  0  0  0  0  0
  152.7172  141.5787  158.9681 C   0  0  0  0  0  0  0  0  0  0  0  0
  151.7060  140.6902  158.2230 C   0  0  0  0  0  0  0  0  0  0  0  0
  150.9781  140.1637  154.9801 N   0  0  0  0  0  0  0  0  0  0  0  0
  150.2187  139.3894  154.1768 C   0  0  0  0  0  0  0  0  0  0  0  0
  145.4459  135.6144  150.8956 C   0  0  1  0  0  0  0  0  0  0  0  0
  146.1524  134.3794  151.4572 C   0  0  0  0  0  0  0  0  0  0  0  0
  145.6055  133.2844  150.5714 C   0  0  0  0  0  0  0  0  0  0  0  0
  144.1544  133.7211  150.3979 C   0  0  0  0  0  0  0  0  0  0  0  0
  144.1529  135.1412  150.5202 O   0  0  0  0  0  0  0  0  0  0  0  0
  143.4021  136.2477  152.7606 H   0  0  0  0  0  0  0  0  0  0  0  0
  144.3700  137.3049  153.7743 H   0  0  0  0  0  0  0  0  0  0  0  0
  144.7883  135.5988  153.6338 H   0  0  0  0  0  0  0  0  0  0  0  0
  144.8872  137.6399  151.3583 H   0  0  0  0  0  0  0  0  0  0  0  0
  147.4355  136.6646  151.9625 H   0  0  0  0  0  0  0  0  0  0  0  0
  148.8185  137.4852  153.0505 H   0  0  0  0  0  0  0  0  0  0  0  0
  147.4200  139.0362  156.1046 H   0  0  0  0  0  0  0  0  0  0  0  0
  148.8117  140.4383  157.5817 H   0  0  0  0  0  0  0  0  0  0  0  0
  150.6067  143.1400  156.1958 H   0  0  0  0  0  0  0  0  0  0  0  0
  149.8717  142.6582  157.7167 H   0  0  0  0  0  0  0  0  0  0  0  0
  152.7544  143.6574  157.3470 H   0  0  0  0  0  0  0  0  0  0  0  0
  151.4474  144.5112  158.1454 H   0  0  0  0  0  0  0  0  0  0  0  0
  153.6521  141.6568  158.4106 H   0  0  0  0  0  0  0  0  0  0  0  0
  152.9589  141.1413  159.9367 H   0  0  0  0  0  0  0  0  0  0  0  0
  150.8279  140.5252  158.8488 H   0  0  0  0  0  0  0  0  0  0  0  0
  152.1456  139.7132  158.0172 H   0  0  0  0  0  0  0  0  0  0  0  0
  150.6584  139.1251  153.2261 H   0  0  0  0  0  0  0  0  0  0  0  0
  145.9576  135.9343  149.9860 H   0  0  0  0  0  0  0  0  0  0  0  0
  147.2394  134.4541  151.4178 H   0  0  0  0  0  0  0  0  0  0  0  0
  145.8571  134.2031  152.4929 H   0  0  0  0  0  0  0  0  0  0  0  0
  146.1190  133.2910  149.6090 H   0  0  0  0  0  0  0  0  0  0  0  0
  145.7035  132.2893  151.0058 H   0  0  0  0  0  0  0  0  0  0  0  0
  143.7384  133.4026  149.4418 H   0  0  0  0  0  0  0  0  0  0  0  0
  143.5329  133.3064  151.1924 H   0  0  0  0  0  0  0  0  0  0  0  0
  1  2  1  0  0  0  0
  1 24  1  0  0  0  0
  1 25  1  0  0  0  0
  1 26  1  0  0  0  0
  2  3  1  0  0  0  0
  2 19  1  0  0  0  0
  2 27  1  0  0  0  0
  3  4  1  0  0  0  0
  3 28  1  0  0  0  0
  4  5  2  0  0  0  0
  4  6  1  0  0  0  0
  6  7  1  0  0  0  0
  6 29  1  0  0  0  0
  7 18  1  0  0  0  0
  7  8  2  0  0  0  0
  8  9  1  0  0  0  0
  8 30  1  0  0  0  0
  9 10  2  0  0  0  0
  9 31  1  0  0  0  0
 10 11  1  0  0  0  0
 10 17  1  0  0  0  0
 11 16  1  0  0  0  0
 11 12  1  0  0  0  0
 12 13  1  0  0  0  0
 12 32  1  0  0  0  0
 12 33  1  0  0  0  0
 13 14  1  0  0  0  0
 13 34  1  0  0  0  0
 13 35  1  0  0  0  0
 14 15  1  0  0  0  0
 15 16  1  0  0  0  0
 15 36  1  0  0  0  0
 15 37  1  0  0  0  0
 16 38  1  0  0  0  0
 16 39  1  0  0  0  0
 17 18  2  0  0  0  0
 18 40  1  0  0  0  0
 19 23  1  0  0  0  0
 19 20  1  0  0  0  0
 19 41  1  0  0  0  0
 20 21  1  0  0  0  0
 20 42  1  0  0  0  0
 20 43  1  0  0  0  0
 21 22  1  0  0  0  0
 21 44  1  0  0  0  0
 21 45  1  0  0  0  0
 22 23  1  0  0  0  0
 22 46  1  0  0  0  0
 22 47  1  0  0  0  0
M  END
> <s_m_source_file>
AV-unprocessed.smi

> <i_m_source_file_index>
1745

> <i_lp_mmshare_version>
43012

> <i_f3d_flags>
0

> <s_epik_input>
TzFbQ0gyXVtDSDJdW0NIMl1bQ0BIXTFbQ0BIXShbQ0gzXSlbTkhdQyg9TylbTkhdYzJbY0hdW2NIXWMobltjSF0yKU4zW0NIMl1bQ0gyXU9bQ0gyXVtDSDJdMw==

> <s_epik_cmdline>
J2VwaWtfcHl0aG9uJywgJy1waCcsICc3LjAnLCAnLXRuJywgJzgnLCAnLW1hJywgJzIwMCcsICctbWV0YWxfYmluZGluZycsICctaW1hZScsICc8aW5maWxlLm1hZT4nLCAnLW9tYWUnLCAnPG91dGZpbGUubWFlPic=

> <r_lp_tautomer_probability>
1

> <r_epik_Ionization_Penalty>
0.00206005

> <r_epik_Ionization_Penalty_Charging>
0

> <r_epik_Ionization_Penalty_Neutral>
0.00206005

> <r_epik_State_Penalty>
0.00138459

> <r_epik_Charging_Adjusted_Penalty>
0.00138459

> <i_epik_Tot_Q>
0

> <i_epik_Tot_abs_Q>
0

> <r_epik_Metal_State_Penalty>
-0

> <b_epik_Metal_Only>
0

> <s_lp_Force_Field>
OPLS_2005

> <r_lp_Energy>
36.7414

> <b_lp_Chiralities_Consistent>
1

> <s_lp_Variant>
AV-unprocessed.smi:1745-4

> <Gold.Version>
5.8.1

> <Gold.Id.Protein>
6NUR|6NUR_protein|mol2

> <Gold.PLP.Fitness>
42.7150

> <Gold.PLP.PLP>
-33.8276

> <Gold.PLP.part.hbond>
-2.9433

> <Gold.PLP.part.metal>
0.0000

> <Gold.PLP.part.buried>
-4.3559

> <Gold.PLP.part.nonpolar>
-27.0697

> <Gold.PLP.part.repulsive>
0.5226

> <Gold.PLP.ligand.clash>
0.0000

> <Gold.PLP.ligand.torsion>
0.3686

> <Gold.PLP.Chemscore.Hbond>
2.3500

> <Gold.PLP.Chemscore.CHOScore>
0.8148

> <Gold.PLP.Chemscore.Metal>
0.0000

> <Gold.Chemscore.Hbonds>
donor molecule, donor type, donor heavy atom, donor atom, acceptor molecule, acceptor atom, score
      L1  H     3    28       P1  7948  1.00
      L1  H     6    29       P1  7948  1.00
      P1  H  7989  7998       L1    17  0.35
      L1  C    18    40       P1  7957  0.78

> <Gold.PLP.Chemscore.Internal.Correction>
0.1304

> <Gold.Rescore>
     Score         DG    S(hbond)    S(metal)    S(lipo)     H(rot)  DE(clash)    DE(int)     intcor
     16.65     -19.02       1.93        0.00      91.12       1.40       0.21       2.16       ----

> <Gold.Chemscore.Fitness>
16.6481

> <Gold.Chemscore.DG>
-19.0156

> <Gold.Chemscore.ZeroCoef>
-5.4800

> <Gold.Chemscore.Hbond>
1.9298

> <Gold.Chemscore.Metal>
0.0000

> <Gold.Chemscore.Lipo>
91.1226

> <Gold.Chemscore.Internal_Hbond>
0.0000

> <Gold.Chemscore.DEClash>
0.2121

> <Gold.Chemscore.DEInternal>
2.1554

> <Gold.Chemscore.Rot>
1.3950

> <Gold.Chemscore.Internal.Correction>
   9.000000E+99

> <Gold.Chemscore.Hbonds>
donor molecule, donor type, donor heavy atom, donor atom, acceptor molecule, acceptor atom, score
      L1  H     3    28       P1  7948  0.95
      L1  H     6    29       P1  7948  0.94
      P1  H  7989  7998       L1    17  0.01

> <Gold.Chemscore.Hbond.Weighted>
-6.4455

> <Gold.Chemscore.Metal.Weighted>
-0.0000

> <Gold.Chemscore.Lipo.Weighted>
-10.6613

> <Gold.Chemscore.Internal_Hbond.Weighted>
0.0000

> <Gold.Chemscore.DEClash.Weighted>
0.2121

> <Gold.Chemscore.DEInternal.Weighted>
2.1554

> <Gold.Chemscore.Rot.Weighted>
3.5712

> <Gold.Chemscore.Internal.Correction.Weighted>
   9.000000E+99

> <Gold.Protein.RotatedTorsions>
[ 6907 6896 6895 6894 ] final  132.82 input  -60.11 | X-H torsion
[ 7974 7965 7964 7962 ] final  116.40 input  175.53 | X-H torsion
[ 8008 7997 7996 7995 ] final   85.89 input   59.86 | X-H torsion
[ 10167 10162 10161 10158 ] final   95.87 input  -65.29 | X-H torsion
[ 10718 10713 10712 10709 ] final -163.15 input   66.30 | X-H torsion
[ 10763 10752 10751 10750 ] final  -56.98 input  -60.55 | X-H torsion
[ 11005 11000 10999 10996 ] final   30.67 input  -57.11 | X-H torsion

> <Gold.Protein.ActiveResidues>
 VAL166  LYS551  ARG553  GLY616  TRP617  ASP618  TYR619  PRO620  LYS621  CYS622 
 ASP623  PHE694  ASN695  SER759  ASP760  ASP761  ALA762  ILE779  LEU786  VAL792 
 PHE793  MET794  SER795  GLU796  ALA797  LYS798  CYS799  TRP800  GLU811  SER814 

> <Gold.Protein.RotatedAtoms>
  152.3284  133.5931  159.5792 H   0  0  0  0  0  0  0  0  0  0  0  0  # atno 6907 bound_to 6896
  150.7409  133.9905  159.3614 H   0  0  0  0  0  0  0  0  0  0  0  0  # atno 6908 bound_to 6896
  151.7782  135.0769  160.0421 H   0  0  0  0  0  0  0  0  0  0  0  0  # atno 6909 bound_to 6896
  145.1801  139.3054  143.4422 H   0  0  0  0  0  0  0  0  0  0  0  0  # atno 7974 bound_to 7965
  155.9557  140.3397  155.6447 H   0  0  0  0  0  0  0  0  0  0  0  0  # atno 8008 bound_to 7997
  155.6862  140.0743  157.2484 H   0  0  0  0  0  0  0  0  0  0  0  0  # atno 8009 bound_to 7997
  154.4132  140.1665  156.2024 H   0  0  0  0  0  0  0  0  0  0  0  0  # atno 8010 bound_to 7997
  139.7947  144.6838  150.9844 H   0  0  0  0  0  0  0  0  0  0  0  0  # atno 10167 bound_to 10162
  156.6206  130.8889  151.2957 H   0  0  0  0  0  0  0  0  0  0  0  0  # atno 10718 bound_to 10713
  154.2152  135.6387  153.5127 H   0  0  0  0  0  0  0  0  0  0  0  0  # atno 10763 bound_to 10752
  152.9981  135.5483  154.6173 H   0  0  0  0  0  0  0  0  0  0  0  0  # atno 10764 bound_to 10752
  154.5619  135.2909  155.0884 H   0  0  0  0  0  0  0  0  0  0  0  0  # atno 10765 bound_to 10752
  140.2919  134.2854  155.7774 H   0  0  0  0  0  0  0  0  0  0  0  0  # atno 11005 bound_to 11000
  146.3454  140.1978  142.8589 LP  0  0  0  0  0  0  0  0  0  0  0  0  # atno 17320 bound_to 7965
  145.0145  140.8742  143.5204 LP  0  0  0  0  0  0  0  0  0  0  0  0  # atno 17321 bound_to 7965
  140.7820  143.4343  151.0646 LP  0  0  0  0  0  0  0  0  0  0  0  0  # atno 17342 bound_to 10162
  139.8018  143.8073  152.3163 LP  0  0  0  0  0  0  0  0  0  0  0  0  # atno 17343 bound_to 10162
  157.7228  130.9582  150.1510 LP  0  0  0  0  0  0  0  0  0  0  0  0  # atno 17370 bound_to 10713
  156.2314  130.3682  149.8440 LP  0  0  0  0  0  0  0  0  0  0  0  0  # atno 17371 bound_to 10713
  141.2144  133.7591  156.9637 LP  0  0  0  0  0  0  0  0  0  0  0  0  # atno 17394 bound_to 11000
  140.1188  134.9430  157.2172 LP  0  0  0  0  0  0  0  0  0  0  0  0  # atno 17395 bound_to 11000

$$$$
