AV-unprocessed.smi:3097|AV-procd|sdf|11799|dock9
  -GOLD-   2272017173D 1   1.00000     0.00000
 Structure written by MMmdl.
 35 35  0  0  0  0  0  0  0  0  2 V2000
  140.7998  136.2246  153.8202 C   0  0  0  0  0  0  0  0  0  0  0  0
  141.8850  137.2836  154.0385 C   0  0  0  0  0  0  0  0  0  0  0  0
  142.7373  137.5144  152.7849 C   0  0  0  0  0  0  0  0  0  0  0  0
  143.9192  136.6439  152.7804 N   0  0  0  0  0  0  0  0  0  0  0  0
  145.1904  137.0387  152.5726 C   0  0  0  0  0  0  0  0  0  0  0  0
  145.4581  138.3363  152.3281 N   0  3  0  0  0  0  0  0  0  0  0  0
  146.7898  138.9041  152.0866 C   0  0  0  0  0  0  0  0  0  0  0  0
  146.1962  136.1416  152.6110 N   0  0  0  0  0  0  0  0  0  0  0  0
  146.0694  134.7031  152.8930 C   0  0  0  0  0  0  0  0  0  0  0  0
  146.7156  133.8466  151.7918 C   0  0  0  0  0  0  0  0  0  0  0  0
  145.7300  133.1883  150.9544 N   0  0  0  0  0  0  0  0  0  0  0  0
  145.9402  132.3422  149.8856 C   0  0  0  0  0  0  0  0  0  0  0  0
  144.7135  131.9709  149.4148 C   0  0  0  0  0  0  0  0  0  0  0  0
  143.8026  132.6559  150.2664 C   0  0  0  0  0  0  0  0  0  0  0  0
  144.4141  133.3803  151.1900 N   0  0  0  0  0  0  0  0  0  0  0  0
  140.2095  136.0807  154.7253 H   0  0  0  0  0  0  0  0  0  0  0  0
  141.2368  135.2623  153.5520 H   0  0  0  0  0  0  0  0  0  0  0  0
  140.1181  136.5184  153.0215 H   0  0  0  0  0  0  0  0  0  0  0  0
  141.4153  138.2199  154.3405 H   0  0  0  0  0  0  0  0  0  0  0  0
  142.5252  136.9786  154.8673 H   0  0  0  0  0  0  0  0  0  0  0  0
  142.1487  137.3174  151.8883 H   0  0  0  0  0  0  0  0  0  0  0  0
  143.0646  138.5536  152.7378 H   0  0  0  0  0  0  0  0  0  0  0  0
  143.7534  135.6667  152.9773 H   0  0  0  0  0  0  0  0  0  0  0  0
  146.7154  139.9787  151.9195 H   0  0  0  0  0  0  0  0  0  0  0  0
  147.2447  138.4483  151.2070 H   0  0  0  0  0  0  0  0  0  0  0  0
  147.4392  138.7323  152.9454 H   0  0  0  0  0  0  0  0  0  0  0  0
  147.1359  136.4829  152.4678 H   0  0  0  0  0  0  0  0  0  0  0  0
  146.4769  134.4625  153.8751 H   0  0  0  0  0  0  0  0  0  0  0  0
  145.0045  134.4750  152.9391 H   0  0  0  0  0  0  0  0  0  0  0  0
  147.3493  134.4676  151.1575 H   0  0  0  0  0  0  0  0  0  0  0  0
  147.3640  133.0871  152.2307 H   0  0  0  0  0  0  0  0  0  0  0  0
  146.9333  132.0756  149.5548 H   0  0  0  0  0  0  0  0  0  0  0  0
  144.4992  131.3132  148.5853 H   0  0  0  0  0  0  0  0  0  0  0  0
  142.7229  132.6448  150.2443 H   0  0  0  0  0  0  0  0  0  0  0  0
  144.6842  138.9849  152.3053 H   0  0  0  0  0  0  0  0  0  0  0  0
  1  2  1  0  0  0  0
  1 16  1  0  0  0  0
  1 17  1  0  0  0  0
  1 18  1  0  0  0  0
  2  3  1  0  0  0  0
  2 19  1  0  0  0  0
  2 20  1  0  0  0  0
  3  4  1  0  0  0  0
  3 21  1  0  0  0  0
  3 22  1  0  0  0  0
  4  5  1  0  0  0  0
  4 23  1  0  0  0  0
  5  6  2  0  0  0  0
  5  8  1  0  0  0  0
  6  7  1  0  0  0  0
  6 35  1  0  0  0  0
  7 24  1  0  0  0  0
  7 25  1  0  0  0  0
  7 26  1  0  0  0  0
  8  9  1  0  0  0  0
  8 27  1  0  0  0  0
  9 10  1  0  0  0  0
  9 28  1  0  0  0  0
  9 29  1  0  0  0  0
 10 11  1  0  0  0  0
 10 30  1  0  0  0  0
 10 31  1  0  0  0  0
 11 15  1  0  0  0  0
 11 12  1  0  0  0  0
 12 13  2  0  0  0  0
 12 32  1  0  0  0  0
 13 14  1  0  0  0  0
 13 33  1  0  0  0  0
 14 15  2  0  0  0  0
 14 34  1  0  0  0  0
M  CHG  1   6   1
M  END
> <s_m_source_file>
AV-unprocessed.smi

> <i_m_source_file_index>
3097

> <i_lp_mmshare_version>
43012

> <i_f3d_flags>
0

> <s_epik_input>
W0NIM11bQ0gyXVtDSDJdW05IXS9DKD1OXFtDSDNdKVtOSF1bQ0gyXVtDSDJdbjFbY0hdW2NIXVtjSF1uMQ==

> <s_epik_cmdline>
J2VwaWtfcHl0aG9uJywgJy1waCcsICc3LjAnLCAnLXRuJywgJzgnLCAnLW1hJywgJzIwMCcsICctbWV0YWxfYmluZGluZycsICctaW1hZScsICc8aW5maWxlLm1hZT4nLCAnLW9tYWUnLCAnPG91dGZpbGUubWFlPic=

> <r_lp_tautomer_probability>
1

> <r_epik_Ionization_Penalty>
4.40305e-05

> <r_epik_Ionization_Penalty_Charging>
1.64417e-07

> <r_epik_Ionization_Penalty_Neutral>
4.38661e-05

> <r_epik_State_Penalty>
-0

> <r_epik_Charging_Adjusted_Penalty>
1.64417e-07

> <i_epik_Tot_Q>
1

> <i_epik_Tot_abs_Q>
1

> <r_epik_Metal_State_Penalty>
-0

> <b_epik_Metal_Only>
0

> <s_epik_Chemistry_Notes>
This compound has an imine and may undergo hydrolysis.

> <s_lp_Force_Field>
OPLS_2005

> <r_lp_Energy>
5.03608

> <b_lp_Chiralities_Consistent>
1

> <s_lp_Variant>
AV-unprocessed.smi:3097-2

> <Gold.Version>
5.8.1

> <Gold.Id.Protein>
6NUR|6NUR_protein|mol2

> <Gold.PLP.Fitness>
45.9401

> <Gold.PLP.PLP>
-29.1264

> <Gold.PLP.part.hbond>
-3.0000

> <Gold.PLP.part.metal>
0.0000

> <Gold.PLP.part.buried>
-1.0589

> <Gold.PLP.part.nonpolar>
-24.8651

> <Gold.PLP.part.repulsive>
0.1654

> <Gold.PLP.ligand.clash>
0.0000

> <Gold.PLP.ligand.torsion>
0.5990

> <Gold.PLP.Chemscore.Hbond>
4.0000

> <Gold.PLP.Chemscore.CHOScore>
2.0000

> <Gold.PLP.Chemscore.Metal>
0.0000

> <Gold.Chemscore.Hbonds>
donor molecule, donor type, donor heavy atom, donor atom, acceptor molecule, acceptor atom, score
      L1  H     6    35       P1 10175  2.00
      L1  H     8    27       P1  7948  2.00
      L1  C    12    32       P1 10747  1.00
      L1  C    14    34       P1 10186  0.92

> <Gold.PLP.Chemscore.Internal.Correction>
0.0116

> <Gold.Rescore>
     Score         DG    S(hbond)    S(metal)    S(lipo)     H(rot)  DE(clash)    DE(int)     intcor
     14.28     -15.03       1.94        0.00      66.84       1.86       0.10       0.65       ----

> <Gold.Chemscore.Fitness>
14.2753

> <Gold.Chemscore.DG>
-15.0298

> <Gold.Chemscore.ZeroCoef>
-5.4800

> <Gold.Chemscore.Hbond>
1.9405

> <Gold.Chemscore.Metal>
0.0000

> <Gold.Chemscore.Lipo>
66.8399

> <Gold.Chemscore.Internal_Hbond>
0.0000

> <Gold.Chemscore.DEClash>
0.1036

> <Gold.Chemscore.DEInternal>
0.6509

> <Gold.Chemscore.Rot>
1.8561

> <Gold.Chemscore.Internal.Correction>
   9.000000E+99

> <Gold.Chemscore.Hbonds>
donor molecule, donor type, donor heavy atom, donor atom, acceptor molecule, acceptor atom, score
      L1  H     6    35       P1 10175  1.00
      L1  H     8    27       P1  7948  0.95

> <Gold.Chemscore.Hbond.Weighted>
-6.4813

> <Gold.Chemscore.Metal.Weighted>
-0.0000

> <Gold.Chemscore.Lipo.Weighted>
-7.8203

> <Gold.Chemscore.Internal_Hbond.Weighted>
0.0000

> <Gold.Chemscore.DEClash.Weighted>
0.1036

> <Gold.Chemscore.DEInternal.Weighted>
0.6509

> <Gold.Chemscore.Rot.Weighted>
4.7517

> <Gold.Chemscore.Internal.Correction.Weighted>
   9.000000E+99

> <Gold.Protein.RotatedTorsions>
[ 6907 6896 6895 6894 ] final -145.52 input  -60.11 | X-H torsion
[ 7974 7965 7964 7962 ] final  123.41 input  175.53 | X-H torsion
[ 8008 7997 7996 7995 ] final -117.53 input   59.86 | X-H torsion
[ 10167 10162 10161 10158 ] final    1.29 input  -65.29 | X-H torsion
[ 10718 10713 10712 10709 ] final -112.46 input   66.30 | X-H torsion
[ 10763 10752 10751 10750 ] final   50.22 input  -60.55 | X-H torsion
[ 11005 11000 10999 10996 ] final   44.94 input  -57.11 | X-H torsion

> <Gold.Protein.ActiveResidues>
 VAL166  LYS551  ARG553  GLY616  TRP617  ASP618  TYR619  PRO620  LYS621  CYS622 
 ASP623  PHE694  ASN695  SER759  ASP760  ASP761  ALA762  ILE779  LEU786  VAL792 
 PHE793  MET794  SER795  GLU796  ALA797  LYS798  CYS799  TRP800  GLU811  SER814 

> <Gold.Protein.RotatedAtoms>
  151.1290  133.5050  159.2599 H   0  0  0  0  0  0  0  0  0  0  0  0  # atno 6907 bound_to 6896
  151.1779  135.0347  159.8789 H   0  0  0  0  0  0  0  0  0  0  0  0  # atno 6908 bound_to 6896
  152.5459  134.1145  159.8426 H   0  0  0  0  0  0  0  0  0  0  0  0  # atno 6909 bound_to 6896
  145.0963  139.3550  143.4835 H   0  0  0  0  0  0  0  0  0  0  0  0  # atno 7974 bound_to 7965
  155.0851  140.0394  157.2651 H   0  0  0  0  0  0  0  0  0  0  0  0  # atno 8008 bound_to 7997
  154.6876  140.2646  155.6820 H   0  0  0  0  0  0  0  0  0  0  0  0  # atno 8009 bound_to 7997
  156.2717  140.2766  156.1442 H   0  0  0  0  0  0  0  0  0  0  0  0  # atno 8010 bound_to 7997
  140.6690  143.7102  150.7884 H   0  0  0  0  0  0  0  0  0  0  0  0  # atno 10167 bound_to 10162
  156.0707  130.5921  150.8512 H   0  0  0  0  0  0  0  0  0  0  0  0  # atno 10718 bound_to 10713
  152.9785  135.5886  154.4216 H   0  0  0  0  0  0  0  0  0  0  0  0  # atno 10763 bound_to 10752
  154.3840  135.2767  155.2196 H   0  0  0  0  0  0  0  0  0  0  0  0  # atno 10764 bound_to 10752
  154.4098  135.6084  153.6000 H   0  0  0  0  0  0  0  0  0  0  0  0  # atno 10765 bound_to 10752
  140.1505  134.4468  155.8385 H   0  0  0  0  0  0  0  0  0  0  0  0  # atno 11005 bound_to 11000
  146.3530  140.0820  142.8617 LP  0  0  0  0  0  0  0  0  0  0  0  0  # atno 17320 bound_to 7965
  145.1007  140.9344  143.4714 LP  0  0  0  0  0  0  0  0  0  0  0  0  # atno 17321 bound_to 7965
  140.0784  143.4993  152.2543 LP  0  0  0  0  0  0  0  0  0  0  0  0  # atno 17342 bound_to 10162
  139.5950  144.7563  151.3309 LP  0  0  0  0  0  0  0  0  0  0  0  0  # atno 17343 bound_to 10162
  157.5776  131.0946  150.9321 LP  0  0  0  0  0  0  0  0  0  0  0  0  # atno 17370 bound_to 10713
  156.9524  130.5424  149.5283 LP  0  0  0  0  0  0  0  0  0  0  0  0  # atno 17371 bound_to 10713
  141.2198  133.6870  156.7413 LP  0  0  0  0  0  0  0  0  0  0  0  0  # atno 17394 bound_to 11000
  140.2611  134.8466  157.3759 LP  0  0  0  0  0  0  0  0  0  0  0  0  # atno 17395 bound_to 11000

$$$$
