AV-unprocessed.smi:212|AV-procd|sdf|1624|dock10
  -GOLD-   2262019563D 1   1.00000     0.00000
 Structure written by MMmdl.
 65 68  0  0  0  0  0  0  0  0  2 V2000
  146.6227  139.0065  151.9589 C   0  0  0  0  0  0  0  0  0  0  0  0
  145.8486  137.9405  152.7580 C   0  0  1  0  0  0  0  0  0  0  0  0
  145.9666  136.5199  152.1627 C   0  0  0  0  0  0  0  0  0  0  0  0
  145.1562  135.5459  152.9395 N   0  3  1  0  0  0  0  0  0  0  0  0
  145.1787  134.1746  152.3656 C   0  0  0  0  0  0  0  0  0  0  0  0
  144.0596  133.9573  151.3218 C   0  0  0  0  0  0  0  0  0  0  0  0
  144.0109  135.1414  150.3416 C   0  0  0  0  0  0  0  0  0  0  0  0
  144.2183  132.6347  150.5496 C   0  0  0  0  0  0  0  0  0  0  0  0
  142.8161  133.9341  151.9953 O   0  0  0  0  0  0  0  0  0  0  0  0
  145.4575  135.5803  154.3941 C   0  0  0  0  0  0  0  0  0  0  0  0
  145.3140  137.0069  154.9570 C   0  0  0  0  0  0  0  0  0  0  0  0
  146.1325  137.9486  154.1993 N   0  0  0  0  0  0  0  0  0  0  0  0
  147.4064  138.0263  154.6630 C   0  0  0  0  0  0  0  0  0  0  0  0
  148.1029  136.9015  154.9736 N   0  0  0  0  0  0  0  0  0  0  0  0
  149.3467  136.9908  155.4549 C   0  0  0  0  0  0  0  0  0  0  0  0
  150.0676  138.0853  155.7063 N   0  0  0  0  0  0  0  0  0  0  0  0
  149.3685  139.2165  155.4053 C   0  0  0  0  0  0  0  0  0  0  0  0
  148.0447  139.2761  154.8876 C   0  0  0  0  0  0  0  0  0  0  0  0
  147.6620  140.5997  154.7093 N   0  0  0  0  0  0  0  0  0  0  0  0
  148.7028  141.2853  155.0983 C   0  0  0  0  0  0  0  0  0  0  0  0
  149.7740  140.5333  155.5260 N   0  0  0  0  0  0  0  0  0  0  0  0
  151.0506  141.0310  156.0079 C   0  0  0  0  0  0  0  0  0  0  0  0
  151.2521  140.8324  157.5312 C   0  0  1  0  0  0  0  0  0  0  0  0
  151.6372  139.3792  157.9012 C   0  0  0  0  0  0  0  0  0  0  0  0
  152.8177  138.9728  157.2394 O   0  0  0  0  0  0  0  0  0  0  0  0
  152.2440  141.8714  158.1122 C   0  0  2  0  0  0  0  0  0  0  0  0
  152.4743  141.7715  159.6101 C   0  0  0  0  0  0  0  0  0  0  0  0
  153.0700  143.1365  159.9364 C   0  0  0  0  0  0  0  0  0  0  0  0
  152.4759  144.0459  159.0166 O   0  0  0  0  0  0  0  0  0  0  0  0
  151.7805  143.3277  158.0026 C   0  0  0  0  0  0  0  0  0  0  0  0
  146.2502  139.0650  150.9359 H   0  0  0  0  0  0  0  0  0  0  0  0
  147.6891  138.7925  151.8983 H   0  0  0  0  0  0  0  0  0  0  0  0
  146.5036  139.9940  152.4056 H   0  0  0  0  0  0  0  0  0  0  0  0
  144.7979  138.2236  152.6793 H   0  0  0  0  0  0  0  0  0  0  0  0
  145.6179  136.5281  151.1293 H   0  0  0  0  0  0  0  0  0  0  0  0
  147.0058  136.1910  152.1379 H   0  0  0  0  0  0  0  0  0  0  0  0
  146.1492  133.9759  151.9067 H   0  0  0  0  0  0  0  0  0  0  0  0
  145.0823  133.4342  153.1614 H   0  0  0  0  0  0  0  0  0  0  0  0
  144.9423  135.2259  149.7808 H   0  0  0  0  0  0  0  0  0  0  0  0
  143.8553  136.0867  150.8633 H   0  0  0  0  0  0  0  0  0  0  0  0
  143.2022  135.0287  149.6183 H   0  0  0  0  0  0  0  0  0  0  0  0
  145.1739  132.5979  150.0256 H   0  0  0  0  0  0  0  0  0  0  0  0
  143.4315  132.5148  149.8038 H   0  0  0  0  0  0  0  0  0  0  0  0
  144.1700  131.7688  151.2105 H   0  0  0  0  0  0  0  0  0  0  0  0
  142.1247  133.9052  151.3509 H   0  0  0  0  0  0  0  0  0  0  0  0
  144.7823  134.9094  154.9259 H   0  0  0  0  0  0  0  0  0  0  0  0
  146.4702  135.2107  154.5632 H   0  0  0  0  0  0  0  0  0  0  0  0
  144.2730  137.3266  154.8957 H   0  0  0  0  0  0  0  0  0  0  0  0
  145.5745  137.0201  156.0162 H   0  0  0  0  0  0  0  0  0  0  0  0
  149.8333  136.0512  155.6710 H   0  0  0  0  0  0  0  0  0  0  0  0
  148.7209  142.3654  155.0774 H   0  0  0  0  0  0  0  0  0  0  0  0
  151.8460  140.5303  155.4547 H   0  0  0  0  0  0  0  0  0  0  0  0
  151.1125  142.0876  155.7468 H   0  0  0  0  0  0  0  0  0  0  0  0
  150.2859  141.0175  158.0022 H   0  0  0  0  0  0  0  0  0  0  0  0
  151.7863  139.2786  158.9759 H   0  0  0  0  0  0  0  0  0  0  0  0
  150.8362  138.6851  157.6472 H   0  0  0  0  0  0  0  0  0  0  0  0
  152.9778  138.0637  157.4427 H   0  0  0  0  0  0  0  0  0  0  0  0
  153.2077  141.7784  157.6084 H   0  0  0  0  0  0  0  0  0  0  0  0
  151.5260  141.6430  160.1343 H   0  0  0  0  0  0  0  0  0  0  0  0
  153.1360  140.9521  159.8921 H   0  0  0  0  0  0  0  0  0  0  0  0
  152.8877  143.4351  160.9690 H   0  0  0  0  0  0  0  0  0  0  0  0
  154.1480  143.1302  159.7702 H   0  0  0  0  0  0  0  0  0  0  0  0
  151.9745  143.7551  157.0185 H   0  0  0  0  0  0  0  0  0  0  0  0
  150.7109  143.4092  158.2002 H   0  0  0  0  0  0  0  0  0  0  0  0
  144.2002  135.8595  152.8490 H   0  0  0  0  0  0  0  0  0  0  0  0
  1  2  1  0  0  0  0
  1 31  1  0  0  0  0
  1 32  1  0  0  0  0
  1 33  1  0  0  0  0
  2 12  1  0  0  0  0
  2  3  1  0  0  0  0
  2 34  1  0  0  0  0
  3  4  1  0  0  0  0
  3 35  1  0  0  0  0
  3 36  1  0  0  0  0
  4  5  1  0  0  0  0
  4 10  1  0  0  0  0
  4 65  1  0  0  0  0
  5  6  1  0  0  0  0
  5 37  1  0  0  0  0
  5 38  1  0  0  0  0
  6  7  1  0  0  0  0
  6  8  1  0  0  0  0
  6  9  1  0  0  0  0
  7 39  1  0  0  0  0
  7 40  1  0  0  0  0
  7 41  1  0  0  0  0
  8 42  1  0  0  0  0
  8 43  1  0  0  0  0
  8 44  1  0  0  0  0
  9 45  1  0  0  0  0
 10 11  1  0  0  0  0
 10 46  1  0  0  0  0
 10 47  1  0  0  0  0
 11 12  1  0  0  0  0
 11 48  1  0  0  0  0
 11 49  1  0  0  0  0
 12 13  1  0  0  0  0
 13 18  1  0  0  0  0
 13 14  2  0  0  0  0
 14 15  1  0  0  0  0
 15 16  2  0  0  0  0
 15 50  1  0  0  0  0
 16 17  1  0  0  0  0
 17 21  1  0  0  0  0
 17 18  2  0  0  0  0
 18 19  1  0  0  0  0
 19 20  2  0  0  0  0
 20 21  1  0  0  0  0
 20 51  1  0  0  0  0
 21 22  1  0  0  0  0
 22 23  1  0  0  0  0
 22 52  1  0  0  0  0
 22 53  1  0  0  0  0
 23 24  1  0  0  0  0
 23 26  1  0  0  0  0
 23 54  1  0  0  0  0
 24 25  1  0  0  0  0
 24 55  1  0  0  0  0
 24 56  1  0  0  0  0
 25 57  1  0  0  0  0
 26 30  1  0  0  0  0
 26 27  1  0  0  0  0
 26 58  1  0  0  0  0
 27 28  1  0  0  0  0
 27 59  1  0  0  0  0
 27 60  1  0  0  0  0
 28 29  1  0  0  0  0
 28 61  1  0  0  0  0
 28 62  1  0  0  0  0
 29 30  1  0  0  0  0
 30 63  1  0  0  0  0
 30 64  1  0  0  0  0
M  CHG  1   4   1
M  END
> <s_m_source_file>
AV-unprocessed.smi

> <i_m_source_file_index>
212

> <i_lp_mmshare_version>
43012

> <i_f3d_flags>
0

> <s_epik_input>
W0NIM11bQ0BASF0xW0NIMl1OKFtDSDJdQyhbQ0gzXSkoW0NIM10pW09IXSlbQ0gyXVtDSDJdTjFjKG5bY0hdbjIpYyhjMjMpbltjSF1uM1tDSDJdW0NASF0oW0NIMl1bT0hdKVtDQEBIXTRbQ0gyXVtDSDJdT1tDSDJdNA==

> <s_epik_cmdline>
J2VwaWtfcHl0aG9uJywgJy1waCcsICc3LjAnLCAnLXRuJywgJzgnLCAnLW1hJywgJzIwMCcsICctbWV0YWxfYmluZGluZycsICctaW1hZScsICc8aW5maWxlLm1hZT4nLCAnLW9tYWUnLCAnPG91dGZpbGUubWFlPic=

> <r_lp_tautomer_probability>
1

> <r_epik_Ionization_Penalty>
0.00182193

> <r_epik_Ionization_Penalty_Charging>
0.00173996

> <r_epik_Ionization_Penalty_Neutral>
8.19718e-05

> <r_epik_State_Penalty>
-0

> <r_epik_Charging_Adjusted_Penalty>
0.00173996

> <i_epik_Tot_Q>
1

> <i_epik_Tot_abs_Q>
1

> <r_epik_Metal_State_Penalty>
-0

> <b_epik_Metal_Only>
0

> <s_lp_Force_Field>
OPLS_2005

> <r_lp_Energy>
58.8905

> <b_lp_Chiralities_Consistent>
1

> <s_lp_Variant>
AV-unprocessed.smi:212-8

> <Gold.Version>
5.8.1

> <Gold.Id.Protein>
6NUR|6NUR_protein|mol2

> <Gold.PLP.Fitness>
49.5454

> <Gold.PLP.PLP>
-42.3956

> <Gold.PLP.part.hbond>
-2.0000

> <Gold.PLP.part.metal>
0.0000

> <Gold.PLP.part.buried>
-1.1535

> <Gold.PLP.part.nonpolar>
-39.5729

> <Gold.PLP.part.repulsive>
0.9014

> <Gold.PLP.ligand.clash>
0.0000

> <Gold.PLP.ligand.torsion>
1.4678

> <Gold.PLP.Chemscore.Hbond>
2.0000

> <Gold.PLP.Chemscore.CHOScore>
1.0000

> <Gold.PLP.Chemscore.Metal>
0.0000

> <Gold.Chemscore.Hbonds>
donor molecule, donor type, donor heavy atom, donor atom, acceptor molecule, acceptor atom, score
      L1  H     9    45       P1 10186  0.53
      P1  H  7997  8009       L1    25  0.98
      L1  C    20    51       P1  8028  1.00

> <Gold.PLP.Chemscore.Internal.Correction>
1.0853

> <Gold.Rescore>
     Score         DG    S(hbond)    S(metal)    S(lipo)     H(rot)  DE(clash)    DE(int)     intcor
      6.07     -11.92       0.97        0.00     108.00       3.68       1.45       4.40       ----

> <Gold.Chemscore.Fitness>
6.0658

> <Gold.Chemscore.DG>
-11.9188

> <Gold.Chemscore.ZeroCoef>
-5.4800

> <Gold.Chemscore.Hbond>
0.9660

> <Gold.Chemscore.Metal>
0.0000

> <Gold.Chemscore.Lipo>
108.0029

> <Gold.Chemscore.Internal_Hbond>
0.0000

> <Gold.Chemscore.DEClash>
1.4506

> <Gold.Chemscore.DEInternal>
4.4024

> <Gold.Chemscore.Rot>
3.6812

> <Gold.Chemscore.Internal.Correction>
   9.000000E+99

> <Gold.Chemscore.Hbonds>
donor molecule, donor type, donor heavy atom, donor atom, acceptor molecule, acceptor atom, score
      L1  H     9    45       P1 10186  0.08
      P1  H  7997  8009       L1    25  0.78

> <Gold.Chemscore.Hbond.Weighted>
-3.2264

> <Gold.Chemscore.Metal.Weighted>
-0.0000

> <Gold.Chemscore.Lipo.Weighted>
-12.6363

> <Gold.Chemscore.Internal_Hbond.Weighted>
0.0000

> <Gold.Chemscore.DEClash.Weighted>
1.4506

> <Gold.Chemscore.DEInternal.Weighted>
4.4024

> <Gold.Chemscore.Rot.Weighted>
9.4239

> <Gold.Chemscore.Internal.Correction.Weighted>
   9.000000E+99

> <Gold.Protein.RotatedTorsions>
[ 6907 6896 6895 6894 ] final  130.56 input  -60.11 | X-H torsion
[ 7974 7965 7964 7962 ] final    7.41 input  175.53 | X-H torsion
[ 8008 7997 7996 7995 ] final  159.05 input   59.86 | X-H torsion
[ 10167 10162 10161 10158 ] final  -51.19 input  -65.29 | X-H torsion
[ 10718 10713 10712 10709 ] final  -16.28 input   66.30 | X-H torsion
[ 10763 10752 10751 10750 ] final  -34.02 input  -60.55 | X-H torsion
[ 11005 11000 10999 10996 ] final  178.34 input  -57.11 | X-H torsion

> <Gold.Protein.ActiveResidues>
 VAL166  LYS551  ARG553  GLY616  TRP617  ASP618  TYR619  PRO620  LYS621  CYS622 
 ASP623  PHE694  ASN695  SER759  ASP760  ASP761  ALA762  ILE779  LEU786  VAL792 
 PHE793  MET794  SER795  GLU796  ALA797  LYS798  CYS799  TRP800  GLU811  SER814 

> <Gold.Protein.RotatedAtoms>
  152.3514  133.6184  159.5947 H   0  0  0  0  0  0  0  0  0  0  0  0  # atno 6907 bound_to 6896
  150.7540  133.9569  159.3512 H   0  0  0  0  0  0  0  0  0  0  0  0  # atno 6908 bound_to 6896
  151.7420  135.0853  160.0368 H   0  0  0  0  0  0  0  0  0  0  0  0  # atno 6909 bound_to 6896
  146.2427  140.0088  142.8408 H   0  0  0  0  0  0  0  0  0  0  0  0  # atno 7974 bound_to 7965
  156.2264  140.1842  156.7352 H   0  0  0  0  0  0  0  0  0  0  0  0  # atno 8008 bound_to 7997
  154.5948  140.0645  156.9317 H   0  0  0  0  0  0  0  0  0  0  0  0  # atno 8009 bound_to 7997
  155.2274  140.3312  155.4310 H   0  0  0  0  0  0  0  0  0  0  0  0  # atno 8010 bound_to 7997
  140.6601  143.2629  151.4467 H   0  0  0  0  0  0  0  0  0  0  0  0  # atno 10167 bound_to 10162
  156.5898  130.4796  149.6284 H   0  0  0  0  0  0  0  0  0  0  0  0  # atno 10718 bound_to 10713
  153.8398  135.6858  153.4804 H   0  0  0  0  0  0  0  0  0  0  0  0  # atno 10763 bound_to 10752
  153.1460  135.4637  154.9565 H   0  0  0  0  0  0  0  0  0  0  0  0  # atno 10764 bound_to 10752
  154.7850  135.3281  154.7853 H   0  0  0  0  0  0  0  0  0  0  0  0  # atno 10765 bound_to 10752
  140.3940  134.6836  157.4524 H   0  0  0  0  0  0  0  0  0  0  0  0  # atno 11005 bound_to 11000
  145.1347  140.9538  143.4523 LP  0  0  0  0  0  0  0  0  0  0  0  0  # atno 17320 bound_to 7965
  145.0353  139.3306  143.6004 LP  0  0  0  0  0  0  0  0  0  0  0  0  # atno 17321 bound_to 7965
  139.5832  144.1662  152.1996 LP  0  0  0  0  0  0  0  0  0  0  0  0  # atno 17342 bound_to 10162
  140.0994  144.5553  150.6999 LP  0  0  0  0  0  0  0  0  0  0  0  0  # atno 17343 bound_to 10162
  156.2559  130.6934  151.1688 LP  0  0  0  0  0  0  0  0  0  0  0  0  # atno 17370 bound_to 10713
  157.7306  131.0615  150.5717 LP  0  0  0  0  0  0  0  0  0  0  0  0  # atno 17371 bound_to 10713
  140.0385  134.6302  155.9012 LP  0  0  0  0  0  0  0  0  0  0  0  0  # atno 17394 bound_to 11000
  141.1880  133.6561  156.5308 LP  0  0  0  0  0  0  0  0  0  0  0  0  # atno 17395 bound_to 11000

$$$$
