AV-unprocessed.smi:54|AV-procd|sdf|552|dock2
  -GOLD-   2262016453D 1   1.00000     0.00000
 Structure written by MMmdl.
 43 45  0  0  0  0  0  0  0  0  2 V2000
  153.0375  143.5357  158.6911 C   0  0  0  0  0  0  0  0  0  0  0  0
  152.1418  142.6594  159.5823 C   0  0  0  0  0  0  0  0  0  0  0  0
  152.5815  142.7254  161.0546 C   0  0  0  0  0  0  0  0  0  0  0  0
  152.1321  141.2078  159.0830 C   0  0  0  0  0  0  0  0  0  0  0  0
  152.5123  140.3101  159.8386 O   0  0  0  0  0  0  0  0  0  0  0  0
  151.6948  141.0350  157.8155 N   0  0  0  0  0  0  0  0  0  0  0  0
  151.5638  139.8509  157.0812 C   0  0  0  0  0  0  0  0  0  0  0  0
  150.5257  139.6675  156.2958 N   0  0  0  0  0  0  0  0  0  0  0  0
  150.5678  138.4504  155.6454 C   0  0  0  0  0  0  0  0  0  0  0  0
  151.5281  137.4812  155.7378 C   0  0  0  0  0  0  0  0  0  0  0  0
  151.2246  136.3874  154.9351 N   0  0  0  0  0  0  0  0  0  0  0  0
  150.0693  136.7586  154.3842 C   0  0  0  0  0  0  0  0  0  0  0  0
  149.6151  137.9732  154.7558 N   0  0  0  0  0  0  0  0  0  0  0  0
  148.3651  138.6654  154.3194 C   0  0  1  0  0  0  0  0  0  0  0  0
  147.7694  139.2753  155.4169 O   0  0  0  0  0  0  0  0  0  0  0  0
  146.9628  140.3634  154.9726 C   0  0  1  0  0  0  0  0  0  0  0  0
  147.1734  141.5323  155.9471 C   0  0  0  0  0  0  0  0  0  0  0  0
  148.5508  141.7351  156.1824 O   0  0  0  0  0  0  0  0  0  0  0  0
  147.4085  140.6697  153.5259 C   0  0  2  0  0  0  0  0  0  0  0  0
  146.3767  140.3006  152.6310 O   0  0  0  0  0  0  0  0  0  0  0  0
  148.6257  139.7813  153.3066 C   0  0  1  0  0  0  0  0  0  0  0  0
  149.8229  140.4938  153.5627 O   0  0  0  0  0  0  0  0  0  0  0  0
  152.6714  137.7586  156.6397 C   0  0  0  0  0  0  0  0  0  0  0  0
  153.5606  136.9174  156.7558 O   0  0  0  0  0  0  0  0  0  0  0  0
  152.6344  138.9654  157.2820 N   0  5  0  0  0  0  0  0  0  0  0  0
  147.7158  137.8785  153.9321 H   0  0  0  0  0  0  0  0  0  0  0  0
  145.9200  140.0419  155.0050 H   0  0  0  0  0  0  0  0  0  0  0  0
  147.6338  141.7249  153.3641 H   0  0  0  0  0  0  0  0  0  0  0  0
  148.6799  139.3657  152.2990 H   0  0  0  0  0  0  0  0  0  0  0  0
  152.7274  143.4855  157.6465 H   0  0  0  0  0  0  0  0  0  0  0  0
  154.0825  143.2276  158.7442 H   0  0  0  0  0  0  0  0  0  0  0  0
  152.9859  144.5810  158.9964 H   0  0  0  0  0  0  0  0  0  0  0  0
  151.1249  143.0509  159.5212 H   0  0  0  0  0  0  0  0  0  0  0  0
  151.9589  142.0872  161.6830 H   0  0  0  0  0  0  0  0  0  0  0  0
  152.5003  143.7421  161.4397 H   0  0  0  0  0  0  0  0  0  0  0  0
  153.6173  142.4071  161.1796 H   0  0  0  0  0  0  0  0  0  0  0  0
  151.4502  141.8846  157.3287 H   0  0  0  0  0  0  0  0  0  0  0  0
  149.5367  136.1255  153.6900 H   0  0  0  0  0  0  0  0  0  0  0  0
  146.7616  142.4498  155.5260 H   0  0  0  0  0  0  0  0  0  0  0  0
  146.6595  141.3515  156.8919 H   0  0  0  0  0  0  0  0  0  0  0  0
  148.7485  142.6487  156.0424 H   0  0  0  0  0  0  0  0  0  0  0  0
  145.5709  140.6982  152.9235 H   0  0  0  0  0  0  0  0  0  0  0  0
  150.2364  140.1191  154.3249 H   0  0  0  0  0  0  0  0  0  0  0  0
  1  2  1  0  0  0  0
  1 30  1  0  0  0  0
  1 31  1  0  0  0  0
  1 32  1  0  0  0  0
  2  3  1  0  0  0  0
  2  4  1  0  0  0  0
  2 33  1  0  0  0  0
  3 34  1  0  0  0  0
  3 35  1  0  0  0  0
  3 36  1  0  0  0  0
  4  5  2  0  0  0  0
  4  6  1  0  0  0  0
  6 37  1  0  0  0  0
  6  7  1  0  0  0  0
  7 25  1  0  0  0  0
  7  8  2  0  0  0  0
  8  9  1  0  0  0  0
  9 13  1  0  0  0  0
  9 10  2  0  0  0  0
 10 11  1  0  0  0  0
 10 23  1  0  0  0  0
 11 12  2  0  0  0  0
 12 13  1  0  0  0  0
 12 38  1  0  0  0  0
 13 14  1  0  0  0  0
 14 26  1  0  0  0  0
 14 21  1  0  0  0  0
 14 15  1  0  0  0  0
 15 16  1  0  0  0  0
 16 27  1  0  0  0  0
 16 17  1  0  0  0  0
 16 19  1  0  0  0  0
 17 18  1  0  0  0  0
 17 39  1  0  0  0  0
 17 40  1  0  0  0  0
 18 41  1  0  0  0  0
 19 28  1  0  0  0  0
 19 20  1  0  0  0  0
 19 21  1  0  0  0  0
 20 42  1  0  0  0  0
 21 29  1  0  0  0  0
 21 22  1  0  0  0  0
 22 43  1  0  0  0  0
 23 24  2  0  0  0  0
 23 25  1  0  0  0  0
M  CHG  1  25  -1
M  END
> <s_m_source_file>
AV-unprocessed.smi

> <i_m_source_file_index>
54

> <i_lp_mmshare_version>
43012

> <i_f3d_flags>
0

> <s_epik_input>
W0NIM11bQ0hdKFtDSDNdKUMoPU8pW05IXWMobjEpW25IXWMoPU8pYyhjMTIpbltjSF1uMltDQEBIXTNPW0NASF0oW0NIMl1bT0hdKVtDQEBIXShbT0hdKVtDQEhdM1tPSF0=

> <s_epik_cmdline>
J2VwaWtfcHl0aG9uJywgJy1waCcsICc3LjAnLCAnLXRuJywgJzgnLCAnLW1hJywgJzIwMCcsICctbWV0YWxfYmluZGluZycsICctaW1hZScsICc8aW5maWxlLm1hZT4nLCAnLW9tYWUnLCAnPG91dGZpbGUubWFlPic=

> <r_lp_tautomer_probability>
0.85571

> <r_epik_Ionization_Penalty>
1.75936

> <r_epik_Ionization_Penalty_Charging>
4.55893e-11

> <r_epik_Ionization_Penalty_Neutral>
1.75936

> <r_epik_State_Penalty>
1.72072

> <r_epik_Charging_Adjusted_Penalty>
1.72072

> <i_epik_Tot_Q>
-1

> <i_epik_Tot_abs_Q>
1

> <r_epik_Metal_State_Penalty>
0.400338

> <b_epik_Metal_Only>
1

> <s_epik_Chemistry_Notes>
This compound contains an acetal/aminal-like group ( X-CH(R)-Y where X, Y are N, S, or O) that may be acid/base labile, releasing an aldehyde.

> <s_lp_Force_Field>
OPLS_2005

> <r_lp_Energy>
59.2625

> <b_lp_Chiralities_Consistent>
1

> <s_lp_Variant>
AV-unprocessed.smi:54-24

> <Gold.Version>
5.8.1

> <Gold.Id.Protein>
6NUR|6NUR_protein|mol2

> <Gold.PLP.Fitness>
50.1623

> <Gold.PLP.PLP>
-36.8478

> <Gold.PLP.part.hbond>
-7.5824

> <Gold.PLP.part.metal>
0.0000

> <Gold.PLP.part.buried>
2.2408

> <Gold.PLP.part.nonpolar>
-30.6826

> <Gold.PLP.part.repulsive>
0.1591

> <Gold.PLP.ligand.clash>
0.0000

> <Gold.PLP.ligand.torsion>
0.8373

> <Gold.PLP.Chemscore.Hbond>
4.0142

> <Gold.PLP.Chemscore.CHOScore>
0.9665

> <Gold.PLP.Chemscore.Metal>
0.0000

> <Gold.Chemscore.Hbonds>
donor molecule, donor type, donor heavy atom, donor atom, acceptor molecule, acceptor atom, score
      L1  H    18    41       P1  8028  0.81
      L1  H    20    42       P1 10175  0.70
      P1  H  8011  8017       L1    22  0.39
      P1  H 10752 10763       L1    11  1.00
      L1  C    12    38       P1  7948  0.65

> <Gold.PLP.Chemscore.Internal.Correction>
0.0470

> <Gold.Rescore>
     Score         DG    S(hbond)    S(metal)    S(lipo)     H(rot)  DE(clash)    DE(int)     intcor
      7.95     -14.93       3.51        0.00      68.46       4.02       2.10       4.88       ----

> <Gold.Chemscore.Fitness>
7.9523

> <Gold.Chemscore.DG>
-14.9269

> <Gold.Chemscore.ZeroCoef>
-5.4800

> <Gold.Chemscore.Hbond>
3.5108

> <Gold.Chemscore.Metal>
0.0000

> <Gold.Chemscore.Lipo>
68.4618

> <Gold.Chemscore.Internal_Hbond>
0.0000

> <Gold.Chemscore.DEClash>
2.0991

> <Gold.Chemscore.DEInternal>
4.8755

> <Gold.Chemscore.Rot>
4.0192

> <Gold.Chemscore.Internal.Correction>
   9.000000E+99

> <Gold.Chemscore.Hbonds>
donor molecule, donor type, donor heavy atom, donor atom, acceptor molecule, acceptor atom, score
      L1  H    18    41       P1  8028  0.80
      L1  H    20    42       P1 10175  0.42
      P1  H  8011  8017       L1    22  0.27
      P1  H 10752 10763       L1    11  0.34

> <Gold.Chemscore.Hbond.Weighted>
-11.7262

> <Gold.Chemscore.Metal.Weighted>
-0.0000

> <Gold.Chemscore.Lipo.Weighted>
-8.0100

> <Gold.Chemscore.Internal_Hbond.Weighted>
0.0000

> <Gold.Chemscore.DEClash.Weighted>
2.0991

> <Gold.Chemscore.DEInternal.Weighted>
4.8755

> <Gold.Chemscore.Rot.Weighted>
10.2893

> <Gold.Chemscore.Internal.Correction.Weighted>
   9.000000E+99

> <Gold.Protein.RotatedTorsions>
[ 6907 6896 6895 6894 ] final -116.15 input  -60.11 | X-H torsion
[ 7974 7965 7964 7962 ] final   56.13 input  175.53 | X-H torsion
[ 8008 7997 7996 7995 ] final -113.63 input   59.86 | X-H torsion
[ 10167 10162 10161 10158 ] final  -60.48 input  -65.29 | X-H torsion
[ 10718 10713 10712 10709 ] final  -66.95 input   66.30 | X-H torsion
[ 10763 10752 10751 10750 ] final   69.54 input  -60.55 | X-H torsion
[ 11005 11000 10999 10996 ] final -158.66 input  -57.11 | X-H torsion

> <Gold.Protein.ActiveResidues>
 VAL166  LYS551  ARG553  GLY616  TRP617  ASP618  TYR619  PRO620  LYS621  CYS622 
 ASP623  PHE694  ASN695  SER759  ASP760  ASP761  ALA762  ILE779  LEU786  VAL792 
 PHE793  MET794  SER795  GLU796  ALA797  LYS798  CYS799  TRP800  GLU811  SER814 

> <Gold.Protein.RotatedAtoms>
  150.8033  133.8557  159.3217 H   0  0  0  0  0  0  0  0  0  0  0  0  # atno 6907 bound_to 6896
  151.6363  135.1016  160.0142 H   0  0  0  0  0  0  0  0  0  0  0  0  # atno 6908 bound_to 6896
  152.4122  133.6942  159.6443 H   0  0  0  0  0  0  0  0  0  0  0  0  # atno 6909 bound_to 6896
  145.9431  139.3905  143.0352 H   0  0  0  0  0  0  0  0  0  0  0  0  # atno 7974 bound_to 7965
  155.0237  140.0393  157.2447 H   0  0  0  0  0  0  0  0  0  0  0  0  # atno 8008 bound_to 7997
  154.7356  140.2739  155.6394 H   0  0  0  0  0  0  0  0  0  0  0  0  # atno 8009 bound_to 7997
  156.2852  140.2675  156.2068 H   0  0  0  0  0  0  0  0  0  0  0  0  # atno 8010 bound_to 7997
  140.6068  143.2376  151.5801 H   0  0  0  0  0  0  0  0  0  0  0  0  # atno 10167 bound_to 10162
  156.0584  130.4270  150.1783 H   0  0  0  0  0  0  0  0  0  0  0  0  # atno 10718 bound_to 10713
  153.0292  135.5207  154.7304 H   0  0  0  0  0  0  0  0  0  0  0  0  # atno 10763 bound_to 10752
  154.6333  135.2903  155.0193 H   0  0  0  0  0  0  0  0  0  0  0  0  # atno 10764 bound_to 10752
  154.1137  135.6618  153.4942 H   0  0  0  0  0  0  0  0  0  0  0  0  # atno 10765 bound_to 10752
  140.6512  134.4449  157.5235 H   0  0  0  0  0  0  0  0  0  0  0  0  # atno 11005 bound_to 11000
  145.8273  140.9648  143.0867 LP  0  0  0  0  0  0  0  0  0  0  0  0  # atno 17320 bound_to 7965
  144.6782  140.0118  143.7484 LP  0  0  0  0  0  0  0  0  0  0  0  0  # atno 17321 bound_to 7965
  139.5331  144.2858  152.1192 LP  0  0  0  0  0  0  0  0  0  0  0  0  # atno 17342 bound_to 10162
  140.2049  144.4621  150.6413 LP  0  0  0  0  0  0  0  0  0  0  0  0  # atno 17343 bound_to 10162
  156.9855  130.9877  151.3427 LP  0  0  0  0  0  0  0  0  0  0  0  0  # atno 17370 bound_to 10713
  157.5573  130.8222  149.8221 LP  0  0  0  0  0  0  0  0  0  0  0  0  # atno 17371 bound_to 10713
  139.9045  134.8480  156.1760 LP  0  0  0  0  0  0  0  0  0  0  0  0  # atno 17394 bound_to 11000
  141.0535  133.6876  156.1817 LP  0  0  0  0  0  0  0  0  0  0  0  0  # atno 17395 bound_to 11000

$$$$
