AV-unprocessed.smi:3188|AV-procd|sdf|12185|dock7
  -GOLD-   2272018 23D 1   1.00000     0.00000
 Structure written by MMmdl.
 40 41  0  0  0  0  0  0  0  0  2 V2000
  150.3794  140.5736  156.8847 C   0  0  0  0  0  0  0  0  0  0  0  0
  151.1186  141.5313  157.8057 C   0  0  0  0  0  0  0  0  0  0  0  0
  152.2692  141.1405  158.3862 C   0  0  0  0  0  0  0  0  0  0  0  0
  153.1287  142.0261  159.2582 C   0  0  0  0  0  0  0  0  0  0  0  0
  152.8297  143.5048  159.0023 C   0  0  0  0  0  0  0  0  0  0  0  0
  151.3199  143.7891  159.0532 C   0  0  1  0  0  0  0  0  0  0  0  0
  151.0793  145.3023  158.8890 C   0  0  0  0  0  0  0  0  0  0  0  0
  150.5211  142.9391  158.0168 C   0  0  2  0  0  0  0  0  0  0  0  0
  149.0187  142.9048  158.4042 C   0  0  0  0  0  0  0  0  0  0  0  0
  148.1369  142.6359  157.2509 N   0  3  0  0  0  0  0  0  0  0  0  0
  146.7008  142.8540  157.5152 C   0  0  0  0  0  0  0  0  0  0  0  0
  145.8993  142.9597  156.2082 C   0  0  0  0  0  0  0  0  0  0  0  0
  146.4146  142.0658  155.1866 N   0  0  0  0  0  0  0  0  0  0  0  0
  147.3081  142.3434  154.1732 C   0  0  0  0  0  0  0  0  0  0  0  0
  147.4080  141.1566  153.5049 C   0  0  0  0  0  0  0  0  0  0  0  0
  146.5829  140.2222  154.1282 N   0  0  0  0  0  0  0  0  0  0  0  0
  145.9962  140.7783  155.1404 N   0  0  0  0  0  0  0  0  0  0  0  0
  150.1481  141.0559  155.9348 H   0  0  0  0  0  0  0  0  0  0  0  0
  149.4530  140.2271  157.3426 H   0  0  0  0  0  0  0  0  0  0  0  0
  150.9802  139.6901  156.6656 H   0  0  0  0  0  0  0  0  0  0  0  0
  152.6401  140.1380  158.2274 H   0  0  0  0  0  0  0  0  0  0  0  0
  152.9505  141.7677  160.3024 H   0  0  0  0  0  0  0  0  0  0  0  0
  154.1794  141.8213  159.0514 H   0  0  0  0  0  0  0  0  0  0  0  0
  153.3589  144.1122  159.7378 H   0  0  0  0  0  0  0  0  0  0  0  0
  153.2221  143.7922  158.0255 H   0  0  0  0  0  0  0  0  0  0  0  0
  150.9816  143.5081  160.0520 H   0  0  0  0  0  0  0  0  0  0  0  0
  151.3837  145.6457  157.8997 H   0  0  0  0  0  0  0  0  0  0  0  0
  151.6534  145.8694  159.6225 H   0  0  0  0  0  0  0  0  0  0  0  0
  150.0349  145.5766  159.0277 H   0  0  0  0  0  0  0  0  0  0  0  0
  150.6130  143.4393  157.0513 H   0  0  0  0  0  0  0  0  0  0  0  0
  148.8584  142.1485  159.1741 H   0  0  0  0  0  0  0  0  0  0  0  0
  148.6969  143.8521  158.8334 H   0  0  0  0  0  0  0  0  0  0  0  0
  148.4216  143.2181  156.4762 H   0  0  0  0  0  0  0  0  0  0  0  0
  146.3105  142.0339  158.1198 H   0  0  0  0  0  0  0  0  0  0  0  0
  146.5828  143.7669  158.1000 H   0  0  0  0  0  0  0  0  0  0  0  0
  144.8557  142.7006  156.3901 H   0  0  0  0  0  0  0  0  0  0  0  0
  145.9065  143.9840  155.8315 H   0  0  0  0  0  0  0  0  0  0  0  0
  147.7672  143.3094  154.0219 H   0  0  0  0  0  0  0  0  0  0  0  0
  147.9957  140.8999  152.6357 H   0  0  0  0  0  0  0  0  0  0  0  0
  148.2612  141.6683  156.9878 H   0  0  0  0  0  0  0  0  0  0  0  0
  1  2  1  0  0  0  0
  1 18  1  0  0  0  0
  1 19  1  0  0  0  0
  1 20  1  0  0  0  0
  2  8  1  0  0  0  0
  2  3  2  0  0  0  0
  3  4  1  0  0  0  0
  3 21  1  0  0  0  0
  4  5  1  0  0  0  0
  4 22  1  0  0  0  0
  4 23  1  0  0  0  0
  5  6  1  0  0  0  0
  5 24  1  0  0  0  0
  5 25  1  0  0  0  0
  6  7  1  0  0  0  0
  6  8  1  0  0  0  0
  6 26  1  0  0  0  0
  7 27  1  0  0  0  0
  7 28  1  0  0  0  0
  7 29  1  0  0  0  0
  8  9  1  0  0  0  0
  8 30  1  0  0  0  0
  9 10  1  0  0  0  0
  9 31  1  0  0  0  0
  9 32  1  0  0  0  0
 10 11  1  0  0  0  0
 10 33  1  0  0  0  0
 10 40  1  0  0  0  0
 11 12  1  0  0  0  0
 11 34  1  0  0  0  0
 11 35  1  0  0  0  0
 12 13  1  0  0  0  0
 12 36  1  0  0  0  0
 12 37  1  0  0  0  0
 13 17  1  0  0  0  0
 13 14  1  0  0  0  0
 14 15  2  0  0  0  0
 14 38  1  0  0  0  0
 15 16  1  0  0  0  0
 15 39  1  0  0  0  0
 16 17  2  0  0  0  0
M  CHG  1  10   1
M  END
> <s_m_source_file>
AV-unprocessed.smi

> <i_m_source_file_index>
3188

> <i_lp_mmshare_version>
43012

> <i_f3d_flags>
0

> <s_epik_input>
W0NIM11DMT1bQ0hdW0NIMl1bQ0gyXVtDQEBIXShbQ0gzXSlbQ0BIXTFbQ0gyXVtOSF1bQ0gyXVtDSDJdbjJbY0hdW2NIXW5uMg==

> <s_epik_cmdline>
J2VwaWtfcHl0aG9uJywgJy1waCcsICc3LjAnLCAnLXRuJywgJzgnLCAnLW1hJywgJzIwMCcsICctbWV0YWxfYmluZGluZycsICctaW1hZScsICc8aW5maWxlLm1hZT4nLCAnLW9tYWUnLCAnPG91dGZpbGUubWFlPic=

> <r_lp_tautomer_probability>
1

> <r_epik_Ionization_Penalty>
0.007268

> <r_epik_Ionization_Penalty_Charging>
0.00726786

> <r_epik_Ionization_Penalty_Neutral>
1.34882e-07

> <r_epik_State_Penalty>
0.00542069

> <r_epik_Charging_Adjusted_Penalty>
0.0126886

> <i_epik_Tot_Q>
1

> <i_epik_Tot_abs_Q>
1

> <r_epik_Metal_State_Penalty>
-0

> <b_epik_Metal_Only>
0

> <s_lp_Force_Field>
OPLS_2005

> <r_lp_Energy>
14.3192

> <b_lp_Chiralities_Consistent>
1

> <s_lp_Variant>
AV-unprocessed.smi:3188-3

> <Gold.Version>
5.8.1

> <Gold.Id.Protein>
6NUR|6NUR_protein|mol2

> <Gold.PLP.Fitness>
44.1433

> <Gold.PLP.PLP>
-33.6447

> <Gold.PLP.part.hbond>
-1.0199

> <Gold.PLP.part.metal>
0.0000

> <Gold.PLP.part.buried>
-3.3472

> <Gold.PLP.part.nonpolar>
-27.9294

> <Gold.PLP.part.repulsive>
0.2424

> <Gold.PLP.ligand.clash>
0.0000

> <Gold.PLP.ligand.torsion>
0.7767

> <Gold.PLP.Chemscore.Hbond>
2.0000

> <Gold.PLP.Chemscore.CHOScore>
1.9931

> <Gold.PLP.Chemscore.Metal>
0.0000

> <Gold.Chemscore.Hbonds>
donor molecule, donor type, donor heavy atom, donor atom, acceptor molecule, acceptor atom, score
      L1  H    10    33       P1  8028  2.00
      L1  C    14    38       P1  8028  0.99
      L1  C    15    39       P1  7957  1.00

> <Gold.PLP.Chemscore.Internal.Correction>
0.0728

> <Gold.Rescore>
     Score         DG    S(hbond)    S(metal)    S(lipo)     H(rot)  DE(clash)    DE(int)     intcor
     13.35     -14.25       0.75        0.00      92.58       1.78       0.02       0.88       ----

> <Gold.Chemscore.Fitness>
13.3534

> <Gold.Chemscore.DG>
-14.2510

> <Gold.Chemscore.ZeroCoef>
-5.4800

> <Gold.Chemscore.Hbond>
0.7478

> <Gold.Chemscore.Metal>
0.0000

> <Gold.Chemscore.Lipo>
92.5827

> <Gold.Chemscore.Internal_Hbond>
0.0000

> <Gold.Chemscore.DEClash>
0.0203

> <Gold.Chemscore.DEInternal>
0.8772

> <Gold.Chemscore.Rot>
1.7809

> <Gold.Chemscore.Internal.Correction>
   9.000000E+99

> <Gold.Chemscore.Hbonds>
donor molecule, donor type, donor heavy atom, donor atom, acceptor molecule, acceptor atom, score
      L1  H    10    33       P1  8028  0.64

> <Gold.Chemscore.Hbond.Weighted>
-2.4978

> <Gold.Chemscore.Metal.Weighted>
-0.0000

> <Gold.Chemscore.Lipo.Weighted>
-10.8322

> <Gold.Chemscore.Internal_Hbond.Weighted>
0.0000

> <Gold.Chemscore.DEClash.Weighted>
0.0203

> <Gold.Chemscore.DEInternal.Weighted>
0.8772

> <Gold.Chemscore.Rot.Weighted>
4.5590

> <Gold.Chemscore.Internal.Correction.Weighted>
   9.000000E+99

> <Gold.Protein.RotatedTorsions>
[ 6907 6896 6895 6894 ] final -162.27 input  -60.11 | X-H torsion
[ 7974 7965 7964 7962 ] final  115.50 input  175.53 | X-H torsion
[ 8008 7997 7996 7995 ] final  171.08 input   59.86 | X-H torsion
[ 10167 10162 10161 10158 ] final -175.75 input  -65.29 | X-H torsion
[ 10718 10713 10712 10709 ] final   -4.85 input   66.30 | X-H torsion
[ 10763 10752 10751 10750 ] final  -55.81 input  -60.55 | X-H torsion
[ 11005 11000 10999 10996 ] final -143.40 input  -57.11 | X-H torsion

> <Gold.Protein.ActiveResidues>
 VAL166  LYS551  ARG553  GLY616  TRP617  ASP618  TYR619  PRO620  LYS621  CYS622 
 ASP623  PHE694  ASN695  SER759  ASP760  ASP761  ALA762  ILE779  LEU786  VAL792 
 PHE793  MET794  SER795  GLU796  ALA797  LYS798  CYS799  TRP800  GLU811  SER814 

> <Gold.Protein.RotatedAtoms>
  151.3776  133.3832  159.2706 H   0  0  0  0  0  0  0  0  0  0  0  0  # atno 6907 bound_to 6896
  150.9602  134.8992  159.7736 H   0  0  0  0  0  0  0  0  0  0  0  0  # atno 6908 bound_to 6896
  152.5146  134.3735  159.9378 H   0  0  0  0  0  0  0  0  0  0  0  0  # atno 6909 bound_to 6896
  145.1911  139.2999  143.4367 H   0  0  0  0  0  0  0  0  0  0  0  0  # atno 7974 bound_to 7965
  156.1305  140.1521  156.9073 H   0  0  0  0  0  0  0  0  0  0  0  0  # atno 8008 bound_to 7997
  154.4905  140.0852  156.7623 H   0  0  0  0  0  0  0  0  0  0  0  0  # atno 8009 bound_to 7997
  155.4265  140.3425  155.4278 H   0  0  0  0  0  0  0  0  0  0  0  0  # atno 8010 bound_to 7997
  139.5565  144.1977  152.1167 H   0  0  0  0  0  0  0  0  0  0  0  0  # atno 10167 bound_to 10162
  156.7552  130.5252  149.5796 H   0  0  0  0  0  0  0  0  0  0  0  0  # atno 10718 bound_to 10713
  154.1967  135.6418  153.5075 H   0  0  0  0  0  0  0  0  0  0  0  0  # atno 10763 bound_to 10752
  153.0021  135.5441  154.6358 H   0  0  0  0  0  0  0  0  0  0  0  0  # atno 10764 bound_to 10752
  154.5760  135.2921  155.0753 H   0  0  0  0  0  0  0  0  0  0  0  0  # atno 10765 bound_to 10752
  140.8129  134.2723  157.4933 H   0  0  0  0  0  0  0  0  0  0  0  0  # atno 11005 bound_to 11000
  146.3436  140.2124  142.8590 LP  0  0  0  0  0  0  0  0  0  0  0  0  # atno 17320 bound_to 7965
  145.0040  140.8656  143.5264 LP  0  0  0  0  0  0  0  0  0  0  0  0  # atno 17321 bound_to 7965
  140.1482  144.5139  150.6703 LP  0  0  0  0  0  0  0  0  0  0  0  0  # atno 17342 bound_to 10162
  140.6838  143.2340  151.5314 LP  0  0  0  0  0  0  0  0  0  0  0  0  # atno 17343 bound_to 10162
  156.1375  130.6221  151.0421 LP  0  0  0  0  0  0  0  0  0  0  0  0  # atno 17370 bound_to 10713
  157.6759  131.0850  150.7495 LP  0  0  0  0  0  0  0  0  0  0  0  0  # atno 17371 bound_to 10713
  139.8713  134.9493  156.4021 LP  0  0  0  0  0  0  0  0  0  0  0  0  # atno 17394 bound_to 11000
  140.9179  133.7665  155.9871 LP  0  0  0  0  0  0  0  0  0  0  0  0  # atno 17395 bound_to 11000

$$$$
