AV-unprocessed.smi:2820|AV-procd|sdf|10855|dock1
  -GOLD-   2272015303D 1   1.00000     0.00000
 Structure written by MMmdl.
 30 31  0  0  0  0  0  0  0  0  2 V2000
  151.1476  138.3017  153.9745 C   0  0  0  0  0  0  0  0  0  0  0  0
  150.6718  139.6722  153.8818 N   0  0  0  0  0  0  0  0  0  0  0  0
  150.8276  140.5589  154.9558 C   0  0  0  0  0  0  0  0  0  0  0  0
  151.7571  140.2445  155.9709 C   0  0  0  0  0  0  0  0  0  0  0  0
  151.9284  141.1234  157.0602 C   0  0  0  0  0  0  0  0  0  0  0  0
  151.1635  142.3108  157.1187 C   0  0  0  0  0  0  0  0  0  0  0  0
  151.2617  143.2436  158.1594 N   0  0  0  0  0  0  0  0  0  0  0  0
  151.9945  144.4459  157.7832 C   0  0  0  0  0  0  0  0  0  0  0  0
  152.1514  145.3703  159.0030 C   0  0  0  0  0  0  0  0  0  0  0  0
  150.8673  145.6633  159.5458 O   0  0  0  0  0  0  0  0  0  0  0  0
  150.1900  144.4887  159.9831 C   0  0  0  0  0  0  0  0  0  0  0  0
  149.9812  143.5421  158.7884 C   0  0  0  0  0  0  0  0  0  0  0  0
  150.2841  142.5772  156.1286 N   0  3  0  0  0  0  0  0  0  0  0  0
  150.0907  141.7617  155.0691 C   0  0  0  0  0  0  0  0  0  0  0  0
  150.9355  137.7719  153.0457 H   0  0  0  0  0  0  0  0  0  0  0  0
  150.6506  137.7721  154.7878 H   0  0  0  0  0  0  0  0  0  0  0  0
  152.2248  138.2750  154.1415 H   0  0  0  0  0  0  0  0  0  0  0  0
  150.2237  139.9774  153.0294 H   0  0  0  0  0  0  0  0  0  0  0  0
  152.3375  139.3347  155.9189 H   0  0  0  0  0  0  0  0  0  0  0  0
  152.6386  140.8835  157.8381 H   0  0  0  0  0  0  0  0  0  0  0  0
  152.9757  144.1741  157.3916 H   0  0  0  0  0  0  0  0  0  0  0  0
  151.4624  144.9706  156.9885 H   0  0  0  0  0  0  0  0  0  0  0  0
  152.7830  144.9083  159.7636 H   0  0  0  0  0  0  0  0  0  0  0  0
  152.6350  146.3021  158.7100 H   0  0  0  0  0  0  0  0  0  0  0  0
  150.7613  143.9993  160.7735 H   0  0  0  0  0  0  0  0  0  0  0  0
  149.2289  144.7713  160.4126 H   0  0  0  0  0  0  0  0  0  0  0  0
  149.3107  144.0058  158.0637 H   0  0  0  0  0  0  0  0  0  0  0  0
  149.5084  142.6175  159.1223 H   0  0  0  0  0  0  0  0  0  0  0  0
  149.3554  142.1030  154.3552 H   0  0  0  0  0  0  0  0  0  0  0  0
  149.7382  143.4374  156.1831 H   0  0  0  0  0  0  0  0  0  0  0  0
  1  2  1  0  0  0  0
  1 15  1  0  0  0  0
  1 16  1  0  0  0  0
  1 17  1  0  0  0  0
  2  3  1  0  0  0  0
  2 18  1  0  0  0  0
  3 14  1  0  0  0  0
  3  4  2  0  0  0  0
  4  5  1  0  0  0  0
  4 19  1  0  0  0  0
  5  6  2  0  0  0  0
  5 20  1  0  0  0  0
  6  7  1  0  0  0  0
  6 13  1  0  0  0  0
  7 12  1  0  0  0  0
  7  8  1  0  0  0  0
  8  9  1  0  0  0  0
  8 21  1  0  0  0  0
  8 22  1  0  0  0  0
  9 10  1  0  0  0  0
  9 23  1  0  0  0  0
  9 24  1  0  0  0  0
 10 11  1  0  0  0  0
 11 12  1  0  0  0  0
 11 25  1  0  0  0  0
 11 26  1  0  0  0  0
 12 27  1  0  0  0  0
 12 28  1  0  0  0  0
 13 14  2  0  0  0  0
 13 30  1  0  0  0  0
 14 29  1  0  0  0  0
M  CHG  1  13   1
M  END
> <s_m_source_file>
AV-unprocessed.smi

> <i_m_source_file_index>
2820

> <i_lp_mmshare_version>
43012

> <i_f3d_flags>
0

> <s_epik_input>
W0NIM11bTkhdYzFbY0hdW2NIXWMobltjSF0xKU4yW0NIMl1bQ0gyXU9bQ0gyXVtDSDJdMg==

> <s_epik_cmdline>
J2VwaWtfcHl0aG9uJywgJy1waCcsICc3LjAnLCAnLXRuJywgJzgnLCAnLW1hJywgJzIwMCcsICctbWV0YWxfYmluZGluZycsICctaW1hZScsICc8aW5maWxlLm1hZT4nLCAnLW9tYWUnLCAnPG91dGZpbGUubWFlPic=

> <r_lp_tautomer_probability>
0.999846

> <r_epik_Ionization_Penalty>
1.60145

> <r_epik_Ionization_Penalty_Charging>
1.60145

> <r_epik_Ionization_Penalty_Neutral>
8.44735e-08

> <r_epik_State_Penalty>
1.69965

> <r_epik_Charging_Adjusted_Penalty>
3.3011

> <i_epik_Tot_Q>
1

> <i_epik_Tot_abs_Q>
1

> <r_epik_Metal_State_Penalty>
5.75781

> <b_epik_Metal_Only>
0

> <s_lp_Force_Field>
OPLS_2005

> <r_lp_Energy>
26.3697

> <b_lp_Chiralities_Consistent>
1

> <s_lp_Variant>
AV-unprocessed.smi:2820-2

> <Gold.Version>
5.8.1

> <Gold.Id.Protein>
6NUR|6NUR_protein|mol2

> <Gold.PLP.Fitness>
39.9027

> <Gold.PLP.PLP>
-31.4224

> <Gold.PLP.part.hbond>
-3.5863

> <Gold.PLP.part.metal>
0.0000

> <Gold.PLP.part.buried>
-2.3376

> <Gold.PLP.part.nonpolar>
-26.0057

> <Gold.PLP.part.repulsive>
1.3355

> <Gold.PLP.ligand.clash>
0.0000

> <Gold.PLP.ligand.torsion>
0.2954

> <Gold.PLP.Chemscore.Hbond>
2.9920

> <Gold.PLP.Chemscore.CHOScore>
0.0000

> <Gold.PLP.Chemscore.Metal>
0.0000

> <Gold.Chemscore.Hbonds>
donor molecule, donor type, donor heavy atom, donor atom, acceptor molecule, acceptor atom, score
      L1  H     2    18       P1  7957  1.00
      L1  H    13    30       P1  8028  2.00

> <Gold.PLP.Chemscore.Internal.Correction>
0.0951

> <Gold.Rescore>
     Score         DG    S(hbond)    S(metal)    S(lipo)     H(rot)  DE(clash)    DE(int)     intcor
     18.01     -18.48       1.96        0.00      77.07       1.00       0.17       0.30       ----

> <Gold.Chemscore.Fitness>
18.0100

> <Gold.Chemscore.DG>
-18.4815

> <Gold.Chemscore.ZeroCoef>
-5.4800

> <Gold.Chemscore.Hbond>
1.9595

> <Gold.Chemscore.Metal>
0.0000

> <Gold.Chemscore.Lipo>
77.0656

> <Gold.Chemscore.Internal_Hbond>
0.0000

> <Gold.Chemscore.DEClash>
0.1700

> <Gold.Chemscore.DEInternal>
0.3015

> <Gold.Chemscore.Rot>
1.0000

> <Gold.Chemscore.Internal.Correction>
   9.000000E+99

> <Gold.Chemscore.Hbonds>
donor molecule, donor type, donor heavy atom, donor atom, acceptor molecule, acceptor atom, score
      L1  H     2    18       P1  7957  0.98
      L1  H    13    30       P1  8028  0.99

> <Gold.Chemscore.Hbond.Weighted>
-6.5448

> <Gold.Chemscore.Metal.Weighted>
-0.0000

> <Gold.Chemscore.Lipo.Weighted>
-9.0167

> <Gold.Chemscore.Internal_Hbond.Weighted>
0.0000

> <Gold.Chemscore.DEClash.Weighted>
0.1700

> <Gold.Chemscore.DEInternal.Weighted>
0.3015

> <Gold.Chemscore.Rot.Weighted>
2.5600

> <Gold.Chemscore.Internal.Correction.Weighted>
   9.000000E+99

> <Gold.Protein.RotatedTorsions>
[ 6907 6896 6895 6894 ] final  -66.28 input  -60.11 | X-H torsion
[ 7974 7965 7964 7962 ] final -165.79 input  175.53 | X-H torsion
[ 8008 7997 7996 7995 ] final  107.70 input   59.86 | X-H torsion
[ 10167 10162 10161 10158 ] final -141.78 input  -65.29 | X-H torsion
[ 10718 10713 10712 10709 ] final  149.07 input   66.30 | X-H torsion
[ 10763 10752 10751 10750 ] final -174.92 input  -60.55 | X-H torsion
[ 11005 11000 10999 10996 ] final  160.18 input  -57.11 | X-H torsion

> <Gold.Protein.ActiveResidues>
 VAL166  LYS551  ARG553  GLY616  TRP617  ASP618  TYR619  PRO620  LYS621  CYS622 
 ASP623  PHE694  ASN695  SER759  ASP760  ASP761  ALA762  ILE779  LEU786  VAL792 
 PHE793  MET794  SER795  GLU796  ALA797  LYS798  CYS799  TRP800  GLU811  SER814 

> <Gold.Protein.RotatedAtoms>
  150.7474  134.6043  159.6052 H   0  0  0  0  0  0  0  0  0  0  0  0  # atno 6907 bound_to 6896
  152.3395  134.7150  160.0276 H   0  0  0  0  0  0  0  0  0  0  0  0  # atno 6908 bound_to 6896
  151.7607  133.3297  159.3453 H   0  0  0  0  0  0  0  0  0  0  0  0  # atno 6909 bound_to 6896
  144.7261  140.2762  143.6243 H   0  0  0  0  0  0  0  0  0  0  0  0  # atno 7974 bound_to 7965
  156.1845  140.3090  155.9211 H   0  0  0  0  0  0  0  0  0  0  0  0  # atno 8008 bound_to 7997
  155.3312  140.0461  157.3059 H   0  0  0  0  0  0  0  0  0  0  0  0  # atno 8009 bound_to 7997
  154.5380  140.2252  155.8700 H   0  0  0  0  0  0  0  0  0  0  0  0  # atno 8010 bound_to 7997
  139.8152  143.7648  152.2665 H   0  0  0  0  0  0  0  0  0  0  0  0  # atno 10167 bound_to 10162
  157.3007  131.0870  151.1392 H   0  0  0  0  0  0  0  0  0  0  0  0  # atno 10718 bound_to 10713
  154.5906  135.2844  155.0640 H   0  0  0  0  0  0  0  0  0  0  0  0  # atno 10763 bound_to 10752
  154.1942  135.6435  153.5072 H   0  0  0  0  0  0  0  0  0  0  0  0  # atno 10764 bound_to 10752
  153.0120  135.5453  154.6590 H   0  0  0  0  0  0  0  0  0  0  0  0  # atno 10765 bound_to 10752
  140.2034  134.8321  157.3043 H   0  0  0  0  0  0  0  0  0  0  0  0  # atno 11005 bound_to 11000
  145.7994  139.1958  143.2057 LP  0  0  0  0  0  0  0  0  0  0  0  0  # atno 17320 bound_to 7965
  146.0689  140.7890  142.9698 LP  0  0  0  0  0  0  0  0  0  0  0  0  # atno 17321 bound_to 7965
  139.7810  144.7444  151.0089 LP  0  0  0  0  0  0  0  0  0  0  0  0  # atno 17342 bound_to 10162
  140.7816  143.4543  151.0369 LP  0  0  0  0  0  0  0  0  0  0  0  0  # atno 17343 bound_to 10162
  157.2752  130.6723  149.6039 LP  0  0  0  0  0  0  0  0  0  0  0  0  # atno 17370 bound_to 10713
  155.9671  130.4467  150.5550 LP  0  0  0  0  0  0  0  0  0  0  0  0  # atno 17371 bound_to 10713
  140.2029  134.4232  155.7653 LP  0  0  0  0  0  0  0  0  0  0  0  0  # atno 17394 bound_to 11000
  141.2227  133.7081  156.8213 LP  0  0  0  0  0  0  0  0  0  0  0  0  # atno 17395 bound_to 11000

$$$$
