AV-unprocessed.smi:772|AV-procd|sdf|3686|dock7
  -GOLD-   22720 1103D 1   1.00000     0.00000
 Structure written by MMmdl.
 46 47  0  0  0  0  0  0  0  0  1 V2000
  151.9752  144.6711  160.6692 C   0  0  0  0  0  0  0  0  0  0  0  0
  152.3561  143.2507  160.3078 C   0  0  0  0  0  0  0  0  0  0  0  0
  153.3350  142.5534  161.0466 C   0  0  0  0  0  0  0  0  0  0  0  0
  153.6500  141.2354  160.6648 C   0  0  0  0  0  0  0  0  0  0  0  0
  152.9785  140.6674  159.5625 C   0  0  0  0  0  0  0  0  0  0  0  0
  153.2953  139.2581  159.0940 C   0  0  0  0  0  0  0  0  0  0  0  0
  152.6047  138.1627  159.9275 C   0  0  0  0  0  0  0  0  0  0  0  0
  153.4642  137.6652  160.9988 N   0  0  0  0  0  0  0  0  0  0  0  0
  154.1649  136.5174  160.9786 C   0  0  0  0  0  0  0  0  0  0  0  0
  154.1161  135.7346  160.0288 O   0  0  0  0  0  0  0  0  0  0  0  0
  154.9396  136.3063  162.0731 N   0  0  0  0  0  0  0  0  0  0  0  0
  155.1181  137.2355  163.2003 C   0  0  0  0  0  0  0  0  0  0  0  0
  154.1742  136.8228  164.3398 C   0  0  0  0  0  0  0  0  0  0  0  0
  154.5848  135.1597  164.9531 S   0  0  0  0  0  0  0  0  0  0  0  0
  154.6556  134.2379  163.3751 C   0  0  2  0  0  0  0  0  0  0  0  0
  155.0915  132.7641  163.5736 C   0  0  0  0  0  0  0  0  0  0  0  0
  155.1220  131.9885  162.2456 C   0  0  0  0  0  0  0  0  0  0  0  0
  154.2696  132.0059  164.6328 C   0  0  0  0  0  0  0  0  0  0  0  0
  155.5344  134.9938  162.3534 C   0  0  0  0  0  0  0  0  0  0  0  0
  152.0150  141.4502  158.8923 C   0  0  0  0  0  0  0  0  0  0  0  0
  151.7052  142.7142  159.2522 N   0  0  0  0  0  0  0  0  0  0  0  0
  152.5535  145.0320  161.5201 H   0  0  0  0  0  0  0  0  0  0  0  0
  150.9178  144.7256  160.9294 H   0  0  0  0  0  0  0  0  0  0  0  0
  152.1577  145.3386  159.8266 H   0  0  0  0  0  0  0  0  0  0  0  0
  153.8353  143.0153  161.8849 H   0  0  0  0  0  0  0  0  0  0  0  0
  154.4001  140.6761  161.2044 H   0  0  0  0  0  0  0  0  0  0  0  0
  153.0071  139.1579  158.0467 H   0  0  0  0  0  0  0  0  0  0  0  0
  154.3761  139.1147  159.1249 H   0  0  0  0  0  0  0  0  0  0  0  0
  151.6977  138.5653  160.3787 H   0  0  0  0  0  0  0  0  0  0  0  0
  152.2817  137.3473  159.2780 H   0  0  0  0  0  0  0  0  0  0  0  0
  153.5570  138.2541  161.8133 H   0  0  0  0  0  0  0  0  0  0  0  0
  156.1525  137.2068  163.5460 H   0  0  0  0  0  0  0  0  0  0  0  0
  154.9442  138.2771  162.9298 H   0  0  0  0  0  0  0  0  0  0  0  0
  154.2463  137.5278  165.1680 H   0  0  0  0  0  0  0  0  0  0  0  0
  153.1380  136.8324  163.9998 H   0  0  0  0  0  0  0  0  0  0  0  0
  153.6381  134.2241  162.9808 H   0  0  0  0  0  0  0  0  0  0  0  0
  156.1212  132.7871  163.9331 H   0  0  0  0  0  0  0  0  0  0  0  0
  154.1246  131.8759  161.8205 H   0  0  0  0  0  0  0  0  0  0  0  0
  155.5328  130.9884  162.3862 H   0  0  0  0  0  0  0  0  0  0  0  0
  155.7438  132.4951  161.5071 H   0  0  0  0  0  0  0  0  0  0  0  0
  153.2213  131.9196  164.3474 H   0  0  0  0  0  0  0  0  0  0  0  0
  154.3124  132.4959  165.6049 H   0  0  0  0  0  0  0  0  0  0  0  0
  154.6533  130.9945  164.7683 H   0  0  0  0  0  0  0  0  0  0  0  0
  155.6484  134.4026  161.4433 H   0  0  0  0  0  0  0  0  0  0  0  0
  156.5467  135.1257  162.7370 H   0  0  0  0  0  0  0  0  0  0  0  0
  151.4825  141.0541  158.0402 H   0  0  0  0  0  0  0  0  0  0  0  0
  1  2  1  0  0  0  0
  1 22  1  0  0  0  0
  1 23  1  0  0  0  0
  1 24  1  0  0  0  0
  2 21  1  0  0  0  0
  2  3  2  0  0  0  0
  3  4  1  0  0  0  0
  3 25  1  0  0  0  0
  4  5  2  0  0  0  0
  4 26  1  0  0  0  0
  5  6  1  0  0  0  0
  5 20  1  0  0  0  0
  6  7  1  0  0  0  0
  6 27  1  0  0  0  0
  6 28  1  0  0  0  0
  7  8  1  0  0  0  0
  7 29  1  0  0  0  0
  7 30  1  0  0  0  0
  8  9  1  0  0  0  0
  8 31  1  0  0  0  0
  9 10  2  0  0  0  0
  9 11  1  0  0  0  0
 11 19  1  0  0  0  0
 11 12  1  0  0  0  0
 12 13  1  0  0  0  0
 12 32  1  0  0  0  0
 12 33  1  0  0  0  0
 13 14  1  0  0  0  0
 13 34  1  0  0  0  0
 13 35  1  0  0  0  0
 14 15  1  0  0  0  0
 15 16  1  0  0  0  0
 15 19  1  0  0  0  0
 15 36  1  0  0  0  0
 16 17  1  0  0  0  0
 16 18  1  0  0  0  0
 16 37  1  0  0  0  0
 17 38  1  0  0  0  0
 17 39  1  0  0  0  0
 17 40  1  0  0  0  0
 18 41  1  0  0  0  0
 18 42  1  0  0  0  0
 18 43  1  0  0  0  0
 19 44  1  0  0  0  0
 19 45  1  0  0  0  0
 20 21  2  0  0  0  0
 20 46  1  0  0  0  0
M  END
> <s_m_source_file>
AV-unprocessed.smi

> <i_m_source_file_index>
772

> <i_lp_mmshare_version>
43012

> <i_f3d_flags>
0

> <s_epik_input>
W0NIM11jMVtjSF1bY0hdYyhbY0hdbjEpW0NIMl1bQ0gyXVtOSF1DKD1PKU4yW0NIMl1bQ0gyXVNbQ0BIXShbQ0gyXTIpW0NIXShbQ0gzXSlbQ0gzXQ==

> <s_epik_cmdline>
J2VwaWtfcHl0aG9uJywgJy1waCcsICc3LjAnLCAnLXRuJywgJzgnLCAnLW1hJywgJzIwMCcsICctbWV0YWxfYmluZGluZycsICctaW1hZScsICc8aW5maWxlLm1hZT4nLCAnLW9tYWUnLCAnPG91dGZpbGUubWFlPic=

> <r_epik_Ionization_Penalty>
0.0566916

> <r_epik_Ionization_Penalty_Charging>
0

> <r_epik_Ionization_Penalty_Neutral>
0.0566916

> <r_epik_State_Penalty>
0.0488669

> <r_epik_Charging_Adjusted_Penalty>
0.0488669

> <i_epik_Tot_Q>
0

> <i_epik_Tot_abs_Q>
0

> <r_epik_Metal_State_Penalty>
0.0445784

> <b_epik_Metal_Only>
0

> <s_lp_Force_Field>
OPLS_2005

> <r_lp_Energy>
25.5588

> <b_lp_Chiralities_Consistent>
1

> <s_lp_Variant>
AV-unprocessed.smi:772-2

> <Gold.Version>
5.8.1

> <Gold.Id.Protein>
6NUR|6NUR_protein|mol2

> <Gold.PLP.Fitness>
44.8295

> <Gold.PLP.PLP>
-43.1696

> <Gold.PLP.part.hbond>
-1.0000

> <Gold.PLP.part.metal>
0.0000

> <Gold.PLP.part.buried>
-2.9168

> <Gold.PLP.part.nonpolar>
-40.1132

> <Gold.PLP.part.repulsive>
0.0858

> <Gold.PLP.ligand.clash>
0.0000

> <Gold.PLP.ligand.torsion>
0.7138

> <Gold.PLP.Chemscore.Hbond>
1.0000

> <Gold.PLP.Chemscore.CHOScore>
0.0000

> <Gold.PLP.Chemscore.Metal>
0.0000

> <Gold.Chemscore.Hbonds>
donor molecule, donor type, donor heavy atom, donor atom, acceptor molecule, acceptor atom, score
      P1  H  6896  6909       L1    10  1.00

> <Gold.PLP.Chemscore.Internal.Correction>
0.0875

> <Gold.Rescore>
     Score         DG    S(hbond)    S(metal)    S(lipo)     H(rot)  DE(clash)    DE(int)     intcor
     18.94     -19.90       0.91        0.00     126.32       1.32       0.06       0.91       ----

> <Gold.Chemscore.Fitness>
18.9354

> <Gold.Chemscore.DG>
-19.9043

> <Gold.Chemscore.ZeroCoef>
-5.4800

> <Gold.Chemscore.Hbond>
0.9079

> <Gold.Chemscore.Metal>
0.0000

> <Gold.Chemscore.Lipo>
126.3208

> <Gold.Chemscore.Internal_Hbond>
0.0000

> <Gold.Chemscore.DEClash>
0.0584

> <Gold.Chemscore.DEInternal>
0.9105

> <Gold.Chemscore.Rot>
1.3233

> <Gold.Chemscore.Internal.Correction>
   9.000000E+99

> <Gold.Chemscore.Hbonds>
donor molecule, donor type, donor heavy atom, donor atom, acceptor molecule, acceptor atom, score
      P1  H  6896  6909       L1    10  0.84

> <Gold.Chemscore.Hbond.Weighted>
-3.0324

> <Gold.Chemscore.Metal.Weighted>
-0.0000

> <Gold.Chemscore.Lipo.Weighted>
-14.7795

> <Gold.Chemscore.Internal_Hbond.Weighted>
0.0000

> <Gold.Chemscore.DEClash.Weighted>
0.0584

> <Gold.Chemscore.DEInternal.Weighted>
0.9105

> <Gold.Chemscore.Rot.Weighted>
3.3876

> <Gold.Chemscore.Internal.Correction.Weighted>
   9.000000E+99

> <Gold.Protein.RotatedTorsions>
[ 6907 6896 6895 6894 ] final -178.09 input  -60.11 | X-H torsion
[ 7974 7965 7964 7962 ] final   97.56 input  175.53 | X-H torsion
[ 8008 7997 7996 7995 ] final  150.08 input   59.86 | X-H torsion
[ 10167 10162 10161 10158 ] final  155.35 input  -65.29 | X-H torsion
[ 10718 10713 10712 10709 ] final  -65.98 input   66.30 | X-H torsion
[ 10763 10752 10751 10750 ] final  -83.43 input  -60.55 | X-H torsion
[ 11005 11000 10999 10996 ] final   85.59 input  -57.11 | X-H torsion

> <Gold.Protein.ActiveResidues>
 VAL166  LYS551  ARG553  GLY616  TRP617  ASP618  TYR619  PRO620  LYS621  CYS622 
 ASP623  PHE694  ASN695  SER759  ASP760  ASP761  ALA762  ILE779  LEU786  VAL792 
 PHE793  MET794  SER795  GLU796  ALA797  LYS798  CYS799  TRP800  GLU811  SER814 

> <Gold.Protein.RotatedAtoms>
  151.6316  133.3331  159.3109 H   0  0  0  0  0  0  0  0  0  0  0  0  # atno 6907 bound_to 6896
  150.8054  134.7179  159.6650 H   0  0  0  0  0  0  0  0  0  0  0  0  # atno 6908 bound_to 6896
  152.4149  134.6064  160.0065 H   0  0  0  0  0  0  0  0  0  0  0  0  # atno 6909 bound_to 6896
  145.4238  139.2318  143.3181 H   0  0  0  0  0  0  0  0  0  0  0  0  # atno 7974 bound_to 7965
  156.2730  140.2084  156.5960 H   0  0  0  0  0  0  0  0  0  0  0  0  # atno 8008 bound_to 7997
  154.6944  140.0527  157.0419 H   0  0  0  0  0  0  0  0  0  0  0  0  # atno 8009 bound_to 7997
  155.0821  140.3188  155.4601 H   0  0  0  0  0  0  0  0  0  0  0  0  # atno 8010 bound_to 7997
  139.4821  144.5106  151.8030 H   0  0  0  0  0  0  0  0  0  0  0  0  # atno 10167 bound_to 10162
  156.0638  130.4255  150.1643 H   0  0  0  0  0  0  0  0  0  0  0  0  # atno 10718 bound_to 10713
  154.5876  135.5556  153.7247 H   0  0  0  0  0  0  0  0  0  0  0  0  # atno 10763 bound_to 10752
  153.0105  135.6335  154.1894 H   0  0  0  0  0  0  0  0  0  0  0  0  # atno 10764 bound_to 10752
  154.1835  135.2886  155.3024 H   0  0  0  0  0  0  0  0  0  0  0  0  # atno 10765 bound_to 10752
  139.8967  134.8297  156.2603 H   0  0  0  0  0  0  0  0  0  0  0  0  # atno 11005 bound_to 11000
  146.2643  140.4966  142.8840 LP  0  0  0  0  0  0  0  0  0  0  0  0  # atno 17320 bound_to 7965
  144.8228  140.6578  143.6342 LP  0  0  0  0  0  0  0  0  0  0  0  0  # atno 17321 bound_to 7965
  140.4609  144.1724  150.5906 LP  0  0  0  0  0  0  0  0  0  0  0  0  # atno 17342 bound_to 10162
  140.4486  143.2496  151.9378 LP  0  0  0  0  0  0  0  0  0  0  0  0  # atno 17343 bound_to 10162
  156.9706  130.9833  151.3459 LP  0  0  0  0  0  0  0  0  0  0  0  0  # atno 17370 bound_to 10713
  157.5666  130.8282  149.8335 LP  0  0  0  0  0  0  0  0  0  0  0  0  # atno 17371 bound_to 10713
  141.0167  133.7064  156.1200 LP  0  0  0  0  0  0  0  0  0  0  0  0  # atno 17394 bound_to 11000
  140.7291  134.4274  157.5567 LP  0  0  0  0  0  0  0  0  0  0  0  0  # atno 17395 bound_to 11000

$$$$
