AV-unprocessed.smi:741|AV-procd|sdf|3555|dock5
  -GOLD-   22720 0553D 1   1.00000     0.00000
 Structure written by MMmdl.
 42 43  0  0  0  0  0  0  0  0  2 V2000
  146.3159  133.7972  155.4599 C   0  0  0  0  0  0  0  0  0  0  0  0
  147.5077  132.8478  155.2680 C   0  0  0  0  0  0  0  0  0  0  0  0
  148.2519  133.0460  153.9334 C   0  0  1  0  0  0  0  0  0  0  0  0
  147.2990  132.8586  152.7317 C   0  0  0  0  0  0  0  0  0  0  0  0
  147.1968  131.4464  152.2897 N   0  3  0  0  0  0  0  0  0  0  0  0
  147.2850  130.4428  153.3703 C   0  0  0  0  0  0  0  0  0  0  0  0
  146.6655  129.1832  152.7763 C   0  0  0  0  0  0  0  0  0  0  0  0
  145.5240  129.7305  151.9240 C   0  0  0  0  0  0  0  0  0  0  0  0
  145.9840  131.1326  151.4990 C   0  0  0  0  0  0  0  0  0  0  0  0
  148.8692  134.3743  153.9055 N   0  0  0  0  0  0  0  0  0  0  0  0
  149.7005  134.8803  154.8284 C   0  0  0  0  0  0  0  0  0  0  0  0
  150.0830  134.2493  155.8127 O   0  0  0  0  0  0  0  0  0  0  0  0
  150.0694  136.1341  154.5140 N   0  0  0  0  0  0  0  0  0  0  0  0
  150.9344  137.0106  155.2240 C   0  0  0  0  0  0  0  0  0  0  0  0
  151.2691  138.2375  154.6144 C   0  0  0  0  0  0  0  0  0  0  0  0
  152.1124  139.1314  155.3041 C   0  0  0  0  0  0  0  0  0  0  0  0
  152.6155  138.8790  156.5307 N   0  0  0  0  0  0  0  0  0  0  0  0
  152.2825  137.7108  157.1194 C   0  0  0  0  0  0  0  0  0  0  0  0
  151.4480  136.7478  156.5171 C   0  0  0  0  0  0  0  0  0  0  0  0
  145.8574  133.6478  156.4375 H   0  0  0  0  0  0  0  0  0  0  0  0
  145.5445  133.6323  154.7075 H   0  0  0  0  0  0  0  0  0  0  0  0
  146.6290  134.8397  155.3968 H   0  0  0  0  0  0  0  0  0  0  0  0
  148.2048  133.0004  156.0928 H   0  0  0  0  0  0  0  0  0  0  0  0
  147.1632  131.8161  155.3511 H   0  0  0  0  0  0  0  0  0  0  0  0
  149.0299  132.2820  153.8857 H   0  0  0  0  0  0  0  0  0  0  0  0
  146.3028  133.2380  152.9640 H   0  0  0  0  0  0  0  0  0  0  0  0
  147.6683  133.4607  151.8998 H   0  0  0  0  0  0  0  0  0  0  0  0
  148.3104  130.2833  153.7035 H   0  0  0  0  0  0  0  0  0  0  0  0
  146.6979  130.7690  154.2304 H   0  0  0  0  0  0  0  0  0  0  0  0
  147.3938  128.6762  152.1417 H   0  0  0  0  0  0  0  0  0  0  0  0
  146.3288  128.4761  153.5352 H   0  0  0  0  0  0  0  0  0  0  0  0
  145.2967  129.0877  151.0729 H   0  0  0  0  0  0  0  0  0  0  0  0
  144.6198  129.8094  152.5293 H   0  0  0  0  0  0  0  0  0  0  0  0
  145.1883  131.8574  151.6781 H   0  0  0  0  0  0  0  0  0  0  0  0
  146.2321  131.1673  150.4379 H   0  0  0  0  0  0  0  0  0  0  0  0
  148.6156  134.9686  153.1292 H   0  0  0  0  0  0  0  0  0  0  0  0
  149.7309  136.4881  153.6313 H   0  0  0  0  0  0  0  0  0  0  0  0
  150.8932  138.4929  153.6342 H   0  0  0  0  0  0  0  0  0  0  0  0
  152.3889  140.0755  154.8581 H   0  0  0  0  0  0  0  0  0  0  0  0
  152.6895  137.5389  158.1049 H   0  0  0  0  0  0  0  0  0  0  0  0
  151.2126  135.8462  157.0607 H   0  0  0  0  0  0  0  0  0  0  0  0
  147.9782  131.2685  151.6746 H   0  0  0  0  0  0  0  0  0  0  0  0
  1  2  1  0  0  0  0
  1 20  1  0  0  0  0
  1 21  1  0  0  0  0
  1 22  1  0  0  0  0
  2  3  1  0  0  0  0
  2 23  1  0  0  0  0
  2 24  1  0  0  0  0
  3  4  1  0  0  0  0
  3 10  1  0  0  0  0
  3 25  1  0  0  0  0
  4  5  1  0  0  0  0
  4 26  1  0  0  0  0
  4 27  1  0  0  0  0
  5  9  1  0  0  0  0
  5  6  1  0  0  0  0
  5 42  1  0  0  0  0
  6  7  1  0  0  0  0
  6 28  1  0  0  0  0
  6 29  1  0  0  0  0
  7  8  1  0  0  0  0
  7 30  1  0  0  0  0
  7 31  1  0  0  0  0
  8  9  1  0  0  0  0
  8 32  1  0  0  0  0
  8 33  1  0  0  0  0
  9 34  1  0  0  0  0
  9 35  1  0  0  0  0
 10 11  1  0  0  0  0
 10 36  1  0  0  0  0
 11 12  2  0  0  0  0
 11 13  1  0  0  0  0
 13 14  1  0  0  0  0
 13 37  1  0  0  0  0
 14 19  1  0  0  0  0
 14 15  2  0  0  0  0
 15 16  1  0  0  0  0
 15 38  1  0  0  0  0
 16 17  2  0  0  0  0
 16 39  1  0  0  0  0
 17 18  1  0  0  0  0
 18 19  2  0  0  0  0
 18 40  1  0  0  0  0
 19 41  1  0  0  0  0
M  CHG  1   5   1
M  END
> <s_m_source_file>
AV-unprocessed.smi

> <i_m_source_file_index>
741

> <i_lp_mmshare_version>
43012

> <i_f3d_flags>
0

> <s_epik_input>
W0NIMl0xW0NIMl1bQ0gyXVtDSDJdTjFbQ0gyXVtDQEBIXShbQ0gyXVtDSDNdKVtOSF1DKD1PKVtOSF1jMltjSF1bY0hdbltjSF1bY0hdMg==

> <s_epik_cmdline>
J2VwaWtfcHl0aG9uJywgJy1waCcsICc3LjAnLCAnLXRuJywgJzgnLCAnLW1hJywgJzIwMCcsICctbWV0YWxfYmluZGluZycsICctaW1hZScsICc8aW5maWxlLm1hZT4nLCAnLW9tYWUnLCAnPG91dGZpbGUubWFlPic=

> <r_epik_Ionization_Penalty>
0.101421

> <r_epik_Ionization_Penalty_Charging>
0.00180027

> <r_epik_Ionization_Penalty_Neutral>
0.0996204

> <r_epik_State_Penalty>
0.0910414

> <r_epik_Charging_Adjusted_Penalty>
0.0928416

> <i_epik_Tot_Q>
1

> <i_epik_Tot_abs_Q>
1

> <r_epik_Metal_State_Penalty>
0.076772

> <b_epik_Metal_Only>
0

> <s_lp_Force_Field>
OPLS_2005

> <r_lp_Energy>
40.7955

> <b_lp_Chiralities_Consistent>
1

> <s_lp_Variant>
AV-unprocessed.smi:741-2

> <Gold.Version>
5.8.1

> <Gold.Id.Protein>
6NUR|6NUR_protein|mol2

> <Gold.PLP.Fitness>
42.1580

> <Gold.PLP.PLP>
-31.3892

> <Gold.PLP.part.hbond>
-4.8679

> <Gold.PLP.part.metal>
0.0000

> <Gold.PLP.part.buried>
-2.5476

> <Gold.PLP.part.nonpolar>
-23.9161

> <Gold.PLP.part.repulsive>
0.1097

> <Gold.PLP.ligand.clash>
0.0000

> <Gold.PLP.ligand.torsion>
0.6333

> <Gold.PLP.Chemscore.Hbond>
4.0000

> <Gold.PLP.Chemscore.CHOScore>
0.0000

> <Gold.PLP.Chemscore.Metal>
0.0000

> <Gold.Chemscore.Hbonds>
donor molecule, donor type, donor heavy atom, donor atom, acceptor molecule, acceptor atom, score
      L1  H     5    42       P1 10747  1.00
      L1  H    10    36       P1  7948  1.00
      L1  H    13    37       P1  7948  1.00
      P1  H  7997  8010       L1    17  0.80

> <Gold.PLP.Chemscore.Internal.Correction>
0.0353

> <Gold.Rescore>
     Score         DG    S(hbond)    S(metal)    S(lipo)     H(rot)  DE(clash)    DE(int)     intcor
     18.71     -21.27       3.27        0.00      76.21       1.59       0.05       2.52       ----

> <Gold.Chemscore.Fitness>
18.7064

> <Gold.Chemscore.DG>
-21.2680

> <Gold.Chemscore.ZeroCoef>
-5.4800

> <Gold.Chemscore.Hbond>
3.2726

> <Gold.Chemscore.Metal>
0.0000

> <Gold.Chemscore.Lipo>
76.2142

> <Gold.Chemscore.Internal_Hbond>
0.0000

> <Gold.Chemscore.DEClash>
0.0465

> <Gold.Chemscore.DEInternal>
2.5150

> <Gold.Chemscore.Rot>
1.5858

> <Gold.Chemscore.Internal.Correction>
   9.000000E+99

> <Gold.Chemscore.Hbonds>
donor molecule, donor type, donor heavy atom, donor atom, acceptor molecule, acceptor atom, score
      L1  H     5    42       P1 10747  1.00
      L1  H    10    36       P1  7948  0.54
      L1  H    13    37       P1  7948  0.43
      P1  H  7997  8010       L1    17  0.24

> <Gold.Chemscore.Hbond.Weighted>
-10.9305

> <Gold.Chemscore.Metal.Weighted>
-0.0000

> <Gold.Chemscore.Lipo.Weighted>
-8.9171

> <Gold.Chemscore.Internal_Hbond.Weighted>
0.0000

> <Gold.Chemscore.DEClash.Weighted>
0.0465

> <Gold.Chemscore.DEInternal.Weighted>
2.5150

> <Gold.Chemscore.Rot.Weighted>
4.0596

> <Gold.Chemscore.Internal.Correction.Weighted>
   9.000000E+99

> <Gold.Protein.RotatedTorsions>
[ 6907 6896 6895 6894 ] final -140.06 input  -60.11 | X-H torsion
[ 7974 7965 7964 7962 ] final  -53.90 input  175.53 | X-H torsion
[ 8008 7997 7996 7995 ] final   67.12 input   59.86 | X-H torsion
[ 10167 10162 10161 10158 ] final  -84.77 input  -65.29 | X-H torsion
[ 10718 10713 10712 10709 ] final -170.99 input   66.30 | X-H torsion
[ 10763 10752 10751 10750 ] final  -53.19 input  -60.55 | X-H torsion
[ 11005 11000 10999 10996 ] final -110.19 input  -57.11 | X-H torsion

> <Gold.Protein.ActiveResidues>
 VAL166  LYS551  ARG553  GLY616  TRP617  ASP618  TYR619  PRO620  LYS621  CYS622 
 ASP623  PHE694  ASN695  SER759  ASP760  ASP761  ALA762  ILE779  LEU786  VAL792 
 PHE793  MET794  SER795  GLU796  ALA797  LYS798  CYS799  TRP800  GLU811  SER814 

> <Gold.Protein.RotatedAtoms>
  151.0558  133.5586  159.2638 H   0  0  0  0  0  0  0  0  0  0  0  0  # atno 6907 bound_to 6896
  151.2580  135.0643  159.9097 H   0  0  0  0  0  0  0  0  0  0  0  0  # atno 6908 bound_to 6896
  152.5389  134.0308  159.8077 H   0  0  0  0  0  0  0  0  0  0  0  0  # atno 6909 bound_to 6896
  145.8916  140.8066  142.9788 H   0  0  0  0  0  0  0  0  0  0  0  0  # atno 7974 bound_to 7965
  155.6879  140.3496  155.4882 H   0  0  0  0  0  0  0  0  0  0  0  0  # atno 8008 bound_to 7997
  155.9549  140.1126  157.0967 H   0  0  0  0  0  0  0  0  0  0  0  0  # atno 8009 bound_to 7997
  154.4130  140.1187  156.5088 H   0  0  0  0  0  0  0  0  0  0  0  0  # atno 8010 bound_to 7997
  140.4101  143.2626  151.9029 H   0  0  0  0  0  0  0  0  0  0  0  0  # atno 10167 bound_to 10162
  156.7343  130.9318  151.3106 H   0  0  0  0  0  0  0  0  0  0  0  0  # atno 10718 bound_to 10713
  154.1548  135.6484  153.4972 H   0  0  0  0  0  0  0  0  0  0  0  0  # atno 10763 bound_to 10752
  153.0127  135.5346  154.6771 H   0  0  0  0  0  0  0  0  0  0  0  0  # atno 10764 bound_to 10752
  154.6069  135.2949  155.0447 H   0  0  0  0  0  0  0  0  0  0  0  0  # atno 10765 bound_to 10752
  141.0805  133.9227  157.2298 H   0  0  0  0  0  0  0  0  0  0  0  0  # atno 11005 bound_to 11000
  144.6731  140.1539  143.7428 LP  0  0  0  0  0  0  0  0  0  0  0  0  # atno 17320 bound_to 7965
  145.8901  139.2371  143.1554 LP  0  0  0  0  0  0  0  0  0  0  0  0  # atno 17321 bound_to 7965
  139.4783  144.5546  151.8334 LP  0  0  0  0  0  0  0  0  0  0  0  0  # atno 17342 bound_to 10162
  140.4647  144.1672  150.5910 LP  0  0  0  0  0  0  0  0  0  0  0  0  # atno 17343 bound_to 10162
  157.6846  130.9172  150.0352 LP  0  0  0  0  0  0  0  0  0  0  0  0  # atno 17370 bound_to 10713
  156.1508  130.3642  149.9442 LP  0  0  0  0  0  0  0  0  0  0  0  0  # atno 17371 bound_to 10713
  139.9619  135.0152  156.9284 LP  0  0  0  0  0  0  0  0  0  0  0  0  # atno 17394 bound_to 11000
  140.5478  134.0657  155.7360 LP  0  0  0  0  0  0  0  0  0  0  0  0  # atno 17395 bound_to 11000

$$$$
