AV-unprocessed.smi:1046|AV-procd|sdf|4553|dock7
  -GOLD-   22720 2583D 1   1.00000     0.00000
 Structure written by MMmdl.
 54 56  0  0  0  0  0  0  0  0  3 V2000
  152.5143  143.7158  161.1502 C   0  0  0  0  0  0  0  0  0  0  0  0
  152.2528  142.9315  159.8755 C   0  0  0  0  0  0  0  0  0  0  0  0
  151.2959  143.4300  158.9626 C   0  0  0  0  0  0  0  0  0  0  0  0
  151.0755  142.6894  157.8072 C   0  0  0  0  0  0  0  0  0  0  0  0
  150.2100  142.9042  156.7324 N   0  3  0  0  0  0  0  0  0  0  0  0
  150.3458  141.8933  155.8297 C   0  0  0  0  0  0  0  0  0  0  0  0
  151.2948  141.0422  156.3075 N   0  0  0  0  0  0  0  0  0  0  0  0
  151.8228  139.7950  155.7394 C   0  0  0  0  0  0  0  0  0  0  0  0
  150.7456  138.9445  155.0352 C   0  0  1  0  0  0  0  0  0  0  0  0
  150.3890  139.6206  153.8467 O   0  0  0  0  0  0  0  0  0  0  0  0
  151.2321  137.5215  154.6819 C   0  0  0  0  0  0  0  0  0  0  0  0
  150.1282  136.5299  154.6250 N   0  3  0  0  0  0  0  0  0  0  0  0
  149.0481  136.7886  155.6154 C   0  0  0  0  0  0  0  0  0  0  0  0
  147.9243  135.7422  155.4717 C   0  0  0  0  0  0  0  0  0  0  0  0
  148.3958  134.3616  155.6052 N   0  0  0  0  0  0  0  0  0  0  0  0
  148.8053  133.9859  156.9626 C   0  0  0  0  0  0  0  0  0  0  0  0
  149.4064  132.5774  157.0944 C   0  0  0  0  0  0  0  0  0  0  0  0
  149.9239  132.4141  158.3965 O   0  0  0  0  0  0  0  0  0  0  0  0
  149.4490  134.1356  154.6160 C   0  0  0  0  0  0  0  0  0  0  0  0
  150.6203  135.1321  154.7360 C   0  0  0  0  0  0  0  0  0  0  0  0
  151.7704  141.4933  157.5433 C   0  0  0  0  0  0  0  0  0  0  0  0
  152.7142  140.9862  158.4329 C   0  0  0  0  0  0  0  0  0  0  0  0
  152.9509  141.7235  159.6152 C   0  0  0  0  0  0  0  0  0  0  0  0
  153.9726  141.1926  160.6064 C   0  0  0  0  0  0  0  0  0  0  0  0
  151.9870  144.6702  161.1463 H   0  0  0  0  0  0  0  0  0  0  0  0
  153.5777  143.9267  161.2645 H   0  0  0  0  0  0  0  0  0  0  0  0
  152.1771  143.1502  162.0193 H   0  0  0  0  0  0  0  0  0  0  0  0
  150.7569  144.3458  159.1577 H   0  0  0  0  0  0  0  0  0  0  0  0
  149.8011  141.7887  154.9023 H   0  0  0  0  0  0  0  0  0  0  0  0
  152.6311  140.0510  155.0525 H   0  0  0  0  0  0  0  0  0  0  0  0
  152.2779  139.2314  156.5554 H   0  0  0  0  0  0  0  0  0  0  0  0
  149.8634  138.9021  155.6723 H   0  0  0  0  0  0  0  0  0  0  0  0
  150.2301  138.9856  153.1652 H   0  0  0  0  0  0  0  0  0  0  0  0
  151.7436  137.5613  153.7186 H   0  0  0  0  0  0  0  0  0  0  0  0
  151.9731  137.1708  155.4009 H   0  0  0  0  0  0  0  0  0  0  0  0
  149.4567  136.7809  156.6266 H   0  0  0  0  0  0  0  0  0  0  0  0
  148.6257  137.7806  155.4606 H   0  0  0  0  0  0  0  0  0  0  0  0
  147.1305  135.9466  156.1892 H   0  0  0  0  0  0  0  0  0  0  0  0
  147.4615  135.8614  154.4909 H   0  0  0  0  0  0  0  0  0  0  0  0
  149.5586  134.6969  157.3049 H   0  0  0  0  0  0  0  0  0  0  0  0
  147.9709  134.0850  157.6561 H   0  0  0  0  0  0  0  0  0  0  0  0
  148.6593  131.8027  156.9241 H   0  0  0  0  0  0  0  0  0  0  0  0
  150.2081  132.4300  156.3703 H   0  0  0  0  0  0  0  0  0  0  0  0
  150.0045  131.4893  158.5755 H   0  0  0  0  0  0  0  0  0  0  0  0
  149.8218  133.1139  154.6977 H   0  0  0  0  0  0  0  0  0  0  0  0
  149.0200  134.2139  153.6159 H   0  0  0  0  0  0  0  0  0  0  0  0
  151.3386  134.9355  153.9392 H   0  0  0  0  0  0  0  0  0  0  0  0
  151.1537  134.9973  155.6780 H   0  0  0  0  0  0  0  0  0  0  0  0
  153.2431  140.0653  158.2362 H   0  0  0  0  0  0  0  0  0  0  0  0
  154.3539  140.2171  160.3025 H   0  0  0  0  0  0  0  0  0  0  0  0
  153.5288  141.0810  161.5960 H   0  0  0  0  0  0  0  0  0  0  0  0
  154.8203  141.8742  160.6812 H   0  0  0  0  0  0  0  0  0  0  0  0
  149.7142  136.6050  153.7069 H   0  0  0  0  0  0  0  0  0  0  0  0
  149.5680  143.6793  156.6239 H   0  0  0  0  0  0  0  0  0  0  0  0
  1  2  1  0  0  0  0
  1 25  1  0  0  0  0
  1 26  1  0  0  0  0
  1 27  1  0  0  0  0
  2 23  1  0  0  0  0
  2  3  2  0  0  0  0
  3  4  1  0  0  0  0
  3 28  1  0  0  0  0
  4 21  2  0  0  0  0
  4  5  1  0  0  0  0
  5  6  2  0  0  0  0
  5 54  1  0  0  0  0
  6  7  1  0  0  0  0
  6 29  1  0  0  0  0
  7  8  1  0  0  0  0
  7 21  1  0  0  0  0
  8  9  1  0  0  0  0
  8 30  1  0  0  0  0
  8 31  1  0  0  0  0
  9 10  1  0  0  0  0
  9 11  1  0  0  0  0
  9 32  1  0  0  0  0
 10 33  1  0  0  0  0
 11 12  1  0  0  0  0
 11 34  1  0  0  0  0
 11 35  1  0  0  0  0
 12 20  1  0  0  0  0
 12 13  1  0  0  0  0
 12 53  1  0  0  0  0
 13 14  1  0  0  0  0
 13 36  1  0  0  0  0
 13 37  1  0  0  0  0
 14 15  1  0  0  0  0
 14 38  1  0  0  0  0
 14 39  1  0  0  0  0
 15 16  1  0  0  0  0
 15 19  1  0  0  0  0
 16 17  1  0  0  0  0
 16 40  1  0  0  0  0
 16 41  1  0  0  0  0
 17 18  1  0  0  0  0
 17 42  1  0  0  0  0
 17 43  1  0  0  0  0
 18 44  1  0  0  0  0
 19 20  1  0  0  0  0
 19 45  1  0  0  0  0
 19 46  1  0  0  0  0
 20 47  1  0  0  0  0
 20 48  1  0  0  0  0
 21 22  1  0  0  0  0
 22 23  2  0  0  0  0
 22 49  1  0  0  0  0
 23 24  1  0  0  0  0
 24 50  1  0  0  0  0
 24 51  1  0  0  0  0
 24 52  1  0  0  0  0
M  CHG  1   5   1
M  CHG  1  12   1
M  END
> <s_m_source_file>
AV-unprocessed.smi

> <i_m_source_file_index>
1046

> <i_lp_mmshare_version>
43012

> <i_f3d_flags>
0

> <s_epik_input>
W0NIM11jKFtjSF0xKWMoW0NIM10pW2NIXWMoYzEyKW4oW2NIXW4yKVtDSDJdW0NASF0oW09IXSlbQ0gyXU4zW0NIMl1bQ0gyXU4oW0NIMl1bQ0gyXTMpW0NIMl1bQ0gyXVtPSF0=

> <s_epik_cmdline>
J2VwaWtfcHl0aG9uJywgJy1waCcsICc3LjAnLCAnLXRuJywgJzgnLCAnLW1hJywgJzIwMCcsICctbWV0YWxfYmluZGluZycsICctaW1hZScsICc8aW5maWxlLm1hZT4nLCAnLW9tYWUnLCAnPG91dGZpbGUubWFlPic=

> <r_epik_Ionization_Penalty>
1.22056

> <r_epik_Ionization_Penalty_Charging>
1.17959

> <r_epik_Ionization_Penalty_Neutral>
0.0409743

> <r_epik_State_Penalty>
1.27074

> <r_epik_Charging_Adjusted_Penalty>
2.45032

> <i_epik_Tot_Q>
2

> <i_epik_Tot_abs_Q>
2

> <r_epik_Metal_State_Penalty>
5.26922

> <b_epik_Metal_Only>
0

> <s_lp_Force_Field>
OPLS_2005

> <r_lp_Energy>
42.2252

> <b_lp_Chiralities_Consistent>
1

> <s_lp_Variant>
AV-unprocessed.smi:1046-6

> <Gold.Version>
5.8.1

> <Gold.Id.Protein>
6NUR|6NUR_protein|mol2

> <Gold.PLP.Fitness>
61.5979

> <Gold.PLP.PLP>
-45.3348

> <Gold.PLP.part.hbond>
-4.8384

> <Gold.PLP.part.metal>
0.0000

> <Gold.PLP.part.buried>
-5.0820

> <Gold.PLP.part.nonpolar>
-35.8626

> <Gold.PLP.part.repulsive>
0.1286

> <Gold.PLP.ligand.clash>
0.0000

> <Gold.PLP.ligand.torsion>
0.9756

> <Gold.PLP.Chemscore.Hbond>
6.0468

> <Gold.PLP.Chemscore.CHOScore>
0.0000

> <Gold.PLP.Chemscore.Metal>
0.0000

> <Gold.Chemscore.Hbonds>
donor molecule, donor type, donor heavy atom, donor atom, acceptor molecule, acceptor atom, score
      L1  H     5    54       P1  8028  1.95
      L1  H    10    33       P1  7957  0.06
      L1  H    12    53       P1  7948  2.00
      P1  H  6896  6907       L1    18  1.00
      P1  H  7989  7998       L1    10  1.00

> <Gold.PLP.Chemscore.Internal.Correction>
0.0738

> <Gold.Rescore>
     Score         DG    S(hbond)    S(metal)    S(lipo)     H(rot)  DE(clash)    DE(int)     intcor
     20.45     -22.47       3.59        0.00     114.77       3.29       0.01       2.02       ----

> <Gold.Chemscore.Fitness>
20.4456

> <Gold.Chemscore.DG>
-22.4725

> <Gold.Chemscore.ZeroCoef>
-5.4800

> <Gold.Chemscore.Hbond>
3.5885

> <Gold.Chemscore.Metal>
0.0000

> <Gold.Chemscore.Lipo>
114.7712

> <Gold.Chemscore.Internal_Hbond>
0.0000

> <Gold.Chemscore.DEClash>
0.0077

> <Gold.Chemscore.DEInternal>
2.0191

> <Gold.Chemscore.Rot>
3.2896

> <Gold.Chemscore.Internal.Correction>
   9.000000E+99

> <Gold.Chemscore.Hbonds>
donor molecule, donor type, donor heavy atom, donor atom, acceptor molecule, acceptor atom, score
      L1  H     5    54       P1  8028  0.90
      L1  H    10    33       P1  7957  0.05
      L1  H    12    53       P1  7948  0.53
      P1  H  6896  6907       L1    18  0.97
      P1  H  7989  7998       L1    10  0.64

> <Gold.Chemscore.Hbond.Weighted>
-11.9857

> <Gold.Chemscore.Metal.Weighted>
-0.0000

> <Gold.Chemscore.Lipo.Weighted>
-13.4282

> <Gold.Chemscore.Internal_Hbond.Weighted>
0.0000

> <Gold.Chemscore.DEClash.Weighted>
0.0077

> <Gold.Chemscore.DEInternal.Weighted>
2.0191

> <Gold.Chemscore.Rot.Weighted>
8.4215

> <Gold.Chemscore.Internal.Correction.Weighted>
   9.000000E+99

> <Gold.Protein.RotatedTorsions>
[ 6907 6896 6895 6894 ] final -134.94 input  -60.11 | X-H torsion
[ 7974 7965 7964 7962 ] final  113.40 input  175.53 | X-H torsion
[ 8008 7997 7996 7995 ] final -108.82 input   59.86 | X-H torsion
[ 10167 10162 10161 10158 ] final   -7.75 input  -65.29 | X-H torsion
[ 10718 10713 10712 10709 ] final  126.37 input   66.30 | X-H torsion
[ 10763 10752 10751 10750 ] final  -24.02 input  -60.55 | X-H torsion
[ 11005 11000 10999 10996 ] final -176.75 input  -57.11 | X-H torsion

> <Gold.Protein.ActiveResidues>
 VAL166  LYS551  ARG553  GLY616  TRP617  ASP618  TYR619  PRO620  LYS621  CYS622 
 ASP623  PHE694  ASN695  SER759  ASP760  ASP761  ALA762  ILE779  LEU786  VAL792 
 PHE793  MET794  SER795  GLU796  ALA797  LYS798  CYS799  TRP800  GLU811  SER814 

> <Gold.Protein.RotatedAtoms>
  150.9919  133.6141  159.2706 H   0  0  0  0  0  0  0  0  0  0  0  0  # atno 6907 bound_to 6896
  151.3359  135.0851  159.9364 H   0  0  0  0  0  0  0  0  0  0  0  0  # atno 6908 bound_to 6896
  152.5248  133.9539  159.7739 H   0  0  0  0  0  0  0  0  0  0  0  0  # atno 6909 bound_to 6896
  145.2174  139.2877  143.4236 H   0  0  0  0  0  0  0  0  0  0  0  0  # atno 7974 bound_to 7965
  154.9500  140.0401  157.2139 H   0  0  0  0  0  0  0  0  0  0  0  0  # atno 8008 bound_to 7997
  154.7987  140.2848  155.5915 H   0  0  0  0  0  0  0  0  0  0  0  0  # atno 8009 bound_to 7997
  156.2959  140.2559  156.2850 H   0  0  0  0  0  0  0  0  0  0  0  0  # atno 8010 bound_to 7997
  140.7038  143.6045  150.8764 H   0  0  0  0  0  0  0  0  0  0  0  0  # atno 10167 bound_to 10162
  157.5425  131.1096  150.8836 H   0  0  0  0  0  0  0  0  0  0  0  0  # atno 10718 bound_to 10713
  153.6772  135.6968  153.5129 H   0  0  0  0  0  0  0  0  0  0  0  0  # atno 10763 bound_to 10752
  153.2513  135.4274  155.0799 H   0  0  0  0  0  0  0  0  0  0  0  0  # atno 10764 bound_to 10752
  154.8410  135.3532  154.6315 H   0  0  0  0  0  0  0  0  0  0  0  0  # atno 10765 bound_to 10752
  140.4486  134.6364  157.4791 H   0  0  0  0  0  0  0  0  0  0  0  0  # atno 11005 bound_to 11000
  146.3384  140.2470  142.8597 LP  0  0  0  0  0  0  0  0  0  0  0  0  # atno 17320 bound_to 7965
  144.9797  140.8448  143.5404 LP  0  0  0  0  0  0  0  0  0  0  0  0  # atno 17321 bound_to 7965
  139.9769  143.5994  152.2955 LP  0  0  0  0  0  0  0  0  0  0  0  0  # atno 17342 bound_to 10162
  139.6601  144.7662  151.1979 LP  0  0  0  0  0  0  0  0  0  0  0  0  # atno 17343 bound_to 10162
  156.9384  130.5375  149.5280 LP  0  0  0  0  0  0  0  0  0  0  0  0  # atno 17370 bound_to 10713
  156.0508  130.5578  150.8985 LP  0  0  0  0  0  0  0  0  0  0  0  0  # atno 17371 bound_to 10713
  140.0022  134.6819  155.9512 LP  0  0  0  0  0  0  0  0  0  0  0  0  # atno 17394 bound_to 11000
  141.1674  133.6537  156.4528 LP  0  0  0  0  0  0  0  0  0  0  0  0  # atno 17395 bound_to 11000

$$$$
