AV-unprocessed.smi:667|AV-procd|sdf|3257|dock1
  -GOLD-   22720 0203D 1   1.00000     0.00000
 Structure written by MMmdl.
 48 49  0  0  0  0  0  0  0  0  1 V2000
  143.2004  144.7683  156.4977 C   0  0  0  0  0  0  0  0  0  0  0  0
  144.0829  144.1773  155.4356 C   0  0  0  0  0  0  0  0  0  0  0  0
  144.1435  144.7545  154.2472 N   0  0  0  0  0  0  0  0  0  0  0  0
  145.0132  144.0027  153.5427 N   0  0  0  0  0  0  0  0  0  0  0  0
  145.3176  144.3660  152.1723 C   0  0  0  0  0  0  0  0  0  0  0  0
  145.4981  142.9441  154.2862 C   0  0  0  0  0  0  0  0  0  0  0  0
  146.4799  141.9624  153.7319 C   0  0  0  0  0  0  0  0  0  0  0  0
  144.9199  143.0263  155.5250 C   0  0  0  0  0  0  0  0  0  0  0  0
  145.1166  142.1252  156.7173 C   0  0  0  0  0  0  0  0  0  0  0  0
  146.5444  142.2758  157.2413 C   0  0  0  0  0  0  0  0  0  0  0  0
  146.8902  143.3198  157.7942 O   0  0  0  0  0  0  0  0  0  0  0  0
  147.3600  141.2243  157.0673 N   0  0  0  0  0  0  0  0  0  0  0  0
  148.7472  141.1576  157.5138 C   0  0  0  0  0  0  0  0  0  0  0  0
  149.7330  141.7375  156.4685 C   0  0  2  0  0  0  0  0  0  0  0  0
  150.0260  140.7597  155.3386 C   0  0  0  0  0  0  0  0  0  0  0  0
  151.2018  139.9373  155.8723 C   0  0  0  0  0  0  0  0  0  0  0  0
  151.7169  140.6606  156.9866 O   0  0  0  0  0  0  0  0  0  0  0  0
  151.1597  141.9684  156.9950 C   0  0  2  0  0  0  0  0  0  0  0  0
  151.3095  142.6423  158.3780 C   0  0  0  0  0  0  0  0  0  0  0  0
  150.5766  143.9937  158.4369 C   0  0  0  0  0  0  0  0  0  0  0  0
  152.7913  142.8341  158.7394 C   0  0  0  0  0  0  0  0  0  0  0  0
  143.7966  145.2013  157.3012 H   0  0  0  0  0  0  0  0  0  0  0  0
  142.5534  144.0081  156.9358 H   0  0  0  0  0  0  0  0  0  0  0  0
  142.5590  145.5557  156.0996 H   0  0  0  0  0  0  0  0  0  0  0  0
  144.8059  143.6852  151.4920 H   0  0  0  0  0  0  0  0  0  0  0  0
  146.3926  144.3002  152.0022 H   0  0  0  0  0  0  0  0  0  0  0  0
  144.9932  145.3868  151.9646 H   0  0  0  0  0  0  0  0  0  0  0  0
  146.5763  141.0913  154.3793 H   0  0  0  0  0  0  0  0  0  0  0  0
  147.4656  142.4174  153.6353 H   0  0  0  0  0  0  0  0  0  0  0  0
  146.1693  141.6111  152.7479 H   0  0  0  0  0  0  0  0  0  0  0  0
  144.4125  142.3580  157.5169 H   0  0  0  0  0  0  0  0  0  0  0  0
  144.9409  141.0802  156.4608 H   0  0  0  0  0  0  0  0  0  0  0  0
  146.9890  140.4070  156.6048 H   0  0  0  0  0  0  0  0  0  0  0  0
  148.8286  141.6847  158.4648 H   0  0  0  0  0  0  0  0  0  0  0  0
  148.9858  140.1144  157.7235 H   0  0  0  0  0  0  0  0  0  0  0  0
  149.3263  142.6679  156.0701 H   0  0  0  0  0  0  0  0  0  0  0  0
  149.1752  140.1421  155.0498 H   0  0  0  0  0  0  0  0  0  0  0  0
  150.3418  141.3125  154.4528 H   0  0  0  0  0  0  0  0  0  0  0  0
  150.8792  138.9513  156.2077 H   0  0  0  0  0  0  0  0  0  0  0  0
  151.9703  139.8026  155.1107 H   0  0  0  0  0  0  0  0  0  0  0  0
  151.7082  142.5596  156.2583 H   0  0  0  0  0  0  0  0  0  0  0  0
  150.8793  141.9889  159.1370 H   0  0  0  0  0  0  0  0  0  0  0  0
  150.9726  144.6902  157.6972 H   0  0  0  0  0  0  0  0  0  0  0  0
  150.6851  144.4557  159.4184 H   0  0  0  0  0  0  0  0  0  0  0  0
  149.5087  143.8844  158.2484 H   0  0  0  0  0  0  0  0  0  0  0  0
  153.2969  143.4734  158.0149 H   0  0  0  0  0  0  0  0  0  0  0  0
  153.3198  141.8808  158.7674 H   0  0  0  0  0  0  0  0  0  0  0  0
  152.9003  143.2943  159.7220 H   0  0  0  0  0  0  0  0  0  0  0  0
  1  2  1  0  0  0  0
  1 22  1  0  0  0  0
  1 23  1  0  0  0  0
  1 24  1  0  0  0  0
  2  8  1  0  0  0  0
  2  3  2  0  0  0  0
  3  4  1  0  0  0  0
  4  5  1  0  0  0  0
  4  6  1  0  0  0  0
  5 25  1  0  0  0  0
  5 26  1  0  0  0  0
  5 27  1  0  0  0  0
  6  7  1  0  0  0  0
  6  8  2  0  0  0  0
  7 28  1  0  0  0  0
  7 29  1  0  0  0  0
  7 30  1  0  0  0  0
  8  9  1  0  0  0  0
  9 10  1  0  0  0  0
  9 31  1  0  0  0  0
  9 32  1  0  0  0  0
 10 11  2  0  0  0  0
 10 12  1  0  0  0  0
 12 13  1  0  0  0  0
 12 33  1  0  0  0  0
 13 14  1  0  0  0  0
 13 34  1  0  0  0  0
 13 35  1  0  0  0  0
 14 18  1  0  0  0  0
 14 15  1  0  0  0  0
 14 36  1  0  0  0  0
 15 16  1  0  0  0  0
 15 37  1  0  0  0  0
 15 38  1  0  0  0  0
 16 17  1  0  0  0  0
 16 39  1  0  0  0  0
 16 40  1  0  0  0  0
 17 18  1  0  0  0  0
 18 19  1  0  0  0  0
 18 41  1  0  0  0  0
 19 20  1  0  0  0  0
 19 21  1  0  0  0  0
 19 42  1  0  0  0  0
 20 43  1  0  0  0  0
 20 44  1  0  0  0  0
 20 45  1  0  0  0  0
 21 46  1  0  0  0  0
 21 47  1  0  0  0  0
 21 48  1  0  0  0  0
M  END
> <s_m_source_file>
AV-unprocessed.smi

> <i_m_source_file_index>
667

> <i_lp_mmshare_version>
43012

> <i_f3d_flags>
0

> <s_epik_input>
W0NIM11jMW5uKFtDSDNdKWMoW0NIM10pYzFbQ0gyXUMoPU8pW05IXVtDSDJdW0NAQEhdMltDSDJdW0NIMl1PW0NASF0yW0NIXShbQ0gzXSlbQ0gzXQ==

> <s_epik_cmdline>
J2VwaWtfcHl0aG9uJywgJy1waCcsICc3LjAnLCAnLXRuJywgJzgnLCAnLW1hJywgJzIwMCcsICctbWV0YWxfYmluZGluZycsICctaW1hZScsICc8aW5maWxlLm1hZT4nLCAnLW9tYWUnLCAnPG91dGZpbGUubWFlPic=

> <r_lp_tautomer_probability>
1

> <r_epik_Ionization_Penalty>
0.00315488

> <r_epik_Ionization_Penalty_Charging>
0

> <r_epik_Ionization_Penalty_Neutral>
0.00315488

> <r_epik_State_Penalty>
0.00222269

> <r_epik_Charging_Adjusted_Penalty>
0.00222269

> <i_epik_Tot_Q>
0

> <i_epik_Tot_abs_Q>
0

> <r_epik_Metal_State_Penalty>
-0

> <b_epik_Metal_Only>
0

> <s_lp_Force_Field>
OPLS_2005

> <r_lp_Energy>
17.3848

> <b_lp_Chiralities_Consistent>
1

> <s_lp_Variant>
AV-unprocessed.smi:667-3

> <Gold.Version>
5.8.1

> <Gold.Id.Protein>
6NUR|6NUR_protein|mol2

> <Gold.PLP.Fitness>
36.7459

> <Gold.PLP.PLP>
-37.6126

> <Gold.PLP.part.hbond>
0.0000

> <Gold.PLP.part.metal>
0.0000

> <Gold.PLP.part.buried>
-4.0432

> <Gold.PLP.part.nonpolar>
-32.6556

> <Gold.PLP.part.repulsive>
1.0520

> <Gold.PLP.ligand.clash>
0.0000

> <Gold.PLP.ligand.torsion>
0.4667

> <Gold.PLP.Chemscore.Hbond>
0.0000

> <Gold.PLP.Chemscore.CHOScore>
0.0000

> <Gold.PLP.Chemscore.Metal>
0.0000

> <Gold.PLP.Chemscore.Internal.Correction>
0.0668

> <Gold.Rescore>
     Score         DG    S(hbond)    S(metal)    S(lipo)     H(rot)  DE(clash)    DE(int)     intcor
     11.79     -12.47       0.00        0.00      93.07       1.52       0.25       0.43       ----

> <Gold.Chemscore.Fitness>
11.7907

> <Gold.Chemscore.DG>
-12.4742

> <Gold.Chemscore.ZeroCoef>
-5.4800

> <Gold.Chemscore.Hbond>
0.0000

> <Gold.Chemscore.Metal>
0.0000

> <Gold.Chemscore.Lipo>
93.0660

> <Gold.Chemscore.Internal_Hbond>
0.0000

> <Gold.Chemscore.DEClash>
0.2514

> <Gold.Chemscore.DEInternal>
0.4321

> <Gold.Chemscore.Rot>
1.5213

> <Gold.Chemscore.Internal.Correction>
   9.000000E+99

> <Gold.Chemscore.Hbond.Weighted>
-0.0000

> <Gold.Chemscore.Metal.Weighted>
-0.0000

> <Gold.Chemscore.Lipo.Weighted>
-10.8887

> <Gold.Chemscore.Internal_Hbond.Weighted>
0.0000

> <Gold.Chemscore.DEClash.Weighted>
0.2514

> <Gold.Chemscore.DEInternal.Weighted>
0.4321

> <Gold.Chemscore.Rot.Weighted>
3.8945

> <Gold.Chemscore.Internal.Correction.Weighted>
   9.000000E+99

> <Gold.Protein.RotatedTorsions>
[ 6907 6896 6895 6894 ] final   16.45 input  -60.11 | X-H torsion
[ 7974 7965 7964 7962 ] final   31.97 input  175.53 | X-H torsion
[ 8008 7997 7996 7995 ] final -162.58 input   59.86 | X-H torsion
[ 10167 10162 10161 10158 ] final  -93.89 input  -65.29 | X-H torsion
[ 10718 10713 10712 10709 ] final   80.55 input   66.30 | X-H torsion
[ 10763 10752 10751 10750 ] final   -1.09 input  -60.55 | X-H torsion
[ 11005 11000 10999 10996 ] final  126.44 input  -57.11 | X-H torsion

> <Gold.Protein.ActiveResidues>
 VAL166  LYS551  ARG553  GLY616  TRP617  ASP618  TYR619  PRO620  LYS621  CYS622 
 ASP623  PHE694  ASN695  SER759  ASP760  ASP761  ALA762  ILE779  LEU786  VAL792 
 PHE793  MET794  SER795  GLU796  ALA797  LYS798  CYS799  TRP800  GLU811  SER814 

> <Gold.Protein.RotatedAtoms>
  151.8341  135.0612  160.0440 H   0  0  0  0  0  0  0  0  0  0  0  0  # atno 6907 bound_to 6896
  152.2858  133.5509  159.5534 H   0  0  0  0  0  0  0  0  0  0  0  0  # atno 6908 bound_to 6896
  150.7208  134.0415  159.3809 H   0  0  0  0  0  0  0  0  0  0  0  0  # atno 6909 bound_to 6896
  146.1516  139.6587  142.9094 H   0  0  0  0  0  0  0  0  0  0  0  0  # atno 7974 bound_to 7965
  155.8089  140.0902  157.1915 H   0  0  0  0  0  0  0  0  0  0  0  0  # atno 8008 bound_to 7997
  154.3980  140.1458  156.3422 H   0  0  0  0  0  0  0  0  0  0  0  0  # atno 8009 bound_to 7997
  155.8386  140.3439  155.5620 H   0  0  0  0  0  0  0  0  0  0  0  0  # atno 8010 bound_to 7997
  140.3200  143.3054  152.0056 H   0  0  0  0  0  0  0  0  0  0  0  0  # atno 10167 bound_to 10162
  157.6809  130.9964  150.2095 H   0  0  0  0  0  0  0  0  0  0  0  0  # atno 10718 bound_to 10713
  153.3403  135.6980  153.6873 H   0  0  0  0  0  0  0  0  0  0  0  0  # atno 10763 bound_to 10752
  153.5640  135.3529  155.2811 H   0  0  0  0  0  0  0  0  0  0  0  0  # atno 10764 bound_to 10752
  154.8635  135.4256  154.2614 H   0  0  0  0  0  0  0  0  0  0  0  0  # atno 10765 bound_to 10752
  139.9456  134.9630  156.8707 H   0  0  0  0  0  0  0  0  0  0  0  0  # atno 11005 bound_to 11000
  145.4808  141.0438  143.2646 LP  0  0  0  0  0  0  0  0  0  0  0  0  # atno 17320 bound_to 7965
  144.7911  139.6326  143.7113 LP  0  0  0  0  0  0  0  0  0  0  0  0  # atno 17321 bound_to 7965
  139.4876  144.6318  151.7055 LP  0  0  0  0  0  0  0  0  0  0  0  0  # atno 17342 bound_to 10162
  140.5492  144.0454  150.6119 LP  0  0  0  0  0  0  0  0  0  0  0  0  # atno 17343 bound_to 10162
  156.2769  130.3728  149.7975 LP  0  0  0  0  0  0  0  0  0  0  0  0  # atno 17370 bound_to 10713
  156.5675  130.8410  151.3347 LP  0  0  0  0  0  0  0  0  0  0  0  0  # atno 17371 bound_to 10713
  140.5843  134.0322  155.7475 LP  0  0  0  0  0  0  0  0  0  0  0  0  # atno 17394 bound_to 11000
  141.1105  133.9624  157.2918 LP  0  0  0  0  0  0  0  0  0  0  0  0  # atno 17395 bound_to 11000

$$$$
