AV-unprocessed.smi:1473|AV-procd|sdf|5970|dock6
  -GOLD-   22720 6 63D 1   1.00000     0.00000
 Structure written by MMmdl.
 33 34  0  0  0  0  0  0  0  0  2 V2000
  151.5787  137.0897  155.2488 N   0  5  0  0  0  0  0  0  0  0  0  0
  151.9991  138.6282  155.4848 S   0  0  0  0  0  0  0  0  0  0  0  0
  153.4348  138.8871  155.2943 O   0  0  0  0  0  0  0  0  0  0  0  0
  151.0388  139.5937  154.9289 O   0  0  0  0  0  0  0  0  0  0  0  0
  151.7384  138.6351  157.1842 N   0  0  0  0  0  0  0  0  0  0  0  0
  152.8148  138.3083  158.1136 C   0  0  0  0  0  0  0  0  0  0  0  0
  153.1616  139.4756  159.0132 C   0  0  0  0  0  0  0  0  0  0  0  0
  154.1412  139.3418  160.0175 C   0  0  0  0  0  0  0  0  0  0  0  0
  154.4154  140.4534  160.8376 C   0  0  0  0  0  0  0  0  0  0  0  0
  153.7852  141.6408  160.7117 N   0  0  0  0  0  0  0  0  0  0  0  0
  152.8388  141.7660  159.7498 C   0  0  0  0  0  0  0  0  0  0  0  0
  152.1741  142.9941  159.6235 N   0  0  0  0  0  0  0  0  0  0  0  0
  152.5241  143.9545  160.6628 C   0  0  0  0  0  0  0  0  0  0  0  0
  151.6612  145.2201  160.5215 C   0  0  0  0  0  0  0  0  0  0  0  0
  151.8171  145.7595  159.2118 O   0  0  0  0  0  0  0  0  0  0  0  0
  151.4037  144.8419  158.2029 C   0  0  0  0  0  0  0  0  0  0  0  0
  152.2581  143.5646  158.2848 C   0  0  0  0  0  0  0  0  0  0  0  0
  152.4962  140.7109  158.8783 C   0  0  0  0  0  0  0  0  0  0  0  0
  150.7720  136.8817  155.8498 H   0  0  0  0  0  0  0  0  0  0  0  0
  150.7858  138.4397  157.4902 H   0  0  0  0  0  0  0  0  0  0  0  0
  152.5119  137.4613  158.7303 H   0  0  0  0  0  0  0  0  0  0  0  0
  153.6914  137.9912  157.5480 H   0  0  0  0  0  0  0  0  0  0  0  0
  154.6679  138.4095  160.1593 H   0  0  0  0  0  0  0  0  0  0  0  0
  155.1595  140.3866  161.6175 H   0  0  0  0  0  0  0  0  0  0  0  0
  152.3744  143.5057  161.6456 H   0  0  0  0  0  0  0  0  0  0  0  0
  153.5801  144.2173  160.5843 H   0  0  0  0  0  0  0  0  0  0  0  0
  150.6099  144.9981  160.7121 H   0  0  0  0  0  0  0  0  0  0  0  0
  151.9672  145.9674  161.2534 H   0  0  0  0  0  0  0  0  0  0  0  0
  150.3441  144.6096  158.3211 H   0  0  0  0  0  0  0  0  0  0  0  0
  151.5203  145.3109  157.2259 H   0  0  0  0  0  0  0  0  0  0  0  0
  153.2968  143.7989  158.0476 H   0  0  0  0  0  0  0  0  0  0  0  0
  151.9144  142.8357  157.5499 H   0  0  0  0  0  0  0  0  0  0  0  0
  151.7332  140.8442  158.1247 H   0  0  0  0  0  0  0  0  0  0  0  0
  1  2  1  0  0  0  0
  1 19  1  0  0  0  0
  2  3  2  0  0  0  0
  2  4  2  0  0  0  0
  2  5  1  0  0  0  0
  5  6  1  0  0  0  0
  5 20  1  0  0  0  0
  6  7  1  0  0  0  0
  6 21  1  0  0  0  0
  6 22  1  0  0  0  0
  7 18  1  0  0  0  0
  7  8  2  0  0  0  0
  8  9  1  0  0  0  0
  8 23  1  0  0  0  0
  9 10  2  0  0  0  0
  9 24  1  0  0  0  0
 10 11  1  0  0  0  0
 11 12  1  0  0  0  0
 11 18  2  0  0  0  0
 12 17  1  0  0  0  0
 12 13  1  0  0  0  0
 13 14  1  0  0  0  0
 13 25  1  0  0  0  0
 13 26  1  0  0  0  0
 14 15  1  0  0  0  0
 14 27  1  0  0  0  0
 14 28  1  0  0  0  0
 15 16  1  0  0  0  0
 16 17  1  0  0  0  0
 16 29  1  0  0  0  0
 16 30  1  0  0  0  0
 17 31  1  0  0  0  0
 17 32  1  0  0  0  0
 18 33  1  0  0  0  0
M  CHG  1   1  -1
M  END
> <s_m_source_file>
AV-unprocessed.smi

> <i_m_source_file_index>
1473

> <i_lp_mmshare_version>
43012

> <i_f3d_flags>
0

> <s_epik_input>
W05IMl1TKD1PKSg9TylbTkhdW0NIMl1jMVtjSF1bY0hdbmMoW2NIXTEpTjJbQ0gyXVtDSDJdT1tDSDJdW0NIMl0y

> <s_epik_cmdline>
J2VwaWtfcHl0aG9uJywgJy1waCcsICc3LjAnLCAnLXRuJywgJzgnLCAnLW1hJywgJzIwMCcsICctbWV0YWxfYmluZGluZycsICctaW1hZScsICc8aW5maWxlLm1hZT4nLCAnLW9tYWUnLCAnPG91dGZpbGUubWFlPic=

> <r_lp_tautomer_probability>
1

> <r_epik_Ionization_Penalty>
2.7939

> <r_epik_Ionization_Penalty_Charging>
2.75358

> <r_epik_Ionization_Penalty_Neutral>
0.0403146

> <r_epik_State_Penalty>
2.98411

> <r_epik_Charging_Adjusted_Penalty>
5.73769

> <i_epik_Tot_Q>
-1

> <i_epik_Tot_abs_Q>
1

> <r_epik_Metal_State_Penalty>
0.875881

> <b_epik_Metal_Only>
1

> <s_lp_Force_Field>
OPLS_2005

> <r_lp_Energy>
15.423

> <b_lp_Chiralities_Consistent>
1

> <s_lp_Variant>
AV-unprocessed.smi:1473-5

> <Gold.Version>
5.8.1

> <Gold.Id.Protein>
6NUR|6NUR_protein|mol2

> <Gold.PLP.Fitness>
48.4706

> <Gold.PLP.PLP>
-36.4830

> <Gold.PLP.part.hbond>
-3.9379

> <Gold.PLP.part.metal>
0.0000

> <Gold.PLP.part.buried>
-8.1897

> <Gold.PLP.part.nonpolar>
-25.3117

> <Gold.PLP.part.repulsive>
0.2627

> <Gold.PLP.ligand.clash>
0.0000

> <Gold.PLP.ligand.torsion>
0.5886

> <Gold.PLP.Chemscore.Hbond>
4.0000

> <Gold.PLP.Chemscore.CHOScore>
0.0000

> <Gold.PLP.Chemscore.Metal>
0.0000

> <Gold.Chemscore.Hbonds>
donor molecule, donor type, donor heavy atom, donor atom, acceptor molecule, acceptor atom, score
      P1  H  7989  7998       L1     4  1.00
      P1  H  7997  8010       L1     3  1.00
      P1  H 10752 10763       L1     1  1.53

> <Gold.PLP.Chemscore.Internal.Correction>
1.1647

> <Gold.Rescore>
     Score         DG    S(hbond)    S(metal)    S(lipo)     H(rot)  DE(clash)    DE(int)     intcor
     18.65     -19.25       2.85        0.00      77.41       1.88       0.00       0.59       ----

> <Gold.Chemscore.Fitness>
18.6543

> <Gold.Chemscore.DG>
-19.2460

> <Gold.Chemscore.ZeroCoef>
-5.4800

> <Gold.Chemscore.Hbond>
2.8518

> <Gold.Chemscore.Metal>
0.0000

> <Gold.Chemscore.Lipo>
77.4141

> <Gold.Chemscore.Internal_Hbond>
0.0000

> <Gold.Chemscore.DEClash>
0.0000

> <Gold.Chemscore.DEInternal>
0.5917

> <Gold.Chemscore.Rot>
1.8814

> <Gold.Chemscore.Internal.Correction>
   9.000000E+99

> <Gold.Chemscore.Hbonds>
donor molecule, donor type, donor heavy atom, donor atom, acceptor molecule, acceptor atom, score
      P1  H  7989  7998       L1     4  0.93
      P1  H  7997  8010       L1     3  0.96
      P1  H 10752 10763       L1     1  0.72

> <Gold.Chemscore.Hbond.Weighted>
-9.5250

> <Gold.Chemscore.Metal.Weighted>
-0.0000

> <Gold.Chemscore.Lipo.Weighted>
-9.0575

> <Gold.Chemscore.Internal_Hbond.Weighted>
0.0000

> <Gold.Chemscore.DEClash.Weighted>
0.0000

> <Gold.Chemscore.DEInternal.Weighted>
0.5917

> <Gold.Chemscore.Rot.Weighted>
4.8165

> <Gold.Chemscore.Internal.Correction.Weighted>
   9.000000E+99

> <Gold.Protein.RotatedTorsions>
[ 6907 6896 6895 6894 ] final  161.89 input  -60.11 | X-H torsion
[ 7974 7965 7964 7962 ] final  158.39 input  175.53 | X-H torsion
[ 8008 7997 7996 7995 ] final   99.71 input   59.86 | X-H torsion
[ 10167 10162 10161 10158 ] final  -55.13 input  -65.29 | X-H torsion
[ 10718 10713 10712 10709 ] final -101.10 input   66.30 | X-H torsion
[ 10763 10752 10751 10750 ] final   54.99 input  -60.55 | X-H torsion
[ 11005 11000 10999 10996 ] final   39.20 input  -57.11 | X-H torsion

> <Gold.Protein.ActiveResidues>
 VAL166  LYS551  ARG553  GLY616  TRP617  ASP618  TYR619  PRO620  LYS621  CYS622 
 ASP623  PHE694  ASN695  SER759  ASP760  ASP761  ALA762  ILE779  LEU786  VAL792 
 PHE793  MET794  SER795  GLU796  ALA797  LYS798  CYS799  TRP800  GLU811  SER814 

> <Gold.Protein.RotatedAtoms>
  151.9487  133.3659  159.3991 H   0  0  0  0  0  0  0  0  0  0  0  0  # atno 6907 bound_to 6896
  150.6985  134.4363  159.5281 H   0  0  0  0  0  0  0  0  0  0  0  0  # atno 6908 bound_to 6896
  152.2032  134.8568  160.0556 H   0  0  0  0  0  0  0  0  0  0  0  0  # atno 6909 bound_to 6896
  144.7848  139.7472  143.6245 H   0  0  0  0  0  0  0  0  0  0  0  0  # atno 7974 bound_to 7965
  156.1132  140.3224  155.8102 H   0  0  0  0  0  0  0  0  0  0  0  0  # atno 8008 bound_to 7997
  155.4636  140.0541  157.3005 H   0  0  0  0  0  0  0  0  0  0  0  0  # atno 8009 bound_to 7997
  154.4774  140.2038  155.9859 H   0  0  0  0  0  0  0  0  0  0  0  0  # atno 8010 bound_to 7997
  140.6392  143.2498  151.5035 H   0  0  0  0  0  0  0  0  0  0  0  0  # atno 10167 bound_to 10162
  156.0184  130.5358  150.6914 H   0  0  0  0  0  0  0  0  0  0  0  0  # atno 10718 bound_to 10713
  152.9811  135.5726  154.4994 H   0  0  0  0  0  0  0  0  0  0  0  0  # atno 10763 bound_to 10752
  154.4516  135.2778  155.1779 H   0  0  0  0  0  0  0  0  0  0  0  0  # atno 10764 bound_to 10752
  154.3404  135.6230  153.5647 H   0  0  0  0  0  0  0  0  0  0  0  0  # atno 10765 bound_to 10752
  140.2052  134.3822  155.8076 H   0  0  0  0  0  0  0  0  0  0  0  0  # atno 11005 bound_to 11000
  146.2075  139.5408  142.9703 LP  0  0  0  0  0  0  0  0  0  0  0  0  # atno 17320 bound_to 7965
  145.5951  141.0364  143.2049 LP  0  0  0  0  0  0  0  0  0  0  0  0  # atno 17321 bound_to 7965
  139.5601  144.2176  152.1678 LP  0  0  0  0  0  0  0  0  0  0  0  0  # atno 17342 bound_to 10162
  140.1442  144.5174  150.6726 LP  0  0  0  0  0  0  0  0  0  0  0  0  # atno 17343 bound_to 10162
  157.4594  131.0881  151.0761 LP  0  0  0  0  0  0  0  0  0  0  0  0  # atno 17370 bound_to 10713
  157.1253  130.6079  149.5515 LP  0  0  0  0  0  0  0  0  0  0  0  0  # atno 17371 bound_to 10713
  141.2227  133.7114  156.8324 LP  0  0  0  0  0  0  0  0  0  0  0  0  # atno 17394 bound_to 11000
  140.2011  134.8896  157.3170 LP  0  0  0  0  0  0  0  0  0  0  0  0  # atno 17395 bound_to 11000

$$$$
