AV-unprocessed.smi:1153|AV-procd|sdf|4899|dock8
  -GOLD-   22720 3473D 1   1.00000     0.00000
 Structure written by MMmdl.
 26 27  0  0  0  0  0  0  0  0  1 V2000
  146.4096  142.2913  159.8752 O   0  0  0  0  0  0  0  0  0  0  0  0
  146.9875  142.9691  159.0241 C   0  0  0  0  0  0  0  0  0  0  0  0
  147.6365  142.3084  157.8021 C   0  0  0  0  0  0  0  0  0  0  0  0
  149.0819  142.4654  157.7880 N   0  0  0  0  0  0  0  0  0  0  0  0
  150.0336  141.6083  157.2776 C   0  0  0  0  0  0  0  0  0  0  0  0
  151.2539  142.1793  157.4973 C   0  0  0  0  0  0  0  0  0  0  0  0
  150.9497  143.4033  158.1614 C   0  0  0  0  0  0  0  0  0  0  0  0
  151.9019  144.4605  158.6552 C   0  0  0  0  0  0  0  0  0  0  0  0
  151.2261  145.4250  159.2797 F   0  0  0  0  0  0  0  0  0  0  0  0
  152.7793  143.9314  159.5079 F   0  0  0  0  0  0  0  0  0  0  0  0
  152.5672  144.9902  157.6287 F   0  0  0  0  0  0  0  0  0  0  0  0
  149.6446  143.5646  158.3345 N   0  0  0  0  0  0  0  0  0  0  0  0
  147.0896  144.3048  159.0903 N   0  0  0  0  0  0  0  0  0  0  0  0
  146.5635  145.1268  160.1316 C   0  0  0  0  0  0  0  0  0  0  0  0
  147.5121  145.5694  161.2246 C   0  0  0  0  0  0  0  0  0  0  0  0
  146.4682  144.5280  161.5183 C   0  0  0  0  0  0  0  0  0  0  0  0
  147.3843  141.2470  157.7924 H   0  0  0  0  0  0  0  0  0  0  0  0
  147.2374  142.7425  156.8844 H   0  0  0  0  0  0  0  0  0  0  0  0
  149.7654  140.6757  156.8033 H   0  0  0  0  0  0  0  0  0  0  0  0
  152.2206  141.7828  157.2244 H   0  0  0  0  0  0  0  0  0  0  0  0
  147.5779  144.7774  158.3435 H   0  0  0  0  0  0  0  0  0  0  0  0
  145.7808  145.8349  159.8631 H   0  0  0  0  0  0  0  0  0  0  0  0
  148.5477  145.2396  161.1653 H   0  0  0  0  0  0  0  0  0  0  0  0
  147.3637  146.5621  161.6450 H   0  0  0  0  0  0  0  0  0  0  0  0
  145.6224  144.8248  162.1352 H   0  0  0  0  0  0  0  0  0  0  0  0
  146.8068  143.5026  161.6554 H   0  0  0  0  0  0  0  0  0  0  0  0
  1  2  2  0  0  0  0
  2  3  1  0  0  0  0
  2 13  1  0  0  0  0
  3  4  1  0  0  0  0
  3 17  1  0  0  0  0
  3 18  1  0  0  0  0
  4 12  1  0  0  0  0
  4  5  1  0  0  0  0
  5  6  2  0  0  0  0
  5 19  1  0  0  0  0
  6  7  1  0  0  0  0
  6 20  1  0  0  0  0
  7  8  1  0  0  0  0
  7 12  2  0  0  0  0
  8  9  1  0  0  0  0
  8 10  1  0  0  0  0
  8 11  1  0  0  0  0
 13 14  1  0  0  0  0
 13 21  1  0  0  0  0
 14 16  1  0  0  0  0
 14 15  1  0  0  0  0
 14 22  1  0  0  0  0
 15 16  1  0  0  0  0
 15 23  1  0  0  0  0
 15 24  1  0  0  0  0
 16 25  1  0  0  0  0
 16 26  1  0  0  0  0
M  END
> <s_m_source_file>
AV-unprocessed.smi

> <i_m_source_file_index>
1153

> <i_lp_mmshare_version>
43012

> <i_f3d_flags>
0

> <s_epik_input>
W0NIMl0xW0NIMl1bQ0hdMVtOSF1DKD1PKVtDSDJdbjJbY0hdW2NIXWMobjIpQyhGKShGKUY=

> <s_epik_cmdline>
J2VwaWtfcHl0aG9uJywgJy1waCcsICc3LjAnLCAnLXRuJywgJzgnLCAnLW1hJywgJzIwMCcsICctbWV0YWxfYmluZGluZycsICctaW1hZScsICc8aW5maWxlLm1hZT4nLCAnLW9tYWUnLCAnPG91dGZpbGUubWFlPic=

> <r_lp_tautomer_probability>
1

> <r_epik_Ionization_Penalty>
7.21317e-08

> <r_epik_Ionization_Penalty_Charging>
0

> <r_epik_Ionization_Penalty_Neutral>
7.21317e-08

> <r_epik_State_Penalty>
-0

> <r_epik_Charging_Adjusted_Penalty>
0

> <i_epik_Tot_Q>
0

> <i_epik_Tot_abs_Q>
0

> <r_epik_Metal_State_Penalty>
-0

> <b_epik_Metal_Only>
0

> <s_lp_Force_Field>
OPLS_2005

> <r_lp_Energy>
18.4383

> <b_lp_Chiralities_Consistent>
1

> <s_lp_Variant>
AV-unprocessed.smi:1153-1

> <Gold.Version>
5.8.1

> <Gold.Id.Protein>
6NUR|6NUR_protein|mol2

> <Gold.PLP.Fitness>
43.5750

> <Gold.PLP.PLP>
-39.0853

> <Gold.PLP.part.hbond>
-2.0000

> <Gold.PLP.part.metal>
0.0000

> <Gold.PLP.part.buried>
-5.4977

> <Gold.PLP.part.nonpolar>
-31.7589

> <Gold.PLP.part.repulsive>
0.2747

> <Gold.PLP.ligand.clash>
0.0000

> <Gold.PLP.ligand.torsion>
0.7649

> <Gold.PLP.Chemscore.Hbond>
1.9920

> <Gold.PLP.Chemscore.CHOScore>
0.0000

> <Gold.PLP.Chemscore.Metal>
0.0000

> <Gold.Chemscore.Hbonds>
donor molecule, donor type, donor heavy atom, donor atom, acceptor molecule, acceptor atom, score
      L1  H    13    21       P1  8029  1.00
      P1  H  6934  6946       L1     1  1.00

> <Gold.PLP.Chemscore.Internal.Correction>
0.0435

> <Gold.Rescore>
     Score         DG    S(hbond)    S(metal)    S(lipo)     H(rot)  DE(clash)    DE(int)     intcor
     12.47     -14.39       1.99        0.00      55.10       1.64       0.05       1.87       ----

> <Gold.Chemscore.Fitness>
12.4687

> <Gold.Chemscore.DG>
-14.3866

> <Gold.Chemscore.ZeroCoef>
-5.4800

> <Gold.Chemscore.Hbond>
1.9915

> <Gold.Chemscore.Metal>
0.0000

> <Gold.Chemscore.Lipo>
55.0972

> <Gold.Chemscore.Internal_Hbond>
0.0000

> <Gold.Chemscore.DEClash>
0.0494

> <Gold.Chemscore.DEInternal>
1.8685

> <Gold.Chemscore.Rot>
1.6372

> <Gold.Chemscore.Internal.Correction>
   9.000000E+99

> <Gold.Chemscore.Hbonds>
donor molecule, donor type, donor heavy atom, donor atom, acceptor molecule, acceptor atom, score
      L1  H    13    21       P1  8029  0.93
      P1  H  6934  6946       L1     1  1.00

> <Gold.Chemscore.Hbond.Weighted>
-6.6515

> <Gold.Chemscore.Metal.Weighted>
-0.0000

> <Gold.Chemscore.Lipo.Weighted>
-6.4464

> <Gold.Chemscore.Internal_Hbond.Weighted>
0.0000

> <Gold.Chemscore.DEClash.Weighted>
0.0494

> <Gold.Chemscore.DEInternal.Weighted>
1.8685

> <Gold.Chemscore.Rot.Weighted>
4.1913

> <Gold.Chemscore.Internal.Correction.Weighted>
   9.000000E+99

> <Gold.Protein.RotatedTorsions>
[ 6907 6896 6895 6894 ] final -141.21 input  -60.11 | X-H torsion
[ 7974 7965 7964 7962 ] final   54.83 input  175.53 | X-H torsion
[ 8008 7997 7996 7995 ] final -162.06 input   59.86 | X-H torsion
[ 10167 10162 10161 10158 ] final  -87.20 input  -65.29 | X-H torsion
[ 10718 10713 10712 10709 ] final -149.24 input   66.30 | X-H torsion
[ 10763 10752 10751 10750 ] final -162.20 input  -60.55 | X-H torsion
[ 11005 11000 10999 10996 ] final  -16.16 input  -57.11 | X-H torsion

> <Gold.Protein.ActiveResidues>
 VAL166  LYS551  ARG553  GLY616  TRP617  ASP618  TYR619  PRO620  LYS621  CYS622 
 ASP623  PHE694  ASN695  SER759  ASP760  ASP761  ALA762  ILE779  LEU786  VAL792 
 PHE793  MET794  SER795  GLU796  ALA797  LYS798  CYS799  TRP800  GLU811  SER814 

> <Gold.Protein.RotatedAtoms>
  151.0709  133.5467  159.2626 H   0  0  0  0  0  0  0  0  0  0  0  0  # atno 6907 bound_to 6896
  151.2407  135.0587  159.9034 H   0  0  0  0  0  0  0  0  0  0  0  0  # atno 6908 bound_to 6896
  152.5411  134.0484  159.8152 H   0  0  0  0  0  0  0  0  0  0  0  0  # atno 6909 bound_to 6896
  145.9567  139.4021  143.0273 H   0  0  0  0  0  0  0  0  0  0  0  0  # atno 7974 bound_to 7965
  155.8013  140.0892  157.1955 H   0  0  0  0  0  0  0  0  0  0  0  0  # atno 8008 bound_to 7997
  154.3982  140.1472  156.3337 H   0  0  0  0  0  0  0  0  0  0  0  0  # atno 8009 bound_to 7997
  155.8459  140.3437  155.5665 H   0  0  0  0  0  0  0  0  0  0  0  0  # atno 8010 bound_to 7997
  140.3868  143.2723  151.9315 H   0  0  0  0  0  0  0  0  0  0  0  0  # atno 10167 bound_to 10162
  156.4306  130.8074  151.2300 H   0  0  0  0  0  0  0  0  0  0  0  0  # atno 10718 bound_to 10713
  154.7235  135.3031  154.9008 H   0  0  0  0  0  0  0  0  0  0  0  0  # atno 10763 bound_to 10752
  153.9873  135.6723  153.4756 H   0  0  0  0  0  0  0  0  0  0  0  0  # atno 10764 bound_to 10752
  153.0855  135.4986  154.8506 H   0  0  0  0  0  0  0  0  0  0  0  0  # atno 10765 bound_to 10752
  140.8040  133.8192  155.9497 H   0  0  0  0  0  0  0  0  0  0  0  0  # atno 11005 bound_to 11000
  145.8096  140.9732  143.0956 LP  0  0  0  0  0  0  0  0  0  0  0  0  # atno 17320 bound_to 7965
  144.6806  139.9904  143.7484 LP  0  0  0  0  0  0  0  0  0  0  0  0  # atno 17321 bound_to 7965
  139.4791  144.5766  151.8001 LP  0  0  0  0  0  0  0  0  0  0  0  0  # atno 17342 bound_to 10162
  140.4881  144.1351  150.5945 LP  0  0  0  0  0  0  0  0  0  0  0  0  # atno 17343 bound_to 10162
  157.7508  131.0199  150.3688 LP  0  0  0  0  0  0  0  0  0  0  0  0  # atno 17370 bound_to 10713
  156.4024  130.3918  149.6950 LP  0  0  0  0  0  0  0  0  0  0  0  0  # atno 17371 bound_to 10713
  140.9266  134.2074  157.4892 LP  0  0  0  0  0  0  0  0  0  0  0  0  # atno 17394 bound_to 11000
  139.8719  134.9815  156.5119 LP  0  0  0  0  0  0  0  0  0  0  0  0  # atno 17395 bound_to 11000

$$$$
