AV-unprocessed.smi:1782|AV-procd|sdf|7189|dock1
  -GOLD-   22720 8433D 1   1.00000     0.00000
 Structure written by MMmdl.
 42 44  0  0  0  0  0  0  0  0  2 V2000
  148.8466  141.0711  156.9307 O   0  0  0  0  0  0  0  0  0  0  0  0
  149.9335  140.8826  156.3828 C   0  0  0  0  0  0  0  0  0  0  0  0
  150.9717  142.0096  156.2887 C   0  0  0  0  0  0  0  0  0  0  0  0
  151.5286  142.3930  157.5975 N   0  0  0  0  0  0  0  0  0  0  0  0
  151.1956  143.6701  158.0833 C   0  0  0  0  0  0  0  0  0  0  0  0
  151.6513  144.1174  159.2611 C   0  0  0  0  0  0  0  0  0  0  0  0
  152.5045  143.2504  160.0366 C   0  0  0  0  0  0  0  0  0  0  0  0
  152.8452  142.0179  159.5940 C   0  0  0  0  0  0  0  0  0  0  0  0
  153.7485  141.0883  160.4012 C   0  0  0  0  0  0  0  0  0  0  0  0
  153.2366  139.8575  160.4427 F   0  0  0  0  0  0  0  0  0  0  0  0
  154.9604  141.0171  159.8493 F   0  0  0  0  0  0  0  0  0  0  0  0
  153.8970  141.5105  161.6578 F   0  0  0  0  0  0  0  0  0  0  0  0
  152.3391  141.5355  158.2925 C   0  0  0  0  0  0  0  0  0  0  0  0
  152.6242  140.4233  157.8444 O   0  0  0  0  0  0  0  0  0  0  0  0
  150.2919  139.7032  155.8546 N   0  0  0  0  0  0  0  0  0  0  0  0
  149.4477  138.5142  155.8309 C   0  0  1  0  0  0  0  0  0  0  0  0
  148.0749  138.7220  155.1974 C   0  0  0  0  0  0  0  0  0  0  0  0
  147.6563  137.2933  154.8335 C   0  0  0  0  0  0  0  0  0  0  0  0
  148.9066  136.5259  154.6066 N   0  3  2  0  0  0  0  0  0  0  0  0
  148.9354  135.2225  155.3056 C   0  0  0  0  0  0  0  0  0  0  0  0
  150.3071  134.5928  155.3523 C   0  0  0  0  0  0  0  0  0  0  0  0
  149.2592  134.0585  154.3999 C   0  0  0  0  0  0  0  0  0  0  0  0
  150.0404  137.4099  154.9565 C   0  0  0  0  0  0  0  0  0  0  0  0
  151.7637  141.6833  155.6130 H   0  0  0  0  0  0  0  0  0  0  0  0
  150.5261  142.8810  155.8047 H   0  0  0  0  0  0  0  0  0  0  0  0
  150.5584  144.2590  157.4397 H   0  0  0  0  0  0  0  0  0  0  0  0
  151.3903  145.1026  159.6188 H   0  0  0  0  0  0  0  0  0  0  0  0
  152.8707  143.6089  160.9870 H   0  0  0  0  0  0  0  0  0  0  0  0
  151.2052  139.6310  155.4291 H   0  0  0  0  0  0  0  0  0  0  0  0
  149.3248  138.1322  156.8465 H   0  0  0  0  0  0  0  0  0  0  0  0
  147.3657  139.2123  155.8652 H   0  0  0  0  0  0  0  0  0  0  0  0
  148.1618  139.3270  154.2934 H   0  0  0  0  0  0  0  0  0  0  0  0
  147.0926  136.8591  155.6612 H   0  0  0  0  0  0  0  0  0  0  0  0
  147.0158  137.2667  153.9516 H   0  0  0  0  0  0  0  0  0  0  0  0
  148.2428  135.1012  156.1370 H   0  0  0  0  0  0  0  0  0  0  0  0
  151.1420  135.1441  154.9234 H   0  0  0  0  0  0  0  0  0  0  0  0
  150.5502  133.9816  156.2193 H   0  0  0  0  0  0  0  0  0  0  0  0
  148.8127  133.0957  154.6400 H   0  0  0  0  0  0  0  0  0  0  0  0
  149.3995  134.2540  153.3382 H   0  0  0  0  0  0  0  0  0  0  0  0
  150.4349  137.8286  154.0293 H   0  0  0  0  0  0  0  0  0  0  0  0
  150.8564  136.8795  155.4500 H   0  0  0  0  0  0  0  0  0  0  0  0
  148.9765  136.3339  153.6174 H   0  0  0  0  0  0  0  0  0  0  0  0
  1  2  2  0  0  0  0
  2  3  1  0  0  0  0
  2 15  1  0  0  0  0
  3  4  1  0  0  0  0
  3 24  1  0  0  0  0
  3 25  1  0  0  0  0
  4 13  1  0  0  0  0
  4  5  1  0  0  0  0
  5  6  2  0  0  0  0
  5 26  1  0  0  0  0
  6  7  1  0  0  0  0
  6 27  1  0  0  0  0
  7  8  2  0  0  0  0
  7 28  1  0  0  0  0
  8  9  1  0  0  0  0
  8 13  1  0  0  0  0
  9 10  1  0  0  0  0
  9 11  1  0  0  0  0
  9 12  1  0  0  0  0
 13 14  2  0  0  0  0
 15 16  1  0  0  0  0
 15 29  1  0  0  0  0
 16 23  1  0  0  0  0
 16 17  1  0  0  0  0
 16 30  1  0  0  0  0
 17 18  1  0  0  0  0
 17 31  1  0  0  0  0
 17 32  1  0  0  0  0
 18 19  1  0  0  0  0
 18 33  1  0  0  0  0
 18 34  1  0  0  0  0
 19 20  1  0  0  0  0
 19 23  1  0  0  0  0
 19 42  1  0  0  0  0
 20 22  1  0  0  0  0
 20 21  1  0  0  0  0
 20 35  1  0  0  0  0
 21 22  1  0  0  0  0
 21 36  1  0  0  0  0
 21 37  1  0  0  0  0
 22 38  1  0  0  0  0
 22 39  1  0  0  0  0
 23 40  1  0  0  0  0
 23 41  1  0  0  0  0
M  CHG  1  19   1
M  END
> <s_m_source_file>
AV-unprocessed.smi

> <i_m_source_file_index>
1782

> <i_lp_mmshare_version>
43012

> <i_f3d_flags>
0

> <s_epik_input>
W0NIMl0xW0NIMl1bQ0hdMU4oW0NIMl0yKVtDSDJdW0NIMl1bQ0BIXTJbTkhdQyg9TylbQ0gyXW4zW2NIXVtjSF1bY0hdYyhDKEYpKEYpRiljMz1P

> <s_epik_cmdline>
J2VwaWtfcHl0aG9uJywgJy1waCcsICc3LjAnLCAnLXRuJywgJzgnLCAnLW1hJywgJzIwMCcsICctbWV0YWxfYmluZGluZycsICctaW1hZScsICc8aW5maWxlLm1hZT4nLCAnLW9tYWUnLCAnPG91dGZpbGUubWFlPic=

> <r_lp_tautomer_probability>
1

> <r_epik_Ionization_Penalty>
0.00106789

> <r_epik_Ionization_Penalty_Charging>
0.00106781

> <r_epik_Ionization_Penalty_Neutral>
8.2288e-08

> <r_epik_State_Penalty>
0.000699156

> <r_epik_Charging_Adjusted_Penalty>
0.00176697

> <i_epik_Tot_Q>
1

> <i_epik_Tot_abs_Q>
1

> <r_epik_Metal_State_Penalty>
-0

> <b_epik_Metal_Only>
0

> <s_lp_Force_Field>
OPLS_2005

> <r_lp_Energy>
46.9995

> <b_lp_Chiralities_Consistent>
1

> <s_lp_Variant>
AV-unprocessed.smi:1782-2

> <Gold.Version>
5.8.1

> <Gold.Id.Protein>
6NUR|6NUR_protein|mol2

> <Gold.PLP.Fitness>
50.7231

> <Gold.PLP.PLP>
-40.4235

> <Gold.PLP.part.hbond>
-2.0000

> <Gold.PLP.part.metal>
0.0000

> <Gold.PLP.part.buried>
-4.3252

> <Gold.PLP.part.nonpolar>
-32.8958

> <Gold.PLP.part.repulsive>
0.1084

> <Gold.PLP.ligand.clash>
0.0000

> <Gold.PLP.ligand.torsion>
1.4778

> <Gold.PLP.Chemscore.Hbond>
2.8723

> <Gold.PLP.Chemscore.CHOScore>
1.0000

> <Gold.PLP.Chemscore.Metal>
0.0000

> <Gold.Chemscore.Hbonds>
donor molecule, donor type, donor heavy atom, donor atom, acceptor molecule, acceptor atom, score
      L1  H    19    42       P1  7948  2.00
      P1  H  7997  8010       L1    14  0.70
      L1  C     5    26       P1  8028  1.00

> <Gold.PLP.Chemscore.Internal.Correction>
1.6382

> <Gold.Rescore>
     Score         DG    S(hbond)    S(metal)    S(lipo)     H(rot)  DE(clash)    DE(int)     intcor
     13.18     -17.14       1.78        0.00      88.50       1.81       0.37       3.58       ----

> <Gold.Chemscore.Fitness>
13.1845

> <Gold.Chemscore.DG>
-17.1383

> <Gold.Chemscore.ZeroCoef>
-5.4800

> <Gold.Chemscore.Hbond>
1.7776

> <Gold.Chemscore.Metal>
0.0000

> <Gold.Chemscore.Lipo>
88.5037

> <Gold.Chemscore.Internal_Hbond>
0.0000

> <Gold.Chemscore.DEClash>
0.3732

> <Gold.Chemscore.DEInternal>
3.5806

> <Gold.Chemscore.Rot>
1.8101

> <Gold.Chemscore.Internal.Correction>
   9.000000E+99

> <Gold.Chemscore.Hbonds>
donor molecule, donor type, donor heavy atom, donor atom, acceptor molecule, acceptor atom, score
      L1  H    19    42       P1  7948  0.99
      P1  H  7997  8010       L1    14  0.67

> <Gold.Chemscore.Hbond.Weighted>
-5.9372

> <Gold.Chemscore.Metal.Weighted>
-0.0000

> <Gold.Chemscore.Lipo.Weighted>
-10.3549

> <Gold.Chemscore.Internal_Hbond.Weighted>
0.0000

> <Gold.Chemscore.DEClash.Weighted>
0.3732

> <Gold.Chemscore.DEInternal.Weighted>
3.5806

> <Gold.Chemscore.Rot.Weighted>
4.6338

> <Gold.Chemscore.Internal.Correction.Weighted>
   9.000000E+99

> <Gold.Protein.RotatedTorsions>
[ 6907 6896 6895 6894 ] final   95.42 input  -60.11 | X-H torsion
[ 7974 7965 7964 7962 ] final  -13.80 input  175.53 | X-H torsion
[ 8008 7997 7996 7995 ] final   47.80 input   59.86 | X-H torsion
[ 10167 10162 10161 10158 ] final  -11.94 input  -65.29 | X-H torsion
[ 10718 10713 10712 10709 ] final   50.61 input   66.30 | X-H torsion
[ 10763 10752 10751 10750 ] final  -98.83 input  -60.55 | X-H torsion
[ 11005 11000 10999 10996 ] final -118.10 input  -57.11 | X-H torsion

> <Gold.Protein.ActiveResidues>
 VAL166  LYS551  ARG553  GLY616  TRP617  ASP618  TYR619  PRO620  LYS621  CYS622 
 ASP623  PHE694  ASN695  SER759  ASP760  ASP761  ALA762  ILE779  LEU786  VAL792 
 PHE793  MET794  SER795  GLU796  ALA797  LYS798  CYS799  TRP800  GLU811  SER814 

> <Gold.Protein.RotatedAtoms>
  152.5443  134.1043  159.8330 H   0  0  0  0  0  0  0  0  0  0  0  0  # atno 6907 bound_to 6896
  151.1117  133.5161  159.2613 H   0  0  0  0  0  0  0  0  0  0  0  0  # atno 6908 bound_to 6896
  151.1877  135.0398  159.8874 H   0  0  0  0  0  0  0  0  0  0  0  0  # atno 6909 bound_to 6896
  146.2100  140.3256  142.8394 H   0  0  0  0  0  0  0  0  0  0  0  0  # atno 7974 bound_to 7965
  155.3750  140.3425  155.4244 H   0  0  0  0  0  0  0  0  0  0  0  0  # atno 8008 bound_to 7997
  156.1642  140.1610  156.8594 H   0  0  0  0  0  0  0  0  0  0  0  0  # atno 8009 bound_to 7997
  154.5169  140.0776  156.8079 H   0  0  0  0  0  0  0  0  0  0  0  0  # atno 8010 bound_to 7997
  140.7150  143.5586  150.9221 H   0  0  0  0  0  0  0  0  0  0  0  0  # atno 10167 bound_to 10162
  157.4901  130.8370  149.8192 H   0  0  0  0  0  0  0  0  0  0  0  0  # atno 10718 bound_to 10713
  154.7447  135.4995  153.9183 H   0  0  0  0  0  0  0  0  0  0  0  0  # atno 10763 bound_to 10752
  153.1079  135.6702  153.9560 H   0  0  0  0  0  0  0  0  0  0  0  0  # atno 10764 bound_to 10752
  153.9328  135.3076  155.3424 H   0  0  0  0  0  0  0  0  0  0  0  0  # atno 10765 bound_to 10752
  141.0309  133.9982  157.3144 H   0  0  0  0  0  0  0  0  0  0  0  0  # atno 11005 bound_to 11000
  144.8888  140.7497  143.5939 LP  0  0  0  0  0  0  0  0  0  0  0  0  # atno 17320 bound_to 7965
  145.3178  139.1798  143.4604 LP  0  0  0  0  0  0  0  0  0  0  0  0  # atno 17321 bound_to 7965
  139.9311  143.6492  152.3076 LP  0  0  0  0  0  0  0  0  0  0  0  0  # atno 17342 bound_to 10162
  139.6943  144.7643  151.1383 LP  0  0  0  0  0  0  0  0  0  0  0  0  # atno 17343 bound_to 10162
  156.0168  130.3810  150.2084 LP  0  0  0  0  0  0  0  0  0  0  0  0  # atno 17370 bound_to 10713
  157.0273  130.9997  151.3322 LP  0  0  0  0  0  0  0  0  0  0  0  0  # atno 17371 bound_to 10713
  139.9207  135.0200  156.8054 LP  0  0  0  0  0  0  0  0  0  0  0  0  # atno 17394 bound_to 11000
  140.6408  133.9820  155.7706 LP  0  0  0  0  0  0  0  0  0  0  0  0  # atno 17395 bound_to 11000

$$$$
