AV-unprocessed.smi:34|AV-procd|sdf|240|dock4
  -GOLD-   2262015583D 1   1.00000     0.00000
 Structure written by MMmdl.
 54 58  0  0  0  0  0  0  0  0  2 V2000
  142.1226  141.1330  159.0986 O   0  0  0  0  0  0  0  0  0  0  0  0
  143.0907  141.8862  158.9739 C   0  0  0  0  0  0  0  0  0  0  0  0
  143.7851  142.1722  157.8437 N   0  5  0  0  0  0  0  0  0  0  0  0
  144.8125  141.3920  157.4751 C   0  0  0  0  0  0  0  0  0  0  0  0
  145.1661  140.3202  158.2296 N   0  0  0  0  0  0  0  0  0  0  0  0
  146.1932  139.5448  157.8632 C   0  0  0  0  0  0  0  0  0  0  0  0
  146.9948  139.6595  156.8000 N   0  0  0  0  0  0  0  0  0  0  0  0
  146.6566  140.7403  156.0385 C   0  0  0  0  0  0  0  0  0  0  0  0
  145.5904  141.6461  156.3123 C   0  0  0  0  0  0  0  0  0  0  0  0
  145.5249  142.6363  155.3431 N   0  0  0  0  0  0  0  0  0  0  0  0
  146.5308  142.2944  154.5410 C   0  0  0  0  0  0  0  0  0  0  0  0
  147.2413  141.1970  154.8683 N   0  0  0  0  0  0  0  0  0  0  0  0
  148.4029  140.6151  154.1329 C   0  0  1  0  0  0  0  0  0  0  0  0
  149.5358  140.7699  154.9282 O   0  0  0  0  0  0  0  0  0  0  0  0
  150.3920  139.6610  154.7046 C   0  0  1  0  0  0  0  0  0  0  0  0
  151.4123  139.5162  155.8403 C   0  0  0  0  0  0  0  0  0  0  0  0
  151.4583  140.7225  156.5848 O   0  0  0  0  0  0  0  0  0  0  0  0
  152.2456  140.8119  157.6746 C   0  0  0  0  0  0  0  0  0  0  0  0
  152.9536  139.8887  158.0825 O   0  0  0  0  0  0  0  0  0  0  0  0
  152.1717  142.1466  158.3367 C   0  0  0  0  0  0  0  0  0  0  0  0
  151.5692  143.2275  157.6512 C   0  0  0  0  0  0  0  0  0  0  0  0
  151.4843  144.4993  158.2504 C   0  0  0  0  0  0  0  0  0  0  0  0
  152.0010  144.7062  159.5426 C   0  0  0  0  0  0  0  0  0  0  0  0
  152.6030  143.6394  160.2350 C   0  0  0  0  0  0  0  0  0  0  0  0
  152.6889  142.3665  159.6374 C   0  0  0  0  0  0  0  0  0  0  0  0
  149.4156  138.4899  154.5796 C   0  0  1  0  0  0  0  0  0  0  0  0
  149.0573  138.0377  155.7826 F   0  0  0  0  0  0  0  0  0  0  0  0
  148.2061  139.1078  153.8876 C   0  0  2  0  0  0  0  0  0  0  0  0
  148.2308  138.7910  152.5106 O   0  0  0  0  0  0  0  0  0  0  0  0
  143.6568  142.5481  160.2011 C   0  0  0  0  0  0  0  0  0  0  0  0
  145.0377  142.8446  160.2630 C   0  0  0  0  0  0  0  0  0  0  0  0
  145.5909  143.4425  161.4120 C   0  0  0  0  0  0  0  0  0  0  0  0
  144.7707  143.7403  162.5164 C   0  0  0  0  0  0  0  0  0  0  0  0
  143.3972  143.4362  162.4723 C   0  0  0  0  0  0  0  0  0  0  0  0
  142.8428  142.8398  161.3229 C   0  0  0  0  0  0  0  0  0  0  0  0
  146.4041  138.7123  158.5180 H   0  0  0  0  0  0  0  0  0  0  0  0
  146.7624  142.8754  153.6606 H   0  0  0  0  0  0  0  0  0  0  0  0
  148.4907  141.2036  153.2179 H   0  0  0  0  0  0  0  0  0  0  0  0
  150.9043  139.7987  153.7503 H   0  0  0  0  0  0  0  0  0  0  0  0
  151.1511  138.6746  156.4838 H   0  0  0  0  0  0  0  0  0  0  0  0
  152.4025  139.3213  155.4260 H   0  0  0  0  0  0  0  0  0  0  0  0
  151.1655  143.0931  156.6580 H   0  0  0  0  0  0  0  0  0  0  0  0
  151.0221  145.3171  157.7172 H   0  0  0  0  0  0  0  0  0  0  0  0
  151.9358  145.6816  160.0018 H   0  0  0  0  0  0  0  0  0  0  0  0
  153.0001  143.7969  161.2271 H   0  0  0  0  0  0  0  0  0  0  0  0
  153.1571  141.5696  160.1965 H   0  0  0  0  0  0  0  0  0  0  0  0
  149.8419  137.6409  154.0439 H   0  0  0  0  0  0  0  0  0  0  0  0
  147.2688  138.7525  154.3192 H   0  0  0  0  0  0  0  0  0  0  0  0
  148.7185  137.9894  152.3970 H   0  0  0  0  0  0  0  0  0  0  0  0
  145.6807  142.6206  159.4242 H   0  0  0  0  0  0  0  0  0  0  0  0
  146.6457  143.6715  161.4455 H   0  0  0  0  0  0  0  0  0  0  0  0
  145.1952  144.1977  163.3977 H   0  0  0  0  0  0  0  0  0  0  0  0
  142.7674  143.6583  163.3210 H   0  0  0  0  0  0  0  0  0  0  0  0
  141.7881  142.6057  161.3126 H   0  0  0  0  0  0  0  0  0  0  0  0
  1  2  2  0  0  0  0
  2  3  1  0  0  0  0
  2 30  1  0  0  0  0
  3  4  1  0  0  0  0
  4  9  1  0  0  0  0
  4  5  2  0  0  0  0
  5  6  1  0  0  0  0
  6  7  2  0  0  0  0
  6 36  1  0  0  0  0
  7  8  1  0  0  0  0
  8 12  1  0  0  0  0
  8  9  2  0  0  0  0
  9 10  1  0  0  0  0
 10 11  2  0  0  0  0
 11 12  1  0  0  0  0
 11 37  1  0  0  0  0
 12 13  1  0  0  0  0
 13 28  1  0  0  0  0
 13 14  1  0  0  0  0
 13 38  1  0  0  0  0
 14 15  1  0  0  0  0
 15 16  1  0  0  0  0
 15 26  1  0  0  0  0
 15 39  1  0  0  0  0
 16 17  1  0  0  0  0
 16 40  1  0  0  0  0
 16 41  1  0  0  0  0
 17 18  1  0  0  0  0
 18 19  2  0  0  0  0
 18 20  1  0  0  0  0
 20 25  1  0  0  0  0
 20 21  2  0  0  0  0
 21 22  1  0  0  0  0
 21 42  1  0  0  0  0
 22 23  2  0  0  0  0
 22 43  1  0  0  0  0
 23 24  1  0  0  0  0
 23 44  1  0  0  0  0
 24 25  2  0  0  0  0
 24 45  1  0  0  0  0
 25 46  1  0  0  0  0
 26 27  1  0  0  0  0
 26 28  1  0  0  0  0
 26 47  1  0  0  0  0
 28 29  1  0  0  0  0
 28 48  1  0  0  0  0
 29 49  1  0  0  0  0
 30 35  1  0  0  0  0
 30 31  2  0  0  0  0
 31 32  1  0  0  0  0
 31 50  1  0  0  0  0
 32 33  2  0  0  0  0
 32 51  1  0  0  0  0
 33 34  1  0  0  0  0
 33 52  1  0  0  0  0
 34 35  2  0  0  0  0
 34 53  1  0  0  0  0
 35 54  1  0  0  0  0
M  CHG  1   3  -1
M  END
> <s_m_source_file>
AV-unprocessed.smi

> <i_m_source_file_index>
34

> <i_lp_mmshare_version>
43012

> <i_f3d_flags>
0

> <s_epik_input>
W2NIXTFbY0hdW2NIXVtjSF1bY0hdYzFDKD1PKVtOSF1jKG5bY0hdbjIpYyhjMjMpbltjSF1uM1tDQEBIXTRPW0NASF0oW0NAQEhdKEYpW0NASF00W09IXSlbQ0gyXU9DKD1PKWM1W2NIXVtjSF1bY0hdW2NIXVtjSF01

> <s_epik_cmdline>
J2VwaWtfcHl0aG9uJywgJy1waCcsICc3LjAnLCAnLXRuJywgJzgnLCAnLW1hJywgJzIwMCcsICctbWV0YWxfYmluZGluZycsICctaW1hZScsICc8aW5maWxlLm1hZT4nLCAnLW9tYWUnLCAnPG91dGZpbGUubWFlPic=

> <r_lp_tautomer_probability>
1

> <r_epik_Ionization_Penalty>
4.33227

> <r_epik_Ionization_Penalty_Charging>
3.41027

> <r_epik_Ionization_Penalty_Neutral>
0.922001

> <r_epik_State_Penalty>
3.41358

> <r_epik_Charging_Adjusted_Penalty>
6.82385

> <i_epik_Tot_Q>
-1

> <i_epik_Tot_abs_Q>
1

> <r_epik_Metal_State_Penalty>
0.496292

> <b_epik_Metal_Only>
1

> <s_epik_Chemistry_Notes>
This compound has an ester and may undergo hydrolysis at high or low pH. This compound contains an acetal/aminal-like group ( X-CH(R)-Y where X, Y are N, S, or O) that may be acid/base labile, releasing an aldehyde.

> <s_lp_Force_Field>
OPLS_2005

> <r_lp_Energy>
44.0615

> <b_lp_Chiralities_Consistent>
1

> <s_lp_Variant>
AV-unprocessed.smi:34-26

> <Gold.Version>
5.8.1

> <Gold.Id.Protein>
6NUR|6NUR_protein|mol2

> <Gold.PLP.Fitness>
59.1793

> <Gold.PLP.PLP>
-56.7675

> <Gold.PLP.part.hbond>
-2.2975

> <Gold.PLP.part.metal>
0.0000

> <Gold.PLP.part.buried>
-8.5450

> <Gold.PLP.part.nonpolar>
-46.5779

> <Gold.PLP.part.repulsive>
0.2847

> <Gold.PLP.ligand.clash>
0.0000

> <Gold.PLP.ligand.torsion>
1.9615

> <Gold.PLP.Chemscore.Hbond>
2.0000

> <Gold.PLP.Chemscore.CHOScore>
0.0000

> <Gold.PLP.Chemscore.Metal>
0.0000

> <Gold.Chemscore.Hbonds>
donor molecule, donor type, donor heavy atom, donor atom, acceptor molecule, acceptor atom, score
      L1  H    29    49       P1  7948  1.00
      P1  H  7997  8009       L1    19  1.00

> <Gold.PLP.Chemscore.Internal.Correction>
0.3349

> <Gold.Rescore>
     Score         DG    S(hbond)    S(metal)    S(lipo)     H(rot)  DE(clash)    DE(int)     intcor
     17.00     -20.29       1.88        0.00     131.84       2.69       0.16       3.13       ----

> <Gold.Chemscore.Fitness>
17.0000

> <Gold.Chemscore.DG>
-20.2945

> <Gold.Chemscore.ZeroCoef>
-5.4800

> <Gold.Chemscore.Hbond>
1.8821

> <Gold.Chemscore.Metal>
0.0000

> <Gold.Chemscore.Lipo>
131.8436

> <Gold.Chemscore.Internal_Hbond>
0.0000

> <Gold.Chemscore.DEClash>
0.1642

> <Gold.Chemscore.DEInternal>
3.1303

> <Gold.Chemscore.Rot>
2.6944

> <Gold.Chemscore.Internal.Correction>
   9.000000E+99

> <Gold.Chemscore.Hbonds>
donor molecule, donor type, donor heavy atom, donor atom, acceptor molecule, acceptor atom, score
      L1  H    29    49       P1  7948  0.98
      P1  H  7997  8009       L1    19  0.48

> <Gold.Chemscore.Hbond.Weighted>
-6.2864

> <Gold.Chemscore.Metal.Weighted>
-0.0000

> <Gold.Chemscore.Lipo.Weighted>
-15.4257

> <Gold.Chemscore.Internal_Hbond.Weighted>
0.0000

> <Gold.Chemscore.DEClash.Weighted>
0.1642

> <Gold.Chemscore.DEInternal.Weighted>
3.1303

> <Gold.Chemscore.Rot.Weighted>
6.8975

> <Gold.Chemscore.Internal.Correction.Weighted>
   9.000000E+99

> <Gold.Protein.RotatedTorsions>
[ 6907 6896 6895 6894 ] final -149.26 input  -60.11 | X-H torsion
[ 7974 7965 7964 7962 ] final   71.62 input  175.53 | X-H torsion
[ 8008 7997 7996 7995 ] final  151.66 input   59.86 | X-H torsion
[ 10167 10162 10161 10158 ] final  155.25 input  -65.29 | X-H torsion
[ 10718 10713 10712 10709 ] final   23.52 input   66.30 | X-H torsion
[ 10763 10752 10751 10750 ] final -110.18 input  -60.55 | X-H torsion
[ 11005 11000 10999 10996 ] final -170.04 input  -57.11 | X-H torsion

> <Gold.Protein.ActiveResidues>
 VAL166  LYS551  ARG553  GLY616  TRP617  ASP618  TYR619  PRO620  LYS621  CYS622 
 ASP623  PHE694  ASN695  SER759  ASP760  ASP761  ALA762  ILE779  LEU786  VAL792 
 PHE793  MET794  SER795  GLU796  ALA797  LYS798  CYS799  TRP800  GLU811  SER814 

> <Gold.Protein.RotatedAtoms>
  151.1816  133.4721  159.2593 H   0  0  0  0  0  0  0  0  0  0  0  0  # atno 6907 bound_to 6896
  151.1253  135.0101  159.8567 H   0  0  0  0  0  0  0  0  0  0  0  0  # atno 6908 bound_to 6896
  152.5458  134.1724  159.8655 H   0  0  0  0  0  0  0  0  0  0  0  0  # atno 6909 bound_to 6896
  145.7635  139.2811  143.1362 H   0  0  0  0  0  0  0  0  0  0  0  0  # atno 7974 bound_to 7965
  156.2664  140.2041  156.6211 H   0  0  0  0  0  0  0  0  0  0  0  0  # atno 8008 bound_to 7997
  154.6756  140.0545  157.0236 H   0  0  0  0  0  0  0  0  0  0  0  0  # atno 8009 bound_to 7997
  155.1074  140.3212  155.4533 H   0  0  0  0  0  0  0  0  0  0  0  0  # atno 8010 bound_to 7997
  139.4821  144.5115  151.8017 H   0  0  0  0  0  0  0  0  0  0  0  0  # atno 10167 bound_to 10162
  157.1672  130.6743  149.6065 H   0  0  0  0  0  0  0  0  0  0  0  0  # atno 10718 bound_to 10713
  154.8234  135.4573  154.0846 H   0  0  0  0  0  0  0  0  0  0  0  0  # atno 10763 bound_to 10752
  153.2181  135.6890  153.8039 H   0  0  0  0  0  0  0  0  0  0  0  0  # atno 10764 bound_to 10752
  153.7466  135.3304  155.3290 H   0  0  0  0  0  0  0  0  0  0  0  0  # atno 10765 bound_to 10752
  140.5240  134.5682  157.5056 H   0  0  0  0  0  0  0  0  0  0  0  0  # atno 11005 bound_to 11000
  146.0240  140.8321  142.9909 LP  0  0  0  0  0  0  0  0  0  0  0  0  # atno 17320 bound_to 7965
  144.6826  140.2671  143.7311 LP  0  0  0  0  0  0  0  0  0  0  0  0  # atno 17321 bound_to 7965
  140.4619  144.1710  150.5907 LP  0  0  0  0  0  0  0  0  0  0  0  0  # atno 17342 bound_to 10162
  140.4476  143.2500  151.9391 LP  0  0  0  0  0  0  0  0  0  0  0  0  # atno 17343 bound_to 10162
  155.9744  130.4691  150.6385 LP  0  0  0  0  0  0  0  0  0  0  0  0  # atno 17370 bound_to 10713
  157.4077  131.0819  151.1250 LP  0  0  0  0  0  0  0  0  0  0  0  0  # atno 17371 bound_to 10713
  139.9590  134.7485  156.0278 LP  0  0  0  0  0  0  0  0  0  0  0  0  # atno 17394 bound_to 11000
  141.1318  133.6584  156.3486 LP  0  0  0  0  0  0  0  0  0  0  0  0  # atno 17395 bound_to 11000

$$$$
