AV-unprocessed.smi:1511|AV-procd|sdf|6099|dock6
  -GOLD-   22720 6233D 1   1.00000     0.00000
 Structure written by MMmdl.
 32 33  0  0  0  0  0  0  0  0  1 V2000
  144.4964  135.8864  153.1210 O   0  0  0  0  0  0  0  0  0  0  0  0
  145.6600  135.8074  152.7281 C   0  0  0  0  0  0  0  0  0  0  0  0
  146.3186  134.4391  152.5611 C   0  0  0  0  0  0  0  0  0  0  0  0
  145.6570  133.6867  151.5096 N   0  0  0  0  0  0  0  0  0  0  0  0
  146.1076  132.5632  150.8480 C   0  0  0  0  0  0  0  0  0  0  0  0
  145.1597  132.2276  149.9245 C   0  0  0  0  0  0  0  0  0  0  0  0
  144.1526  133.2176  150.0985 C   0  0  0  0  0  0  0  0  0  0  0  0
  144.4528  134.0900  151.0474 N   0  0  0  0  0  0  0  0  0  0  0  0
  146.4321  136.8733  152.4646 N   0  0  0  0  0  0  0  0  0  0  0  0
  146.0749  138.2629  152.7275 C   0  0  0  0  0  0  0  0  0  0  0  0
  147.3089  139.0774  153.1614 C   0  0  1  0  0  0  0  0  0  0  0  0
  146.9511  140.5168  153.5788 C   0  0  0  0  0  0  0  0  0  0  0  0
  148.1820  141.1596  154.2272 C   0  0  0  0  0  0  0  0  0  0  0  0
  149.0557  139.8002  155.0901 S   0  0  0  0  0  0  0  0  0  0  0  0
  150.4479  139.7523  154.6187 O   0  0  0  0  0  0  0  0  0  0  0  0
  148.7434  139.8473  156.5265 O   0  0  0  0  0  0  0  0  0  0  0  0
  148.1014  138.4410  154.3172 C   0  0  0  0  0  0  0  0  0  0  0  0
  147.3711  134.5582  152.3004 H   0  0  0  0  0  0  0  0  0  0  0  0
  146.2775  133.8795  153.4971 H   0  0  0  0  0  0  0  0  0  0  0  0
  147.0576  132.1061  151.0837 H   0  0  0  0  0  0  0  0  0  0  0  0
  145.1831  131.4019  149.2290 H   0  0  0  0  0  0  0  0  0  0  0  0
  143.2194  133.3285  149.5659 H   0  0  0  0  0  0  0  0  0  0  0  0
  147.3737  136.7005  152.1428 H   0  0  0  0  0  0  0  0  0  0  0  0
  145.6601  138.6833  151.8110 H   0  0  0  0  0  0  0  0  0  0  0  0
  145.2871  138.3344  153.4792 H   0  0  0  0  0  0  0  0  0  0  0  0
  147.9857  139.1506  152.3084 H   0  0  0  0  0  0  0  0  0  0  0  0
  146.5933  141.1061  152.7340 H   0  0  0  0  0  0  0  0  0  0  0  0
  146.1431  140.4870  154.3112 H   0  0  0  0  0  0  0  0  0  0  0  0
  148.8529  141.5635  153.4686 H   0  0  0  0  0  0  0  0  0  0  0  0
  147.9298  141.9538  154.9299 H   0  0  0  0  0  0  0  0  0  0  0  0
  147.4307  138.0324  155.0738 H   0  0  0  0  0  0  0  0  0  0  0  0
  148.7755  137.6494  153.9884 H   0  0  0  0  0  0  0  0  0  0  0  0
  1  2  2  0  0  0  0
  2  3  1  0  0  0  0
  2  9  1  0  0  0  0
  3  4  1  0  0  0  0
  3 18  1  0  0  0  0
  3 19  1  0  0  0  0
  4  8  1  0  0  0  0
  4  5  1  0  0  0  0
  5  6  2  0  0  0  0
  5 20  1  0  0  0  0
  6  7  1  0  0  0  0
  6 21  1  0  0  0  0
  7  8  2  0  0  0  0
  7 22  1  0  0  0  0
  9 10  1  0  0  0  0
  9 23  1  0  0  0  0
 10 11  1  0  0  0  0
 10 24  1  0  0  0  0
 10 25  1  0  0  0  0
 11 17  1  0  0  0  0
 11 12  1  0  0  0  0
 11 26  1  0  0  0  0
 12 13  1  0  0  0  0
 12 27  1  0  0  0  0
 12 28  1  0  0  0  0
 13 14  1  0  0  0  0
 13 29  1  0  0  0  0
 13 30  1  0  0  0  0
 14 15  2  0  0  0  0
 14 16  2  0  0  0  0
 14 17  1  0  0  0  0
 17 31  1  0  0  0  0
 17 32  1  0  0  0  0
M  END
> <s_m_source_file>
AV-unprocessed.smi

> <i_m_source_file_index>
1511

> <i_lp_mmshare_version>
43012

> <i_f3d_flags>
0

> <s_epik_input>
bjFbY0hdW2NIXVtjSF1uMVtDSDJdQyg9TylbTkhdW0NIMl1bQ0BASF0oW0NIMl0yKVtDSDJdW0NIMl1TMig9Tyk9Tw==

> <s_epik_cmdline>
J2VwaWtfcHl0aG9uJywgJy1waCcsICc3LjAnLCAnLXRuJywgJzgnLCAnLW1hJywgJzIwMCcsICctbWV0YWxfYmluZGluZycsICctaW1hZScsICc8aW5maWxlLm1hZT4nLCAnLW9tYWUnLCAnPG91dGZpbGUubWFlPic=

> <r_lp_tautomer_probability>
1

> <r_epik_Ionization_Penalty>
1.34373e-05

> <r_epik_Ionization_Penalty_Charging>
0

> <r_epik_Ionization_Penalty_Neutral>
1.34373e-05

> <r_epik_State_Penalty>
-0

> <r_epik_Charging_Adjusted_Penalty>
0

> <i_epik_Tot_Q>
0

> <i_epik_Tot_abs_Q>
0

> <r_epik_Metal_State_Penalty>
-0

> <b_epik_Metal_Only>
0

> <s_lp_Force_Field>
OPLS_2005

> <r_lp_Energy>
3.15153

> <b_lp_Chiralities_Consistent>
1

> <s_lp_Variant>
AV-unprocessed.smi:1511-2

> <Gold.Version>
5.8.1

> <Gold.Id.Protein>
6NUR|6NUR_protein|mol2

> <Gold.PLP.Fitness>
39.1791

> <Gold.PLP.PLP>
-27.9872

> <Gold.PLP.part.hbond>
-2.0000

> <Gold.PLP.part.metal>
0.0000

> <Gold.PLP.part.buried>
-1.1419

> <Gold.PLP.part.nonpolar>
-25.0989

> <Gold.PLP.part.repulsive>
0.4335

> <Gold.PLP.ligand.clash>
0.0000

> <Gold.PLP.ligand.torsion>
0.4083

> <Gold.PLP.Chemscore.Hbond>
2.0000

> <Gold.PLP.Chemscore.CHOScore>
2.0000

> <Gold.PLP.Chemscore.Metal>
0.0000

> <Gold.Chemscore.Hbonds>
donor molecule, donor type, donor heavy atom, donor atom, acceptor molecule, acceptor atom, score
      L1  H     9    23       P1  7948  1.00
      P1  H  7989  7998       L1    15  1.00
      L1  C     5    20       P1 10747  1.00
      L1  C     7    22       P1 10186  1.00

> <Gold.PLP.Chemscore.Internal.Correction>
0.0085

> <Gold.Rescore>
     Score         DG    S(hbond)    S(metal)    S(lipo)     H(rot)  DE(clash)    DE(int)     intcor
     13.32     -15.50       1.99        0.00      68.70       1.82       0.33       1.85       ----

> <Gold.Chemscore.Fitness>
13.3206

> <Gold.Chemscore.DG>
-15.4961

> <Gold.Chemscore.ZeroCoef>
-5.4800

> <Gold.Chemscore.Hbond>
1.9855

> <Gold.Chemscore.Metal>
0.0000

> <Gold.Chemscore.Lipo>
68.7039

> <Gold.Chemscore.Internal_Hbond>
0.0000

> <Gold.Chemscore.DEClash>
0.3291

> <Gold.Chemscore.DEInternal>
1.8464

> <Gold.Chemscore.Rot>
1.8178

> <Gold.Chemscore.Internal.Correction>
   9.000000E+99

> <Gold.Chemscore.Hbonds>
donor molecule, donor type, donor heavy atom, donor atom, acceptor molecule, acceptor atom, score
      L1  H     9    23       P1  7948  1.00
      P1  H  7989  7998       L1    15  0.98

> <Gold.Chemscore.Hbond.Weighted>
-6.6314

> <Gold.Chemscore.Metal.Weighted>
-0.0000

> <Gold.Chemscore.Lipo.Weighted>
-8.0384

> <Gold.Chemscore.Internal_Hbond.Weighted>
0.0000

> <Gold.Chemscore.DEClash.Weighted>
0.3291

> <Gold.Chemscore.DEInternal.Weighted>
1.8464

> <Gold.Chemscore.Rot.Weighted>
4.6537

> <Gold.Chemscore.Internal.Correction.Weighted>
   9.000000E+99

> <Gold.Protein.RotatedTorsions>
[ 6907 6896 6895 6894 ] final  -16.52 input  -60.11 | X-H torsion
[ 7974 7965 7964 7962 ] final   56.91 input  175.53 | X-H torsion
[ 8008 7997 7996 7995 ] final  -24.53 input   59.86 | X-H torsion
[ 10167 10162 10161 10158 ] final   41.95 input  -65.29 | X-H torsion
[ 10718 10713 10712 10709 ] final -120.68 input   66.30 | X-H torsion
[ 10763 10752 10751 10750 ] final   79.71 input  -60.55 | X-H torsion
[ 11005 11000 10999 10996 ] final -150.22 input  -57.11 | X-H torsion

> <Gold.Protein.ActiveResidues>
 VAL166  LYS551  ARG553  GLY616  TRP617  ASP618  TYR619  PRO620  LYS621  CYS622 
 ASP623  PHE694  ASN695  SER759  ASP760  ASP761  ALA762  ILE779  LEU786  VAL792 
 PHE793  MET794  SER795  GLU796  ALA797  LYS798  CYS799  TRP800  GLU811  SER814 

> <Gold.Protein.RotatedAtoms>
  151.3073  135.0785  159.9259 H   0  0  0  0  0  0  0  0  0  0  0  0  # atno 6907 bound_to 6896
  152.5285  133.9772  159.7800 H   0  0  0  0  0  0  0  0  0  0  0  0  # atno 6908 bound_to 6896
  151.0069  133.5950  159.2718 H   0  0  0  0  0  0  0  0  0  0  0  0  # atno 6909 bound_to 6896
  145.9347  139.3837  143.0400 H   0  0  0  0  0  0  0  0  0  0  0  0  # atno 7974 bound_to 7965
  154.4524  140.1951  156.0478 H   0  0  0  0  0  0  0  0  0  0  0  0  # atno 8008 bound_to 7997
  156.0677  140.3288  155.7510 H   0  0  0  0  0  0  0  0  0  0  0  0  # atno 8009 bound_to 7997
  155.5313  140.0578  157.2879 H   0  0  0  0  0  0  0  0  0  0  0  0  # atno 8010 bound_to 7997
  140.3592  144.2250  150.6139 H   0  0  0  0  0  0  0  0  0  0  0  0  # atno 10167 bound_to 10162
  156.1277  130.6372  150.9570 H   0  0  0  0  0  0  0  0  0  0  0  0  # atno 10718 bound_to 10713
  153.0975  135.4829  154.8805 H   0  0  0  0  0  0  0  0  0  0  0  0  # atno 10763 bound_to 10752
  154.7341  135.3067  154.8844 H   0  0  0  0  0  0  0  0  0  0  0  0  # atno 10764 bound_to 10752
  153.9471  135.6827  153.4797 H   0  0  0  0  0  0  0  0  0  0  0  0  # atno 10765 bound_to 10752
  140.7425  134.3498  157.5144 H   0  0  0  0  0  0  0  0  0  0  0  0  # atno 11005 bound_to 11000
  145.8379  140.9596  143.0814 LP  0  0  0  0  0  0  0  0  0  0  0  0  # atno 17320 bound_to 7965
  144.6770  140.0247  143.7483 LP  0  0  0  0  0  0  0  0  0  0  0  0  # atno 17321 bound_to 7965
  140.5144  143.2282  151.8486 LP  0  0  0  0  0  0  0  0  0  0  0  0  # atno 17342 bound_to 10162
  139.4816  144.4912  151.9182 LP  0  0  0  0  0  0  0  0  0  0  0  0  # atno 17343 bound_to 10162
  157.6458  131.0904  150.8157 LP  0  0  0  0  0  0  0  0  0  0  0  0  # atno 17370 bound_to 10713
  156.8245  130.4995  149.5339 LP  0  0  0  0  0  0  0  0  0  0  0  0  # atno 17371 bound_to 10713
  139.8803  134.9090  156.2981 LP  0  0  0  0  0  0  0  0  0  0  0  0  # atno 17394 bound_to 11000
  140.9824  133.7259  156.0691 LP  0  0  0  0  0  0  0  0  0  0  0  0  # atno 17395 bound_to 11000

$$$$
