AV-unprocessed.smi:2822|AV-procd|sdf|10871|dock1
  -GOLD-   2272015313D 1   1.00000     0.00000
 Structure written by MMmdl.
 40 42  0  0  0  0  0  0  0  0  2 V2000
  147.2508  142.2407  154.1265 Cl  0  0  0  0  0  0  0  0  0  0  0  0
  148.5621  141.1497  154.4118 C   0  0  0  0  0  0  0  0  0  0  0  0
  149.7401  141.6166  155.0301 C   0  0  0  0  0  0  0  0  0  0  0  0
  150.8060  140.8303  155.2885 N   0  0  0  0  0  0  0  0  0  0  0  0
  150.7297  139.5310  154.9324 C   0  0  0  0  0  0  0  0  0  0  0  0
  149.6005  138.9618  154.3105 C   0  0  0  0  0  0  0  0  0  0  0  0
  148.4844  139.7878  154.0401 C   0  0  0  0  0  0  0  0  0  0  0  0
  147.3194  139.3072  153.4243 N   0  0  0  0  0  0  0  0  0  0  0  0
  147.3064  138.0498  152.6903 C   0  0  0  0  0  0  0  0  0  0  0  0
  145.8967  137.6785  152.2001 C   0  0  1  0  0  0  0  0  0  0  0  0
  145.8812  136.4914  151.2152 C   0  0  0  0  0  0  0  0  0  0  0  0
  144.4890  136.1496  150.8323 N   0  3  1  0  0  0  0  0  0  0  0  0
  144.3921  135.0337  149.8553 C   0  0  0  0  0  0  0  0  0  0  0  0
  144.6558  133.6624  150.5075 C   0  0  0  0  0  0  0  0  0  0  0  0
  143.7397  133.4401  151.7190 C   0  0  0  0  0  0  0  0  0  0  0  0
  143.8690  134.6048  152.7111 C   0  0  0  0  0  0  0  0  0  0  0  0
  143.6034  135.9571  152.0140 C   0  0  1  0  0  0  0  0  0  0  0  0
  143.7243  137.1569  152.9739 C   0  0  0  0  0  0  0  0  0  0  0  0
  145.0837  137.3770  153.3293 O   0  0  0  0  0  0  0  0  0  0  0  0
  149.8291  142.6513  155.3267 H   0  0  0  0  0  0  0  0  0  0  0  0
  151.5964  138.9244  155.1494 H   0  0  0  0  0  0  0  0  0  0  0  0
  149.6122  137.9136  154.0524 H   0  0  0  0  0  0  0  0  0  0  0  0
  146.4679  139.8478  153.4828 H   0  0  0  0  0  0  0  0  0  0  0  0
  147.9824  138.1270  151.8381 H   0  0  0  0  0  0  0  0  0  0  0  0
  147.6880  137.2560  153.3333 H   0  0  0  0  0  0  0  0  0  0  0  0
  145.4818  138.5561  151.7010 H   0  0  0  0  0  0  0  0  0  0  0  0
  146.4515  136.7456  150.3210 H   0  0  0  0  0  0  0  0  0  0  0  0
  146.3668  135.6237  151.6613 H   0  0  0  0  0  0  0  0  0  0  0  0
  143.3893  135.0423  149.4260 H   0  0  0  0  0  0  0  0  0  0  0  0
  145.0815  135.2025  149.0272 H   0  0  0  0  0  0  0  0  0  0  0  0
  144.4988  132.8695  149.7755 H   0  0  0  0  0  0  0  0  0  0  0  0
  145.6987  133.5854  150.8158 H   0  0  0  0  0  0  0  0  0  0  0  0
  142.7048  133.3559  151.3848 H   0  0  0  0  0  0  0  0  0  0  0  0
  143.9864  132.4984  152.2100 H   0  0  0  0  0  0  0  0  0  0  0  0
  143.1633  134.4646  153.5307 H   0  0  0  0  0  0  0  0  0  0  0  0
  144.8621  134.5961  153.1619 H   0  0  0  0  0  0  0  0  0  0  0  0
  142.5767  135.9378  151.6448 H   0  0  0  0  0  0  0  0  0  0  0  0
  143.3147  138.0578  152.5146 H   0  0  0  0  0  0  0  0  0  0  0  0
  143.1442  136.9792  153.8799 H   0  0  0  0  0  0  0  0  0  0  0  0
  144.1382  136.9673  150.3542 H   0  0  0  0  0  0  0  0  0  0  0  0
  1  2  1  0  0  0  0
  2  7  1  0  0  0  0
  2  3  2  0  0  0  0
  3  4  1  0  0  0  0
  3 20  1  0  0  0  0
  4  5  2  0  0  0  0
  5  6  1  0  0  0  0
  5 21  1  0  0  0  0
  6  7  2  0  0  0  0
  6 22  1  0  0  0  0
  7  8  1  0  0  0  0
  8  9  1  0  0  0  0
  8 23  1  0  0  0  0
  9 10  1  0  0  0  0
  9 24  1  0  0  0  0
  9 25  1  0  0  0  0
 10 19  1  0  0  0  0
 10 11  1  0  0  0  0
 10 26  1  0  0  0  0
 11 12  1  0  0  0  0
 11 27  1  0  0  0  0
 11 28  1  0  0  0  0
 12 17  1  0  0  0  0
 12 13  1  0  0  0  0
 12 40  1  0  0  0  0
 13 14  1  0  0  0  0
 13 29  1  0  0  0  0
 13 30  1  0  0  0  0
 14 15  1  0  0  0  0
 14 31  1  0  0  0  0
 14 32  1  0  0  0  0
 15 16  1  0  0  0  0
 15 33  1  0  0  0  0
 15 34  1  0  0  0  0
 16 17  1  0  0  0  0
 16 35  1  0  0  0  0
 16 36  1  0  0  0  0
 17 18  1  0  0  0  0
 17 37  1  0  0  0  0
 18 19  1  0  0  0  0
 18 38  1  0  0  0  0
 18 39  1  0  0  0  0
M  CHG  1  12   1
M  END
> <s_m_source_file>
AV-unprocessed.smi

> <i_m_source_file_index>
2822

> <i_lp_mmshare_version>
43012

> <i_f3d_flags>
0

> <s_epik_input>
Q2xjMVtjSF1uW2NIXVtjSF1jMVtOSF1bQ0gyXVtDQEhdKFtDSDJdMilPW0NIMl1bQ0BASF0oTjIzKVtDSDJdW0NIMl1bQ0gyXVtDSDJdMw==

> <s_epik_cmdline>
J2VwaWtfcHl0aG9uJywgJy1waCcsICc3LjAnLCAnLXRuJywgJzgnLCAnLW1hJywgJzIwMCcsICctbWV0YWxfYmluZGluZycsICctaW1hZScsICc8aW5maWxlLm1hZT4nLCAnLW9tYWUnLCAnPG91dGZpbGUubWFlPic=

> <r_lp_tautomer_probability>
0.999999

> <r_epik_Ionization_Penalty>
0.88937

> <r_epik_Ionization_Penalty_Charging>
0.0803403

> <r_epik_Ionization_Penalty_Neutral>
0.80903

> <r_epik_State_Penalty>
0.931884

> <r_epik_Charging_Adjusted_Penalty>
1.01222

> <i_epik_Tot_Q>
1

> <i_epik_Tot_abs_Q>
1

> <r_epik_Metal_State_Penalty>
0.0782275

> <b_epik_Metal_Only>
0

> <s_lp_Force_Field>
OPLS_2005

> <r_lp_Energy>
33.0779

> <b_lp_Chiralities_Consistent>
1

> <s_lp_Variant>
AV-unprocessed.smi:2822-12

> <Gold.Version>
5.8.1

> <Gold.Id.Protein>
6NUR|6NUR_protein|mol2

> <Gold.PLP.Fitness>
39.2135

> <Gold.PLP.PLP>
-33.3417

> <Gold.PLP.part.hbond>
-2.0881

> <Gold.PLP.part.metal>
0.0000

> <Gold.PLP.part.buried>
5.6280

> <Gold.PLP.part.nonpolar>
-35.3269

> <Gold.PLP.part.repulsive>
0.2890

> <Gold.PLP.ligand.clash>
0.0000

> <Gold.PLP.ligand.torsion>
0.1179

> <Gold.PLP.Chemscore.Hbond>
1.0347

> <Gold.PLP.Chemscore.CHOScore>
1.0000

> <Gold.PLP.Chemscore.Metal>
0.0000

> <Gold.Chemscore.Hbonds>
donor molecule, donor type, donor heavy atom, donor atom, acceptor molecule, acceptor atom, score
      L1  H    12    40       P1 10171  1.00
      L1  C     3    20       P1  8028  1.00

> <Gold.PLP.Chemscore.Internal.Correction>
0.0036

> <Gold.Rescore>
     Score         DG    S(hbond)    S(metal)    S(lipo)     H(rot)  DE(clash)    DE(int)     intcor
     15.09     -16.54       1.00        0.00      91.61       1.17       1.35       0.11       ----

> <Gold.Chemscore.Fitness>
15.0858

> <Gold.Chemscore.DG>
-16.5397

> <Gold.Chemscore.ZeroCoef>
-5.4800

> <Gold.Chemscore.Hbond>
0.9985

> <Gold.Chemscore.Metal>
0.0000

> <Gold.Chemscore.Lipo>
91.6071

> <Gold.Chemscore.Internal_Hbond>
0.0000

> <Gold.Chemscore.DEClash>
1.3485

> <Gold.Chemscore.DEInternal>
0.1053

> <Gold.Chemscore.Rot>
1.1693

> <Gold.Chemscore.Internal.Correction>
   9.000000E+99

> <Gold.Chemscore.Hbonds>
donor molecule, donor type, donor heavy atom, donor atom, acceptor molecule, acceptor atom, score
      L1  H    12    40       P1 10171  1.00

> <Gold.Chemscore.Hbond.Weighted>
-3.3351

> <Gold.Chemscore.Metal.Weighted>
-0.0000

> <Gold.Chemscore.Lipo.Weighted>
-10.7180

> <Gold.Chemscore.Internal_Hbond.Weighted>
0.0000

> <Gold.Chemscore.DEClash.Weighted>
1.3485

> <Gold.Chemscore.DEInternal.Weighted>
0.1053

> <Gold.Chemscore.Rot.Weighted>
2.9934

> <Gold.Chemscore.Internal.Correction.Weighted>
   9.000000E+99

> <Gold.Protein.RotatedTorsions>
[ 6907 6896 6895 6894 ] final  147.12 input  -60.11 | X-H torsion
[ 7974 7965 7964 7962 ] final  -86.11 input  175.53 | X-H torsion
[ 8008 7997 7996 7995 ] final -115.00 input   59.86 | X-H torsion
[ 10167 10162 10161 10158 ] final  -59.71 input  -65.29 | X-H torsion
[ 10718 10713 10712 10709 ] final   29.88 input   66.30 | X-H torsion
[ 10763 10752 10751 10750 ] final -105.55 input  -60.55 | X-H torsion
[ 11005 11000 10999 10996 ] final   15.82 input  -57.11 | X-H torsion

> <Gold.Protein.ActiveResidues>
 VAL166  LYS551  ARG553  GLY616  TRP617  ASP618  TYR619  PRO620  LYS621  CYS622 
 ASP623  PHE694  ASN695  SER759  ASP760  ASP761  ALA762  ILE779  LEU786  VAL792 
 PHE793  MET794  SER795  GLU796  ALA797  LYS798  CYS799  TRP800  GLU811  SER814 

> <Gold.Protein.RotatedAtoms>
  152.1589  133.4569  159.4850 H   0  0  0  0  0  0  0  0  0  0  0  0  # atno 6907 bound_to 6896
  150.6904  134.2096  159.4363 H   0  0  0  0  0  0  0  0  0  0  0  0  # atno 6908 bound_to 6896
  151.9997  134.9934  160.0615 H   0  0  0  0  0  0  0  0  0  0  0  0  # atno 6909 bound_to 6896
  145.4842  140.9555  143.1847 H   0  0  0  0  0  0  0  0  0  0  0  0  # atno 7974 bound_to 7965
  155.0452  140.0392  157.2524 H   0  0  0  0  0  0  0  0  0  0  0  0  # atno 8008 bound_to 7997
  154.7183  140.2707  155.6541 H   0  0  0  0  0  0  0  0  0  0  0  0  # atno 8009 bound_to 7997
  156.2809  140.2708  156.1847 H   0  0  0  0  0  0  0  0  0  0  0  0  # atno 8010 bound_to 7997
  140.6118  143.2389  151.5692 H   0  0  0  0  0  0  0  0  0  0  0  0  # atno 10167 bound_to 10162
  157.2524  130.7121  149.6412 H   0  0  0  0  0  0  0  0  0  0  0  0  # atno 10718 bound_to 10713
  154.7954  135.4745  154.0149 H   0  0  0  0  0  0  0  0  0  0  0  0  # atno 10763 bound_to 10752
  153.1695  135.6822  153.8634 H   0  0  0  0  0  0  0  0  0  0  0  0  # atno 10764 bound_to 10752
  153.8221  135.3203  155.3389 H   0  0  0  0  0  0  0  0  0  0  0  0  # atno 10765 bound_to 10752
  140.4540  134.1195  155.7706 H   0  0  0  0  0  0  0  0  0  0  0  0  # atno 11005 bound_to 11000
  144.7871  139.6404  143.7129 LP  0  0  0  0  0  0  0  0  0  0  0  0  # atno 17320 bound_to 7965
  146.2323  139.5837  142.9547 LP  0  0  0  0  0  0  0  0  0  0  0  0  # atno 17321 bound_to 7965
  139.5367  144.2762  152.1266 LP  0  0  0  0  0  0  0  0  0  0  0  0  # atno 17342 bound_to 10162
  140.1962  144.4703  150.6454 LP  0  0  0  0  0  0  0  0  0  0  0  0  # atno 17343 bound_to 10162
  155.9666  130.4423  150.5377 LP  0  0  0  0  0  0  0  0  0  0  0  0  # atno 17370 bound_to 10713
  157.3264  131.0691  151.1894 LP  0  0  0  0  0  0  0  0  0  0  0  0  # atno 17371 bound_to 10713
  141.1651  133.8718  157.1737 LP  0  0  0  0  0  0  0  0  0  0  0  0  # atno 17394 bound_to 11000
  139.9988  135.0036  157.0143 LP  0  0  0  0  0  0  0  0  0  0  0  0  # atno 17395 bound_to 11000

$$$$
