AV-unprocessed.smi:1433|AV-procd|sdf|5842|dock7
  -GOLD-   22720 5503D 1   1.00000     0.00000
 Structure written by MMmdl.
 45 46  0  0  0  0  0  0  0  0  2 V2000
  148.3836  141.6347  154.3562 C   0  0  0  0  0  0  0  0  0  0  0  0
  149.0070  140.2789  154.7042 C   0  0  1  0  0  0  0  0  0  0  0  0
  148.6645  139.1997  153.6551 C   0  0  0  0  0  0  0  0  0  0  0  0
  149.3335  137.9073  153.9697 N   0  3  2  0  0  0  0  0  0  0  0  0
  148.7503  137.1330  155.1200 C   0  0  2  0  0  0  0  0  0  0  0  0
  149.5487  135.8362  155.3989 C   0  0  0  0  0  0  0  0  0  0  0  0
  147.2484  136.7959  154.8957 C   0  0  0  0  0  0  0  0  0  0  0  0
  146.9518  136.3577  153.5347 N   0  0  0  0  0  0  0  0  0  0  0  0
  145.7420  136.4145  152.9554 C   0  0  0  0  0  0  0  0  0  0  0  0
  144.7407  136.8483  153.5250 O   0  0  0  0  0  0  0  0  0  0  0  0
  145.6420  135.8894  151.5221 C   0  0  0  0  0  0  0  0  0  0  0  0
  145.7633  134.4432  151.4760 N   0  0  0  0  0  0  0  0  0  0  0  0
  146.8412  133.6605  151.8349 C   0  0  0  0  0  0  0  0  0  0  0  0
  146.4894  132.3591  151.6178 C   0  0  0  0  0  0  0  0  0  0  0  0
  145.1596  132.4473  151.1190 C   0  0  0  0  0  0  0  0  0  0  0  0
  144.7284  133.6953  151.0342 N   0  0  0  0  0  0  0  0  0  0  0  0
  150.7983  138.1638  154.0470 C   0  0  0  0  0  0  0  0  0  0  0  0
  151.1202  139.2521  155.0939 C   0  0  1  0  0  0  0  0  0  0  0  0
  152.6169  139.5778  155.1422 C   0  0  0  0  0  0  0  0  0  0  0  0
  150.4213  140.4449  154.7497 O   0  0  0  0  0  0  0  0  0  0  0  0
  147.2960  141.5680  154.3190 H   0  0  0  0  0  0  0  0  0  0  0  0
  148.7309  141.9925  153.3865 H   0  0  0  0  0  0  0  0  0  0  0  0
  148.6444  142.3866  155.1014 H   0  0  0  0  0  0  0  0  0  0  0  0
  148.6460  139.9817  155.6895 H   0  0  0  0  0  0  0  0  0  0  0  0
  147.5898  139.0986  153.5268 H   0  0  0  0  0  0  0  0  0  0  0  0
  149.0244  139.5319  152.6801 H   0  0  0  0  0  0  0  0  0  0  0  0
  148.8202  137.7487  156.0159 H   0  0  0  0  0  0  0  0  0  0  0  0
  149.0818  135.2223  156.1685 H   0  0  0  0  0  0  0  0  0  0  0  0
  150.5511  136.0411  155.7718 H   0  0  0  0  0  0  0  0  0  0  0  0
  149.6365  135.2235  154.5012 H   0  0  0  0  0  0  0  0  0  0  0  0
  146.9034  136.0011  155.5549 H   0  0  0  0  0  0  0  0  0  0  0  0
  146.6331  137.6697  155.1125 H   0  0  0  0  0  0  0  0  0  0  0  0
  147.7208  135.9906  152.9926 H   0  0  0  0  0  0  0  0  0  0  0  0
  144.6839  136.1786  151.0882 H   0  0  0  0  0  0  0  0  0  0  0  0
  146.4210  136.3356  150.9020 H   0  0  0  0  0  0  0  0  0  0  0  0
  147.7585  134.0892  152.2114 H   0  0  0  0  0  0  0  0  0  0  0  0
  147.0895  131.4780  151.7896 H   0  0  0  0  0  0  0  0  0  0  0  0
  144.4995  131.6470  150.8181 H   0  0  0  0  0  0  0  0  0  0  0  0
  151.3727  137.2574  154.2257 H   0  0  0  0  0  0  0  0  0  0  0  0
  151.1299  138.5091  153.0665 H   0  0  0  0  0  0  0  0  0  0  0  0
  150.8110  138.9275  156.0881 H   0  0  0  0  0  0  0  0  0  0  0  0
  153.2008  138.6996  155.4185 H   0  0  0  0  0  0  0  0  0  0  0  0
  152.8225  140.3570  155.8765 H   0  0  0  0  0  0  0  0  0  0  0  0
  152.9768  139.9291  154.1745 H   0  0  0  0  0  0  0  0  0  0  0  0
  149.1969  137.3176  153.1611 H   0  0  0  0  0  0  0  0  0  0  0  0
  1  2  1  0  0  0  0
  1 21  1  0  0  0  0
  1 22  1  0  0  0  0
  1 23  1  0  0  0  0
  2 20  1  0  0  0  0
  2  3  1  0  0  0  0
  2 24  1  0  0  0  0
  3  4  1  0  0  0  0
  3 25  1  0  0  0  0
  3 26  1  0  0  0  0
  4  5  1  0  0  0  0
  4 17  1  0  0  0  0
  4 45  1  0  0  0  0
  5  6  1  0  0  0  0
  5  7  1  0  0  0  0
  5 27  1  0  0  0  0
  6 28  1  0  0  0  0
  6 29  1  0  0  0  0
  6 30  1  0  0  0  0
  7  8  1  0  0  0  0
  7 31  1  0  0  0  0
  7 32  1  0  0  0  0
  8  9  1  0  0  0  0
  8 33  1  0  0  0  0
  9 10  2  0  0  0  0
  9 11  1  0  0  0  0
 11 12  1  0  0  0  0
 11 34  1  0  0  0  0
 11 35  1  0  0  0  0
 12 16  1  0  0  0  0
 12 13  1  0  0  0  0
 13 14  2  0  0  0  0
 13 36  1  0  0  0  0
 14 15  1  0  0  0  0
 14 37  1  0  0  0  0
 15 16  2  0  0  0  0
 15 38  1  0  0  0  0
 17 18  1  0  0  0  0
 17 39  1  0  0  0  0
 17 40  1  0  0  0  0
 18 19  1  0  0  0  0
 18 20  1  0  0  0  0
 18 41  1  0  0  0  0
 19 42  1  0  0  0  0
 19 43  1  0  0  0  0
 19 44  1  0  0  0  0
M  CHG  1   4   1
M  END
> <s_m_source_file>
AV-unprocessed.smi

> <i_m_source_file_index>
1433

> <i_lp_mmshare_version>
43012

> <i_f3d_flags>
0

> <s_epik_input>
W0NIM11bQ0BASF0xW0NIMl1OKFtDSDJdW0NASF0oTzEpW0NIM10pW0NASF0oW0NIM10pW0NIMl1bTkhdQyg9TylbQ0gyXW4yW2NIXVtjSF1bY0hdbjI=

> <s_epik_cmdline>
J2VwaWtfcHl0aG9uJywgJy1waCcsICc3LjAnLCAnLXRuJywgJzgnLCAnLW1hJywgJzIwMCcsICctbWV0YWxfYmluZGluZycsICctaW1hZScsICc8aW5maWxlLm1hZT4nLCAnLW9tYWUnLCAnPG91dGZpbGUubWFlPic=

> <r_lp_tautomer_probability>
1

> <r_epik_Ionization_Penalty>
0.748405

> <r_epik_Ionization_Penalty_Charging>
0.748396

> <r_epik_Ionization_Penalty_Neutral>
8.54426e-06

> <r_epik_State_Penalty>
0.775162

> <r_epik_Charging_Adjusted_Penalty>
1.52356

> <i_epik_Tot_Q>
1

> <i_epik_Tot_abs_Q>
1

> <r_epik_Metal_State_Penalty>
0.775167

> <b_epik_Metal_Only>
0

> <s_lp_Force_Field>
OPLS_2005

> <r_lp_Energy>
22.2422

> <b_lp_Chiralities_Consistent>
1

> <s_lp_Variant>
AV-unprocessed.smi:1433-8

> <Gold.Version>
5.8.1

> <Gold.Id.Protein>
6NUR|6NUR_protein|mol2

> <Gold.PLP.Fitness>
47.4452

> <Gold.PLP.PLP>
-33.3940

> <Gold.PLP.part.hbond>
-3.0000

> <Gold.PLP.part.metal>
0.0000

> <Gold.PLP.part.buried>
-1.4893

> <Gold.PLP.part.nonpolar>
-29.6553

> <Gold.PLP.part.repulsive>
0.4144

> <Gold.PLP.ligand.clash>
0.0000

> <Gold.PLP.ligand.torsion>
0.5100

> <Gold.PLP.Chemscore.Hbond>
4.0000

> <Gold.PLP.Chemscore.CHOScore>
1.0000

> <Gold.PLP.Chemscore.Metal>
0.0000

> <Gold.Chemscore.Hbonds>
donor molecule, donor type, donor heavy atom, donor atom, acceptor molecule, acceptor atom, score
      L1  H     4    45       P1  7948  2.00
      L1  H     8    33       P1  7948  1.00
      P1  H  7989  7998       L1    20  0.65
      L1  C    13    36       P1  7948  0.95

> <Gold.PLP.Chemscore.Internal.Correction>
0.0711

> <Gold.Rescore>
     Score         DG    S(hbond)    S(metal)    S(lipo)     H(rot)  DE(clash)    DE(int)     intcor
     18.12     -18.64       2.71        0.00      75.93       1.87       0.17       0.35       ----

> <Gold.Chemscore.Fitness>
18.1158

> <Gold.Chemscore.DG>
-18.6354

> <Gold.Chemscore.ZeroCoef>
-5.4800

> <Gold.Chemscore.Hbond>
2.7088

> <Gold.Chemscore.Metal>
0.0000

> <Gold.Chemscore.Lipo>
75.9315

> <Gold.Chemscore.Internal_Hbond>
0.0000

> <Gold.Chemscore.DEClash>
0.1716

> <Gold.Chemscore.DEInternal>
0.3480

> <Gold.Chemscore.Rot>
1.8657

> <Gold.Chemscore.Internal.Correction>
   9.000000E+99

> <Gold.Chemscore.Hbonds>
donor molecule, donor type, donor heavy atom, donor atom, acceptor molecule, acceptor atom, score
      L1  H     4    45       P1  7948  0.99
      L1  H     8    33       P1  7948  0.94
      P1  H  7989  7998       L1    20  0.05

> <Gold.Chemscore.Hbond.Weighted>
-9.0475

> <Gold.Chemscore.Metal.Weighted>
-0.0000

> <Gold.Chemscore.Lipo.Weighted>
-8.8840

> <Gold.Chemscore.Internal_Hbond.Weighted>
0.0000

> <Gold.Chemscore.DEClash.Weighted>
0.1716

> <Gold.Chemscore.DEInternal.Weighted>
0.3480

> <Gold.Chemscore.Rot.Weighted>
4.7761

> <Gold.Chemscore.Internal.Correction.Weighted>
   9.000000E+99

> <Gold.Protein.RotatedTorsions>
[ 6907 6896 6895 6894 ] final  -28.21 input  -60.11 | X-H torsion
[ 7974 7965 7964 7962 ] final    8.94 input  175.53 | X-H torsion
[ 8008 7997 7996 7995 ] final   49.68 input   59.86 | X-H torsion
[ 10167 10162 10161 10158 ] final -107.73 input  -65.29 | X-H torsion
[ 10718 10713 10712 10709 ] final  155.42 input   66.30 | X-H torsion
[ 10763 10752 10751 10750 ] final  -48.89 input  -60.55 | X-H torsion
[ 11005 11000 10999 10996 ] final   40.23 input  -57.11 | X-H torsion

> <Gold.Protein.ActiveResidues>
 VAL166  LYS551  ARG553  GLY616  TRP617  ASP618  TYR619  PRO620  LYS621  CYS622 
 ASP623  PHE694  ASN695  SER759  ASP760  ASP761  ALA762  ILE779  LEU786  VAL792 
 PHE793  MET794  SER795  GLU796  ALA797  LYS798  CYS799  TRP800  GLU811  SER814 

> <Gold.Protein.RotatedAtoms>
  151.1362  135.0156  159.8604 H   0  0  0  0  0  0  0  0  0  0  0  0  # atno 6907 bound_to 6896
  152.5452  134.1553  159.8545 H   0  0  0  0  0  0  0  0  0  0  0  0  # atno 6908 bound_to 6896
  151.1624  133.4791  159.2627 H   0  0  0  0  0  0  0  0  0  0  0  0  # atno 6909 bound_to 6896
  146.2410  139.9858  142.8431 H   0  0  0  0  0  0  0  0  0  0  0  0  # atno 7974 bound_to 7965
  155.4063  140.3440  155.4260 H   0  0  0  0  0  0  0  0  0  0  0  0  # atno 8008 bound_to 7997
  156.1475  140.1560  156.8856 H   0  0  0  0  0  0  0  0  0  0  0  0  # atno 8009 bound_to 7997
  154.5023  140.0811  156.7804 H   0  0  0  0  0  0  0  0  0  0  0  0  # atno 8010 bound_to 7997
  140.1738  143.4021  152.1334 H   0  0  0  0  0  0  0  0  0  0  0  0  # atno 10167 bound_to 10162
  157.2185  131.0713  151.1926 H   0  0  0  0  0  0  0  0  0  0  0  0  # atno 10718 bound_to 10713
  154.0851  135.6585  153.4844 H   0  0  0  0  0  0  0  0  0  0  0  0  # atno 10763 bound_to 10752
  153.0342  135.5189  154.7435 H   0  0  0  0  0  0  0  0  0  0  0  0  # atno 10764 bound_to 10752
  154.6542  135.3005  154.9917 H   0  0  0  0  0  0  0  0  0  0  0  0  # atno 10765 bound_to 10752
  140.1950  134.3939  155.8126 H   0  0  0  0  0  0  0  0  0  0  0  0  # atno 11005 bound_to 11000
  145.1549  140.9643  143.4411 LP  0  0  0  0  0  0  0  0  0  0  0  0  # atno 17320 bound_to 7965
  145.0170  139.3458  143.6091 LP  0  0  0  0  0  0  0  0  0  0  0  0  # atno 17321 bound_to 7965
  139.5326  144.7175  151.5003 LP  0  0  0  0  0  0  0  0  0  0  0  0  # atno 17342 bound_to 10162
  140.6564  143.8589  150.6840 LP  0  0  0  0  0  0  0  0  0  0  0  0  # atno 17343 bound_to 10162
  157.3600  130.7126  149.6495 LP  0  0  0  0  0  0  0  0  0  0  0  0  # atno 17370 bound_to 10713
  155.9684  130.4228  150.4534 LP  0  0  0  0  0  0  0  0  0  0  0  0  # atno 17371 bound_to 10713
  141.2227  133.7065  156.8161 LP  0  0  0  0  0  0  0  0  0  0  0  0  # atno 17394 bound_to 11000
  140.2117  134.8823  157.3281 LP  0  0  0  0  0  0  0  0  0  0  0  0  # atno 17395 bound_to 11000

$$$$
