AV-unprocessed.smi:2027|AV-procd|sdf|8209|dock3
  -GOLD-   2272010473D 1   1.00000     0.00000
 Structure written by MMmdl.
 49 51  0  0  0  0  0  0  0  0  1 V2000
  153.1826  142.6672  161.6727 C   0  0  0  0  0  0  0  0  0  0  0  0
  152.5892  142.3206  160.3187 C   0  0  0  0  0  0  0  0  0  0  0  0
  152.9569  141.1051  159.6985 C   0  0  0  0  0  0  0  0  0  0  0  0
  152.4235  140.7423  158.4425 C   0  0  0  0  0  0  0  0  0  0  0  0
  152.6390  139.6168  157.6658 N   0  0  0  0  0  0  0  0  0  0  0  0
  151.8535  139.8584  156.6201 C   0  0  0  0  0  0  0  0  0  0  0  0
  151.1526  141.0086  156.6279 N   0  0  0  0  0  0  0  0  0  0  0  0
  150.2294  141.4823  155.6111 C   0  0  0  0  0  0  0  0  0  0  0  0
  149.5663  140.3216  154.8467 C   0  0  2  0  0  0  0  0  0  0  0  0
  150.4476  139.8637  153.8388 O   0  0  0  0  0  0  0  0  0  0  0  0
  148.2370  140.7440  154.1861 C   0  0  0  0  0  0  0  0  0  0  0  0
  147.3639  141.6358  154.9672 N   0  0  0  0  0  0  0  0  0  0  0  0
  146.6547  140.8582  155.9771 C   0  0  0  0  0  0  0  0  0  0  0  0
  146.3812  142.3656  154.1530 C   0  0  0  0  0  0  0  0  0  0  0  0
  145.5008  143.3204  154.9134 C   0  0  0  0  0  0  0  0  0  0  0  0
  144.4321  144.1079  154.3983 C   0  0  0  0  0  0  0  0  0  0  0  0
  143.8603  144.8655  155.3190 N   0  0  0  0  0  0  0  0  0  0  0  0
  144.5377  144.5873  156.4510 N   0  0  0  0  0  0  0  0  0  0  0  0
  144.1861  145.2717  157.6762 C   0  0  0  0  0  0  0  0  0  0  0  0
  145.5177  143.6407  156.2427 C   0  0  0  0  0  0  0  0  0  0  0  0
  151.5046  141.6357  157.8186 C   0  0  0  0  0  0  0  0  0  0  0  0
  151.1363  142.8509  158.4227 C   0  0  0  0  0  0  0  0  0  0  0  0
  151.6785  143.1983  159.6775 C   0  0  0  0  0  0  0  0  0  0  0  0
  151.2689  144.5104  160.3224 C   0  0  0  0  0  0  0  0  0  0  0  0
  153.7937  141.8515  162.0603 H   0  0  0  0  0  0  0  0  0  0  0  0
  152.3932  142.8664  162.3979 H   0  0  0  0  0  0  0  0  0  0  0  0
  153.8144  143.5523  161.5952 H   0  0  0  0  0  0  0  0  0  0  0  0
  153.6522  140.4371  160.1852 H   0  0  0  0  0  0  0  0  0  0  0  0
  151.7783  139.1553  155.8034 H   0  0  0  0  0  0  0  0  0  0  0  0
  149.4700  142.0909  156.1034 H   0  0  0  0  0  0  0  0  0  0  0  0
  150.7644  142.1406  154.9248 H   0  0  0  0  0  0  0  0  0  0  0  0
  149.4182  139.5163  155.5568 H   0  0  0  0  0  0  0  0  0  0  0  0
  149.9702  139.8058  153.0254 H   0  0  0  0  0  0  0  0  0  0  0  0
  148.4432  141.2073  153.2200 H   0  0  0  0  0  0  0  0  0  0  0  0
  147.6983  139.8246  153.9505 H   0  0  0  0  0  0  0  0  0  0  0  0
  146.0355  141.5026  156.6024 H   0  0  0  0  0  0  0  0  0  0  0  0
  147.3552  140.3451  156.6368 H   0  0  0  0  0  0  0  0  0  0  0  0
  146.0093  140.1086  155.5168 H   0  0  0  0  0  0  0  0  0  0  0  0
  146.8987  142.8852  153.3450 H   0  0  0  0  0  0  0  0  0  0  0  0
  145.7373  141.6418  153.6516 H   0  0  0  0  0  0  0  0  0  0  0  0
  144.0656  144.1603  153.3837 H   0  0  0  0  0  0  0  0  0  0  0  0
  144.8625  144.9743  158.4780 H   0  0  0  0  0  0  0  0  0  0  0  0
  143.1642  145.0189  157.9601 H   0  0  0  0  0  0  0  0  0  0  0  0
  144.2631  146.3500  157.5308 H   0  0  0  0  0  0  0  0  0  0  0  0
  146.1577  143.2953  157.0414 H   0  0  0  0  0  0  0  0  0  0  0  0
  150.4375  143.5082  157.9271 H   0  0  0  0  0  0  0  0  0  0  0  0
  150.6830  145.1232  159.6369 H   0  0  0  0  0  0  0  0  0  0  0  0
  152.1451  145.0893  160.6149 H   0  0  0  0  0  0  0  0  0  0  0  0
  150.6628  144.3232  161.2090 H   0  0  0  0  0  0  0  0  0  0  0  0
  1  2  1  0  0  0  0
  1 25  1  0  0  0  0
  1 26  1  0  0  0  0
  1 27  1  0  0  0  0
  2 23  1  0  0  0  0
  2  3  2  0  0  0  0
  3  4  1  0  0  0  0
  3 28  1  0  0  0  0
  4 21  2  0  0  0  0
  4  5  1  0  0  0  0
  5  6  2  0  0  0  0
  6  7  1  0  0  0  0
  6 29  1  0  0  0  0
  7  8  1  0  0  0  0
  7 21  1  0  0  0  0
  8  9  1  0  0  0  0
  8 30  1  0  0  0  0
  8 31  1  0  0  0  0
  9 10  1  0  0  0  0
  9 11  1  0  0  0  0
  9 32  1  0  0  0  0
 10 33  1  0  0  0  0
 11 12  1  0  0  0  0
 11 34  1  0  0  0  0
 11 35  1  0  0  0  0
 12 13  1  0  0  0  0
 12 14  1  0  0  0  0
 13 36  1  0  0  0  0
 13 37  1  0  0  0  0
 13 38  1  0  0  0  0
 14 15  1  0  0  0  0
 14 39  1  0  0  0  0
 14 40  1  0  0  0  0
 15 20  2  0  0  0  0
 15 16  1  0  0  0  0
 16 17  2  0  0  0  0
 16 41  1  0  0  0  0
 17 18  1  0  0  0  0
 18 19  1  0  0  0  0
 18 20  1  0  0  0  0
 19 42  1  0  0  0  0
 19 43  1  0  0  0  0
 19 44  1  0  0  0  0
 20 45  1  0  0  0  0
 21 22  1  0  0  0  0
 22 23  2  0  0  0  0
 22 46  1  0  0  0  0
 23 24  1  0  0  0  0
 24 47  1  0  0  0  0
 24 48  1  0  0  0  0
 24 49  1  0  0  0  0
M  END
> <s_m_source_file>
AV-unprocessed.smi

> <i_m_source_file_index>
2027

> <i_lp_mmshare_version>
43012

> <i_f3d_flags>
0

> <s_epik_input>
W0NIM11jKFtjSF0xKWMoW0NIM10pW2NIXWMoYzEyKW4oW2NIXW4yKVtDSDJdW0NASF0oW09IXSlbQ0gyXU4oW0NIM10pW0NIMl1jM1tjSF1ubihbQ0gzXSlbY0hdMw==

> <s_epik_cmdline>
J2VwaWtfcHl0aG9uJywgJy1waCcsICc3LjAnLCAnLXRuJywgJzgnLCAnLW1hJywgJzIwMCcsICctbWV0YWxfYmluZGluZycsICctaW1hZScsICc8aW5maWxlLm1hZT4nLCAnLW9tYWUnLCAnPG91dGZpbGUubWFlPic=

> <r_lp_tautomer_probability>
1

> <r_epik_Ionization_Penalty>
0.374241

> <r_epik_Ionization_Penalty_Charging>
0

> <r_epik_Ionization_Penalty_Neutral>
0.374241

> <r_epik_State_Penalty>
0.350767

> <r_epik_Charging_Adjusted_Penalty>
0.350767

> <i_epik_Tot_Q>
0

> <i_epik_Tot_abs_Q>
0

> <r_epik_Metal_State_Penalty>
0.343203

> <b_epik_Metal_Only>
0

> <s_lp_Force_Field>
OPLS_2005

> <r_lp_Energy>
16.8083

> <b_lp_Chiralities_Consistent>
1

> <s_lp_Variant>
AV-unprocessed.smi:2027-1

> <Gold.Version>
5.8.1

> <Gold.Id.Protein>
6NUR|6NUR_protein|mol2

> <Gold.PLP.Fitness>
57.9608

> <Gold.PLP.PLP>
-47.8238

> <Gold.PLP.part.hbond>
-2.7964

> <Gold.PLP.part.metal>
0.0000

> <Gold.PLP.part.buried>
-5.6356

> <Gold.PLP.part.nonpolar>
-39.5535

> <Gold.PLP.part.repulsive>
0.1772

> <Gold.PLP.ligand.clash>
0.0000

> <Gold.PLP.ligand.torsion>
0.9565

> <Gold.PLP.Chemscore.Hbond>
2.9920

> <Gold.PLP.Chemscore.CHOScore>
1.0000

> <Gold.PLP.Chemscore.Metal>
0.0000

> <Gold.Chemscore.Hbonds>
donor molecule, donor type, donor heavy atom, donor atom, acceptor molecule, acceptor atom, score
      L1  H    10    33       P1  7957  1.00
      P1  H  7989  7998       L1    10  1.00
      P1  H  7997  8009       L1     5  0.96
      L1  C    16    41       P1 10174  0.99

> <Gold.PLP.Chemscore.Internal.Correction>
0.0739

> <Gold.Rescore>
     Score         DG    S(hbond)    S(metal)    S(lipo)     H(rot)  DE(clash)    DE(int)     intcor
     19.10     -20.13       2.06        0.00     119.39       2.42       0.12       0.91       ----

> <Gold.Chemscore.Fitness>
19.0979

> <Gold.Chemscore.DG>
-20.1304

> <Gold.Chemscore.ZeroCoef>
-5.4800

> <Gold.Chemscore.Hbond>
2.0590

> <Gold.Chemscore.Metal>
0.0000

> <Gold.Chemscore.Lipo>
119.3855

> <Gold.Chemscore.Internal_Hbond>
0.0000

> <Gold.Chemscore.DEClash>
0.1248

> <Gold.Chemscore.DEInternal>
0.9078

> <Gold.Chemscore.Rot>
2.4198

> <Gold.Chemscore.Internal.Correction>
   9.000000E+99

> <Gold.Chemscore.Hbonds>
donor molecule, donor type, donor heavy atom, donor atom, acceptor molecule, acceptor atom, score
      L1  H    10    33       P1  7957  0.99
      P1  H  7989  7998       L1    10  0.29
      P1  H  7997  8009       L1     5  0.07

> <Gold.Chemscore.Hbond.Weighted>
-6.8771

> <Gold.Chemscore.Metal.Weighted>
-0.0000

> <Gold.Chemscore.Lipo.Weighted>
-13.9681

> <Gold.Chemscore.Internal_Hbond.Weighted>
0.0000

> <Gold.Chemscore.DEClash.Weighted>
0.1248

> <Gold.Chemscore.DEInternal.Weighted>
0.9078

> <Gold.Chemscore.Rot.Weighted>
6.1948

> <Gold.Chemscore.Internal.Correction.Weighted>
   9.000000E+99

> <Gold.Protein.RotatedTorsions>
[ 6907 6896 6895 6894 ] final   51.63 input  -60.11 | X-H torsion
[ 7974 7965 7964 7962 ] final  -36.53 input  175.53 | X-H torsion
[ 8008 7997 7996 7995 ] final  164.08 input   59.86 | X-H torsion
[ 10167 10162 10161 10158 ] final  143.33 input  -65.29 | X-H torsion
[ 10718 10713 10712 10709 ] final -160.88 input   66.30 | X-H torsion
[ 10763 10752 10751 10750 ] final   28.31 input  -60.55 | X-H torsion
[ 11005 11000 10999 10996 ] final  161.78 input  -57.11 | X-H torsion

> <Gold.Protein.ActiveResidues>
 VAL166  LYS551  ARG553  GLY616  TRP617  ASP618  TYR619  PRO620  LYS621  CYS622 
 ASP623  PHE694  ASN695  SER759  ASP760  ASP761  ALA762  ILE779  LEU786  VAL792 
 PHE793  MET794  SER795  GLU796  ALA797  LYS798  CYS799  TRP800  GLU811  SER814 

> <Gold.Protein.RotatedAtoms>
  152.3147  134.7454  160.0327 H   0  0  0  0  0  0  0  0  0  0  0  0  # atno 6907 bound_to 6896
  151.7923  133.3355  159.3510 H   0  0  0  0  0  0  0  0  0  0  0  0  # atno 6908 bound_to 6896
  150.7338  134.5762  159.5960 H   0  0  0  0  0  0  0  0  0  0  0  0  # atno 6909 bound_to 6896
  146.0654  140.6289  142.8977 H   0  0  0  0  0  0  0  0  0  0  0  0  # atno 7974 bound_to 7965
  156.1908  140.1706  156.8096 H   0  0  0  0  0  0  0  0  0  0  0  0  # atno 8008 bound_to 7997
  154.5469  140.0725  156.8635 H   0  0  0  0  0  0  0  0  0  0  0  0  # atno 8009 bound_to 7997
  155.3105  140.3367  155.4246 H   0  0  0  0  0  0  0  0  0  0  0  0  # atno 8010 bound_to 7997
  139.4972  144.6048  151.6403 H   0  0  0  0  0  0  0  0  0  0  0  0  # atno 10167 bound_to 10162
  156.5884  130.8759  151.2883 H   0  0  0  0  0  0  0  0  0  0  0  0  # atno 10718 bound_to 10713
  153.0500  135.6516  154.0718 H   0  0  0  0  0  0  0  0  0  0  0  0  # atno 10763 bound_to 10752
  154.0408  135.2903  155.3356 H   0  0  0  0  0  0  0  0  0  0  0  0  # atno 10764 bound_to 10752
  154.6782  135.5330  153.8294 H   0  0  0  0  0  0  0  0  0  0  0  0  # atno 10765 bound_to 10752
  140.2192  134.8209  157.3203 H   0  0  0  0  0  0  0  0  0  0  0  0  # atno 11005 bound_to 11000
  144.7199  140.4338  143.7016 LP  0  0  0  0  0  0  0  0  0  0  0  0  # atno 17320 bound_to 7965
  145.6487  139.1561  143.2874 LP  0  0  0  0  0  0  0  0  0  0  0  0  # atno 17321 bound_to 7965
  140.5706  144.0115  150.6215 LP  0  0  0  0  0  0  0  0  0  0  0  0  # atno 17342 bound_to 10162
  140.3231  143.3124  152.0764 LP  0  0  0  0  0  0  0  0  0  0  0  0  # atno 17343 bound_to 10162
  157.7309  130.9693  150.1857 LP  0  0  0  0  0  0  0  0  0  0  0  0  # atno 17370 bound_to 10713
  156.2571  130.3707  149.8170 LP  0  0  0  0  0  0  0  0  0  0  0  0  # atno 17371 bound_to 10713
  140.1868  134.4422  155.7739 LP  0  0  0  0  0  0  0  0  0  0  0  0  # atno 17394 bound_to 11000
  141.2223  133.7008  156.7960 LP  0  0  0  0  0  0  0  0  0  0  0  0  # atno 17395 bound_to 11000

$$$$
