AV-unprocessed.smi:285|AV-procd|sdf|2170|dock6
  -GOLD-   2262021533D 1   1.00000     0.00000
 Structure written by MMmdl.
 31 33  0  0  0  0  0  0  0  0  1 V2000
  151.0393  145.2842  157.9184 N   0  0  0  0  0  0  0  0  0  0  0  0
  151.7559  144.3513  158.5607 C   0  0  0  0  0  0  0  0  0  0  0  0
  152.5152  144.7357  159.6132 N   0  0  0  0  0  0  0  0  0  0  0  0
  153.2429  143.8256  160.2685 C   0  0  0  0  0  0  0  0  0  0  0  0
  153.3482  142.5146  160.0360 N   0  0  0  0  0  0  0  0  0  0  0  0
  152.5792  142.1258  158.9763 C   0  0  0  0  0  0  0  0  0  0  0  0
  151.7571  142.9836  158.1878 C   0  0  0  0  0  0  0  0  0  0  0  0
  151.1201  142.2549  157.1910 N   0  0  0  0  0  0  0  0  0  0  0  0
  151.5554  141.0436  157.3983 C   0  0  0  0  0  0  0  0  0  0  0  0
  150.9944  139.6133  156.2725 Br  0  0  0  0  0  0  0  0  0  0  0  0
  152.4330  140.8600  158.4430 N   0  0  0  0  0  0  0  0  0  0  0  0
  153.0903  139.6004  158.9103 C   0  0  1  0  0  0  0  0  0  0  0  0
  152.0500  138.5347  159.2411 C   0  0  0  0  0  0  0  0  0  0  0  0
  152.8163  137.2808  158.8851 C   0  0  1  0  0  0  0  0  0  0  0  0
  151.9351  136.2057  158.6331 O   0  0  0  0  0  0  0  0  0  0  0  0
  153.5723  137.7263  157.6282 C   0  0  2  0  0  0  0  0  0  0  0  0
  154.8598  136.9263  157.3768 C   0  0  0  0  0  0  0  0  0  0  0  0
  154.5535  135.5669  157.1518 O   0  0  0  0  0  0  0  0  0  0  0  0
  153.8896  139.0963  157.8822 O   0  0  0  0  0  0  0  0  0  0  0  0
  150.4663  145.0228  157.1288 H   0  0  0  0  0  0  0  0  0  0  0  0
  151.0746  146.2461  158.2237 H   0  0  0  0  0  0  0  0  0  0  0  0
  153.8247  144.2010  161.0974 H   0  0  0  0  0  0  0  0  0  0  0  0
  153.7154  139.8769  159.7590 H   0  0  0  0  0  0  0  0  0  0  0  0
  151.7427  138.5892  160.2859 H   0  0  0  0  0  0  0  0  0  0  0  0
  151.1742  138.6539  158.6004 H   0  0  0  0  0  0  0  0  0  0  0  0
  153.5101  137.0235  159.6870 H   0  0  0  0  0  0  0  0  0  0  0  0
  151.2417  136.5124  158.0686 H   0  0  0  0  0  0  0  0  0  0  0  0
  152.9039  137.6764  156.7665 H   0  0  0  0  0  0  0  0  0  0  0  0
  155.4236  137.3345  156.5375 H   0  0  0  0  0  0  0  0  0  0  0  0
  155.5062  136.9724  158.2538 H   0  0  0  0  0  0  0  0  0  0  0  0
  154.2490  135.1889  157.9627 H   0  0  0  0  0  0  0  0  0  0  0  0
  1  2  1  0  0  0  0
  1 20  1  0  0  0  0
  1 21  1  0  0  0  0
  2  7  1  0  0  0  0
  2  3  2  0  0  0  0
  3  4  1  0  0  0  0
  4  5  2  0  0  0  0
  4 22  1  0  0  0  0
  5  6  1  0  0  0  0
  6 11  1  0  0  0  0
  6  7  2  0  0  0  0
  7  8  1  0  0  0  0
  8  9  2  0  0  0  0
  9 10  1  0  0  0  0
  9 11  1  0  0  0  0
 11 12  1  0  0  0  0
 12 19  1  0  0  0  0
 12 13  1  0  0  0  0
 12 23  1  0  0  0  0
 13 14  1  0  0  0  0
 13 24  1  0  0  0  0
 13 25  1  0  0  0  0
 14 15  1  0  0  0  0
 14 16  1  0  0  0  0
 14 26  1  0  0  0  0
 15 27  1  0  0  0  0
 16 17  1  0  0  0  0
 16 19  1  0  0  0  0
 16 28  1  0  0  0  0
 17 18  1  0  0  0  0
 17 29  1  0  0  0  0
 17 30  1  0  0  0  0
 18 31  1  0  0  0  0
M  END
> <s_m_source_file>
AV-unprocessed.smi

> <i_m_source_file_index>
285

> <i_lp_mmshare_version>
43012

> <i_f3d_flags>
0

> <s_epik_input>
bjFbY0hdbmMoW05IMl0pYyhjMTIpbmMoQnIpbjJbQ0BASF0zW0NIMl1bQ0BASF0oW09IXSlbQ0BIXShPMylbQ0gyXVtPSF0=

> <s_epik_cmdline>
J2VwaWtfcHl0aG9uJywgJy1waCcsICc3LjAnLCAnLXRuJywgJzgnLCAnLW1hJywgJzIwMCcsICctbWV0YWxfYmluZGluZycsICctaW1hZScsICc8aW5maWxlLm1hZT4nLCAnLW9tYWUnLCAnPG91dGZpbGUubWFlPic=

> <r_lp_tautomer_probability>
1

> <r_epik_Ionization_Penalty>
0.000103242

> <r_epik_Ionization_Penalty_Charging>
0

> <r_epik_Ionization_Penalty_Neutral>
0.000103242

> <r_epik_State_Penalty>
-0

> <r_epik_Charging_Adjusted_Penalty>
0

> <i_epik_Tot_Q>
0

> <i_epik_Tot_abs_Q>
0

> <r_epik_Metal_State_Penalty>
-0

> <b_epik_Metal_Only>
0

> <s_epik_Chemistry_Notes>
This compound contains an acetal/aminal-like group ( X-CH(R)-Y where X, Y are N, S, or O) that may be acid/base labile, releasing an aldehyde.

> <s_lp_Force_Field>
OPLS_2005

> <r_lp_Energy>
32.6465

> <b_lp_Chiralities_Consistent>
1

> <s_lp_Variant>
AV-unprocessed.smi:285-6

> <Gold.Version>
5.8.1

> <Gold.Id.Protein>
6NUR|6NUR_protein|mol2

> <Gold.PLP.Fitness>
38.8369

> <Gold.PLP.PLP>
-29.5207

> <Gold.PLP.part.hbond>
-4.8027

> <Gold.PLP.part.metal>
0.0000

> <Gold.PLP.part.buried>
-5.7259

> <Gold.PLP.part.nonpolar>
-19.8707

> <Gold.PLP.part.repulsive>
0.2970

> <Gold.PLP.ligand.clash>
0.0000

> <Gold.PLP.ligand.torsion>
0.0186

> <Gold.PLP.Chemscore.Hbond>
3.1149

> <Gold.PLP.Chemscore.CHOScore>
0.0000

> <Gold.PLP.Chemscore.Metal>
0.0000

> <Gold.Chemscore.Hbonds>
donor molecule, donor type, donor heavy atom, donor atom, acceptor molecule, acceptor atom, score
      L1  H     1    20       P1  8028  0.75
      P1  H  6896  6909       L1    15  0.38
      P1  H  7997  8009       L1    19  0.91
      P1  H 10752 10764       L1    18  1.00

> <Gold.PLP.Chemscore.Internal.Correction>
0.0086

> <Gold.Rescore>
     Score         DG    S(hbond)    S(metal)    S(lipo)     H(rot)  DE(clash)    DE(int)     intcor
      9.80      -9.88       2.53        0.00      32.28       3.06       0.04       0.05       ----

> <Gold.Chemscore.Fitness>
9.7977

> <Gold.Chemscore.DG>
-9.8811

> <Gold.Chemscore.ZeroCoef>
-5.4800

> <Gold.Chemscore.Hbond>
2.5328

> <Gold.Chemscore.Metal>
0.0000

> <Gold.Chemscore.Lipo>
32.2804

> <Gold.Chemscore.Internal_Hbond>
0.0000

> <Gold.Chemscore.DEClash>
0.0358

> <Gold.Chemscore.DEInternal>
0.0476

> <Gold.Chemscore.Rot>
3.0607

> <Gold.Chemscore.Internal.Correction>
   9.000000E+99

> <Gold.Chemscore.Hbonds>
donor molecule, donor type, donor heavy atom, donor atom, acceptor molecule, acceptor atom, score
      L1  H     1    20       P1  8028  0.22
      P1  H  6896  6909       L1    15  0.23
      P1  H  7997  8009       L1    19  0.82
      P1  H 10752 10764       L1    18  0.78

> <Gold.Chemscore.Hbond.Weighted>
-8.4596

> <Gold.Chemscore.Metal.Weighted>
-0.0000

> <Gold.Chemscore.Lipo.Weighted>
-3.7768

> <Gold.Chemscore.Internal_Hbond.Weighted>
0.0000

> <Gold.Chemscore.DEClash.Weighted>
0.0358

> <Gold.Chemscore.DEInternal.Weighted>
0.0476

> <Gold.Chemscore.Rot.Weighted>
7.8354

> <Gold.Chemscore.Internal.Correction.Weighted>
   9.000000E+99

> <Gold.Protein.RotatedTorsions>
[ 6907 6896 6895 6894 ] final   93.81 input  -60.11 | X-H torsion
[ 7974 7965 7964 7962 ] final    6.25 input  175.53 | X-H torsion
[ 8008 7997 7996 7995 ] final  132.19 input   59.86 | X-H torsion
[ 10167 10162 10161 10158 ] final  -97.53 input  -65.29 | X-H torsion
[ 10718 10713 10712 10709 ] final   50.85 input   66.30 | X-H torsion
[ 10763 10752 10751 10750 ] final   25.76 input  -60.55 | X-H torsion
[ 11005 11000 10999 10996 ] final -156.73 input  -57.11 | X-H torsion

> <Gold.Protein.ActiveResidues>
 VAL166  LYS551  ARG553  GLY616  TRP617  ASP618  TYR619  PRO620  LYS621  CYS622 
 ASP623  PHE694  ASN695  SER759  ASP760  ASP761  ALA762  ILE779  LEU786  VAL792 
 PHE793  MET794  SER795  GLU796  ALA797  LYS798  CYS799  TRP800  GLU811  SER814 

> <Gold.Protein.RotatedAtoms>
  152.5451  134.1291  159.8431 H   0  0  0  0  0  0  0  0  0  0  0  0  # atno 6907 bound_to 6896
  151.1339  133.5011  159.2606 H   0  0  0  0  0  0  0  0  0  0  0  0  # atno 6908 bound_to 6896
  151.1646  135.0299  159.8780 H   0  0  0  0  0  0  0  0  0  0  0  0  # atno 6909 bound_to 6896
  146.2436  140.0262  142.8393 H   0  0  0  0  0  0  0  0  0  0  0  0  # atno 7974 bound_to 7965
  156.2979  140.2552  156.3049 H   0  0  0  0  0  0  0  0  0  0  0  0  # atno 8008 bound_to 7997
  154.9382  140.0397  157.2102 H   0  0  0  0  0  0  0  0  0  0  0  0  # atno 8009 bound_to 7997
  154.8152  140.2851  155.5829 H   0  0  0  0  0  0  0  0  0  0  0  0  # atno 8010 bound_to 7997
  140.2824  143.3273  152.0428 H   0  0  0  0  0  0  0  0  0  0  0  0  # atno 10167 bound_to 10162
  157.4924  130.8384  149.8218 H   0  0  0  0  0  0  0  0  0  0  0  0  # atno 10718 bound_to 10713
  153.0669  135.6575  154.0334 H   0  0  0  0  0  0  0  0  0  0  0  0  # atno 10763 bound_to 10752
  153.9989  135.2939  155.3406 H   0  0  0  0  0  0  0  0  0  0  0  0  # atno 10764 bound_to 10752
  154.7030  135.5237  153.8623 H   0  0  0  0  0  0  0  0  0  0  0  0  # atno 10765 bound_to 10752
  140.6724  134.4233  157.5231 H   0  0  0  0  0  0  0  0  0  0  0  0  # atno 11005 bound_to 11000
  145.1196  140.9454  143.4608 LP  0  0  0  0  0  0  0  0  0  0  0  0  # atno 17320 bound_to 7965
  145.0494  139.3194  143.5936 LP  0  0  0  0  0  0  0  0  0  0  0  0  # atno 17321 bound_to 7965
  139.4959  144.6582  151.6524 LP  0  0  0  0  0  0  0  0  0  0  0  0  # atno 17342 bound_to 10162
  140.5800  143.9961  150.6263 LP  0  0  0  0  0  0  0  0  0  0  0  0  # atno 17343 bound_to 10162
  156.0181  130.3806  150.2047 LP  0  0  0  0  0  0  0  0  0  0  0  0  # atno 17370 bound_to 10713
  157.0236  130.9986  151.3332 LP  0  0  0  0  0  0  0  0  0  0  0  0  # atno 17371 bound_to 10713
  139.8977  134.8629  156.2031 LP  0  0  0  0  0  0  0  0  0  0  0  0  # atno 17394 bound_to 11000
  141.0382  133.6952  156.1550 LP  0  0  0  0  0  0  0  0  0  0  0  0  # atno 17395 bound_to 11000

$$$$
