AV-unprocessed.smi:2047|AV-procd|sdf|8320|dock6
  -GOLD-   2272010583D 1   1.00000     0.00000
 Structure written by MMmdl.
 42 44  0  0  0  0  0  0  0  0  3 V2000
  151.6890  137.7936  156.6574 O   0  0  0  0  0  0  0  0  0  0  0  0
  152.5269  138.6826  156.8477 C   0  0  0  0  0  0  0  0  0  0  0  0
  152.2630  139.9483  156.4819 N   0  0  0  0  0  0  0  0  0  0  0  0
  151.0837  140.4640  155.8767 C   0  0  0  0  0  0  0  0  0  0  0  0
  150.3536  139.7342  154.9059 C   0  0  0  0  0  0  0  0  0  0  0  0
  149.1745  140.2824  154.3630 C   0  0  0  0  0  0  0  0  0  0  0  0
  148.7397  141.5454  154.8067 C   0  0  0  0  0  0  0  0  0  0  0  0
  149.4496  142.2072  155.7448 N   0  3  0  0  0  0  0  0  0  0  0  0
  150.5894  141.7237  156.2980 C   0  0  0  0  0  0  0  0  0  0  0  0
  151.2570  142.4911  157.2679 N   0  0  0  0  0  0  0  0  0  0  0  0
  151.7860  143.7622  156.8031 C   0  0  0  0  0  0  0  0  0  0  0  0
  152.1051  144.5589  158.0711 C   0  0  0  0  0  0  0  0  0  0  0  0
  151.2519  143.9116  159.1694 C   0  0  0  0  0  0  0  0  0  0  0  0
  150.4886  142.7874  158.4645 C   0  0  0  0  0  0  0  0  0  0  0  0
  153.7653  138.5558  157.3949 N   0  5  0  0  0  0  0  0  0  0  0  0
  154.0322  138.2247  158.7978 C   0  0  1  0  0  0  0  0  0  0  0  0
  152.7257  137.8606  159.5306 C   0  0  0  0  0  0  0  0  0  0  0  0
  153.0814  137.1979  160.8688 C   0  0  0  0  0  0  0  0  0  0  0  0
  154.6466  136.2883  160.5724 S   0  0  0  0  0  0  0  0  0  0  0  0
  155.6569  136.7470  161.5390 O   0  0  0  0  0  0  0  0  0  0  0  0
  154.3584  134.8548  160.4091 O   0  0  0  0  0  0  0  0  0  0  0  0
  154.9845  137.0241  158.9242 C   0  0  0  0  0  0  0  0  0  0  0  0
  153.0362  140.5926  156.5608 H   0  0  0  0  0  0  0  0  0  0  0  0
  150.6760  138.7561  154.5816 H   0  0  0  0  0  0  0  0  0  0  0  0
  148.6101  139.7375  153.6207 H   0  0  0  0  0  0  0  0  0  0  0  0
  147.8492  142.0402  154.4473 H   0  0  0  0  0  0  0  0  0  0  0  0
  152.6733  143.6160  156.1867 H   0  0  0  0  0  0  0  0  0  0  0  0
  151.0433  144.2924  156.2051 H   0  0  0  0  0  0  0  0  0  0  0  0
  153.1630  144.4670  158.3202 H   0  0  0  0  0  0  0  0  0  0  0  0
  151.8848  145.6191  157.9443 H   0  0  0  0  0  0  0  0  0  0  0  0
  151.8981  143.5010  159.9464 H   0  0  0  0  0  0  0  0  0  0  0  0
  150.5738  144.6224  159.6426 H   0  0  0  0  0  0  0  0  0  0  0  0
  149.4842  143.1226  158.2013 H   0  0  0  0  0  0  0  0  0  0  0  0
  150.3952  141.9057  159.0992 H   0  0  0  0  0  0  0  0  0  0  0  0
  154.4782  139.0646  159.3330 H   0  0  0  0  0  0  0  0  0  0  0  0
  152.0863  138.7319  159.6760 H   0  0  0  0  0  0  0  0  0  0  0  0
  152.1591  137.1470  158.9300 H   0  0  0  0  0  0  0  0  0  0  0  0
  153.2614  137.9430  161.6455 H   0  0  0  0  0  0  0  0  0  0  0  0
  152.3092  136.5132  161.2194 H   0  0  0  0  0  0  0  0  0  0  0  0
  154.7703  136.2646  158.1716 H   0  0  0  0  0  0  0  0  0  0  0  0
  156.0344  137.3061  158.8463 H   0  0  0  0  0  0  0  0  0  0  0  0
  149.1111  143.1185  156.0532 H   0  0  0  0  0  0  0  0  0  0  0  0
  1  2  2  0  0  0  0
  2  3  1  0  0  0  0
  2 15  1  0  0  0  0
  3  4  1  0  0  0  0
  3 23  1  0  0  0  0
  4  9  1  0  0  0  0
  4  5  2  0  0  0  0
  5  6  1  0  0  0  0
  5 24  1  0  0  0  0
  6  7  2  0  0  0  0
  6 25  1  0  0  0  0
  7  8  1  0  0  0  0
  7 26  1  0  0  0  0
  8  9  2  0  0  0  0
  8 42  1  0  0  0  0
  9 10  1  0  0  0  0
 10 14  1  0  0  0  0
 10 11  1  0  0  0  0
 11 12  1  0  0  0  0
 11 27  1  0  0  0  0
 11 28  1  0  0  0  0
 12 13  1  0  0  0  0
 12 29  1  0  0  0  0
 12 30  1  0  0  0  0
 13 14  1  0  0  0  0
 13 31  1  0  0  0  0
 13 32  1  0  0  0  0
 14 33  1  0  0  0  0
 14 34  1  0  0  0  0
 15 16  1  0  0  0  0
 16 22  1  0  0  0  0
 16 17  1  0  0  0  0
 16 35  1  0  0  0  0
 17 18  1  0  0  0  0
 17 36  1  0  0  0  0
 17 37  1  0  0  0  0
 18 19  1  0  0  0  0
 18 38  1  0  0  0  0
 18 39  1  0  0  0  0
 19 20  2  0  0  0  0
 19 21  2  0  0  0  0
 19 22  1  0  0  0  0
 22 40  1  0  0  0  0
 22 41  1  0  0  0  0
M  CHG  1   8   1
M  CHG  1  15  -1
M  END
> <s_m_source_file>
AV-unprocessed.smi

> <i_m_source_file_index>
2047

> <i_lp_mmshare_version>
43012

> <i_f3d_flags>
0

> <s_epik_input>
Tz1TMSg9TylbQ0gyXVtDSDJdW0NASF0oW0NIMl0xKVtOSF1DKD1PKVtOSF1jMltjSF1bY0hdW2NIXW5jMk4zW0NIMl1bQ0gyXVtDSDJdW0NIMl0z

> <s_epik_cmdline>
J2VwaWtfcHl0aG9uJywgJy1waCcsICc3LjAnLCAnLXRuJywgJzgnLCAnLW1hJywgJzIwMCcsICctbWV0YWxfYmluZGluZycsICctaW1hZScsICc8aW5maWxlLm1hZT4nLCAnLW9tYWUnLCAnPG91dGZpbGUubWFlPic=

> <r_lp_tautomer_probability>
0.999994

> <r_epik_Ionization_Penalty>
8.27033

> <r_epik_Ionization_Penalty_Charging>
8.27033

> <r_epik_Ionization_Penalty_Neutral>
3.23223e-06

> <r_epik_State_Penalty>
7.90314

> <r_epik_Charging_Adjusted_Penalty>
16.1735

> <i_epik_Tot_Q>
0

> <i_epik_Tot_abs_Q>
2

> <r_epik_Metal_State_Penalty>
3.89381

> <b_epik_Metal_Only>
1

> <s_lp_Force_Field>
OPLS_2005

> <r_lp_Energy>
40.3449

> <b_lp_Chiralities_Consistent>
1

> <s_lp_Variant>
AV-unprocessed.smi:2047-6

> <Gold.Version>
5.8.1

> <Gold.Id.Protein>
6NUR|6NUR_protein|mol2

> <Gold.PLP.Fitness>
46.7459

> <Gold.PLP.PLP>
-34.1809

> <Gold.PLP.part.hbond>
-3.0000

> <Gold.PLP.part.metal>
0.0000

> <Gold.PLP.part.buried>
-3.5765

> <Gold.PLP.part.nonpolar>
-29.2124

> <Gold.PLP.part.repulsive>
1.0590

> <Gold.PLP.ligand.clash>
0.0000

> <Gold.PLP.ligand.torsion>
1.0042

> <Gold.PLP.Chemscore.Hbond>
4.8400

> <Gold.PLP.Chemscore.CHOScore>
0.0000

> <Gold.PLP.Chemscore.Metal>
0.0000

> <Gold.Chemscore.Hbonds>
donor molecule, donor type, donor heavy atom, donor atom, acceptor molecule, acceptor atom, score
      L1  H     8    42       P1  8028  1.86
      P1  H  6896  6909       L1    21  1.00
      P1  H  7997  8008       L1    15  1.95

> <Gold.PLP.Chemscore.Internal.Correction>
0.0535

> <Gold.Rescore>
     Score         DG    S(hbond)    S(metal)    S(lipo)     H(rot)  DE(clash)    DE(int)     intcor
     16.86     -20.50       2.26        0.00      91.21       1.25       1.48       2.16       ----

> <Gold.Chemscore.Fitness>
16.8625

> <Gold.Chemscore.DG>
-20.4969

> <Gold.Chemscore.ZeroCoef>
-5.4800

> <Gold.Chemscore.Hbond>
2.2577

> <Gold.Chemscore.Metal>
0.0000

> <Gold.Chemscore.Lipo>
91.2065

> <Gold.Chemscore.Internal_Hbond>
0.0000

> <Gold.Chemscore.DEClash>
1.4790

> <Gold.Chemscore.DEInternal>
2.1554

> <Gold.Chemscore.Rot>
1.2480

> <Gold.Chemscore.Internal.Correction>
   9.000000E+99

> <Gold.Chemscore.Hbonds>
donor molecule, donor type, donor heavy atom, donor atom, acceptor molecule, acceptor atom, score
      L1  H     8    42       P1  8028  0.91
      P1  H  6896  6909       L1    21  0.96
      P1  H  7997  8008       L1    15  0.27

> <Gold.Chemscore.Hbond.Weighted>
-7.5406

> <Gold.Chemscore.Metal.Weighted>
-0.0000

> <Gold.Chemscore.Lipo.Weighted>
-10.6712

> <Gold.Chemscore.Internal_Hbond.Weighted>
0.0000

> <Gold.Chemscore.DEClash.Weighted>
1.4790

> <Gold.Chemscore.DEInternal.Weighted>
2.1554

> <Gold.Chemscore.Rot.Weighted>
3.1948

> <Gold.Chemscore.Internal.Correction.Weighted>
   9.000000E+99

> <Gold.Protein.RotatedTorsions>
[ 6907 6896 6895 6894 ] final -157.26 input  -60.11 | X-H torsion
[ 7974 7965 7964 7962 ] final   14.56 input  175.53 | X-H torsion
[ 8008 7997 7996 7995 ] final  -77.97 input   59.86 | X-H torsion
[ 10167 10162 10161 10158 ] final -158.50 input  -65.29 | X-H torsion
[ 10718 10713 10712 10709 ] final  -67.80 input   66.30 | X-H torsion
[ 10763 10752 10751 10750 ] final  -20.70 input  -60.55 | X-H torsion
[ 11005 11000 10999 10996 ] final   77.84 input  -57.11 | X-H torsion

> <Gold.Protein.ActiveResidues>
 VAL166  LYS551  ARG553  GLY616  TRP617  ASP618  TYR619  PRO620  LYS621  CYS622 
 ASP623  PHE694  ASN695  SER759  ASP760  ASP761  ALA762  ILE779  LEU786  VAL792 
 PHE793  MET794  SER795  GLU796  ALA797  LYS798  CYS799  TRP800  GLU811  SER814 

> <Gold.Protein.RotatedAtoms>
  151.3001  133.4126  159.2638 H   0  0  0  0  0  0  0  0  0  0  0  0  # atno 6907 bound_to 6896
  151.0202  134.9464  159.8066 H   0  0  0  0  0  0  0  0  0  0  0  0  # atno 6908 bound_to 6896
  152.5322  134.2964  159.9115 H   0  0  0  0  0  0  0  0  0  0  0  0  # atno 6909 bound_to 6896
  146.2301  139.9022  142.8537 H   0  0  0  0  0  0  0  0  0  0  0  0  # atno 7974 bound_to 7965
  154.5645  140.0702  156.8871 H   0  0  0  0  0  0  0  0  0  0  0  0  # atno 8008 bound_to 7997
  155.2748  140.3367  155.4244 H   0  0  0  0  0  0  0  0  0  0  0  0  # atno 8009 bound_to 7997
  156.2069  140.1744  156.7765 H   0  0  0  0  0  0  0  0  0  0  0  0  # atno 8010 bound_to 7997
  139.6687  143.9783  152.2270 H   0  0  0  0  0  0  0  0  0  0  0  0  # atno 10167 bound_to 10162
  156.0538  130.4284  150.1907 H   0  0  0  0  0  0  0  0  0  0  0  0  # atno 10718 bound_to 10713
  153.6245  135.6991  153.5298 H   0  0  0  0  0  0  0  0  0  0  0  0  # atno 10763 bound_to 10752
  153.2910  135.4157  155.1166 H   0  0  0  0  0  0  0  0  0  0  0  0  # atno 10764 bound_to 10752
  154.8536  135.3625  154.5787 H   0  0  0  0  0  0  0  0  0  0  0  0  # atno 10765 bound_to 10752
  139.9237  134.7715  156.1573 H   0  0  0  0  0  0  0  0  0  0  0  0  # atno 11005 bound_to 11000
  145.2312  140.9973  143.3990 LP  0  0  0  0  0  0  0  0  0  0  0  0  # atno 17320 bound_to 7965
  144.9529  139.4063  143.6393 LP  0  0  0  0  0  0  0  0  0  0  0  0  # atno 17321 bound_to 7965
  139.9542  144.6600  150.8142 LP  0  0  0  0  0  0  0  0  0  0  0  0  # atno 17342 bound_to 10162
  140.7609  143.3163  151.2726 LP  0  0  0  0  0  0  0  0  0  0  0  0  # atno 17343 bound_to 10162
  156.9986  130.9915  151.3396 LP  0  0  0  0  0  0  0  0  0  0  0  0  # atno 17370 bound_to 10713
  157.5490  130.8170  149.8121 LP  0  0  0  0  0  0  0  0  0  0  0  0  # atno 17371 bound_to 10713
  141.0779  133.6767  156.2274 LP  0  0  0  0  0  0  0  0  0  0  0  0  # atno 17394 bound_to 11000
  140.6398  134.5178  157.5568 LP  0  0  0  0  0  0  0  0  0  0  0  0  # atno 17395 bound_to 11000

$$$$
