AV-unprocessed.smi:2995|AV-procd|sdf|11408|dock3
  -GOLD-   2272016333D 1   1.00000     0.00000
 Structure written by MMmdl.
 50 52  0  0  0  0  0  0  0  0  3 V2000
  147.7193  133.2474  152.3249 C   0  0  0  0  0  0  0  0  0  0  0  0
  148.6331  132.4789  153.2639 C   0  0  0  0  0  0  0  0  0  0  0  0
  148.5580  131.0689  153.3081 C   0  0  0  0  0  0  0  0  0  0  0  0
  149.4089  130.3568  154.1752 C   0  0  0  0  0  0  0  0  0  0  0  0
  150.2871  131.0262  154.9502 N   0  3  0  0  0  0  0  0  0  0  0  0
  150.3941  132.3719  154.9438 C   0  0  0  0  0  0  0  0  0  0  0  0
  149.5594  133.1510  154.1027 C   0  0  0  0  0  0  0  0  0  0  0  0
  149.6400  134.5715  154.0350 N   0  0  0  0  0  0  0  0  0  0  0  0
  150.4910  135.3932  154.6736 C   0  0  0  0  0  0  0  0  0  0  0  0
  151.3457  135.0369  155.4842 O   0  0  0  0  0  0  0  0  0  0  0  0
  150.2793  136.6724  154.3304 N   0  0  0  0  0  0  0  0  0  0  0  0
  151.0149  137.8252  154.8454 C   0  0  2  0  0  0  0  0  0  0  0  0
  151.3176  137.6372  156.3384 C   0  0  0  0  0  0  0  0  0  0  0  0
  152.0089  138.8790  156.9269 C   0  0  0  0  0  0  0  0  0  0  0  0
  151.1989  140.1123  156.7180 N   0  3  1  0  0  0  0  0  0  0  0  0
  151.7940  141.3172  157.3672 C   0  0  0  0  0  0  0  0  0  0  0  0
  151.9460  141.1916  158.8913 C   0  0  0  0  0  0  0  0  0  0  0  0
  152.0362  142.6285  159.4182 C   0  0  0  0  0  0  0  0  0  0  0  0
  151.4334  143.5249  158.3285 C   0  0  0  0  0  0  0  0  0  0  0  0
  150.9325  142.5812  157.2322 C   0  0  0  0  0  0  0  0  0  0  0  0
  150.9061  140.3208  155.2720 C   0  0  0  0  0  0  0  0  0  0  0  0
  150.1919  139.1065  154.6550 C   0  0  0  0  0  0  0  0  0  0  0  0
  147.0665  132.5756  151.7667 H   0  0  0  0  0  0  0  0  0  0  0  0
  148.3063  133.8196  151.6061 H   0  0  0  0  0  0  0  0  0  0  0  0
  147.0894  133.9382  152.8860 H   0  0  0  0  0  0  0  0  0  0  0  0
  147.8579  130.5342  152.6828 H   0  0  0  0  0  0  0  0  0  0  0  0
  149.4179  129.2805  154.2671 H   0  0  0  0  0  0  0  0  0  0  0  0
  151.1539  132.7644  155.6024 H   0  0  0  0  0  0  0  0  0  0  0  0
  148.9334  135.0176  153.4685 H   0  0  0  0  0  0  0  0  0  0  0  0
  149.5493  136.8656  153.6601 H   0  0  0  0  0  0  0  0  0  0  0  0
  151.9604  137.9455  154.3132 H   0  0  0  0  0  0  0  0  0  0  0  0
  150.3928  137.4450  156.8847 H   0  0  0  0  0  0  0  0  0  0  0  0
  151.9505  136.7605  156.4836 H   0  0  0  0  0  0  0  0  0  0  0  0
  152.1703  138.7014  157.9895 H   0  0  0  0  0  0  0  0  0  0  0  0
  152.9937  139.0098  156.4754 H   0  0  0  0  0  0  0  0  0  0  0  0
  152.7758  141.5108  156.9306 H   0  0  0  0  0  0  0  0  0  0  0  0
  151.0642  140.7089  159.3155 H   0  0  0  0  0  0  0  0  0  0  0  0
  152.8170  140.6034  159.1816 H   0  0  0  0  0  0  0  0  0  0  0  0
  151.5079  142.7330  160.3664 H   0  0  0  0  0  0  0  0  0  0  0  0
  153.0763  142.9061  159.5933 H   0  0  0  0  0  0  0  0  0  0  0  0
  150.6319  144.1574  158.7118 H   0  0  0  0  0  0  0  0  0  0  0  0
  152.2055  144.1831  157.9277 H   0  0  0  0  0  0  0  0  0  0  0  0
  151.0021  143.0419  156.2464 H   0  0  0  0  0  0  0  0  0  0  0  0
  149.8840  142.3395  157.4140 H   0  0  0  0  0  0  0  0  0  0  0  0
  150.2688  141.1929  155.1312 H   0  0  0  0  0  0  0  0  0  0  0  0
  151.8365  140.5205  154.7377 H   0  0  0  0  0  0  0  0  0  0  0  0
  150.0174  139.2841  153.5928 H   0  0  0  0  0  0  0  0  0  0  0  0
  149.2092  138.9917  155.1151 H   0  0  0  0  0  0  0  0  0  0  0  0
  150.3109  139.9531  157.1722 H   0  0  0  0  0  0  0  0  0  0  0  0
  150.9005  130.4922  155.5664 H   0  0  0  0  0  0  0  0  0  0  0  0
  1  2  1  0  0  0  0
  1 23  1  0  0  0  0
  1 24  1  0  0  0  0
  1 25  1  0  0  0  0
  2  7  1  0  0  0  0
  2  3  2  0  0  0  0
  3  4  1  0  0  0  0
  3 26  1  0  0  0  0
  4  5  2  0  0  0  0
  4 27  1  0  0  0  0
  5  6  1  0  0  0  0
  5 50  1  0  0  0  0
  6  7  2  0  0  0  0
  6 28  1  0  0  0  0
  7  8  1  0  0  0  0
  8  9  1  0  0  0  0
  8 29  1  0  0  0  0
  9 10  2  0  0  0  0
  9 11  1  0  0  0  0
 11 12  1  0  0  0  0
 11 30  1  0  0  0  0
 12 22  1  0  0  0  0
 12 13  1  0  0  0  0
 12 31  1  0  0  0  0
 13 14  1  0  0  0  0
 13 32  1  0  0  0  0
 13 33  1  0  0  0  0
 14 15  1  0  0  0  0
 14 34  1  0  0  0  0
 14 35  1  0  0  0  0
 15 16  1  0  0  0  0
 15 21  1  0  0  0  0
 15 49  1  0  0  0  0
 16 20  1  0  0  0  0
 16 17  1  0  0  0  0
 16 36  1  0  0  0  0
 17 18  1  0  0  0  0
 17 37  1  0  0  0  0
 17 38  1  0  0  0  0
 18 19  1  0  0  0  0
 18 39  1  0  0  0  0
 18 40  1  0  0  0  0
 19 20  1  0  0  0  0
 19 41  1  0  0  0  0
 19 42  1  0  0  0  0
 20 43  1  0  0  0  0
 20 44  1  0  0  0  0
 21 22  1  0  0  0  0
 21 45  1  0  0  0  0
 21 46  1  0  0  0  0
 22 47  1  0  0  0  0
 22 48  1  0  0  0  0
M  CHG  1   5   1
M  CHG  1  15   1
M  END
> <s_m_source_file>
AV-unprocessed.smi

> <i_m_source_file_index>
2995

> <i_lp_mmshare_version>
43012

> <i_f3d_flags>
0

> <s_epik_input>
W0NIM11jMVtjSF1bY0hdbltjSF1jMVtOSF1DKD1PKVtOSF1bQ0hdMltDSDJdW0NIMl1OKFtDSDJdW0NIMl0yKVtDSF0zW0NIMl1bQ0gyXVtDSDJdW0NIMl0z

> <s_epik_cmdline>
J2VwaWtfcHl0aG9uJywgJy1waCcsICc3LjAnLCAnLXRuJywgJzgnLCAnLW1hJywgJzIwMCcsICctbWV0YWxfYmluZGluZycsICctaW1hZScsICc8aW5maWxlLm1hZT4nLCAnLW9tYWUnLCAnPG91dGZpbGUubWFlPic=

> <r_epik_Ionization_Penalty>
2.08537

> <r_epik_Ionization_Penalty_Charging>
2.08535

> <r_epik_Ionization_Penalty_Neutral>
2.13957e-05

> <r_epik_State_Penalty>
2.21824

> <r_epik_Charging_Adjusted_Penalty>
4.30358

> <i_epik_Tot_Q>
2

> <i_epik_Tot_abs_Q>
2

> <r_epik_Metal_State_Penalty>
2.23856

> <b_epik_Metal_Only>
0

> <s_lp_Force_Field>
OPLS_2005

> <r_lp_Energy>
48.7268

> <b_lp_Chiralities_Consistent>
1

> <s_lp_Variant>
AV-unprocessed.smi:2995-3

> <Gold.Version>
5.8.1

> <Gold.Id.Protein>
6NUR|6NUR_protein|mol2

> <Gold.PLP.Fitness>
46.6814

> <Gold.PLP.PLP>
-39.8491

> <Gold.PLP.part.hbond>
-3.8111

> <Gold.PLP.part.metal>
0.0000

> <Gold.PLP.part.buried>
-0.7013

> <Gold.PLP.part.nonpolar>
-34.4499

> <Gold.PLP.part.repulsive>
0.2437

> <Gold.PLP.ligand.clash>
0.4677

> <Gold.PLP.ligand.torsion>
0.3270

> <Gold.PLP.Chemscore.Hbond>
2.6400

> <Gold.PLP.Chemscore.CHOScore>
0.0000

> <Gold.PLP.Chemscore.Metal>
0.0000

> <Gold.Chemscore.Hbonds>
donor molecule, donor type, donor heavy atom, donor atom, acceptor molecule, acceptor atom, score
      L1  H     8    29       P1  7948  0.67
      L1  H    11    30       P1  7948  0.75
      P1  H 10752 10763       L1    10  0.91

> <Gold.PLP.Chemscore.Internal.Correction>
0.0340

> <Gold.Rescore>
     Score         DG    S(hbond)    S(metal)    S(lipo)     H(rot)  DE(clash)    DE(int)     intcor
     15.83     -19.10       1.28        0.00     105.88       1.19       0.25       3.02       ----

> <Gold.Chemscore.Fitness>
15.8317

> <Gold.Chemscore.DG>
-19.0991

> <Gold.Chemscore.ZeroCoef>
-5.4800

> <Gold.Chemscore.Hbond>
1.2776

> <Gold.Chemscore.Metal>
0.0000

> <Gold.Chemscore.Lipo>
105.8837

> <Gold.Chemscore.Internal_Hbond>
0.0000

> <Gold.Chemscore.DEClash>
0.2522

> <Gold.Chemscore.DEInternal>
3.0152

> <Gold.Chemscore.Rot>
1.1861

> <Gold.Chemscore.Internal.Correction>
   9.000000E+99

> <Gold.Chemscore.Hbonds>
donor molecule, donor type, donor heavy atom, donor atom, acceptor molecule, acceptor atom, score
      L1  H     8    29       P1  7948  0.26
      L1  H    11    30       P1  7948  0.61
      P1  H 10752 10763       L1    10  0.62

> <Gold.Chemscore.Hbond.Weighted>
-4.2672

> <Gold.Chemscore.Metal.Weighted>
-0.0000

> <Gold.Chemscore.Lipo.Weighted>
-12.3884

> <Gold.Chemscore.Internal_Hbond.Weighted>
0.0000

> <Gold.Chemscore.DEClash.Weighted>
0.2522

> <Gold.Chemscore.DEInternal.Weighted>
3.0152

> <Gold.Chemscore.Rot.Weighted>
3.0364

> <Gold.Chemscore.Internal.Correction.Weighted>
   9.000000E+99

> <Gold.Protein.RotatedTorsions>
[ 6907 6896 6895 6894 ] final    0.51 input  -60.11 | X-H torsion
[ 7974 7965 7964 7962 ] final -166.10 input  175.53 | X-H torsion
[ 8008 7997 7996 7995 ] final  -42.66 input   59.86 | X-H torsion
[ 10167 10162 10161 10158 ] final   10.64 input  -65.29 | X-H torsion
[ 10718 10713 10712 10709 ] final   14.89 input   66.30 | X-H torsion
[ 10763 10752 10751 10750 ] final   75.84 input  -60.55 | X-H torsion
[ 11005 11000 10999 10996 ] final   82.23 input  -57.11 | X-H torsion

> <Gold.Protein.ActiveResidues>
 VAL166  LYS551  ARG553  GLY616  TRP617  ASP618  TYR619  PRO620  LYS621  CYS622 
 ASP623  PHE694  ASN695  SER759  ASP760  ASP761  ALA762  ILE779  LEU786  VAL792 
 PHE793  MET794  SER795  GLU796  ALA797  LYS798  CYS799  TRP800  GLU811  SER814 

> <Gold.Protein.RotatedAtoms>
  151.5775  135.1060  160.0009 H   0  0  0  0  0  0  0  0  0  0  0  0  # atno 6907 bound_to 6896
  152.4370  133.7375  159.6633 H   0  0  0  0  0  0  0  0  0  0  0  0  # atno 6908 bound_to 6896
  150.8269  133.8086  159.3138 H   0  0  0  0  0  0  0  0  0  0  0  0  # atno 6909 bound_to 6896
  144.7253  140.2717  143.6249 H   0  0  0  0  0  0  0  0  0  0  0  0  # atno 7974 bound_to 7965
  154.3998  140.1468  156.3391 H   0  0  0  0  0  0  0  0  0  0  0  0  # atno 8008 bound_to 7997
  155.8373  140.3463  155.5588 H   0  0  0  0  0  0  0  0  0  0  0  0  # atno 8009 bound_to 7997
  155.8125  140.0886  157.1886 H   0  0  0  0  0  0  0  0  0  0  0  0  # atno 8010 bound_to 7997
  140.6182  143.8263  150.7143 H   0  0  0  0  0  0  0  0  0  0  0  0  # atno 10167 bound_to 10162
  157.0456  130.6249  149.5758 H   0  0  0  0  0  0  0  0  0  0  0  0  # atno 10718 bound_to 10713
  153.0683  135.4973  154.8249 H   0  0  0  0  0  0  0  0  0  0  0  0  # atno 10763 bound_to 10752
  154.6986  135.2997  154.9377 H   0  0  0  0  0  0  0  0  0  0  0  0  # atno 10764 bound_to 10752
  154.0108  135.6754  153.4818 H   0  0  0  0  0  0  0  0  0  0  0  0  # atno 10765 bound_to 10752
  139.9071  134.8055  156.2146 H   0  0  0  0  0  0  0  0  0  0  0  0  # atno 11005 bound_to 11000
  145.8037  139.1974  143.2033 LP  0  0  0  0  0  0  0  0  0  0  0  0  # atno 17320 bound_to 7965
  146.0655  140.7925  142.9714 LP  0  0  0  0  0  0  0  0  0  0  0  0  # atno 17321 bound_to 7965
  140.1847  143.4086  152.1907 LP  0  0  0  0  0  0  0  0  0  0  0  0  # atno 17342 bound_to 10162
  139.5416  144.7261  151.4716 LP  0  0  0  0  0  0  0  0  0  0  0  0  # atno 17343 bound_to 10162
  156.0024  130.5105  150.7710 LP  0  0  0  0  0  0  0  0  0  0  0  0  # atno 17370 bound_to 10713
  157.5070  131.0923  151.0245 LP  0  0  0  0  0  0  0  0  0  0  0  0  # atno 17371 bound_to 10713
  141.0444  133.6921  156.1656 LP  0  0  0  0  0  0  0  0  0  0  0  0  # atno 17394 bound_to 11000
  140.6907  134.4669  157.5588 LP  0  0  0  0  0  0  0  0  0  0  0  0  # atno 17395 bound_to 11000

$$$$
