AV-unprocessed.smi:2485|AV-procd|sdf|9789|dock4
  -GOLD-   2272013423D 1   1.00000     0.00000
 Structure written by MMmdl.
 39 40  0  0  0  0  0  0  0  0  1 V2000
  146.1553  138.0771  155.8471 C   0  0  0  0  0  0  0  0  0  0  0  0
  145.7311  139.5458  156.0179 C   0  0  0  0  0  0  0  0  0  0  0  0
  144.2808  139.6470  156.5145 C   0  0  0  0  0  0  0  0  0  0  0  0
  146.7054  140.3242  156.9098 C   0  0  0  0  0  0  0  0  0  0  0  0
  147.7243  140.8585  155.9228 C   0  0  2  0  0  0  0  0  0  0  0  0
  148.4047  142.0426  156.4432 N   0  0  0  0  0  0  0  0  0  0  0  0
  149.1093  142.0906  157.5824 C   0  0  0  0  0  0  0  0  0  0  0  0
  149.2405  141.1309  158.3421 O   0  0  0  0  0  0  0  0  0  0  0  0
  149.6441  143.3094  157.7702 N   0  0  0  0  0  0  0  0  0  0  0  0
  150.4712  143.7470  158.8378 C   0  0  0  0  0  0  0  0  0  0  0  0
  151.3513  144.8048  158.5253 C   0  0  0  0  0  0  0  0  0  0  0  0
  152.2016  145.2854  159.5359 C   0  0  0  0  0  0  0  0  0  0  0  0
  152.1128  144.6723  160.7972 C   0  0  0  0  0  0  0  0  0  0  0  0
  151.2545  143.6612  161.0522 N   0  0  0  0  0  0  0  0  0  0  0  0
  150.4482  143.2087  160.0854 N   0  0  0  0  0  0  0  0  0  0  0  0
  146.8626  141.1301  154.6696 C   0  0  0  0  0  0  0  0  0  0  0  0
  146.1783  142.5133  154.6551 C   0  0  0  0  0  0  0  0  0  0  0  0
  147.6400  140.8957  153.3646 C   0  0  0  0  0  0  0  0  0  0  0  0
  145.8151  140.1631  154.7342 O   0  0  0  0  0  0  0  0  0  0  0  0
  146.1306  137.5455  156.7988 H   0  0  0  0  0  0  0  0  0  0  0  0
  147.1670  137.9963  155.4486 H   0  0  0  0  0  0  0  0  0  0  0  0
  145.4916  137.5542  155.1581 H   0  0  0  0  0  0  0  0  0  0  0  0
  144.1713  139.2052  157.5054 H   0  0  0  0  0  0  0  0  0  0  0  0
  143.5971  139.1291  155.8413 H   0  0  0  0  0  0  0  0  0  0  0  0
  143.9549  140.6858  156.5749 H   0  0  0  0  0  0  0  0  0  0  0  0
  146.1907  141.1528  157.3992 H   0  0  0  0  0  0  0  0  0  0  0  0
  147.1534  139.7113  157.6926 H   0  0  0  0  0  0  0  0  0  0  0  0
  148.4455  140.0644  155.7188 H   0  0  0  0  0  0  0  0  0  0  0  0
  148.3486  142.8796  155.8819 H   0  0  0  0  0  0  0  0  0  0  0  0
  149.4452  144.0008  157.0628 H   0  0  0  0  0  0  0  0  0  0  0  0
  151.3774  145.2385  157.5360 H   0  0  0  0  0  0  0  0  0  0  0  0
  152.8952  146.0922  159.3512 H   0  0  0  0  0  0  0  0  0  0  0  0
  152.7395  144.9961  161.6149 H   0  0  0  0  0  0  0  0  0  0  0  0
  146.9049  143.3204  154.5581 H   0  0  0  0  0  0  0  0  0  0  0  0
  145.6044  142.6881  155.5653 H   0  0  0  0  0  0  0  0  0  0  0  0
  145.4880  142.5971  153.8153 H   0  0  0  0  0  0  0  0  0  0  0  0
  148.4557  141.6104  153.2556 H   0  0  0  0  0  0  0  0  0  0  0  0
  146.9910  141.0005  152.4948 H   0  0  0  0  0  0  0  0  0  0  0  0
  148.0692  139.8939  153.3337 H   0  0  0  0  0  0  0  0  0  0  0  0
  1  2  1  0  0  0  0
  1 20  1  0  0  0  0
  1 21  1  0  0  0  0
  1 22  1  0  0  0  0
  2 19  1  0  0  0  0
  2  3  1  0  0  0  0
  2  4  1  0  0  0  0
  3 23  1  0  0  0  0
  3 24  1  0  0  0  0
  3 25  1  0  0  0  0
  4  5  1  0  0  0  0
  4 26  1  0  0  0  0
  4 27  1  0  0  0  0
  5  6  1  0  0  0  0
  5 16  1  0  0  0  0
  5 28  1  0  0  0  0
  6  7  1  0  0  0  0
  6 29  1  0  0  0  0
  7  8  2  0  0  0  0
  7  9  1  0  0  0  0
  9 10  1  0  0  0  0
  9 30  1  0  0  0  0
 10 15  1  0  0  0  0
 10 11  2  0  0  0  0
 11 12  1  0  0  0  0
 11 31  1  0  0  0  0
 12 13  2  0  0  0  0
 12 32  1  0  0  0  0
 13 14  1  0  0  0  0
 13 33  1  0  0  0  0
 14 15  2  0  0  0  0
 16 17  1  0  0  0  0
 16 18  1  0  0  0  0
 16 19  1  0  0  0  0
 17 34  1  0  0  0  0
 17 35  1  0  0  0  0
 17 36  1  0  0  0  0
 18 37  1  0  0  0  0
 18 38  1  0  0  0  0
 18 39  1  0  0  0  0
M  END
> <s_m_source_file>
AV-unprocessed.smi

> <i_m_source_file_index>
2485

> <i_lp_mmshare_version>
43012

> <i_f3d_flags>
0

> <s_epik_input>
W0NIM11DMShbQ0gzXSlbQ0gyXVtDQEhdKEMoTzEpKFtDSDNdKVtDSDNdKVtOSF1DKD1PKVtOSF1jMltjSF1bY0hdW2NIXW5uMg==

> <s_epik_cmdline>
J2VwaWtfcHl0aG9uJywgJy1waCcsICc3LjAnLCAnLXRuJywgJzgnLCAnLW1hJywgJzIwMCcsICctbWV0YWxfYmluZGluZycsICctaW1hZScsICc8aW5maWxlLm1hZT4nLCAnLW9tYWUnLCAnPG91dGZpbGUubWFlPic=

> <r_lp_tautomer_probability>
1

> <r_epik_Ionization_Penalty>
0.00480341

> <r_epik_Ionization_Penalty_Charging>
0

> <r_epik_Ionization_Penalty_Neutral>
0.00480341

> <r_epik_State_Penalty>
-0

> <r_epik_Charging_Adjusted_Penalty>
0

> <i_epik_Tot_Q>
0

> <i_epik_Tot_abs_Q>
0

> <r_epik_Metal_State_Penalty>
-0

> <b_epik_Metal_Only>
0

> <s_lp_Force_Field>
OPLS_2005

> <r_lp_Energy>
24.1207

> <b_lp_Chiralities_Consistent>
1

> <s_lp_Variant>
AV-unprocessed.smi:2485-2

> <Gold.Version>
5.8.1

> <Gold.Id.Protein>
6NUR|6NUR_protein|mol2

> <Gold.PLP.Fitness>
32.9483

> <Gold.PLP.PLP>
-27.4111

> <Gold.PLP.part.hbond>
-4.4551

> <Gold.PLP.part.metal>
0.0000

> <Gold.PLP.part.buried>
-3.9457

> <Gold.PLP.part.nonpolar>
-19.0054

> <Gold.PLP.part.repulsive>
0.4674

> <Gold.PLP.ligand.clash>
0.0000

> <Gold.PLP.ligand.torsion>
0.1769

> <Gold.PLP.Chemscore.Hbond>
1.9600

> <Gold.PLP.Chemscore.CHOScore>
0.0000

> <Gold.PLP.Chemscore.Metal>
0.0000

> <Gold.Chemscore.Hbonds>
donor molecule, donor type, donor heavy atom, donor atom, acceptor molecule, acceptor atom, score
      L1  H     6    29       P1  8028  0.96
      L1  H     9    30       P1  8028  1.00

> <Gold.PLP.Chemscore.Internal.Correction>
0.0111

> <Gold.Rescore>
     Score         DG    S(hbond)    S(metal)    S(lipo)     H(rot)  DE(clash)    DE(int)     intcor
     14.15     -16.52       1.91        0.00      61.66       1.00       0.51       1.86       ----

> <Gold.Chemscore.Fitness>
14.1512

> <Gold.Chemscore.DG>
-16.5214

> <Gold.Chemscore.ZeroCoef>
-5.4800

> <Gold.Chemscore.Hbond>
1.9123

> <Gold.Chemscore.Metal>
0.0000

> <Gold.Chemscore.Lipo>
61.6612

> <Gold.Chemscore.Internal_Hbond>
0.0000

> <Gold.Chemscore.DEClash>
0.5070

> <Gold.Chemscore.DEInternal>
1.8632

> <Gold.Chemscore.Rot>
1.0000

> <Gold.Chemscore.Internal.Correction>
   9.000000E+99

> <Gold.Chemscore.Hbonds>
donor molecule, donor type, donor heavy atom, donor atom, acceptor molecule, acceptor atom, score
      L1  H     6    29       P1  8028  0.88
      L1  H     9    30       P1  8028  0.55

> <Gold.Chemscore.Hbond.Weighted>
-6.3870

> <Gold.Chemscore.Metal.Weighted>
-0.0000

> <Gold.Chemscore.Lipo.Weighted>
-7.2144

> <Gold.Chemscore.Internal_Hbond.Weighted>
0.0000

> <Gold.Chemscore.DEClash.Weighted>
0.5070

> <Gold.Chemscore.DEInternal.Weighted>
1.8632

> <Gold.Chemscore.Rot.Weighted>
2.5600

> <Gold.Chemscore.Internal.Correction.Weighted>
   9.000000E+99

> <Gold.Protein.RotatedTorsions>
[ 6907 6896 6895 6894 ] final -140.94 input  -60.11 | X-H torsion
[ 7974 7965 7964 7962 ] final   85.90 input  175.53 | X-H torsion
[ 8008 7997 7996 7995 ] final  112.08 input   59.86 | X-H torsion
[ 10167 10162 10161 10158 ] final  -21.67 input  -65.29 | X-H torsion
[ 10718 10713 10712 10709 ] final -138.83 input   66.30 | X-H torsion
[ 10763 10752 10751 10750 ] final  175.81 input  -60.55 | X-H torsion
[ 11005 11000 10999 10996 ] final  -61.96 input  -57.11 | X-H torsion

> <Gold.Protein.ActiveResidues>
 VAL166  LYS551  ARG553  GLY616  TRP617  ASP618  TYR619  PRO620  LYS621  CYS622 
 ASP623  PHE694  ASN695  SER759  ASP760  ASP761  ALA762  ILE779  LEU786  VAL792 
 PHE793  MET794  SER795  GLU796  ALA797  LYS798  CYS799  TRP800  GLU811  SER814 

> <Gold.Protein.RotatedAtoms>
  151.0673  133.5495  159.2629 H   0  0  0  0  0  0  0  0  0  0  0  0  # atno 6907 bound_to 6896
  151.2447  135.0601  159.9049 H   0  0  0  0  0  0  0  0  0  0  0  0  # atno 6908 bound_to 6896
  152.5406  134.0442  159.8135 H   0  0  0  0  0  0  0  0  0  0  0  0  # atno 6909 bound_to 6896
  145.5794  139.2323  143.2361 H   0  0  0  0  0  0  0  0  0  0  0  0  # atno 7974 bound_to 7965
  156.2168  140.3006  155.9858 H   0  0  0  0  0  0  0  0  0  0  0  0  # atno 8008 bound_to 7997
  155.2585  140.0429  157.3012 H   0  0  0  0  0  0  0  0  0  0  0  0  # atno 8009 bound_to 7997
  154.5780  140.2367  155.8103 H   0  0  0  0  0  0  0  0  0  0  0  0  # atno 8010 bound_to 7997
  140.7283  143.4606  151.0385 H   0  0  0  0  0  0  0  0  0  0  0  0  # atno 10167 bound_to 10162
  156.3038  130.7444  151.1502 H   0  0  0  0  0  0  0  0  0  0  0  0  # atno 10718 bound_to 10713
  154.4727  135.2771  155.1630 H   0  0  0  0  0  0  0  0  0  0  0  0  # atno 10763 bound_to 10752
  154.3373  135.6177  153.5583 H   0  0  0  0  0  0  0  0  0  0  0  0  # atno 10764 bound_to 10752
  152.9866  135.5780  154.5111 H   0  0  0  0  0  0  0  0  0  0  0  0  # atno 10765 bound_to 10752
  141.1343  133.6635  156.5454 H   0  0  0  0  0  0  0  0  0  0  0  0  # atno 11005 bound_to 11000
  146.1727  140.6621  142.9226 LP  0  0  0  0  0  0  0  0  0  0  0  0  # atno 17320 bound_to 7965
  144.7401  140.4917  143.6875 LP  0  0  0  0  0  0  0  0  0  0  0  0  # atno 17321 bound_to 7965
  139.8290  143.7717  152.3179 LP  0  0  0  0  0  0  0  0  0  0  0  0  # atno 17342 bound_to 10162
  139.7826  144.7439  151.0067 LP  0  0  0  0  0  0  0  0  0  0  0  0  # atno 17343 bound_to 10162
  157.7374  131.0551  150.5354 LP  0  0  0  0  0  0  0  0  0  0  0  0  # atno 17370 bound_to 10713
  156.5485  130.4225  149.6119 LP  0  0  0  0  0  0  0  0  0  0  0  0  # atno 17371 bound_to 10713
  140.4106  134.7276  157.4833 LP  0  0  0  0  0  0  0  0  0  0  0  0  # atno 17394 bound_to 11000
  140.0430  134.6240  155.8956 LP  0  0  0  0  0  0  0  0  0  0  0  0  # atno 17395 bound_to 11000

$$$$
