AV-unprocessed.smi:890|AV-procd|sdf|4058|dock9
  -GOLD-   22720 1543D 1   1.00000     0.00000
 Structure written by MMmdl.
 52 55  0  0  0  0  0  0  0  0  2 V2000
  146.7343  133.6677  155.6326 O   0  0  0  0  0  0  0  0  0  0  0  0
  145.6331  133.1282  155.5264 C   0  0  0  0  0  0  0  0  0  0  0  0
  144.9617  132.5264  156.5226 N   0  0  0  0  0  0  0  0  0  0  0  0
  145.3556  132.3575  157.8816 C   0  0  0  0  0  0  0  0  0  0  0  0
  146.5887  132.8414  158.3840 C   0  0  0  0  0  0  0  0  0  0  0  0
  146.8942  132.6641  159.7448 C   0  0  0  0  0  0  0  0  0  0  0  0
  145.9509  132.0168  160.5612 C   0  0  0  0  0  0  0  0  0  0  0  0
  144.7663  131.5650  160.1030 N   0  0  0  0  0  0  0  0  0  0  0  0
  144.4601  131.7347  158.7933 C   0  0  0  0  0  0  0  0  0  0  0  0
  143.2238  131.2279  158.3397 N   0  0  0  0  0  0  0  0  0  0  0  0
  143.1583  129.7687  158.3286 C   0  0  0  0  0  0  0  0  0  0  0  0
  141.7293  129.3964  158.7280 C   0  0  0  0  0  0  0  0  0  0  0  0
  141.2959  130.5750  159.5905 C   0  0  0  0  0  0  0  0  0  0  0  0
  141.9812  131.7546  158.9031 C   0  0  0  0  0  0  0  0  0  0  0  0
  144.9569  133.0552  154.3707 N   0  0  0  0  0  0  0  0  0  0  0  0
  145.4075  133.6194  153.1015 C   0  0  2  0  0  0  0  0  0  0  0  0
  144.2675  134.4126  152.4420 C   0  0  0  0  0  0  0  0  0  0  0  0
  144.6988  134.9657  151.0700 C   0  0  0  0  0  0  0  0  0  0  0  0
  145.1960  133.8974  150.1646 N   0  3  2  0  0  0  0  0  0  0  0  0
  144.1144  133.0576  149.5988 C   0  0  0  0  0  0  0  0  0  0  0  0
  144.5927  132.0791  148.5510 C   0  0  0  0  0  0  0  0  0  0  0  0
  143.8425  133.3252  148.1369 C   0  0  0  0  0  0  0  0  0  0  0  0
  146.2942  133.1068  150.7783 C   0  0  0  0  0  0  0  0  0  0  0  0
  145.8922  132.5159  152.1424 C   0  0  0  0  0  0  0  0  0  0  0  0
  144.1078  132.0545  156.2629 H   0  0  0  0  0  0  0  0  0  0  0  0
  147.2982  133.3592  157.7572 H   0  0  0  0  0  0  0  0  0  0  0  0
  147.8277  133.0211  160.1535 H   0  0  0  0  0  0  0  0  0  0  0  0
  146.1498  131.8628  161.6114 H   0  0  0  0  0  0  0  0  0  0  0  0
  143.4117  129.3703  157.3460 H   0  0  0  0  0  0  0  0  0  0  0  0
  143.8659  129.3546  159.0489 H   0  0  0  0  0  0  0  0  0  0  0  0
  141.0986  129.3395  157.8397 H   0  0  0  0  0  0  0  0  0  0  0  0
  141.6696  128.4398  159.2473 H   0  0  0  0  0  0  0  0  0  0  0  0
  140.2133  130.6883  159.6509 H   0  0  0  0  0  0  0  0  0  0  0  0
  141.6842  130.4577  160.6033 H   0  0  0  0  0  0  0  0  0  0  0  0
  142.1116  132.5983  159.5810 H   0  0  0  0  0  0  0  0  0  0  0  0
  141.3668  132.1084  158.0746 H   0  0  0  0  0  0  0  0  0  0  0  0
  144.0612  132.5889  154.3728 H   0  0  0  0  0  0  0  0  0  0  0  0
  146.2321  134.3081  153.2970 H   0  0  0  0  0  0  0  0  0  0  0  0
  143.3880  133.7776  152.3260 H   0  0  0  0  0  0  0  0  0  0  0  0
  143.9649  135.2371  153.0887 H   0  0  0  0  0  0  0  0  0  0  0  0
  143.8732  135.4996  150.5978 H   0  0  0  0  0  0  0  0  0  0  0  0
  145.4966  135.6965  151.2084 H   0  0  0  0  0  0  0  0  0  0  0  0
  143.2993  132.7887  150.2676 H   0  0  0  0  0  0  0  0  0  0  0  0
  145.6580  132.0380  148.3301 H   0  0  0  0  0  0  0  0  0  0  0  0
  144.0655  131.1306  148.4722 H   0  0  0  0  0  0  0  0  0  0  0  0
  142.8212  133.1972  147.7843 H   0  0  0  0  0  0  0  0  0  0  0  0
  144.4104  134.1107  147.6412 H   0  0  0  0  0  0  0  0  0  0  0  0
  146.6092  132.3144  150.0984 H   0  0  0  0  0  0  0  0  0  0  0  0
  147.1577  133.7608  150.9067 H   0  0  0  0  0  0  0  0  0  0  0  0
  146.7453  131.9900  152.5721 H   0  0  0  0  0  0  0  0  0  0  0  0
  145.1103  131.7672  152.0076 H   0  0  0  0  0  0  0  0  0  0  0  0
  145.6040  134.3715  149.3715 H   0  0  0  0  0  0  0  0  0  0  0  0
  1  2  2  0  0  0  0
  2  3  1  0  0  0  0
  2 15  1  0  0  0  0
  3  4  1  0  0  0  0
  3 25  1  0  0  0  0
  4  9  1  0  0  0  0
  4  5  2  0  0  0  0
  5  6  1  0  0  0  0
  5 26  1  0  0  0  0
  6  7  2  0  0  0  0
  6 27  1  0  0  0  0
  7  8  1  0  0  0  0
  7 28  1  0  0  0  0
  8  9  2  0  0  0  0
  9 10  1  0  0  0  0
 10 14  1  0  0  0  0
 10 11  1  0  0  0  0
 11 12  1  0  0  0  0
 11 29  1  0  0  0  0
 11 30  1  0  0  0  0
 12 13  1  0  0  0  0
 12 31  1  0  0  0  0
 12 32  1  0  0  0  0
 13 14  1  0  0  0  0
 13 33  1  0  0  0  0
 13 34  1  0  0  0  0
 14 35  1  0  0  0  0
 14 36  1  0  0  0  0
 15 16  1  0  0  0  0
 15 37  1  0  0  0  0
 16 24  1  0  0  0  0
 16 17  1  0  0  0  0
 16 38  1  0  0  0  0
 17 18  1  0  0  0  0
 17 39  1  0  0  0  0
 17 40  1  0  0  0  0
 18 19  1  0  0  0  0
 18 41  1  0  0  0  0
 18 42  1  0  0  0  0
 19 20  1  0  0  0  0
 19 23  1  0  0  0  0
 19 52  1  0  0  0  0
 20 22  1  0  0  0  0
 20 21  1  0  0  0  0
 20 43  1  0  0  0  0
 21 22  1  0  0  0  0
 21 44  1  0  0  0  0
 21 45  1  0  0  0  0
 22 46  1  0  0  0  0
 22 47  1  0  0  0  0
 23 24  1  0  0  0  0
 23 48  1  0  0  0  0
 23 49  1  0  0  0  0
 24 50  1  0  0  0  0
 24 51  1  0  0  0  0
M  CHG  1  19   1
M  END
> <s_m_source_file>
AV-unprocessed.smi

> <i_m_source_file_index>
890

> <i_lp_mmshare_version>
43012

> <i_f3d_flags>
0

> <s_epik_input>
W0NIMl0xW0NIMl1bQ0hdMU4oW0NIMl1bQ0gyXTIpW0NIMl1bQ0gyXVtDSF0yW05IXUMoPU8pW05IXWMzW2NIXVtjSF1bY0hdbmMzTjRbQ0gyXVtDSDJdW0NIMl1bQ0gyXTQ=

> <s_epik_cmdline>
J2VwaWtfcHl0aG9uJywgJy1waCcsICc3LjAnLCAnLXRuJywgJzgnLCAnLW1hJywgJzIwMCcsICctbWV0YWxfYmluZGluZycsICctaW1hZScsICc8aW5maWxlLm1hZT4nLCAnLW9tYWUnLCAnPG91dGZpbGUubWFlPic=

> <r_lp_tautomer_probability>
1

> <r_epik_Ionization_Penalty>
0.193768

> <r_epik_Ionization_Penalty_Charging>
0.115549

> <r_epik_Ionization_Penalty_Neutral>
0.078219

> <r_epik_State_Penalty>
0.174811

> <r_epik_Charging_Adjusted_Penalty>
0.29036

> <i_epik_Tot_Q>
1

> <i_epik_Tot_abs_Q>
1

> <r_epik_Metal_State_Penalty>
0.169761

> <b_epik_Metal_Only>
0

> <s_lp_Force_Field>
OPLS_2005

> <r_lp_Energy>
56.2334

> <b_lp_Chiralities_Consistent>
1

> <s_lp_Variant>
AV-unprocessed.smi:890-2

> <Gold.Version>
5.8.1

> <Gold.Id.Protein>
6NUR|6NUR_protein|mol2

> <Gold.PLP.Fitness>
37.3610

> <Gold.PLP.PLP>
-29.0476

> <Gold.PLP.part.hbond>
-3.0000

> <Gold.PLP.part.metal>
0.0000

> <Gold.PLP.part.buried>
1.1524

> <Gold.PLP.part.nonpolar>
-27.7854

> <Gold.PLP.part.repulsive>
0.2731

> <Gold.PLP.ligand.clash>
0.0000

> <Gold.PLP.ligand.torsion>
0.9651

> <Gold.PLP.Chemscore.Hbond>
2.9516

> <Gold.PLP.Chemscore.CHOScore>
0.0000

> <Gold.PLP.Chemscore.Metal>
0.0000

> <Gold.Chemscore.Hbonds>
donor molecule, donor type, donor heavy atom, donor atom, acceptor molecule, acceptor atom, score
      L1  H     3    25       P1 10957  0.95
      L1  H    15    37       P1 10957  1.00
      L1  H    19    52       P1  7921  1.00

> <Gold.PLP.Chemscore.Internal.Correction>
1.3889

> <Gold.Rescore>
     Score         DG    S(hbond)    S(metal)    S(lipo)     H(rot)  DE(clash)    DE(int)     intcor
     18.25     -22.14       2.75        0.00      92.96       1.33       1.67       2.22       ----

> <Gold.Chemscore.Fitness>
18.2508

> <Gold.Chemscore.DG>
-22.1435

> <Gold.Chemscore.ZeroCoef>
-5.4800

> <Gold.Chemscore.Hbond>
2.7516

> <Gold.Chemscore.Metal>
0.0000

> <Gold.Chemscore.Lipo>
92.9590

> <Gold.Chemscore.Internal_Hbond>
0.0000

> <Gold.Chemscore.DEClash>
1.6729

> <Gold.Chemscore.DEInternal>
2.2199

> <Gold.Chemscore.Rot>
1.3294

> <Gold.Chemscore.Internal.Correction>
   9.000000E+99

> <Gold.Chemscore.Hbonds>
donor molecule, donor type, donor heavy atom, donor atom, acceptor molecule, acceptor atom, score
      L1  H     3    25       P1 10957  0.79
      L1  H    15    37       P1 10957  0.92
      L1  H    19    52       P1  7921  0.85

> <Gold.Chemscore.Hbond.Weighted>
-9.1905

> <Gold.Chemscore.Metal.Weighted>
-0.0000

> <Gold.Chemscore.Lipo.Weighted>
-10.8762

> <Gold.Chemscore.Internal_Hbond.Weighted>
0.0000

> <Gold.Chemscore.DEClash.Weighted>
1.6729

> <Gold.Chemscore.DEInternal.Weighted>
2.2199

> <Gold.Chemscore.Rot.Weighted>
3.4032

> <Gold.Chemscore.Internal.Correction.Weighted>
   9.000000E+99

> <Gold.Protein.RotatedTorsions>
[ 6907 6896 6895 6894 ] final   48.76 input  -60.11 | X-H torsion
[ 7974 7965 7964 7962 ] final  -90.63 input  175.53 | X-H torsion
[ 8008 7997 7996 7995 ] final   38.91 input   59.86 | X-H torsion
[ 10167 10162 10161 10158 ] final -145.25 input  -65.29 | X-H torsion
[ 10718 10713 10712 10709 ] final -165.60 input   66.30 | X-H torsion
[ 10763 10752 10751 10750 ] final  166.68 input  -60.55 | X-H torsion
[ 11005 11000 10999 10996 ] final  167.02 input  -57.11 | X-H torsion

> <Gold.Protein.ActiveResidues>
 VAL166  LYS551  ARG553  GLY616  TRP617  ASP618  TYR619  PRO620  LYS621  CYS622 
 ASP623  PHE694  ASN695  SER759  ASP760  ASP761  ALA762  ILE779  LEU786  VAL792 
 PHE793  MET794  SER795  GLU796  ALA797  LYS798  CYS799  TRP800  GLU811  SER814 

> <Gold.Protein.RotatedAtoms>
  152.2831  134.7806  160.0392 H   0  0  0  0  0  0  0  0  0  0  0  0  # atno 6907 bound_to 6896
  151.8378  133.3413  159.3642 H   0  0  0  0  0  0  0  0  0  0  0  0  # atno 6908 bound_to 6896
  150.7198  134.5349  159.5763 H   0  0  0  0  0  0  0  0  0  0  0  0  # atno 6909 bound_to 6896
  145.4238  140.9552  143.2166 H   0  0  0  0  0  0  0  0  0  0  0  0  # atno 7974 bound_to 7965
  155.2280  140.3336  155.4307 H   0  0  0  0  0  0  0  0  0  0  0  0  # atno 8008 bound_to 7997
  156.2306  140.1849  156.7297 H   0  0  0  0  0  0  0  0  0  0  0  0  # atno 8009 bound_to 7997
  154.5972  140.0628  156.9305 H   0  0  0  0  0  0  0  0  0  0  0  0  # atno 8010 bound_to 7997
  139.7823  143.8083  152.2640 H   0  0  0  0  0  0  0  0  0  0  0  0  # atno 10167 bound_to 10162
  156.6558  130.9026  151.3021 H   0  0  0  0  0  0  0  0  0  0  0  0  # atno 10718 bound_to 10713
  154.3427  135.2754  155.2414 H   0  0  0  0  0  0  0  0  0  0  0  0  # atno 10763 bound_to 10752
  154.4678  135.5891  153.6304 H   0  0  0  0  0  0  0  0  0  0  0  0  # atno 10764 bound_to 10752
  152.9856  135.6080  154.3629 H   0  0  0  0  0  0  0  0  0  0  0  0  # atno 10765 bound_to 10752
  140.2724  134.7816  157.3687 H   0  0  0  0  0  0  0  0  0  0  0  0  # atno 11005 bound_to 11000
  144.8227  139.5763  143.6979 LP  0  0  0  0  0  0  0  0  0  0  0  0  # atno 17320 bound_to 7965
  146.2642  139.6482  142.9341 LP  0  0  0  0  0  0  0  0  0  0  0  0  # atno 17321 bound_to 7965
  139.8149  144.7320  150.9648 LP  0  0  0  0  0  0  0  0  0  0  0  0  # atno 17342 bound_to 10162
  140.7818  143.4214  151.0835 LP  0  0  0  0  0  0  0  0  0  0  0  0  # atno 17343 bound_to 10162
  157.7126  130.9458  150.1141 LP  0  0  0  0  0  0  0  0  0  0  0  0  # atno 17370 bound_to 10713
  156.2049  130.3662  149.8742 LP  0  0  0  0  0  0  0  0  0  0  0  0  # atno 17371 bound_to 10713
  140.1360  134.5033  155.8068 LP  0  0  0  0  0  0  0  0  0  0  0  0  # atno 17394 bound_to 11000
  141.2175  133.6807  156.7125 LP  0  0  0  0  0  0  0  0  0  0  0  0  # atno 17395 bound_to 11000

$$$$
