AV-unprocessed.smi:2013|AV-procd|sdf|8157|dock1
  -GOLD-   2272010403D 1   1.00000     0.00000
 Structure written by MMmdl.
 51 52  0  0  0  0  0  0  0  0  2 V2000
  145.8487  137.9928  152.4556 C   0  0  0  0  0  0  0  0  0  0  0  0
  145.1467  137.1020  153.4983 C   0  0  0  0  0  0  0  0  0  0  0  0
  144.4700  138.0046  154.5496 C   0  0  0  0  0  0  0  0  0  0  0  0
  146.1019  136.0627  154.1543 C   0  0  2  0  0  0  0  0  0  0  0  0
  147.2084  136.7291  155.0207 C   0  0  0  0  0  0  0  0  0  0  0  0
  147.7882  135.8211  156.0049 N   0  0  0  0  0  0  0  0  0  0  0  0
  147.7620  135.9993  157.3336 C   0  0  0  0  0  0  0  0  0  0  0  0
  147.2375  136.9729  157.8754 O   0  0  0  0  0  0  0  0  0  0  0  0
  148.4665  134.9232  158.1701 C   0  0  0  0  0  0  0  0  0  0  0  0
  147.6903  134.5141  159.3475 N   0  0  0  0  0  0  0  0  0  0  0  0
  147.2575  133.2050  159.4610 C   0  0  0  0  0  0  0  0  0  0  0  0
  146.5474  132.7439  160.5133 C   0  0  0  0  0  0  0  0  0  0  0  0
  146.1867  133.6271  161.6149 C   0  0  0  0  0  0  0  0  0  0  0  0
  145.5443  133.2569  162.5988 O   0  0  0  0  0  0  0  0  0  0  0  0
  146.6358  134.9598  161.4732 N   0  0  0  0  0  0  0  0  0  0  0  0
  146.2955  135.8700  162.5469 C   0  0  0  0  0  0  0  0  0  0  0  0
  147.3867  135.4366  160.3731 C   0  0  0  0  0  0  0  0  0  0  0  0
  147.7731  136.6047  160.2914 O   0  0  0  0  0  0  0  0  0  0  0  0
  146.6288  135.1308  153.1070 N   0  3  0  0  0  0  0  0  0  0  0  0
  147.3130  133.9078  153.5969 C   0  0  0  0  0  0  0  0  0  0  0  0
  147.9935  133.1831  152.4243 C   0  0  0  0  0  0  0  0  0  0  0  0
  147.0269  132.8831  151.4239 O   0  0  0  0  0  0  0  0  0  0  0  0
  146.4289  134.0575  150.8873 C   0  0  0  0  0  0  0  0  0  0  0  0
  145.6897  134.8168  152.0017 C   0  0  0  0  0  0  0  0  0  0  0  0
  146.7176  138.4953  152.8817 H   0  0  0  0  0  0  0  0  0  0  0  0
  145.1742  138.7629  152.0802 H   0  0  0  0  0  0  0  0  0  0  0  0
  146.1780  137.4232  151.5871 H   0  0  0  0  0  0  0  0  0  0  0  0
  144.3562  136.5640  152.9740 H   0  0  0  0  0  0  0  0  0  0  0  0
  145.2092  138.5476  155.1395 H   0  0  0  0  0  0  0  0  0  0  0  0
  143.8461  137.4351  155.2382 H   0  0  0  0  0  0  0  0  0  0  0  0
  143.8211  138.7415  154.0753 H   0  0  0  0  0  0  0  0  0  0  0  0
  145.4838  135.4697  154.8304 H   0  0  0  0  0  0  0  0  0  0  0  0
  147.9789  137.1539  154.3752 H   0  0  0  0  0  0  0  0  0  0  0  0
  146.7964  137.5614  155.5898 H   0  0  0  0  0  0  0  0  0  0  0  0
  148.2376  134.9894  155.6503 H   0  0  0  0  0  0  0  0  0  0  0  0
  148.6916  134.0545  157.5485 H   0  0  0  0  0  0  0  0  0  0  0  0
  149.4340  135.3189  158.4821 H   0  0  0  0  0  0  0  0  0  0  0  0
  147.5023  132.5108  158.6703 H   0  0  0  0  0  0  0  0  0  0  0  0
  146.2426  131.7080  160.5410 H   0  0  0  0  0  0  0  0  0  0  0  0
  146.6065  136.8888  162.3187 H   0  0  0  0  0  0  0  0  0  0  0  0
  146.8044  135.5128  163.4436 H   0  0  0  0  0  0  0  0  0  0  0  0
  145.2109  135.8426  162.6671 H   0  0  0  0  0  0  0  0  0  0  0  0
  148.0569  134.1672  154.3502 H   0  0  0  0  0  0  0  0  0  0  0  0
  146.5987  133.2327  154.0678 H   0  0  0  0  0  0  0  0  0  0  0  0
  148.7958  133.7908  152.0022 H   0  0  0  0  0  0  0  0  0  0  0  0
  148.4459  132.2533  152.7693 H   0  0  0  0  0  0  0  0  0  0  0  0
  147.1898  134.6877  150.4239 H   0  0  0  0  0  0  0  0  0  0  0  0
  145.7309  133.7712  150.1003 H   0  0  0  0  0  0  0  0  0  0  0  0
  144.8587  134.2110  152.3603 H   0  0  0  0  0  0  0  0  0  0  0  0
  145.2673  135.7367  151.5961 H   0  0  0  0  0  0  0  0  0  0  0  0
  147.3548  135.6697  152.6564 H   0  0  0  0  0  0  0  0  0  0  0  0
  1  2  1  0  0  0  0
  1 25  1  0  0  0  0
  1 26  1  0  0  0  0
  1 27  1  0  0  0  0
  2  3  1  0  0  0  0
  2  4  1  0  0  0  0
  2 28  1  0  0  0  0
  3 29  1  0  0  0  0
  3 30  1  0  0  0  0
  3 31  1  0  0  0  0
  4  5  1  0  0  0  0
  4 19  1  0  0  0  0
  4 32  1  0  0  0  0
  5  6  1  0  0  0  0
  5 33  1  0  0  0  0
  5 34  1  0  0  0  0
  6  7  1  0  0  0  0
  6 35  1  0  0  0  0
  7  8  2  0  0  0  0
  7  9  1  0  0  0  0
  9 10  1  0  0  0  0
  9 36  1  0  0  0  0
  9 37  1  0  0  0  0
 10 17  1  0  0  0  0
 10 11  1  0  0  0  0
 11 12  2  0  0  0  0
 11 38  1  0  0  0  0
 12 13  1  0  0  0  0
 12 39  1  0  0  0  0
 13 14  2  0  0  0  0
 13 15  1  0  0  0  0
 15 16  1  0  0  0  0
 15 17  1  0  0  0  0
 16 40  1  0  0  0  0
 16 41  1  0  0  0  0
 16 42  1  0  0  0  0
 17 18  2  0  0  0  0
 19 24  1  0  0  0  0
 19 20  1  0  0  0  0
 19 51  1  0  0  0  0
 20 21  1  0  0  0  0
 20 43  1  0  0  0  0
 20 44  1  0  0  0  0
 21 22  1  0  0  0  0
 21 45  1  0  0  0  0
 21 46  1  0  0  0  0
 22 23  1  0  0  0  0
 23 24  1  0  0  0  0
 23 47  1  0  0  0  0
 23 48  1  0  0  0  0
 24 49  1  0  0  0  0
 24 50  1  0  0  0  0
M  CHG  1  19   1
M  END
> <s_m_source_file>
AV-unprocessed.smi

> <i_m_source_file_index>
2013

> <i_lp_mmshare_version>
43012

> <i_f3d_flags>
0

> <s_epik_input>
W0NIMl0xW0NIMl1PW0NIMl1bQ0gyXU4xW0NASF0oW0NIXShbQ0gzXSlbQ0gzXSlbQ0gyXVtOSF1DKD1PKVtDSDJdbjJbY0hdW2NIXWMoPU8pbihbQ0gzXSljMj1P

> <s_epik_cmdline>
J2VwaWtfcHl0aG9uJywgJy1waCcsICc3LjAnLCAnLXRuJywgJzgnLCAnLW1hJywgJzIwMCcsICctbWV0YWxfYmluZGluZycsICctaW1hZScsICc8aW5maWxlLm1hZT4nLCAnLW9tYWUnLCAnPG91dGZpbGUubWFlPic=

> <r_lp_tautomer_probability>
1

> <r_epik_Ionization_Penalty>
0.370738

> <r_epik_Ionization_Penalty_Charging>
0.370738

> <r_epik_Ionization_Penalty_Neutral>
8.1827e-08

> <r_epik_State_Penalty>
0.368162

> <r_epik_Charging_Adjusted_Penalty>
0.7389

> <i_epik_Tot_Q>
1

> <i_epik_Tot_abs_Q>
1

> <r_epik_Metal_State_Penalty>
0.368194

> <b_epik_Metal_Only>
0

> <s_lp_Force_Field>
OPLS_2005

> <r_lp_Energy>
40.4187

> <b_lp_Chiralities_Consistent>
1

> <s_lp_Variant>
AV-unprocessed.smi:2013-1

> <Gold.Version>
5.8.1

> <Gold.Id.Protein>
6NUR|6NUR_protein|mol2

> <Gold.PLP.Fitness>
41.9769

> <Gold.PLP.PLP>
-34.0239

> <Gold.PLP.part.hbond>
-4.0000

> <Gold.PLP.part.metal>
0.0000

> <Gold.PLP.part.buried>
-4.6550

> <Gold.PLP.part.nonpolar>
-26.8052

> <Gold.PLP.part.repulsive>
0.1756

> <Gold.PLP.ligand.clash>
0.0000

> <Gold.PLP.ligand.torsion>
0.6613

> <Gold.PLP.Chemscore.Hbond>
2.8913

> <Gold.PLP.Chemscore.CHOScore>
0.0000

> <Gold.PLP.Chemscore.Metal>
0.0000

> <Gold.Chemscore.Hbonds>
donor molecule, donor type, donor heavy atom, donor atom, acceptor molecule, acceptor atom, score
      L1  H    19    51       P1  7948  2.00

> <Gold.PLP.Chemscore.Internal.Correction>
0.6017

> <Gold.Rescore>
     Score         DG    S(hbond)    S(metal)    S(lipo)     H(rot)  DE(clash)    DE(int)     intcor
     12.23     -14.32       2.66        0.00      49.59       2.28       0.00       2.08       ----

> <Gold.Chemscore.Fitness>
12.2272

> <Gold.Chemscore.DG>
-14.3151

> <Gold.Chemscore.ZeroCoef>
-5.4800

> <Gold.Chemscore.Hbond>
2.6566

> <Gold.Chemscore.Metal>
0.0000

> <Gold.Chemscore.Lipo>
49.5932

> <Gold.Chemscore.Internal_Hbond>
0.0000

> <Gold.Chemscore.DEClash>
0.0038

> <Gold.Chemscore.DEInternal>
2.0841

> <Gold.Chemscore.Rot>
2.2814

> <Gold.Chemscore.Internal.Correction>
   9.000000E+99

> <Gold.Chemscore.Hbonds>
donor molecule, donor type, donor heavy atom, donor atom, acceptor molecule, acceptor atom, score
      L1  H    19    51       P1  7948  1.00

> <Gold.Chemscore.Hbond.Weighted>
-8.8731

> <Gold.Chemscore.Metal.Weighted>
-0.0000

> <Gold.Chemscore.Lipo.Weighted>
-5.8024

> <Gold.Chemscore.Internal_Hbond.Weighted>
0.0000

> <Gold.Chemscore.DEClash.Weighted>
0.0038

> <Gold.Chemscore.DEInternal.Weighted>
2.0841

> <Gold.Chemscore.Rot.Weighted>
5.8404

> <Gold.Chemscore.Internal.Correction.Weighted>
   9.000000E+99

> <Gold.Protein.RotatedTorsions>
[ 6907 6896 6895 6894 ] final -103.00 input  -60.11 | X-H torsion
[ 7974 7965 7964 7962 ] final   23.22 input  175.53 | X-H torsion
[ 8008 7997 7996 7995 ] final  -55.74 input   59.86 | X-H torsion
[ 10167 10162 10161 10158 ] final -136.61 input  -65.29 | X-H torsion
[ 10718 10713 10712 10709 ] final  102.41 input   66.30 | X-H torsion
[ 10763 10752 10751 10750 ] final  -88.40 input  -60.55 | X-H torsion
[ 11005 11000 10999 10996 ] final -108.63 input  -57.11 | X-H torsion

> <Gold.Protein.ActiveResidues>
 VAL166  LYS551  ARG553  GLY616  TRP617  ASP618  TYR619  PRO620  LYS621  CYS622 
 ASP623  PHE694  ASN695  SER759  ASP760  ASP761  ALA762  ILE779  LEU786  VAL792 
 PHE793  MET794  SER795  GLU796  ALA797  LYS798  CYS799  TRP800  GLU811  SER814 

> <Gold.Protein.RotatedAtoms>
  150.7220  134.0496  159.3793 H   0  0  0  0  0  0  0  0  0  0  0  0  # atno 6907 bound_to 6896
  151.8473  135.0568  160.0464 H   0  0  0  0  0  0  0  0  0  0  0  0  # atno 6908 bound_to 6896
  152.2817  133.5441  159.5538 H   0  0  0  0  0  0  0  0  0  0  0  0  # atno 6909 bound_to 6896
  146.1994  139.7775  142.8773 H   0  0  0  0  0  0  0  0  0  0  0  0  # atno 7974 bound_to 7965
  154.4205  140.1146  156.5526 H   0  0  0  0  0  0  0  0  0  0  0  0  # atno 8008 bound_to 7997
  155.6394  140.3496  155.4690 H   0  0  0  0  0  0  0  0  0  0  0  0  # atno 8009 bound_to 7997
  155.9883  140.1174  157.0652 H   0  0  0  0  0  0  0  0  0  0  0  0  # atno 8010 bound_to 7997
  139.8660  143.7017  152.2645 H   0  0  0  0  0  0  0  0  0  0  0  0  # atno 10167 bound_to 10162
  157.6803  131.0752  150.5399 H   0  0  0  0  0  0  0  0  0  0  0  0  # atno 10718 bound_to 10713
  154.6441  135.5378  153.7823 H   0  0  0  0  0  0  0  0  0  0  0  0  # atno 10763 bound_to 10752
  153.0349  135.6466  154.1116 H   0  0  0  0  0  0  0  0  0  0  0  0  # atno 10764 bound_to 10752
  154.1038  135.2931  155.3226 H   0  0  0  0  0  0  0  0  0  0  0  0  # atno 10765 bound_to 10752
  141.0891  133.9087  157.2117 H   0  0  0  0  0  0  0  0  0  0  0  0  # atno 11005 bound_to 11000
  145.3535  141.0312  143.3325 LP  0  0  0  0  0  0  0  0  0  0  0  0  # atno 17320 bound_to 7965
  144.8650  139.5121  143.6794 LP  0  0  0  0  0  0  0  0  0  0  0  0  # atno 17321 bound_to 7965
  139.7328  144.7578  151.0774 LP  0  0  0  0  0  0  0  0  0  0  0  0  # atno 17342 bound_to 10162
  140.7768  143.5067  150.9704 LP  0  0  0  0  0  0  0  0  0  0  0  0  # atno 17343 bound_to 10162
  156.5706  130.4279  149.6021 LP  0  0  0  0  0  0  0  0  0  0  0  0  # atno 17370 bound_to 10713
  156.2743  130.7035  151.1841 LP  0  0  0  0  0  0  0  0  0  0  0  0  # atno 17371 bound_to 10713
  139.9714  135.0127  156.9521 LP  0  0  0  0  0  0  0  0  0  0  0  0  # atno 17394 bound_to 11000
  140.5294  134.0828  155.7312 LP  0  0  0  0  0  0  0  0  0  0  0  0  # atno 17395 bound_to 11000

$$$$
