AV-unprocessed.smi:2191|AV-procd|sdf|8895|dock8
  -GOLD-   2272012103D 1   1.00000     0.00000
 Structure written by MMmdl.
 37 39  0  0  0  0  0  0  0  0  2 V2000
  149.8817  140.5290  153.8963 O   0  0  0  0  0  0  0  0  0  0  0  0
  148.8602  140.9978  154.7541 C   0  0  1  0  0  0  0  0  0  0  0  0
  149.4772  141.9769  155.7632 C   0  0  0  0  0  0  0  0  0  0  0  0
  150.4227  141.2784  156.5629 O   0  0  0  0  0  0  0  0  0  0  0  0
  151.1071  141.9833  157.5296 C   0  0  0  0  0  0  0  0  0  0  0  0
  151.8716  141.2337  158.4478 C   0  0  0  0  0  0  0  0  0  0  0  0
  152.6011  141.8717  159.4694 C   0  0  0  0  0  0  0  0  0  0  0  0
  152.5745  143.2740  159.5821 C   0  0  0  0  0  0  0  0  0  0  0  0
  151.8182  144.0348  158.6715 C   0  0  0  0  0  0  0  0  0  0  0  0
  151.0876  143.3963  157.6502 C   0  0  0  0  0  0  0  0  0  0  0  0
  147.7355  141.6418  153.9183 C   0  0  0  0  0  0  0  0  0  0  0  0
  146.6375  142.1600  154.7445 N   0  0  0  0  0  0  0  0  0  0  0  0
  146.2185  141.7828  155.9828 C   0  0  0  0  0  0  0  0  0  0  0  0
  145.1609  142.5736  156.3174 N   0  3  0  0  0  0  0  0  0  0  0  0
  144.9002  143.4683  155.2771 C   0  0  0  0  0  0  0  0  0  0  0  0
  143.9348  144.4622  155.1487 C   0  0  0  0  0  0  0  0  0  0  0  0
  143.9454  145.2032  153.9485 C   0  0  0  0  0  0  0  0  0  0  0  0
  144.8886  144.9442  152.9325 C   0  0  0  0  0  0  0  0  0  0  0  0
  145.8620  143.9329  153.0725 C   0  0  0  0  0  0  0  0  0  0  0  0
  145.8453  143.2068  154.2626 C   0  0  0  0  0  0  0  0  0  0  0  0
  149.5325  140.4648  153.0205 H   0  0  0  0  0  0  0  0  0  0  0  0
  148.4696  140.1352  155.2950 H   0  0  0  0  0  0  0  0  0  0  0  0
  149.9807  142.7849  155.2291 H   0  0  0  0  0  0  0  0  0  0  0  0
  148.6949  142.4164  156.3847 H   0  0  0  0  0  0  0  0  0  0  0  0
  151.8976  140.1566  158.3690 H   0  0  0  0  0  0  0  0  0  0  0  0
  153.1809  141.2850  160.1665 H   0  0  0  0  0  0  0  0  0  0  0  0
  153.1334  143.7654  160.3650 H   0  0  0  0  0  0  0  0  0  0  0  0
  151.7978  145.1113  158.7554 H   0  0  0  0  0  0  0  0  0  0  0  0
  150.5211  144.0147  156.9708 H   0  0  0  0  0  0  0  0  0  0  0  0
  148.1190  142.4607  153.3084 H   0  0  0  0  0  0  0  0  0  0  0  0
  147.3106  140.9135  153.2259 H   0  0  0  0  0  0  0  0  0  0  0  0
  146.6487  141.0002  156.5911 H   0  0  0  0  0  0  0  0  0  0  0  0
  143.2109  144.6635  155.9248 H   0  0  0  0  0  0  0  0  0  0  0  0
  143.2152  145.9864  153.8041 H   0  0  0  0  0  0  0  0  0  0  0  0
  144.8657  145.5335  152.0272 H   0  0  0  0  0  0  0  0  0  0  0  0
  146.5822  143.7422  152.2902 H   0  0  0  0  0  0  0  0  0  0  0  0
  144.6570  142.5053  157.1923 H   0  0  0  0  0  0  0  0  0  0  0  0
  1  2  1  0  0  0  0
  1 21  1  0  0  0  0
  2  3  1  0  0  0  0
  2 11  1  0  0  0  0
  2 22  1  0  0  0  0
  3  4  1  0  0  0  0
  3 23  1  0  0  0  0
  3 24  1  0  0  0  0
  4  5  1  0  0  0  0
  5 10  1  0  0  0  0
  5  6  2  0  0  0  0
  6  7  1  0  0  0  0
  6 25  1  0  0  0  0
  7  8  2  0  0  0  0
  7 26  1  0  0  0  0
  8  9  1  0  0  0  0
  8 27  1  0  0  0  0
  9 10  2  0  0  0  0
  9 28  1  0  0  0  0
 10 29  1  0  0  0  0
 11 12  1  0  0  0  0
 11 30  1  0  0  0  0
 11 31  1  0  0  0  0
 12 20  1  0  0  0  0
 12 13  1  0  0  0  0
 13 14  2  0  0  0  0
 13 32  1  0  0  0  0
 14 15  1  0  0  0  0
 14 37  1  0  0  0  0
 15 20  2  0  0  0  0
 15 16  1  0  0  0  0
 16 17  2  0  0  0  0
 16 33  1  0  0  0  0
 17 18  1  0  0  0  0
 17 34  1  0  0  0  0
 18 19  2  0  0  0  0
 18 35  1  0  0  0  0
 19 20  1  0  0  0  0
 19 36  1  0  0  0  0
M  CHG  1  14   1
M  END
> <s_m_source_file>
AV-unprocessed.smi

> <i_m_source_file_index>
2191

> <i_lp_mmshare_version>
43012

> <i_f3d_flags>
0

> <s_epik_input>
W2NIXTFbY0hdW2NIXVtjSF1jKGMxMiluKFtjSF1uMilbQ0gyXVtDQEhdKFtPSF0pW0NIMl1PYzNbY0hdW2NIXVtjSF1bY0hdW2NIXTM=

> <s_epik_cmdline>
J2VwaWtfcHl0aG9uJywgJy1waCcsICc3LjAnLCAnLXRuJywgJzgnLCAnLW1hJywgJzIwMCcsICctbWV0YWxfYmluZGluZycsICctaW1hZScsICc8aW5maWxlLm1hZT4nLCAnLW9tYWUnLCAnPG91dGZpbGUubWFlPic=

> <r_lp_tautomer_probability>
1

> <r_epik_Ionization_Penalty>
1.35015

> <r_epik_Ionization_Penalty_Charging>
1.35015

> <r_epik_Ionization_Penalty_Neutral>
2.3993e-06

> <r_epik_State_Penalty>
1.42814

> <r_epik_Charging_Adjusted_Penalty>
2.77829

> <i_epik_Tot_Q>
1

> <i_epik_Tot_abs_Q>
1

> <r_epik_Metal_State_Penalty>
5.46522

> <b_epik_Metal_Only>
0

> <s_lp_Force_Field>
OPLS_2005

> <r_lp_Energy>
19.3108

> <b_lp_Chiralities_Consistent>
1

> <s_lp_Variant>
AV-unprocessed.smi:2191-4

> <Gold.Version>
5.8.1

> <Gold.Id.Protein>
6NUR|6NUR_protein|mol2

> <Gold.PLP.Fitness>
51.4501

> <Gold.PLP.PLP>
-47.2376

> <Gold.PLP.part.hbond>
-2.0000

> <Gold.PLP.part.metal>
0.0000

> <Gold.PLP.part.buried>
-2.8253

> <Gold.PLP.part.nonpolar>
-43.0234

> <Gold.PLP.part.repulsive>
0.0611

> <Gold.PLP.ligand.clash>
0.0000

> <Gold.PLP.ligand.torsion>
0.4645

> <Gold.PLP.Chemscore.Hbond>
1.7040

> <Gold.PLP.Chemscore.CHOScore>
0.0000

> <Gold.PLP.Chemscore.Metal>
0.0000

> <Gold.Chemscore.Hbonds>
donor molecule, donor type, donor heavy atom, donor atom, acceptor molecule, acceptor atom, score
      L1  H     1    21       P1  7957  1.00
      P1  H  7989  7998       L1     1  0.58

> <Gold.PLP.Chemscore.Internal.Correction>
0.0294

> <Gold.Rescore>
     Score         DG    S(hbond)    S(metal)    S(lipo)     H(rot)  DE(clash)    DE(int)     intcor
     16.59     -18.85       1.37        0.00     125.58       2.31       1.45       0.82       ----

> <Gold.Chemscore.Fitness>
16.5852

> <Gold.Chemscore.DG>
-18.8524

> <Gold.Chemscore.ZeroCoef>
-5.4800

> <Gold.Chemscore.Hbond>
1.3717

> <Gold.Chemscore.Metal>
0.0000

> <Gold.Chemscore.Lipo>
125.5776

> <Gold.Chemscore.Internal_Hbond>
0.0000

> <Gold.Chemscore.DEClash>
1.4494

> <Gold.Chemscore.DEInternal>
0.8178

> <Gold.Chemscore.Rot>
2.3053

> <Gold.Chemscore.Internal.Correction>
   9.000000E+99

> <Gold.Chemscore.Hbonds>
donor molecule, donor type, donor heavy atom, donor atom, acceptor molecule, acceptor atom, score
      L1  H     1    21       P1  7957  0.97
      P1  H  7989  7998       L1     1  0.11

> <Gold.Chemscore.Hbond.Weighted>
-4.5813

> <Gold.Chemscore.Metal.Weighted>
-0.0000

> <Gold.Chemscore.Lipo.Weighted>
-14.6926

> <Gold.Chemscore.Internal_Hbond.Weighted>
0.0000

> <Gold.Chemscore.DEClash.Weighted>
1.4494

> <Gold.Chemscore.DEInternal.Weighted>
0.8178

> <Gold.Chemscore.Rot.Weighted>
5.9015

> <Gold.Chemscore.Internal.Correction.Weighted>
   9.000000E+99

> <Gold.Protein.RotatedTorsions>
[ 6907 6896 6895 6894 ] final  178.54 input  -60.11 | X-H torsion
[ 7974 7965 7964 7962 ] final  150.86 input  175.53 | X-H torsion
[ 8008 7997 7996 7995 ] final   16.99 input   59.86 | X-H torsion
[ 10167 10162 10161 10158 ] final  -99.44 input  -65.29 | X-H torsion
[ 10718 10713 10712 10709 ] final -141.73 input   66.30 | X-H torsion
[ 10763 10752 10751 10750 ] final    8.47 input  -60.55 | X-H torsion
[ 11005 11000 10999 10996 ] final  149.70 input  -57.11 | X-H torsion

> <Gold.Protein.ActiveResidues>
 VAL166  LYS551  ARG553  GLY616  TRP617  ASP618  TYR619  PRO620  LYS621  CYS622 
 ASP623  PHE694  ASN695  SER759  ASP760  ASP761  ALA762  ILE779  LEU786  VAL792 
 PHE793  MET794  SER795  GLU796  ALA797  LYS798  CYS799  TRP800  GLU811  SER814 

> <Gold.Protein.RotatedAtoms>
  151.6861  133.3311  159.3231 H   0  0  0  0  0  0  0  0  0  0  0  0  # atno 6907 bound_to 6896
  150.7800  134.6738  159.6416 H   0  0  0  0  0  0  0  0  0  0  0  0  # atno 6908 bound_to 6896
  152.3854  134.6528  160.0179 H   0  0  0  0  0  0  0  0  0  0  0  0  # atno 6909 bound_to 6896
  144.8333  139.6463  143.6049 H   0  0  0  0  0  0  0  0  0  0  0  0  # atno 7974 bound_to 7965
  154.8849  140.2978  155.5404 H   0  0  0  0  0  0  0  0  0  0  0  0  # atno 8008 bound_to 7997
  156.3021  140.2435  156.3790 H   0  0  0  0  0  0  0  0  0  0  0  0  # atno 8009 bound_to 7997
  154.8679  140.0402  157.1695 H   0  0  0  0  0  0  0  0  0  0  0  0  # atno 8010 bound_to 7997
  140.2624  143.3398  152.0613 H   0  0  0  0  0  0  0  0  0  0  0  0  # atno 10167 bound_to 10162
  156.3375  130.7620  151.1750 H   0  0  0  0  0  0  0  0  0  0  0  0  # atno 10718 bound_to 10713
  153.2247  135.6885  153.7959 H   0  0  0  0  0  0  0  0  0  0  0  0  # atno 10763 bound_to 10752
  153.7145  135.3277  155.3254 H   0  0  0  0  0  0  0  0  0  0  0  0  # atno 10764 bound_to 10752
  154.8286  135.4598  154.1109 H   0  0  0  0  0  0  0  0  0  0  0  0  # atno 10765 bound_to 10752
  140.1067  134.8949  157.1877 H   0  0  0  0  0  0  0  0  0  0  0  0  # atno 11005 bound_to 11000
  146.2634  139.6464  142.9346 LP  0  0  0  0  0  0  0  0  0  0  0  0  # atno 17320 bound_to 7965
  145.4848  141.0438  143.2626 LP  0  0  0  0  0  0  0  0  0  0  0  0  # atno 17321 bound_to 7965
  139.5013  144.6710  151.6243 LP  0  0  0  0  0  0  0  0  0  0  0  0  # atno 17342 bound_to 10162
  140.5955  143.9703  150.6352 LP  0  0  0  0  0  0  0  0  0  0  0  0  # atno 17343 bound_to 10162
  157.7441  131.0464  150.4890 LP  0  0  0  0  0  0  0  0  0  0  0  0  # atno 17370 bound_to 10713
  156.5065  130.4129  149.6324 LP  0  0  0  0  0  0  0  0  0  0  0  0  # atno 17371 bound_to 10713
  140.3146  134.2985  155.7259 LP  0  0  0  0  0  0  0  0  0  0  0  0  # atno 17394 bound_to 11000
  141.2120  133.7671  156.9824 LP  0  0  0  0  0  0  0  0  0  0  0  0  # atno 17395 bound_to 11000

$$$$
