AV-unprocessed.smi:1454|AV-procd|sdf|5913|dock10
  -GOLD-   22720 6 03D 1   1.00000     0.00000
 Structure written by MMmdl.
 44 45  0  0  0  0  0  0  0  0  1 V2000
  152.6623  139.8689  154.7266 O   0  0  0  0  0  0  0  0  0  0  0  0
  151.4674  139.5758  154.6732 C   0  0  0  0  0  0  0  0  0  0  0  0
  151.0076  138.2734  154.0092 C   0  0  0  0  0  0  0  0  0  0  0  0
  150.3380  137.2919  154.9917 C   0  0  0  0  0  0  0  0  0  0  0  0
  149.5687  136.2700  154.2909 N   0  0  0  0  0  0  0  0  0  0  0  0
  148.9449  135.2354  154.8751 C   0  0  0  0  0  0  0  0  0  0  0  0
  148.9686  135.0336  156.0899 O   0  0  0  0  0  0  0  0  0  0  0  0
  148.1793  134.2836  153.9411 C   0  0  0  0  0  0  0  0  0  0  0  0
  147.5281  133.1125  154.7143 C   0  0  0  0  0  0  0  0  0  0  0  0
  148.1296  131.8168  154.1551 C   0  0  0  0  0  0  0  0  0  0  0  0
  149.4304  132.2365  153.4769 C   0  0  0  0  0  0  0  0  0  0  0  0
  149.1152  133.6207  152.9121 C   0  0  0  0  0  0  0  0  0  0  0  0
  150.5013  140.3500  155.1880 N   0  0  0  0  0  0  0  0  0  0  0  0
  150.7391  141.6129  155.8733 C   0  0  0  0  0  0  0  0  0  0  0  0
  150.4074  141.4909  157.3665 C   0  0  0  0  0  0  0  0  0  0  0  0
  151.0879  142.5659  158.1910 C   0  0  0  0  0  0  0  0  0  0  0  0
  152.3167  142.3156  158.8359 C   0  0  0  0  0  0  0  0  0  0  0  0
  152.9056  143.3446  159.5957 C   0  0  0  0  0  0  0  0  0  0  0  0
  152.2380  144.5830  159.6789 C   0  0  0  0  0  0  0  0  0  0  0  0
  151.0611  144.8339  159.0657 N   0  0  0  0  0  0  0  0  0  0  0  0
  150.5035  143.8417  158.3389 C   0  0  0  0  0  0  0  0  0  0  0  0
  150.3141  138.5269  153.2068 H   0  0  0  0  0  0  0  0  0  0  0  0
  151.8682  137.7950  153.5393 H   0  0  0  0  0  0  0  0  0  0  0  0
  151.0826  136.8211  155.6359 H   0  0  0  0  0  0  0  0  0  0  0  0
  149.6507  137.8254  155.6493 H   0  0  0  0  0  0  0  0  0  0  0  0
  149.4977  136.3608  153.2877 H   0  0  0  0  0  0  0  0  0  0  0  0
  147.4116  134.8501  153.4113 H   0  0  0  0  0  0  0  0  0  0  0  0
  147.7237  133.1747  155.7865 H   0  0  0  0  0  0  0  0  0  0  0  0
  146.4440  133.1151  154.5969 H   0  0  0  0  0  0  0  0  0  0  0  0
  148.2859  131.0610  154.9256 H   0  0  0  0  0  0  0  0  0  0  0  0
  147.4534  131.3936  153.4110 H   0  0  0  0  0  0  0  0  0  0  0  0
  150.2282  132.3092  154.2171 H   0  0  0  0  0  0  0  0  0  0  0  0
  149.7502  131.5318  152.7090 H   0  0  0  0  0  0  0  0  0  0  0  0
  148.5915  133.5160  151.9611 H   0  0  0  0  0  0  0  0  0  0  0  0
  150.0223  134.1941  152.7143 H   0  0  0  0  0  0  0  0  0  0  0  0
  149.5431  140.0422  155.1039 H   0  0  0  0  0  0  0  0  0  0  0  0
  151.7836  141.9021  155.7462 H   0  0  0  0  0  0  0  0  0  0  0  0
  150.1292  142.3930  155.4147 H   0  0  0  0  0  0  0  0  0  0  0  0
  149.3291  141.5557  157.5181 H   0  0  0  0  0  0  0  0  0  0  0  0
  150.7136  140.5125  157.7398 H   0  0  0  0  0  0  0  0  0  0  0  0
  152.7989  141.3526  158.7532 H   0  0  0  0  0  0  0  0  0  0  0  0
  153.8456  143.1887  160.1039 H   0  0  0  0  0  0  0  0  0  0  0  0
  152.6601  145.3934  160.2545 H   0  0  0  0  0  0  0  0  0  0  0  0
  149.5614  144.0728  157.8637 H   0  0  0  0  0  0  0  0  0  0  0  0
  1  2  2  0  0  0  0
  2  3  1  0  0  0  0
  2 13  1  0  0  0  0
  3  4  1  0  0  0  0
  3 22  1  0  0  0  0
  3 23  1  0  0  0  0
  4  5  1  0  0  0  0
  4 24  1  0  0  0  0
  4 25  1  0  0  0  0
  5  6  1  0  0  0  0
  5 26  1  0  0  0  0
  6  7  2  0  0  0  0
  6  8  1  0  0  0  0
  8 12  1  0  0  0  0
  8  9  1  0  0  0  0
  8 27  1  0  0  0  0
  9 10  1  0  0  0  0
  9 28  1  0  0  0  0
  9 29  1  0  0  0  0
 10 11  1  0  0  0  0
 10 30  1  0  0  0  0
 10 31  1  0  0  0  0
 11 12  1  0  0  0  0
 11 32  1  0  0  0  0
 11 33  1  0  0  0  0
 12 34  1  0  0  0  0
 12 35  1  0  0  0  0
 13 14  1  0  0  0  0
 13 36  1  0  0  0  0
 14 15  1  0  0  0  0
 14 37  1  0  0  0  0
 14 38  1  0  0  0  0
 15 16  1  0  0  0  0
 15 39  1  0  0  0  0
 15 40  1  0  0  0  0
 16 21  1  0  0  0  0
 16 17  2  0  0  0  0
 17 18  1  0  0  0  0
 17 41  1  0  0  0  0
 18 19  2  0  0  0  0
 18 42  1  0  0  0  0
 19 20  1  0  0  0  0
 19 43  1  0  0  0  0
 20 21  2  0  0  0  0
 21 44  1  0  0  0  0
M  END
> <s_m_source_file>
AV-unprocessed.smi

> <i_m_source_file_index>
1454

> <i_lp_mmshare_version>
43012

> <i_f3d_flags>
0

> <s_epik_input>
W2NIXTFuW2NIXVtjSF1bY0hdYzFbQ0gyXVtDSDJdW05IXUMoPU8pW0NIMl1bQ0gyXVtOSF1DKD1PKVtDSF0yW0NIMl1bQ0gyXVtDSDJdW0NIMl0y

> <s_epik_cmdline>
J2VwaWtfcHl0aG9uJywgJy1waCcsICc3LjAnLCAnLXRuJywgJzgnLCAnLW1hJywgJzIwMCcsICctbWV0YWxfYmluZGluZycsICctaW1hZScsICc8aW5maWxlLm1hZT4nLCAnLW9tYWUnLCAnPG91dGZpbGUubWFlPic=

> <r_epik_Ionization_Penalty>
0.013238

> <r_epik_Ionization_Penalty_Charging>
0

> <r_epik_Ionization_Penalty_Neutral>
0.013238

> <r_epik_State_Penalty>
0.0102918

> <r_epik_Charging_Adjusted_Penalty>
0.0102918

> <i_epik_Tot_Q>
0

> <i_epik_Tot_abs_Q>
0

> <r_epik_Metal_State_Penalty>
0.0100665

> <b_epik_Metal_Only>
0

> <s_lp_Force_Field>
OPLS_2005

> <r_lp_Energy>
20.9977

> <b_lp_Chiralities_Consistent>
1

> <s_lp_Variant>
AV-unprocessed.smi:1454-1

> <Gold.Version>
5.8.1

> <Gold.Id.Protein>
6NUR|6NUR_protein|mol2

> <Gold.PLP.Fitness>
49.3707

> <Gold.PLP.PLP>
-40.9715

> <Gold.PLP.part.hbond>
-3.0000

> <Gold.PLP.part.metal>
0.0000

> <Gold.PLP.part.buried>
-5.5438

> <Gold.PLP.part.nonpolar>
-32.3921

> <Gold.PLP.part.repulsive>
0.2987

> <Gold.PLP.ligand.clash>
0.0000

> <Gold.PLP.ligand.torsion>
0.5766

> <Gold.PLP.Chemscore.Hbond>
2.0000

> <Gold.PLP.Chemscore.CHOScore>
1.1459

> <Gold.PLP.Chemscore.Metal>
0.0000

> <Gold.Chemscore.Hbonds>
donor molecule, donor type, donor heavy atom, donor atom, acceptor molecule, acceptor atom, score
      L1  H     5    26       P1  7948  0.93
      P1  H  7997  8008       L1     1  0.50
      L1  C    21    44       P1  8028  0.80
      L1  C    21    44       P1  8029  0.32

> <Gold.PLP.Chemscore.Internal.Correction>
0.1147

> <Gold.Rescore>
     Score         DG    S(hbond)    S(metal)    S(lipo)     H(rot)  DE(clash)    DE(int)     intcor
     17.02     -17.85       1.90        0.00      97.41       2.10       0.13       0.69       ----

> <Gold.Chemscore.Fitness>
17.0210

> <Gold.Chemscore.DG>
-17.8473

> <Gold.Chemscore.ZeroCoef>
-5.4800

> <Gold.Chemscore.Hbond>
1.8970

> <Gold.Chemscore.Metal>
0.0000

> <Gold.Chemscore.Lipo>
97.4139

> <Gold.Chemscore.Internal_Hbond>
0.0000

> <Gold.Chemscore.DEClash>
0.1343

> <Gold.Chemscore.DEInternal>
0.6920

> <Gold.Chemscore.Rot>
2.0961

> <Gold.Chemscore.Internal.Correction>
   9.000000E+99

> <Gold.Chemscore.Hbonds>
donor molecule, donor type, donor heavy atom, donor atom, acceptor molecule, acceptor atom, score
      L1  H     5    26       P1  7948  0.49
      P1  H  7997  8008       L1     1  0.48

> <Gold.Chemscore.Hbond.Weighted>
-6.3359

> <Gold.Chemscore.Metal.Weighted>
-0.0000

> <Gold.Chemscore.Lipo.Weighted>
-11.3974

> <Gold.Chemscore.Internal_Hbond.Weighted>
0.0000

> <Gold.Chemscore.DEClash.Weighted>
0.1343

> <Gold.Chemscore.DEInternal.Weighted>
0.6920

> <Gold.Chemscore.Rot.Weighted>
5.3660

> <Gold.Chemscore.Internal.Correction.Weighted>
   9.000000E+99

> <Gold.Protein.RotatedTorsions>
[ 6907 6896 6895 6894 ] final -104.93 input  -60.11 | X-H torsion
[ 7974 7965 7964 7962 ] final -150.29 input  175.53 | X-H torsion
[ 8008 7997 7996 7995 ] final  -32.75 input   59.86 | X-H torsion
[ 10167 10162 10161 10158 ] final  -72.69 input  -65.29 | X-H torsion
[ 10718 10713 10712 10709 ] final   11.71 input   66.30 | X-H torsion
[ 10763 10752 10751 10750 ] final  165.06 input  -60.55 | X-H torsion
[ 11005 11000 10999 10996 ] final  -10.03 input  -57.11 | X-H torsion

> <Gold.Protein.ActiveResidues>
 VAL166  LYS551  ARG553  GLY616  TRP617  ASP618  TYR619  PRO620  LYS621  CYS622 
 ASP623  PHE694  ASN695  SER759  ASP760  ASP761  ALA762  ILE779  LEU786  VAL792 
 PHE793  MET794  SER795  GLU796  ALA797  LYS798  CYS799  TRP800  GLU811  SER814 

> <Gold.Protein.RotatedAtoms>
  150.7311  134.0203  159.3698 H   0  0  0  0  0  0  0  0  0  0  0  0  # atno 6907 bound_to 6896
  151.8167  135.0662  160.0429 H   0  0  0  0  0  0  0  0  0  0  0  0  # atno 6908 bound_to 6896
  152.3033  133.5641  159.5669 H   0  0  0  0  0  0  0  0  0  0  0  0  # atno 6909 bound_to 6896
  144.7916  140.4951  143.5769 H   0  0  0  0  0  0  0  0  0  0  0  0  # atno 7974 bound_to 7965
  154.4170  140.1729  156.1776 H   0  0  0  0  0  0  0  0  0  0  0  0  # atno 8008 bound_to 7997
  155.9708  140.3386  155.6550 H   0  0  0  0  0  0  0  0  0  0  0  0  # atno 8009 bound_to 7997
  155.6627  140.0703  157.2539 H   0  0  0  0  0  0  0  0  0  0  0  0  # atno 8010 bound_to 7997
  140.5172  143.2336  151.7493 H   0  0  0  0  0  0  0  0  0  0  0  0  # atno 10167 bound_to 10162
  156.9995  130.6074  149.5695 H   0  0  0  0  0  0  0  0  0  0  0  0  # atno 10718 bound_to 10713
  154.3183  135.2756  155.2532 H   0  0  0  0  0  0  0  0  0  0  0  0  # atno 10763 bound_to 10752
  154.4897  135.5837  153.6453 H   0  0  0  0  0  0  0  0  0  0  0  0  # atno 10764 bound_to 10752
  152.9879  135.6131  154.3366 H   0  0  0  0  0  0  0  0  0  0  0  0  # atno 10765 bound_to 10752
  140.7404  133.8675  155.8963 H   0  0  0  0  0  0  0  0  0  0  0  0  # atno 11005 bound_to 11000
  145.5780  139.1487  143.3251 LP  0  0  0  0  0  0  0  0  0  0  0  0  # atno 17320 bound_to 7965
  146.2170  140.5910  142.9034 LP  0  0  0  0  0  0  0  0  0  0  0  0  # atno 17321 bound_to 7965
  139.4912  144.4307  151.9875 LP  0  0  0  0  0  0  0  0  0  0  0  0  # atno 17342 bound_to 10162
  140.3402  144.3213  150.5969 LP  0  0  0  0  0  0  0  0  0  0  0  0  # atno 17343 bound_to 10162
  156.0176  130.5271  150.8182 LP  0  0  0  0  0  0  0  0  0  0  0  0  # atno 17370 bound_to 10713
  157.5400  131.0940  150.9840 LP  0  0  0  0  0  0  0  0  0  0  0  0  # atno 17371 bound_to 10713
  140.9842  134.1365  157.4467 LP  0  0  0  0  0  0  0  0  0  0  0  0  # atno 17394 bound_to 11000
  139.8807  135.0020  156.6101 LP  0  0  0  0  0  0  0  0  0  0  0  0  # atno 17395 bound_to 11000

$$$$
