AV-unprocessed.smi:81|AV-procd|sdf|789|dock4
  -GOLD-   2262017163D 1   1.00000     0.00000
 Structure written by MMmdl.
 64 67  0  0  0  0  0  0  0  0  2 V2000
  141.8876  135.6105  153.6460 C   0  0  0  0  0  0  0  0  0  0  0  0
  142.6026  136.9406  153.9362 C   0  0  0  0  0  0  0  0  0  0  0  0
  141.7633  138.1239  153.4334 C   0  0  0  0  0  0  0  0  0  0  0  0
  144.0165  136.9811  153.3138 C   0  0  0  0  0  0  0  0  0  0  0  0
  144.7629  135.7259  153.4429 N   0  0  0  0  0  0  0  0  0  0  0  0
  145.9195  135.8213  154.1460 C   0  0  0  0  0  0  0  0  0  0  0  0
  146.5222  134.6988  154.6193 N   0  0  0  0  0  0  0  0  0  0  0  0
  147.6656  134.7919  155.3046 C   0  0  0  0  0  0  0  0  0  0  0  0
  148.3621  135.8855  155.6214 N   0  0  0  0  0  0  0  0  0  0  0  0
  147.7627  137.0127  155.1415 C   0  0  0  0  0  0  0  0  0  0  0  0
  146.5527  137.0683  154.3955 C   0  0  0  0  0  0  0  0  0  0  0  0
  146.2568  138.3839  154.0630 N   0  0  0  0  0  0  0  0  0  0  0  0
  147.2383  139.0691  154.5835 C   0  0  0  0  0  0  0  0  0  0  0  0
  148.1793  138.3269  155.2619 N   0  0  0  0  0  0  0  0  0  0  0  0
  149.3675  138.8300  155.9340 C   0  0  0  0  0  0  0  0  0  0  0  0
  150.5520  139.1457  154.9787 C   0  0  2  0  0  0  0  0  0  0  0  0
  150.0600  139.7342  153.7895 O   0  0  0  0  0  0  0  0  0  0  0  0
  151.3948  137.9294  154.6147 C   0  0  0  0  0  0  0  0  0  0  0  0
  152.3382  137.8130  155.8077 C   0  0  0  0  0  0  0  0  0  0  0  0
  152.5323  139.1451  156.2738 O   0  0  0  0  0  0  0  0  0  0  0  0
  151.6433  140.0365  155.6048 C   0  0  2  0  0  0  0  0  0  0  0  0
  151.1711  141.1474  156.5546 C   0  0  0  0  0  0  0  0  0  0  0  0
  144.7976  134.8630  152.2530 C   0  0  2  0  0  0  0  0  0  0  0  0
  144.6375  135.6276  150.9215 C   0  0  0  0  0  0  0  0  0  0  0  0
  144.7680  134.6752  149.7220 C   0  0  0  0  0  0  0  0  0  0  0  0
  143.7813  133.5703  149.8105 N   0  3  1  0  0  0  0  0  0  0  0  0
  143.7927  132.7072  148.6101 C   0  0  0  0  0  0  0  0  0  0  0  0
  143.9266  132.7938  151.0668 C   0  0  0  0  0  0  0  0  0  0  0  0
  143.7803  133.7021  152.2989 C   0  0  0  0  0  0  0  0  0  0  0  0
  141.7749  135.4469  152.5737 H   0  0  0  0  0  0  0  0  0  0  0  0
  140.8926  135.5948  154.0914 H   0  0  0  0  0  0  0  0  0  0  0  0
  142.4378  134.7634  154.0552 H   0  0  0  0  0  0  0  0  0  0  0  0
  142.6841  137.0497  155.0181 H   0  0  0  0  0  0  0  0  0  0  0  0
  141.6301  138.0853  152.3519 H   0  0  0  0  0  0  0  0  0  0  0  0
  142.2399  139.0741  153.6768 H   0  0  0  0  0  0  0  0  0  0  0  0
  140.7737  138.1275  153.8909 H   0  0  0  0  0  0  0  0  0  0  0  0
  143.9324  137.2342  152.2565 H   0  0  0  0  0  0  0  0  0  0  0  0
  144.5923  137.7883  153.7688 H   0  0  0  0  0  0  0  0  0  0  0  0
  148.0827  133.8567  155.6481 H   0  0  0  0  0  0  0  0  0  0  0  0
  147.2994  140.1441  154.4936 H   0  0  0  0  0  0  0  0  0  0  0  0
  149.0803  139.7235  156.4895 H   0  0  0  0  0  0  0  0  0  0  0  0
  149.6670  138.0939  156.6809 H   0  0  0  0  0  0  0  0  0  0  0  0
  149.1569  139.4786  153.6799 H   0  0  0  0  0  0  0  0  0  0  0  0
  150.8289  137.0192  154.4235 H   0  0  0  0  0  0  0  0  0  0  0  0
  151.9855  138.1333  153.7198 H   0  0  0  0  0  0  0  0  0  0  0  0
  151.8786  137.2272  156.6045 H   0  0  0  0  0  0  0  0  0  0  0  0
  153.2848  137.3407  155.5447 H   0  0  0  0  0  0  0  0  0  0  0  0
  152.2251  140.4943  154.8025 H   0  0  0  0  0  0  0  0  0  0  0  0
  150.4664  141.8139  156.0570 H   0  0  0  0  0  0  0  0  0  0  0  0
  152.0145  141.7495  156.8922 H   0  0  0  0  0  0  0  0  0  0  0  0
  150.6858  140.7418  157.4424 H   0  0  0  0  0  0  0  0  0  0  0  0
  145.7946  134.4206  152.2404 H   0  0  0  0  0  0  0  0  0  0  0  0
  143.6660  136.1213  150.8734 H   0  0  0  0  0  0  0  0  0  0  0  0
  145.3922  136.4112  150.8472 H   0  0  0  0  0  0  0  0  0  0  0  0
  144.6096  135.2325  148.7977 H   0  0  0  0  0  0  0  0  0  0  0  0
  145.7777  134.2639  149.6758 H   0  0  0  0  0  0  0  0  0  0  0  0
  144.7517  132.1992  148.5013 H   0  0  0  0  0  0  0  0  0  0  0  0
  143.6132  133.2965  147.7104 H   0  0  0  0  0  0  0  0  0  0  0  0
  143.0094  131.9511  148.6725 H   0  0  0  0  0  0  0  0  0  0  0  0
  143.1681  132.0107  151.1020 H   0  0  0  0  0  0  0  0  0  0  0  0
  144.8975  132.2958  151.0801 H   0  0  0  0  0  0  0  0  0  0  0  0
  143.9187  133.1073  153.2020 H   0  0  0  0  0  0  0  0  0  0  0  0
  142.7614  134.0884  152.3339 H   0  0  0  0  0  0  0  0  0  0  0  0
  142.8684  134.0014  149.8433 H   0  0  0  0  0  0  0  0  0  0  0  0
  1  2  1  0  0  0  0
  1 30  1  0  0  0  0
  1 31  1  0  0  0  0
  1 32  1  0  0  0  0
  2  3  1  0  0  0  0
  2  4  1  0  0  0  0
  2 33  1  0  0  0  0
  3 34  1  0  0  0  0
  3 35  1  0  0  0  0
  3 36  1  0  0  0  0
  4  5  1  0  0  0  0
  4 37  1  0  0  0  0
  4 38  1  0  0  0  0
  5  6  1  0  0  0  0
  5 23  1  0  0  0  0
  6 11  1  0  0  0  0
  6  7  2  0  0  0  0
  7  8  1  0  0  0  0
  8  9  2  0  0  0  0
  8 39  1  0  0  0  0
  9 10  1  0  0  0  0
 10 14  1  0  0  0  0
 10 11  2  0  0  0  0
 11 12  1  0  0  0  0
 12 13  2  0  0  0  0
 13 14  1  0  0  0  0
 13 40  1  0  0  0  0
 14 15  1  0  0  0  0
 15 16  1  0  0  0  0
 15 41  1  0  0  0  0
 15 42  1  0  0  0  0
 16 21  1  0  0  0  0
 16 17  1  0  0  0  0
 16 18  1  0  0  0  0
 17 43  1  0  0  0  0
 18 19  1  0  0  0  0
 18 44  1  0  0  0  0
 18 45  1  0  0  0  0
 19 20  1  0  0  0  0
 19 46  1  0  0  0  0
 19 47  1  0  0  0  0
 20 21  1  0  0  0  0
 21 22  1  0  0  0  0
 21 48  1  0  0  0  0
 22 49  1  0  0  0  0
 22 50  1  0  0  0  0
 22 51  1  0  0  0  0
 23 29  1  0  0  0  0
 23 24  1  0  0  0  0
 23 52  1  0  0  0  0
 24 25  1  0  0  0  0
 24 53  1  0  0  0  0
 24 54  1  0  0  0  0
 25 26  1  0  0  0  0
 25 55  1  0  0  0  0
 25 56  1  0  0  0  0
 26 27  1  0  0  0  0
 26 28  1  0  0  0  0
 26 64  1  0  0  0  0
 27 57  1  0  0  0  0
 27 58  1  0  0  0  0
 27 59  1  0  0  0  0
 28 29  1  0  0  0  0
 28 60  1  0  0  0  0
 28 61  1  0  0  0  0
 29 62  1  0  0  0  0
 29 63  1  0  0  0  0
M  CHG  1  26   1
M  END
> <s_m_source_file>
AV-unprocessed.smi

> <i_m_source_file_index>
81

> <i_lp_mmshare_version>
43012

> <i_f3d_flags>
0

> <s_epik_input>
W0NIMl0xW0NIMl1OKFtDSDNdKVtDSDJdW0NIMl1bQ0hdMU4oW0NIMl1bQ0hdKFtDSDNdKVtDSDNdKWMobltjSF1uMiljKGMyMyluW2NIXW4zW0NIMl1bQ0BAXTQoW09IXSlbQ0gyXVtDSDJdT1tDQEhdNFtDSDNd

> <s_epik_cmdline>
J2VwaWtfcHl0aG9uJywgJy1waCcsICc3LjAnLCAnLXRuJywgJzgnLCAnLW1hJywgJzIwMCcsICctbWV0YWxfYmluZGluZycsICctaW1hZScsICc8aW5maWxlLm1hZT4nLCAnLW9tYWUnLCAnPG91dGZpbGUubWFlPic=

> <r_lp_tautomer_probability>
1

> <r_epik_Ionization_Penalty>
0.00272708

> <r_epik_Ionization_Penalty_Charging>
0.00158983

> <r_epik_Ionization_Penalty_Neutral>
0.00113725

> <r_epik_State_Penalty>
-0

> <r_epik_Charging_Adjusted_Penalty>
0.00158983

> <i_epik_Tot_Q>
1

> <i_epik_Tot_abs_Q>
1

> <r_epik_Metal_State_Penalty>
-0

> <b_epik_Metal_Only>
0

> <s_lp_Force_Field>
OPLS_2005

> <r_lp_Energy>
46.4423

> <b_lp_Chiralities_Consistent>
1

> <s_lp_Variant>
AV-unprocessed.smi:81-4

> <Gold.Version>
5.8.1

> <Gold.Id.Protein>
6NUR|6NUR_protein|mol2

> <Gold.PLP.Fitness>
44.5847

> <Gold.PLP.PLP>
-38.5536

> <Gold.PLP.part.hbond>
-3.9895

> <Gold.PLP.part.metal>
0.0000

> <Gold.PLP.part.buried>
-0.6718

> <Gold.PLP.part.nonpolar>
-34.4414

> <Gold.PLP.part.repulsive>
0.3772

> <Gold.PLP.ligand.clash>
0.0922

> <Gold.PLP.ligand.torsion>
2.8445

> <Gold.PLP.Chemscore.Hbond>
3.6480

> <Gold.PLP.Chemscore.CHOScore>
0.0000

> <Gold.PLP.Chemscore.Metal>
0.0000

> <Gold.Chemscore.Hbonds>
donor molecule, donor type, donor heavy atom, donor atom, acceptor molecule, acceptor atom, score
      L1  H    26    64       P1 10186  2.00
      P1  H  7989  7998       L1    17  0.72
      P1  H  7997  8008       L1    20  0.94

> <Gold.PLP.Chemscore.Internal.Correction>
0.8684

> <Gold.Rescore>
     Score         DG    S(hbond)    S(metal)    S(lipo)     H(rot)  DE(clash)    DE(int)     intcor
     10.03     -16.67       1.92        0.00      97.20       2.58       1.52       5.12       ----

> <Gold.Chemscore.Fitness>
10.0305

> <Gold.Chemscore.DG>
-16.6716

> <Gold.Chemscore.ZeroCoef>
-5.4800

> <Gold.Chemscore.Hbond>
1.9216

> <Gold.Chemscore.Metal>
0.0000

> <Gold.Chemscore.Lipo>
97.1950

> <Gold.Chemscore.Internal_Hbond>
0.0000

> <Gold.Chemscore.DEClash>
1.5170

> <Gold.Chemscore.DEInternal>
5.1241

> <Gold.Chemscore.Rot>
2.5774

> <Gold.Chemscore.Internal.Correction>
   9.000000E+99

> <Gold.Chemscore.Hbonds>
donor molecule, donor type, donor heavy atom, donor atom, acceptor molecule, acceptor atom, score
      L1  H    26    64       P1 10186  0.99
      P1  H  7989  7998       L1    17  0.10
      P1  H  7997  8008       L1    20  0.50

> <Gold.Chemscore.Hbond.Weighted>
-6.4181

> <Gold.Chemscore.Metal.Weighted>
-0.0000

> <Gold.Chemscore.Lipo.Weighted>
-11.3718

> <Gold.Chemscore.Internal_Hbond.Weighted>
0.0000

> <Gold.Chemscore.DEClash.Weighted>
1.5170

> <Gold.Chemscore.DEInternal.Weighted>
5.1241

> <Gold.Chemscore.Rot.Weighted>
6.5982

> <Gold.Chemscore.Internal.Correction.Weighted>
   9.000000E+99

> <Gold.Protein.RotatedTorsions>
[ 6907 6896 6895 6894 ] final   66.48 input  -60.11 | X-H torsion
[ 7974 7965 7964 7962 ] final   41.07 input  175.53 | X-H torsion
[ 8008 7997 7996 7995 ] final  -42.70 input   59.86 | X-H torsion
[ 10167 10162 10161 10158 ] final   18.08 input  -65.29 | X-H torsion
[ 10718 10713 10712 10709 ] final   44.30 input   66.30 | X-H torsion
[ 10763 10752 10751 10750 ] final  -84.40 input  -60.55 | X-H torsion
[ 11005 11000 10999 10996 ] final  -19.55 input  -57.11 | X-H torsion

> <Gold.Protein.ActiveResidues>
 VAL166  LYS551  ARG553  GLY616  TRP617  ASP618  TYR619  PRO620  LYS621  CYS622 
 ASP623  PHE694  ASN695  SER759  ASP760  ASP761  ALA762  ILE779  LEU786  VAL792 
 PHE793  MET794  SER795  GLU796  ALA797  LYS798  CYS799  TRP800  GLU811  SER814 

> <Gold.Protein.RotatedAtoms>
  152.4483  134.5447  159.9849 H   0  0  0  0  0  0  0  0  0  0  0  0  # atno 6907 bound_to 6896
  151.5526  133.3409  159.2964 H   0  0  0  0  0  0  0  0  0  0  0  0  # atno 6908 bound_to 6896
  150.8405  134.7728  159.6992 H   0  0  0  0  0  0  0  0  0  0  0  0  # atno 6909 bound_to 6896
  146.0854  139.5459  142.9510 H   0  0  0  0  0  0  0  0  0  0  0  0  # atno 7974 bound_to 7965
  154.3998  140.1467  156.3397 H   0  0  0  0  0  0  0  0  0  0  0  0  # atno 8008 bound_to 7997
  155.8367  140.3463  155.5585 H   0  0  0  0  0  0  0  0  0  0  0  0  # atno 8009 bound_to 7997
  155.8130  140.0887  157.1883 H   0  0  0  0  0  0  0  0  0  0  0  0  # atno 8010 bound_to 7997
  140.5680  143.9215  150.6691 H   0  0  0  0  0  0  0  0  0  0  0  0  # atno 10167 bound_to 10162
  157.4253  130.7993  149.7553 H   0  0  0  0  0  0  0  0  0  0  0  0  # atno 10718 bound_to 10713
  154.5990  135.5522  153.7355 H   0  0  0  0  0  0  0  0  0  0  0  0  # atno 10763 bound_to 10752
  153.0147  135.6362  154.1741 H   0  0  0  0  0  0  0  0  0  0  0  0  # atno 10764 bound_to 10752
  154.1681  135.2893  155.3069 H   0  0  0  0  0  0  0  0  0  0  0  0  # atno 10765 bound_to 10752
  140.8378  133.7949  155.9828 H   0  0  0  0  0  0  0  0  0  0  0  0  # atno 11005 bound_to 11000
  145.6140  141.0334  143.1951 LP  0  0  0  0  0  0  0  0  0  0  0  0  # atno 17320 bound_to 7965
  144.7322  139.7692  143.7343 LP  0  0  0  0  0  0  0  0  0  0  0  0  # atno 17321 bound_to 7965
  140.2683  143.3474  152.1261 LP  0  0  0  0  0  0  0  0  0  0  0  0  # atno 17342 bound_to 10162
  139.5102  144.6881  151.5834 LP  0  0  0  0  0  0  0  0  0  0  0  0  # atno 17343 bound_to 10162
  155.9894  130.3952  150.3073 LP  0  0  0  0  0  0  0  0  0  0  0  0  # atno 17370 bound_to 10713
  157.1224  131.0250  151.3003 LP  0  0  0  0  0  0  0  0  0  0  0  0  # atno 17371 bound_to 10713
  140.8928  134.2474  157.5085 LP  0  0  0  0  0  0  0  0  0  0  0  0  # atno 17394 bound_to 11000
  139.8704  134.9670  156.4581 LP  0  0  0  0  0  0  0  0  0  0  0  0  # atno 17395 bound_to 11000

$$$$
