AV-unprocessed.smi:1047|AV-procd|sdf|4571|dock1
  -GOLD-   22720 3 23D 1   1.00000     0.00000
 Structure written by MMmdl.
 56 58  0  0  0  0  0  0  0  0  2 V2000
  144.7017  133.4121  162.1959 C   0  0  0  0  0  0  0  0  0  0  0  0
  146.2219  133.1963  162.1850 C   0  0  0  0  0  0  0  0  0  0  0  0
  147.0097  134.3751  161.8280 N   0  0  0  0  0  0  0  0  0  0  0  0
  146.7570  135.4725  162.7551 C   0  0  0  0  0  0  0  0  0  0  0  0
  147.5736  136.7255  162.3973 C   0  0  0  0  0  0  0  0  0  0  0  0
  147.2873  137.1109  161.0567 O   0  0  0  0  0  0  0  0  0  0  0  0
  147.5756  136.0854  160.1092 C   0  0  2  0  0  0  0  0  0  0  0  0
  147.2401  136.6163  158.7090 C   0  0  0  0  0  0  0  0  0  0  0  0
  147.8402  137.9465  158.4884 N   0  3  0  0  0  0  0  0  0  0  0  0
  149.1678  137.9082  157.8445 C   0  0  0  0  0  0  0  0  0  0  0  0
  150.2933  138.1496  158.8675 C   0  0  1  0  0  0  0  0  0  0  0  0
  150.5351  136.9450  159.5691 O   0  0  0  0  0  0  0  0  0  0  0  0
  151.6127  138.6403  158.2321 C   0  0  0  0  0  0  0  0  0  0  0  0
  151.5432  140.0017  157.7254 N   0  0  0  0  0  0  0  0  0  0  0  0
  151.2764  140.3829  156.4609 C   0  0  0  0  0  0  0  0  0  0  0  0
  151.2489  141.6881  156.2108 N   0  0  0  0  0  0  0  0  0  0  0  0
  151.5461  142.2172  157.4548 C   0  0  0  0  0  0  0  0  0  0  0  0
  151.6707  143.5597  157.8737 C   0  0  0  0  0  0  0  0  0  0  0  0
  151.9848  143.8744  159.2148 C   0  0  0  0  0  0  0  0  0  0  0  0
  152.1077  145.3324  159.6216 C   0  0  0  0  0  0  0  0  0  0  0  0
  152.1814  142.8365  160.1608 C   0  0  0  0  0  0  0  0  0  0  0  0
  152.5252  143.1515  161.6061 C   0  0  0  0  0  0  0  0  0  0  0  0
  152.0596  141.4897  159.7597 C   0  0  0  0  0  0  0  0  0  0  0  0
  151.7425  141.1891  158.4229 C   0  0  0  0  0  0  0  0  0  0  0  0
  146.7472  134.8347  160.4664 C   0  0  0  0  0  0  0  0  0  0  0  0
  144.1824  132.4679  162.3600 H   0  0  0  0  0  0  0  0  0  0  0  0
  144.3553  133.8183  161.2452 H   0  0  0  0  0  0  0  0  0  0  0  0
  144.3911  134.0922  162.9887 H   0  0  0  0  0  0  0  0  0  0  0  0
  146.5427  132.8141  163.1553 H   0  0  0  0  0  0  0  0  0  0  0  0
  146.4329  132.4029  161.4666 H   0  0  0  0  0  0  0  0  0  0  0  0
  145.6947  135.7226  162.7519 H   0  0  0  0  0  0  0  0  0  0  0  0
  147.0009  135.1628  163.7720 H   0  0  0  0  0  0  0  0  0  0  0  0
  147.3205  137.5476  163.0669 H   0  0  0  0  0  0  0  0  0  0  0  0
  148.6424  136.5367  162.5101 H   0  0  0  0  0  0  0  0  0  0  0  0
  148.6381  135.8384  160.1555 H   0  0  0  0  0  0  0  0  0  0  0  0
  147.6255  135.9306  157.9531 H   0  0  0  0  0  0  0  0  0  0  0  0
  146.1589  136.6715  158.5731 H   0  0  0  0  0  0  0  0  0  0  0  0
  147.2151  138.4869  157.9072 H   0  0  0  0  0  0  0  0  0  0  0  0
  149.2999  136.9507  157.3382 H   0  0  0  0  0  0  0  0  0  0  0  0
  149.1974  138.6836  157.0779 H   0  0  0  0  0  0  0  0  0  0  0  0
  149.9658  138.8973  159.5912 H   0  0  0  0  0  0  0  0  0  0  0  0
  150.4482  137.1122  160.4955 H   0  0  0  0  0  0  0  0  0  0  0  0
  152.4190  138.5884  158.9647 H   0  0  0  0  0  0  0  0  0  0  0  0
  151.9044  137.9818  157.4127 H   0  0  0  0  0  0  0  0  0  0  0  0
  151.0823  139.6602  155.6815 H   0  0  0  0  0  0  0  0  0  0  0  0
  151.5231  144.3502  157.1523 H   0  0  0  0  0  0  0  0  0  0  0  0
  153.0998  145.5354  160.0252 H   0  0  0  0  0  0  0  0  0  0  0  0
  151.3665  145.5798  160.3822 H   0  0  0  0  0  0  0  0  0  0  0  0
  151.9496  145.9978  158.7724 H   0  0  0  0  0  0  0  0  0  0  0  0
  152.5975  142.2435  162.2057 H   0  0  0  0  0  0  0  0  0  0  0  0
  151.7600  143.7865  162.0531 H   0  0  0  0  0  0  0  0  0  0  0  0
  153.4827  143.6691  161.6650 H   0  0  0  0  0  0  0  0  0  0  0  0
  152.2091  140.6915  160.4716 H   0  0  0  0  0  0  0  0  0  0  0  0
  146.9815  134.0459  159.7522 H   0  0  0  0  0  0  0  0  0  0  0  0
  145.6848  135.0553  160.3506 H   0  0  0  0  0  0  0  0  0  0  0  0
  147.9330  138.4125  159.3799 H   0  0  0  0  0  0  0  0  0  0  0  0
  1  2  1  0  0  0  0
  1 26  1  0  0  0  0
  1 27  1  0  0  0  0
  1 28  1  0  0  0  0
  2  3  1  0  0  0  0
  2 29  1  0  0  0  0
  2 30  1  0  0  0  0
  3 25  1  0  0  0  0
  3  4  1  0  0  0  0
  4  5  1  0  0  0  0
  4 31  1  0  0  0  0
  4 32  1  0  0  0  0
  5  6  1  0  0  0  0
  5 33  1  0  0  0  0
  5 34  1  0  0  0  0
  6  7  1  0  0  0  0
  7  8  1  0  0  0  0
  7 25  1  0  0  0  0
  7 35  1  0  0  0  0
  8  9  1  0  0  0  0
  8 36  1  0  0  0  0
  8 37  1  0  0  0  0
  9 10  1  0  0  0  0
  9 38  1  0  0  0  0
  9 56  1  0  0  0  0
 10 11  1  0  0  0  0
 10 39  1  0  0  0  0
 10 40  1  0  0  0  0
 11 12  1  0  0  0  0
 11 13  1  0  0  0  0
 11 41  1  0  0  0  0
 12 42  1  0  0  0  0
 13 14  1  0  0  0  0
 13 43  1  0  0  0  0
 13 44  1  0  0  0  0
 14 24  1  0  0  0  0
 14 15  1  0  0  0  0
 15 16  2  0  0  0  0
 15 45  1  0  0  0  0
 16 17  1  0  0  0  0
 17 24  2  0  0  0  0
 17 18  1  0  0  0  0
 18 19  2  0  0  0  0
 18 46  1  0  0  0  0
 19 20  1  0  0  0  0
 19 21  1  0  0  0  0
 20 47  1  0  0  0  0
 20 48  1  0  0  0  0
 20 49  1  0  0  0  0
 21 22  1  0  0  0  0
 21 23  2  0  0  0  0
 22 50  1  0  0  0  0
 22 51  1  0  0  0  0
 22 52  1  0  0  0  0
 23 24  1  0  0  0  0
 23 53  1  0  0  0  0
 25 54  1  0  0  0  0
 25 55  1  0  0  0  0
M  CHG  1   9   1
M  END
> <s_m_source_file>
AV-unprocessed.smi

> <i_m_source_file_index>
1047

> <i_lp_mmshare_version>
43012

> <i_f3d_flags>
0

> <s_epik_input>
W0NIM11bQ0gyXU4xW0NIMl1bQ0gyXU9bQ0BIXShbQ0gyXTEpW0NIMl1bTkhdW0NIMl1bQ0BIXShbT0hdKVtDSDJdbihbY0hdbjIpYyhjMjMpW2NIXWMoW0NIM10pYyhbY0hdMylbQ0gzXQ==

> <s_epik_cmdline>
J2VwaWtfcHl0aG9uJywgJy1waCcsICc3LjAnLCAnLXRuJywgJzgnLCAnLW1hJywgJzIwMCcsICctbWV0YWxfYmluZGluZycsICctaW1hZScsICc8aW5maWxlLm1hZT4nLCAnLW9tYWUnLCAnPG91dGZpbGUubWFlPic=

> <r_epik_Ionization_Penalty>
0.692425

> <r_epik_Ionization_Penalty_Charging>
0.0243549

> <r_epik_Ionization_Penalty_Neutral>
0.66807

> <r_epik_State_Penalty>
0.592789

> <r_epik_Charging_Adjusted_Penalty>
0.617144

> <i_epik_Tot_Q>
1

> <i_epik_Tot_abs_Q>
1

> <r_epik_Metal_State_Penalty>
0.508021

> <b_epik_Metal_Only>
0

> <s_lp_Force_Field>
OPLS_2005

> <r_lp_Energy>
28.1656

> <b_lp_Chiralities_Consistent>
1

> <s_lp_Variant>
AV-unprocessed.smi:1047-12

> <Gold.Version>
5.8.1

> <Gold.Id.Protein>
6NUR|6NUR_protein|mol2

> <Gold.PLP.Fitness>
54.9319

> <Gold.PLP.PLP>
-51.9314

> <Gold.PLP.part.hbond>
-3.0000

> <Gold.PLP.part.metal>
0.0000

> <Gold.PLP.part.buried>
-6.5583

> <Gold.PLP.part.nonpolar>
-45.3488

> <Gold.PLP.part.repulsive>
0.2273

> <Gold.PLP.ligand.clash>
0.0000

> <Gold.PLP.ligand.torsion>
1.1942

> <Gold.PLP.Chemscore.Hbond>
1.6585

> <Gold.PLP.Chemscore.CHOScore>
0.0000

> <Gold.PLP.Chemscore.Metal>
0.0000

> <Gold.Chemscore.Hbonds>
donor molecule, donor type, donor heavy atom, donor atom, acceptor molecule, acceptor atom, score
      P1  H  6896  6907       L1    12  0.75
      P1  H  6934  6947       L1     6  1.00

> <Gold.PLP.Chemscore.Internal.Correction>
0.4133

> <Gold.Rescore>
     Score         DG    S(hbond)    S(metal)    S(lipo)     H(rot)  DE(clash)    DE(int)     intcor
     18.94     -20.61       1.68        0.00     138.33       2.60       0.47       1.20       ----

> <Gold.Chemscore.Fitness>
18.9401

> <Gold.Chemscore.DG>
-20.6084

> <Gold.Chemscore.ZeroCoef>
-5.4800

> <Gold.Chemscore.Hbond>
1.6801

> <Gold.Chemscore.Metal>
0.0000

> <Gold.Chemscore.Lipo>
138.3344

> <Gold.Chemscore.Internal_Hbond>
0.0000

> <Gold.Chemscore.DEClash>
0.4680

> <Gold.Chemscore.DEInternal>
1.2003

> <Gold.Chemscore.Rot>
2.6049

> <Gold.Chemscore.Internal.Correction>
   9.000000E+99

> <Gold.Chemscore.Hbonds>
donor molecule, donor type, donor heavy atom, donor atom, acceptor molecule, acceptor atom, score
      P1  H  6896  6907       L1    12  0.09
      P1  H  6934  6947       L1     6  0.73

> <Gold.Chemscore.Hbond.Weighted>
-5.6117

> <Gold.Chemscore.Metal.Weighted>
-0.0000

> <Gold.Chemscore.Lipo.Weighted>
-16.1851

> <Gold.Chemscore.Internal_Hbond.Weighted>
0.0000

> <Gold.Chemscore.DEClash.Weighted>
0.4680

> <Gold.Chemscore.DEInternal.Weighted>
1.2003

> <Gold.Chemscore.Rot.Weighted>
6.6685

> <Gold.Chemscore.Internal.Correction.Weighted>
   9.000000E+99

> <Gold.Protein.RotatedTorsions>
[ 6907 6896 6895 6894 ] final  -40.47 input  -60.11 | X-H torsion
[ 7974 7965 7964 7962 ] final  107.92 input  175.53 | X-H torsion
[ 8008 7997 7996 7995 ] final   67.73 input   59.86 | X-H torsion
[ 10167 10162 10161 10158 ] final   95.21 input  -65.29 | X-H torsion
[ 10718 10713 10712 10709 ] final  -29.02 input   66.30 | X-H torsion
[ 10763 10752 10751 10750 ] final   90.21 input  -60.55 | X-H torsion
[ 11005 11000 10999 10996 ] final   96.08 input  -57.11 | X-H torsion

> <Gold.Protein.ActiveResidues>
 VAL166  LYS551  ARG553  GLY616  TRP617  ASP618  TYR619  PRO620  LYS621  CYS622 
 ASP623  PHE694  ASN695  SER759  ASP760  ASP761  ALA762  ILE779  LEU786  VAL792 
 PHE793  MET794  SER795  GLU796  ALA797  LYS798  CYS799  TRP800  GLU811  SER814 

> <Gold.Protein.RotatedAtoms>
  150.9781  134.9142  159.7827 H   0  0  0  0  0  0  0  0  0  0  0  0  # atno 6907 bound_to 6896
  152.5213  134.3448  159.9240 H   0  0  0  0  0  0  0  0  0  0  0  0  # atno 6908 bound_to 6896
  151.3456  133.3904  159.2710 H   0  0  0  0  0  0  0  0  0  0  0  0  # atno 6909 bound_to 6896
  145.2874  139.2612  143.3883 H   0  0  0  0  0  0  0  0  0  0  0  0  # atno 7974 bound_to 7965
  155.6974  140.3495  155.4918 H   0  0  0  0  0  0  0  0  0  0  0  0  # atno 8008 bound_to 7997
  155.9471  140.1112  157.1030 H   0  0  0  0  0  0  0  0  0  0  0  0  # atno 8009 bound_to 7997
  154.4114  140.1201  156.4990 H   0  0  0  0  0  0  0  0  0  0  0  0  # atno 8010 bound_to 7997
  139.8010  144.6814  150.9765 H   0  0  0  0  0  0  0  0  0  0  0  0  # atno 10167 bound_to 10162
  156.4178  130.4420  149.7205 H   0  0  0  0  0  0  0  0  0  0  0  0  # atno 10718 bound_to 10713
  153.1952  135.4442  155.0199 H   0  0  0  0  0  0  0  0  0  0  0  0  # atno 10763 bound_to 10752
  154.8114  135.3296  154.7296 H   0  0  0  0  0  0  0  0  0  0  0  0  # atno 10764 bound_to 10752
  153.7746  135.6982  153.4955 H   0  0  0  0  0  0  0  0  0  0  0  0  # atno 10765 bound_to 10752
  139.8784  134.8932  156.4106 H   0  0  0  0  0  0  0  0  0  0  0  0  # atno 11005 bound_to 11000
  146.3196  140.3356  142.8644 LP  0  0  0  0  0  0  0  0  0  0  0  0  # atno 17320 bound_to 7965
  144.9202  140.7859  143.5753 LP  0  0  0  0  0  0  0  0  0  0  0  0  # atno 17321 bound_to 7965
  140.7820  143.4282  151.0736 LP  0  0  0  0  0  0  0  0  0  0  0  0  # atno 17342 bound_to 10162
  139.7953  143.8160  152.3157 LP  0  0  0  0  0  0  0  0  0  0  0  0  # atno 17343 bound_to 10162
  156.4158  130.7744  151.2759 LP  0  0  0  0  0  0  0  0  0  0  0  0  # atno 17370 bound_to 10713
  157.7508  131.0198  150.3681 LP  0  0  0  0  0  0  0  0  0  0  0  0  # atno 17371 bound_to 10713
  140.9203  133.7650  155.9898 LP  0  0  0  0  0  0  0  0  0  0  0  0  # atno 17394 bound_to 11000
  140.8447  134.3025  157.5299 LP  0  0  0  0  0  0  0  0  0  0  0  0  # atno 17395 bound_to 11000

$$$$
