AV-unprocessed.smi:3168|AV-procd|sdf|12102|dock2
  -GOLD-   2272017533D 1   1.00000     0.00000
 Structure written by MMmdl.
 33 34  0  0  0  0  0  0  0  0  1 V2000
  151.9207  144.5803  158.5979 C   0  0  0  0  0  0  0  0  0  0  0  0
  151.4033  143.2898  159.2663 C   0  0  1  0  0  0  0  0  0  0  0  0
  150.4708  142.4686  158.3562 C   0  0  0  0  0  0  0  0  0  0  0  0
  149.2915  142.2864  158.6610 O   0  0  0  0  0  0  0  0  0  0  0  0
  151.0205  141.9607  157.2411 N   0  0  0  0  0  0  0  0  0  0  0  0
  150.3218  141.1466  156.2540 C   0  0  0  0  0  0  0  0  0  0  0  0
  150.8714  139.7116  156.2166 C   0  0  1  0  0  0  0  0  0  0  0  0
  150.0866  138.7781  155.2974 C   0  0  0  0  0  0  0  0  0  0  0  0
  151.1231  137.7254  154.9780 C   0  0  0  0  0  0  0  0  0  0  0  0
  152.3919  138.5644  154.8552 C   0  0  0  0  0  0  0  0  0  0  0  0
  152.2010  139.6958  155.7012 O   0  0  0  0  0  0  0  0  0  0  0  0
  152.4991  142.4680  159.7700 N   0  0  0  0  0  0  0  0  0  0  0  0
  153.4286  142.7932  160.7373 C   0  0  0  0  0  0  0  0  0  0  0  0
  154.2405  141.7089  160.9081 C   0  0  0  0  0  0  0  0  0  0  0  0
  153.7203  140.7504  159.9950 C   0  0  0  0  0  0  0  0  0  0  0  0
  152.6768  141.2038  159.3201 N   0  0  0  0  0  0  0  0  0  0  0  0
  151.0969  145.2333  158.3078 H   0  0  0  0  0  0  0  0  0  0  0  0
  152.5070  144.3693  157.7026 H   0  0  0  0  0  0  0  0  0  0  0  0
  152.5558  145.1433  159.2824 H   0  0  0  0  0  0  0  0  0  0  0  0
  150.8065  143.5909  160.1287 H   0  0  0  0  0  0  0  0  0  0  0  0
  151.9959  142.1512  157.0641 H   0  0  0  0  0  0  0  0  0  0  0  0
  149.2520  141.1365  156.4690 H   0  0  0  0  0  0  0  0  0  0  0  0
  150.4365  141.6177  155.2775 H   0  0  0  0  0  0  0  0  0  0  0  0
  150.8924  139.2824  157.2199 H   0  0  0  0  0  0  0  0  0  0  0  0
  149.1918  138.3702  155.7686 H   0  0  0  0  0  0  0  0  0  0  0  0
  149.7878  139.2952  154.3844 H   0  0  0  0  0  0  0  0  0  0  0  0
  151.2136  137.0248  155.8096 H   0  0  0  0  0  0  0  0  0  0  0  0
  150.8969  137.1584  154.0746 H   0  0  0  0  0  0  0  0  0  0  0  0
  153.2859  138.0061  155.1332 H   0  0  0  0  0  0  0  0  0  0  0  0
  152.5181  138.9170  153.8311 H   0  0  0  0  0  0  0  0  0  0  0  0
  153.4341  143.7594  161.2201 H   0  0  0  0  0  0  0  0  0  0  0  0
  155.0765  141.6138  161.5850 H   0  0  0  0  0  0  0  0  0  0  0  0
  154.0645  139.7442  159.8065 H   0  0  0  0  0  0  0  0  0  0  0  0
  1  2  1  0  0  0  0
  1 17  1  0  0  0  0
  1 18  1  0  0  0  0
  1 19  1  0  0  0  0
  2  3  1  0  0  0  0
  2 12  1  0  0  0  0
  2 20  1  0  0  0  0
  3  4  2  0  0  0  0
  3  5  1  0  0  0  0
  5  6  1  0  0  0  0
  5 21  1  0  0  0  0
  6  7  1  0  0  0  0
  6 22  1  0  0  0  0
  6 23  1  0  0  0  0
  7 11  1  0  0  0  0
  7  8  1  0  0  0  0
  7 24  1  0  0  0  0
  8  9  1  0  0  0  0
  8 25  1  0  0  0  0
  8 26  1  0  0  0  0
  9 10  1  0  0  0  0
  9 27  1  0  0  0  0
  9 28  1  0  0  0  0
 10 11  1  0  0  0  0
 10 29  1  0  0  0  0
 10 30  1  0  0  0  0
 12 16  1  0  0  0  0
 12 13  1  0  0  0  0
 13 14  2  0  0  0  0
 13 31  1  0  0  0  0
 14 15  1  0  0  0  0
 14 32  1  0  0  0  0
 15 16  2  0  0  0  0
 15 33  1  0  0  0  0
M  END
> <s_m_source_file>
AV-unprocessed.smi

> <i_m_source_file_index>
3168

> <i_lp_mmshare_version>
43012

> <i_f3d_flags>
0

> <s_epik_input>
bjFbY0hdW2NIXVtjSF1uMVtDQEhdKFtDSDNdKUMoPU8pW05IXVtDSDJdW0NAQEhdMltDSDJdW0NIMl1bQ0gyXU8y

> <s_epik_cmdline>
J2VwaWtfcHl0aG9uJywgJy1waCcsICc3LjAnLCAnLXRuJywgJzgnLCAnLW1hJywgJzIwMCcsICctbWV0YWxfYmluZGluZycsICctaW1hZScsICc8aW5maWxlLm1hZT4nLCAnLW9tYWUnLCAnPG91dGZpbGUubWFlPic=

> <r_lp_tautomer_probability>
1

> <r_epik_Ionization_Penalty>
4.14877e-05

> <r_epik_Ionization_Penalty_Charging>
0

> <r_epik_Ionization_Penalty_Neutral>
4.14877e-05

> <r_epik_State_Penalty>
-0

> <r_epik_Charging_Adjusted_Penalty>
0

> <i_epik_Tot_Q>
0

> <i_epik_Tot_abs_Q>
0

> <r_epik_Metal_State_Penalty>
-0

> <b_epik_Metal_Only>
0

> <s_lp_Force_Field>
OPLS_2005

> <r_lp_Energy>
21.2002

> <b_lp_Chiralities_Consistent>
1

> <s_lp_Variant>
AV-unprocessed.smi:3168-4

> <Gold.Version>
5.8.1

> <Gold.Id.Protein>
6NUR|6NUR_protein|mol2

> <Gold.PLP.Fitness>
43.1017

> <Gold.PLP.PLP>
-40.2309

> <Gold.PLP.part.hbond>
-1.5444

> <Gold.PLP.part.metal>
0.0000

> <Gold.PLP.part.buried>
-3.9484

> <Gold.PLP.part.nonpolar>
-35.0393

> <Gold.PLP.part.repulsive>
0.2215

> <Gold.PLP.ligand.clash>
0.0000

> <Gold.PLP.ligand.torsion>
0.1285

> <Gold.PLP.Chemscore.Hbond>
1.0000

> <Gold.PLP.Chemscore.CHOScore>
0.0000

> <Gold.PLP.Chemscore.Metal>
0.0000

> <Gold.Chemscore.Hbonds>
donor molecule, donor type, donor heavy atom, donor atom, acceptor molecule, acceptor atom, score
      P1  H  7997  8009       L1    11  0.42

> <Gold.PLP.Chemscore.Internal.Correction>
0.1277

> <Gold.Rescore>
     Score         DG    S(hbond)    S(metal)    S(lipo)     H(rot)  DE(clash)    DE(int)     intcor
     12.84     -14.69       0.82        0.00      90.51       1.61       0.14       1.71       ----

> <Gold.Chemscore.Fitness>
12.8377

> <Gold.Chemscore.DG>
-14.6876

> <Gold.Chemscore.ZeroCoef>
-5.4800

> <Gold.Chemscore.Hbond>
0.8199

> <Gold.Chemscore.Metal>
0.0000

> <Gold.Chemscore.Lipo>
90.5057

> <Gold.Chemscore.Internal_Hbond>
0.0000

> <Gold.Chemscore.DEClash>
0.1429

> <Gold.Chemscore.DEInternal>
1.7070

> <Gold.Chemscore.Rot>
1.6094

> <Gold.Chemscore.Internal.Correction>
   9.000000E+99

> <Gold.Chemscore.Hbonds>
donor molecule, donor type, donor heavy atom, donor atom, acceptor molecule, acceptor atom, score
      P1  H  7997  8009       L1    11  0.12

> <Gold.Chemscore.Hbond.Weighted>
-2.7385

> <Gold.Chemscore.Metal.Weighted>
-0.0000

> <Gold.Chemscore.Lipo.Weighted>
-10.5892

> <Gold.Chemscore.Internal_Hbond.Weighted>
0.0000

> <Gold.Chemscore.DEClash.Weighted>
0.1429

> <Gold.Chemscore.DEInternal.Weighted>
1.7070

> <Gold.Chemscore.Rot.Weighted>
4.1201

> <Gold.Chemscore.Internal.Correction.Weighted>
   9.000000E+99

> <Gold.Protein.RotatedTorsions>
[ 6907 6896 6895 6894 ] final -162.02 input  -60.11 | X-H torsion
[ 7974 7965 7964 7962 ] final  161.54 input  175.53 | X-H torsion
[ 8008 7997 7996 7995 ] final -162.50 input   59.86 | X-H torsion
[ 10167 10162 10161 10158 ] final    2.58 input  -65.29 | X-H torsion
[ 10718 10713 10712 10709 ] final  174.26 input   66.30 | X-H torsion
[ 10763 10752 10751 10750 ] final  -39.27 input  -60.55 | X-H torsion
[ 11005 11000 10999 10996 ] final  -51.62 input  -57.11 | X-H torsion

> <Gold.Protein.ActiveResidues>
 VAL166  LYS551  ARG553  GLY616  TRP617  ASP618  TYR619  PRO620  LYS621  CYS622 
 ASP623  PHE694  ASN695  SER759  ASP760  ASP761  ALA762  ILE779  LEU786  VAL792 
 PHE793  MET794  SER795  GLU796  ALA797  LYS798  CYS799  TRP800  GLU811  SER814 

> <Gold.Protein.RotatedAtoms>
  151.3737  133.3845  159.2702 H   0  0  0  0  0  0  0  0  0  0  0  0  # atno 6907 bound_to 6896
  150.9631  134.9017  159.7753 H   0  0  0  0  0  0  0  0  0  0  0  0  # atno 6908 bound_to 6896
  152.5157  134.3697  159.9366 H   0  0  0  0  0  0  0  0  0  0  0  0  # atno 6909 bound_to 6896
  144.7681  139.7912  143.6307 H   0  0  0  0  0  0  0  0  0  0  0  0  # atno 7974 bound_to 7965
  155.8076  140.0901  157.1922 H   0  0  0  0  0  0  0  0  0  0  0  0  # atno 8008 bound_to 7997
  154.3980  140.1460  156.3408 H   0  0  0  0  0  0  0  0  0  0  0  0  # atno 8009 bound_to 7997
  155.8398  140.3439  155.5627 H   0  0  0  0  0  0  0  0  0  0  0  0  # atno 8010 bound_to 7997
  140.6628  143.7259  150.7770 H   0  0  0  0  0  0  0  0  0  0  0  0  # atno 10167 bound_to 10162
  156.9522  131.0034  151.2946 H   0  0  0  0  0  0  0  0  0  0  0  0  # atno 10718 bound_to 10713
  153.9266  135.6776  153.4746 H   0  0  0  0  0  0  0  0  0  0  0  0  # atno 10763 bound_to 10752
  153.1001  135.4832  154.8848 H   0  0  0  0  0  0  0  0  0  0  0  0  # atno 10764 bound_to 10752
  154.7450  135.3170  154.8617 H   0  0  0  0  0  0  0  0  0  0  0  0  # atno 10765 bound_to 10752
  141.0881  133.6638  156.3904 H   0  0  0  0  0  0  0  0  0  0  0  0  # atno 11005 bound_to 11000
  146.1805  139.4995  142.9870 LP  0  0  0  0  0  0  0  0  0  0  0  0  # atno 17320 bound_to 7965
  145.6409  141.0284  143.1812 LP  0  0  0  0  0  0  0  0  0  0  0  0  # atno 17321 bound_to 7965
  140.0931  143.4858  152.2467 LP  0  0  0  0  0  0  0  0  0  0  0  0  # atno 17342 bound_to 10162
  139.5867  144.7534  151.3503 LP  0  0  0  0  0  0  0  0  0  0  0  0  # atno 17343 bound_to 10162
  157.5714  130.8313  149.8397 LP  0  0  0  0  0  0  0  0  0  0  0  0  # atno 17370 bound_to 10713
  156.0358  130.3752  150.1565 LP  0  0  0  0  0  0  0  0  0  0  0  0  # atno 17371 bound_to 10713
  140.5317  134.6206  157.5352 LP  0  0  0  0  0  0  0  0  0  0  0  0  # atno 17394 bound_to 11000
  139.9702  134.7306  156.0057 LP  0  0  0  0  0  0  0  0  0  0  0  0  # atno 17395 bound_to 11000

$$$$
