AV-unprocessed.smi:1297|AV-procd|sdf|5416|dock3
  -GOLD-   22720 4573D 1   1.00000     0.00000
 Structure written by MMmdl.
 26 27  0  0  0  0  0  0  0  0  1 V2000
  150.5334  137.5375  158.7654 C   0  0  0  0  0  0  0  0  0  0  0  0
  149.8480  138.7059  157.5564 S   0  0  0  0  0  0  0  0  0  0  0  0
  150.7774  140.1571  157.9613 C   0  0  0  0  0  0  0  0  0  0  0  0
  151.7203  140.2109  158.9076 N   0  0  0  0  0  0  0  0  0  0  0  0
  152.1761  141.5089  158.9087 N   0  0  0  0  0  0  0  0  0  0  0  0
  151.4853  142.1267  157.9489 C   0  0  0  0  0  0  0  0  0  0  0  0
  151.6396  143.5801  157.6273 C   0  0  0  0  0  0  0  0  0  0  0  0
  152.7603  144.3959  158.2327 C   0  0  0  0  0  0  0  0  0  0  0  0
  151.3375  144.6520  158.6528 C   0  0  0  0  0  0  0  0  0  0  0  0
  150.5843  141.3355  157.3292 N   0  0  0  0  0  0  0  0  0  0  0  0
  149.6440  141.6726  156.2657 C   0  0  0  0  0  0  0  0  0  0  0  0
  149.9368  140.9028  154.9749 C   0  0  0  0  0  0  0  0  0  0  0  0
  149.1130  141.0953  153.9417 N   0  0  0  0  0  0  0  0  0  0  0  0
  150.9056  140.1502  154.9073 O   0  0  0  0  0  0  0  0  0  0  0  0
  150.0613  136.5622  158.6481 H   0  0  0  0  0  0  0  0  0  0  0  0
  150.3506  137.8842  159.7829 H   0  0  0  0  0  0  0  0  0  0  0  0
  151.6074  137.4165  158.6206 H   0  0  0  0  0  0  0  0  0  0  0  0
  151.3643  143.7769  156.5930 H   0  0  0  0  0  0  0  0  0  0  0  0
  153.4112  143.9080  158.9555 H   0  0  0  0  0  0  0  0  0  0  0  0
  153.2411  145.1357  157.5963 H   0  0  0  0  0  0  0  0  0  0  0  0
  150.8660  145.5662  158.2984 H   0  0  0  0  0  0  0  0  0  0  0  0
  151.0491  144.3367  159.6539 H   0  0  0  0  0  0  0  0  0  0  0  0
  148.6262  141.4664  156.5976 H   0  0  0  0  0  0  0  0  0  0  0  0
  149.6918  142.7454  156.0751 H   0  0  0  0  0  0  0  0  0  0  0  0
  149.2717  140.6072  153.0718 H   0  0  0  0  0  0  0  0  0  0  0  0
  148.3333  141.7301  154.0338 H   0  0  0  0  0  0  0  0  0  0  0  0
  1  2  1  0  0  0  0
  1 15  1  0  0  0  0
  1 16  1  0  0  0  0
  1 17  1  0  0  0  0
  2  3  1  0  0  0  0
  3 10  1  0  0  0  0
  3  4  2  0  0  0  0
  4  5  1  0  0  0  0
  5  6  2  0  0  0  0
  6  7  1  0  0  0  0
  6 10  1  0  0  0  0
  7  9  1  0  0  0  0
  7  8  1  0  0  0  0
  7 18  1  0  0  0  0
  8  9  1  0  0  0  0
  8 19  1  0  0  0  0
  8 20  1  0  0  0  0
  9 21  1  0  0  0  0
  9 22  1  0  0  0  0
 10 11  1  0  0  0  0
 11 12  1  0  0  0  0
 11 23  1  0  0  0  0
 11 24  1  0  0  0  0
 12 13  1  0  0  0  0
 12 14  2  0  0  0  0
 13 25  1  0  0  0  0
 13 26  1  0  0  0  0
M  END
> <s_m_source_file>
AV-unprocessed.smi

> <i_m_source_file_index>
1297

> <i_lp_mmshare_version>
43012

> <i_f3d_flags>
0

> <s_epik_input>
W0NIM11TYzFubmMoW0NIXTJbQ0gyXVtDSDJdMiluMVtDSDJdQyg9TylbTkgyXQ==

> <s_epik_cmdline>
J2VwaWtfcHl0aG9uJywgJy1waCcsICc3LjAnLCAnLXRuJywgJzgnLCAnLW1hJywgJzIwMCcsICctbWV0YWxfYmluZGluZycsICctaW1hZScsICc8aW5maWxlLm1hZT4nLCAnLW9tYWUnLCAnPG91dGZpbGUubWFlPic=

> <r_lp_tautomer_probability>
1

> <r_epik_Ionization_Penalty>
2.14715e-06

> <r_epik_Ionization_Penalty_Charging>
0

> <r_epik_Ionization_Penalty_Neutral>
2.14715e-06

> <r_epik_State_Penalty>
-0

> <r_epik_Charging_Adjusted_Penalty>
0

> <i_epik_Tot_Q>
0

> <i_epik_Tot_abs_Q>
0

> <r_epik_Metal_State_Penalty>
-0

> <b_epik_Metal_Only>
0

> <s_lp_Force_Field>
OPLS_2005

> <r_lp_Energy>
5.16146

> <b_lp_Chiralities_Consistent>
1

> <s_lp_Variant>
AV-unprocessed.smi:1297-1

> <Gold.Version>
5.8.1

> <Gold.Id.Protein>
6NUR|6NUR_protein|mol2

> <Gold.PLP.Fitness>
33.8286

> <Gold.PLP.PLP>
-27.9317

> <Gold.PLP.part.hbond>
-2.0000

> <Gold.PLP.part.metal>
0.0000

> <Gold.PLP.part.buried>
-3.6730

> <Gold.PLP.part.nonpolar>
-22.7561

> <Gold.PLP.part.repulsive>
0.4073

> <Gold.PLP.ligand.clash>
0.0000

> <Gold.PLP.ligand.torsion>
0.1062

> <Gold.PLP.Chemscore.Hbond>
1.9913

> <Gold.PLP.Chemscore.CHOScore>
0.0000

> <Gold.PLP.Chemscore.Metal>
0.0000

> <Gold.Chemscore.Hbonds>
donor molecule, donor type, donor heavy atom, donor atom, acceptor molecule, acceptor atom, score
      L1  H    13    25       P1  7957  1.00
      P1  H  7989  7998       L1    14  0.85

> <Gold.PLP.Chemscore.Internal.Correction>
0.1356

> <Gold.Rescore>
     Score         DG    S(hbond)    S(metal)    S(lipo)     H(rot)  DE(clash)    DE(int)     intcor
     10.58     -11.44       1.80        0.00      47.58       2.19       0.02       0.85       ----

> <Gold.Chemscore.Fitness>
10.5782

> <Gold.Chemscore.DG>
-11.4415

> <Gold.Chemscore.ZeroCoef>
-5.4800

> <Gold.Chemscore.Hbond>
1.7964

> <Gold.Chemscore.Metal>
0.0000

> <Gold.Chemscore.Lipo>
47.5820

> <Gold.Chemscore.Internal_Hbond>
0.0000

> <Gold.Chemscore.DEClash>
0.0174

> <Gold.Chemscore.DEInternal>
0.8458

> <Gold.Chemscore.Rot>
2.1897

> <Gold.Chemscore.Internal.Correction>
   9.000000E+99

> <Gold.Chemscore.Hbonds>
donor molecule, donor type, donor heavy atom, donor atom, acceptor molecule, acceptor atom, score
      L1  H    13    25       P1  7957  0.94
      P1  H  7989  7998       L1    14  0.15

> <Gold.Chemscore.Hbond.Weighted>
-6.0001

> <Gold.Chemscore.Metal.Weighted>
-0.0000

> <Gold.Chemscore.Lipo.Weighted>
-5.5671

> <Gold.Chemscore.Internal_Hbond.Weighted>
0.0000

> <Gold.Chemscore.DEClash.Weighted>
0.0174

> <Gold.Chemscore.DEInternal.Weighted>
0.8458

> <Gold.Chemscore.Rot.Weighted>
5.6057

> <Gold.Chemscore.Internal.Correction.Weighted>
   9.000000E+99

> <Gold.Protein.RotatedTorsions>
[ 6907 6896 6895 6894 ] final   11.10 input  -60.11 | X-H torsion
[ 7974 7965 7964 7962 ] final  -59.14 input  175.53 | X-H torsion
[ 8008 7997 7996 7995 ] final  115.54 input   59.86 | X-H torsion
[ 10167 10162 10161 10158 ] final  102.46 input  -65.29 | X-H torsion
[ 10718 10713 10712 10709 ] final -141.13 input   66.30 | X-H torsion
[ 10763 10752 10751 10750 ] final  -82.35 input  -60.55 | X-H torsion
[ 11005 11000 10999 10996 ] final  -40.92 input  -57.11 | X-H torsion

> <Gold.Protein.ActiveResidues>
 VAL166  LYS551  ARG553  GLY616  TRP617  ASP618  TYR619  PRO620  LYS621  CYS622 
 ASP623  PHE694  ASN695  SER759  ASP760  ASP761  ALA762  ILE779  LEU786  VAL792 
 PHE793  MET794  SER795  GLU796  ALA797  LYS798  CYS799  TRP800  GLU811  SER814 

> <Gold.Protein.RotatedAtoms>
  151.7489  135.0837  160.0327 H   0  0  0  0  0  0  0  0  0  0  0  0  # atno 6907 bound_to 6896
  152.3430  133.6084  159.5898 H   0  0  0  0  0  0  0  0  0  0  0  0  # atno 6908 bound_to 6896
  150.7491  133.9609  159.3557 H   0  0  0  0  0  0  0  0  0  0  0  0  # atno 6909 bound_to 6896
  145.8310  140.8480  143.0083 H   0  0  0  0  0  0  0  0  0  0  0  0  # atno 7974 bound_to 7965
  156.2387  140.2936  156.0384 H   0  0  0  0  0  0  0  0  0  0  0  0  # atno 8008 bound_to 7997
  155.2015  140.0410  157.2935 H   0  0  0  0  0  0  0  0  0  0  0  0  # atno 8009 bound_to 7997
  154.6127  140.2456  155.7655 H   0  0  0  0  0  0  0  0  0  0  0  0  # atno 8010 bound_to 7997
  139.7348  144.7027  151.0666 H   0  0  0  0  0  0  0  0  0  0  0  0  # atno 10167 bound_to 10162
  156.3304  130.7583  151.1699 H   0  0  0  0  0  0  0  0  0  0  0  0  # atno 10718 bound_to 10713
  154.5747  135.5594  153.7128 H   0  0  0  0  0  0  0  0  0  0  0  0  # atno 10763 bound_to 10752
  153.0060  135.6305  154.2066 H   0  0  0  0  0  0  0  0  0  0  0  0  # atno 10764 bound_to 10752
  154.2006  135.2878  155.2972 H   0  0  0  0  0  0  0  0  0  0  0  0  # atno 10765 bound_to 10752
  141.0209  133.6863  156.2387 H   0  0  0  0  0  0  0  0  0  0  0  0  # atno 11005 bound_to 11000
  144.6740  140.0672  143.7474 LP  0  0  0  0  0  0  0  0  0  0  0  0  # atno 17320 bound_to 7965
  145.9571  139.2774  143.1178 LP  0  0  0  0  0  0  0  0  0  0  0  0  # atno 17321 bound_to 7965
  140.7777  143.4998  150.9786 LP  0  0  0  0  0  0  0  0  0  0  0  0  # atno 17342 bound_to 10162
  139.8686  143.7221  152.3168 LP  0  0  0  0  0  0  0  0  0  0  0  0  # atno 17343 bound_to 10162
  157.7429  131.0483  150.4988 LP  0  0  0  0  0  0  0  0  0  0  0  0  # atno 17370 bound_to 10713
  156.5153  130.4149  149.6279 LP  0  0  0  0  0  0  0  0  0  0  0  0  # atno 17371 bound_to 10713
  140.6575  134.5003  157.5581 LP  0  0  0  0  0  0  0  0  0  0  0  0  # atno 17394 bound_to 11000
  139.9145  134.8274  156.1412 LP  0  0  0  0  0  0  0  0  0  0  0  0  # atno 17395 bound_to 11000

$$$$
