AV-unprocessed.smi:3112|AV-procd|sdf|11845|dock6
  -GOLD-   2272017223D 1   1.00000     0.00000
 Structure written by MMmdl.
 36 36  0  0  0  0  0  0  0  0  1 V2000
  147.0078  142.4041  154.1047 C   0  0  0  0  0  0  0  0  0  0  0  0
  147.4109  140.9396  153.8866 C   0  0  0  0  0  0  0  0  0  0  0  0
  148.8186  140.6095  154.4221 C   0  0  1  0  0  0  0  0  0  0  0  0
  149.8044  140.8574  153.4396 O   0  0  0  0  0  0  0  0  0  0  0  0
  149.1995  141.3567  155.7143 C   0  0  0  0  0  0  0  0  0  0  0  0
  150.4822  140.9060  156.2619 N   0  0  0  0  0  0  0  0  0  0  0  0
  150.9229  141.6114  157.4692 C   0  0  2  0  0  0  0  0  0  0  0  0
  151.2188  143.0748  157.0896 C   0  0  0  0  0  0  0  0  0  0  0  0
  152.1497  140.9131  158.1298 C   0  0  2  0  0  0  0  0  0  0  0  0
  151.9653  139.4057  158.3859 C   0  0  0  0  0  0  0  0  0  0  0  0
  152.5472  141.5720  159.3685 N   0  0  0  0  0  0  0  0  0  0  0  0
  153.6412  141.3030  160.1651 C   0  0  0  0  0  0  0  0  0  0  0  0
  153.6042  142.1718  161.2177 C   0  0  0  0  0  0  0  0  0  0  0  0
  152.4340  142.9443  160.9772 C   0  0  0  0  0  0  0  0  0  0  0  0
  151.8036  142.5838  159.8716 N   0  0  0  0  0  0  0  0  0  0  0  0
  146.0218  142.6010  153.6834 H   0  0  0  0  0  0  0  0  0  0  0  0
  147.7143  143.0834  153.6268 H   0  0  0  0  0  0  0  0  0  0  0  0
  146.9684  142.6521  155.1655 H   0  0  0  0  0  0  0  0  0  0  0  0
  146.6676  140.2893  154.3492 H   0  0  0  0  0  0  0  0  0  0  0  0
  147.3782  140.7285  152.8172 H   0  0  0  0  0  0  0  0  0  0  0  0
  148.8611  139.5421  154.6410 H   0  0  0  0  0  0  0  0  0  0  0  0
  149.7253  140.2027  152.7631 H   0  0  0  0  0  0  0  0  0  0  0  0
  149.2671  142.4219  155.4896 H   0  0  0  0  0  0  0  0  0  0  0  0
  148.3965  141.2589  156.4418 H   0  0  0  0  0  0  0  0  0  0  0  0
  151.1937  140.9882  155.5431 H   0  0  0  0  0  0  0  0  0  0  0  0
  150.1045  141.6372  158.1904 H   0  0  0  0  0  0  0  0  0  0  0  0
  151.4267  143.6885  157.9662 H   0  0  0  0  0  0  0  0  0  0  0  0
  150.3659  143.5280  156.5832 H   0  0  0  0  0  0  0  0  0  0  0  0
  152.0773  143.1458  156.4210 H   0  0  0  0  0  0  0  0  0  0  0  0
  152.9936  141.0171  157.4457 H   0  0  0  0  0  0  0  0  0  0  0  0
  151.9173  138.8471  157.4517 H   0  0  0  0  0  0  0  0  0  0  0  0
  151.0568  139.2027  158.9537 H   0  0  0  0  0  0  0  0  0  0  0  0
  152.8063  138.9992  158.9487 H   0  0  0  0  0  0  0  0  0  0  0  0
  154.3487  140.5248  159.9185 H   0  0  0  0  0  0  0  0  0  0  0  0
  154.3061  142.2447  162.0351 H   0  0  0  0  0  0  0  0  0  0  0  0
  152.0266  143.7507  161.5688 H   0  0  0  0  0  0  0  0  0  0  0  0
  1  2  1  0  0  0  0
  1 16  1  0  0  0  0
  1 17  1  0  0  0  0
  1 18  1  0  0  0  0
  2  3  1  0  0  0  0
  2 19  1  0  0  0  0
  2 20  1  0  0  0  0
  3  4  1  0  0  0  0
  3  5  1  0  0  0  0
  3 21  1  0  0  0  0
  4 22  1  0  0  0  0
  5  6  1  0  0  0  0
  5 23  1  0  0  0  0
  5 24  1  0  0  0  0
  6  7  1  0  0  0  0
  6 25  1  0  0  0  0
  7  8  1  0  0  0  0
  7  9  1  0  0  0  0
  7 26  1  0  0  0  0
  8 27  1  0  0  0  0
  8 28  1  0  0  0  0
  8 29  1  0  0  0  0
  9 10  1  0  0  0  0
  9 11  1  0  0  0  0
  9 30  1  0  0  0  0
 10 31  1  0  0  0  0
 10 32  1  0  0  0  0
 10 33  1  0  0  0  0
 11 15  1  0  0  0  0
 11 12  1  0  0  0  0
 12 13  2  0  0  0  0
 12 34  1  0  0  0  0
 13 14  1  0  0  0  0
 13 35  1  0  0  0  0
 14 15  2  0  0  0  0
 14 36  1  0  0  0  0
M  END
> <s_m_source_file>
AV-unprocessed.smi

> <i_m_source_file_index>
3112

> <i_lp_mmshare_version>
43012

> <i_f3d_flags>
0

> <s_epik_input>
W0NIM11bQ0gyXVtDQEhdKFtPSF0pW0NIMl1bTkhdW0NASF0oW0NIM10pW0NASF0oW0NIM10pbjFbY0hdW2NIXVtjSF1uMQ==

> <s_epik_cmdline>
J2VwaWtfcHl0aG9uJywgJy1waCcsICc3LjAnLCAnLXRuJywgJzgnLCAnLW1hJywgJzIwMCcsICctbWV0YWxfYmluZGluZycsICctaW1hZScsICc8aW5maWxlLm1hZT4nLCAnLW9tYWUnLCAnPG91dGZpbGUubWFlPic=

> <r_lp_tautomer_probability>
1

> <r_epik_Ionization_Penalty>
2.16876

> <r_epik_Ionization_Penalty_Charging>
0

> <r_epik_Ionization_Penalty_Neutral>
2.16876

> <r_epik_State_Penalty>
2.30854

> <r_epik_Charging_Adjusted_Penalty>
2.30854

> <i_epik_Tot_Q>
0

> <i_epik_Tot_abs_Q>
0

> <r_epik_Metal_State_Penalty>
2.3073

> <b_epik_Metal_Only>
0

> <s_lp_Force_Field>
OPLS_2005

> <r_lp_Energy>
23.3328

> <b_lp_Chiralities_Consistent>
1

> <s_lp_Variant>
AV-unprocessed.smi:3112-10

> <Gold.Version>
5.8.1

> <Gold.Id.Protein>
6NUR|6NUR_protein|mol2

> <Gold.PLP.Fitness>
41.4911

> <Gold.PLP.PLP>
-36.1105

> <Gold.PLP.part.hbond>
-2.4476

> <Gold.PLP.part.metal>
0.0000

> <Gold.PLP.part.buried>
-3.8856

> <Gold.PLP.part.nonpolar>
-28.4583

> <Gold.PLP.part.repulsive>
0.0068

> <Gold.PLP.ligand.clash>
0.0000

> <Gold.PLP.ligand.torsion>
0.4150

> <Gold.PLP.Chemscore.Hbond>
2.0172

> <Gold.PLP.Chemscore.CHOScore>
0.0000

> <Gold.PLP.Chemscore.Metal>
0.0000

> <Gold.Chemscore.Hbonds>
donor molecule, donor type, donor heavy atom, donor atom, acceptor molecule, acceptor atom, score
      L1  H     4    22       P1  7957  0.83
      P1  H  7989  7998       L1     4  0.24
      P1  H  8011  8017       L1     4  0.90

> <Gold.PLP.Chemscore.Internal.Correction>
0.1590

> <Gold.Rescore>
     Score         DG    S(hbond)    S(metal)    S(lipo)     H(rot)  DE(clash)    DE(int)     intcor
     12.25     -13.72       1.23        0.00      85.95       2.31       0.06       1.42       ----

> <Gold.Chemscore.Fitness>
12.2493

> <Gold.Chemscore.DG>
-13.7243

> <Gold.Chemscore.ZeroCoef>
-5.4800

> <Gold.Chemscore.Hbond>
1.2287

> <Gold.Chemscore.Metal>
0.0000

> <Gold.Chemscore.Lipo>
85.9484

> <Gold.Chemscore.Internal_Hbond>
0.0000

> <Gold.Chemscore.DEClash>
0.0575

> <Gold.Chemscore.DEInternal>
1.4175

> <Gold.Chemscore.Rot>
2.3108

> <Gold.Chemscore.Internal.Correction>
   9.000000E+99

> <Gold.Chemscore.Hbonds>
donor molecule, donor type, donor heavy atom, donor atom, acceptor molecule, acceptor atom, score
      L1  H     4    22       P1  7957  0.82
      P1  H  7989  7998       L1     4  0.04
      P1  H  8011  8017       L1     4  0.17

> <Gold.Chemscore.Hbond.Weighted>
-4.1040

> <Gold.Chemscore.Metal.Weighted>
-0.0000

> <Gold.Chemscore.Lipo.Weighted>
-10.0560

> <Gold.Chemscore.Internal_Hbond.Weighted>
0.0000

> <Gold.Chemscore.DEClash.Weighted>
0.0575

> <Gold.Chemscore.DEInternal.Weighted>
1.4175

> <Gold.Chemscore.Rot.Weighted>
5.9157

> <Gold.Chemscore.Internal.Correction.Weighted>
   9.000000E+99

> <Gold.Protein.RotatedTorsions>
[ 6907 6896 6895 6894 ] final   73.17 input  -60.11 | X-H torsion
[ 7974 7965 7964 7962 ] final   41.68 input  175.53 | X-H torsion
[ 8008 7997 7996 7995 ] final   15.94 input   59.86 | X-H torsion
[ 10167 10162 10161 10158 ] final -163.65 input  -65.29 | X-H torsion
[ 10718 10713 10712 10709 ] final  105.63 input   66.30 | X-H torsion
[ 10763 10752 10751 10750 ] final  151.95 input  -60.55 | X-H torsion
[ 11005 11000 10999 10996 ] final   28.16 input  -57.11 | X-H torsion

> <Gold.Protein.ActiveResidues>
 VAL166  LYS551  ARG553  GLY616  TRP617  ASP618  TYR619  PRO620  LYS621  CYS622 
 ASP623  PHE694  ASN695  SER759  ASP760  ASP761  ALA762  ILE779  LEU786  VAL792 
 PHE793  MET794  SER795  GLU796  ALA797  LYS798  CYS799  TRP800  GLU811  SER814 

> <Gold.Protein.RotatedAtoms>
  152.4908  134.4462  159.9559 H   0  0  0  0  0  0  0  0  0  0  0  0  # atno 6907 bound_to 6896
  151.4449  133.3627  159.2795 H   0  0  0  0  0  0  0  0  0  0  0  0  # atno 6908 bound_to 6896
  150.9061  134.8500  159.7454 H   0  0  0  0  0  0  0  0  0  0  0  0  # atno 6909 bound_to 6896
  146.0804  139.5388  142.9541 H   0  0  0  0  0  0  0  0  0  0  0  0  # atno 7974 bound_to 7965
  154.8698  140.2957  155.5488 H   0  0  0  0  0  0  0  0  0  0  0  0  # atno 8008 bound_to 7997
  156.3021  140.2462  156.3619 H   0  0  0  0  0  0  0  0  0  0  0  0  # atno 8009 bound_to 7997
  154.8829  140.0397  157.1782 H   0  0  0  0  0  0  0  0  0  0  0  0  # atno 8010 bound_to 7997
  139.6305  144.0448  152.2012 H   0  0  0  0  0  0  0  0  0  0  0  0  # atno 10167 bound_to 10162
  157.6698  131.0832  150.5886 H   0  0  0  0  0  0  0  0  0  0  0  0  # atno 10718 bound_to 10713
  154.1120  135.2838  155.3228 H   0  0  0  0  0  0  0  0  0  0  0  0  # atno 10763 bound_to 10752
  154.6483  135.5378  153.7874 H   0  0  0  0  0  0  0  0  0  0  0  0  # atno 10764 bound_to 10752
  153.0342  135.6503  154.1278 H   0  0  0  0  0  0  0  0  0  0  0  0  # atno 10765 bound_to 10752
  140.3186  134.2569  155.7721 H   0  0  0  0  0  0  0  0  0  0  0  0  # atno 11005 bound_to 11000
  145.6229  141.0319  143.1905 LP  0  0  0  0  0  0  0  0  0  0  0  0  # atno 17320 bound_to 7965
  144.7289  139.7787  143.7354 LP  0  0  0  0  0  0  0  0  0  0  0  0  # atno 17321 bound_to 7965
  140.0112  144.6222  150.7645 LP  0  0  0  0  0  0  0  0  0  0  0  0  # atno 17342 bound_to 10162
  140.7436  143.2849  151.3492 LP  0  0  0  0  0  0  0  0  0  0  0  0  # atno 17343 bound_to 10162
  156.6186  130.4399  149.5831 LP  0  0  0  0  0  0  0  0  0  0  0  0  # atno 17370 bound_to 10713
  156.2373  130.6830  151.1522 LP  0  0  0  0  0  0  0  0  0  0  0  0  # atno 17371 bound_to 10713
  141.2092  133.7756  157.0013 LP  0  0  0  0  0  0  0  0  0  0  0  0  # atno 17394 bound_to 11000
  140.0962  134.9563  157.1852 LP  0  0  0  0  0  0  0  0  0  0  0  0  # atno 17395 bound_to 11000

$$$$
