AV-unprocessed.smi:2414|AV-procd|sdf|9541|dock9
  -GOLD-   2272013173D 1   1.00000     0.00000
 Structure written by MMmdl.
 43 44  0  0  0  0  0  0  0  0  1 V2000
  144.1152  145.3739  153.8324 C   0  0  0  0  0  0  0  0  0  0  0  0
  144.8617  144.1482  154.2377 C   0  0  0  0  0  0  0  0  0  0  0  0
  144.7763  143.4727  155.4296 C   0  0  0  0  0  0  0  0  0  0  0  0
  145.6073  142.3527  155.5048 N   0  0  0  0  0  0  0  0  0  0  0  0
  146.3208  142.1690  154.3900 C   0  0  0  0  0  0  0  0  0  0  0  0
  147.2904  141.0454  154.1981 C   0  0  1  0  0  0  0  0  0  0  0  0
  146.8291  140.0817  153.0907 C   0  0  0  0  0  0  0  0  0  0  0  0
  148.7336  141.5656  154.0240 C   0  0  0  0  0  0  0  0  0  0  0  0
  149.2333  142.2438  155.2155 N   0  0  0  0  0  0  0  0  0  0  0  0
  149.9558  141.6645  156.1837 C   0  0  0  0  0  0  0  0  0  0  0  0
  150.2646  140.4728  156.1960 O   0  0  0  0  0  0  0  0  0  0  0  0
  150.3087  142.5427  157.1301 N   0  0  0  0  0  0  0  0  0  0  0  0
  151.1131  142.2248  158.3042 C   0  0  0  0  0  0  0  0  0  0  0  0
  151.8557  143.4669  158.8429 C   0  0  2  0  0  0  0  0  0  0  0  0
  152.1841  144.4828  157.7323 C   0  0  0  0  0  0  0  0  0  0  0  0
  153.1161  143.0603  159.6284 C   0  0  0  0  0  0  0  0  0  0  0  0
  152.6450  143.0488  161.0662 C   0  0  0  0  0  0  0  0  0  0  0  0
  151.6568  144.2043  161.0605 C   0  0  0  0  0  0  0  0  0  0  0  0
  151.0024  144.0966  159.8031 O   0  0  0  0  0  0  0  0  0  0  0  0
  146.0019  143.3864  153.1593 S   0  0  0  0  0  0  0  0  0  0  0  0
  143.9719  146.0415  154.6824 H   0  0  0  0  0  0  0  0  0  0  0  0
  143.1328  145.1136  153.4380 H   0  0  0  0  0  0  0  0  0  0  0  0
  144.6535  145.9249  153.0608 H   0  0  0  0  0  0  0  0  0  0  0  0
  144.1523  143.7178  156.2765 H   0  0  0  0  0  0  0  0  0  0  0  0
  147.2706  140.4728  155.1264 H   0  0  0  0  0  0  0  0  0  0  0  0
  145.8237  139.7107  153.2912 H   0  0  0  0  0  0  0  0  0  0  0  0
  147.4846  139.2143  153.0135 H   0  0  0  0  0  0  0  0  0  0  0  0
  146.8143  140.5750  152.1184 H   0  0  0  0  0  0  0  0  0  0  0  0
  149.4055  140.7351  153.8058 H   0  0  0  0  0  0  0  0  0  0  0  0
  148.7923  142.2402  153.1679 H   0  0  0  0  0  0  0  0  0  0  0  0
  149.0299  143.2292  155.2975 H   0  0  0  0  0  0  0  0  0  0  0  0
  150.0063  143.5011  157.0335 H   0  0  0  0  0  0  0  0  0  0  0  0
  150.4562  141.8113  159.0705 H   0  0  0  0  0  0  0  0  0  0  0  0
  151.8391  141.4474  158.0588 H   0  0  0  0  0  0  0  0  0  0  0  0
  152.8317  144.0403  156.9748 H   0  0  0  0  0  0  0  0  0  0  0  0
  152.6956  145.3566  158.1367 H   0  0  0  0  0  0  0  0  0  0  0  0
  151.2845  144.8415  157.2320 H   0  0  0  0  0  0  0  0  0  0  0  0
  153.5345  142.1038  159.3128 H   0  0  0  0  0  0  0  0  0  0  0  0
  153.9001  143.8112  159.5180 H   0  0  0  0  0  0  0  0  0  0  0  0
  152.1323  142.1127  161.2917 H   0  0  0  0  0  0  0  0  0  0  0  0
  153.4540  143.1816  161.7847 H   0  0  0  0  0  0  0  0  0  0  0  0
  150.9487  144.1609  161.8880 H   0  0  0  0  0  0  0  0  0  0  0  0
  152.1825  145.1591  161.1081 H   0  0  0  0  0  0  0  0  0  0  0  0
  1  2  1  0  0  0  0
  1 21  1  0  0  0  0
  1 22  1  0  0  0  0
  1 23  1  0  0  0  0
  2 20  1  0  0  0  0
  2  3  2  0  0  0  0
  3  4  1  0  0  0  0
  3 24  1  0  0  0  0
  4  5  2  0  0  0  0
  5  6  1  0  0  0  0
  5 20  1  0  0  0  0
  6  7  1  0  0  0  0
  6  8  1  0  0  0  0
  6 25  1  0  0  0  0
  7 26  1  0  0  0  0
  7 27  1  0  0  0  0
  7 28  1  0  0  0  0
  8  9  1  0  0  0  0
  8 29  1  0  0  0  0
  8 30  1  0  0  0  0
  9 10  1  0  0  0  0
  9 31  1  0  0  0  0
 10 11  2  0  0  0  0
 10 12  1  0  0  0  0
 12 13  1  0  0  0  0
 12 32  1  0  0  0  0
 13 14  1  0  0  0  0
 13 33  1  0  0  0  0
 13 34  1  0  0  0  0
 14 19  1  0  0  0  0
 14 15  1  0  0  0  0
 14 16  1  0  0  0  0
 15 35  1  0  0  0  0
 15 36  1  0  0  0  0
 15 37  1  0  0  0  0
 16 17  1  0  0  0  0
 16 38  1  0  0  0  0
 16 39  1  0  0  0  0
 17 18  1  0  0  0  0
 17 40  1  0  0  0  0
 17 41  1  0  0  0  0
 18 19  1  0  0  0  0
 18 42  1  0  0  0  0
 18 43  1  0  0  0  0
M  END
> <s_m_source_file>
AV-unprocessed.smi

> <i_m_source_file_index>
2414

> <i_lp_mmshare_version>
43012

> <i_f3d_flags>
0

> <s_epik_input>
W0NIM11jMVtjSF1uYyhzMSlbQ0BIXShbQ0gzXSlbQ0gyXVtOSF1DKD1PKVtOSF1bQ0gyXVtDQEBdMihbQ0gzXSlbQ0gyXVtDSDJdW0NIMl1PMg==

> <s_epik_cmdline>
J2VwaWtfcHl0aG9uJywgJy1waCcsICc3LjAnLCAnLXRuJywgJzgnLCAnLW1hJywgJzIwMCcsICctbWV0YWxfYmluZGluZycsICctaW1hZScsICc8aW5maWxlLm1hZT4nLCAnLW9tYWUnLCAnPG91dGZpbGUubWFlPic=

> <r_epik_Ionization_Penalty>
0.000646956

> <r_epik_Ionization_Penalty_Charging>
0

> <r_epik_Ionization_Penalty_Neutral>
0.000646956

> <r_epik_State_Penalty>
0.000375727

> <r_epik_Charging_Adjusted_Penalty>
0.000375727

> <i_epik_Tot_Q>
0

> <i_epik_Tot_abs_Q>
0

> <r_epik_Metal_State_Penalty>
-0

> <b_epik_Metal_Only>
0

> <s_lp_Force_Field>
OPLS_2005

> <r_lp_Energy>
8.05024

> <b_lp_Chiralities_Consistent>
1

> <s_lp_Variant>
AV-unprocessed.smi:2414-4

> <Gold.Version>
5.8.1

> <Gold.Id.Protein>
6NUR|6NUR_protein|mol2

> <Gold.PLP.Fitness>
47.7526

> <Gold.PLP.PLP>
-45.0554

> <Gold.PLP.part.hbond>
-1.9195

> <Gold.PLP.part.metal>
0.0000

> <Gold.PLP.part.buried>
-5.4572

> <Gold.PLP.part.nonpolar>
-38.9062

> <Gold.PLP.part.repulsive>
0.4686

> <Gold.PLP.ligand.clash>
0.0000

> <Gold.PLP.ligand.torsion>
0.9563

> <Gold.PLP.Chemscore.Hbond>
1.4903

> <Gold.PLP.Chemscore.CHOScore>
0.0000

> <Gold.PLP.Chemscore.Metal>
0.0000

> <Gold.Chemscore.Hbonds>
donor molecule, donor type, donor heavy atom, donor atom, acceptor molecule, acceptor atom, score
      L1  H     9    31       P1  8028  1.00
      L1  H    12    32       P1  8028  0.59

> <Gold.PLP.Chemscore.Internal.Correction>
0.1388

> <Gold.Rescore>
     Score         DG    S(hbond)    S(metal)    S(lipo)     H(rot)  DE(clash)    DE(int)     intcor
     20.43     -21.61       1.88        0.00     120.41       1.65       0.36       0.83       ----

> <Gold.Chemscore.Fitness>
20.4261

> <Gold.Chemscore.DG>
-21.6146

> <Gold.Chemscore.ZeroCoef>
-5.4800

> <Gold.Chemscore.Hbond>
1.8789

> <Gold.Chemscore.Metal>
0.0000

> <Gold.Chemscore.Lipo>
120.4146

> <Gold.Chemscore.Internal_Hbond>
0.0000

> <Gold.Chemscore.DEClash>
0.3627

> <Gold.Chemscore.DEInternal>
0.8258

> <Gold.Chemscore.Rot>
1.6522

> <Gold.Chemscore.Internal.Correction>
   9.000000E+99

> <Gold.Chemscore.Hbonds>
donor molecule, donor type, donor heavy atom, donor atom, acceptor molecule, acceptor atom, score
      L1  H     9    31       P1  8028  0.93
      L1  H    12    32       P1  8028  0.57

> <Gold.Chemscore.Hbond.Weighted>
-6.2756

> <Gold.Chemscore.Metal.Weighted>
-0.0000

> <Gold.Chemscore.Lipo.Weighted>
-14.0885

> <Gold.Chemscore.Internal_Hbond.Weighted>
0.0000

> <Gold.Chemscore.DEClash.Weighted>
0.3627

> <Gold.Chemscore.DEInternal.Weighted>
0.8258

> <Gold.Chemscore.Rot.Weighted>
4.2295

> <Gold.Chemscore.Internal.Correction.Weighted>
   9.000000E+99

> <Gold.Protein.RotatedTorsions>
[ 6907 6896 6895 6894 ] final   97.89 input  -60.11 | X-H torsion
[ 7974 7965 7964 7962 ] final  -25.53 input  175.53 | X-H torsion
[ 8008 7997 7996 7995 ] final -151.52 input   59.86 | X-H torsion
[ 10167 10162 10161 10158 ] final   78.72 input  -65.29 | X-H torsion
[ 10718 10713 10712 10709 ] final  -69.94 input   66.30 | X-H torsion
[ 10763 10752 10751 10750 ] final  -25.19 input  -60.55 | X-H torsion
[ 11005 11000 10999 10996 ] final -102.10 input  -57.11 | X-H torsion

> <Gold.Protein.ActiveResidues>
 VAL166  LYS551  ARG553  GLY616  TRP617  ASP618  TYR619  PRO620  LYS621  CYS622 
 ASP623  PHE694  ASN695  SER759  ASP760  ASP761  ALA762  ILE779  LEU786  VAL792 
 PHE793  MET794  SER795  GLU796  ALA797  LYS798  CYS799  TRP800  GLU811  SER814 

> <Gold.Protein.RotatedAtoms>
  152.5417  134.0665  159.8174 H   0  0  0  0  0  0  0  0  0  0  0  0  # atno 6907 bound_to 6896
  151.0785  133.5401  159.2629 H   0  0  0  0  0  0  0  0  0  0  0  0  # atno 6908 bound_to 6896
  151.2237  135.0537  159.9014 H   0  0  0  0  0  0  0  0  0  0  0  0  # atno 6909 bound_to 6896
  146.1485  140.4898  142.8621 H   0  0  0  0  0  0  0  0  0  0  0  0  # atno 7974 bound_to 7965
  155.6407  140.0701  157.2619 H   0  0  0  0  0  0  0  0  0  0  0  0  # atno 8008 bound_to 7997
  154.4184  140.1751  156.1619 H   0  0  0  0  0  0  0  0  0  0  0  0  # atno 8009 bound_to 7997
  155.9858  140.3349  155.6709 H   0  0  0  0  0  0  0  0  0  0  0  0  # atno 8010 bound_to 7997
  139.9679  144.5915  150.8012 H   0  0  0  0  0  0  0  0  0  0  0  0  # atno 10167 bound_to 10162
  156.0431  130.4322  150.2222 H   0  0  0  0  0  0  0  0  0  0  0  0  # atno 10718 bound_to 10713
  153.6958  135.6959  153.5077 H   0  0  0  0  0  0  0  0  0  0  0  0  # atno 10763 bound_to 10752
  153.2379  135.4316  155.0665 H   0  0  0  0  0  0  0  0  0  0  0  0  # atno 10764 bound_to 10752
  154.8359  135.3500  154.6499 H   0  0  0  0  0  0  0  0  0  0  0  0  # atno 10765 bound_to 10752
  141.1203  133.8531  157.1317 H   0  0  0  0  0  0  0  0  0  0  0  0  # atno 11005 bound_to 11000
  144.7875  140.5966  143.6564 LP  0  0  0  0  0  0  0  0  0  0  0  0  # atno 17320 bound_to 7965
  145.4880  139.1490  143.3725 LP  0  0  0  0  0  0  0  0  0  0  0  0  # atno 17321 bound_to 7965
  140.7531  143.3003  151.3097 LP  0  0  0  0  0  0  0  0  0  0  0  0  # atno 17342 bound_to 10162
  139.6503  144.0374  152.2621 LP  0  0  0  0  0  0  0  0  0  0  0  0  # atno 17343 bound_to 10162
  157.0315  131.0009  151.3310 LP  0  0  0  0  0  0  0  0  0  0  0  0  # atno 17370 bound_to 10713
  157.5274  130.8036  149.7877 LP  0  0  0  0  0  0  0  0  0  0  0  0  # atno 17371 bound_to 10713
  140.0156  134.9969  157.0485 LP  0  0  0  0  0  0  0  0  0  0  0  0  # atno 17394 bound_to 11000
  140.4526  134.1566  155.7183 LP  0  0  0  0  0  0  0  0  0  0  0  0  # atno 17395 bound_to 11000

$$$$
