AV-unprocessed.smi:258|AV-procd|sdf|1972|dock1
  -GOLD-   2262021133D 1   1.00000     0.00000
 Structure written by MMmdl.
 57 60  0  0  0  0  0  0  0  0  1 V2000
  143.1226  132.9104  149.7124 O   0  0  0  0  0  0  0  0  0  0  0  0
  144.2726  133.2438  150.4606 C   0  0  0  0  0  0  0  0  0  0  0  0
  144.0709  134.5860  151.1755 C   0  0  0  0  0  0  0  0  0  0  0  0
  145.2713  134.9390  151.8483 O   0  0  0  0  0  0  0  0  0  0  0  0
  145.3089  136.2773  152.3275 C   0  0  1  0  0  0  0  0  0  0  0  0
  144.0184  136.6230  153.0981 C   0  0  0  0  0  0  0  0  0  0  0  0
  144.1393  138.0090  153.7490 C   0  0  0  0  0  0  0  0  0  0  0  0
  145.3900  138.0933  154.6380 C   0  0  0  0  0  0  0  0  0  0  0  0
  146.5883  137.7176  153.8859 N   0  0  0  0  0  0  0  0  0  0  0  0
  147.7928  138.0294  154.4280 C   0  0  0  0  0  0  0  0  0  0  0  0
  148.6613  137.0399  154.7710 N   0  0  0  0  0  0  0  0  0  0  0  0
  149.8547  137.3388  155.2929 C   0  0  0  0  0  0  0  0  0  0  0  0
  150.3733  138.5396  155.5564 N   0  0  0  0  0  0  0  0  0  0  0  0
  149.5029  139.5355  155.2245 C   0  0  0  0  0  0  0  0  0  0  0  0
  148.2065  139.3718  154.6598 C   0  0  0  0  0  0  0  0  0  0  0  0
  147.6149  140.6155  154.4678 N   0  0  0  0  0  0  0  0  0  0  0  0
  148.5136  141.4649  154.8865 C   0  0  0  0  0  0  0  0  0  0  0  0
  149.6769  140.9007  155.3574 N   0  0  0  0  0  0  0  0  0  0  0  0
  150.8390  141.5976  155.8754 C   0  0  0  0  0  0  0  0  0  0  0  0
  150.9686  141.4450  157.4125 C   0  0  1  0  0  0  0  0  0  0  0  0
  151.3226  139.9926  157.8101 C   0  0  0  0  0  0  0  0  0  0  0  0
  152.6301  139.6680  157.3868 O   0  0  0  0  0  0  0  0  0  0  0  0
  151.9341  142.5075  157.9978 C   0  0  1  0  0  0  0  0  0  0  0  0
  151.5407  143.9655  157.7566 C   0  0  0  0  0  0  0  0  0  0  0  0
  151.7570  144.6422  159.1119 C   0  0  0  0  0  0  0  0  0  0  0  0
  152.6103  143.7571  159.8201 O   0  0  0  0  0  0  0  0  0  0  0  0
  152.1797  142.4429  159.5096 C   0  0  0  0  0  0  0  0  0  0  0  0
  146.5333  136.4002  153.2527 C   0  0  0  0  0  0  0  0  0  0  0  0
  142.4742  133.5859  149.8406 H   0  0  0  0  0  0  0  0  0  0  0  0
  144.5138  132.4490  151.1672 H   0  0  0  0  0  0  0  0  0  0  0  0
  145.1069  133.3201  149.7630 H   0  0  0  0  0  0  0  0  0  0  0  0
  143.8544  135.3536  150.4314 H   0  0  0  0  0  0  0  0  0  0  0  0
  143.2157  134.5411  151.8505 H   0  0  0  0  0  0  0  0  0  0  0  0
  145.4405  136.9702  151.4939 H   0  0  0  0  0  0  0  0  0  0  0  0
  143.1524  136.6071  152.4371 H   0  0  0  0  0  0  0  0  0  0  0  0
  143.8376  135.8723  153.8684 H   0  0  0  0  0  0  0  0  0  0  0  0
  144.1928  138.7727  152.9720 H   0  0  0  0  0  0  0  0  0  0  0  0
  143.2478  138.2266  154.3379 H   0  0  0  0  0  0  0  0  0  0  0  0
  145.4923  139.1085  155.0241 H   0  0  0  0  0  0  0  0  0  0  0  0
  145.2801  137.4299  155.4971 H   0  0  0  0  0  0  0  0  0  0  0  0
  150.4839  136.4947  155.5341 H   0  0  0  0  0  0  0  0  0  0  0  0
  148.3525  142.5328  154.8615 H   0  0  0  0  0  0  0  0  0  0  0  0
  151.7246  141.2211  155.3618 H   0  0  0  0  0  0  0  0  0  0  0  0
  150.7560  142.6452  155.5835 H   0  0  0  0  0  0  0  0  0  0  0  0
  149.9974  141.6660  157.8601 H   0  0  0  0  0  0  0  0  0  0  0  0
  151.2605  139.8502  158.8890 H   0  0  0  0  0  0  0  0  0  0  0  0
  150.6399  139.2760  157.3555 H   0  0  0  0  0  0  0  0  0  0  0  0
  152.7253  138.7277  157.3988 H   0  0  0  0  0  0  0  0  0  0  0  0
  152.9032  142.3766  157.5127 H   0  0  0  0  0  0  0  0  0  0  0  0
  152.1907  144.4046  156.9988 H   0  0  0  0  0  0  0  0  0  0  0  0
  150.5148  144.0944  157.4123 H   0  0  0  0  0  0  0  0  0  0  0  0
  152.1962  145.6359  159.0216 H   0  0  0  0  0  0  0  0  0  0  0  0
  150.8119  144.7341  159.6495 H   0  0  0  0  0  0  0  0  0  0  0  0
  151.2705  142.2304  160.0718 H   0  0  0  0  0  0  0  0  0  0  0  0
  152.9315  141.7022  159.7827 H   0  0  0  0  0  0  0  0  0  0  0  0
  146.4842  135.6416  154.0352 H   0  0  0  0  0  0  0  0  0  0  0  0
  147.4380  136.1971  152.6801 H   0  0  0  0  0  0  0  0  0  0  0  0
  1  2  1  0  0  0  0
  1 29  1  0  0  0  0
  2  3  1  0  0  0  0
  2 30  1  0  0  0  0
  2 31  1  0  0  0  0
  3  4  1  0  0  0  0
  3 32  1  0  0  0  0
  3 33  1  0  0  0  0
  4  5  1  0  0  0  0
  5 28  1  0  0  0  0
  5  6  1  0  0  0  0
  5 34  1  0  0  0  0
  6  7  1  0  0  0  0
  6 35  1  0  0  0  0
  6 36  1  0  0  0  0
  7  8  1  0  0  0  0
  7 37  1  0  0  0  0
  7 38  1  0  0  0  0
  8  9  1  0  0  0  0
  8 39  1  0  0  0  0
  8 40  1  0  0  0  0
  9 10  1  0  0  0  0
  9 28  1  0  0  0  0
 10 15  1  0  0  0  0
 10 11  2  0  0  0  0
 11 12  1  0  0  0  0
 12 13  2  0  0  0  0
 12 41  1  0  0  0  0
 13 14  1  0  0  0  0
 14 18  1  0  0  0  0
 14 15  2  0  0  0  0
 15 16  1  0  0  0  0
 16 17  2  0  0  0  0
 17 18  1  0  0  0  0
 17 42  1  0  0  0  0
 18 19  1  0  0  0  0
 19 20  1  0  0  0  0
 19 43  1  0  0  0  0
 19 44  1  0  0  0  0
 20 21  1  0  0  0  0
 20 23  1  0  0  0  0
 20 45  1  0  0  0  0
 21 22  1  0  0  0  0
 21 46  1  0  0  0  0
 21 47  1  0  0  0  0
 22 48  1  0  0  0  0
 23 27  1  0  0  0  0
 23 24  1  0  0  0  0
 23 49  1  0  0  0  0
 24 25  1  0  0  0  0
 24 50  1  0  0  0  0
 24 51  1  0  0  0  0
 25 26  1  0  0  0  0
 25 52  1  0  0  0  0
 25 53  1  0  0  0  0
 26 27  1  0  0  0  0
 27 54  1  0  0  0  0
 27 55  1  0  0  0  0
 28 56  1  0  0  0  0
 28 57  1  0  0  0  0
M  END
> <s_m_source_file>
AV-unprocessed.smi

> <i_m_source_file_index>
258

> <i_lp_mmshare_version>
43012

> <i_f3d_flags>
0

> <s_epik_input>
W09IXVtDSDJdW0NIMl1PW0NAQEhdMVtDSDJdW0NIMl1bQ0gyXU4oW0NIMl0xKWMobltjSF1uMiljKGMyMyluW2NIXW4zW0NIMl1bQ0BIXShbQ0gyXVtPSF0pW0NAQEhdNFtDSDJdW0NIMl1PW0NIMl00

> <s_epik_cmdline>
J2VwaWtfcHl0aG9uJywgJy1waCcsICc3LjAnLCAnLXRuJywgJzgnLCAnLW1hJywgJzIwMCcsICctbWV0YWxfYmluZGluZycsICctaW1hZScsICc8aW5maWxlLm1hZT4nLCAnLW9tYWUnLCAnPG91dGZpbGUubWFlPic=

> <r_lp_tautomer_probability>
1

> <r_epik_Ionization_Penalty>
0.00349036

> <r_epik_Ionization_Penalty_Charging>
0

> <r_epik_Ionization_Penalty_Neutral>
0.00349036

> <r_epik_State_Penalty>
0.00229798

> <r_epik_Charging_Adjusted_Penalty>
0.00229798

> <i_epik_Tot_Q>
0

> <i_epik_Tot_abs_Q>
0

> <r_epik_Metal_State_Penalty>
-0

> <b_epik_Metal_Only>
0

> <s_lp_Force_Field>
OPLS_2005

> <r_lp_Energy>
51.0481

> <b_lp_Chiralities_Consistent>
1

> <s_lp_Variant>
AV-unprocessed.smi:258-8

> <Gold.Version>
5.8.1

> <Gold.Id.Protein>
6NUR|6NUR_protein|mol2

> <Gold.PLP.Fitness>
45.7380

> <Gold.PLP.PLP>
-37.2676

> <Gold.PLP.part.hbond>
-2.5546

> <Gold.PLP.part.metal>
0.0000

> <Gold.PLP.part.buried>
-5.3741

> <Gold.PLP.part.nonpolar>
-29.7132

> <Gold.PLP.part.repulsive>
0.4451

> <Gold.PLP.ligand.clash>
0.0000

> <Gold.PLP.ligand.torsion>
0.7020

> <Gold.PLP.Chemscore.Hbond>
1.9760

> <Gold.PLP.Chemscore.CHOScore>
1.0000

> <Gold.PLP.Chemscore.Metal>
0.0000

> <Gold.Chemscore.Hbonds>
donor molecule, donor type, donor heavy atom, donor atom, acceptor molecule, acceptor atom, score
      L1  H     1    29       P1 10186  1.00
      P1  H  7997  8009       L1    22  0.85
      L1  C    17    42       P1  8028  1.00

> <Gold.PLP.Chemscore.Internal.Correction>
0.9464

> <Gold.Rescore>
     Score         DG    S(hbond)    S(metal)    S(lipo)     H(rot)  DE(clash)    DE(int)     intcor
      7.27     -10.97       1.61        0.00      93.27       4.22       1.53       2.16       ----

> <Gold.Chemscore.Fitness>
7.2727

> <Gold.Chemscore.DG>
-10.9694

> <Gold.Chemscore.ZeroCoef>
-5.4800

> <Gold.Chemscore.Hbond>
1.6142

> <Gold.Chemscore.Metal>
0.0000

> <Gold.Chemscore.Lipo>
93.2719

> <Gold.Chemscore.Internal_Hbond>
0.0000

> <Gold.Chemscore.DEClash>
1.5336

> <Gold.Chemscore.DEInternal>
2.1631

> <Gold.Chemscore.Rot>
4.2246

> <Gold.Chemscore.Internal.Correction>
   9.000000E+99

> <Gold.Chemscore.Hbonds>
donor molecule, donor type, donor heavy atom, donor atom, acceptor molecule, acceptor atom, score
      L1  H     1    29       P1 10186  0.98
      P1  H  7997  8009       L1    22  0.15

> <Gold.Chemscore.Hbond.Weighted>
-5.3914

> <Gold.Chemscore.Metal.Weighted>
-0.0000

> <Gold.Chemscore.Lipo.Weighted>
-10.9128

> <Gold.Chemscore.Internal_Hbond.Weighted>
0.0000

> <Gold.Chemscore.DEClash.Weighted>
1.5336

> <Gold.Chemscore.DEInternal.Weighted>
2.1631

> <Gold.Chemscore.Rot.Weighted>
10.8149

> <Gold.Chemscore.Internal.Correction.Weighted>
   9.000000E+99

> <Gold.Protein.RotatedTorsions>
[ 6907 6896 6895 6894 ] final -147.49 input  -60.11 | X-H torsion
[ 7974 7965 7964 7962 ] final  -62.06 input  175.53 | X-H torsion
[ 8008 7997 7996 7995 ] final  178.86 input   59.86 | X-H torsion
[ 10167 10162 10161 10158 ] final   94.79 input  -65.29 | X-H torsion
[ 10718 10713 10712 10709 ] final   54.08 input   66.30 | X-H torsion
[ 10763 10752 10751 10750 ] final -127.92 input  -60.55 | X-H torsion
[ 11005 11000 10999 10996 ] final -135.40 input  -57.11 | X-H torsion

> <Gold.Protein.ActiveResidues>
 VAL166  LYS551  ARG553  GLY616  TRP617  ASP618  TYR619  PRO620  LYS621  CYS622 
 ASP623  PHE694  ASN695  SER759  ASP760  ASP761  ALA762  ILE779  LEU786  VAL792 
 PHE793  MET794  SER795  GLU796  ALA797  LYS798  CYS799  TRP800  GLU811  SER814 

> <Gold.Protein.RotatedAtoms>
  151.1564  133.4873  159.2594 H   0  0  0  0  0  0  0  0  0  0  0  0  # atno 6907 bound_to 6896
  151.1499  135.0222  159.8674 H   0  0  0  0  0  0  0  0  0  0  0  0  # atno 6908 bound_to 6896
  152.5463  134.1449  159.8548 H   0  0  0  0  0  0  0  0  0  0  0  0  # atno 6909 bound_to 6896
  145.7960  140.8683  143.0256 H   0  0  0  0  0  0  0  0  0  0  0  0  # atno 7974 bound_to 7965
  156.0499  140.1323  157.0062 H   0  0  0  0  0  0  0  0  0  0  0  0  # atno 8008 bound_to 7997
  154.4430  140.1013  156.6431 H   0  0  0  0  0  0  0  0  0  0  0  0  # atno 8009 bound_to 7997
  155.5539  140.3463  155.4477 H   0  0  0  0  0  0  0  0  0  0  0  0  # atno 8010 bound_to 7997
  139.8050  144.6798  150.9715 H   0  0  0  0  0  0  0  0  0  0  0  0  # atno 10167 bound_to 10162
  157.5225  130.8574  149.8577 H   0  0  0  0  0  0  0  0  0  0  0  0  # atno 10718 bound_to 10713
  154.8754  135.3946  154.3672 H   0  0  0  0  0  0  0  0  0  0  0  0  # atno 10763 bound_to 10752
  153.4437  135.7027  153.6158 H   0  0  0  0  0  0  0  0  0  0  0  0  # atno 10764 bound_to 10752
  153.4728  135.3786  155.2369 H   0  0  0  0  0  0  0  0  0  0  0  0  # atno 10765 bound_to 10752
  140.8901  134.1822  157.4533 H   0  0  0  0  0  0  0  0  0  0  0  0  # atno 11005 bound_to 11000
  144.6775  140.0190  143.7484 LP  0  0  0  0  0  0  0  0  0  0  0  0  # atno 17320 bound_to 7965
  145.9928  139.3028  143.0974 LP  0  0  0  0  0  0  0  0  0  0  0  0  # atno 17321 bound_to 7965
  140.7819  143.4243  151.0793 LP  0  0  0  0  0  0  0  0  0  0  0  0  # atno 17342 bound_to 10162
  139.7912  143.8215  152.3152 LP  0  0  0  0  0  0  0  0  0  0  0  0  # atno 17343 bound_to 10162
  156.0363  130.3750  150.1552 LP  0  0  0  0  0  0  0  0  0  0  0  0  # atno 17370 bound_to 10713
  156.9739  130.9843  151.3452 LP  0  0  0  0  0  0  0  0  0  0  0  0  # atno 17371 bound_to 10713
  139.8729  134.9855  156.5284 LP  0  0  0  0  0  0  0  0  0  0  0  0  # atno 17394 bound_to 11000
  140.8357  133.8244  155.9026 LP  0  0  0  0  0  0  0  0  0  0  0  0  # atno 17395 bound_to 11000

$$$$
