AV-unprocessed.smi:2464|AV-procd|sdf|9721|dock9
  -GOLD-   2272013363D 1   1.00000     0.00000
 Structure written by MMmdl.
 32 33  0  0  0  0  0  0  0  0  3 V2000
  152.7018  143.1747  161.0932 C   0  0  0  0  0  0  0  0  0  0  0  0
  152.1491  143.2873  159.6685 C   0  0  0  0  0  0  0  0  0  0  0  0
  152.2608  141.9960  158.9867 N   0  0  0  0  0  0  0  0  0  0  0  0
  151.6807  141.6571  157.8245 C   0  0  0  0  0  0  0  0  0  0  0  0
  150.9675  142.4177  157.1696 O   0  0  0  0  0  0  0  0  0  0  0  0
  151.9661  140.3869  157.4927 N   0  0  0  0  0  0  0  0  0  0  0  0
  151.5154  139.6533  156.3588 C   0  0  0  0  0  0  0  0  0  0  0  0
  150.5919  140.2050  155.4376 C   0  0  0  0  0  0  0  0  0  0  0  0
  150.2250  139.4541  154.3056 C   0  0  0  0  0  0  0  0  0  0  0  0
  150.7202  138.2300  154.0380 N   0  0  0  0  0  0  0  0  0  0  0  0
  151.6121  137.7094  154.9060 C   0  0  0  0  0  0  0  0  0  0  0  0
  152.0495  138.3649  156.0802 C   0  0  0  0  0  0  0  0  0  0  0  0
  153.0277  137.6947  156.9582 N   0  3  0  0  0  0  0  0  0  0  0  0
  153.5116  138.3252  157.8926 O   0  0  0  0  0  0  0  0  0  0  0  0
  153.2920  136.5212  156.7202 O   0  5  0  0  0  0  0  0  0  0  0  0
  150.7669  143.9426  159.4577 C   0  0  0  0  0  0  0  0  0  0  0  0
  151.4945  145.2615  159.1858 C   0  0  0  0  0  0  0  0  0  0  0  0
  152.7003  144.4125  158.7722 C   0  0  0  0  0  0  0  0  0  0  0  0
  152.7364  144.1455  161.5880 H   0  0  0  0  0  0  0  0  0  0  0  0
  153.7162  142.7742  161.0968 H   0  0  0  0  0  0  0  0  0  0  0  0
  152.0878  142.5213  161.7134 H   0  0  0  0  0  0  0  0  0  0  0  0
  152.8258  141.2977  159.4476 H   0  0  0  0  0  0  0  0  0  0  0  0
  152.4768  139.8535  158.1810 H   0  0  0  0  0  0  0  0  0  0  0  0
  150.1753  141.1921  155.5696 H   0  0  0  0  0  0  0  0  0  0  0  0
  149.5232  139.8543  153.5892 H   0  0  0  0  0  0  0  0  0  0  0  0
  151.9837  136.7269  154.6540 H   0  0  0  0  0  0  0  0  0  0  0  0
  150.2316  143.5755  158.5793 H   0  0  0  0  0  0  0  0  0  0  0  0
  150.1255  143.9518  160.3395 H   0  0  0  0  0  0  0  0  0  0  0  0
  151.0642  145.8657  158.3869 H   0  0  0  0  0  0  0  0  0  0  0  0
  151.6704  145.8469  160.0897 H   0  0  0  0  0  0  0  0  0  0  0  0
  153.6648  144.8161  159.0821 H   0  0  0  0  0  0  0  0  0  0  0  0
  152.6927  144.1725  157.7069 H   0  0  0  0  0  0  0  0  0  0  0  0
  1  2  1  0  0  0  0
  1 19  1  0  0  0  0
  1 20  1  0  0  0  0
  1 21  1  0  0  0  0
  2 18  1  0  0  0  0
  2  3  1  0  0  0  0
  2 16  1  0  0  0  0
  3  4  1  0  0  0  0
  3 22  1  0  0  0  0
  4  5  2  0  0  0  0
  4  6  1  0  0  0  0
  6  7  1  0  0  0  0
  6 23  1  0  0  0  0
  7 12  1  0  0  0  0
  7  8  2  0  0  0  0
  8  9  1  0  0  0  0
  8 24  1  0  0  0  0
  9 10  2  0  0  0  0
  9 25  1  0  0  0  0
 10 11  1  0  0  0  0
 11 12  2  0  0  0  0
 11 26  1  0  0  0  0
 12 13  1  0  0  0  0
 13 14  2  0  0  0  0
 13 15  1  0  0  0  0
 16 17  1  0  0  0  0
 16 27  1  0  0  0  0
 16 28  1  0  0  0  0
 17 18  1  0  0  0  0
 17 29  1  0  0  0  0
 17 30  1  0  0  0  0
 18 31  1  0  0  0  0
 18 32  1  0  0  0  0
M  CHG  1  13   1
M  CHG  1  15  -1
M  END
> <s_m_source_file>
AV-unprocessed.smi

> <i_m_source_file_index>
2464

> <i_lp_mmshare_version>
43012

> <i_f3d_flags>
0

> <s_epik_input>
W0NIMl0xW0NIMl1bQ0gyXUMxKFtDSDNdKVtOSF1DKD1PKVtOSF1jMltjSF1bY0hdbltjSF1jMltOK10oPU8pW08tXQ==

> <s_epik_cmdline>
J2VwaWtfcHl0aG9uJywgJy1waCcsICc3LjAnLCAnLXRuJywgJzgnLCAnLW1hJywgJzIwMCcsICctbWV0YWxfYmluZGluZycsICctaW1hZScsICc8aW5maWxlLm1hZT4nLCAnLW9tYWUnLCAnPG91dGZpbGUubWFlPic=

> <r_lp_tautomer_probability>
1

> <r_epik_Ionization_Penalty>
0.000161487

> <r_epik_Ionization_Penalty_Charging>
0

> <r_epik_Ionization_Penalty_Neutral>
0.000161487

> <r_epik_State_Penalty>
-0

> <r_epik_Charging_Adjusted_Penalty>
0

> <i_epik_Tot_Q>
0

> <i_epik_Tot_abs_Q>
2

> <r_epik_Metal_State_Penalty>
-0

> <b_epik_Metal_Only>
0

> <s_lp_Force_Field>
OPLS_2005

> <r_lp_Energy>
25.6435

> <b_lp_Chiralities_Consistent>
1

> <s_lp_Variant>
AV-unprocessed.smi:2464-1

> <Gold.Version>
5.8.1

> <Gold.Id.Protein>
6NUR|6NUR_protein|mol2

> <Gold.PLP.Fitness>
43.6949

> <Gold.PLP.PLP>
-35.2854

> <Gold.PLP.part.hbond>
-2.0000

> <Gold.PLP.part.metal>
0.0000

> <Gold.PLP.part.buried>
-4.4147

> <Gold.PLP.part.nonpolar>
-29.7564

> <Gold.PLP.part.repulsive>
0.5081

> <Gold.PLP.ligand.clash>
0.0000

> <Gold.PLP.ligand.torsion>
0.2885

> <Gold.PLP.Chemscore.Hbond>
1.8960

> <Gold.PLP.Chemscore.CHOScore>
1.0000

> <Gold.PLP.Chemscore.Metal>
0.0000

> <Gold.Chemscore.Hbonds>
donor molecule, donor type, donor heavy atom, donor atom, acceptor molecule, acceptor atom, score
      P1  H  7997  8009       L1    14  0.60
      P1  H 10752 10763       L1    15  0.93
      L1  C     9    25       P1  7957  1.00

> <Gold.PLP.Chemscore.Internal.Correction>
0.2986

> <Gold.Rescore>
     Score         DG    S(hbond)    S(metal)    S(lipo)     H(rot)  DE(clash)    DE(int)     intcor
     15.35     -20.25       1.91        0.00      93.58       1.00       0.03       4.86       ----

> <Gold.Chemscore.Fitness>
15.3544

> <Gold.Chemscore.DG>
-20.2487

> <Gold.Chemscore.ZeroCoef>
-5.4800

> <Gold.Chemscore.Hbond>
1.9100

> <Gold.Chemscore.Metal>
0.0000

> <Gold.Chemscore.Lipo>
93.5839

> <Gold.Chemscore.Internal_Hbond>
0.0000

> <Gold.Chemscore.DEClash>
0.0310

> <Gold.Chemscore.DEInternal>
4.8633

> <Gold.Chemscore.Rot>
1.0000

> <Gold.Chemscore.Internal.Correction>
   9.000000E+99

> <Gold.Chemscore.Hbonds>
donor molecule, donor type, donor heavy atom, donor atom, acceptor molecule, acceptor atom, score
      P1  H  7997  8009       L1    14  0.39
      P1  H 10752 10763       L1    15  0.90

> <Gold.Chemscore.Hbond.Weighted>
-6.3793

> <Gold.Chemscore.Metal.Weighted>
-0.0000

> <Gold.Chemscore.Lipo.Weighted>
-10.9493

> <Gold.Chemscore.Internal_Hbond.Weighted>
0.0000

> <Gold.Chemscore.DEClash.Weighted>
0.0310

> <Gold.Chemscore.DEInternal.Weighted>
4.8633

> <Gold.Chemscore.Rot.Weighted>
2.5600

> <Gold.Chemscore.Internal.Correction.Weighted>
   9.000000E+99

> <Gold.Protein.RotatedTorsions>
[ 6907 6896 6895 6894 ] final  -17.08 input  -60.11 | X-H torsion
[ 7974 7965 7964 7962 ] final -174.75 input  175.53 | X-H torsion
[ 8008 7997 7996 7995 ] final  149.54 input   59.86 | X-H torsion
[ 10167 10162 10161 10158 ] final  -45.18 input  -65.29 | X-H torsion
[ 10718 10713 10712 10709 ] final  -13.55 input   66.30 | X-H torsion
[ 10763 10752 10751 10750 ] final  133.42 input  -60.55 | X-H torsion
[ 11005 11000 10999 10996 ] final  -41.12 input  -57.11 | X-H torsion

> <Gold.Protein.ActiveResidues>
 VAL166  LYS551  ARG553  GLY616  TRP617  ASP618  TYR619  PRO620  LYS621  CYS622 
 ASP623  PHE694  ASN695  SER759  ASP760  ASP761  ALA762  ILE779  LEU786  VAL792 
 PHE793  MET794  SER795  GLU796  ALA797  LYS798  CYS799  TRP800  GLU811  SER814 

> <Gold.Protein.RotatedAtoms>
  151.2988  135.0763  159.9230 H   0  0  0  0  0  0  0  0  0  0  0  0  # atno 6907 bound_to 6896
  152.5302  133.9855  159.7837 H   0  0  0  0  0  0  0  0  0  0  0  0  # atno 6908 bound_to 6896
  151.0138  133.5889  159.2710 H   0  0  0  0  0  0  0  0  0  0  0  0  # atno 6909 bound_to 6896
  144.7130  140.1424  143.6390 H   0  0  0  0  0  0  0  0  0  0  0  0  # atno 7974 bound_to 7965
  156.2751  140.2099  156.5875 H   0  0  0  0  0  0  0  0  0  0  0  0  # atno 8008 bound_to 7997
  154.7009  140.0521  157.0480 H   0  0  0  0  0  0  0  0  0  0  0  0  # atno 8009 bound_to 7997
  155.0736  140.3179  155.4626 H   0  0  0  0  0  0  0  0  0  0  0  0  # atno 8010 bound_to 7997
  140.6868  143.2892  151.3602 H   0  0  0  0  0  0  0  0  0  0  0  0  # atno 10167 bound_to 10162
  156.6286  130.4895  149.6137 H   0  0  0  0  0  0  0  0  0  0  0  0  # atno 10718 bound_to 10713
  153.8068  135.3134  155.3396 H   0  0  0  0  0  0  0  0  0  0  0  0  # atno 10763 bound_to 10752
  154.8067  135.4693  154.0413 H   0  0  0  0  0  0  0  0  0  0  0  0  # atno 10764 bound_to 10752
  153.1779  135.6888  153.8606 H   0  0  0  0  0  0  0  0  0  0  0  0  # atno 10765 bound_to 10752
  141.0223  133.6857  156.2414 H   0  0  0  0  0  0  0  0  0  0  0  0  # atno 11005 bound_to 11000
  145.9190  139.2534  143.1392 LP  0  0  0  0  0  0  0  0  0  0  0  0  # atno 17320 bound_to 7965
  145.9639  140.8813  143.0196 LP  0  0  0  0  0  0  0  0  0  0  0  0  # atno 17321 bound_to 7965
  139.6234  144.0863  152.2412 LP  0  0  0  0  0  0  0  0  0  0  0  0  # atno 17342 bound_to 10162
  140.0314  144.6078  150.7485 LP  0  0  0  0  0  0  0  0  0  0  0  0  # atno 17343 bound_to 10162
  156.2253  130.6762  151.1410 LP  0  0  0  0  0  0  0  0  0  0  0  0  # atno 17370 bound_to 10713
  157.7207  131.0683  150.6148 LP  0  0  0  0  0  0  0  0  0  0  0  0  # atno 17371 bound_to 10713
  140.6551  134.5026  157.5580 LP  0  0  0  0  0  0  0  0  0  0  0  0  # atno 17394 bound_to 11000
  139.9154  134.8257  156.1385 LP  0  0  0  0  0  0  0  0  0  0  0  0  # atno 17395 bound_to 11000

$$$$
