AV-unprocessed.smi:1824|AV-procd|sdf|7405|dock6
  -GOLD-   22720 9 83D 1   1.00000     0.00000
 Structure written by MMmdl.
 45 47  0  0  0  0  0  0  0  0  2 V2000
  145.6156  138.8622  154.3721 C   0  0  0  0  0  0  0  0  0  0  0  0
  146.7931  139.6807  153.8316 C   0  0  2  0  0  0  0  0  0  0  0  0
  148.0602  139.5149  154.6918 C   0  0  0  0  0  0  0  0  0  0  0  0
  149.1502  140.3808  154.1790 N   0  3  2  0  0  0  0  0  0  0  0  0
  150.4292  140.2330  154.9199 C   0  0  0  0  0  0  0  0  0  0  0  0
  150.5875  141.2837  156.0362 C   0  0  1  0  0  0  0  0  0  0  0  0
  149.9889  140.7843  157.2174 O   0  0  0  0  0  0  0  0  0  0  0  0
  152.0679  141.6129  156.3100 C   0  0  0  0  0  0  0  0  0  0  0  0
  152.2450  142.9324  156.8908 N   0  0  0  0  0  0  0  0  0  0  0  0
  151.8281  144.1056  156.3770 C   0  0  0  0  0  0  0  0  0  0  0  0
  152.0887  145.2052  157.0779 N   0  0  0  0  0  0  0  0  0  0  0  0
  152.7538  144.6865  158.1757 C   0  0  0  0  0  0  0  0  0  0  0  0
  153.3000  145.3333  159.3071 C   0  0  0  0  0  0  0  0  0  0  0  0
  153.9409  144.5867  160.3175 C   0  0  0  0  0  0  0  0  0  0  0  0
  154.4575  145.2224  161.3960 F   0  0  0  0  0  0  0  0  0  0  0  0
  154.0460  143.1840  160.2113 C   0  0  0  0  0  0  0  0  0  0  0  0
  154.6628  142.4746  161.1858 F   0  0  0  0  0  0  0  0  0  0  0  0
  153.5098  142.5175  159.0927 C   0  0  0  0  0  0  0  0  0  0  0  0
  152.8702  143.2664  158.0878 C   0  0  0  0  0  0  0  0  0  0  0  0
  148.6954  141.7888  154.1013 C   0  0  0  0  0  0  0  0  0  0  0  0
  147.4115  141.8945  153.2567 C   0  0  2  0  0  0  0  0  0  0  0  0
  146.8636  143.3253  153.2125 C   0  0  0  0  0  0  0  0  0  0  0  0
  146.4133  141.0528  153.8234 O   0  0  0  0  0  0  0  0  0  0  0  0
  145.8529  137.7982  154.3916 H   0  0  0  0  0  0  0  0  0  0  0  0
  144.7310  138.9933  153.7484 H   0  0  0  0  0  0  0  0  0  0  0  0
  145.3552  139.1663  155.3862 H   0  0  0  0  0  0  0  0  0  0  0  0
  146.9980  139.3582  152.8091 H   0  0  0  0  0  0  0  0  0  0  0  0
  147.8463  139.7747  155.7299 H   0  0  0  0  0  0  0  0  0  0  0  0
  148.3686  138.4700  154.6824 H   0  0  0  0  0  0  0  0  0  0  0  0
  150.4831  139.2397  155.3689 H   0  0  0  0  0  0  0  0  0  0  0  0
  151.2608  140.2915  154.2157 H   0  0  0  0  0  0  0  0  0  0  0  0
  150.0757  142.2058  155.7623 H   0  0  0  0  0  0  0  0  0  0  0  0
  149.7624  139.8765  157.0828 H   0  0  0  0  0  0  0  0  0  0  0  0
  152.5103  140.8736  156.9790 H   0  0  0  0  0  0  0  0  0  0  0  0
  152.6391  141.5713  155.3816 H   0  0  0  0  0  0  0  0  0  0  0  0
  151.3004  144.1552  155.4355 H   0  0  0  0  0  0  0  0  0  0  0  0
  153.2255  146.4065  159.3996 H   0  0  0  0  0  0  0  0  0  0  0  0
  153.5884  141.4439  159.0111 H   0  0  0  0  0  0  0  0  0  0  0  0
  148.5200  142.1709  155.1086 H   0  0  0  0  0  0  0  0  0  0  0  0
  149.4783  142.4039  153.6557 H   0  0  0  0  0  0  0  0  0  0  0  0
  147.6160  141.5708  152.2345 H   0  0  0  0  0  0  0  0  0  0  0  0
  147.5893  144.0102  152.7734 H   0  0  0  0  0  0  0  0  0  0  0  0
  146.6229  143.6882  154.2124 H   0  0  0  0  0  0  0  0  0  0  0  0
  145.9546  143.3761  152.6126 H   0  0  0  0  0  0  0  0  0  0  0  0
  149.3378  140.0919  153.2291 H   0  0  0  0  0  0  0  0  0  0  0  0
  1  2  1  0  0  0  0
  1 24  1  0  0  0  0
  1 25  1  0  0  0  0
  1 26  1  0  0  0  0
  2 23  1  0  0  0  0
  2  3  1  0  0  0  0
  2 27  1  0  0  0  0
  3  4  1  0  0  0  0
  3 28  1  0  0  0  0
  3 29  1  0  0  0  0
  4  5  1  0  0  0  0
  4 20  1  0  0  0  0
  4 45  1  0  0  0  0
  5  6  1  0  0  0  0
  5 30  1  0  0  0  0
  5 31  1  0  0  0  0
  6  7  1  0  0  0  0
  6  8  1  0  0  0  0
  6 32  1  0  0  0  0
  7 33  1  0  0  0  0
  8  9  1  0  0  0  0
  8 34  1  0  0  0  0
  8 35  1  0  0  0  0
  9 19  1  0  0  0  0
  9 10  1  0  0  0  0
 10 11  2  0  0  0  0
 10 36  1  0  0  0  0
 11 12  1  0  0  0  0
 12 19  2  0  0  0  0
 12 13  1  0  0  0  0
 13 14  2  0  0  0  0
 13 37  1  0  0  0  0
 14 15  1  0  0  0  0
 14 16  1  0  0  0  0
 16 17  1  0  0  0  0
 16 18  2  0  0  0  0
 18 19  1  0  0  0  0
 18 38  1  0  0  0  0
 20 21  1  0  0  0  0
 20 39  1  0  0  0  0
 20 40  1  0  0  0  0
 21 22  1  0  0  0  0
 21 23  1  0  0  0  0
 21 41  1  0  0  0  0
 22 42  1  0  0  0  0
 22 43  1  0  0  0  0
 22 44  1  0  0  0  0
M  CHG  1   4   1
M  END
> <s_m_source_file>
AV-unprocessed.smi

> <i_m_source_file_index>
1824

> <i_lp_mmshare_version>
43012

> <i_f3d_flags>
0

> <s_epik_input>
W0NIM11bQ0BASF0xW0NIMl1OKFtDSDJdW0NASF0oTzEpW0NIM10pW0NIMl1bQ0BIXShbT0hdKVtDSDJdbihbY0hdbjIpYyhjMjMpW2NIXWMoRiljKEYpW2NIXTM=

> <s_epik_cmdline>
J2VwaWtfcHl0aG9uJywgJy1waCcsICc3LjAnLCAnLXRuJywgJzgnLCAnLW1hJywgJzIwMCcsICctbWV0YWxfYmluZGluZycsICctaW1hZScsICc8aW5maWxlLm1hZT4nLCAnLW9tYWUnLCAnPG91dGZpbGUubWFlPic=

> <r_epik_Ionization_Penalty>
0.61967

> <r_epik_Ionization_Penalty_Charging>
0.608065

> <r_epik_Ionization_Penalty_Neutral>
0.0116057

> <r_epik_State_Penalty>
0.664205

> <r_epik_Charging_Adjusted_Penalty>
1.27227

> <i_epik_Tot_Q>
1

> <i_epik_Tot_abs_Q>
1

> <r_epik_Metal_State_Penalty>
0.654947

> <b_epik_Metal_Only>
0

> <s_lp_Force_Field>
OPLS_2005

> <r_lp_Energy>
20.1531

> <b_lp_Chiralities_Consistent>
1

> <s_lp_Variant>
AV-unprocessed.smi:1824-13

> <Gold.Version>
5.8.1

> <Gold.Id.Protein>
6NUR|6NUR_protein|mol2

> <Gold.PLP.Fitness>
54.7303

> <Gold.PLP.PLP>
-50.7512

> <Gold.PLP.part.hbond>
-1.0000

> <Gold.PLP.part.metal>
0.0000

> <Gold.PLP.part.buried>
-5.8421

> <Gold.PLP.part.nonpolar>
-44.2506

> <Gold.PLP.part.repulsive>
0.4268

> <Gold.PLP.ligand.clash>
0.0000

> <Gold.PLP.ligand.torsion>
1.0220

> <Gold.PLP.Chemscore.Hbond>
1.0000

> <Gold.PLP.Chemscore.CHOScore>
1.0000

> <Gold.PLP.Chemscore.Metal>
0.0000

> <Gold.Chemscore.Hbonds>
donor molecule, donor type, donor heavy atom, donor atom, acceptor molecule, acceptor atom, score
      L1  H     4    45       P1  7957  0.86
      L1  C    10    36       P1  8028  0.69

> <Gold.PLP.Chemscore.Internal.Correction>
0.0231

> <Gold.Rescore>
     Score         DG    S(hbond)    S(metal)    S(lipo)     H(rot)  DE(clash)    DE(int)     intcor
     13.00     -16.51       0.91        0.00     119.13       2.33       2.90       0.62       ----

> <Gold.Chemscore.Fitness>
13.0006

> <Gold.Chemscore.DG>
-16.5124

> <Gold.Chemscore.ZeroCoef>
-5.4800

> <Gold.Chemscore.Hbond>
0.9122

> <Gold.Chemscore.Metal>
0.0000

> <Gold.Chemscore.Lipo>
119.1281

> <Gold.Chemscore.Internal_Hbond>
0.0000

> <Gold.Chemscore.DEClash>
2.8956

> <Gold.Chemscore.DEInternal>
0.6162

> <Gold.Chemscore.Rot>
2.3251

> <Gold.Chemscore.Internal.Correction>
   9.000000E+99

> <Gold.Chemscore.Hbonds>
donor molecule, donor type, donor heavy atom, donor atom, acceptor molecule, acceptor atom, score
      L1  H     4    45       P1  7957  0.84

> <Gold.Chemscore.Hbond.Weighted>
-3.0467

> <Gold.Chemscore.Metal.Weighted>
-0.0000

> <Gold.Chemscore.Lipo.Weighted>
-13.9380

> <Gold.Chemscore.Internal_Hbond.Weighted>
0.0000

> <Gold.Chemscore.DEClash.Weighted>
2.8956

> <Gold.Chemscore.DEInternal.Weighted>
0.6162

> <Gold.Chemscore.Rot.Weighted>
5.9523

> <Gold.Chemscore.Internal.Correction.Weighted>
   9.000000E+99

> <Gold.Protein.RotatedTorsions>
[ 6907 6896 6895 6894 ] final   61.20 input  -60.11 | X-H torsion
[ 7974 7965 7964 7962 ] final  155.91 input  175.53 | X-H torsion
[ 8008 7997 7996 7995 ] final  101.84 input   59.86 | X-H torsion
[ 10167 10162 10161 10158 ] final  -78.38 input  -65.29 | X-H torsion
[ 10718 10713 10712 10709 ] final -122.67 input   66.30 | X-H torsion
[ 10763 10752 10751 10750 ] final  133.24 input  -60.55 | X-H torsion
[ 11005 11000 10999 10996 ] final   28.43 input  -57.11 | X-H torsion

> <Gold.Protein.ActiveResidues>
 VAL166  LYS551  ARG553  GLY616  TRP617  ASP618  TYR619  PRO620  LYS621  CYS622 
 ASP623  PHE694  ASN695  SER759  ASP760  ASP761  ALA762  ILE779  LEU786  VAL792 
 PHE793  MET794  SER795  GLU796  ALA797  LYS798  CYS799  TRP800  GLU811  SER814 

> <Gold.Protein.RotatedAtoms>
  152.4068  134.6192  160.0046 H   0  0  0  0  0  0  0  0  0  0  0  0  # atno 6907 bound_to 6896
  151.6381  133.3322  159.3132 H   0  0  0  0  0  0  0  0  0  0  0  0  # atno 6908 bound_to 6896
  150.7963  134.7065  159.6624 H   0  0  0  0  0  0  0  0  0  0  0  0  # atno 6909 bound_to 6896
  144.7996  139.7131  143.6187 H   0  0  0  0  0  0  0  0  0  0  0  0  # atno 7974 bound_to 7965
  156.1337  140.3191  155.8387 H   0  0  0  0  0  0  0  0  0  0  0  0  # atno 8008 bound_to 7997
  155.4285  140.0517  157.3037 H   0  0  0  0  0  0  0  0  0  0  0  0  # atno 8009 bound_to 7997
  154.4919  140.2095  155.9542 H   0  0  0  0  0  0  0  0  0  0  0  0  # atno 8010 bound_to 7997
  140.4687  143.2433  151.8238 H   0  0  0  0  0  0  0  0  0  0  0  0  # atno 10167 bound_to 10162
  156.1438  130.6485  150.9811 H   0  0  0  0  0  0  0  0  0  0  0  0  # atno 10718 bound_to 10713
  153.8038  135.3138  155.3393 H   0  0  0  0  0  0  0  0  0  0  0  0  # atno 10763 bound_to 10752
  154.8078  135.4686  154.0441 H   0  0  0  0  0  0  0  0  0  0  0  0  # atno 10764 bound_to 10752
  153.1797  135.6891  153.8582 H   0  0  0  0  0  0  0  0  0  0  0  0  # atno 10765 bound_to 10752
  140.3157  134.2600  155.7726 H   0  0  0  0  0  0  0  0  0  0  0  0  # atno 11005 bound_to 11000
  146.2273  139.5747  142.9578 LP  0  0  0  0  0  0  0  0  0  0  0  0  # atno 17320 bound_to 7965
  145.5587  141.0406  143.2238 LP  0  0  0  0  0  0  0  0  0  0  0  0  # atno 17321 bound_to 7965
  139.4815  144.4918  151.9174 LP  0  0  0  0  0  0  0  0  0  0  0  0  # atno 17342 bound_to 10162
  140.4004  144.2501  150.5893 LP  0  0  0  0  0  0  0  0  0  0  0  0  # atno 17343 bound_to 10162
  157.6599  131.0883  150.7863 LP  0  0  0  0  0  0  0  0  0  0  0  0  # atno 17370 bound_to 10713
  156.7936  130.4898  149.5381 LP  0  0  0  0  0  0  0  0  0  0  0  0  # atno 17371 bound_to 10713
  141.2098  133.7738  156.9973 LP  0  0  0  0  0  0  0  0  0  0  0  0  # atno 17394 bound_to 11000
  140.0986  134.9549  157.1887 LP  0  0  0  0  0  0  0  0  0  0  0  0  # atno 17395 bound_to 11000

$$$$
