AV-unprocessed.smi:102|AV-procd|sdf|948|dock1
  -GOLD-   2262017473D 1   1.00000     0.00000
 Structure written by MMmdl.
 44 45  0  0  0  0  0  0  0  0  1 V2000
  152.2382  145.1369  159.1331 C   0  0  0  0  0  0  0  0  0  0  0  0
  152.0842  143.6229  159.2047 C   0  0  0  0  0  0  0  0  0  0  0  0
  152.9582  142.9126  159.7019 O   0  0  0  0  0  0  0  0  0  0  0  0
  150.9265  143.1952  158.6786 O   0  0  0  0  0  0  0  0  0  0  0  0
  150.6511  141.8053  158.6355 C   0  0  0  0  0  0  0  0  0  0  0  0
  151.8032  141.0770  157.9168 C   0  0  1  0  0  0  0  0  0  0  0  0
  152.6068  140.4040  158.8801 O   0  0  0  0  0  0  0  0  0  0  0  0
  152.0548  139.1514  159.1533 C   0  0  2  0  0  0  0  0  0  0  0  0
  153.1762  138.1734  159.4227 N   0  0  0  0  0  0  0  0  0  0  0  0
  153.4359  137.7491  160.7191 C   0  0  0  0  0  0  0  0  0  0  0  0
  154.4455  136.9024  161.0312 C   0  0  0  0  0  0  0  0  0  0  0  0
  154.6297  136.5327  162.3100 F   0  0  0  0  0  0  0  0  0  0  0  0
  155.3373  136.3926  159.9941 C   0  0  0  0  0  0  0  0  0  0  0  0
  156.2732  135.6165  160.1764 O   0  0  0  0  0  0  0  0  0  0  0  0
  155.0563  136.8661  158.7095 N   0  0  0  0  0  0  0  0  0  0  0  0
  154.0237  137.7442  158.3753 C   0  0  0  0  0  0  0  0  0  0  0  0
  153.8892  138.1115  157.2099 O   0  0  0  0  0  0  0  0  0  0  0  0
  151.1740  138.7460  157.9553 C   0  0  1  0  0  0  0  0  0  0  0  0
  149.8278  138.6085  158.4035 O   0  0  0  0  0  0  0  0  0  0  0  0
  149.4324  137.4975  159.0497 C   0  0  0  0  0  0  0  0  0  0  0  0
  147.9161  137.3756  159.1153 C   0  0  0  0  0  0  0  0  0  0  0  0
  150.1681  136.6418  159.5408 O   0  0  0  0  0  0  0  0  0  0  0  0
  151.3547  139.9283  157.0029 C   0  0  1  0  0  0  0  0  0  0  0  0
  150.1876  140.2071  156.2353 O   0  0  0  0  0  0  0  0  0  0  0  0
  150.0618  139.7236  154.9883 C   0  0  0  0  0  0  0  0  0  0  0  0
  148.6406  139.8549  154.4573 C   0  0  0  0  0  0  0  0  0  0  0  0
  150.9609  139.2307  154.3076 O   0  0  0  0  0  0  0  0  0  0  0  0
  155.6558  136.5516  157.9604 H   0  0  0  0  0  0  0  0  0  0  0  0
  151.3184  145.6073  158.7843 H   0  0  0  0  0  0  0  0  0  0  0  0
  153.0435  145.4009  158.4475 H   0  0  0  0  0  0  0  0  0  0  0  0
  152.4775  145.5385  160.1179 H   0  0  0  0  0  0  0  0  0  0  0  0
  150.5012  141.4141  159.6424 H   0  0  0  0  0  0  0  0  0  0  0  0
  149.7190  141.6587  158.0886 H   0  0  0  0  0  0  0  0  0  0  0  0
  152.4015  141.7967  157.3570 H   0  0  0  0  0  0  0  0  0  0  0  0
  151.4855  139.2200  160.0818 H   0  0  0  0  0  0  0  0  0  0  0  0
  152.8093  138.0985  161.5273 H   0  0  0  0  0  0  0  0  0  0  0  0
  151.5423  137.8197  157.5131 H   0  0  0  0  0  0  0  0  0  0  0  0
  147.4762  138.2988  159.4930 H   0  0  0  0  0  0  0  0  0  0  0  0
  147.6253  136.5590  159.7767 H   0  0  0  0  0  0  0  0  0  0  0  0
  147.5101  137.1775  158.1232 H   0  0  0  0  0  0  0  0  0  0  0  0
  152.1779  139.6831  156.3310 H   0  0  0  0  0  0  0  0  0  0  0  0
  147.9195  139.5781  155.2266 H   0  0  0  0  0  0  0  0  0  0  0  0
  148.4926  139.2049  153.5946 H   0  0  0  0  0  0  0  0  0  0  0  0
  148.4462  140.8837  154.1536 H   0  0  0  0  0  0  0  0  0  0  0  0
  1  2  1  0  0  0  0
  1 29  1  0  0  0  0
  1 30  1  0  0  0  0
  1 31  1  0  0  0  0
  2  3  2  0  0  0  0
  2  4  1  0  0  0  0
  4  5  1  0  0  0  0
  5  6  1  0  0  0  0
  5 32  1  0  0  0  0
  5 33  1  0  0  0  0
  6 23  1  0  0  0  0
  6  7  1  0  0  0  0
  6 34  1  0  0  0  0
  7  8  1  0  0  0  0
  8  9  1  0  0  0  0
  8 18  1  0  0  0  0
  8 35  1  0  0  0  0
  9 16  1  0  0  0  0
  9 10  1  0  0  0  0
 10 11  2  0  0  0  0
 10 36  1  0  0  0  0
 11 12  1  0  0  0  0
 11 13  1  0  0  0  0
 13 14  2  0  0  0  0
 13 15  1  0  0  0  0
 15 28  1  0  0  0  0
 15 16  1  0  0  0  0
 16 17  2  0  0  0  0
 18 19  1  0  0  0  0
 18 23  1  0  0  0  0
 18 37  1  0  0  0  0
 19 20  1  0  0  0  0
 20 21  1  0  0  0  0
 20 22  2  0  0  0  0
 21 38  1  0  0  0  0
 21 39  1  0  0  0  0
 21 40  1  0  0  0  0
 23 24  1  0  0  0  0
 23 41  1  0  0  0  0
 24 25  1  0  0  0  0
 25 26  1  0  0  0  0
 25 27  2  0  0  0  0
 26 42  1  0  0  0  0
 26 43  1  0  0  0  0
 26 44  1  0  0  0  0
M  END
> <s_m_source_file>
AV-unprocessed.smi

> <i_m_source_file_index>
102

> <i_lp_mmshare_version>
43012

> <i_f3d_flags>
0

> <s_epik_input>
W0NIM11DKD1PKU9bQ0gyXVtDQEBIXTFPW0NASF0oW0NAQEhdKE9DKD1PKVtDSDNdKVtDQEhdMU9DKD1PKVtDSDNdKW4yW2NIXWMoRiljKD1PKVtuSF1jMj1P

> <s_epik_cmdline>
J2VwaWtfcHl0aG9uJywgJy1waCcsICc3LjAnLCAnLXRuJywgJzgnLCAnLW1hJywgJzIwMCcsICctbWV0YWxfYmluZGluZycsICctaW1hZScsICc8aW5maWxlLm1hZT4nLCAnLW9tYWUnLCAnPG91dGZpbGUubWFlPic=

> <r_lp_tautomer_probability>
0.999537

> <r_epik_Ionization_Penalty>
0.058267

> <r_epik_Ionization_Penalty_Charging>
0.058267

> <r_epik_Ionization_Penalty_Neutral>
6.57791e-16

> <r_epik_State_Penalty>
0.0503774

> <r_epik_Charging_Adjusted_Penalty>
0.108644

> <i_epik_Tot_Q>
0

> <i_epik_Tot_abs_Q>
0

> <r_epik_Metal_State_Penalty>
2.6644

> <b_epik_Metal_Only>
0

> <s_epik_Chemistry_Notes>
This compound has an ester and may undergo hydrolysis at high or low pH. This compound contains an acetal/aminal-like group ( X-CH(R)-Y where X, Y are N, S, or O) that may be acid/base labile, releasing an aldehyde.

> <s_lp_Force_Field>
OPLS_2005

> <r_lp_Energy>
11.7279

> <b_lp_Chiralities_Consistent>
1

> <s_lp_Variant>
AV-unprocessed.smi:102-4

> <Gold.Version>
5.8.1

> <Gold.Id.Protein>
6NUR|6NUR_protein|mol2

> <Gold.PLP.Fitness>
41.0929

> <Gold.PLP.PLP>
-36.0375

> <Gold.PLP.part.hbond>
-3.0000

> <Gold.PLP.part.metal>
0.0000

> <Gold.PLP.part.buried>
-6.1429

> <Gold.PLP.part.nonpolar>
-27.2449

> <Gold.PLP.part.repulsive>
0.3532

> <Gold.PLP.ligand.clash>
0.0000

> <Gold.PLP.ligand.torsion>
1.8271

> <Gold.PLP.Chemscore.Hbond>
2.7680

> <Gold.PLP.Chemscore.CHOScore>
0.0000

> <Gold.PLP.Chemscore.Metal>
0.0000

> <Gold.Chemscore.Hbonds>
donor molecule, donor type, donor heavy atom, donor atom, acceptor molecule, acceptor atom, score
      P1  H  6896  6907       L1    22  1.00
      P1  H  7989  7998       L1    27  0.95
      P1  H  7997  8010       L1    17  0.75

> <Gold.PLP.Chemscore.Internal.Correction>
0.4056

> <Gold.Rescore>
     Score         DG    S(hbond)    S(metal)    S(lipo)     H(rot)  DE(clash)    DE(int)     intcor
      4.68     -10.65       2.81        0.00      52.64       4.05       0.08       5.89       ----

> <Gold.Chemscore.Fitness>
4.6779

> <Gold.Chemscore.DG>
-10.6466

> <Gold.Chemscore.ZeroCoef>
-5.4800

> <Gold.Chemscore.Hbond>
2.8088

> <Gold.Chemscore.Metal>
0.0000

> <Gold.Chemscore.Lipo>
52.6357

> <Gold.Chemscore.Internal_Hbond>
0.0000

> <Gold.Chemscore.DEClash>
0.0802

> <Gold.Chemscore.DEInternal>
5.8885

> <Gold.Chemscore.Rot>
4.0520

> <Gold.Chemscore.Internal.Correction>
   9.000000E+99

> <Gold.Chemscore.Hbonds>
donor molecule, donor type, donor heavy atom, donor atom, acceptor molecule, acceptor atom, score
      P1  H  6896  6907       L1    22  0.94
      P1  H  7989  7998       L1    27  0.21
      P1  H  7997  8010       L1    17  0.60

> <Gold.Chemscore.Hbond.Weighted>
-9.3814

> <Gold.Chemscore.Metal.Weighted>
-0.0000

> <Gold.Chemscore.Lipo.Weighted>
-6.1584

> <Gold.Chemscore.Internal_Hbond.Weighted>
0.0000

> <Gold.Chemscore.DEClash.Weighted>
0.0802

> <Gold.Chemscore.DEInternal.Weighted>
5.8885

> <Gold.Chemscore.Rot.Weighted>
10.3732

> <Gold.Chemscore.Internal.Correction.Weighted>
   9.000000E+99

> <Gold.Protein.RotatedTorsions>
[ 6907 6896 6895 6894 ] final  -54.54 input  -60.11 | X-H torsion
[ 7974 7965 7964 7962 ] final -147.58 input  175.53 | X-H torsion
[ 8008 7997 7996 7995 ] final   42.65 input   59.86 | X-H torsion
[ 10167 10162 10161 10158 ] final   40.93 input  -65.29 | X-H torsion
[ 10718 10713 10712 10709 ] final  156.60 input   66.30 | X-H torsion
[ 10763 10752 10751 10750 ] final   49.00 input  -60.55 | X-H torsion
[ 11005 11000 10999 10996 ] final  103.62 input  -57.11 | X-H torsion

> <Gold.Protein.ActiveResidues>
 VAL166  LYS551  ARG553  GLY616  TRP617  ASP618  TYR619  PRO620  LYS621  CYS622 
 ASP623  PHE694  ASN695  SER759  ASP760  ASP761  ALA762  ILE779  LEU786  VAL792 
 PHE793  MET794  SER795  GLU796  ALA797  LYS798  CYS799  TRP800  GLU811  SER814 

> <Gold.Protein.RotatedAtoms>
  150.8329  134.7590  159.6868 H   0  0  0  0  0  0  0  0  0  0  0  0  # atno 6907 bound_to 6896
  152.4431  134.5547  159.9887 H   0  0  0  0  0  0  0  0  0  0  0  0  # atno 6908 bound_to 6896
  151.5704  133.3353  159.3024 H   0  0  0  0  0  0  0  0  0  0  0  0  # atno 6909 bound_to 6896
  144.8084  140.5309  143.5659 H   0  0  0  0  0  0  0  0  0  0  0  0  # atno 7974 bound_to 7965
  155.2897  140.3378  155.4253 H   0  0  0  0  0  0  0  0  0  0  0  0  # atno 8008 bound_to 7997
  156.2052  140.1748  156.7856 H   0  0  0  0  0  0  0  0  0  0  0  0  # atno 8009 bound_to 7997
  154.5611  140.0687  156.8804 H   0  0  0  0  0  0  0  0  0  0  0  0  # atno 8010 bound_to 7997
  140.3693  144.2126  150.6134 H   0  0  0  0  0  0  0  0  0  0  0  0  # atno 10167 bound_to 10162
  157.2027  131.0680  151.2015 H   0  0  0  0  0  0  0  0  0  0  0  0  # atno 10718 bound_to 10713
  152.9789  135.5926  154.4018 H   0  0  0  0  0  0  0  0  0  0  0  0  # atno 10763 bound_to 10752
  154.3663  135.2767  155.2293 H   0  0  0  0  0  0  0  0  0  0  0  0  # atno 10764 bound_to 10752
  154.4268  135.6046  153.6099 H   0  0  0  0  0  0  0  0  0  0  0  0  # atno 10765 bound_to 10752
  139.8785  134.9270  156.5237 H   0  0  0  0  0  0  0  0  0  0  0  0  # atno 11005 bound_to 11000
  145.5382  139.1475  143.3462 LP  0  0  0  0  0  0  0  0  0  0  0  0  # atno 17320 bound_to 7965
  146.2379  140.5522  142.8946 LP  0  0  0  0  0  0  0  0  0  0  0  0  # atno 17321 bound_to 7965
  140.5049  143.2307  151.8623 LP  0  0  0  0  0  0  0  0  0  0  0  0  # atno 17342 bound_to 10162
  139.4805  144.5017  151.9052 LP  0  0  0  0  0  0  0  0  0  0  0  0  # atno 17343 bound_to 10162
  157.3751  130.7201  149.6591 LP  0  0  0  0  0  0  0  0  0  0  0  0  # atno 17370 bound_to 10713
  155.9698  130.4188  150.4345 LP  0  0  0  0  0  0  0  0  0  0  0  0  # atno 17371 bound_to 10713
  140.8431  133.8189  155.9095 LP  0  0  0  0  0  0  0  0  0  0  0  0  # atno 17394 bound_to 11000
  140.9217  134.2133  157.4922 LP  0  0  0  0  0  0  0  0  0  0  0  0  # atno 17395 bound_to 11000

$$$$
