AV-unprocessed.smi:37|AV-procd|sdf|315|dock3
  -GOLD-   2262016133D 1   1.00000     0.00000
 Structure written by MMmdl.
 44 45  0  0  0  0  0  0  0  0  1 V2000
  142.5487  135.4977  153.9234 C   0  0  0  0  0  0  0  0  0  0  0  0
  142.7973  136.4110  155.1314 C   0  0  0  0  0  0  0  0  0  0  0  0
  143.6247  135.7214  156.2138 C   0  0  0  0  0  0  0  0  0  0  0  0
  143.2283  134.6962  156.7687 O   0  0  0  0  0  0  0  0  0  0  0  0
  144.7798  136.3569  156.4662 O   0  0  0  0  0  0  0  0  0  0  0  0
  145.7714  135.7204  157.2543 C   0  0  0  0  0  0  0  0  0  0  0  0
  147.0966  136.4875  157.1153 C   0  0  2  0  0  0  0  0  0  0  0  0
  147.5995  136.2367  155.7977 O   0  0  0  0  0  0  0  0  0  0  0  0
  148.9177  135.7767  155.8344 C   0  0  1  0  0  0  0  0  0  0  0  0
  149.8866  136.9326  155.6482 N   0  0  0  0  0  0  0  0  0  0  0  0
  149.4775  138.2080  155.2712 C   0  0  0  0  0  0  0  0  0  0  0  0
  150.3397  139.2365  155.0899 C   0  0  0  0  0  0  0  0  0  0  0  0
  149.8676  140.4411  154.7269 F   0  0  0  0  0  0  0  0  0  0  0  0
  151.7751  139.0488  155.2761 C   0  0  0  0  0  0  0  0  0  0  0  0
  152.6320  139.9199  155.1412 O   0  0  0  0  0  0  0  0  0  0  0  0
  152.1440  137.7488  155.6304 N   0  0  0  0  0  0  0  0  0  0  0  0
  151.2669  136.6793  155.8161 C   0  0  0  0  0  0  0  0  0  0  0  0
  151.7066  135.5694  156.1137 O   0  0  0  0  0  0  0  0  0  0  0  0
  149.0890  135.1351  157.2119 C   0  0  2  0  0  0  0  0  0  0  0  0
  148.3863  133.2678  157.1533 Br  0  0  0  0  0  0  0  0  0  0  0  0
  148.2112  136.0310  158.0742 C   0  0  2  0  0  0  0  0  0  0  0  0
  147.7344  135.3792  159.2456 O   0  0  0  0  0  0  0  0  0  0  0  0
  147.6467  136.0473  160.4096 C   0  0  0  0  0  0  0  0  0  0  0  0
  147.8230  137.2557  160.5649 O   0  0  0  0  0  0  0  0  0  0  0  0
  147.2986  135.1349  161.5829 C   0  0  0  0  0  0  0  0  0  0  0  0
  145.9398  135.4878  162.2031 C   0  0  0  0  0  0  0  0  0  0  0  0
  153.1291  137.5676  155.7582 H   0  0  0  0  0  0  0  0  0  0  0  0
  141.9040  135.9904  153.1957 H   0  0  0  0  0  0  0  0  0  0  0  0
  142.0601  134.5693  154.2215 H   0  0  0  0  0  0  0  0  0  0  0  0
  143.4803  135.2413  153.4176 H   0  0  0  0  0  0  0  0  0  0  0  0
  143.3130  137.3180  154.8153 H   0  0  0  0  0  0  0  0  0  0  0  0
  141.8449  136.7216  155.5616 H   0  0  0  0  0  0  0  0  0  0  0  0
  145.4383  135.7214  158.2928 H   0  0  0  0  0  0  0  0  0  0  0  0
  145.8928  134.6811  156.9477 H   0  0  0  0  0  0  0  0  0  0  0  0
  146.9128  137.5530  157.2573 H   0  0  0  0  0  0  0  0  0  0  0  0
  149.1136  135.1056  154.9960 H   0  0  0  0  0  0  0  0  0  0  0  0
  148.4332  138.4187  155.1028 H   0  0  0  0  0  0  0  0  0  0  0  0
  150.1270  135.0945  157.5413 H   0  0  0  0  0  0  0  0  0  0  0  0
  148.7850  136.9185  158.3470 H   0  0  0  0  0  0  0  0  0  0  0  0
  147.2908  134.1012  161.2363 H   0  0  0  0  0  0  0  0  0  0  0  0
  148.0845  135.2113  162.3347 H   0  0  0  0  0  0  0  0  0  0  0  0
  145.6969  134.7998  163.0128 H   0  0  0  0  0  0  0  0  0  0  0  0
  145.1390  135.4265  161.4653 H   0  0  0  0  0  0  0  0  0  0  0  0
  145.9387  136.4967  162.6174 H   0  0  0  0  0  0  0  0  0  0  0  0
  1  2  1  0  0  0  0
  1 28  1  0  0  0  0
  1 29  1  0  0  0  0
  1 30  1  0  0  0  0
  2  3  1  0  0  0  0
  2 31  1  0  0  0  0
  2 32  1  0  0  0  0
  3  4  2  0  0  0  0
  3  5  1  0  0  0  0
  5  6  1  0  0  0  0
  6  7  1  0  0  0  0
  6 33  1  0  0  0  0
  6 34  1  0  0  0  0
  7 21  1  0  0  0  0
  7  8  1  0  0  0  0
  7 35  1  0  0  0  0
  8  9  1  0  0  0  0
  9 10  1  0  0  0  0
  9 19  1  0  0  0  0
  9 36  1  0  0  0  0
 10 17  1  0  0  0  0
 10 11  1  0  0  0  0
 11 12  2  0  0  0  0
 11 37  1  0  0  0  0
 12 13  1  0  0  0  0
 12 14  1  0  0  0  0
 14 15  2  0  0  0  0
 14 16  1  0  0  0  0
 16 27  1  0  0  0  0
 16 17  1  0  0  0  0
 17 18  2  0  0  0  0
 19 20  1  0  0  0  0
 19 21  1  0  0  0  0
 19 38  1  0  0  0  0
 21 22  1  0  0  0  0
 21 39  1  0  0  0  0
 22 23  1  0  0  0  0
 23 24  2  0  0  0  0
 23 25  1  0  0  0  0
 25 26  1  0  0  0  0
 25 40  1  0  0  0  0
 25 41  1  0  0  0  0
 26 42  1  0  0  0  0
 26 43  1  0  0  0  0
 26 44  1  0  0  0  0
M  END
> <s_m_source_file>
AV-unprocessed.smi

> <i_m_source_file_index>
37

> <i_lp_mmshare_version>
43012

> <i_f3d_flags>
0

> <s_epik_input>
W0NIM11bQ0gyXUMoPU8pT1tDSDJdW0NAQEhdMU9bQ0BASF0objJbY0hdYyhGKWMoPU8pW25IXWMyPU8pW0NAQEhdKEJyKVtDQEhdMU9DKD1PKVtDSDJdW0NIM10=

> <s_epik_cmdline>
J2VwaWtfcHl0aG9uJywgJy1waCcsICc3LjAnLCAnLXRuJywgJzgnLCAnLW1hJywgJzIwMCcsICctbWV0YWxfYmluZGluZycsICctaW1hZScsICc8aW5maWxlLm1hZT4nLCAnLW9tYWUnLCAnPG91dGZpbGUubWFlPic=

> <r_lp_tautomer_probability>
0.999537

> <r_epik_Ionization_Penalty>
0.104106

> <r_epik_Ionization_Penalty_Charging>
0.104106

> <r_epik_Ionization_Penalty_Neutral>
3.94675e-16

> <r_epik_State_Penalty>
0.0940182

> <r_epik_Charging_Adjusted_Penalty>
0.198124

> <i_epik_Tot_Q>
0

> <i_epik_Tot_abs_Q>
0

> <r_epik_Metal_State_Penalty>
3.05314

> <b_epik_Metal_Only>
0

> <s_epik_Chemistry_Notes>
This compound has an ester and may undergo hydrolysis at high or low pH. This compound contains an acetal/aminal-like group ( X-CH(R)-Y where X, Y are N, S, or O) that may be acid/base labile, releasing an aldehyde.

> <s_lp_Force_Field>
OPLS_2005

> <r_lp_Energy>
24.3846

> <b_lp_Chiralities_Consistent>
1

> <s_lp_Variant>
AV-unprocessed.smi:37-13

> <Gold.Version>
5.8.1

> <Gold.Id.Protein>
6NUR|6NUR_protein|mol2

> <Gold.PLP.Fitness>
39.8718

> <Gold.PLP.PLP>
-28.3587

> <Gold.PLP.part.hbond>
-5.9499

> <Gold.PLP.part.metal>
0.0000

> <Gold.PLP.part.buried>
-3.7124

> <Gold.PLP.part.nonpolar>
-19.1025

> <Gold.PLP.part.repulsive>
0.2949

> <Gold.PLP.ligand.clash>
0.0000

> <Gold.PLP.ligand.torsion>
0.9501

> <Gold.PLP.Chemscore.Hbond>
4.4025

> <Gold.PLP.Chemscore.CHOScore>
0.0000

> <Gold.PLP.Chemscore.Metal>
0.0000

> <Gold.Chemscore.Hbonds>
donor molecule, donor type, donor heavy atom, donor atom, acceptor molecule, acceptor atom, score
      P1  H  6931  6943       L1    24  0.71
      P1  H  6934  6947       L1    24  0.85
      P1  H  7989  7998       L1    15  0.32
      P1  H  7997  8008       L1    15  1.00
      P1  H 10752 10764       L1    18  0.95
      P1  H 11000 11005       L1     4  0.31

> <Gold.PLP.Chemscore.Internal.Correction>
0.2057

> <Gold.Rescore>
     Score         DG    S(hbond)    S(metal)    S(lipo)     H(rot)  DE(clash)    DE(int)     intcor
     12.23     -14.12       3.86        0.00      36.40       3.33       0.05       1.83       ----

> <Gold.Chemscore.Fitness>
12.2325

> <Gold.Chemscore.DG>
-14.1169

> <Gold.Chemscore.ZeroCoef>
-5.4800

> <Gold.Chemscore.Hbond>
3.8633

> <Gold.Chemscore.Metal>
0.0000

> <Gold.Chemscore.Lipo>
36.4019

> <Gold.Chemscore.Internal_Hbond>
0.0000

> <Gold.Chemscore.DEClash>
0.0515

> <Gold.Chemscore.DEInternal>
1.8329

> <Gold.Chemscore.Rot>
3.3303

> <Gold.Chemscore.Internal.Correction>
   9.000000E+99

> <Gold.Chemscore.Hbonds>
donor molecule, donor type, donor heavy atom, donor atom, acceptor molecule, acceptor atom, score
      P1  H  6931  6943       L1    24  0.66
      P1  H  6934  6947       L1    24  0.83
      P1  H  7989  7998       L1    15  0.04
      P1  H  7997  8008       L1    15  0.97
      P1  H 10752 10764       L1    18  0.22
      P1  H 11000 11005       L1     4  0.31

> <Gold.Chemscore.Hbond.Weighted>
-12.9035

> <Gold.Chemscore.Metal.Weighted>
-0.0000

> <Gold.Chemscore.Lipo.Weighted>
-4.2590

> <Gold.Chemscore.Internal_Hbond.Weighted>
0.0000

> <Gold.Chemscore.DEClash.Weighted>
0.0515

> <Gold.Chemscore.DEInternal.Weighted>
1.8329

> <Gold.Chemscore.Rot.Weighted>
8.5256

> <Gold.Chemscore.Internal.Correction.Weighted>
   9.000000E+99

> <Gold.Protein.RotatedTorsions>
[ 6907 6896 6895 6894 ] final  143.51 input  -60.11 | X-H torsion
[ 7974 7965 7964 7962 ] final  -70.47 input  175.53 | X-H torsion
[ 8008 7997 7996 7995 ] final  -28.63 input   59.86 | X-H torsion
[ 10167 10162 10161 10158 ] final   41.41 input  -65.29 | X-H torsion
[ 10718 10713 10712 10709 ] final  -91.89 input   66.30 | X-H torsion
[ 10763 10752 10751 10750 ] final  -37.67 input  -60.55 | X-H torsion
[ 11005 11000 10999 10996 ] final  -96.41 input  -57.11 | X-H torsion

> <Gold.Protein.ActiveResidues>
 VAL166  LYS551  ARG553  GLY616  TRP617  ASP618  TYR619  PRO620  LYS621  CYS622 
 ASP623  PHE694  ASN695  SER759  ASP760  ASP761  ALA762  ILE779  LEU786  VAL792 
 PHE793  MET794  SER795  GLU796  ALA797  LYS798  CYS799  TRP800  GLU811  SER814 

> <Gold.Protein.RotatedAtoms>
  152.2054  133.4872  159.5080 H   0  0  0  0  0  0  0  0  0  0  0  0  # atno 6907 bound_to 6896
  150.6978  134.1536  159.4158 H   0  0  0  0  0  0  0  0  0  0  0  0  # atno 6908 bound_to 6896
  151.9454  135.0194  160.0589 H   0  0  0  0  0  0  0  0  0  0  0  0  # atno 6909 bound_to 6896
  145.6905  140.9155  143.0784 H   0  0  0  0  0  0  0  0  0  0  0  0  # atno 7974 bound_to 7965
  154.4324  140.1840  156.1120 H   0  0  0  0  0  0  0  0  0  0  0  0  # atno 8008 bound_to 7997
  156.0211  140.3340  155.7014 H   0  0  0  0  0  0  0  0  0  0  0  0  # atno 8009 bound_to 7997
  155.5975  140.0637  157.2733 H   0  0  0  0  0  0  0  0  0  0  0  0  # atno 8010 bound_to 7997
  140.3646  144.2184  150.6136 H   0  0  0  0  0  0  0  0  0  0  0  0  # atno 10167 bound_to 10162
  155.9997  130.4965  150.5542 H   0  0  0  0  0  0  0  0  0  0  0  0  # atno 10718 bound_to 10713
  153.9001  135.6803  153.4756 H   0  0  0  0  0  0  0  0  0  0  0  0  # atno 10763 bound_to 10752
  153.1134  135.4772  154.9071 H   0  0  0  0  0  0  0  0  0  0  0  0  # atno 10764 bound_to 10752
  154.7579  135.3202  154.8388 H   0  0  0  0  0  0  0  0  0  0  0  0  # atno 10765 bound_to 10752
  141.1412  133.8096  157.0567 H   0  0  0  0  0  0  0  0  0  0  0  0  # atno 11005 bound_to 11000
  144.6998  139.8815  143.7447 LP  0  0  0  0  0  0  0  0  0  0  0  0  # atno 17320 bound_to 7965
  146.0886  139.3875  143.0420 LP  0  0  0  0  0  0  0  0  0  0  0  0  # atno 17321 bound_to 7965
  140.5093  143.2295  151.8560 LP  0  0  0  0  0  0  0  0  0  0  0  0  # atno 17342 bound_to 10162
  139.4810  144.4968  151.9113 LP  0  0  0  0  0  0  0  0  0  0  0  0  # atno 17343 bound_to 10162
  157.3461  131.0725  151.1750 LP  0  0  0  0  0  0  0  0  0  0  0  0  # atno 17370 bound_to 10713
  157.2582  130.6646  149.5962 LP  0  0  0  0  0  0  0  0  0  0  0  0  # atno 17371 bound_to 10713
  140.0597  134.9761  157.1283 LP  0  0  0  0  0  0  0  0  0  0  0  0  # atno 17394 bound_to 11000
  140.3867  134.2229  155.7168 LP  0  0  0  0  0  0  0  0  0  0  0  0  # atno 17395 bound_to 11000

$$$$
