AV-unprocessed.smi:1420|AV-procd|sdf|5786|dock4
  -GOLD-   22720 5433D 1   1.00000     0.00000
 Structure written by MMmdl.
 38 39  0  0  0  0  0  0  0  0  1 V2000
  150.9637  145.4692  159.7822 C   0  0  0  0  0  0  0  0  0  0  0  0
  151.7003  144.2255  159.2198 C   0  0  2  0  0  0  0  0  0  0  0  0
  150.6482  143.2459  158.6219 C   0  0  0  0  0  0  0  0  0  0  0  0
  151.1485  142.5060  157.4680 N   0  0  0  0  0  0  0  0  0  0  0  0
  151.1835  141.1687  157.3647 C   0  0  0  0  0  0  0  0  0  0  0  0
  150.7226  140.4076  158.2153 O   0  0  0  0  0  0  0  0  0  0  0  0
  151.8700  140.6036  156.1217 C   0  0  0  0  0  0  0  0  0  0  0  0
  151.0263  139.6116  155.4802 N   0  0  0  0  0  0  0  0  0  0  0  0
  150.5028  138.4551  156.0201 C   0  0  0  0  0  0  0  0  0  0  0  0
  149.7918  137.8324  155.0348 C   0  0  0  0  0  0  0  0  0  0  0  0
  149.9415  138.6947  153.9127 C   0  0  0  0  0  0  0  0  0  0  0  0
  150.6797  139.7595  154.1822 N   0  0  0  0  0  0  0  0  0  0  0  0
  152.5926  143.5861  160.2147 N   0  0  0  0  0  0  0  0  0  0  0  0
  153.0290  142.2467  159.8029 C   0  0  0  0  0  0  0  0  0  0  0  0
  153.9323  141.5653  160.8451 C   0  0  0  0  0  0  0  0  0  0  0  0
  153.2536  141.4926  162.0910 O   0  0  0  0  0  0  0  0  0  0  0  0
  152.8801  142.7774  162.5688 C   0  0  0  0  0  0  0  0  0  0  0  0
  151.9709  143.4708  161.5394 C   0  0  0  0  0  0  0  0  0  0  0  0
  150.2764  145.9098  159.0609 H   0  0  0  0  0  0  0  0  0  0  0  0
  151.6505  146.2737  160.0409 H   0  0  0  0  0  0  0  0  0  0  0  0
  150.3870  145.2166  160.6724 H   0  0  0  0  0  0  0  0  0  0  0  0
  152.3209  144.5745  158.3929 H   0  0  0  0  0  0  0  0  0  0  0  0
  150.3104  142.5091  159.3491 H   0  0  0  0  0  0  0  0  0  0  0  0
  149.7619  143.7999  158.3108 H   0  0  0  0  0  0  0  0  0  0  0  0
  151.5542  143.0491  156.7194 H   0  0  0  0  0  0  0  0  0  0  0  0
  152.0749  141.4053  155.4111 H   0  0  0  0  0  0  0  0  0  0  0  0
  152.8286  140.1535  156.3852 H   0  0  0  0  0  0  0  0  0  0  0  0
  150.6816  138.1738  157.0476 H   0  0  0  0  0  0  0  0  0  0  0  0
  149.2494  136.9013  155.1046 H   0  0  0  0  0  0  0  0  0  0  0  0
  149.5391  138.5791  152.9173 H   0  0  0  0  0  0  0  0  0  0  0  0
  152.1595  141.6167  159.6093 H   0  0  0  0  0  0  0  0  0  0  0  0
  153.5979  142.2967  158.8760 H   0  0  0  0  0  0  0  0  0  0  0  0
  154.1905  140.5571  160.5210 H   0  0  0  0  0  0  0  0  0  0  0  0
  154.8684  142.1134  160.9624 H   0  0  0  0  0  0  0  0  0  0  0  0
  152.3589  142.6653  163.5198 H   0  0  0  0  0  0  0  0  0  0  0  0
  153.7717  143.3760  162.7616 H   0  0  0  0  0  0  0  0  0  0  0  0
  151.7324  144.4527  161.9425 H   0  0  0  0  0  0  0  0  0  0  0  0
  151.0305  142.9231  161.4604 H   0  0  0  0  0  0  0  0  0  0  0  0
  1  2  1  0  0  0  0
  1 19  1  0  0  0  0
  1 20  1  0  0  0  0
  1 21  1  0  0  0  0
  2  3  1  0  0  0  0
  2 13  1  0  0  0  0
  2 22  1  0  0  0  0
  3  4  1  0  0  0  0
  3 23  1  0  0  0  0
  3 24  1  0  0  0  0
  4  5  1  0  0  0  0
  4 25  1  0  0  0  0
  5  6  2  0  0  0  0
  5  7  1  0  0  0  0
  7  8  1  0  0  0  0
  7 26  1  0  0  0  0
  7 27  1  0  0  0  0
  8 12  1  0  0  0  0
  8  9  1  0  0  0  0
  9 10  2  0  0  0  0
  9 28  1  0  0  0  0
 10 11  1  0  0  0  0
 10 29  1  0  0  0  0
 11 12  2  0  0  0  0
 11 30  1  0  0  0  0
 13 18  1  0  0  0  0
 13 14  1  0  0  0  0
 14 15  1  0  0  0  0
 14 31  1  0  0  0  0
 14 32  1  0  0  0  0
 15 16  1  0  0  0  0
 15 33  1  0  0  0  0
 15 34  1  0  0  0  0
 16 17  1  0  0  0  0
 17 18  1  0  0  0  0
 17 35  1  0  0  0  0
 17 36  1  0  0  0  0
 18 37  1  0  0  0  0
 18 38  1  0  0  0  0
M  END
> <s_m_source_file>
AV-unprocessed.smi

> <i_m_source_file_index>
1420

> <i_lp_mmshare_version>
43012

> <i_f3d_flags>
0

> <s_epik_input>
W0NIMl0xW0NIMl1PW0NIMl1bQ0gyXU4xW0NASF0oW0NIM10pW0NIMl1bTkhdQyg9TylbQ0gyXW4yW2NIXVtjSF1bY0hdbjI=

> <s_epik_cmdline>
J2VwaWtfcHl0aG9uJywgJy1waCcsICc3LjAnLCAnLXRuJywgJzgnLCAnLW1hJywgJzIwMCcsICctbWV0YWxfYmluZGluZycsICctaW1hZScsICc8aW5maWxlLm1hZT4nLCAnLW9tYWUnLCAnPG91dGZpbGUubWFlPic=

> <r_lp_tautomer_probability>
1

> <r_epik_Ionization_Penalty>
0.196927

> <r_epik_Ionization_Penalty_Charging>
0

> <r_epik_Ionization_Penalty_Neutral>
0.196927

> <r_epik_State_Penalty>
0.186684

> <r_epik_Charging_Adjusted_Penalty>
0.186684

> <i_epik_Tot_Q>
0

> <i_epik_Tot_abs_Q>
0

> <r_epik_Metal_State_Penalty>
0.186682

> <b_epik_Metal_Only>
0

> <s_lp_Force_Field>
OPLS_2005

> <r_lp_Energy>
27.7246

> <b_lp_Chiralities_Consistent>
1

> <s_lp_Variant>
AV-unprocessed.smi:1420-1

> <Gold.Version>
5.8.1

> <Gold.Id.Protein>
6NUR|6NUR_protein|mol2

> <Gold.PLP.Fitness>
45.5524

> <Gold.PLP.PLP>
-38.2477

> <Gold.PLP.part.hbond>
-1.0000

> <Gold.PLP.part.metal>
0.0000

> <Gold.PLP.part.buried>
-5.7828

> <Gold.PLP.part.nonpolar>
-31.3740

> <Gold.PLP.part.repulsive>
0.2142

> <Gold.PLP.ligand.clash>
0.0000

> <Gold.PLP.ligand.torsion>
0.7716

> <Gold.PLP.Chemscore.Hbond>
1.0000

> <Gold.PLP.Chemscore.CHOScore>
1.9269

> <Gold.PLP.Chemscore.Metal>
0.0000

> <Gold.Chemscore.Hbonds>
donor molecule, donor type, donor heavy atom, donor atom, acceptor molecule, acceptor atom, score
      P1  H  7989  7998       L1    12  1.00
      L1  C    11    30       P1  7948  0.73
      L1  C    11    30       P1  7957  0.99

> <Gold.PLP.Chemscore.Internal.Correction>
0.0671

> <Gold.Rescore>
     Score         DG    S(hbond)    S(metal)    S(lipo)     H(rot)  DE(clash)    DE(int)     intcor
     12.41     -15.75       0.98        0.00     100.73       1.87       0.12       3.22       ----

> <Gold.Chemscore.Fitness>
12.4098

> <Gold.Chemscore.DG>
-15.7457

> <Gold.Chemscore.ZeroCoef>
-5.4800

> <Gold.Chemscore.Hbond>
0.9757

> <Gold.Chemscore.Metal>
0.0000

> <Gold.Chemscore.Lipo>
100.7346

> <Gold.Chemscore.Internal_Hbond>
0.0000

> <Gold.Chemscore.DEClash>
0.1200

> <Gold.Chemscore.DEInternal>
3.2159

> <Gold.Chemscore.Rot>
1.8669

> <Gold.Chemscore.Internal.Correction>
   9.000000E+99

> <Gold.Chemscore.Hbonds>
donor molecule, donor type, donor heavy atom, donor atom, acceptor molecule, acceptor atom, score
      P1  H  7989  7998       L1    12  0.74

> <Gold.Chemscore.Hbond.Weighted>
-3.2590

> <Gold.Chemscore.Metal.Weighted>
-0.0000

> <Gold.Chemscore.Lipo.Weighted>
-11.7859

> <Gold.Chemscore.Internal_Hbond.Weighted>
0.0000

> <Gold.Chemscore.DEClash.Weighted>
0.1200

> <Gold.Chemscore.DEInternal.Weighted>
3.2159

> <Gold.Chemscore.Rot.Weighted>
4.7792

> <Gold.Chemscore.Internal.Correction.Weighted>
   9.000000E+99

> <Gold.Protein.RotatedTorsions>
[ 6907 6896 6895 6894 ] final  131.01 input  -60.11 | X-H torsion
[ 7974 7965 7964 7962 ] final   85.09 input  175.53 | X-H torsion
[ 8008 7997 7996 7995 ] final -167.96 input   59.86 | X-H torsion
[ 10167 10162 10161 10158 ] final -120.34 input  -65.29 | X-H torsion
[ 10718 10713 10712 10709 ] final -153.43 input   66.30 | X-H torsion
[ 10763 10752 10751 10750 ] final   53.44 input  -60.55 | X-H torsion
[ 11005 11000 10999 10996 ] final  -21.38 input  -57.11 | X-H torsion

> <Gold.Protein.ActiveResidues>
 VAL166  LYS551  ARG553  GLY616  TRP617  ASP618  TYR619  PRO620  LYS621  CYS622 
 ASP623  PHE694  ASN695  SER759  ASP760  ASP761  ALA762  ILE779  LEU786  VAL792 
 PHE793  MET794  SER795  GLU796  ALA797  LYS798  CYS799  TRP800  GLU811  SER814 

> <Gold.Protein.RotatedAtoms>
  152.3469  133.6133  159.5916 H   0  0  0  0  0  0  0  0  0  0  0  0  # atno 6907 bound_to 6896
  150.7513  133.9635  159.3532 H   0  0  0  0  0  0  0  0  0  0  0  0  # atno 6908 bound_to 6896
  151.7491  135.0837  160.0379 H   0  0  0  0  0  0  0  0  0  0  0  0  # atno 6909 bound_to 6896
  145.5902  139.2337  143.2304 H   0  0  0  0  0  0  0  0  0  0  0  0  # atno 7974 bound_to 7965
  155.8848  140.1015  157.1460 H   0  0  0  0  0  0  0  0  0  0  0  0  # atno 8008 bound_to 7997
  154.4009  140.1322  156.4305 H   0  0  0  0  0  0  0  0  0  0  0  0  # atno 8009 bound_to 7997
  155.7601  140.3463  155.5196 H   0  0  0  0  0  0  0  0  0  0  0  0  # atno 8010 bound_to 7997
  140.0368  143.5193  152.2149 H   0  0  0  0  0  0  0  0  0  0  0  0  # atno 10167 bound_to 10162
  156.4857  130.8324  151.2549 H   0  0  0  0  0  0  0  0  0  0  0  0  # atno 10718 bound_to 10713
  152.9795  135.5779  154.4741 H   0  0  0  0  0  0  0  0  0  0  0  0  # atno 10763 bound_to 10752
  154.4300  135.2773  155.1921 H   0  0  0  0  0  0  0  0  0  0  0  0  # atno 10764 bound_to 10752
  154.3633  135.6184  153.5756 H   0  0  0  0  0  0  0  0  0  0  0  0  # atno 10765 bound_to 10752
  140.8556  133.7825  156.0015 H   0  0  0  0  0  0  0  0  0  0  0  0  # atno 11005 bound_to 11000
  146.1653  140.6728  142.9258 LP  0  0  0  0  0  0  0  0  0  0  0  0  # atno 17320 bound_to 7965
  144.7355  140.4795  143.6907 LP  0  0  0  0  0  0  0  0  0  0  0  0  # atno 17321 bound_to 7965
  139.6039  144.7591  151.3106 LP  0  0  0  0  0  0  0  0  0  0  0  0  # atno 17342 bound_to 10162
  140.7278  143.6954  150.7888 LP  0  0  0  0  0  0  0  0  0  0  0  0  # atno 17343 bound_to 10162
  157.7479  131.0030  150.3021 LP  0  0  0  0  0  0  0  0  0  0  0  0  # atno 17370 bound_to 10713
  156.3476  130.3825  149.7356 LP  0  0  0  0  0  0  0  0  0  0  0  0  # atno 17371 bound_to 10713
  140.8741  134.2690  157.5176 LP  0  0  0  0  0  0  0  0  0  0  0  0  # atno 17394 bound_to 11000
  139.8705  134.9582  156.4293 LP  0  0  0  0  0  0  0  0  0  0  0  0  # atno 17395 bound_to 11000

$$$$
