AV-unprocessed.smi:1509|AV-procd|sdf|6092|dock9
  -GOLD-   22720 6223D 1   1.00000     0.00000
 Structure written by MMmdl.
 42 43  0  0  0  0  0  0  0  0  2 V2000
  146.6840  129.2912  151.3962 C   0  0  0  0  0  0  0  0  0  0  0  0
  145.8222  130.2693  152.2140 C   0  0  2  0  0  0  0  0  0  0  0  0
  144.7130  130.9322  151.3765 C   0  0  0  0  0  0  0  0  0  0  0  0
  145.2892  131.9982  150.4343 C   0  0  0  0  0  0  0  0  0  0  0  0
  146.1429  133.0152  151.2082 C   0  0  0  0  0  0  0  0  0  0  0  0
  147.2236  132.3390  151.9715 N   0  3  1  0  0  0  0  0  0  0  0  0
  148.1528  133.3082  152.6058 C   0  0  0  0  0  0  0  0  0  0  0  0
  149.2523  132.6175  153.4308 C   0  0  0  0  0  0  0  0  0  0  0  0
  149.6287  133.4216  154.6867 C   0  0  0  0  0  0  0  0  0  0  0  0
  149.7011  134.8522  154.4126 N   0  0  0  0  0  0  0  0  0  0  0  0
  150.5246  135.7128  155.0318 C   0  0  0  0  0  0  0  0  0  0  0  0
  151.3031  135.3808  155.9253 O   0  0  0  0  0  0  0  0  0  0  0  0
  150.4644  137.1700  154.5731 C   0  0  0  0  0  0  0  0  0  0  0  0
  151.6795  137.8767  154.9308 N   0  0  0  0  0  0  0  0  0  0  0  0
  151.8714  139.1151  155.3900 C   0  0  0  0  0  0  0  0  0  0  0  0
  153.1560  139.3711  155.5852 N   0  0  0  0  0  0  0  0  0  0  0  0
  153.7726  138.1890  155.2102 N   0  0  0  0  0  0  0  0  0  0  0  0
  152.9016  137.2986  154.8211 N   0  0  0  0  0  0  0  0  0  0  0  0
  146.6739  131.3396  152.9280 C   0  0  0  0  0  0  0  0  0  0  0  0
  147.2414  129.7979  150.6085 H   0  0  0  0  0  0  0  0  0  0  0  0
  146.0668  128.5253  150.9257 H   0  0  0  0  0  0  0  0  0  0  0  0
  147.4069  128.7810  152.0336 H   0  0  0  0  0  0  0  0  0  0  0  0
  145.3323  129.6737  152.9855 H   0  0  0  0  0  0  0  0  0  0  0  0
  144.1604  130.1827  150.8090 H   0  0  0  0  0  0  0  0  0  0  0  0
  143.9907  131.4021  152.0453 H   0  0  0  0  0  0  0  0  0  0  0  0
  145.8925  131.5248  149.6591 H   0  0  0  0  0  0  0  0  0  0  0  0
  144.4782  132.5124  149.9178 H   0  0  0  0  0  0  0  0  0  0  0  0
  146.5758  133.7240  150.5011 H   0  0  0  0  0  0  0  0  0  0  0  0
  145.5176  133.5912  151.8923 H   0  0  0  0  0  0  0  0  0  0  0  0
  148.6410  133.8952  151.8262 H   0  0  0  0  0  0  0  0  0  0  0  0
  147.5924  134.0163  153.2182 H   0  0  0  0  0  0  0  0  0  0  0  0
  148.9328  131.6210  153.7347 H   0  0  0  0  0  0  0  0  0  0  0  0
  150.1352  132.4814  152.8048 H   0  0  0  0  0  0  0  0  0  0  0  0
  148.9150  133.2343  155.4909 H   0  0  0  0  0  0  0  0  0  0  0  0
  150.6026  133.0992  155.0560 H   0  0  0  0  0  0  0  0  0  0  0  0
  149.0935  135.2106  153.6897 H   0  0  0  0  0  0  0  0  0  0  0  0
  150.3297  137.2250  153.4921 H   0  0  0  0  0  0  0  0  0  0  0  0
  149.6081  137.6689  155.0297 H   0  0  0  0  0  0  0  0  0  0  0  0
  151.0776  139.8234  155.5775 H   0  0  0  0  0  0  0  0  0  0  0  0
  146.0655  131.8576  153.6713 H   0  0  0  0  0  0  0  0  0  0  0  0
  147.4771  130.8490  153.4767 H   0  0  0  0  0  0  0  0  0  0  0  0
  147.7669  131.8272  151.2910 H   0  0  0  0  0  0  0  0  0  0  0  0
  1  2  1  0  0  0  0
  1 20  1  0  0  0  0
  1 21  1  0  0  0  0
  1 22  1  0  0  0  0
  2 19  1  0  0  0  0
  2  3  1  0  0  0  0
  2 23  1  0  0  0  0
  3  4  1  0  0  0  0
  3 24  1  0  0  0  0
  3 25  1  0  0  0  0
  4  5  1  0  0  0  0
  4 26  1  0  0  0  0
  4 27  1  0  0  0  0
  5  6  1  0  0  0  0
  5 28  1  0  0  0  0
  5 29  1  0  0  0  0
  6  7  1  0  0  0  0
  6 19  1  0  0  0  0
  6 42  1  0  0  0  0
  7  8  1  0  0  0  0
  7 30  1  0  0  0  0
  7 31  1  0  0  0  0
  8  9  1  0  0  0  0
  8 32  1  0  0  0  0
  8 33  1  0  0  0  0
  9 10  1  0  0  0  0
  9 34  1  0  0  0  0
  9 35  1  0  0  0  0
 10 11  1  0  0  0  0
 10 36  1  0  0  0  0
 11 12  2  0  0  0  0
 11 13  1  0  0  0  0
 13 14  1  0  0  0  0
 13 37  1  0  0  0  0
 13 38  1  0  0  0  0
 14 18  1  0  0  0  0
 14 15  1  0  0  0  0
 15 16  2  0  0  0  0
 15 39  1  0  0  0  0
 16 17  1  0  0  0  0
 17 18  2  0  0  0  0
 19 40  1  0  0  0  0
 19 41  1  0  0  0  0
M  CHG  1   6   1
M  END
> <s_m_source_file>
AV-unprocessed.smi

> <i_m_source_file_index>
1509

> <i_lp_mmshare_version>
43012

> <i_f3d_flags>
0

> <s_epik_input>
W0NIM11bQ0BASF0xW0NIMl1bQ0gyXVtDSDJdTihbQ0gyXTEpW0NIMl1bQ0gyXVtDSDJdW05IXUMoPU8pW0NIMl1uMltjSF1ubm4y

> <s_epik_cmdline>
J2VwaWtfcHl0aG9uJywgJy1waCcsICc3LjAnLCAnLXRuJywgJzgnLCAnLW1hJywgJzIwMCcsICctbWV0YWxfYmluZGluZycsICctaW1hZScsICc8aW5maWxlLm1hZT4nLCAnLW9tYWUnLCAnPG91dGZpbGUubWFlPic=

> <r_lp_tautomer_probability>
1

> <r_epik_Ionization_Penalty>
0.00044216

> <r_epik_Ionization_Penalty_Charging>
0.000440775

> <r_epik_Ionization_Penalty_Neutral>
1.38512e-06

> <r_epik_State_Penalty>
0.000271914

> <r_epik_Charging_Adjusted_Penalty>
0.000712689

> <i_epik_Tot_Q>
1

> <i_epik_Tot_abs_Q>
1

> <r_epik_Metal_State_Penalty>
-0

> <b_epik_Metal_Only>
0

> <s_lp_Force_Field>
OPLS_2005

> <r_lp_Energy>
22.816

> <b_lp_Chiralities_Consistent>
1

> <s_lp_Variant>
AV-unprocessed.smi:1509-3

> <Gold.Version>
5.8.1

> <Gold.Id.Protein>
6NUR|6NUR_protein|mol2

> <Gold.PLP.Fitness>
48.0181

> <Gold.PLP.PLP>
-39.7786

> <Gold.PLP.part.hbond>
-5.2691

> <Gold.PLP.part.metal>
0.0000

> <Gold.PLP.part.buried>
-4.0442

> <Gold.PLP.part.nonpolar>
-31.0887

> <Gold.PLP.part.repulsive>
0.1137

> <Gold.PLP.ligand.clash>
0.0000

> <Gold.PLP.ligand.torsion>
1.1039

> <Gold.PLP.Chemscore.Hbond>
3.4640

> <Gold.PLP.Chemscore.CHOScore>
0.0000

> <Gold.PLP.Chemscore.Metal>
0.0000

> <Gold.Chemscore.Hbonds>
donor molecule, donor type, donor heavy atom, donor atom, acceptor molecule, acceptor atom, score
      L1  H     6    42       P1 10747  1.00
      L1  H    10    36       P1  7948  0.83
      P1  H  7997  8008       L1    16  0.85
      P1  H 10752 10765       L1    12  0.90

> <Gold.PLP.Chemscore.Internal.Correction>
0.0554

> <Gold.Rescore>
     Score         DG    S(hbond)    S(metal)    S(lipo)     H(rot)  DE(clash)    DE(int)     intcor
     14.53     -15.53       2.58        0.00      77.14       2.97       0.11       0.89       ----

> <Gold.Chemscore.Fitness>
14.5319

> <Gold.Chemscore.DG>
-15.5269

> <Gold.Chemscore.ZeroCoef>
-5.4800

> <Gold.Chemscore.Hbond>
2.5808

> <Gold.Chemscore.Metal>
0.0000

> <Gold.Chemscore.Lipo>
77.1356

> <Gold.Chemscore.Internal_Hbond>
0.0000

> <Gold.Chemscore.DEClash>
0.1056

> <Gold.Chemscore.DEInternal>
0.8894

> <Gold.Chemscore.Rot>
2.9680

> <Gold.Chemscore.Internal.Correction>
   9.000000E+99

> <Gold.Chemscore.Hbonds>
donor molecule, donor type, donor heavy atom, donor atom, acceptor molecule, acceptor atom, score
      L1  H     6    42       P1 10747  1.00
      L1  H    10    36       P1  7948  0.35
      P1  H  7997  8008       L1    16  0.14
      P1  H 10752 10765       L1    18  0.30

> <Gold.Chemscore.Hbond.Weighted>
-8.6200

> <Gold.Chemscore.Metal.Weighted>
-0.0000

> <Gold.Chemscore.Lipo.Weighted>
-9.0249

> <Gold.Chemscore.Internal_Hbond.Weighted>
0.0000

> <Gold.Chemscore.DEClash.Weighted>
0.1056

> <Gold.Chemscore.DEInternal.Weighted>
0.8894

> <Gold.Chemscore.Rot.Weighted>
7.5980

> <Gold.Chemscore.Internal.Correction.Weighted>
   9.000000E+99

> <Gold.Protein.RotatedTorsions>
[ 6907 6896 6895 6894 ] final   57.78 input  -60.11 | X-H torsion
[ 7974 7965 7964 7962 ] final -124.75 input  175.53 | X-H torsion
[ 8008 7997 7996 7995 ] final  -13.78 input   59.86 | X-H torsion
[ 10167 10162 10161 10158 ] final  -75.31 input  -65.29 | X-H torsion
[ 10718 10713 10712 10709 ] final  113.69 input   66.30 | X-H torsion
[ 10763 10752 10751 10750 ] final -164.70 input  -60.55 | X-H torsion
[ 11005 11000 10999 10996 ] final   -6.95 input  -57.11 | X-H torsion

> <Gold.Protein.ActiveResidues>
 VAL166  LYS551  ARG553  GLY616  TRP617  ASP618  TYR619  PRO620  LYS621  CYS622 
 ASP623  PHE694  ASN695  SER759  ASP760  ASP761  ALA762  ILE779  LEU786  VAL792 
 PHE793  MET794  SER795  GLU796  ALA797  LYS798  CYS799  TRP800  GLU811  SER814 

> <Gold.Protein.RotatedAtoms>
  152.3764  134.6657  160.0158 H   0  0  0  0  0  0  0  0  0  0  0  0  # atno 6907 bound_to 6896
  151.6934  133.3305  159.3256 H   0  0  0  0  0  0  0  0  0  0  0  0  # atno 6908 bound_to 6896
  150.7712  134.6614  159.6386 H   0  0  0  0  0  0  0  0  0  0  0  0  # atno 6909 bound_to 6896
  145.0048  140.7853  143.4474 H   0  0  0  0  0  0  0  0  0  0  0  0  # atno 7974 bound_to 7965
  154.5264  140.2240  155.8883 H   0  0  0  0  0  0  0  0  0  0  0  0  # atno 8008 bound_to 7997
  156.1717  140.3120  155.8950 H   0  0  0  0  0  0  0  0  0  0  0  0  # atno 8009 bound_to 7997
  155.3544  140.0457  157.3037 H   0  0  0  0  0  0  0  0  0  0  0  0  # atno 8010 bound_to 7997
  140.4953  143.2372  151.7840 H   0  0  0  0  0  0  0  0  0  0  0  0  # atno 10167 bound_to 10162
  157.6324  131.0987  150.7078 H   0  0  0  0  0  0  0  0  0  0  0  0  # atno 10718 bound_to 10713
  154.7003  135.2987  154.9350 H   0  0  0  0  0  0  0  0  0  0  0  0  # atno 10763 bound_to 10752
  154.0284  135.6673  153.4782 H   0  0  0  0  0  0  0  0  0  0  0  0  # atno 10764 bound_to 10752
  153.0676  135.5079  154.8144 H   0  0  0  0  0  0  0  0  0  0  0  0  # atno 10765 bound_to 10752
  140.7075  133.8937  155.8727 H   0  0  0  0  0  0  0  0  0  0  0  0  # atno 11005 bound_to 11000
  145.2104  139.2207  143.5146 LP  0  0  0  0  0  0  0  0  0  0  0  0  # atno 17320 bound_to 7965
  146.3459  140.1941  142.8589 LP  0  0  0  0  0  0  0  0  0  0  0  0  # atno 17321 bound_to 7965
  139.4860  144.4594  151.9559 LP  0  0  0  0  0  0  0  0  0  0  0  0  # atno 17342 bound_to 10162
  140.3682  144.2888  150.5923 LP  0  0  0  0  0  0  0  0  0  0  0  0  # atno 17343 bound_to 10162
  156.7415  130.4740  149.5476 LP  0  0  0  0  0  0  0  0  0  0  0  0  # atno 17370 bound_to 10713
  156.1536  130.6327  151.0628 LP  0  0  0  0  0  0  0  0  0  0  0  0  # atno 17371 bound_to 10713
  141.0112  134.1017  157.4219 LP  0  0  0  0  0  0  0  0  0  0  0  0  # atno 17394 bound_to 11000
  139.8880  135.0094  156.6596 LP  0  0  0  0  0  0  0  0  0  0  0  0  # atno 17395 bound_to 11000

$$$$
