AV-unprocessed.smi:3237|AV-procd|sdf|12372|dock2
  -GOLD-   2272018233D 1   1.00000     0.00000
 Structure written by MMmdl.
 36 38  0  0  0  0  0  0  0  0  3 V2000
  152.7200  139.0297  155.7222 C   0  0  0  0  0  0  0  0  0  0  0  0
  151.4090  139.1131  155.0187 C   0  0  0  0  0  0  0  0  0  0  0  0
  150.5999  138.1734  154.4444 C   0  0  0  0  0  0  0  0  0  0  0  0
  149.5113  138.9433  153.9543 C   0  0  0  0  0  0  0  0  0  0  0  0
  148.4327  138.3198  153.2731 N   0  0  0  0  0  0  0  0  0  0  0  0
  147.1152  138.5748  153.3700 C   0  0  0  0  0  0  0  0  0  0  0  0
  146.7021  139.4501  154.1396 O   0  0  0  0  0  0  0  0  0  0  0  0
  146.3736  137.7744  152.5550 N   0  5  0  0  0  0  0  0  0  0  0  0
  145.4220  136.7575  153.0195 C   0  0  1  0  0  0  0  0  0  0  0  0
  144.5049  136.3384  151.8646 C   0  0  0  0  0  0  0  0  0  0  0  0
  145.2189  135.1646  151.1746 C   0  0  0  0  0  0  0  0  0  0  0  0
  146.3594  134.7930  152.0415 N   0  3  2  0  0  0  0  0  0  0  0  0
  146.6212  133.3405  152.1237 C   0  0  0  0  0  0  0  0  0  0  0  0
  146.1768  132.5778  150.8988 C   0  0  0  0  0  0  0  0  0  0  0  0
  145.3654  132.5039  152.1745 C   0  0  0  0  0  0  0  0  0  0  0  0
  146.1490  135.4490  153.3458 C   0  0  0  0  0  0  0  0  0  0  0  0
  149.6430  140.2364  154.2118 N   0  0  0  0  0  0  0  0  0  0  0  0
  150.8595  140.3517  154.8948 O   0  0  0  0  0  0  0  0  0  0  0  0
  153.1361  138.0245  155.6529 H   0  0  0  0  0  0  0  0  0  0  0  0
  152.6080  139.2779  156.7776 H   0  0  0  0  0  0  0  0  0  0  0  0
  153.4383  139.7230  155.2846 H   0  0  0  0  0  0  0  0  0  0  0  0
  150.7634  137.1077  154.3830 H   0  0  0  0  0  0  0  0  0  0  0  0
  148.6918  137.5969  152.6182 H   0  0  0  0  0  0  0  0  0  0  0  0
  144.8344  137.1016  153.8714 H   0  0  0  0  0  0  0  0  0  0  0  0
  143.5550  135.9889  152.2711 H   0  0  0  0  0  0  0  0  0  0  0  0
  144.2755  137.1536  151.1766 H   0  0  0  0  0  0  0  0  0  0  0  0
  144.5298  134.3291  151.0399 H   0  0  0  0  0  0  0  0  0  0  0  0
  145.5944  135.4448  150.1894 H   0  0  0  0  0  0  0  0  0  0  0  0
  147.5119  133.0372  152.6712 H   0  0  0  0  0  0  0  0  0  0  0  0
  145.7566  133.1404  150.0668 H   0  0  0  0  0  0  0  0  0  0  0  0
  146.7505  131.6959  150.6210 H   0  0  0  0  0  0  0  0  0  0  0  0
  145.4048  131.5729  152.7367 H   0  0  0  0  0  0  0  0  0  0  0  0
  144.4053  133.0166  152.1899 H   0  0  0  0  0  0  0  0  0  0  0  0
  147.0871  135.5914  153.8842 H   0  0  0  0  0  0  0  0  0  0  0  0
  145.5052  134.8224  153.9656 H   0  0  0  0  0  0  0  0  0  0  0  0
  147.1730  135.2383  151.6414 H   0  0  0  0  0  0  0  0  0  0  0  0
  1  2  1  0  0  0  0
  1 19  1  0  0  0  0
  1 20  1  0  0  0  0
  1 21  1  0  0  0  0
  2 18  1  0  0  0  0
  2  3  2  0  0  0  0
  3  4  1  0  0  0  0
  3 22  1  0  0  0  0
  4  5  1  0  0  0  0
  4 17  2  0  0  0  0
  5  6  1  0  0  0  0
  5 23  1  0  0  0  0
  6  7  2  0  0  0  0
  6  8  1  0  0  0  0
  8  9  1  0  0  0  0
  9 16  1  0  0  0  0
  9 10  1  0  0  0  0
  9 24  1  0  0  0  0
 10 11  1  0  0  0  0
 10 25  1  0  0  0  0
 10 26  1  0  0  0  0
 11 12  1  0  0  0  0
 11 27  1  0  0  0  0
 11 28  1  0  0  0  0
 12 13  1  0  0  0  0
 12 16  1  0  0  0  0
 12 36  1  0  0  0  0
 13 15  1  0  0  0  0
 13 14  1  0  0  0  0
 13 29  1  0  0  0  0
 14 15  1  0  0  0  0
 14 30  1  0  0  0  0
 14 31  1  0  0  0  0
 15 32  1  0  0  0  0
 15 33  1  0  0  0  0
 16 34  1  0  0  0  0
 16 35  1  0  0  0  0
 17 18  1  0  0  0  0
M  CHG  1   8  -1
M  CHG  1  12   1
M  END
> <s_m_source_file>
AV-unprocessed.smi

> <i_m_source_file_index>
3237

> <i_lp_mmshare_version>
43012

> <i_f3d_flags>
0

> <s_epik_input>
W0NIM11jMVtjSF1jKG5vMSlbTkhdQyg9TylbTkhdW0NAQEhdMltDSDJdW0NIMl1OKFtDSDJdMilbQ0hdM1tDSDJdW0NIMl0z

> <s_epik_cmdline>
J2VwaWtfcHl0aG9uJywgJy1waCcsICc3LjAnLCAnLXRuJywgJzgnLCAnLW1hJywgJzIwMCcsICctbWV0YWxfYmluZGluZycsICctaW1hZScsICc8aW5maWxlLm1hZT4nLCAnLW9tYWUnLCAnPG91dGZpbGUubWFlPic=

> <r_epik_Ionization_Penalty>
6.76456

> <r_epik_Ionization_Penalty_Charging>
6.76456

> <r_epik_Ionization_Penalty_Neutral>
5.76722e-06

> <r_epik_State_Penalty>
6.78919

> <r_epik_Charging_Adjusted_Penalty>
13.5538

> <i_epik_Tot_Q>
0

> <i_epik_Tot_abs_Q>
2

> <r_epik_Metal_State_Penalty>
2.728

> <b_epik_Metal_Only>
1

> <s_lp_Force_Field>
OPLS_2005

> <r_lp_Energy>
30.7434

> <b_lp_Chiralities_Consistent>
1

> <s_lp_Variant>
AV-unprocessed.smi:3237-10

> <Gold.Version>
5.8.1

> <Gold.Id.Protein>
6NUR|6NUR_protein|mol2

> <Gold.PLP.Fitness>
36.2069

> <Gold.PLP.PLP>
-27.6587

> <Gold.PLP.part.hbond>
-4.9630

> <Gold.PLP.part.metal>
0.0000

> <Gold.PLP.part.buried>
-1.0698

> <Gold.PLP.part.nonpolar>
-23.5340

> <Gold.PLP.part.repulsive>
1.3572

> <Gold.PLP.ligand.clash>
0.0000

> <Gold.PLP.ligand.torsion>
1.8388

> <Gold.PLP.Chemscore.Hbond>
3.6175

> <Gold.PLP.Chemscore.CHOScore>
0.0000

> <Gold.PLP.Chemscore.Metal>
0.0000

> <Gold.Chemscore.Hbonds>
donor molecule, donor type, donor heavy atom, donor atom, acceptor molecule, acceptor atom, score
      L1  H     5    23       P1  7948  1.00
      L1  H    12    36       P1  7948  2.00
      P1  H  7989  7998       L1    18  0.55

> <Gold.PLP.Chemscore.Internal.Correction>
1.3733

> <Gold.Rescore>
     Score         DG    S(hbond)    S(metal)    S(lipo)     H(rot)  DE(clash)    DE(int)     intcor
     12.97     -15.34       1.96        0.00      55.52       1.25       0.46       1.90       ----

> <Gold.Chemscore.Fitness>
12.9702

> <Gold.Chemscore.DG>
-15.3385

> <Gold.Chemscore.ZeroCoef>
-5.4800

> <Gold.Chemscore.Hbond>
1.9623

> <Gold.Chemscore.Metal>
0.0000

> <Gold.Chemscore.Lipo>
55.5160

> <Gold.Chemscore.Internal_Hbond>
0.0000

> <Gold.Chemscore.DEClash>
0.4639

> <Gold.Chemscore.DEInternal>
1.9045

> <Gold.Chemscore.Rot>
1.2464

> <Gold.Chemscore.Internal.Correction>
   9.000000E+99

> <Gold.Chemscore.Hbonds>
donor molecule, donor type, donor heavy atom, donor atom, acceptor molecule, acceptor atom, score
      L1  H     5    23       P1  7948  0.96
      L1  H    12    36       P1  7948  0.88
      P1  H  7989  7998       L1    18  0.01

> <Gold.Chemscore.Hbond.Weighted>
-6.5540

> <Gold.Chemscore.Metal.Weighted>
-0.0000

> <Gold.Chemscore.Lipo.Weighted>
-6.4954

> <Gold.Chemscore.Internal_Hbond.Weighted>
0.0000

> <Gold.Chemscore.DEClash.Weighted>
0.4639

> <Gold.Chemscore.DEInternal.Weighted>
1.9045

> <Gold.Chemscore.Rot.Weighted>
3.1909

> <Gold.Chemscore.Internal.Correction.Weighted>
   9.000000E+99

> <Gold.Protein.RotatedTorsions>
[ 6907 6896 6895 6894 ] final  105.11 input  -60.11 | X-H torsion
[ 7974 7965 7964 7962 ] final -176.47 input  175.53 | X-H torsion
[ 8008 7997 7996 7995 ] final   23.68 input   59.86 | X-H torsion
[ 10167 10162 10161 10158 ] final  -70.81 input  -65.29 | X-H torsion
[ 10718 10713 10712 10709 ] final -153.29 input   66.30 | X-H torsion
[ 10763 10752 10751 10750 ] final  140.93 input  -60.55 | X-H torsion
[ 11005 11000 10999 10996 ] final -103.84 input  -57.11 | X-H torsion

> <Gold.Protein.ActiveResidues>
 VAL166  LYS551  ARG553  GLY616  TRP617  ASP618  TYR619  PRO620  LYS621  CYS622 
 ASP623  PHE694  ASN695  SER759  ASP760  ASP761  ALA762  ILE779  LEU786  VAL792 
 PHE793  MET794  SER795  GLU796  ALA797  LYS798  CYS799  TRP800  GLU811  SER814 

> <Gold.Protein.RotatedAtoms>
  152.5242  133.9578  159.7702 H   0  0  0  0  0  0  0  0  0  0  0  0  # atno 6907 bound_to 6896
  150.9874  133.6175  159.2720 H   0  0  0  0  0  0  0  0  0  0  0  0  # atno 6908 bound_to 6896
  151.3331  135.0852  159.9398 H   0  0  0  0  0  0  0  0  0  0  0  0  # atno 6909 bound_to 6896
  144.7127  140.1164  143.6408 H   0  0  0  0  0  0  0  0  0  0  0  0  # atno 7974 bound_to 7965
  154.9847  140.3106  155.4931 H   0  0  0  0  0  0  0  0  0  0  0  0  # atno 8008 bound_to 7997
  156.2948  140.2260  156.4888 H   0  0  0  0  0  0  0  0  0  0  0  0  # atno 8009 bound_to 7997
  154.7757  140.0449  157.1076 H   0  0  0  0  0  0  0  0  0  0  0  0  # atno 8010 bound_to 7997
  140.5323  143.2320  151.7240 H   0  0  0  0  0  0  0  0  0  0  0  0  # atno 10167 bound_to 10162
  156.4838  130.8316  151.2541 H   0  0  0  0  0  0  0  0  0  0  0  0  # atno 10718 bound_to 10713
  153.9308  135.2990  155.3446 H   0  0  0  0  0  0  0  0  0  0  0  0  # atno 10763 bound_to 10752
  154.7528  135.4972  153.9322 H   0  0  0  0  0  0  0  0  0  0  0  0  # atno 10764 bound_to 10752
  153.1093  135.6755  153.9635 H   0  0  0  0  0  0  0  0  0  0  0  0  # atno 10765 bound_to 10752
  141.1127  133.8674  157.1537 H   0  0  0  0  0  0  0  0  0  0  0  0  # atno 11005 bound_to 11000
  145.9409  139.2668  143.1269 LP  0  0  0  0  0  0  0  0  0  0  0  0  # atno 17320 bound_to 7965
  145.9424  140.8969  143.0300 LP  0  0  0  0  0  0  0  0  0  0  0  0  # atno 17321 bound_to 7965
  139.4958  144.4096  152.0095 LP  0  0  0  0  0  0  0  0  0  0  0  0  # atno 17342 bound_to 10162
  140.3199  144.3440  150.6012 LP  0  0  0  0  0  0  0  0  0  0  0  0  # atno 17343 bound_to 10162
  157.7480  131.0036  150.3044 LP  0  0  0  0  0  0  0  0  0  0  0  0  # atno 17370 bound_to 10713
  156.3494  130.3828  149.7341 LP  0  0  0  0  0  0  0  0  0  0  0  0  # atno 17371 bound_to 10713
  140.0031  135.0020  157.0233 LP  0  0  0  0  0  0  0  0  0  0  0  0  # atno 17394 bound_to 11000
  140.4730  134.1367  155.7206 LP  0  0  0  0  0  0  0  0  0  0  0  0  # atno 17395 bound_to 11000

$$$$
