AV-unprocessed.smi:623|AV-procd|sdf|3092|dock4
  -GOLD-   22720 0 13D 1   1.00000     0.00000
 Structure written by MMmdl.
 45 47  0  0  0  0  0  0  0  0  1 V2000
  144.6413  135.4617  162.2691 C   0  0  0  0  0  0  0  0  0  0  0  0
  145.9247  135.8687  161.4916 C   0  0  0  0  0  0  0  0  0  0  0  0
  145.5086  137.1001  160.6384 C   0  0  0  0  0  0  0  0  0  0  0  0
  147.1594  136.1057  162.3843 C   0  0  1  0  0  0  0  0  0  0  0  0
  147.4141  134.7215  163.0231 C   0  0  0  0  0  0  0  0  0  0  0  0
  147.0351  133.7516  161.8843 C   0  0  0  0  0  0  0  0  0  0  0  0
  146.6372  134.7129  160.7341 C   0  0  1  0  0  0  0  0  0  0  0  0
  145.8085  134.0138  159.6373 C   0  0  0  0  0  0  0  0  0  0  0  0
  147.9835  135.3345  160.2511 C   0  0  1  0  0  0  0  0  0  0  0  0
  147.8802  135.9414  158.9292 N   0  0  0  0  0  0  0  0  0  0  0  0
  148.6579  135.6836  157.8667 C   0  0  0  0  0  0  0  0  0  0  0  0
  149.5684  134.8565  157.8895 O   0  0  0  0  0  0  0  0  0  0  0  0
  148.3891  136.4821  156.5791 C   0  0  0  0  0  0  0  0  0  0  0  0
  149.5320  137.2938  156.1246 N   0  0  0  0  0  0  0  0  0  0  0  0
  150.0127  137.1541  154.8301 C   0  0  0  0  0  0  0  0  0  0  0  0
  151.0872  137.8281  154.3563 C   0  0  0  0  0  0  0  0  0  0  0  0
  151.8103  138.7611  155.2136 C   0  0  0  0  0  0  0  0  0  0  0  0
  152.7946  139.4157  154.8778 O   0  0  0  0  0  0  0  0  0  0  0  0
  151.2965  138.8750  156.5080 N   0  0  0  0  0  0  0  0  0  0  0  0
  150.1905  138.1825  157.0032 C   0  0  0  0  0  0  0  0  0  0  0  0
  149.8305  138.3453  158.1682 O   0  0  0  0  0  0  0  0  0  0  0  0
  148.3042  136.3482  161.3742 C   0  0  0  0  0  0  0  0  0  0  0  0
  151.7664  139.5087  157.1383 H   0  0  0  0  0  0  0  0  0  0  0  0
  144.3013  136.2805  162.9038 H   0  0  0  0  0  0  0  0  0  0  0  0
  144.7473  134.5954  162.9182 H   0  0  0  0  0  0  0  0  0  0  0  0
  143.8282  135.2329  161.5795 H   0  0  0  0  0  0  0  0  0  0  0  0
  146.3117  137.5732  160.0806 H   0  0  0  0  0  0  0  0  0  0  0  0
  145.0895  137.8808  161.2739 H   0  0  0  0  0  0  0  0  0  0  0  0
  144.7393  136.8310  159.9143 H   0  0  0  0  0  0  0  0  0  0  0  0
  147.0524  136.9073  163.1160 H   0  0  0  0  0  0  0  0  0  0  0  0
  148.4499  134.5970  163.3414 H   0  0  0  0  0  0  0  0  0  0  0  0
  146.7884  134.5644  163.9020 H   0  0  0  0  0  0  0  0  0  0  0  0
  147.8611  133.0915  161.6161 H   0  0  0  0  0  0  0  0  0  0  0  0
  146.2087  133.1048  162.1796 H   0  0  0  0  0  0  0  0  0  0  0  0
  146.3962  133.2439  159.1367 H   0  0  0  0  0  0  0  0  0  0  0  0
  145.4663  134.7151  158.8762 H   0  0  0  0  0  0  0  0  0  0  0  0
  144.9247  133.5321  160.0557 H   0  0  0  0  0  0  0  0  0  0  0  0
  148.7597  134.5690  160.1953 H   0  0  0  0  0  0  0  0  0  0  0  0
  147.1539  136.6332  158.8131 H   0  0  0  0  0  0  0  0  0  0  0  0
  148.1069  135.7762  155.7964 H   0  0  0  0  0  0  0  0  0  0  0  0
  147.5060  137.1054  156.7308 H   0  0  0  0  0  0  0  0  0  0  0  0
  149.5127  136.4663  154.1629 H   0  0  0  0  0  0  0  0  0  0  0  0
  151.4158  137.6737  153.3387 H   0  0  0  0  0  0  0  0  0  0  0  0
  148.3063  137.3782  161.0165 H   0  0  0  0  0  0  0  0  0  0  0  0
  149.2862  136.1692  161.8135 H   0  0  0  0  0  0  0  0  0  0  0  0
  1  2  1  0  0  0  0
  1 24  1  0  0  0  0
  1 25  1  0  0  0  0
  1 26  1  0  0  0  0
  2  7  1  0  0  0  0
  2  3  1  0  0  0  0
  2  4  1  0  0  0  0
  3 27  1  0  0  0  0
  3 28  1  0  0  0  0
  3 29  1  0  0  0  0
  4 22  1  0  0  0  0
  4  5  1  0  0  0  0
  4 30  1  0  0  0  0
  5  6  1  0  0  0  0
  5 31  1  0  0  0  0
  5 32  1  0  0  0  0
  6  7  1  0  0  0  0
  6 33  1  0  0  0  0
  6 34  1  0  0  0  0
  7  8  1  0  0  0  0
  7  9  1  0  0  0  0
  8 35  1  0  0  0  0
  8 36  1  0  0  0  0
  8 37  1  0  0  0  0
  9 10  1  0  0  0  0
  9 22  1  0  0  0  0
  9 38  1  0  0  0  0
 10 11  1  0  0  0  0
 10 39  1  0  0  0  0
 11 12  2  0  0  0  0
 11 13  1  0  0  0  0
 13 14  1  0  0  0  0
 13 40  1  0  0  0  0
 13 41  1  0  0  0  0
 14 20  1  0  0  0  0
 14 15  1  0  0  0  0
 15 16  2  0  0  0  0
 15 42  1  0  0  0  0
 16 17  1  0  0  0  0
 16 43  1  0  0  0  0
 17 18  2  0  0  0  0
 17 19  1  0  0  0  0
 19 23  1  0  0  0  0
 19 20  1  0  0  0  0
 20 21  2  0  0  0  0
 22 44  1  0  0  0  0
 22 45  1  0  0  0  0
M  END
> <s_m_source_file>
AV-unprocessed.smi

> <i_m_source_file_index>
623

> <i_lp_mmshare_version>
43012

> <i_f3d_flags>
0

> <s_epik_input>
W0NIM11bQ0BdMTJDKFtDSDNdKShbQ0gzXSlbQ0BIXShbQ0gyXVtDSDJdMSlbQ0gyXVtDQEBIXTJbTkhdQyg9TylbQ0gyXW4zW2NIXVtjSF1jKD1PKVtuSF1jMz1P

> <s_epik_cmdline>
J2VwaWtfcHl0aG9uJywgJy1waCcsICc3LjAnLCAnLXRuJywgJzgnLCAnLW1hJywgJzIwMCcsICctbWV0YWxfYmluZGluZycsICctaW1hZScsICc8aW5maWxlLm1hZT4nLCAnLW9tYWUnLCAnPG91dGZpbGUubWFlPic=

> <r_lp_tautomer_probability>
0.999537

> <r_epik_Ionization_Penalty>
0.00303563

> <r_epik_Ionization_Penalty_Charging>
0.00303561

> <r_epik_Ionization_Penalty_Neutral>
2.03238e-08

> <r_epik_State_Penalty>
0.00213308

> <r_epik_Charging_Adjusted_Penalty>
0.00516869

> <i_epik_Tot_Q>
0

> <i_epik_Tot_abs_Q>
0

> <r_epik_Metal_State_Penalty>
0.361714

> <b_epik_Metal_Only>
0

> <s_lp_Force_Field>
OPLS_2005

> <r_lp_Energy>
54.5125

> <b_lp_Chiralities_Consistent>
1

> <s_lp_Variant>
AV-unprocessed.smi:623-2

> <Gold.Version>
5.8.1

> <Gold.Id.Protein>
6NUR|6NUR_protein|mol2

> <Gold.PLP.Fitness>
41.1232

> <Gold.PLP.PLP>
-31.2783

> <Gold.PLP.part.hbond>
-2.9868

> <Gold.PLP.part.metal>
0.0000

> <Gold.PLP.part.buried>
-3.1633

> <Gold.PLP.part.nonpolar>
-25.9736

> <Gold.PLP.part.repulsive>
0.1717

> <Gold.PLP.ligand.clash>
0.0000

> <Gold.PLP.ligand.torsion>
0.0747

> <Gold.PLP.Chemscore.Hbond>
2.3267

> <Gold.PLP.Chemscore.CHOScore>
1.0000

> <Gold.PLP.Chemscore.Metal>
0.0000

> <Gold.Chemscore.Hbonds>
donor molecule, donor type, donor heavy atom, donor atom, acceptor molecule, acceptor atom, score
      P1  H  6896  6907       L1    12  1.00
      P1  H  7989  7998       L1    18  0.17
      P1  H  7997  8008       L1    18  0.83
      L1  C    15    42       P1  7948  1.00

> <Gold.PLP.Chemscore.Internal.Correction>
0.0142

> <Gold.Rescore>
     Score         DG    S(hbond)    S(metal)    S(lipo)     H(rot)  DE(clash)    DE(int)     intcor
     17.17     -17.26       2.00        0.00      80.17       1.66       0.05       0.04       ----

> <Gold.Chemscore.Fitness>
17.1747

> <Gold.Chemscore.DG>
-17.2632

> <Gold.Chemscore.ZeroCoef>
-5.4800

> <Gold.Chemscore.Hbond>
1.9956

> <Gold.Chemscore.Metal>
0.0000

> <Gold.Chemscore.Lipo>
80.1681

> <Gold.Chemscore.Internal_Hbond>
0.0000

> <Gold.Chemscore.DEClash>
0.0451

> <Gold.Chemscore.DEInternal>
0.0434

> <Gold.Chemscore.Rot>
1.6647

> <Gold.Chemscore.Internal.Correction>
   9.000000E+99

> <Gold.Chemscore.Hbonds>
donor molecule, donor type, donor heavy atom, donor atom, acceptor molecule, acceptor atom, score
      P1  H  6896  6907       L1    12  0.97
      P1  H  7989  7998       L1    18  0.03
      P1  H  7997  8008       L1    18  0.82

> <Gold.Chemscore.Hbond.Weighted>
-6.6652

> <Gold.Chemscore.Metal.Weighted>
-0.0000

> <Gold.Chemscore.Lipo.Weighted>
-9.3797

> <Gold.Chemscore.Internal_Hbond.Weighted>
0.0000

> <Gold.Chemscore.DEClash.Weighted>
0.0451

> <Gold.Chemscore.DEInternal.Weighted>
0.0434

> <Gold.Chemscore.Rot.Weighted>
4.2617

> <Gold.Chemscore.Internal.Correction.Weighted>
   9.000000E+99

> <Gold.Protein.RotatedTorsions>
[ 6907 6896 6895 6894 ] final  -91.41 input  -60.11 | X-H torsion
[ 7974 7965 7964 7962 ] final -157.12 input  175.53 | X-H torsion
[ 8008 7997 7996 7995 ] final  -10.74 input   59.86 | X-H torsion
[ 10167 10162 10161 10158 ] final   10.12 input  -65.29 | X-H torsion
[ 10718 10713 10712 10709 ] final  120.14 input   66.30 | X-H torsion
[ 10763 10752 10751 10750 ] final  109.36 input  -60.55 | X-H torsion
[ 11005 11000 10999 10996 ] final  -20.31 input  -57.11 | X-H torsion

> <Gold.Protein.ActiveResidues>
 VAL166  LYS551  ARG553  GLY616  TRP617  ASP618  TYR619  PRO620  LYS621  CYS622 
 ASP623  PHE694  ASN695  SER759  ASP760  ASP761  ALA762  ILE779  LEU786  VAL792 
 PHE793  MET794  SER795  GLU796  ALA797  LYS798  CYS799  TRP800  GLU811  SER814 

> <Gold.Protein.RotatedAtoms>
  150.6892  134.2282  159.4423 H   0  0  0  0  0  0  0  0  0  0  0  0  # atno 6907 bound_to 6896
  152.0234  134.9807  160.0580 H   0  0  0  0  0  0  0  0  0  0  0  0  # atno 6908 bound_to 6896
  152.1375  133.4409  159.4787 H   0  0  0  0  0  0  0  0  0  0  0  0  # atno 6909 bound_to 6896
  144.7562  140.4014  143.6010 H   0  0  0  0  0  0  0  0  0  0  0  0  # atno 7974 bound_to 7965
  154.5527  140.2321  155.8459 H   0  0  0  0  0  0  0  0  0  0  0  0  # atno 8008 bound_to 7997
  156.1961  140.3064  155.9391 H   0  0  0  0  0  0  0  0  0  0  0  0  # atno 8009 bound_to 7997
  155.3039  140.0432  157.3021 H   0  0  0  0  0  0  0  0  0  0  0  0  # atno 8010 bound_to 7997
  140.6213  143.8197  150.7179 H   0  0  0  0  0  0  0  0  0  0  0  0  # atno 10167 bound_to 10162
  157.5912  131.1064  150.7995 H   0  0  0  0  0  0  0  0  0  0  0  0  # atno 10718 bound_to 10713
  153.4336  135.3782  155.2185 H   0  0  0  0  0  0  0  0  0  0  0  0  # atno 10763 bound_to 10752
  154.8751  135.3846  154.4238 H   0  0  0  0  0  0  0  0  0  0  0  0  # atno 10764 bound_to 10752
  153.4774  135.7088  153.6021 H   0  0  0  0  0  0  0  0  0  0  0  0  # atno 10765 bound_to 10752
  140.8451  133.7897  155.9904 H   0  0  0  0  0  0  0  0  0  0  0  0  # atno 11005 bound_to 11000
  145.6770  139.1610  143.2722 LP  0  0  0  0  0  0  0  0  0  0  0  0  # atno 17320 bound_to 7965
  146.1575  140.6836  142.9293 LP  0  0  0  0  0  0  0  0  0  0  0  0  # atno 17321 bound_to 7965
  140.1788  143.4132  152.1948 LP  0  0  0  0  0  0  0  0  0  0  0  0  # atno 17342 bound_to 10162
  139.5441  144.7283  151.4638 LP  0  0  0  0  0  0  0  0  0  0  0  0  # atno 17343 bound_to 10162
  156.8416  130.5050  149.5320 LP  0  0  0  0  0  0  0  0  0  0  0  0  # atno 17370 bound_to 10713
  156.0967  130.5937  150.9825 LP  0  0  0  0  0  0  0  0  0  0  0  0  # atno 17371 bound_to 10713
  140.8852  134.2563  157.5123 LP  0  0  0  0  0  0  0  0  0  0  0  0  # atno 17394 bound_to 11000
  139.8703  134.9634  156.4462 LP  0  0  0  0  0  0  0  0  0  0  0  0  # atno 17395 bound_to 11000

$$$$
