AV-unprocessed.smi:2963|AV-procd|sdf|11319|dock7
  -GOLD-   2272016223D 1   1.00000     0.00000
 Structure written by MMmdl.
 41 43  0  0  0  0  0  0  0  0  1 V2000
  147.7090  141.5437  154.0201 C   0  0  0  0  0  0  0  0  0  0  0  0
  149.1050  141.3024  153.9422 O   0  0  0  0  0  0  0  0  0  0  0  0
  149.8150  141.6879  155.1113 C   0  0  0  0  0  0  0  0  0  0  0  0
  149.6392  140.6738  156.2559 C   0  0  0  0  0  0  0  0  0  0  0  0
  150.8451  140.5485  157.0626 N   0  0  0  0  0  0  0  0  0  0  0  0
  151.7568  139.5448  157.0689 C   0  0  0  0  0  0  0  0  0  0  0  0
  151.6059  138.1315  156.0300 S   0  0  0  0  0  0  0  0  0  0  0  0
  151.7637  136.8642  157.3243 C   0  0  0  0  0  0  0  0  0  0  0  0
  150.7597  137.0053  158.4795 C   0  0  0  0  0  0  0  0  0  0  0  0
  151.1925  137.1154  159.6296 O   0  0  0  0  0  0  0  0  0  0  0  0
  149.4365  137.0098  158.1663 N   0  0  0  0  0  0  0  0  0  0  0  0
  148.9302  136.8694  156.7996 C   0  0  0  0  0  0  0  0  0  0  0  0
  147.4140  136.9191  156.9518 C   0  0  0  0  0  0  0  0  0  0  0  0
  147.2601  137.0948  158.3746 N   0  0  0  0  0  0  0  0  0  0  0  0
  148.4140  137.1429  159.0445 C   0  0  0  0  0  0  0  0  0  0  0  0
  148.4847  137.2878  160.2655 O   0  0  0  0  0  0  0  0  0  0  0  0
  152.7818  139.6988  157.9075 N   0  0  0  0  0  0  0  0  0  0  0  0
  152.5087  140.9139  158.5034 C   0  0  0  0  0  0  0  0  0  0  0  0
  153.2211  141.6358  159.4875 C   0  0  0  0  0  0  0  0  0  0  0  0
  152.7403  142.8788  159.9487 C   0  0  0  0  0  0  0  0  0  0  0  0
  151.5436  143.4171  159.4327 C   0  0  0  0  0  0  0  0  0  0  0  0
  150.8181  142.7137  158.4520 C   0  0  0  0  0  0  0  0  0  0  0  0
  151.3020  141.4728  157.9963 C   0  0  0  0  0  0  0  0  0  0  0  0
  147.2295  141.2079  153.1007 H   0  0  0  0  0  0  0  0  0  0  0  0
  147.5009  142.6080  154.1354 H   0  0  0  0  0  0  0  0  0  0  0  0
  147.2501  141.0082  154.8511 H   0  0  0  0  0  0  0  0  0  0  0  0
  150.8715  141.7454  154.8483 H   0  0  0  0  0  0  0  0  0  0  0  0
  149.5291  142.6909  155.4318 H   0  0  0  0  0  0  0  0  0  0  0  0
  148.8270  140.9960  156.9085 H   0  0  0  0  0  0  0  0  0  0  0  0
  149.3435  139.6976  155.8739 H   0  0  0  0  0  0  0  0  0  0  0  0
  151.6216  135.8902  156.8550 H   0  0  0  0  0  0  0  0  0  0  0  0
  152.7817  136.8965  157.7133 H   0  0  0  0  0  0  0  0  0  0  0  0
  149.2803  137.6852  156.1652 H   0  0  0  0  0  0  0  0  0  0  0  0
  149.2443  135.9230  156.3568 H   0  0  0  0  0  0  0  0  0  0  0  0
  146.9726  137.7568  156.4105 H   0  0  0  0  0  0  0  0  0  0  0  0
  146.9381  135.9932  156.6267 H   0  0  0  0  0  0  0  0  0  0  0  0
  146.3542  137.1726  158.8138 H   0  0  0  0  0  0  0  0  0  0  0  0
  154.1390  141.2326  159.8886 H   0  0  0  0  0  0  0  0  0  0  0  0
  153.2929  143.4223  160.7011 H   0  0  0  0  0  0  0  0  0  0  0  0
  151.1831  144.3706  159.7903 H   0  0  0  0  0  0  0  0  0  0  0  0
  149.9019  143.1236  158.0536 H   0  0  0  0  0  0  0  0  0  0  0  0
  1  2  1  0  0  0  0
  1 24  1  0  0  0  0
  1 25  1  0  0  0  0
  1 26  1  0  0  0  0
  2  3  1  0  0  0  0
  3  4  1  0  0  0  0
  3 27  1  0  0  0  0
  3 28  1  0  0  0  0
  4  5  1  0  0  0  0
  4 29  1  0  0  0  0
  4 30  1  0  0  0  0
  5 23  1  0  0  0  0
  5  6  1  0  0  0  0
  6  7  1  0  0  0  0
  6 17  2  0  0  0  0
  7  8  1  0  0  0  0
  8  9  1  0  0  0  0
  8 31  1  0  0  0  0
  8 32  1  0  0  0  0
  9 10  2  0  0  0  0
  9 11  1  0  0  0  0
 11 15  1  0  0  0  0
 11 12  1  0  0  0  0
 12 13  1  0  0  0  0
 12 33  1  0  0  0  0
 12 34  1  0  0  0  0
 13 14  1  0  0  0  0
 13 35  1  0  0  0  0
 13 36  1  0  0  0  0
 14 15  1  0  0  0  0
 14 37  1  0  0  0  0
 15 16  2  0  0  0  0
 17 18  1  0  0  0  0
 18 23  2  0  0  0  0
 18 19  1  0  0  0  0
 19 20  2  0  0  0  0
 19 38  1  0  0  0  0
 20 21  1  0  0  0  0
 20 39  1  0  0  0  0
 21 22  2  0  0  0  0
 21 40  1  0  0  0  0
 22 23  1  0  0  0  0
 22 41  1  0  0  0  0
M  END
> <s_m_source_file>
AV-unprocessed.smi

> <i_m_source_file_index>
2963

> <i_lp_mmshare_version>
43012

> <i_f3d_flags>
0

> <s_epik_input>
W2NIXTFbY0hdW2NIXVtjSF1jKGMxMiluKFtDSDJdW0NIMl1PW0NIM10pYyhuMilTW0NIMl1DKD1PKU4zW0NIMl1bQ0gyXVtOSF1DMz1P

> <s_epik_cmdline>
J2VwaWtfcHl0aG9uJywgJy1waCcsICc3LjAnLCAnLXRuJywgJzgnLCAnLW1hJywgJzIwMCcsICctbWV0YWxfYmluZGluZycsICctaW1hZScsICc8aW5maWxlLm1hZT4nLCAnLW9tYWUnLCAnPG91dGZpbGUubWFlPic=

> <r_lp_tautomer_probability>
0.9999

> <r_epik_Ionization_Penalty>
0.0341365

> <r_epik_Ionization_Penalty_Charging>
0

> <r_epik_Ionization_Penalty_Neutral>
0.0341365

> <r_epik_State_Penalty>
0.0283589

> <r_epik_Charging_Adjusted_Penalty>
0.0283589

> <i_epik_Tot_Q>
0

> <i_epik_Tot_abs_Q>
0

> <r_epik_Metal_State_Penalty>
0.0267964

> <b_epik_Metal_Only>
0

> <s_lp_Force_Field>
OPLS_2005

> <r_lp_Energy>
40.6732

> <b_lp_Chiralities_Consistent>
1

> <s_lp_Variant>
AV-unprocessed.smi:2963-1

> <Gold.Version>
5.8.1

> <Gold.Id.Protein>
6NUR|6NUR_protein|mol2

> <Gold.PLP.Fitness>
44.9272

> <Gold.PLP.PLP>
-35.0663

> <Gold.PLP.part.hbond>
-5.6906

> <Gold.PLP.part.metal>
0.0000

> <Gold.PLP.part.buried>
-4.3879

> <Gold.PLP.part.nonpolar>
-26.3193

> <Gold.PLP.part.repulsive>
0.2499

> <Gold.PLP.ligand.clash>
0.0000

> <Gold.PLP.ligand.torsion>
0.5616

> <Gold.PLP.Chemscore.Hbond>
3.6283

> <Gold.PLP.Chemscore.CHOScore>
0.0000

> <Gold.PLP.Chemscore.Metal>
0.0000

> <Gold.Chemscore.Hbonds>
donor molecule, donor type, donor heavy atom, donor atom, acceptor molecule, acceptor atom, score
      P1  H  6896  6907       L1    10  0.80
      P1  H  6931  6943       L1    16  0.61
      P1  H  6934  6947       L1    16  0.22
      P1  H  7997  8010       L1    17  1.00
      P1  H  8011  8017       L1     2  0.72

> <Gold.PLP.Chemscore.Internal.Correction>
0.0993

> <Gold.Rescore>
     Score         DG    S(hbond)    S(metal)    S(lipo)     H(rot)  DE(clash)    DE(int)     intcor
     14.25     -16.42       2.11        0.00      84.07       2.33       0.23       1.95       ----

> <Gold.Chemscore.Fitness>
14.2466

> <Gold.Chemscore.DG>
-16.4196

> <Gold.Chemscore.ZeroCoef>
-5.4800

> <Gold.Chemscore.Hbond>
2.1149

> <Gold.Chemscore.Metal>
0.0000

> <Gold.Chemscore.Lipo>
84.0652

> <Gold.Chemscore.Internal_Hbond>
0.0000

> <Gold.Chemscore.DEClash>
0.2272

> <Gold.Chemscore.DEInternal>
1.9457

> <Gold.Chemscore.Rot>
2.3280

> <Gold.Chemscore.Internal.Correction>
   9.000000E+99

> <Gold.Chemscore.Hbonds>
donor molecule, donor type, donor heavy atom, donor atom, acceptor molecule, acceptor atom, score
      P1  H  6896  6907       L1    10  0.11
      P1  H  6931  6943       L1    16  0.59
      P1  H  6934  6947       L1    16  0.17
      P1  H  7997  8010       L1    17  0.28
      P1  H  8011  8017       L1     2  0.27

> <Gold.Chemscore.Hbond.Weighted>
-7.0637

> <Gold.Chemscore.Metal.Weighted>
-0.0000

> <Gold.Chemscore.Lipo.Weighted>
-9.8356

> <Gold.Chemscore.Internal_Hbond.Weighted>
0.0000

> <Gold.Chemscore.DEClash.Weighted>
0.2272

> <Gold.Chemscore.DEInternal.Weighted>
1.9457

> <Gold.Chemscore.Rot.Weighted>
5.9598

> <Gold.Chemscore.Internal.Correction.Weighted>
   9.000000E+99

> <Gold.Protein.RotatedTorsions>
[ 6907 6896 6895 6894 ] final   -6.96 input  -60.11 | X-H torsion
[ 7974 7965 7964 7962 ] final -155.40 input  175.53 | X-H torsion
[ 8008 7997 7996 7995 ] final   45.45 input   59.86 | X-H torsion
[ 10167 10162 10161 10158 ] final  -48.18 input  -65.29 | X-H torsion
[ 10718 10713 10712 10709 ] final -156.06 input   66.30 | X-H torsion
[ 10763 10752 10751 10750 ] final -156.81 input  -60.55 | X-H torsion
[ 11005 11000 10999 10996 ] final   30.63 input  -57.11 | X-H torsion

> <Gold.Protein.ActiveResidues>
 VAL166  LYS551  ARG553  GLY616  TRP617  ASP618  TYR619  PRO620  LYS621  CYS622 
 ASP623  PHE694  ASN695  SER759  ASP760  ASP761  ALA762  ILE779  LEU786  VAL792 
 PHE793  MET794  SER795  GLU796  ALA797  LYS798  CYS799  TRP800  GLU811  SER814 

> <Gold.Protein.RotatedAtoms>
  151.4572  135.1035  159.9714 H   0  0  0  0  0  0  0  0  0  0  0  0  # atno 6907 bound_to 6896
  152.4866  133.8386  159.7151 H   0  0  0  0  0  0  0  0  0  0  0  0  # atno 6908 bound_to 6896
  150.8982  133.7094  159.2913 H   0  0  0  0  0  0  0  0  0  0  0  0  # atno 6909 bound_to 6896
  144.7642  140.4255  143.5954 H   0  0  0  0  0  0  0  0  0  0  0  0  # atno 7974 bound_to 7965
  155.3361  140.3405  155.4239 H   0  0  0  0  0  0  0  0  0  0  0  0  # atno 8008 bound_to 7997
  156.1837  140.1673  156.8262 H   0  0  0  0  0  0  0  0  0  0  0  0  # atno 8009 bound_to 7997
  154.5362  140.0734  156.8414 H   0  0  0  0  0  0  0  0  0  0  0  0  # atno 8010 bound_to 7997
  140.6742  143.2751  151.4034 H   0  0  0  0  0  0  0  0  0  0  0  0  # atno 10167 bound_to 10162
  156.5213  130.8479  151.2683 H   0  0  0  0  0  0  0  0  0  0  0  0  # atno 10718 bound_to 10713
  154.7684  135.3138  154.8239 H   0  0  0  0  0  0  0  0  0  0  0  0  # atno 10763 bound_to 10752
  153.8981  135.6818  153.4761 H   0  0  0  0  0  0  0  0  0  0  0  0  # atno 10764 bound_to 10752
  153.1294  135.4787  154.9257 H   0  0  0  0  0  0  0  0  0  0  0  0  # atno 10765 bound_to 10752
  140.2924  134.2849  155.7773 H   0  0  0  0  0  0  0  0  0  0  0  0  # atno 11005 bound_to 11000
  145.6522  139.1567  143.2855 LP  0  0  0  0  0  0  0  0  0  0  0  0  # atno 17320 bound_to 7965
  146.1734  140.6610  142.9222 LP  0  0  0  0  0  0  0  0  0  0  0  0  # atno 17321 bound_to 7965
  139.6026  144.1264  152.2214 LP  0  0  0  0  0  0  0  0  0  0  0  0  # atno 17342 bound_to 10162
  140.0653  144.5824  150.7232 LP  0  0  0  0  0  0  0  0  0  0  0  0  # atno 17343 bound_to 10162
  157.7436  130.9916  150.2607 LP  0  0  0  0  0  0  0  0  0  0  0  0  # atno 17370 bound_to 10713
  156.3146  130.3777  149.7630 LP  0  0  0  0  0  0  0  0  0  0  0  0  # atno 17371 bound_to 10713
  141.2144  133.7593  156.9644 LP  0  0  0  0  0  0  0  0  0  0  0  0  # atno 17394 bound_to 11000
  140.1183  134.9433  157.2167 LP  0  0  0  0  0  0  0  0  0  0  0  0  # atno 17395 bound_to 11000

$$$$
