AV-unprocessed.smi:845|AV-procd|sdf|3932|dock1
  -GOLD-   22720 1393D 1   1.00000     0.00000
 Structure written by MMmdl.
 42 43  0  0  0  0  0  0  0  0  3 V2000
  147.0437  141.3873  153.5014 C   0  0  0  0  0  0  0  0  0  0  0  0
  148.0428  140.6313  154.4004 C   0  0  0  0  0  0  0  0  0  0  0  0
  149.0521  141.6413  154.9795 C   0  0  0  0  0  0  0  0  0  0  0  0
  148.7250  139.4524  153.6472 C   0  0  1  0  0  0  0  0  0  0  0  0
  150.0537  139.0006  154.3241 C   0  0  0  0  0  0  0  0  0  0  0  0
  150.3575  137.5841  154.1505 N   0  0  0  0  0  0  0  0  0  0  0  0
  150.6654  136.7232  155.1303 C   0  0  0  0  0  0  0  0  0  0  0  0
  150.6821  137.1051  156.3025 O   0  0  0  0  0  0  0  0  0  0  0  0
  150.9561  135.4810  154.6849 N   0  5  0  0  0  0  0  0  0  0  0  0
  150.4682  134.4068  155.3260 C   0  0  0  0  0  0  0  0  0  0  0  0
  150.3995  134.3210  156.6592 N   0  0  0  0  0  0  0  0  0  0  0  0
  149.8502  133.1194  157.1099 C   0  0  0  0  0  0  0  0  0  0  0  0
  149.4857  132.2740  156.0955 C   0  0  0  0  0  0  0  0  0  0  0  0
  149.8235  132.9660  154.5345 S   0  0  0  0  0  0  0  0  0  0  0  0
  147.7365  138.3464  153.4423 N   0  3  0  0  0  0  0  0  0  0  0  0
  147.1877  137.7360  154.6784 C   0  0  0  0  0  0  0  0  0  0  0  0
  146.4034  136.4617  154.3264 C   0  0  0  0  0  0  0  0  0  0  0  0
  145.3783  136.7721  153.3888 O   0  0  0  0  0  0  0  0  0  0  0  0
  145.9014  137.2881  152.1700 C   0  0  0  0  0  0  0  0  0  0  0  0
  146.6656  138.5933  152.4453 C   0  0  0  0  0  0  0  0  0  0  0  0
  147.5361  141.7920  152.6164 H   0  0  0  0  0  0  0  0  0  0  0  0
  146.5878  142.2213  154.0358 H   0  0  0  0  0  0  0  0  0  0  0  0
  146.2278  140.7470  153.1659 H   0  0  0  0  0  0  0  0  0  0  0  0
  147.4810  140.2253  155.2423 H   0  0  0  0  0  0  0  0  0  0  0  0
  149.7255  142.0167  154.2081 H   0  0  0  0  0  0  0  0  0  0  0  0
  149.6570  141.2047  155.7735 H   0  0  0  0  0  0  0  0  0  0  0  0
  148.5415  142.4992  155.4182 H   0  0  0  0  0  0  0  0  0  0  0  0
  148.9810  139.8390  152.6595 H   0  0  0  0  0  0  0  0  0  0  0  0
  150.8996  139.5662  153.9341 H   0  0  0  0  0  0  0  0  0  0  0  0
  150.0256  139.2109  155.3933 H   0  0  0  0  0  0  0  0  0  0  0  0
  150.3468  137.2256  153.2067 H   0  0  0  0  0  0  0  0  0  0  0  0
  149.7549  132.9501  158.1719 H   0  0  0  0  0  0  0  0  0  0  0  0
  149.0413  131.2931  156.1703 H   0  0  0  0  0  0  0  0  0  0  0  0
  147.9955  137.4902  155.3688 H   0  0  0  0  0  0  0  0  0  0  0  0
  146.5241  138.4298  155.1910 H   0  0  0  0  0  0  0  0  0  0  0  0
  147.0662  135.6973  153.9176 H   0  0  0  0  0  0  0  0  0  0  0  0
  145.9474  136.0417  155.2231 H   0  0  0  0  0  0  0  0  0  0  0  0
  146.5508  136.5492  151.6976 H   0  0  0  0  0  0  0  0  0  0  0  0
  145.0768  137.4741  151.4817 H   0  0  0  0  0  0  0  0  0  0  0  0
  145.9695  139.3474  152.8135 H   0  0  0  0  0  0  0  0  0  0  0  0
  147.0929  138.9725  151.5170 H   0  0  0  0  0  0  0  0  0  0  0  0
  148.2957  137.6064  153.0433 H   0  0  0  0  0  0  0  0  0  0  0  0
  1  2  1  0  0  0  0
  1 21  1  0  0  0  0
  1 22  1  0  0  0  0
  1 23  1  0  0  0  0
  2  3  1  0  0  0  0
  2  4  1  0  0  0  0
  2 24  1  0  0  0  0
  3 25  1  0  0  0  0
  3 26  1  0  0  0  0
  3 27  1  0  0  0  0
  4  5  1  0  0  0  0
  4 15  1  0  0  0  0
  4 28  1  0  0  0  0
  5  6  1  0  0  0  0
  5 29  1  0  0  0  0
  5 30  1  0  0  0  0
  6  7  1  0  0  0  0
  6 31  1  0  0  0  0
  7  8  2  0  0  0  0
  7  9  1  0  0  0  0
  9 10  1  0  0  0  0
 10 14  1  0  0  0  0
 10 11  2  0  0  0  0
 11 12  1  0  0  0  0
 12 13  2  0  0  0  0
 12 32  1  0  0  0  0
 13 14  1  0  0  0  0
 13 33  1  0  0  0  0
 15 20  1  0  0  0  0
 15 16  1  0  0  0  0
 15 42  1  0  0  0  0
 16 17  1  0  0  0  0
 16 34  1  0  0  0  0
 16 35  1  0  0  0  0
 17 18  1  0  0  0  0
 17 36  1  0  0  0  0
 17 37  1  0  0  0  0
 18 19  1  0  0  0  0
 19 20  1  0  0  0  0
 19 38  1  0  0  0  0
 19 39  1  0  0  0  0
 20 40  1  0  0  0  0
 20 41  1  0  0  0  0
M  CHG  1   9  -1
M  CHG  1  15   1
M  END
> <s_m_source_file>
AV-unprocessed.smi

> <i_m_source_file_index>
845

> <i_lp_mmshare_version>
43012

> <i_f3d_flags>
0

> <s_epik_input>
W0NIMl0xW0NIMl1PW0NIMl1bQ0gyXU4xW0NASF0oW0NIXShbQ0gzXSlbQ0gzXSlbQ0gyXVtOSF1DKD1PKVtOSF1jMm5bY0hdW2NIXXMy

> <s_epik_cmdline>
J2VwaWtfcHl0aG9uJywgJy1waCcsICc3LjAnLCAnLXRuJywgJzgnLCAnLW1hJywgJzIwMCcsICctbWV0YWxfYmluZGluZycsICctaW1hZScsICc8aW5maWxlLm1hZT4nLCAnLW9tYWUnLCAnPG91dGZpbGUubWFlPic=

> <r_lp_tautomer_probability>
0.999

> <r_epik_Ionization_Penalty>
7.97104

> <r_epik_Ionization_Penalty_Charging>
6.58021

> <r_epik_Ionization_Penalty_Neutral>
1.39083

> <r_epik_State_Penalty>
6.69807

> <r_epik_Charging_Adjusted_Penalty>
13.2783

> <i_epik_Tot_Q>
0

> <i_epik_Tot_abs_Q>
2

> <r_epik_Metal_State_Penalty>
2.62985

> <b_epik_Metal_Only>
1

> <s_lp_Force_Field>
OPLS_2005

> <r_lp_Energy>
19.9677

> <b_lp_Chiralities_Consistent>
1

> <s_lp_Variant>
AV-unprocessed.smi:845-6

> <Gold.Version>
5.8.1

> <Gold.Id.Protein>
6NUR|6NUR_protein|mol2

> <Gold.PLP.Fitness>
37.5261

> <Gold.PLP.PLP>
-26.7094

> <Gold.PLP.part.hbond>
-3.4759

> <Gold.PLP.part.metal>
0.0000

> <Gold.PLP.part.buried>
-0.1422

> <Gold.PLP.part.nonpolar>
-25.0588

> <Gold.PLP.part.repulsive>
0.4085

> <Gold.PLP.ligand.clash>
0.0000

> <Gold.PLP.ligand.torsion>
1.5829

> <Gold.PLP.Chemscore.Hbond>
4.4296

> <Gold.PLP.Chemscore.CHOScore>
0.0000

> <Gold.PLP.Chemscore.Metal>
0.0000

> <Gold.Chemscore.Hbonds>
donor molecule, donor type, donor heavy atom, donor atom, acceptor molecule, acceptor atom, score
      L1  H     6    31       P1  7948  0.34
      L1  H    15    42       P1  7948  2.00
      P1  H 10752 10763       L1     9  2.00

> <Gold.PLP.Chemscore.Internal.Correction>
0.6936

> <Gold.Rescore>
     Score         DG    S(hbond)    S(metal)    S(lipo)     H(rot)  DE(clash)    DE(int)     intcor
      9.78     -14.33       1.73        0.00      64.87       1.76       1.39       3.15       ----

> <Gold.Chemscore.Fitness>
9.7828

> <Gold.Chemscore.DG>
-14.3263

> <Gold.Chemscore.ZeroCoef>
-5.4800

> <Gold.Chemscore.Hbond>
1.7270

> <Gold.Chemscore.Metal>
0.0000

> <Gold.Chemscore.Lipo>
64.8689

> <Gold.Chemscore.Internal_Hbond>
0.0000

> <Gold.Chemscore.DEClash>
1.3946

> <Gold.Chemscore.DEInternal>
3.1489

> <Gold.Chemscore.Rot>
1.7623

> <Gold.Chemscore.Internal.Correction>
   9.000000E+99

> <Gold.Chemscore.Hbonds>
donor molecule, donor type, donor heavy atom, donor atom, acceptor molecule, acceptor atom, score
      L1  H     6    31       P1  7948  0.02
      L1  H    15    42       P1  7948  0.99
      P1  H 10752 10763       L1     9  0.31

> <Gold.Chemscore.Hbond.Weighted>
-5.7682

> <Gold.Chemscore.Metal.Weighted>
-0.0000

> <Gold.Chemscore.Lipo.Weighted>
-7.5897

> <Gold.Chemscore.Internal_Hbond.Weighted>
0.0000

> <Gold.Chemscore.DEClash.Weighted>
1.3946

> <Gold.Chemscore.DEInternal.Weighted>
3.1489

> <Gold.Chemscore.Rot.Weighted>
4.5116

> <Gold.Chemscore.Internal.Correction.Weighted>
   9.000000E+99

> <Gold.Protein.RotatedTorsions>
[ 6907 6896 6895 6894 ] final  -76.86 input  -60.11 | X-H torsion
[ 7974 7965 7964 7962 ] final   23.93 input  175.53 | X-H torsion
[ 8008 7997 7996 7995 ] final    0.88 input   59.86 | X-H torsion
[ 10167 10162 10161 10158 ] final  107.29 input  -65.29 | X-H torsion
[ 10718 10713 10712 10709 ] final -142.97 input   66.30 | X-H torsion
[ 10763 10752 10751 10750 ] final   50.85 input  -60.55 | X-H torsion
[ 11005 11000 10999 10996 ] final   99.98 input  -57.11 | X-H torsion

> <Gold.Protein.ActiveResidues>
 VAL166  LYS551  ARG553  GLY616  TRP617  ASP618  TYR619  PRO620  LYS621  CYS622 
 ASP623  PHE694  ASN695  SER759  ASP760  ASP761  ALA762  ILE779  LEU786  VAL792 
 PHE793  MET794  SER795  GLU796  ALA797  LYS798  CYS799  TRP800  GLU811  SER814 

> <Gold.Protein.RotatedAtoms>
  150.7015  134.4509  159.5335 H   0  0  0  0  0  0  0  0  0  0  0  0  # atno 6907 bound_to 6896
  152.2202  134.8417  160.0496 H   0  0  0  0  0  0  0  0  0  0  0  0  # atno 6908 bound_to 6896
  151.9271  133.3566  159.3954 H   0  0  0  0  0  0  0  0  0  0  0  0  # atno 6909 bound_to 6896
  146.1961  139.7676  142.8796 H   0  0  0  0  0  0  0  0  0  0  0  0  # atno 7974 bound_to 7965
  154.6733  140.2616  155.6985 H   0  0  0  0  0  0  0  0  0  0  0  0  # atno 8008 bound_to 7997
  156.2667  140.2825  156.1172 H   0  0  0  0  0  0  0  0  0  0  0  0  # atno 8009 bound_to 7997
  155.1137  140.0376  157.2721 H   0  0  0  0  0  0  0  0  0  0  0  0  # atno 8010 bound_to 7997
  139.6939  144.7104  151.1300 H   0  0  0  0  0  0  0  0  0  0  0  0  # atno 10167 bound_to 10162
  156.3523  130.7694  151.1849 H   0  0  0  0  0  0  0  0  0  0  0  0  # atno 10718 bound_to 10713
  152.9784  135.5865  154.4319 H   0  0  0  0  0  0  0  0  0  0  0  0  # atno 10763 bound_to 10752
  154.3931  135.2768  155.2144 H   0  0  0  0  0  0  0  0  0  0  0  0  # atno 10764 bound_to 10752
  154.4008  135.6104  153.5950 H   0  0  0  0  0  0  0  0  0  0  0  0  # atno 10765 bound_to 10752
  139.8771  134.9120  156.4688 H   0  0  0  0  0  0  0  0  0  0  0  0  # atno 11005 bound_to 11000
  145.3637  141.0330  143.3270 LP  0  0  0  0  0  0  0  0  0  0  0  0  # atno 17320 bound_to 7965
  144.8584  139.5214  143.6823 LP  0  0  0  0  0  0  0  0  0  0  0  0  # atno 17321 bound_to 7965
  140.7691  143.5519  150.9195 LP  0  0  0  0  0  0  0  0  0  0  0  0  # atno 17342 bound_to 10162
  139.9198  143.6620  152.3099 LP  0  0  0  0  0  0  0  0  0  0  0  0  # atno 17343 bound_to 10162
  157.7463  131.0424  150.4692 LP  0  0  0  0  0  0  0  0  0  0  0  0  # atno 17370 bound_to 10713
  156.4890  130.4091  149.6418 LP  0  0  0  0  0  0  0  0  0  0  0  0  # atno 17371 bound_to 10713
  140.8811  133.7917  155.9467 LP  0  0  0  0  0  0  0  0  0  0  0  0  # atno 17394 bound_to 11000
  140.8853  134.2561  157.5123 LP  0  0  0  0  0  0  0  0  0  0  0  0  # atno 17395 bound_to 11000

$$$$
