AV-unprocessed.smi:221|AV-procd|sdf|1701|dock3
  -GOLD-   2262020153D 1   1.00000     0.00000
 Structure written by MMmdl.
 50 53  0  0  0  0  0  0  0  0  1 V2000
  154.2593  142.0564  161.1014 N   0  0  0  0  0  0  0  0  0  0  0  0
  153.5336  141.4017  160.1882 C   0  0  0  0  0  0  0  0  0  0  0  0
  153.9286  140.3484  159.6932 O   0  0  0  0  0  0  0  0  0  0  0  0
  152.1832  141.9976  159.7419 C   0  0  1  0  0  0  0  0  0  0  0  0
  151.9144  143.3790  160.3713 C   0  0  0  0  0  0  0  0  0  0  0  0
  152.3489  144.3631  159.2915 C   0  0  2  0  0  0  0  0  0  0  0  0
  151.7816  145.5611  159.4307 F   0  0  0  0  0  0  0  0  0  0  0  0
  151.9154  143.6507  158.0158 C   0  0  0  0  0  0  0  0  0  0  0  0
  152.1211  142.2346  158.2927 N   0  0  0  0  0  0  0  0  0  0  0  0
  151.3767  141.3863  157.5506 C   0  0  0  0  0  0  0  0  0  0  0  0
  150.1980  141.8005  157.0167 N   0  0  0  0  0  0  0  0  0  0  0  0
  149.4702  140.9573  156.2776 C   0  0  0  0  0  0  0  0  0  0  0  0
  149.7323  139.6878  155.9563 N   0  0  0  0  0  0  0  0  0  0  0  0
  150.9182  139.2756  156.4906 C   0  0  0  0  0  0  0  0  0  0  0  0
  151.7958  140.0562  157.2925 C   0  0  0  0  0  0  0  0  0  0  0  0
  152.9055  139.3062  157.6597 N   0  0  0  0  0  0  0  0  0  0  0  0
  152.6941  138.1421  157.1078 C   0  0  0  0  0  0  0  0  0  0  0  0
  151.5224  138.0345  156.3922 N   0  0  0  0  0  0  0  0  0  0  0  0
  151.0462  136.8585  155.6842 C   0  0  0  0  0  0  0  0  0  0  0  0
  150.7258  135.6655  156.6203 C   0  0  1  0  0  0  0  0  0  0  0  0
  149.9260  136.1343  157.8636 C   0  0  0  0  0  0  0  0  0  0  0  0
  149.4868  135.0484  158.6513 O   0  0  0  0  0  0  0  0  0  0  0  0
  149.9897  134.5425  155.8367 C   0  0  1  0  0  0  0  0  0  0  0  0
  150.4968  134.3093  154.4224 C   0  0  0  0  0  0  0  0  0  0  0  0
  149.9470  132.9253  154.0954 C   0  0  0  0  0  0  0  0  0  0  0  0
  149.8966  132.2276  155.3335 O   0  0  0  0  0  0  0  0  0  0  0  0
  150.1430  133.1279  156.4083 C   0  0  0  0  0  0  0  0  0  0  0  0
  151.4120  141.3000  160.0727 H   0  0  0  0  0  0  0  0  0  0  0  0
  153.4313  144.4989  159.3104 H   0  0  0  0  0  0  0  0  0  0  0  0
  155.1476  141.6805  161.3999 H   0  0  0  0  0  0  0  0  0  0  0  0
  153.9186  142.9262  161.4856 H   0  0  0  0  0  0  0  0  0  0  0  0
  150.8453  143.4876  160.5591 H   0  0  0  0  0  0  0  0  0  0  0  0
  152.4282  143.5471  161.3188 H   0  0  0  0  0  0  0  0  0  0  0  0
  150.8638  143.8551  157.8045 H   0  0  0  0  0  0  0  0  0  0  0  0
  152.5015  143.9740  157.1549 H   0  0  0  0  0  0  0  0  0  0  0  0
  148.5453  141.3568  155.8883 H   0  0  0  0  0  0  0  0  0  0  0  0
  153.3893  137.3215  157.2107 H   0  0  0  0  0  0  0  0  0  0  0  0
  150.1631  137.1297  155.1045 H   0  0  0  0  0  0  0  0  0  0  0  0
  151.8179  136.5907  154.9628 H   0  0  0  0  0  0  0  0  0  0  0  0
  151.6809  135.2677  156.9676 H   0  0  0  0  0  0  0  0  0  0  0  0
  150.5338  136.7527  158.5222 H   0  0  0  0  0  0  0  0  0  0  0  0
  149.0706  136.7419  157.5666 H   0  0  0  0  0  0  0  0  0  0  0  0
  148.8634  134.5458  158.1492 H   0  0  0  0  0  0  0  0  0  0  0  0
  148.9259  134.7796  155.7827 H   0  0  0  0  0  0  0  0  0  0  0  0
  150.1577  135.0622  153.7103 H   0  0  0  0  0  0  0  0  0  0  0  0
  151.5876  134.2904  154.4075 H   0  0  0  0  0  0  0  0  0  0  0  0
  148.9339  133.0010  153.6985 H   0  0  0  0  0  0  0  0  0  0  0  0
  150.5590  132.3967  153.3642 H   0  0  0  0  0  0  0  0  0  0  0  0
  151.1612  132.9627  156.7629 H   0  0  0  0  0  0  0  0  0  0  0  0
  149.4597  132.9337  157.2353 H   0  0  0  0  0  0  0  0  0  0  0  0
  1  2  1  0  0  0  0
  1 30  1  0  0  0  0
  1 31  1  0  0  0  0
  2  3  2  0  0  0  0
  2  4  1  0  0  0  0
  4 28  1  0  0  0  0
  4  9  1  0  0  0  0
  4  5  1  0  0  0  0
  5  6  1  0  0  0  0
  5 32  1  0  0  0  0
  5 33  1  0  0  0  0
  6 29  1  0  0  0  0
  6  7  1  0  0  0  0
  6  8  1  0  0  0  0
  8  9  1  0  0  0  0
  8 34  1  0  0  0  0
  8 35  1  0  0  0  0
  9 10  1  0  0  0  0
 10 15  1  0  0  0  0
 10 11  2  0  0  0  0
 11 12  1  0  0  0  0
 12 13  2  0  0  0  0
 12 36  1  0  0  0  0
 13 14  1  0  0  0  0
 14 18  1  0  0  0  0
 14 15  2  0  0  0  0
 15 16  1  0  0  0  0
 16 17  2  0  0  0  0
 17 18  1  0  0  0  0
 17 37  1  0  0  0  0
 18 19  1  0  0  0  0
 19 20  1  0  0  0  0
 19 38  1  0  0  0  0
 19 39  1  0  0  0  0
 20 21  1  0  0  0  0
 20 23  1  0  0  0  0
 20 40  1  0  0  0  0
 21 22  1  0  0  0  0
 21 41  1  0  0  0  0
 21 42  1  0  0  0  0
 22 43  1  0  0  0  0
 23 27  1  0  0  0  0
 23 24  1  0  0  0  0
 23 44  1  0  0  0  0
 24 25  1  0  0  0  0
 24 45  1  0  0  0  0
 24 46  1  0  0  0  0
 25 26  1  0  0  0  0
 25 47  1  0  0  0  0
 25 48  1  0  0  0  0
 26 27  1  0  0  0  0
 27 49  1  0  0  0  0
 27 50  1  0  0  0  0
M  END
> <s_m_source_file>
AV-unprocessed.smi

> <i_m_source_file_index>
221

> <i_lp_mmshare_version>
43012

> <i_f3d_flags>
0

> <s_epik_input>
W05IMl1DKD1PKVtDQEBIXTFbQ0gyXVtDQEBIXShGKVtDSDJdTjFjKG5bY0hdbjIpYyhjMjMpbltjSF1uM1tDSDJdW0NASF0oW0NIMl1bT0hdKVtDQEBIXTRbQ0gyXVtDSDJdT1tDSDJdNA==

> <s_epik_cmdline>
J2VwaWtfcHl0aG9uJywgJy1waCcsICc3LjAnLCAnLXRuJywgJzgnLCAnLW1hJywgJzIwMCcsICctbWV0YWxfYmluZGluZycsICctaW1hZScsICc8aW5maWxlLm1hZT4nLCAnLW9tYWUnLCAnPG91dGZpbGUubWFlPic=

> <r_lp_tautomer_probability>
1

> <r_epik_Ionization_Penalty>
0.000818822

> <r_epik_Ionization_Penalty_Charging>
0

> <r_epik_Ionization_Penalty_Neutral>
0.000818822

> <r_epik_State_Penalty>
0.000440551

> <r_epik_Charging_Adjusted_Penalty>
0.000440551

> <i_epik_Tot_Q>
0

> <i_epik_Tot_abs_Q>
0

> <r_epik_Metal_State_Penalty>
-0

> <b_epik_Metal_Only>
0

> <s_lp_Force_Field>
OPLS_2005

> <r_lp_Energy>
50.9528

> <b_lp_Chiralities_Consistent>
1

> <s_lp_Variant>
AV-unprocessed.smi:221-16

> <Gold.Version>
5.8.1

> <Gold.Id.Protein>
6NUR|6NUR_protein|mol2

> <Gold.PLP.Fitness>
46.8435

> <Gold.PLP.PLP>
-42.5492

> <Gold.PLP.part.hbond>
-3.0000

> <Gold.PLP.part.metal>
0.0000

> <Gold.PLP.part.buried>
-4.1845

> <Gold.PLP.part.nonpolar>
-34.8838

> <Gold.PLP.part.repulsive>
0.1170

> <Gold.PLP.ligand.clash>
0.0000

> <Gold.PLP.ligand.torsion>
1.0747

> <Gold.PLP.Chemscore.Hbond>
2.0000

> <Gold.PLP.Chemscore.CHOScore>
0.0000

> <Gold.PLP.Chemscore.Metal>
0.0000

> <Gold.Chemscore.Hbonds>
donor molecule, donor type, donor heavy atom, donor atom, acceptor molecule, acceptor atom, score
      P1  H  6896  6907       L1    22  1.00
      P1  H  7997  8010       L1    16  1.00

> <Gold.PLP.Chemscore.Internal.Correction>
0.4438

> <Gold.Rescore>
     Score         DG    S(hbond)    S(metal)    S(lipo)     H(rot)  DE(clash)    DE(int)     intcor
      7.54     -11.56       1.73        0.00      83.96       3.72       0.40       3.62       ----

> <Gold.Chemscore.Fitness>
7.5408

> <Gold.Chemscore.DG>
-11.5584

> <Gold.Chemscore.ZeroCoef>
-5.4800

> <Gold.Chemscore.Hbond>
1.7303

> <Gold.Chemscore.Metal>
0.0000

> <Gold.Chemscore.Lipo>
83.9559

> <Gold.Chemscore.Internal_Hbond>
0.0000

> <Gold.Chemscore.DEClash>
0.3980

> <Gold.Chemscore.DEInternal>
3.6196

> <Gold.Chemscore.Rot>
3.7202

> <Gold.Chemscore.Internal.Correction>
   9.000000E+99

> <Gold.Chemscore.Hbonds>
donor molecule, donor type, donor heavy atom, donor atom, acceptor molecule, acceptor atom, score
      P1  H  6896  6907       L1    22  0.83
      P1  H  7997  8010       L1    16  0.33

> <Gold.Chemscore.Hbond.Weighted>
-5.7793

> <Gold.Chemscore.Metal.Weighted>
-0.0000

> <Gold.Chemscore.Lipo.Weighted>
-9.8228

> <Gold.Chemscore.Internal_Hbond.Weighted>
0.0000

> <Gold.Chemscore.DEClash.Weighted>
0.3980

> <Gold.Chemscore.DEInternal.Weighted>
3.6196

> <Gold.Chemscore.Rot.Weighted>
9.5237

> <Gold.Chemscore.Internal.Correction.Weighted>
   9.000000E+99

> <Gold.Protein.RotatedTorsions>
[ 6907 6896 6895 6894 ] final  -93.71 input  -60.11 | X-H torsion
[ 7974 7965 7964 7962 ] final -167.53 input  175.53 | X-H torsion
[ 8008 7997 7996 7995 ] final   52.90 input   59.86 | X-H torsion
[ 10167 10162 10161 10158 ] final  175.08 input  -65.29 | X-H torsion
[ 10718 10713 10712 10709 ] final -104.66 input   66.30 | X-H torsion
[ 10763 10752 10751 10750 ] final   13.27 input  -60.55 | X-H torsion
[ 11005 11000 10999 10996 ] final   93.58 input  -57.11 | X-H torsion

> <Gold.Protein.ActiveResidues>
 VAL166  LYS551  ARG553  GLY616  TRP617  ASP618  TYR619  PRO620  LYS621  CYS622 
 ASP623  PHE694  ASN695  SER759  ASP760  ASP761  ALA762  ILE779  LEU786  VAL792 
 PHE793  MET794  SER795  GLU796  ALA797  LYS798  CYS799  TRP800  GLU811  SER814 

> <Gold.Protein.RotatedAtoms>
  150.6927  134.1925  159.4290 H   0  0  0  0  0  0  0  0  0  0  0  0  # atno 6907 bound_to 6896
  151.9895  134.9984  160.0570 H   0  0  0  0  0  0  0  0  0  0  0  0  # atno 6908 bound_to 6896
  152.1681  133.4590  159.4932 H   0  0  0  0  0  0  0  0  0  0  0  0  # atno 6909 bound_to 6896
  144.7221  140.2505  143.6279 H   0  0  0  0  0  0  0  0  0  0  0  0  # atno 7974 bound_to 7965
  155.4593  140.3461  155.4311 H   0  0  0  0  0  0  0  0  0  0  0  0  # atno 8008 bound_to 7997
  156.1171  140.1477  156.9287 H   0  0  0  0  0  0  0  0  0  0  0  0  # atno 8009 bound_to 7997
  154.4796  140.0874  156.7325 H   0  0  0  0  0  0  0  0  0  0  0  0  # atno 8010 bound_to 7997
  139.5164  144.3073  152.0324 H   0  0  0  0  0  0  0  0  0  0  0  0  # atno 10167 bound_to 10162
  156.0314  130.5526  150.7428 H   0  0  0  0  0  0  0  0  0  0  0  0  # atno 10718 bound_to 10713
  153.1738  135.6816  153.8572 H   0  0  0  0  0  0  0  0  0  0  0  0  # atno 10763 bound_to 10752
  153.7927  135.3167  155.3381 H   0  0  0  0  0  0  0  0  0  0  0  0  # atno 10764 bound_to 10752
  154.8015  135.4775  154.0381 H   0  0  0  0  0  0  0  0  0  0  0  0  # atno 10765 bound_to 10752
  139.8808  134.8798  156.3739 H   0  0  0  0  0  0  0  0  0  0  0  0  # atno 11005 bound_to 11000
  145.8233  139.2053  143.1925 LP  0  0  0  0  0  0  0  0  0  0  0  0  # atno 17320 bound_to 7965
  146.0495  140.8084  142.9788 LP  0  0  0  0  0  0  0  0  0  0  0  0  # atno 17321 bound_to 7965
  140.2519  144.4160  150.6219 LP  0  0  0  0  0  0  0  0  0  0  0  0  # atno 17342 bound_to 10162
  140.6219  143.2177  151.6677 LP  0  0  0  0  0  0  0  0  0  0  0  0  # atno 17343 bound_to 10162
  157.4993  131.0917  151.0334 LP  0  0  0  0  0  0  0  0  0  0  0  0  # atno 17370 bound_to 10713
  157.0719  130.5867  149.5404 LP  0  0  0  0  0  0  0  0  0  0  0  0  # atno 17371 bound_to 10713
  140.9445  133.7492  156.0190 LP  0  0  0  0  0  0  0  0  0  0  0  0  # atno 17394 bound_to 11000
  140.8179  134.3323  157.5391 LP  0  0  0  0  0  0  0  0  0  0  0  0  # atno 17395 bound_to 11000

$$$$
