AV-unprocessed.smi:2695|AV-procd|sdf|10411|dock8
  -GOLD-   2272014443D 1   1.00000     0.00000
 Structure written by MMmdl.
 42 43  0  0  0  0  0  0  0  0  1 V2000
  151.0321  137.8277  154.6148 C   0  0  0  0  0  0  0  0  0  0  0  0
  150.1746  139.0844  154.6991 C   0  0  0  0  0  0  0  0  0  0  0  0
  148.9709  139.1098  154.0811 C   0  0  0  0  0  0  0  0  0  0  0  0
  148.1316  140.3204  154.1095 C   0  0  0  0  0  0  0  0  0  0  0  0
  147.0217  140.3586  153.5823 O   0  0  0  0  0  0  0  0  0  0  0  0
  148.7067  141.4823  154.8016 C   0  0  0  0  0  0  0  0  0  0  0  0
  149.9116  141.3627  155.3916 C   0  0  0  0  0  0  0  0  0  0  0  0
  150.4883  142.4010  156.0161 O   0  0  0  0  0  0  0  0  0  0  0  0
  150.6892  140.1878  155.4162 N   0  0  0  0  0  0  0  0  0  0  0  0
  151.9609  140.1149  156.1588 C   0  0  0  0  0  0  0  0  0  0  0  0
  151.7902  140.2562  157.6780 C   0  0  0  0  0  0  0  0  0  0  0  0
  151.0595  139.4914  158.3094 O   0  0  0  0  0  0  0  0  0  0  0  0
  152.4755  141.2597  158.2470 N   0  0  0  0  0  0  0  0  0  0  0  0
  152.4962  141.5919  159.6730 C   0  0  2  0  0  0  0  0  0  0  0  0
  152.6738  143.1230  159.8488 C   0  0  0  0  0  0  0  0  0  0  0  0
  152.1276  143.6939  161.1631 C   0  0  0  0  0  0  0  0  0  0  0  0
  151.9454  145.1956  160.9163 C   0  0  0  0  0  0  0  0  0  0  0  0
  151.8549  145.3749  159.3948 C   0  0  0  0  0  0  0  0  0  0  0  0
  151.9488  143.9698  158.7934 C   0  0  0  0  0  0  0  0  0  0  0  0
  153.5960  140.7489  160.3587 C   0  0  0  0  0  0  0  0  0  0  0  0
  153.6300  141.0272  161.6629 F   0  0  0  0  0  0  0  0  0  0  0  0
  153.3527  139.4465  160.2065 F   0  0  0  0  0  0  0  0  0  0  0  0
  154.7977  141.0264  159.8550 F   0  0  0  0  0  0  0  0  0  0  0  0
  150.6794  137.1688  153.8206 H   0  0  0  0  0  0  0  0  0  0  0  0
  150.9856  137.2714  155.5513 H   0  0  0  0  0  0  0  0  0  0  0  0
  152.0734  138.0592  154.3913 H   0  0  0  0  0  0  0  0  0  0  0  0
  148.6031  138.2503  153.5393 H   0  0  0  0  0  0  0  0  0  0  0  0
  148.1553  142.4114  154.8140 H   0  0  0  0  0  0  0  0  0  0  0  0
  152.4758  139.1764  155.9500 H   0  0  0  0  0  0  0  0  0  0  0  0
  152.6622  140.8728  155.8115 H   0  0  0  0  0  0  0  0  0  0  0  0
  153.0472  141.8357  157.6463 H   0  0  0  0  0  0  0  0  0  0  0  0
  151.5449  141.3072  160.1258 H   0  0  0  0  0  0  0  0  0  0  0  0
  153.7368  143.3641  159.7938 H   0  0  0  0  0  0  0  0  0  0  0  0
  151.1598  143.2442  161.3895 H   0  0  0  0  0  0  0  0  0  0  0  0
  152.7872  143.5024  162.0098 H   0  0  0  0  0  0  0  0  0  0  0  0
  151.0583  145.5748  161.4248 H   0  0  0  0  0  0  0  0  0  0  0  0
  152.8027  145.7480  161.3027 H   0  0  0  0  0  0  0  0  0  0  0  0
  150.9340  145.8763  159.0954 H   0  0  0  0  0  0  0  0  0  0  0  0
  152.6875  145.9874  159.0467 H   0  0  0  0  0  0  0  0  0  0  0  0
  152.4593  143.9700  157.8297 H   0  0  0  0  0  0  0  0  0  0  0  0
  150.9434  143.5780  158.6319 H   0  0  0  0  0  0  0  0  0  0  0  0
  150.0080  143.1789  155.7772 H   0  0  0  0  0  0  0  0  0  0  0  0
  1  2  1  0  0  0  0
  1 24  1  0  0  0  0
  1 25  1  0  0  0  0
  1 26  1  0  0  0  0
  2  9  1  0  0  0  0
  2  3  2  0  0  0  0
  3  4  1  0  0  0  0
  3 27  1  0  0  0  0
  4  5  2  0  0  0  0
  4  6  1  0  0  0  0
  6  7  2  0  0  0  0
  6 28  1  0  0  0  0
  7  8  1  0  0  0  0
  7  9  1  0  0  0  0
  8 42  1  0  0  0  0
  9 10  1  0  0  0  0
 10 11  1  0  0  0  0
 10 29  1  0  0  0  0
 10 30  1  0  0  0  0
 11 12  2  0  0  0  0
 11 13  1  0  0  0  0
 13 14  1  0  0  0  0
 13 31  1  0  0  0  0
 14 15  1  0  0  0  0
 14 20  1  0  0  0  0
 14 32  1  0  0  0  0
 15 19  1  0  0  0  0
 15 16  1  0  0  0  0
 15 33  1  0  0  0  0
 16 17  1  0  0  0  0
 16 34  1  0  0  0  0
 16 35  1  0  0  0  0
 17 18  1  0  0  0  0
 17 36  1  0  0  0  0
 17 37  1  0  0  0  0
 18 19  1  0  0  0  0
 18 38  1  0  0  0  0
 18 39  1  0  0  0  0
 19 40  1  0  0  0  0
 19 41  1  0  0  0  0
 20 21  1  0  0  0  0
 20 22  1  0  0  0  0
 20 23  1  0  0  0  0
M  END
> <s_m_source_file>
AV-unprocessed.smi

> <i_m_source_file_index>
2695

> <i_lp_mmshare_version>
43012

> <i_f3d_flags>
0

> <s_epik_input>
W0NIM11jMVtjSF1jKFtPSF0pW2NIXWMoPU8pbjFbQ0gyXUMoPU8pW05IXVtDQEBIXShDKEYpKEYpRilbQ0hdMltDSDJdW0NIMl1bQ0gyXVtDSDJdMg==

> <s_epik_cmdline>
J2VwaWtfcHl0aG9uJywgJy1waCcsICc3LjAnLCAnLXRuJywgJzgnLCAnLW1hJywgJzIwMCcsICctbWV0YWxfYmluZGluZycsICctaW1hZScsICc8aW5maWxlLm1hZT4nLCAnLW9tYWUnLCAnPG91dGZpbGUubWFlPic=

> <r_epik_Ionization_Penalty>
1.35977e-07

> <r_epik_Ionization_Penalty_Charging>
0

> <r_epik_Ionization_Penalty_Neutral>
1.35977e-07

> <r_epik_State_Penalty>
2.53185

> <r_epik_Charging_Adjusted_Penalty>
2.53185

> <i_epik_Tot_Q>
0

> <i_epik_Tot_abs_Q>
0

> <r_epik_Metal_State_Penalty>
2.53184

> <b_epik_Metal_Only>
0

> <s_lp_Force_Field>
OPLS_2005

> <r_lp_Energy>
25.5635

> <b_lp_Chiralities_Consistent>
1

> <s_lp_Variant>
AV-unprocessed.smi:2695-5

> <Gold.Version>
5.8.1

> <Gold.Id.Protein>
6NUR|6NUR_protein|mol2

> <Gold.PLP.Fitness>
55.2735

> <Gold.PLP.PLP>
-53.8208

> <Gold.PLP.part.hbond>
-1.0000

> <Gold.PLP.part.metal>
0.0000

> <Gold.PLP.part.buried>
-1.6183

> <Gold.PLP.part.nonpolar>
-50.9136

> <Gold.PLP.part.repulsive>
0.2557

> <Gold.PLP.ligand.clash>
0.0000

> <Gold.PLP.ligand.torsion>
0.9060

> <Gold.PLP.Chemscore.Hbond>
1.0000

> <Gold.PLP.Chemscore.CHOScore>
0.0000

> <Gold.PLP.Chemscore.Metal>
0.0000

> <Gold.Chemscore.Hbonds>
donor molecule, donor type, donor heavy atom, donor atom, acceptor molecule, acceptor atom, score
      L1  H     8    42       P1  8028  1.00

> <Gold.PLP.Chemscore.Internal.Correction>
0.2648

> <Gold.Rescore>
     Score         DG    S(hbond)    S(metal)    S(lipo)     H(rot)  DE(clash)    DE(int)     intcor
     13.74     -15.75       1.00        0.00     112.90       2.45       0.21       1.80       ----

> <Gold.Chemscore.Fitness>
13.7401

> <Gold.Chemscore.DG>
-15.7503

> <Gold.Chemscore.ZeroCoef>
-5.4800

> <Gold.Chemscore.Hbond>
0.9988

> <Gold.Chemscore.Metal>
0.0000

> <Gold.Chemscore.Lipo>
112.9008

> <Gold.Chemscore.Internal_Hbond>
0.0000

> <Gold.Chemscore.DEClash>
0.2110

> <Gold.Chemscore.DEInternal>
1.7992

> <Gold.Chemscore.Rot>
2.4512

> <Gold.Chemscore.Internal.Correction>
   9.000000E+99

> <Gold.Chemscore.Hbonds>
donor molecule, donor type, donor heavy atom, donor atom, acceptor molecule, acceptor atom, score
      L1  H     8    42       P1  8028  1.00

> <Gold.Chemscore.Hbond.Weighted>
-3.3361

> <Gold.Chemscore.Metal.Weighted>
-0.0000

> <Gold.Chemscore.Lipo.Weighted>
-13.2094

> <Gold.Chemscore.Internal_Hbond.Weighted>
0.0000

> <Gold.Chemscore.DEClash.Weighted>
0.2110

> <Gold.Chemscore.DEInternal.Weighted>
1.7992

> <Gold.Chemscore.Rot.Weighted>
6.2752

> <Gold.Chemscore.Internal.Correction.Weighted>
   9.000000E+99

> <Gold.Protein.RotatedTorsions>
[ 6907 6896 6895 6894 ] final   22.24 input  -60.11 | X-H torsion
[ 7974 7965 7964 7962 ] final   59.98 input  175.53 | X-H torsion
[ 8008 7997 7996 7995 ] final   30.16 input   59.86 | X-H torsion
[ 10167 10162 10161 10158 ] final  102.08 input  -65.29 | X-H torsion
[ 10718 10713 10712 10709 ] final -149.57 input   66.30 | X-H torsion
[ 10763 10752 10751 10750 ] final  -73.91 input  -60.55 | X-H torsion
[ 11005 11000 10999 10996 ] final -124.96 input  -57.11 | X-H torsion

> <Gold.Protein.ActiveResidues>
 VAL166  LYS551  ARG553  GLY616  TRP617  ASP618  TYR619  PRO620  LYS621  CYS622 
 ASP623  PHE694  ASN695  SER759  ASP760  ASP761  ALA762  ILE779  LEU786  VAL792 
 PHE793  MET794  SER795  GLU796  ALA797  LYS798  CYS799  TRP800  GLU811  SER814 

> <Gold.Protein.RotatedAtoms>
  151.9240  135.0285  160.0523 H   0  0  0  0  0  0  0  0  0  0  0  0  # atno 6907 bound_to 6896
  152.2175  133.4953  159.5152 H   0  0  0  0  0  0  0  0  0  0  0  0  # atno 6908 bound_to 6896
  150.6991  134.1303  159.4110 H   0  0  0  0  0  0  0  0  0  0  0  0  # atno 6909 bound_to 6896
  145.9012  139.3582  143.0591 H   0  0  0  0  0  0  0  0  0  0  0  0  # atno 7974 bound_to 7965
  155.0860  140.3215  155.4587 H   0  0  0  0  0  0  0  0  0  0  0  0  # atno 8008 bound_to 7997
  156.2755  140.2086  156.5934 H   0  0  0  0  0  0  0  0  0  0  0  0  # atno 8009 bound_to 7997
  154.6941  140.0513  157.0380 H   0  0  0  0  0  0  0  0  0  0  0  0  # atno 8010 bound_to 7997
  139.7381  144.7018  151.0618 H   0  0  0  0  0  0  0  0  0  0  0  0  # atno 10167 bound_to 10162
  156.4348  130.8093  151.2321 H   0  0  0  0  0  0  0  0  0  0  0  0  # atno 10718 bound_to 10713
  154.4660  135.5881  153.6288 H   0  0  0  0  0  0  0  0  0  0  0  0  # atno 10763 bound_to 10752
  152.9829  135.6055  154.3427 H   0  0  0  0  0  0  0  0  0  0  0  0  # atno 10764 bound_to 10752
  154.3304  135.2842  155.2454 H   0  0  0  0  0  0  0  0  0  0  0  0  # atno 10765 bound_to 10752
  140.9800  134.0686  157.3776 H   0  0  0  0  0  0  0  0  0  0  0  0  # atno 11005 bound_to 11000
  145.8789  140.9375  143.0612 LP  0  0  0  0  0  0  0  0  0  0  0  0  # atno 17320 bound_to 7965
  144.6736  140.0753  143.7471 LP  0  0  0  0  0  0  0  0  0  0  0  0  # atno 17321 bound_to 7965
  140.7782  143.4959  150.9834 LP  0  0  0  0  0  0  0  0  0  0  0  0  # atno 17342 bound_to 10162
  139.8647  143.7269  152.3171 LP  0  0  0  0  0  0  0  0  0  0  0  0  # atno 17343 bound_to 10162
  157.7507  131.0187  150.3636 LP  0  0  0  0  0  0  0  0  0  0  0  0  # atno 17370 bound_to 10713
  156.3981  130.3910  149.6980 LP  0  0  0  0  0  0  0  0  0  0  0  0  # atno 17371 bound_to 10713
  139.8946  135.0137  156.6960 LP  0  0  0  0  0  0  0  0  0  0  0  0  # atno 17394 bound_to 11000
  140.7201  133.9148  155.8141 LP  0  0  0  0  0  0  0  0  0  0  0  0  # atno 17395 bound_to 11000

$$$$
