AV-unprocessed.smi:236|AV-procd|sdf|1813|dock3
  -GOLD-   2262020403D 1   1.00000     0.00000
 Structure written by MMmdl.
 58 62  0  0  0  0  0  0  0  0  1 V2000
  144.5155  133.9351  162.2564 C   0  0  0  0  0  0  0  0  0  0  0  0
  145.1704  135.2333  162.7514 C   0  0  2  0  0  0  0  0  0  0  0  0
  144.3544  136.3610  162.4446 O   0  0  0  0  0  0  0  0  0  0  0  0
  145.1693  137.4914  162.1456 C   0  0  0  0  0  0  0  0  0  0  0  0
  146.5997  137.0641  162.4604 C   0  0  0  0  0  0  0  0  0  0  0  0
  146.5642  135.5656  162.1851 C   0  0  1  0  0  0  0  0  0  0  0  0
  147.5702  134.9326  162.9537 O   0  0  0  0  0  0  0  0  0  0  0  0
  146.7458  135.1952  160.6877 C   0  0  0  0  0  0  0  0  0  0  0  0
  147.7674  135.9774  160.0095 N   0  0  0  0  0  0  0  0  0  0  0  0
  149.0423  136.2375  160.4580 C   0  0  0  0  0  0  0  0  0  0  0  0
  149.7710  136.9745  159.6650 N   0  0  0  0  0  0  0  0  0  0  0  0
  148.9426  137.2309  158.5779 C   0  0  0  0  0  0  0  0  0  0  0  0
  149.0905  137.9658  157.3663 C   0  0  0  0  0  0  0  0  0  0  0  0
  150.2359  138.6145  157.0289 N   0  0  0  0  0  0  0  0  0  0  0  0
  151.2854  137.8537  156.3541 C   0  0  0  0  0  0  0  0  0  0  0  0
  152.3537  138.8066  155.7958 C   0  0  0  0  0  0  0  0  0  0  0  0
  152.8481  139.6323  156.8447 O   0  0  0  0  0  0  0  0  0  0  0  0
  151.8293  140.4532  157.4110 C   0  0  2  0  0  0  0  0  0  0  0  0
  152.4740  141.3690  158.4588 C   0  0  0  0  0  0  0  0  0  0  0  0
  151.4536  142.0678  159.1525 O   0  0  0  0  0  0  0  0  0  0  0  0
  151.9667  142.9464  160.1386 C   0  0  0  0  0  0  0  0  0  0  0  0
  152.5927  144.1437  159.4561 C   0  0  0  0  0  0  0  0  0  0  0  0
  151.7397  145.3220  159.0434 C   0  0  0  0  0  0  0  0  0  0  0  0
  152.3344  144.4196  157.9921 C   0  0  0  0  0  0  0  0  0  0  0  0
  150.7553  139.5389  158.0326 C   0  0  0  0  0  0  0  0  0  0  0  0
  148.0168  138.0105  156.5317 N   0  0  0  0  0  0  0  0  0  0  0  0
  146.8842  137.3765  156.8484 C   0  0  0  0  0  0  0  0  0  0  0  0
  146.6094  136.6534  157.9349 N   0  0  0  0  0  0  0  0  0  0  0  0
  147.6770  136.6104  158.7820 C   0  0  0  0  0  0  0  0  0  0  0  0
  145.1535  133.0737  162.4546 H   0  0  0  0  0  0  0  0  0  0  0  0
  144.3118  133.9672  161.1861 H   0  0  0  0  0  0  0  0  0  0  0  0
  143.5650  133.7669  162.7628 H   0  0  0  0  0  0  0  0  0  0  0  0
  145.2347  135.1950  163.8407 H   0  0  0  0  0  0  0  0  0  0  0  0
  145.0634  137.7285  161.0865 H   0  0  0  0  0  0  0  0  0  0  0  0
  144.8630  138.3659  162.7195 H   0  0  0  0  0  0  0  0  0  0  0  0
  147.3479  137.6176  161.8944 H   0  0  0  0  0  0  0  0  0  0  0  0
  146.7967  137.2479  163.5182 H   0  0  0  0  0  0  0  0  0  0  0  0
  147.8309  135.5192  163.6473 H   0  0  0  0  0  0  0  0  0  0  0  0
  147.0078  134.1417  160.5850 H   0  0  0  0  0  0  0  0  0  0  0  0
  145.8066  135.3260  160.1491 H   0  0  0  0  0  0  0  0  0  0  0  0
  149.4150  135.8671  161.4020 H   0  0  0  0  0  0  0  0  0  0  0  0
  151.7411  137.1584  157.0606 H   0  0  0  0  0  0  0  0  0  0  0  0
  150.8616  137.2635  155.5406 H   0  0  0  0  0  0  0  0  0  0  0  0
  153.1807  138.2379  155.3705 H   0  0  0  0  0  0  0  0  0  0  0  0
  151.9444  139.4234  154.9940 H   0  0  0  0  0  0  0  0  0  0  0  0
  151.3745  141.0696  156.6330 H   0  0  0  0  0  0  0  0  0  0  0  0
  153.0428  140.7690  159.1708 H   0  0  0  0  0  0  0  0  0  0  0  0
  153.1689  142.0647  157.9857 H   0  0  0  0  0  0  0  0  0  0  0  0
  151.1694  143.2761  160.8067 H   0  0  0  0  0  0  0  0  0  0  0  0
  152.7258  142.4452  160.7409 H   0  0  0  0  0  0  0  0  0  0  0  0
  153.5913  144.3824  159.8173 H   0  0  0  0  0  0  0  0  0  0  0  0
  150.6665  145.2559  159.2117 H   0  0  0  0  0  0  0  0  0  0  0  0
  152.1688  146.3157  159.1543 H   0  0  0  0  0  0  0  0  0  0  0  0
  153.1610  144.8105  157.4022 H   0  0  0  0  0  0  0  0  0  0  0  0
  151.6591  143.7509  157.4621 H   0  0  0  0  0  0  0  0  0  0  0  0
  149.9644  140.1521  158.4614 H   0  0  0  0  0  0  0  0  0  0  0  0
  151.1846  138.9617  158.8527 H   0  0  0  0  0  0  0  0  0  0  0  0
  146.0834  137.4614  156.1287 H   0  0  0  0  0  0  0  0  0  0  0  0
  1  2  1  0  0  0  0
  1 30  1  0  0  0  0
  1 31  1  0  0  0  0
  1 32  1  0  0  0  0
  2  6  1  0  0  0  0
  2  3  1  0  0  0  0
  2 33  1  0  0  0  0
  3  4  1  0  0  0  0
  4  5  1  0  0  0  0
  4 34  1  0  0  0  0
  4 35  1  0  0  0  0
  5  6  1  0  0  0  0
  5 36  1  0  0  0  0
  5 37  1  0  0  0  0
  6  7  1  0  0  0  0
  6  8  1  0  0  0  0
  7 38  1  0  0  0  0
  8  9  1  0  0  0  0
  8 39  1  0  0  0  0
  8 40  1  0  0  0  0
  9 29  1  0  0  0  0
  9 10  1  0  0  0  0
 10 11  2  0  0  0  0
 10 41  1  0  0  0  0
 11 12  1  0  0  0  0
 12 29  2  0  0  0  0
 12 13  1  0  0  0  0
 13 14  1  0  0  0  0
 13 26  2  0  0  0  0
 14 25  1  0  0  0  0
 14 15  1  0  0  0  0
 15 16  1  0  0  0  0
 15 42  1  0  0  0  0
 15 43  1  0  0  0  0
 16 17  1  0  0  0  0
 16 44  1  0  0  0  0
 16 45  1  0  0  0  0
 17 18  1  0  0  0  0
 18 19  1  0  0  0  0
 18 25  1  0  0  0  0
 18 46  1  0  0  0  0
 19 20  1  0  0  0  0
 19 47  1  0  0  0  0
 19 48  1  0  0  0  0
 20 21  1  0  0  0  0
 21 22  1  0  0  0  0
 21 49  1  0  0  0  0
 21 50  1  0  0  0  0
 22 24  1  0  0  0  0
 22 23  1  0  0  0  0
 22 51  1  0  0  0  0
 23 24  1  0  0  0  0
 23 52  1  0  0  0  0
 23 53  1  0  0  0  0
 24 54  1  0  0  0  0
 24 55  1  0  0  0  0
 25 56  1  0  0  0  0
 25 57  1  0  0  0  0
 26 27  1  0  0  0  0
 27 28  2  0  0  0  0
 27 58  1  0  0  0  0
 28 29  1  0  0  0  0
M  END
> <s_m_source_file>
AV-unprocessed.smi

> <i_m_source_file_index>
236

> <i_lp_mmshare_version>
43012

> <i_f3d_flags>
0

> <s_epik_input>
W0NIMl0xW0NIMl1PW0NAQEhdKFtDSDNdKVtDQEBdMShbT0hdKVtDSDJdbihbY0hdbjIpYyhjMjMpbltjSF1uYzNONFtDSDJdW0NIMl1PW0NASF0oW0NIMl00KVtDSDJdT1tDSDJdW0NIXTVbQ0gyXVtDSDJdNQ==

> <s_epik_cmdline>
J2VwaWtfcHl0aG9uJywgJy1waCcsICc3LjAnLCAnLXRuJywgJzgnLCAnLW1hJywgJzIwMCcsICctbWV0YWxfYmluZGluZycsICctaW1hZScsICc8aW5maWxlLm1hZT4nLCAnLW9tYWUnLCAnPG91dGZpbGUubWFlPic=

> <r_lp_tautomer_probability>
1

> <r_epik_Ionization_Penalty>
7.21838e-05

> <r_epik_Ionization_Penalty_Charging>
0

> <r_epik_Ionization_Penalty_Neutral>
7.21838e-05

> <r_epik_State_Penalty>
-0

> <r_epik_Charging_Adjusted_Penalty>
0

> <i_epik_Tot_Q>
0

> <i_epik_Tot_abs_Q>
0

> <r_epik_Metal_State_Penalty>
-0

> <b_epik_Metal_Only>
0

> <s_lp_Force_Field>
OPLS_2005

> <r_lp_Energy>
47.7421

> <b_lp_Chiralities_Consistent>
1

> <s_lp_Variant>
AV-unprocessed.smi:236-5

> <Gold.Version>
5.8.1

> <Gold.Id.Protein>
6NUR|6NUR_protein|mol2

> <Gold.PLP.Fitness>
47.0478

> <Gold.PLP.PLP>
-45.6934

> <Gold.PLP.part.hbond>
-1.3548

> <Gold.PLP.part.metal>
0.0000

> <Gold.PLP.part.buried>
-7.1126

> <Gold.PLP.part.nonpolar>
-36.9273

> <Gold.PLP.part.repulsive>
0.0335

> <Gold.PLP.ligand.clash>
0.0000

> <Gold.PLP.ligand.torsion>
1.3827

> <Gold.PLP.Chemscore.Hbond>
1.0000

> <Gold.PLP.Chemscore.CHOScore>
0.0000

> <Gold.PLP.Chemscore.Metal>
0.0000

> <Gold.Chemscore.Hbonds>
donor molecule, donor type, donor heavy atom, donor atom, acceptor molecule, acceptor atom, score
      P1  H  7997  8009       L1    17  1.00

> <Gold.PLP.Chemscore.Internal.Correction>
1.1197

> <Gold.Rescore>
     Score         DG    S(hbond)    S(metal)    S(lipo)     H(rot)  DE(clash)    DE(int)     intcor
     14.56     -16.09       0.97        0.00     125.81       2.87       0.14       1.39       ----

> <Gold.Chemscore.Fitness>
14.5610

> <Gold.Chemscore.DG>
-16.0929

> <Gold.Chemscore.ZeroCoef>
-5.4800

> <Gold.Chemscore.Hbond>
0.9666

> <Gold.Chemscore.Metal>
0.0000

> <Gold.Chemscore.Lipo>
125.8149

> <Gold.Chemscore.Internal_Hbond>
0.0000

> <Gold.Chemscore.DEClash>
0.1448

> <Gold.Chemscore.DEInternal>
1.3871

> <Gold.Chemscore.Rot>
2.8655

> <Gold.Chemscore.Internal.Correction>
   9.000000E+99

> <Gold.Chemscore.Hbonds>
donor molecule, donor type, donor heavy atom, donor atom, acceptor molecule, acceptor atom, score
      P1  H  7997  8009       L1    17  0.87

> <Gold.Chemscore.Hbond.Weighted>
-3.2283

> <Gold.Chemscore.Metal.Weighted>
-0.0000

> <Gold.Chemscore.Lipo.Weighted>
-14.7203

> <Gold.Chemscore.Internal_Hbond.Weighted>
0.0000

> <Gold.Chemscore.DEClash.Weighted>
0.1448

> <Gold.Chemscore.DEInternal.Weighted>
1.3871

> <Gold.Chemscore.Rot.Weighted>
7.3358

> <Gold.Chemscore.Internal.Correction.Weighted>
   9.000000E+99

> <Gold.Protein.RotatedTorsions>
[ 6907 6896 6895 6894 ] final  -98.36 input  -60.11 | X-H torsion
[ 7974 7965 7964 7962 ] final  -91.02 input  175.53 | X-H torsion
[ 8008 7997 7996 7995 ] final  178.53 input   59.86 | X-H torsion
[ 10167 10162 10161 10158 ] final  -69.54 input  -65.29 | X-H torsion
[ 10718 10713 10712 10709 ] final -178.48 input   66.30 | X-H torsion
[ 10763 10752 10751 10750 ] final   90.38 input  -60.55 | X-H torsion
[ 11005 11000 10999 10996 ] final   58.23 input  -57.11 | X-H torsion

> <Gold.Protein.ActiveResidues>
 VAL166  LYS551  ARG553  GLY616  TRP617  ASP618  TYR619  PRO620  LYS621  CYS622 
 ASP623  PHE694  ASN695  SER759  ASP760  ASP761  ALA762  ILE779  LEU786  VAL792 
 PHE793  MET794  SER795  GLU796  ALA797  LYS798  CYS799  TRP800  GLU811  SER814 

> <Gold.Protein.RotatedAtoms>
  150.7044  134.1206  159.4033 H   0  0  0  0  0  0  0  0  0  0  0  0  # atno 6907 bound_to 6896
  151.9192  135.0303  160.0530 H   0  0  0  0  0  0  0  0  0  0  0  0  # atno 6908 bound_to 6896
  152.2270  133.4993  159.5231 H   0  0  0  0  0  0  0  0  0  0  0  0  # atno 6909 bound_to 6896
  145.4187  140.9550  143.2193 H   0  0  0  0  0  0  0  0  0  0  0  0  # atno 7974 bound_to 7965
  156.0536  140.1331  157.0022 H   0  0  0  0  0  0  0  0  0  0  0  0  # atno 8008 bound_to 7997
  154.4447  140.1006  156.6483 H   0  0  0  0  0  0  0  0  0  0  0  0  # atno 8009 bound_to 7997
  155.5486  140.3462  155.4465 H   0  0  0  0  0  0  0  0  0  0  0  0  # atno 8010 bound_to 7997
  140.5422  143.2314  151.7068 H   0  0  0  0  0  0  0  0  0  0  0  0  # atno 10167 bound_to 10162
  156.8449  130.9699  151.3097 H   0  0  0  0  0  0  0  0  0  0  0  0  # atno 10718 bound_to 10713
  153.1969  135.4436  155.0219 H   0  0  0  0  0  0  0  0  0  0  0  0  # atno 10763 bound_to 10752
  154.8124  135.3300  154.7271 H   0  0  0  0  0  0  0  0  0  0  0  0  # atno 10764 bound_to 10752
  153.7720  135.6984  153.4960 H   0  0  0  0  0  0  0  0  0  0  0  0  # atno 10765 bound_to 10752
  140.0393  134.5897  155.9403 H   0  0  0  0  0  0  0  0  0  0  0  0  # atno 11005 bound_to 11000
  144.8260  139.5709  143.6965 LP  0  0  0  0  0  0  0  0  0  0  0  0  # atno 17320 bound_to 7965
  146.2668  139.6538  142.9324 LP  0  0  0  0  0  0  0  0  0  0  0  0  # atno 17321 bound_to 7965
  139.4993  144.3950  152.0240 LP  0  0  0  0  0  0  0  0  0  0  0  0  # atno 17342 bound_to 10162
  140.3060  144.3592  150.6047 LP  0  0  0  0  0  0  0  0  0  0  0  0  # atno 17343 bound_to 10162
  157.6335  130.8748  149.9317 LP  0  0  0  0  0  0  0  0  0  0  0  0  # atno 17370 bound_to 10713
  156.0860  130.3668  150.0487 LP  0  0  0  0  0  0  0  0  0  0  0  0  # atno 17371 bound_to 10713
  141.1874  133.6560  156.5281 LP  0  0  0  0  0  0  0  0  0  0  0  0  # atno 17394 bound_to 11000
  140.4095  134.7284  157.4828 LP  0  0  0  0  0  0  0  0  0  0  0  0  # atno 17395 bound_to 11000

$$$$
