AV-unprocessed.smi:1160|AV-procd|sdf|4916|dock1
  -GOLD-   22720 3493D 1   1.00000     0.00000
 Structure written by MMmdl.
 44 45  0  0  0  0  0  0  0  0  1 V2000
  150.9051  137.1577  156.0957 C   0  0  0  0  0  0  0  0  0  0  0  0
  151.3703  138.0421  154.9363 C   0  0  0  0  0  0  0  0  0  0  0  0
  150.2730  138.2520  154.0528 O   0  0  0  0  0  0  0  0  0  0  0  0
  149.5225  139.4050  154.1875 C   0  0  0  0  0  0  0  0  0  0  0  0
  150.0481  140.4380  154.8924 N   0  0  0  0  0  0  0  0  0  0  0  0
  149.3198  141.5658  155.0195 C   0  0  0  0  0  0  0  0  0  0  0  0
  148.0435  141.7262  154.4504 C   0  0  0  0  0  0  0  0  0  0  0  0
  147.4957  140.6562  153.7190 C   0  0  0  0  0  0  0  0  0  0  0  0
  148.2417  139.4591  153.5892 C   0  0  0  0  0  0  0  0  0  0  0  0
  147.7949  138.3188  152.8648 N   0  0  0  0  0  0  0  0  0  0  0  0
  146.5389  137.9432  152.5684 C   0  0  0  0  0  0  0  0  0  0  0  0
  145.5197  138.5676  152.8608 O   0  0  0  0  0  0  0  0  0  0  0  0
  146.5313  136.7719  151.9160 N   0  0  0  0  0  0  0  0  0  0  0  0
  145.3441  136.0507  151.4651 C   0  0  0  0  0  0  0  0  0  0  0  0
  145.2867  134.6691  152.1507 C   0  0  0  0  0  0  0  0  0  0  0  0
  144.1689  133.7963  151.5533 C   0  0  0  0  0  0  0  0  0  0  0  0
  144.3797  133.6826  150.1053 N   0  0  0  0  0  0  0  0  0  0  0  0
  144.7758  132.5308  149.5122 C   0  0  0  0  0  0  0  0  0  0  0  0
  144.9618  131.2742  150.3654 C   0  0  0  0  0  0  0  0  0  0  0  0
  144.9965  132.4463  148.3040 O   0  0  0  0  0  0  0  0  0  0  0  0
  144.2406  134.9816  149.4346 C   0  0  0  0  0  0  0  0  0  0  0  0
  145.3585  135.9191  149.9263 C   0  0  0  0  0  0  0  0  0  0  0  0
  151.7215  136.9688  156.7931 H   0  0  0  0  0  0  0  0  0  0  0  0
  150.5457  136.1946  155.7327 H   0  0  0  0  0  0  0  0  0  0  0  0
  150.0943  137.6315  156.6498 H   0  0  0  0  0  0  0  0  0  0  0  0
  151.7327  138.9950  155.3254 H   0  0  0  0  0  0  0  0  0  0  0  0
  152.1944  137.5539  154.4133 H   0  0  0  0  0  0  0  0  0  0  0  0
  149.7709  142.3666  155.5863 H   0  0  0  0  0  0  0  0  0  0  0  0
  147.4982  142.6508  154.5682 H   0  0  0  0  0  0  0  0  0  0  0  0
  146.5253  140.7834  153.2657 H   0  0  0  0  0  0  0  0  0  0  0  0
  148.5215  137.6664  152.6084 H   0  0  0  0  0  0  0  0  0  0  0  0
  147.4209  136.3347  151.7247 H   0  0  0  0  0  0  0  0  0  0  0  0
  144.4386  136.5922  151.7453 H   0  0  0  0  0  0  0  0  0  0  0  0
  146.2417  134.1550  152.0312 H   0  0  0  0  0  0  0  0  0  0  0  0
  145.1330  134.7896  153.2237 H   0  0  0  0  0  0  0  0  0  0  0  0
  144.1456  132.8284  152.0554 H   0  0  0  0  0  0  0  0  0  0  0  0
  143.1955  134.2511  151.7428 H   0  0  0  0  0  0  0  0  0  0  0  0
  144.0304  131.0016  150.8623 H   0  0  0  0  0  0  0  0  0  0  0  0
  145.7349  131.4293  151.1182 H   0  0  0  0  0  0  0  0  0  0  0  0
  145.2668  130.4308  149.7450 H   0  0  0  0  0  0  0  0  0  0  0  0
  144.2636  134.9179  148.3476 H   0  0  0  0  0  0  0  0  0  0  0  0
  143.2658  135.4060  149.6793 H   0  0  0  0  0  0  0  0  0  0  0  0
  145.2491  136.9018  149.4660 H   0  0  0  0  0  0  0  0  0  0  0  0
  146.3222  135.5285  149.5953 H   0  0  0  0  0  0  0  0  0  0  0  0
  1  2  1  0  0  0  0
  1 23  1  0  0  0  0
  1 24  1  0  0  0  0
  1 25  1  0  0  0  0
  2  3  1  0  0  0  0
  2 26  1  0  0  0  0
  2 27  1  0  0  0  0
  3  4  1  0  0  0  0
  4  9  1  0  0  0  0
  4  5  2  0  0  0  0
  5  6  1  0  0  0  0
  6  7  2  0  0  0  0
  6 28  1  0  0  0  0
  7  8  1  0  0  0  0
  7 29  1  0  0  0  0
  8  9  2  0  0  0  0
  8 30  1  0  0  0  0
  9 10  1  0  0  0  0
 10 11  1  0  0  0  0
 10 31  1  0  0  0  0
 11 12  2  0  0  0  0
 11 13  1  0  0  0  0
 13 14  1  0  0  0  0
 13 32  1  0  0  0  0
 14 22  1  0  0  0  0
 14 15  1  0  0  0  0
 14 33  1  0  0  0  0
 15 16  1  0  0  0  0
 15 34  1  0  0  0  0
 15 35  1  0  0  0  0
 16 17  1  0  0  0  0
 16 36  1  0  0  0  0
 16 37  1  0  0  0  0
 17 18  1  0  0  0  0
 17 21  1  0  0  0  0
 18 19  1  0  0  0  0
 18 20  2  0  0  0  0
 19 38  1  0  0  0  0
 19 39  1  0  0  0  0
 19 40  1  0  0  0  0
 21 22  1  0  0  0  0
 21 41  1  0  0  0  0
 21 42  1  0  0  0  0
 22 43  1  0  0  0  0
 22 44  1  0  0  0  0
M  END
> <s_m_source_file>
AV-unprocessed.smi

> <i_m_source_file_index>
1160

> <i_lp_mmshare_version>
43012

> <i_f3d_flags>
0

> <s_epik_input>
W0NIM11bQ0gyXU9jMW5bY0hdW2NIXVtjSF1jMVtOSF1DKD1PKVtOSF1bQ0hdMltDSDJdW0NIMl1OKEMoPU8pW0NIM10pW0NIMl1bQ0gyXTI=

> <s_epik_cmdline>
J2VwaWtfcHl0aG9uJywgJy1waCcsICc3LjAnLCAnLXRuJywgJzgnLCAnLW1hJywgJzIwMCcsICctbWV0YWxfYmluZGluZycsICctaW1hZScsICc8aW5maWxlLm1hZT4nLCAnLW9tYWUnLCAnPG91dGZpbGUubWFlPic=

> <r_lp_tautomer_probability>
1

> <r_epik_Ionization_Penalty>
0.00011666

> <r_epik_Ionization_Penalty_Charging>
0

> <r_epik_Ionization_Penalty_Neutral>
0.00011666

> <r_epik_State_Penalty>
-0

> <r_epik_Charging_Adjusted_Penalty>
0

> <i_epik_Tot_Q>
0

> <i_epik_Tot_abs_Q>
0

> <r_epik_Metal_State_Penalty>
-0

> <b_epik_Metal_Only>
0

> <s_lp_Force_Field>
OPLS_2005

> <r_lp_Energy>
24.4955

> <b_lp_Chiralities_Consistent>
1

> <s_lp_Variant>
AV-unprocessed.smi:1160-1

> <Gold.Version>
5.8.1

> <Gold.Id.Protein>
6NUR|6NUR_protein|mol2

> <Gold.PLP.Fitness>
46.2982

> <Gold.PLP.PLP>
-35.8995

> <Gold.PLP.part.hbond>
-4.0990

> <Gold.PLP.part.metal>
0.0000

> <Gold.PLP.part.buried>
-0.5487

> <Gold.PLP.part.nonpolar>
-33.5799

> <Gold.PLP.part.repulsive>
1.6862

> <Gold.PLP.ligand.clash>
0.0000

> <Gold.PLP.ligand.torsion>
0.6048

> <Gold.PLP.Chemscore.Hbond>
2.9120

> <Gold.PLP.Chemscore.CHOScore>
0.9325

> <Gold.PLP.Chemscore.Metal>
0.0000

> <Gold.Chemscore.Hbonds>
donor molecule, donor type, donor heavy atom, donor atom, acceptor molecule, acceptor atom, score
      L1  H    10    31       P1  7948  0.99
      L1  H    13    32       P1  7948  0.96
      P1  H  7989  7998       L1     5  0.54
      L1  C     6    28       P1  8028  0.88

> <Gold.PLP.Chemscore.Internal.Correction>
0.0748

> <Gold.Rescore>
     Score         DG    S(hbond)    S(metal)    S(lipo)     H(rot)  DE(clash)    DE(int)     intcor
     14.91     -16.63       1.94        0.00      71.22       1.43       0.25       1.48       ----

> <Gold.Chemscore.Fitness>
14.9061

> <Gold.Chemscore.DG>
-16.6336

> <Gold.Chemscore.ZeroCoef>
-5.4800

> <Gold.Chemscore.Hbond>
1.9405

> <Gold.Chemscore.Metal>
0.0000

> <Gold.Chemscore.Lipo>
71.2157

> <Gold.Chemscore.Internal_Hbond>
0.0000

> <Gold.Chemscore.DEClash>
0.2469

> <Gold.Chemscore.DEInternal>
1.4806

> <Gold.Chemscore.Rot>
1.4297

> <Gold.Chemscore.Internal.Correction>
   9.000000E+99

> <Gold.Chemscore.Hbonds>
donor molecule, donor type, donor heavy atom, donor atom, acceptor molecule, acceptor atom, score
      L1  H    10    31       P1  7948  0.93
      L1  H    13    32       P1  7948  0.88
      P1  H  7918  7932       L1    20  0.01
      P1  H  7989  7998       L1     5  0.04

> <Gold.Chemscore.Hbond.Weighted>
-6.4813

> <Gold.Chemscore.Metal.Weighted>
-0.0000

> <Gold.Chemscore.Lipo.Weighted>
-8.3322

> <Gold.Chemscore.Internal_Hbond.Weighted>
0.0000

> <Gold.Chemscore.DEClash.Weighted>
0.2469

> <Gold.Chemscore.DEInternal.Weighted>
1.4806

> <Gold.Chemscore.Rot.Weighted>
3.6600

> <Gold.Chemscore.Internal.Correction.Weighted>
   9.000000E+99

> <Gold.Protein.RotatedTorsions>
[ 6907 6896 6895 6894 ] final -107.97 input  -60.11 | X-H torsion
[ 7974 7965 7964 7962 ] final -174.49 input  175.53 | X-H torsion
[ 8008 7997 7996 7995 ] final  152.64 input   59.86 | X-H torsion
[ 10167 10162 10161 10158 ] final  154.86 input  -65.29 | X-H torsion
[ 10718 10713 10712 10709 ] final -170.58 input   66.30 | X-H torsion
[ 10763 10752 10751 10750 ] final   87.98 input  -60.55 | X-H torsion
[ 11005 11000 10999 10996 ] final  -92.70 input  -57.11 | X-H torsion

> <Gold.Protein.ActiveResidues>
 VAL166  LYS551  ARG553  GLY616  TRP617  ASP618  TYR619  PRO620  LYS621  CYS622 
 ASP623  PHE694  ASN695  SER759  ASP760  ASP761  ALA762  ILE779  LEU786  VAL792 
 PHE793  MET794  SER795  GLU796  ALA797  LYS798  CYS799  TRP800  GLU811  SER814 

> <Gold.Protein.RotatedAtoms>
  150.7475  133.9746  159.3556 H   0  0  0  0  0  0  0  0  0  0  0  0  # atno 6907 bound_to 6896
  151.7683  135.0791  160.0365 H   0  0  0  0  0  0  0  0  0  0  0  0  # atno 6908 bound_to 6896
  152.3356  133.5971  159.5876 H   0  0  0  0  0  0  0  0  0  0  0  0  # atno 6909 bound_to 6896
  144.7131  140.1463  143.6388 H   0  0  0  0  0  0  0  0  0  0  0  0  # atno 7974 bound_to 7965
  156.2619  140.2015  156.6365 H   0  0  0  0  0  0  0  0  0  0  0  0  # atno 8008 bound_to 7997
  154.6642  140.0557  157.0120 H   0  0  0  0  0  0  0  0  0  0  0  0  # atno 8009 bound_to 7997
  155.1231  140.3226  155.4495 H   0  0  0  0  0  0  0  0  0  0  0  0  # atno 8010 bound_to 7997
  139.4822  144.5149  151.7967 H   0  0  0  0  0  0  0  0  0  0  0  0  # atno 10167 bound_to 10162
  156.7283  130.9296  151.3102 H   0  0  0  0  0  0  0  0  0  0  0  0  # atno 10718 bound_to 10713
  153.1722  135.4523  154.9918 H   0  0  0  0  0  0  0  0  0  0  0  0  # atno 10763 bound_to 10752
  154.7974  135.3242  154.7636 H   0  0  0  0  0  0  0  0  0  0  0  0  # atno 10764 bound_to 10752
  153.8111  135.6954  153.4895 H   0  0  0  0  0  0  0  0  0  0  0  0  # atno 10765 bound_to 10752
  141.1515  133.7838  157.0056 H   0  0  0  0  0  0  0  0  0  0  0  0  # atno 11005 bound_to 11000
  145.9156  139.2514  143.1411 LP  0  0  0  0  0  0  0  0  0  0  0  0  # atno 17320 bound_to 7965
  145.9672  140.8789  143.0181 LP  0  0  0  0  0  0  0  0  0  0  0  0  # atno 17321 bound_to 7965
  140.4656  144.1659  150.5911 LP  0  0  0  0  0  0  0  0  0  0  0  0  # atno 17342 bound_to 10162
  140.4437  143.2515  151.9439 LP  0  0  0  0  0  0  0  0  0  0  0  0  # atno 17343 bound_to 10162
  157.6869  130.9195  150.0411 LP  0  0  0  0  0  0  0  0  0  0  0  0  # atno 17370 bound_to 10713
  156.1546  130.3643  149.9387 LP  0  0  0  0  0  0  0  0  0  0  0  0  # atno 17371 bound_to 10713
  140.0911  134.9592  157.1778 LP  0  0  0  0  0  0  0  0  0  0  0  0  # atno 17394 bound_to 11000
  140.3444  134.2668  155.7207 LP  0  0  0  0  0  0  0  0  0  0  0  0  # atno 17395 bound_to 11000

$$$$
