AV-unprocessed.smi:2061|AV-procd|sdf|8366|dock7
  -GOLD-   2272011 43D 1   1.00000     0.00000
 Structure written by MMmdl.
 46 47  0  0  0  0  0  0  0  0  2 V2000
  151.6117  141.6657  157.6900 C   0  0  0  0  0  0  0  0  0  0  0  0
  151.3110  140.8280  156.4948 C   0  0  0  0  0  0  0  0  0  0  0  0
  150.1704  140.6102  155.7748 C   0  0  0  0  0  0  0  0  0  0  0  0
  150.5984  139.6961  154.7681 C   0  0  0  0  0  0  0  0  0  0  0  0
  149.7894  139.1292  153.7498 N   0  0  0  0  0  0  0  0  0  0  0  0
  148.5398  139.4696  153.3929 C   0  0  0  0  0  0  0  0  0  0  0  0
  147.8817  140.3876  153.8829 O   0  0  0  0  0  0  0  0  0  0  0  0
  148.0775  138.6756  152.4164 N   0  0  0  0  0  0  0  0  0  0  0  0
  146.7503  138.7841  151.8176 C   0  0  0  0  0  0  0  0  0  0  0  0
  145.6908  137.8940  152.5210 C   0  0  2  0  0  0  0  0  0  0  0  0
  145.3908  138.4457  153.9362 C   0  0  0  0  0  0  0  0  0  0  0  0
  146.1319  136.4609  152.5163 N   0  3  1  0  0  0  0  0  0  0  0  0
  145.9819  135.7344  153.8070 C   0  0  0  0  0  0  0  0  0  0  0  0
  146.5118  134.2917  153.6951 C   0  0  1  0  0  0  0  0  0  0  0  0
  146.3000  133.4961  154.9879 C   0  0  0  0  0  0  0  0  0  0  0  0
  145.8298  133.6192  152.6449 O   0  0  0  0  0  0  0  0  0  0  0  0
  146.0423  134.2369  151.3827 C   0  0  1  0  0  0  0  0  0  0  0  0
  145.3485  133.3863  150.3130 C   0  0  0  0  0  0  0  0  0  0  0  0
  145.4877  135.6721  151.4311 C   0  0  0  0  0  0  0  0  0  0  0  0
  151.8776  139.3867  154.8720 N   0  0  0  0  0  0  0  0  0  0  0  0
  152.3438  140.1109  155.9755 O   0  0  0  0  0  0  0  0  0  0  0  0
  150.7137  142.1688  158.0494 H   0  0  0  0  0  0  0  0  0  0  0  0
  152.3540  142.4276  157.4513 H   0  0  0  0  0  0  0  0  0  0  0  0
  152.0033  141.0529  158.5021 H   0  0  0  0  0  0  0  0  0  0  0  0
  149.1973  141.0407  155.9562 H   0  0  0  0  0  0  0  0  0  0  0  0
  150.2132  138.3696  153.2374 H   0  0  0  0  0  0  0  0  0  0  0  0
  148.6815  137.9468  152.0645 H   0  0  0  0  0  0  0  0  0  0  0  0
  146.4693  139.8365  151.8176 H   0  0  0  0  0  0  0  0  0  0  0  0
  146.8326  138.4970  150.7689 H   0  0  0  0  0  0  0  0  0  0  0  0
  144.7550  137.9462  151.9622 H   0  0  0  0  0  0  0  0  0  0  0  0
  145.1040  139.4967  153.9073 H   0  0  0  0  0  0  0  0  0  0  0  0
  146.2604  138.3636  154.5891 H   0  0  0  0  0  0  0  0  0  0  0  0
  144.5563  137.9273  154.4089 H   0  0  0  0  0  0  0  0  0  0  0  0
  146.5462  136.2291  154.5969 H   0  0  0  0  0  0  0  0  0  0  0  0
  144.9317  135.7321  154.1042 H   0  0  0  0  0  0  0  0  0  0  0  0
  147.5806  134.3109  153.4742 H   0  0  0  0  0  0  0  0  0  0  0  0
  146.8079  133.9699  155.8285 H   0  0  0  0  0  0  0  0  0  0  0  0
  146.6934  132.4840  154.8909 H   0  0  0  0  0  0  0  0  0  0  0  0
  145.2411  133.4191  155.2365 H   0  0  0  0  0  0  0  0  0  0  0  0
  147.1118  134.2612  151.1659 H   0  0  0  0  0  0  0  0  0  0  0  0
  145.4894  133.8124  149.3192 H   0  0  0  0  0  0  0  0  0  0  0  0
  144.2762  133.3163  150.4981 H   0  0  0  0  0  0  0  0  0  0  0  0
  145.7509  132.3731  150.2991 H   0  0  0  0  0  0  0  0  0  0  0  0
  144.4088  135.6478  151.5940 H   0  0  0  0  0  0  0  0  0  0  0  0
  145.6455  136.1381  150.4603 H   0  0  0  0  0  0  0  0  0  0  0  0
  147.1233  136.4729  152.3237 H   0  0  0  0  0  0  0  0  0  0  0  0
  1  2  1  0  0  0  0
  1 22  1  0  0  0  0
  1 23  1  0  0  0  0
  1 24  1  0  0  0  0
  2 21  1  0  0  0  0
  2  3  2  0  0  0  0
  3  4  1  0  0  0  0
  3 25  1  0  0  0  0
  4  5  1  0  0  0  0
  4 20  2  0  0  0  0
  5  6  1  0  0  0  0
  5 26  1  0  0  0  0
  6  7  2  0  0  0  0
  6  8  1  0  0  0  0
  8  9  1  0  0  0  0
  8 27  1  0  0  0  0
  9 10  1  0  0  0  0
  9 28  1  0  0  0  0
  9 29  1  0  0  0  0
 10 11  1  0  0  0  0
 10 12  1  0  0  0  0
 10 30  1  0  0  0  0
 11 31  1  0  0  0  0
 11 32  1  0  0  0  0
 11 33  1  0  0  0  0
 12 19  1  0  0  0  0
 12 13  1  0  0  0  0
 12 46  1  0  0  0  0
 13 14  1  0  0  0  0
 13 34  1  0  0  0  0
 13 35  1  0  0  0  0
 14 15  1  0  0  0  0
 14 16  1  0  0  0  0
 14 36  1  0  0  0  0
 15 37  1  0  0  0  0
 15 38  1  0  0  0  0
 15 39  1  0  0  0  0
 16 17  1  0  0  0  0
 17 18  1  0  0  0  0
 17 19  1  0  0  0  0
 17 40  1  0  0  0  0
 18 41  1  0  0  0  0
 18 42  1  0  0  0  0
 18 43  1  0  0  0  0
 19 44  1  0  0  0  0
 19 45  1  0  0  0  0
 20 21  1  0  0  0  0
M  CHG  1  12   1
M  END
> <s_m_source_file>
AV-unprocessed.smi

> <i_m_source_file_index>
2061

> <i_lp_mmshare_version>
43012

> <i_f3d_flags>
0

> <s_epik_input>
W0NIM11jMVtjSF1jKG5vMSlbTkhdQyg9TylbTkhdW0NIMl1bQ0BIXShbQ0gzXSlOMltDSDJdW0NAQEhdKFtDSDNdKU9bQ0BASF0oW0NIM10pW0NIMl0y

> <s_epik_cmdline>
J2VwaWtfcHl0aG9uJywgJy1waCcsICc3LjAnLCAnLXRuJywgJzgnLCAnLW1hJywgJzIwMCcsICctbWV0YWxfYmluZGluZycsICctaW1hZScsICc8aW5maWxlLm1hZT4nLCAnLW9tYWUnLCAnPG91dGZpbGUubWFlPic=

> <r_epik_Ionization_Penalty>
0.707076

> <r_epik_Ionization_Penalty_Charging>
0.707039

> <r_epik_Ionization_Penalty_Neutral>
3.6548e-05

> <r_epik_State_Penalty>
0.730276

> <r_epik_Charging_Adjusted_Penalty>
1.43732

> <i_epik_Tot_Q>
1

> <i_epik_Tot_abs_Q>
1

> <r_epik_Metal_State_Penalty>
0.743132

> <b_epik_Metal_Only>
0

> <s_lp_Force_Field>
OPLS_2005

> <r_lp_Energy>
18.102

> <b_lp_Chiralities_Consistent>
1

> <s_lp_Variant>
AV-unprocessed.smi:2061-7

> <Gold.Version>
5.8.1

> <Gold.Id.Protein>
6NUR|6NUR_protein|mol2

> <Gold.PLP.Fitness>
40.1888

> <Gold.PLP.PLP>
-31.2343

> <Gold.PLP.part.hbond>
-5.8854

> <Gold.PLP.part.metal>
0.0000

> <Gold.PLP.part.buried>
-0.0138

> <Gold.PLP.part.nonpolar>
-24.7753

> <Gold.PLP.part.repulsive>
0.4757

> <Gold.PLP.ligand.clash>
0.0000

> <Gold.PLP.ligand.torsion>
1.4892

> <Gold.PLP.Chemscore.Hbond>
3.9600

> <Gold.PLP.Chemscore.CHOScore>
0.0000

> <Gold.PLP.Chemscore.Metal>
0.0000

> <Gold.Chemscore.Hbonds>
donor molecule, donor type, donor heavy atom, donor atom, acceptor molecule, acceptor atom, score
      L1  H     8    27       P1  7948  0.98
      L1  H    12    46       P1  7948  2.00
      P1  H  7997  8009       L1    21  0.90

> <Gold.PLP.Chemscore.Internal.Correction>
0.0529

> <Gold.Rescore>
     Score         DG    S(hbond)    S(metal)    S(lipo)     H(rot)  DE(clash)    DE(int)     intcor
     14.11     -18.22       2.94        0.00      59.67       1.58       1.53       2.58       ----

> <Gold.Chemscore.Fitness>
14.1144

> <Gold.Chemscore.DG>
-18.2245

> <Gold.Chemscore.ZeroCoef>
-5.4800

> <Gold.Chemscore.Hbond>
2.9392

> <Gold.Chemscore.Metal>
0.0000

> <Gold.Chemscore.Lipo>
59.6655

> <Gold.Chemscore.Internal_Hbond>
0.0000

> <Gold.Chemscore.DEClash>
1.5329

> <Gold.Chemscore.DEInternal>
2.5772

> <Gold.Chemscore.Rot>
1.5834

> <Gold.Chemscore.Internal.Correction>
   9.000000E+99

> <Gold.Chemscore.Hbonds>
donor molecule, donor type, donor heavy atom, donor atom, acceptor molecule, acceptor atom, score
      L1  H     8    27       P1  7948  0.93
      L1  H    12    46       P1  7948  1.00
      P1  H  7997  8009       L1    21  0.64

> <Gold.Chemscore.Hbond.Weighted>
-9.8171

> <Gold.Chemscore.Metal.Weighted>
-0.0000

> <Gold.Chemscore.Lipo.Weighted>
-6.9809

> <Gold.Chemscore.Internal_Hbond.Weighted>
0.0000

> <Gold.Chemscore.DEClash.Weighted>
1.5329

> <Gold.Chemscore.DEInternal.Weighted>
2.5772

> <Gold.Chemscore.Rot.Weighted>
4.0535

> <Gold.Chemscore.Internal.Correction.Weighted>
   9.000000E+99

> <Gold.Protein.RotatedTorsions>
[ 6907 6896 6895 6894 ] final -163.10 input  -60.11 | X-H torsion
[ 7974 7965 7964 7962 ] final -157.01 input  175.53 | X-H torsion
[ 8008 7997 7996 7995 ] final -139.91 input   59.86 | X-H torsion
[ 10167 10162 10161 10158 ] final   57.37 input  -65.29 | X-H torsion
[ 10718 10713 10712 10709 ] final    0.18 input   66.30 | X-H torsion
[ 10763 10752 10751 10750 ] final   93.52 input  -60.55 | X-H torsion
[ 11005 11000 10999 10996 ] final   29.06 input  -57.11 | X-H torsion

> <Gold.Protein.ActiveResidues>
 VAL166  LYS551  ARG553  GLY616  TRP617  ASP618  TYR619  PRO620  LYS621  CYS622 
 ASP623  PHE694  ASN695  SER759  ASP760  ASP761  ALA762  ILE779  LEU786  VAL792 
 PHE793  MET794  SER795  GLU796  ALA797  LYS798  CYS799  TRP800  GLU811  SER814 

> <Gold.Protein.RotatedAtoms>
  151.3907  133.3790  159.2720 H   0  0  0  0  0  0  0  0  0  0  0  0  # atno 6907 bound_to 6896
  150.9507  134.8908  159.7681 H   0  0  0  0  0  0  0  0  0  0  0  0  # atno 6908 bound_to 6896
  152.5110  134.3862  159.9420 H   0  0  0  0  0  0  0  0  0  0  0  0  # atno 6909 bound_to 6896
  144.7567  140.4030  143.6007 H   0  0  0  0  0  0  0  0  0  0  0  0  # atno 7974 bound_to 7965
  155.4526  140.0540  157.2999 H   0  0  0  0  0  0  0  0  0  0  0  0  # atno 8008 bound_to 7997
  154.4771  140.2065  155.9809 H   0  0  0  0  0  0  0  0  0  0  0  0  # atno 8009 bound_to 7997
  156.1148  140.3198  155.8128 H   0  0  0  0  0  0  0  0  0  0  0  0  # atno 8010 bound_to 7997
  140.1987  144.4010  150.6538 H   0  0  0  0  0  0  0  0  0  0  0  0  # atno 10167 bound_to 10162
  156.8296  130.5484  149.5688 H   0  0  0  0  0  0  0  0  0  0  0  0  # atno 10718 bound_to 10713
  153.2313  135.4322  155.0598 H   0  0  0  0  0  0  0  0  0  0  0  0  # atno 10763 bound_to 10752
  154.8298  135.3380  154.6784 H   0  0  0  0  0  0  0  0  0  0  0  0  # atno 10764 bound_to 10752
  153.7211  135.7017  153.5069 H   0  0  0  0  0  0  0  0  0  0  0  0  # atno 10765 bound_to 10752
  140.3090  134.2671  155.7738 H   0  0  0  0  0  0  0  0  0  0  0  0  # atno 11005 bound_to 11000
  145.6754  139.1607  143.2730 LP  0  0  0  0  0  0  0  0  0  0  0  0  # atno 17320 bound_to 7965
  146.1586  140.6822  142.9288 LP  0  0  0  0  0  0  0  0  0  0  0  0  # atno 17321 bound_to 7965
  140.6405  143.2203  151.6300 LP  0  0  0  0  0  0  0  0  0  0  0  0  # atno 17342 bound_to 10162
  139.5226  144.3158  152.0953 LP  0  0  0  0  0  0  0  0  0  0  0  0  # atno 17343 bound_to 10162
  156.0942  130.5919  150.9785 LP  0  0  0  0  0  0  0  0  0  0  0  0  # atno 17370 bound_to 10713
  157.6414  131.0910  150.8244 LP  0  0  0  0  0  0  0  0  0  0  0  0  # atno 17371 bound_to 10713
  141.2112  133.7695  156.9879 LP  0  0  0  0  0  0  0  0  0  0  0  0  # atno 17394 bound_to 11000
  140.1042  134.9517  157.1968 LP  0  0  0  0  0  0  0  0  0  0  0  0  # atno 17395 bound_to 11000

$$$$
