AV-unprocessed.smi:2067|AV-procd|sdf|8426|dock2
  -GOLD-   2272011123D 1   1.00000     0.00000
 Structure written by MMmdl.
 47 48  0  0  0  0  0  0  0  0  1 V2000
  153.0202  140.9635  160.3269 C   0  0  0  0  0  0  0  0  0  0  0  0
  152.2576  142.2729  160.0720 C   0  0  1  0  0  0  0  0  0  0  0  0
  152.8886  143.4318  160.8690 C   0  0  0  0  0  0  0  0  0  0  0  0
  152.1336  144.7505  160.6477 C   0  0  0  0  0  0  0  0  0  0  0  0
  152.0617  145.0987  159.1549 C   0  0  0  0  0  0  0  0  0  0  0  0
  151.4308  143.9533  158.3489 C   0  0  0  0  0  0  0  0  0  0  0  0
  152.1838  142.6211  158.5666 C   0  0  2  0  0  0  0  0  0  0  0  0
  151.5251  141.5455  157.9063 O   0  0  0  0  0  0  0  0  0  0  0  0
  150.1433  141.4039  158.2057 C   0  0  0  0  0  0  0  0  0  0  0  0
  149.5123  140.4914  157.1489 C   0  0  0  0  0  0  0  0  0  0  0  0
  149.2434  139.1685  157.6921 N   0  0  0  0  0  0  0  0  0  0  0  0
  149.7066  137.9701  157.1603 C   0  0  0  0  0  0  0  0  0  0  0  0
  150.4892  137.9419  156.0457 C   0  0  0  0  0  0  0  0  0  0  0  0
  150.9350  139.1206  155.3719 C   0  0  0  0  0  0  0  0  0  0  0  0
  151.3112  140.0814  154.8458 N   0  0  0  0  0  0  0  0  0  0  0  0
  150.9762  136.6897  155.4687 C   0  0  0  0  0  0  0  0  0  0  0  0
  151.6790  136.6377  154.4571 O   0  0  0  0  0  0  0  0  0  0  0  0
  150.5773  135.5283  156.1659 N   0  0  0  0  0  0  0  0  0  0  0  0
  150.9943  134.2291  155.6776 C   0  0  0  0  0  0  0  0  0  0  0  0
  149.7833  135.5327  157.3286 C   0  0  0  0  0  0  0  0  0  0  0  0
  149.4732  134.4785  157.8928 O   0  0  0  0  0  0  0  0  0  0  0  0
  149.3489  136.7886  157.8157 N   0  0  0  0  0  0  0  0  0  0  0  0
  148.5071  136.7178  158.9922 C   0  0  0  0  0  0  0  0  0  0  0  0
  154.0413  141.0176  159.9487 H   0  0  0  0  0  0  0  0  0  0  0  0
  152.5272  140.1205  159.8436 H   0  0  0  0  0  0  0  0  0  0  0  0
  153.0712  140.7385  161.3923 H   0  0  0  0  0  0  0  0  0  0  0  0
  151.2386  142.1339  160.4365 H   0  0  0  0  0  0  0  0  0  0  0  0
  152.8961  143.1929  161.9332 H   0  0  0  0  0  0  0  0  0  0  0  0
  153.9315  143.5570  160.5742 H   0  0  0  0  0  0  0  0  0  0  0  0
  151.1249  144.6686  161.0548 H   0  0  0  0  0  0  0  0  0  0  0  0
  152.6238  145.5562  161.1947 H   0  0  0  0  0  0  0  0  0  0  0  0
  151.4860  146.0140  159.0138 H   0  0  0  0  0  0  0  0  0  0  0  0
  153.0645  145.3024  158.7775 H   0  0  0  0  0  0  0  0  0  0  0  0
  150.3864  143.8350  158.6408 H   0  0  0  0  0  0  0  0  0  0  0  0
  151.4288  144.2280  157.2942 H   0  0  0  0  0  0  0  0  0  0  0  0
  153.2003  142.7092  158.1783 H   0  0  0  0  0  0  0  0  0  0  0  0
  150.0353  140.9492  159.1905 H   0  0  0  0  0  0  0  0  0  0  0  0
  149.6318  142.3680  158.2297 H   0  0  0  0  0  0  0  0  0  0  0  0
  148.6209  140.9593  156.7362 H   0  0  0  0  0  0  0  0  0  0  0  0
  150.2091  140.3642  156.3202 H   0  0  0  0  0  0  0  0  0  0  0  0
  148.3119  139.1078  158.0773 H   0  0  0  0  0  0  0  0  0  0  0  0
  150.0900  133.6470  155.4905 H   0  0  0  0  0  0  0  0  0  0  0  0
  151.6068  133.7734  156.4577 H   0  0  0  0  0  0  0  0  0  0  0  0
  151.5693  134.3122  154.7562 H   0  0  0  0  0  0  0  0  0  0  0  0
  147.6150  136.1498  158.7217 H   0  0  0  0  0  0  0  0  0  0  0  0
  148.2212  137.7138  159.3221 H   0  0  0  0  0  0  0  0  0  0  0  0
  149.0804  136.2224  159.7778 H   0  0  0  0  0  0  0  0  0  0  0  0
  1  2  1  0  0  0  0
  1 24  1  0  0  0  0
  1 25  1  0  0  0  0
  1 26  1  0  0  0  0
  2  7  1  0  0  0  0
  2  3  1  0  0  0  0
  2 27  1  0  0  0  0
  3  4  1  0  0  0  0
  3 28  1  0  0  0  0
  3 29  1  0  0  0  0
  4  5  1  0  0  0  0
  4 30  1  0  0  0  0
  4 31  1  0  0  0  0
  5  6  1  0  0  0  0
  5 32  1  0  0  0  0
  5 33  1  0  0  0  0
  6  7  1  0  0  0  0
  6 34  1  0  0  0  0
  6 35  1  0  0  0  0
  7  8  1  0  0  0  0
  7 36  1  0  0  0  0
  8  9  1  0  0  0  0
  9 10  1  0  0  0  0
  9 37  1  0  0  0  0
  9 38  1  0  0  0  0
 10 11  1  0  0  0  0
 10 39  1  0  0  0  0
 10 40  1  0  0  0  0
 11 12  1  0  0  0  0
 11 41  1  0  0  0  0
 12 22  1  0  0  0  0
 12 13  2  0  0  0  0
 13 14  1  0  0  0  0
 13 16  1  0  0  0  0
 14 15  3  0  0  0  0
 16 17  2  0  0  0  0
 16 18  1  0  0  0  0
 18 19  1  0  0  0  0
 18 20  1  0  0  0  0
 19 42  1  0  0  0  0
 19 43  1  0  0  0  0
 19 44  1  0  0  0  0
 20 21  2  0  0  0  0
 20 22  1  0  0  0  0
 22 23  1  0  0  0  0
 23 45  1  0  0  0  0
 23 46  1  0  0  0  0
 23 47  1  0  0  0  0
M  END
> <s_m_source_file>
AV-unprocessed.smi

> <i_m_source_file_index>
2067

> <i_lp_mmshare_version>
43012

> <i_f3d_flags>
0

> <s_epik_input>
W0NIM11bQ0BASF0xW0NIMl1bQ0gyXVtDSDJdW0NIMl1bQ0BIXTFPW0NIMl1bQ0gyXVtOSF1jMmMoQyNOKWMoPU8pbihbQ0gzXSljKD1PKW4yW0NIM10=

> <s_epik_cmdline>
J2VwaWtfcHl0aG9uJywgJy1waCcsICc3LjAnLCAnLXRuJywgJzgnLCAnLW1hJywgJzIwMCcsICctbWV0YWxfYmluZGluZycsICctaW1hZScsICc8aW5maWxlLm1hZT4nLCAnLW9tYWUnLCAnPG91dGZpbGUubWFlPic=

> <r_epik_Ionization_Penalty>
0.00056529

> <r_epik_Ionization_Penalty_Charging>
3.94678e-10

> <r_epik_Ionization_Penalty_Neutral>
0.000565289

> <r_epik_State_Penalty>
0.000354611

> <r_epik_Charging_Adjusted_Penalty>
0.000354611

> <i_epik_Tot_Q>
0

> <i_epik_Tot_abs_Q>
0

> <r_epik_Metal_State_Penalty>
-0

> <b_epik_Metal_Only>
0

> <s_lp_Force_Field>
OPLS_2005

> <r_lp_Energy>
31.2775

> <b_lp_Chiralities_Consistent>
1

> <s_lp_Variant>
AV-unprocessed.smi:2067-4

> <Gold.Version>
5.8.1

> <Gold.Id.Protein>
6NUR|6NUR_protein|mol2

> <Gold.PLP.Fitness>
47.5104

> <Gold.PLP.PLP>
-39.3516

> <Gold.PLP.part.hbond>
-2.9655

> <Gold.PLP.part.metal>
0.0000

> <Gold.PLP.part.buried>
-7.8302

> <Gold.PLP.part.nonpolar>
-29.1323

> <Gold.PLP.part.repulsive>
0.3714

> <Gold.PLP.ligand.clash>
10.7747

> <Gold.PLP.ligand.torsion>
0.4282

> <Gold.PLP.Chemscore.Hbond>
3.0000

> <Gold.PLP.Chemscore.CHOScore>
0.0000

> <Gold.PLP.Chemscore.Metal>
0.0000

> <Gold.Chemscore.Hbonds>
donor molecule, donor type, donor heavy atom, donor atom, acceptor molecule, acceptor atom, score
      P1  H  6896  6909       L1    21  1.00
      P1  H  7989  7998       L1    15  1.00
      P1  H 10752 10763       L1    17  1.00

> <Gold.PLP.Chemscore.Internal.Correction>
10.7898

> <Gold.Rescore>
     Score         DG    S(hbond)    S(metal)    S(lipo)     H(rot)  DE(clash)    DE(int)     intcor
     18.99     -22.08       2.95        0.00      96.25       1.76       0.02       3.07       ----

> <Gold.Chemscore.Fitness>
18.9904

> <Gold.Chemscore.DG>
-22.0798

> <Gold.Chemscore.ZeroCoef>
-5.4800

> <Gold.Chemscore.Hbond>
2.9461

> <Gold.Chemscore.Metal>
0.0000

> <Gold.Chemscore.Lipo>
96.2493

> <Gold.Chemscore.Internal_Hbond>
0.0000

> <Gold.Chemscore.DEClash>
0.0177

> <Gold.Chemscore.DEInternal>
3.0718

> <Gold.Chemscore.Rot>
1.7583

> <Gold.Chemscore.Internal.Correction>
   9.000000E+99

> <Gold.Chemscore.Hbonds>
donor molecule, donor type, donor heavy atom, donor atom, acceptor molecule, acceptor atom, score
      P1  H  6896  6909       L1    21  0.83
      P1  H  7989  7998       L1    15  0.98
      P1  H 10752 10763       L1    17  0.98

> <Gold.Chemscore.Hbond.Weighted>
-9.8399

> <Gold.Chemscore.Metal.Weighted>
-0.0000

> <Gold.Chemscore.Lipo.Weighted>
-11.2612

> <Gold.Chemscore.Internal_Hbond.Weighted>
0.0000

> <Gold.Chemscore.DEClash.Weighted>
0.0177

> <Gold.Chemscore.DEInternal.Weighted>
3.0718

> <Gold.Chemscore.Rot.Weighted>
4.5012

> <Gold.Chemscore.Internal.Correction.Weighted>
   9.000000E+99

> <Gold.Protein.RotatedTorsions>
[ 6907 6896 6895 6894 ] final    9.98 input  -60.11 | X-H torsion
[ 7974 7965 7964 7962 ] final  -86.37 input  175.53 | X-H torsion
[ 8008 7997 7996 7995 ] final  162.89 input   59.86 | X-H torsion
[ 10167 10162 10161 10158 ] final  106.88 input  -65.29 | X-H torsion
[ 10718 10713 10712 10709 ] final -118.19 input   66.30 | X-H torsion
[ 10763 10752 10751 10750 ] final   43.93 input  -60.55 | X-H torsion
[ 11005 11000 10999 10996 ] final -113.99 input  -57.11 | X-H torsion

> <Gold.Protein.ActiveResidues>
 VAL166  LYS551  ARG553  GLY616  TRP617  ASP618  TYR619  PRO620  LYS621  CYS622 
 ASP623  PHE694  ASN695  SER759  ASP760  ASP761  ALA762  ILE779  LEU786  VAL792 
 PHE793  MET794  SER795  GLU796  ALA797  LYS798  CYS799  TRP800  GLU811  SER814 

> <Gold.Protein.RotatedAtoms>
  151.7308  135.0875  160.0299 H   0  0  0  0  0  0  0  0  0  0  0  0  # atno 6907 bound_to 6896
  152.3542  133.6212  159.5975 H   0  0  0  0  0  0  0  0  0  0  0  0  # atno 6908 bound_to 6896
  150.7560  133.9442  159.3507 H   0  0  0  0  0  0  0  0  0  0  0  0  # atno 6909 bound_to 6896
  145.4808  140.9557  143.1865 H   0  0  0  0  0  0  0  0  0  0  0  0  # atno 7974 bound_to 7965
  156.1998  140.1738  156.7923 H   0  0  0  0  0  0  0  0  0  0  0  0  # atno 8008 bound_to 7997
  154.5576  140.0705  156.8799 H   0  0  0  0  0  0  0  0  0  0  0  0  # atno 8009 bound_to 7997
  155.2908  140.3355  155.4255 H   0  0  0  0  0  0  0  0  0  0  0  0  # atno 8010 bound_to 7997
  139.6973  144.7099  151.1245 H   0  0  0  0  0  0  0  0  0  0  0  0  # atno 10167 bound_to 10162
  156.1088  130.6232  150.9260 H   0  0  0  0  0  0  0  0  0  0  0  0  # atno 10718 bound_to 10713
  152.9851  135.6086  154.3191 H   0  0  0  0  0  0  0  0  0  0  0  0  # atno 10763 bound_to 10752
  154.2902  135.2775  155.2660 H   0  0  0  0  0  0  0  0  0  0  0  0  # atno 10764 bound_to 10752
  154.4959  135.5880  153.6550 H   0  0  0  0  0  0  0  0  0  0  0  0  # atno 10765 bound_to 10752
  141.0580  133.9582  157.2719 H   0  0  0  0  0  0  0  0  0  0  0  0  # atno 11005 bound_to 11000
  144.7890  139.6367  143.7121 LP  0  0  0  0  0  0  0  0  0  0  0  0  # atno 17320 bound_to 7965
  146.2342  139.5872  142.9535 LP  0  0  0  0  0  0  0  0  0  0  0  0  # atno 17321 bound_to 7965
  140.7700  143.5473  150.9244 LP  0  0  0  0  0  0  0  0  0  0  0  0  # atno 17342 bound_to 10162
  139.9154  143.6670  152.3107 LP  0  0  0  0  0  0  0  0  0  0  0  0  # atno 17343 bound_to 10162
  157.6268  131.0925  150.8519 LP  0  0  0  0  0  0  0  0  0  0  0  0  # atno 17370 bound_to 10713
  156.8633  130.5120  149.5302 LP  0  0  0  0  0  0  0  0  0  0  0  0  # atno 17371 bound_to 10713
  139.9407  135.0191  156.8698 LP  0  0  0  0  0  0  0  0  0  0  0  0  # atno 17394 bound_to 11000
  140.5926  134.0247  155.7505 LP  0  0  0  0  0  0  0  0  0  0  0  0  # atno 17395 bound_to 11000

$$$$
