AV-unprocessed.smi:2545|AV-procd|sdf|9995|dock2
  -GOLD-   2272014 43D 1   1.00000     0.00000
 Structure written by MMmdl.
 27 28  0  0  0  0  0  0  0  0  2 V2000
  153.8055  142.0354  159.8617 N   0  0  0  0  0  0  0  0  0  0  0  0
  152.8081  142.7032  159.1488 C   0  0  0  0  0  0  0  0  0  0  0  0
  152.5194  144.0499  159.4584 C   0  0  0  0  0  0  0  0  0  0  0  0
  151.5123  144.7232  158.7386 C   0  0  0  0  0  0  0  0  0  0  0  0
  150.8368  144.0770  157.7648 N   0  3  0  0  0  0  0  0  0  0  0  0
  151.0802  142.7902  157.4357 C   0  0  0  0  0  0  0  0  0  0  0  0
  152.0785  142.0553  158.1190 C   0  0  0  0  0  0  0  0  0  0  0  0
  152.3423  140.7156  157.7895 N   0  0  0  0  0  0  0  0  0  0  0  0
  152.0195  139.7781  158.8578 C   0  0  0  0  0  0  0  0  0  0  0  0
  152.4621  138.3584  158.4632 C   0  0  0  0  0  0  0  0  0  0  0  0
  151.8603  137.9997  157.2224 O   0  0  0  0  0  0  0  0  0  0  0  0
  152.2465  138.8761  156.1674 C   0  0  0  0  0  0  0  0  0  0  0  0
  151.7971  140.3096  156.5001 C   0  0  0  0  0  0  0  0  0  0  0  0
  154.0433  141.0723  159.6720 H   0  0  0  0  0  0  0  0  0  0  0  0
  154.3245  142.5001  160.5934 H   0  0  0  0  0  0  0  0  0  0  0  0
  153.0620  144.5641  160.2385 H   0  0  0  0  0  0  0  0  0  0  0  0
  151.2289  145.7513  158.9117 H   0  0  0  0  0  0  0  0  0  0  0  0
  150.4704  142.3891  156.6394 H   0  0  0  0  0  0  0  0  0  0  0  0
  152.5164  140.0818  159.7800 H   0  0  0  0  0  0  0  0  0  0  0  0
  150.9456  139.7887  159.0494 H   0  0  0  0  0  0  0  0  0  0  0  0
  153.5488  138.2967  158.3839 H   0  0  0  0  0  0  0  0  0  0  0  0
  152.1573  137.6430  159.2272 H   0  0  0  0  0  0  0  0  0  0  0  0
  153.3267  138.8306  156.0193 H   0  0  0  0  0  0  0  0  0  0  0  0
  151.7831  138.5422  155.2390 H   0  0  0  0  0  0  0  0  0  0  0  0
  150.7076  140.3565  156.5251 H   0  0  0  0  0  0  0  0  0  0  0  0
  152.1336  140.9968  155.7228 H   0  0  0  0  0  0  0  0  0  0  0  0
  150.1108  144.5818  157.2553 H   0  0  0  0  0  0  0  0  0  0  0  0
  1  2  1  0  0  0  0
  1 14  1  0  0  0  0
  1 15  1  0  0  0  0
  2  7  1  0  0  0  0
  2  3  2  0  0  0  0
  3  4  1  0  0  0  0
  3 16  1  0  0  0  0
  4  5  2  0  0  0  0
  4 17  1  0  0  0  0
  5  6  1  0  0  0  0
  5 27  1  0  0  0  0
  6  7  2  0  0  0  0
  6 18  1  0  0  0  0
  7  8  1  0  0  0  0
  8 13  1  0  0  0  0
  8  9  1  0  0  0  0
  9 10  1  0  0  0  0
  9 19  1  0  0  0  0
  9 20  1  0  0  0  0
 10 11  1  0  0  0  0
 10 21  1  0  0  0  0
 10 22  1  0  0  0  0
 11 12  1  0  0  0  0
 12 13  1  0  0  0  0
 12 23  1  0  0  0  0
 12 24  1  0  0  0  0
 13 25  1  0  0  0  0
 13 26  1  0  0  0  0
M  CHG  1   5   1
M  END
> <s_m_source_file>
AV-unprocessed.smi

> <i_m_source_file_index>
2545

> <i_lp_mmshare_version>
43012

> <i_f3d_flags>
0

> <s_epik_input>
W05IMl1jMVtjSF1bY0hdbltjSF1jMU4yW0NIMl1bQ0gyXU9bQ0gyXVtDSDJdMg==

> <s_epik_cmdline>
J2VwaWtfcHl0aG9uJywgJy1waCcsICc3LjAnLCAnLXRuJywgJzgnLCAnLW1hJywgJzIwMCcsICctbWV0YWxfYmluZGluZycsICctaW1hZScsICc8aW5maWxlLm1hZT4nLCAnLW9tYWUnLCAnPG91dGZpbGUubWFlPic=

> <r_lp_tautomer_probability>
1

> <r_epik_Ionization_Penalty>
0.0125888

> <r_epik_Ionization_Penalty_Charging>
0.0125847

> <r_epik_Ionization_Penalty_Neutral>
4.08722e-06

> <r_epik_State_Penalty>
0.00974947

> <r_epik_Charging_Adjusted_Penalty>
0.0223342

> <i_epik_Tot_Q>
1

> <i_epik_Tot_abs_Q>
1

> <r_epik_Metal_State_Penalty>
1.6989

> <b_epik_Metal_Only>
0

> <s_lp_Force_Field>
OPLS_2005

> <r_lp_Energy>
29.9348

> <b_lp_Chiralities_Consistent>
1

> <s_lp_Variant>
AV-unprocessed.smi:2545-1

> <Gold.Version>
5.8.1

> <Gold.Id.Protein>
6NUR|6NUR_protein|mol2

> <Gold.PLP.Fitness>
31.2641

> <Gold.PLP.PLP>
-25.7022

> <Gold.PLP.part.hbond>
-1.3408

> <Gold.PLP.part.metal>
0.0000

> <Gold.PLP.part.buried>
-4.0800

> <Gold.PLP.part.nonpolar>
-20.4278

> <Gold.PLP.part.repulsive>
0.0786

> <Gold.PLP.ligand.clash>
0.1298

> <Gold.PLP.ligand.torsion>
0.2413

> <Gold.PLP.Chemscore.Hbond>
2.0191

> <Gold.PLP.Chemscore.CHOScore>
0.0000

> <Gold.PLP.Chemscore.Metal>
0.0000

> <Gold.Chemscore.Hbonds>
donor molecule, donor type, donor heavy atom, donor atom, acceptor molecule, acceptor atom, score
      L1  H     5    27       P1  8028  2.00
      P1  H  7997  8009       L1     8  0.01

> <Gold.PLP.Chemscore.Internal.Correction>
0.1170

> <Gold.Rescore>
     Score         DG    S(hbond)    S(metal)    S(lipo)     H(rot)  DE(clash)    DE(int)     intcor
     15.13     -15.54       0.99        0.00      79.51       1.00       0.04       0.37       ----

> <Gold.Chemscore.Fitness>
15.1309

> <Gold.Chemscore.DG>
-15.5377

> <Gold.Chemscore.ZeroCoef>
-5.4800

> <Gold.Chemscore.Hbond>
0.9925

> <Gold.Chemscore.Metal>
0.0000

> <Gold.Chemscore.Lipo>
79.5110

> <Gold.Chemscore.Internal_Hbond>
0.0000

> <Gold.Chemscore.DEClash>
0.0402

> <Gold.Chemscore.DEInternal>
0.3666

> <Gold.Chemscore.Rot>
1.0000

> <Gold.Chemscore.Internal.Correction>
   9.000000E+99

> <Gold.Chemscore.Hbonds>
donor molecule, donor type, donor heavy atom, donor atom, acceptor molecule, acceptor atom, score
      L1  H     5    27       P1  8028  0.37

> <Gold.Chemscore.Hbond.Weighted>
-3.3149

> <Gold.Chemscore.Metal.Weighted>
-0.0000

> <Gold.Chemscore.Lipo.Weighted>
-9.3028

> <Gold.Chemscore.Internal_Hbond.Weighted>
0.0000

> <Gold.Chemscore.DEClash.Weighted>
0.0402

> <Gold.Chemscore.DEInternal.Weighted>
0.3666

> <Gold.Chemscore.Rot.Weighted>
2.5600

> <Gold.Chemscore.Internal.Correction.Weighted>
   9.000000E+99

> <Gold.Protein.RotatedTorsions>
[ 6907 6896 6895 6894 ] final   78.42 input  -60.11 | X-H torsion
[ 7974 7965 7964 7962 ] final -175.07 input  175.53 | X-H torsion
[ 8008 7997 7996 7995 ] final  171.33 input   59.86 | X-H torsion
[ 10167 10162 10161 10158 ] final  -91.70 input  -65.29 | X-H torsion
[ 10718 10713 10712 10709 ] final -131.53 input   66.30 | X-H torsion
[ 10763 10752 10751 10750 ] final   68.48 input  -60.55 | X-H torsion
[ 11005 11000 10999 10996 ] final -118.54 input  -57.11 | X-H torsion

> <Gold.Protein.ActiveResidues>
 VAL166  LYS551  ARG553  GLY616  TRP617  ASP618  TYR619  PRO620  LYS621  CYS622 
 ASP623  PHE694  ASN695  SER759  ASP760  ASP761  ALA762  ILE779  LEU786  VAL792 
 PHE793  MET794  SER795  GLU796  ALA797  LYS798  CYS799  TRP800  GLU811  SER814 

> <Gold.Protein.RotatedAtoms>
  152.5158  134.3667  159.9303 H   0  0  0  0  0  0  0  0  0  0  0  0  # atno 6907 bound_to 6896
  151.3621  133.3879  159.2698 H   0  0  0  0  0  0  0  0  0  0  0  0  # atno 6908 bound_to 6896
  150.9644  134.9046  159.7808 H   0  0  0  0  0  0  0  0  0  0  0  0  # atno 6909 bound_to 6896
  144.7129  140.1376  143.6394 H   0  0  0  0  0  0  0  0  0  0  0  0  # atno 7974 bound_to 7965
  156.1281  140.1514  156.9106 H   0  0  0  0  0  0  0  0  0  0  0  0  # atno 8008 bound_to 7997
  154.4887  140.0857  156.7587 H   0  0  0  0  0  0  0  0  0  0  0  0  # atno 8009 bound_to 7997
  155.4306  140.3427  155.4282 H   0  0  0  0  0  0  0  0  0  0  0  0  # atno 8010 bound_to 7997
  140.3422  143.2936  151.9822 H   0  0  0  0  0  0  0  0  0  0  0  0  # atno 10167 bound_to 10162
  156.2253  130.7004  151.0801 H   0  0  0  0  0  0  0  0  0  0  0  0  # atno 10718 bound_to 10713
  153.0237  135.5246  154.7140 H   0  0  0  0  0  0  0  0  0  0  0  0  # atno 10763 bound_to 10752
  154.6215  135.2889  155.0323 H   0  0  0  0  0  0  0  0  0  0  0  0  # atno 10764 bound_to 10752
  154.1308  135.6593  153.4974 H   0  0  0  0  0  0  0  0  0  0  0  0  # atno 10765 bound_to 10752
  141.0279  134.0026  157.3187 H   0  0  0  0  0  0  0  0  0  0  0  0  # atno 11005 bound_to 11000
  145.9230  139.2558  143.1370 LP  0  0  0  0  0  0  0  0  0  0  0  0  # atno 17320 bound_to 7965
  145.9600  140.8842  143.0215 LP  0  0  0  0  0  0  0  0  0  0  0  0  # atno 17321 bound_to 7965
  139.4839  144.6147  151.7368 LP  0  0  0  0  0  0  0  0  0  0  0  0  # atno 17342 bound_to 10162
  140.5298  144.0748  150.6050 LP  0  0  0  0  0  0  0  0  0  0  0  0  # atno 17343 bound_to 10162
  157.7107  131.0735  150.6509 LP  0  0  0  0  0  0  0  0  0  0  0  0  # atno 17370 bound_to 10713
  156.6574  130.4502  149.5699 LP  0  0  0  0  0  0  0  0  0  0  0  0  # atno 17371 bound_to 10713
  139.9188  135.0199  156.7984 LP  0  0  0  0  0  0  0  0  0  0  0  0  # atno 17394 bound_to 11000
  140.6459  133.9775  155.7731 LP  0  0  0  0  0  0  0  0  0  0  0  0  # atno 17395 bound_to 11000

$$$$
