AV-unprocessed.smi:3169|AV-procd|sdf|12106|dock5
  -GOLD-   2272017543D 1   1.00000     0.00000
 Structure written by MMmdl.
 35 36  0  0  0  0  0  0  0  0  1 V2000
  145.5768  138.3868  153.7421 O   0  0  0  0  0  0  0  0  0  0  0  0
  146.5057  137.7582  153.2346 C   0  0  0  0  0  0  0  0  0  0  0  0
  146.3568  136.6088  152.5630 N   0  0  0  0  0  0  0  0  0  0  0  0
  145.0795  135.9625  152.2772 C   0  0  0  0  0  0  0  0  0  0  0  0
  144.8909  135.6659  150.7765 C   0  0  0  0  0  0  0  0  0  0  0  0
  145.0476  134.2569  150.4677 N   0  0  0  0  0  0  0  0  0  0  0  0
  146.1644  133.4662  150.7022 C   0  0  0  0  0  0  0  0  0  0  0  0
  145.8561  132.2054  150.2431 C   0  0  0  0  0  0  0  0  0  0  0  0
  144.5631  132.1978  149.7249 N   0  0  0  0  0  0  0  0  0  0  0  0
  144.1474  133.4462  149.8940 C   0  0  0  0  0  0  0  0  0  0  0  0
  147.7849  138.1543  153.2624 N   0  0  0  0  0  0  0  0  0  0  0  0
  148.2578  139.4077  153.8377 C   0  0  0  0  0  0  0  0  0  0  0  0
  149.4537  139.1776  154.7772 C   0  0  1  0  0  0  0  0  0  0  0  0
  150.6105  138.4131  154.1370 C   0  0  0  0  0  0  0  0  0  0  0  0
  151.8259  138.8753  154.9279 C   0  0  0  0  0  0  0  0  0  0  0  0
  151.3266  140.0977  155.7041 C   0  0  0  0  0  0  0  0  0  0  0  0
  150.0651  140.4081  155.1305 O   0  0  0  0  0  0  0  0  0  0  0  0
  147.1829  136.1698  152.1835 H   0  0  0  0  0  0  0  0  0  0  0  0
  145.0313  135.0351  152.8485 H   0  0  0  0  0  0  0  0  0  0  0  0
  144.2639  136.5900  152.6396 H   0  0  0  0  0  0  0  0  0  0  0  0
  143.8939  135.9750  150.4607 H   0  0  0  0  0  0  0  0  0  0  0  0
  145.5970  136.2387  150.1738 H   0  0  0  0  0  0  0  0  0  0  0  0
  147.0606  133.8554  151.1624 H   0  0  0  0  0  0  0  0  0  0  0  0
  146.4608  131.3106  150.2453 H   0  0  0  0  0  0  0  0  0  0  0  0
  143.1670  133.7812  149.5874 H   0  0  0  0  0  0  0  0  0  0  0  0
  148.4759  137.5713  152.8132 H   0  0  0  0  0  0  0  0  0  0  0  0
  148.5310  140.1003  153.0401 H   0  0  0  0  0  0  0  0  0  0  0  0
  147.4337  139.8690  154.3827 H   0  0  0  0  0  0  0  0  0  0  0  0
  149.1377  138.6643  155.6876 H   0  0  0  0  0  0  0  0  0  0  0  0
  150.4663  137.3328  154.1711 H   0  0  0  0  0  0  0  0  0  0  0  0
  150.7248  138.7040  153.0919 H   0  0  0  0  0  0  0  0  0  0  0  0
  152.1796  138.1027  155.6115 H   0  0  0  0  0  0  0  0  0  0  0  0
  152.6473  139.1329  154.2586 H   0  0  0  0  0  0  0  0  0  0  0  0
  151.1887  139.8525  156.7582 H   0  0  0  0  0  0  0  0  0  0  0  0
  152.0094  140.9450  155.6383 H   0  0  0  0  0  0  0  0  0  0  0  0
  1  2  2  0  0  0  0
  2  3  1  0  0  0  0
  2 11  1  0  0  0  0
  3  4  1  0  0  0  0
  3 18  1  0  0  0  0
  4  5  1  0  0  0  0
  4 19  1  0  0  0  0
  4 20  1  0  0  0  0
  5  6  1  0  0  0  0
  5 21  1  0  0  0  0
  5 22  1  0  0  0  0
  6 10  1  0  0  0  0
  6  7  1  0  0  0  0
  7  8  2  0  0  0  0
  7 23  1  0  0  0  0
  8  9  1  0  0  0  0
  8 24  1  0  0  0  0
  9 10  2  0  0  0  0
 10 25  1  0  0  0  0
 11 12  1  0  0  0  0
 11 26  1  0  0  0  0
 12 13  1  0  0  0  0
 12 27  1  0  0  0  0
 12 28  1  0  0  0  0
 13 17  1  0  0  0  0
 13 14  1  0  0  0  0
 13 29  1  0  0  0  0
 14 15  1  0  0  0  0
 14 30  1  0  0  0  0
 14 31  1  0  0  0  0
 15 16  1  0  0  0  0
 15 32  1  0  0  0  0
 15 33  1  0  0  0  0
 16 17  1  0  0  0  0
 16 34  1  0  0  0  0
 16 35  1  0  0  0  0
M  END
> <s_m_source_file>
AV-unprocessed.smi

> <i_m_source_file_index>
3169

> <i_lp_mmshare_version>
43012

> <i_f3d_flags>
0

> <s_epik_input>
TzFbQ0gyXVtDSDJdW0NIMl1bQ0BIXTFbQ0gyXVtOSF1DKD1PKVtOSF1bQ0gyXVtDSDJdbjJbY0hdW2NIXW5bY0hdMg==

> <s_epik_cmdline>
J2VwaWtfcHl0aG9uJywgJy1waCcsICc3LjAnLCAnLXRuJywgJzgnLCAnLW1hJywgJzIwMCcsICctbWV0YWxfYmluZGluZycsICctaW1hZScsICc8aW5maWxlLm1hZT4nLCAnLW9tYWUnLCAnPG91dGZpbGUubWFlPic=

> <r_lp_tautomer_probability>
1

> <r_epik_Ionization_Penalty>
0.620462

> <r_epik_Ionization_Penalty_Charging>
0.620414

> <r_epik_Ionization_Penalty_Neutral>
4.72016e-05

> <r_epik_State_Penalty>
0.636391

> <r_epik_Charging_Adjusted_Penalty>
1.25681

> <i_epik_Tot_Q>
0

> <i_epik_Tot_abs_Q>
0

> <r_epik_Metal_State_Penalty>
0.306539

> <b_epik_Metal_Only>
0

> <s_lp_Force_Field>
OPLS_2005

> <r_lp_Energy>
15.8228

> <b_lp_Chiralities_Consistent>
1

> <s_lp_Variant>
AV-unprocessed.smi:3169-4

> <Gold.Version>
5.8.1

> <Gold.Id.Protein>
6NUR|6NUR_protein|mol2

> <Gold.PLP.Fitness>
42.7674

> <Gold.PLP.PLP>
-31.6551

> <Gold.PLP.part.hbond>
-2.5959

> <Gold.PLP.part.metal>
0.0000

> <Gold.PLP.part.buried>
-3.0533

> <Gold.PLP.part.nonpolar>
-26.3204

> <Gold.PLP.part.repulsive>
0.4592

> <Gold.PLP.ligand.clash>
0.0000

> <Gold.PLP.ligand.torsion>
0.4425

> <Gold.PLP.Chemscore.Hbond>
1.9920

> <Gold.PLP.Chemscore.CHOScore>
2.0000

> <Gold.PLP.Chemscore.Metal>
0.0000

> <Gold.Chemscore.Hbonds>
donor molecule, donor type, donor heavy atom, donor atom, acceptor molecule, acceptor atom, score
      L1  H     3    18       P1  7948  1.00
      L1  H    11    26       P1  7948  1.00
      L1  C     8    24       P1 10747  0.96
      L1  C    10    25       P1 10186  1.00

> <Gold.PLP.Chemscore.Internal.Correction>
0.0213

> <Gold.Rescore>
     Score         DG    S(hbond)    S(metal)    S(lipo)     H(rot)  DE(clash)    DE(int)     intcor
     13.14     -13.64       1.94        0.00      63.62       2.25       0.10       0.40       ----

> <Gold.Chemscore.Fitness>
13.1438

> <Gold.Chemscore.DG>
-13.6417

> <Gold.Chemscore.ZeroCoef>
-5.4800

> <Gold.Chemscore.Hbond>
1.9375

> <Gold.Chemscore.Metal>
0.0000

> <Gold.Chemscore.Lipo>
63.6205

> <Gold.Chemscore.Internal_Hbond>
0.0000

> <Gold.Chemscore.DEClash>
0.0960

> <Gold.Chemscore.DEInternal>
0.4020

> <Gold.Chemscore.Rot>
2.2474

> <Gold.Chemscore.Internal.Correction>
   9.000000E+99

> <Gold.Chemscore.Hbonds>
donor molecule, donor type, donor heavy atom, donor atom, acceptor molecule, acceptor atom, score
      L1  H     3    18       P1  7948  0.94
      L1  H    11    26       P1  7948  0.98

> <Gold.Chemscore.Hbond.Weighted>
-6.4714

> <Gold.Chemscore.Metal.Weighted>
-0.0000

> <Gold.Chemscore.Lipo.Weighted>
-7.4436

> <Gold.Chemscore.Internal_Hbond.Weighted>
0.0000

> <Gold.Chemscore.DEClash.Weighted>
0.0960

> <Gold.Chemscore.DEInternal.Weighted>
0.4020

> <Gold.Chemscore.Rot.Weighted>
5.7532

> <Gold.Chemscore.Internal.Correction.Weighted>
   9.000000E+99

> <Gold.Protein.RotatedTorsions>
[ 6907 6896 6895 6894 ] final   55.98 input  -60.11 | X-H torsion
[ 7974 7965 7964 7962 ] final   32.41 input  175.53 | X-H torsion
[ 8008 7997 7996 7995 ] final -177.97 input   59.86 | X-H torsion
[ 10167 10162 10161 10158 ] final  101.45 input  -65.29 | X-H torsion
[ 10718 10713 10712 10709 ] final  100.25 input   66.30 | X-H torsion
[ 10763 10752 10751 10750 ] final  -20.09 input  -60.55 | X-H torsion
[ 11005 11000 10999 10996 ] final    9.37 input  -57.11 | X-H torsion

> <Gold.Protein.ActiveResidues>
 VAL166  LYS551  ARG553  GLY616  TRP617  ASP618  TYR619  PRO620  LYS621  CYS622 
 ASP623  PHE694  ASN695  SER759  ASP760  ASP761  ALA762  ILE779  LEU786  VAL792 
 PHE793  MET794  SER795  GLU796  ALA797  LYS798  CYS799  TRP800  GLU811  SER814 

> <Gold.Protein.RotatedAtoms>
  152.3591  134.6897  160.0212 H   0  0  0  0  0  0  0  0  0  0  0  0  # atno 6907 bound_to 6896
  151.7226  133.3309  159.3327 H   0  0  0  0  0  0  0  0  0  0  0  0  # atno 6908 bound_to 6896
  150.7592  134.6368  159.6260 H   0  0  0  0  0  0  0  0  0  0  0  0  # atno 6909 bound_to 6896
  146.1488  139.6530  142.9113 H   0  0  0  0  0  0  0  0  0  0  0  0  # atno 7974 bound_to 7965
  156.0133  140.1245  157.0432 H   0  0  0  0  0  0  0  0  0  0  0  0  # atno 8008 bound_to 7997
  154.4284  140.1083  156.5930 H   0  0  0  0  0  0  0  0  0  0  0  0  # atno 8009 bound_to 7997
  155.6049  140.3471  155.4607 H   0  0  0  0  0  0  0  0  0  0  0  0  # atno 8010 bound_to 7997
  139.7436  144.7004  151.0537 H   0  0  0  0  0  0  0  0  0  0  0  0  # atno 10167 bound_to 10162
  157.6858  131.0693  150.5071 H   0  0  0  0  0  0  0  0  0  0  0  0  # atno 10718 bound_to 10713
  153.6149  135.6995  153.5332 H   0  0  0  0  0  0  0  0  0  0  0  0  # atno 10763 bound_to 10752
  153.2985  135.4136  155.1231 H   0  0  0  0  0  0  0  0  0  0  0  0  # atno 10764 bound_to 10752
  154.8555  135.3643  154.5689 H   0  0  0  0  0  0  0  0  0  0  0  0  # atno 10765 bound_to 10752
  140.5265  134.0508  155.7860 H   0  0  0  0  0  0  0  0  0  0  0  0  # atno 11005 bound_to 11000
  145.4873  141.0438  143.2612 LP  0  0  0  0  0  0  0  0  0  0  0  0  # atno 17320 bound_to 7965
  144.7879  139.6389  143.7126 LP  0  0  0  0  0  0  0  0  0  0  0  0  # atno 17321 bound_to 7965
  140.7789  143.4893  150.9914 LP  0  0  0  0  0  0  0  0  0  0  0  0  # atno 17342 bound_to 10162
  139.8582  143.7349  152.3175 LP  0  0  0  0  0  0  0  0  0  0  0  0  # atno 17343 bound_to 10162
  156.5390  130.4203  149.6163 LP  0  0  0  0  0  0  0  0  0  0  0  0  # atno 17370 bound_to 10713
  156.3002  130.7172  151.2042 LP  0  0  0  0  0  0  0  0  0  0  0  0  # atno 17371 bound_to 10713
  141.1305  133.9309  157.2545 LP  0  0  0  0  0  0  0  0  0  0  0  0  # atno 17394 bound_to 11000
  139.9577  135.0161  156.9175 LP  0  0  0  0  0  0  0  0  0  0  0  0  # atno 17395 bound_to 11000

$$$$
