AV-unprocessed.smi:1740|AV-procd|sdf|7010|dock1
  -GOLD-   22720 8223D 1   1.00000     0.00000
 Structure written by MMmdl.
 53 55  0  0  0  0  0  0  0  0  3 V2000
  149.6581  142.3233  156.5257 N   0  0  0  0  0  0  0  0  0  0  0  0
  150.4498  142.3034  157.6003 C   0  0  0  0  0  0  0  0  0  0  0  0
  150.7681  143.3295  158.1990 O   0  0  0  0  0  0  0  0  0  0  0  0
  150.9354  140.9291  158.0738 C   0  0  0  0  0  0  0  0  0  0  0  0
  150.4382  139.8110  157.2307 N   0  3  2  0  0  0  0  0  0  0  0  0
  150.4934  138.4920  157.9169 C   0  0  0  0  0  0  0  0  0  0  0  0
  149.8451  137.3924  157.0597 C   0  0  0  0  0  0  0  0  0  0  0  0
  150.5106  137.3067  155.6737 C   0  0  1  0  0  0  0  0  0  0  0  0
  149.8392  136.3241  154.8274 N   0  0  0  0  0  0  0  0  0  0  0  0
  149.8318  135.0006  155.0424 C   0  0  0  0  0  0  0  0  0  0  0  0
  150.3773  134.4649  156.0070 O   0  0  0  0  0  0  0  0  0  0  0  0
  149.1433  134.3519  154.0880 N   0  0  0  0  0  0  0  0  0  0  0  0
  148.8981  132.9526  153.9896 C   0  0  0  0  0  0  0  0  0  0  0  0
  149.6966  132.0195  154.7002 C   0  0  0  0  0  0  0  0  0  0  0  0
  149.4835  130.6387  154.5317 C   0  0  0  0  0  0  0  0  0  0  0  0
  148.4851  130.2087  153.6416 C   0  0  0  0  0  0  0  0  0  0  0  0
  147.7507  131.1196  152.9704 N   0  3  0  0  0  0  0  0  0  0  0  0
  147.8976  132.4622  153.1001 C   0  0  0  0  0  0  0  0  0  0  0  0
  147.0461  133.2946  152.3377 N   0  0  0  0  0  0  0  0  0  0  0  0
  146.2517  132.7392  151.2476 C   0  0  0  0  0  0  0  0  0  0  0  0
  145.2166  133.8129  150.9226 C   0  0  0  0  0  0  0  0  0  0  0  0
  144.9303  134.4167  152.2939 C   0  0  0  0  0  0  0  0  0  0  0  0
  146.2813  134.3389  153.0122 C   0  0  0  0  0  0  0  0  0  0  0  0
  150.4741  138.6886  155.0020 C   0  0  0  0  0  0  0  0  0  0  0  0
  151.1049  139.7631  155.9042 C   0  0  0  0  0  0  0  0  0  0  0  0
  149.3075  143.2051  156.1787 H   0  0  0  0  0  0  0  0  0  0  0  0
  149.4049  141.4615  156.0637 H   0  0  0  0  0  0  0  0  0  0  0  0
  152.0255  140.9570  158.0400 H   0  0  0  0  0  0  0  0  0  0  0  0
  150.6585  140.7640  159.1165 H   0  0  0  0  0  0  0  0  0  0  0  0
  151.5323  138.2350  158.1301 H   0  0  0  0  0  0  0  0  0  0  0  0
  149.9801  138.5446  158.8773 H   0  0  0  0  0  0  0  0  0  0  0  0
  149.9225  136.4351  157.5766 H   0  0  0  0  0  0  0  0  0  0  0  0
  148.7793  137.5987  156.9496 H   0  0  0  0  0  0  0  0  0  0  0  0
  151.5557  137.0147  155.7973 H   0  0  0  0  0  0  0  0  0  0  0  0
  149.3611  136.6772  154.0111 H   0  0  0  0  0  0  0  0  0  0  0  0
  148.6639  134.9278  153.4116 H   0  0  0  0  0  0  0  0  0  0  0  0
  150.4894  132.3423  155.3581 H   0  0  0  0  0  0  0  0  0  0  0  0
  150.0869  129.9208  155.0682 H   0  0  0  0  0  0  0  0  0  0  0  0
  148.2556  129.1719  153.4426 H   0  0  0  0  0  0  0  0  0  0  0  0
  146.8721  132.5006  150.3834 H   0  0  0  0  0  0  0  0  0  0  0  0
  145.7437  131.8295  151.5699 H   0  0  0  0  0  0  0  0  0  0  0  0
  145.6531  134.5678  150.2672 H   0  0  0  0  0  0  0  0  0  0  0  0
  144.3268  133.4130  150.4359 H   0  0  0  0  0  0  0  0  0  0  0  0
  144.5365  135.4318  152.2397 H   0  0  0  0  0  0  0  0  0  0  0  0
  144.1996  133.8001  152.8189 H   0  0  0  0  0  0  0  0  0  0  0  0
  146.1532  134.1362  154.0764 H   0  0  0  0  0  0  0  0  0  0  0  0
  146.8132  135.2845  152.9070 H   0  0  0  0  0  0  0  0  0  0  0  0
  151.0012  138.6551  154.0477 H   0  0  0  0  0  0  0  0  0  0  0  0
  149.4431  138.9659  154.7765 H   0  0  0  0  0  0  0  0  0  0  0  0
  151.0209  140.7336  155.4138 H   0  0  0  0  0  0  0  0  0  0  0  0
  152.1698  139.5659  156.0382 H   0  0  0  0  0  0  0  0  0  0  0  0
  149.4637  140.0100  157.0525 H   0  0  0  0  0  0  0  0  0  0  0  0
  147.0349  130.7758  152.3303 H   0  0  0  0  0  0  0  0  0  0  0  0
  1  2  1  0  0  0  0
  1 26  1  0  0  0  0
  1 27  1  0  0  0  0
  2  3  2  0  0  0  0
  2  4  1  0  0  0  0
  4  5  1  0  0  0  0
  4 28  1  0  0  0  0
  4 29  1  0  0  0  0
  5 25  1  0  0  0  0
  5  6  1  0  0  0  0
  5 52  1  0  0  0  0
  6  7  1  0  0  0  0
  6 30  1  0  0  0  0
  6 31  1  0  0  0  0
  7  8  1  0  0  0  0
  7 32  1  0  0  0  0
  7 33  1  0  0  0  0
  8  9  1  0  0  0  0
  8 24  1  0  0  0  0
  8 34  1  0  0  0  0
  9 10  1  0  0  0  0
  9 35  1  0  0  0  0
 10 11  2  0  0  0  0
 10 12  1  0  0  0  0
 12 13  1  0  0  0  0
 12 36  1  0  0  0  0
 13 18  1  0  0  0  0
 13 14  2  0  0  0  0
 14 15  1  0  0  0  0
 14 37  1  0  0  0  0
 15 16  2  0  0  0  0
 15 38  1  0  0  0  0
 16 17  1  0  0  0  0
 16 39  1  0  0  0  0
 17 18  2  0  0  0  0
 17 53  1  0  0  0  0
 18 19  1  0  0  0  0
 19 23  1  0  0  0  0
 19 20  1  0  0  0  0
 20 21  1  0  0  0  0
 20 40  1  0  0  0  0
 20 41  1  0  0  0  0
 21 22  1  0  0  0  0
 21 42  1  0  0  0  0
 21 43  1  0  0  0  0
 22 23  1  0  0  0  0
 22 44  1  0  0  0  0
 22 45  1  0  0  0  0
 23 46  1  0  0  0  0
 23 47  1  0  0  0  0
 24 25  1  0  0  0  0
 24 48  1  0  0  0  0
 24 49  1  0  0  0  0
 25 50  1  0  0  0  0
 25 51  1  0  0  0  0
M  CHG  1   5   1
M  CHG  1  17   1
M  END
> <s_m_source_file>
AV-unprocessed.smi

> <i_m_source_file_index>
1740

> <i_lp_mmshare_version>
43012

> <i_f3d_flags>
0

> <s_epik_input>
W05IMl1DKD1PKVtDSDJdTjFbQ0gyXVtDSDJdW0NIXShbQ0gyXVtDSDJdMSlbTkhdQyg9TylbTkhdYzJbY0hdW2NIXVtjSF1uYzJOM1tDSDJdW0NIMl1bQ0gyXVtDSDJdMw==

> <s_epik_cmdline>
J2VwaWtfcHl0aG9uJywgJy1waCcsICc3LjAnLCAnLXRuJywgJzgnLCAnLW1hJywgJzIwMCcsICctbWV0YWxfYmluZGluZycsICctaW1hZScsICc8aW5maWxlLm1hZT4nLCAnLW9tYWUnLCAnPG91dGZpbGUubWFlPic=

> <r_lp_tautomer_probability>
0.999994

> <r_epik_Ionization_Penalty>
2.11361

> <r_epik_Ionization_Penalty_Charging>
2.11355

> <r_epik_Ionization_Penalty_Neutral>
5.98217e-05

> <r_epik_State_Penalty>
2.13444

> <r_epik_Charging_Adjusted_Penalty>
4.24799

> <i_epik_Tot_Q>
2

> <i_epik_Tot_abs_Q>
2

> <r_epik_Metal_State_Penalty>
2.23528

> <b_epik_Metal_Only>
0

> <s_lp_Force_Field>
OPLS_2005

> <r_lp_Energy>
49.3709

> <b_lp_Chiralities_Consistent>
1

> <s_lp_Variant>
AV-unprocessed.smi:1740-5

> <Gold.Version>
5.8.1

> <Gold.Id.Protein>
6NUR|6NUR_protein|mol2

> <Gold.PLP.Fitness>
48.4510

> <Gold.PLP.PLP>
-40.1082

> <Gold.PLP.part.hbond>
-4.3485

> <Gold.PLP.part.metal>
0.0000

> <Gold.PLP.part.buried>
-5.4962

> <Gold.PLP.part.nonpolar>
-31.4381

> <Gold.PLP.part.repulsive>
0.5837

> <Gold.PLP.ligand.clash>
0.0000

> <Gold.PLP.ligand.torsion>
0.4558

> <Gold.PLP.Chemscore.Hbond>
2.9200

> <Gold.PLP.Chemscore.CHOScore>
0.0000

> <Gold.PLP.Chemscore.Metal>
0.0000

> <Gold.Chemscore.Hbonds>
donor molecule, donor type, donor heavy atom, donor atom, acceptor molecule, acceptor atom, score
      L1  H     1    26       P1  8028  1.00
      L1  H     9    35       P1  7948  0.46
      L1  H    12    36       P1  7948  0.85

> <Gold.PLP.Chemscore.Internal.Correction>
0.4944

> <Gold.Rescore>
     Score         DG    S(hbond)    S(metal)    S(lipo)     H(rot)  DE(clash)    DE(int)     intcor
     13.77     -15.77       2.22        0.00      73.20       2.22       0.07       1.93       ----

> <Gold.Chemscore.Fitness>
13.7717

> <Gold.Chemscore.DG>
-15.7721

> <Gold.Chemscore.ZeroCoef>
-5.4800

> <Gold.Chemscore.Hbond>
2.2192

> <Gold.Chemscore.Metal>
0.0000

> <Gold.Chemscore.Lipo>
73.2024

> <Gold.Chemscore.Internal_Hbond>
0.0000

> <Gold.Chemscore.DEClash>
0.0747

> <Gold.Chemscore.DEInternal>
1.9257

> <Gold.Chemscore.Rot>
2.2207

> <Gold.Chemscore.Internal.Correction>
   9.000000E+99

> <Gold.Chemscore.Hbonds>
donor molecule, donor type, donor heavy atom, donor atom, acceptor molecule, acceptor atom, score
      L1  H     1    26       P1  8028  1.00
      L1  H     9    35       P1  7948  0.42
      L1  H    12    36       P1  7948  0.48

> <Gold.Chemscore.Hbond.Weighted>
-7.4123

> <Gold.Chemscore.Metal.Weighted>
-0.0000

> <Gold.Chemscore.Lipo.Weighted>
-8.5647

> <Gold.Chemscore.Internal_Hbond.Weighted>
0.0000

> <Gold.Chemscore.DEClash.Weighted>
0.0747

> <Gold.Chemscore.DEInternal.Weighted>
1.9257

> <Gold.Chemscore.Rot.Weighted>
5.6849

> <Gold.Chemscore.Internal.Correction.Weighted>
   9.000000E+99

> <Gold.Protein.RotatedTorsions>
[ 6907 6896 6895 6894 ] final  112.07 input  -60.11 | X-H torsion
[ 7974 7965 7964 7962 ] final   48.43 input  175.53 | X-H torsion
[ 8008 7997 7996 7995 ] final   58.42 input   59.86 | X-H torsion
[ 10167 10162 10161 10158 ] final -125.08 input  -65.29 | X-H torsion
[ 10718 10713 10712 10709 ] final   97.00 input   66.30 | X-H torsion
[ 10763 10752 10751 10750 ] final    5.58 input  -60.55 | X-H torsion
[ 11005 11000 10999 10996 ] final   58.32 input  -57.11 | X-H torsion

> <Gold.Protein.ActiveResidues>
 VAL166  LYS551  ARG553  GLY616  TRP617  ASP618  TYR619  PRO620  LYS621  CYS622 
 ASP623  PHE694  ASN695  SER759  ASP760  ASP761  ALA762  ILE779  LEU786  VAL792 
 PHE793  MET794  SER795  GLU796  ALA797  LYS798  CYS799  TRP800  GLU811  SER814 

> <Gold.Protein.RotatedAtoms>
  152.4936  133.8568  159.7229 H   0  0  0  0  0  0  0  0  0  0  0  0  # atno 6907 bound_to 6896
  150.9090  133.7013  159.2866 H   0  0  0  0  0  0  0  0  0  0  0  0  # atno 6908 bound_to 6896
  151.4428  135.1026  159.9727 H   0  0  0  0  0  0  0  0  0  0  0  0  # atno 6909 bound_to 6896
  146.0205  139.4646  142.9900 H   0  0  0  0  0  0  0  0  0  0  0  0  # atno 7974 bound_to 7965
  155.5498  140.3486  155.4466 H   0  0  0  0  0  0  0  0  0  0  0  0  # atno 8008 bound_to 7997
  156.0592  140.1336  156.9987 H   0  0  0  0  0  0  0  0  0  0  0  0  # atno 8009 bound_to 7997
  154.4471  140.0989  156.6476 H   0  0  0  0  0  0  0  0  0  0  0  0  # atno 8010 bound_to 7997
  139.9859  143.5693  152.2361 H   0  0  0  0  0  0  0  0  0  0  0  0  # atno 10167 bound_to 10162
  157.6919  131.0596  150.4577 H   0  0  0  0  0  0  0  0  0  0  0  0  # atno 10718 bound_to 10713
  153.2577  135.6920  153.7611 H   0  0  0  0  0  0  0  0  0  0  0  0  # atno 10763 bound_to 10752
  153.6682  135.3349  155.3147 H   0  0  0  0  0  0  0  0  0  0  0  0  # atno 10764 bound_to 10752
  154.8418  135.4493  154.1557 H   0  0  0  0  0  0  0  0  0  0  0  0  # atno 10765 bound_to 10752
  140.0386  134.5907  155.9411 H   0  0  0  0  0  0  0  0  0  0  0  0  # atno 11005 bound_to 11000
  145.7200  141.0078  143.1407 LP  0  0  0  0  0  0  0  0  0  0  0  0  # atno 17320 bound_to 7965
  144.6988  139.8860  143.7450 LP  0  0  0  0  0  0  0  0  0  0  0  0  # atno 17321 bound_to 7965
  139.6375  144.7651  151.2406 LP  0  0  0  0  0  0  0  0  0  0  0  0  # atno 17342 bound_to 10162
  140.7472  143.6372  150.8368 LP  0  0  0  0  0  0  0  0  0  0  0  0  # atno 17343 bound_to 10162
  156.4923  130.4098  149.6399 LP  0  0  0  0  0  0  0  0  0  0  0  0  # atno 17370 bound_to 10713
  156.3405  130.7379  151.2324 LP  0  0  0  0  0  0  0  0  0  0  0  0  # atno 17371 bound_to 10713
  141.1871  133.6559  156.5266 LP  0  0  0  0  0  0  0  0  0  0  0  0  # atno 17394 bound_to 11000
  140.4106  134.7275  157.4834 LP  0  0  0  0  0  0  0  0  0  0  0  0  # atno 17395 bound_to 11000

$$$$
