AV-unprocessed.smi:1033|AV-procd|sdf|4501|dock9
  -GOLD-   22720 2503D 1   1.00000     0.00000
 Structure written by MMmdl.
 57 59  0  0  0  0  0  0  0  0  3 V2000
  152.8818  142.1651  159.5448 C   0  0  0  0  0  0  0  0  0  0  0  0
  152.1088  141.7088  158.3189 C   0  0  0  0  0  0  0  0  0  0  0  0
  152.3913  140.4331  157.7802 C   0  0  0  0  0  0  0  0  0  0  0  0
  151.6670  140.0433  156.6599 C   0  0  0  0  0  0  0  0  0  0  0  0
  151.7115  138.8706  155.9029 N   0  3  0  0  0  0  0  0  0  0  0  0
  150.8074  138.9501  154.8875 C   0  0  0  0  0  0  0  0  0  0  0  0
  150.1772  140.1522  154.9930 N   0  0  0  0  0  0  0  0  0  0  0  0
  149.1243  140.7459  154.1588 C   0  0  0  0  0  0  0  0  0  0  0  0
  147.7967  139.9609  154.2002 C   0  0  1  0  0  0  0  0  0  0  0  0
  146.8692  140.7492  154.9182 O   0  0  0  0  0  0  0  0  0  0  0  0
  147.2250  139.6548  152.7978 C   0  0  0  0  0  0  0  0  0  0  0  0
  146.9445  138.2117  152.5855 N   0  3  0  0  0  0  0  0  0  0  0  0
  146.1640  137.9313  151.3500 C   0  0  0  0  0  0  0  0  0  0  0  0
  145.9548  136.4123  151.1810 C   0  0  0  0  0  0  0  0  0  0  0  0
  145.2996  135.7838  152.3311 N   0  0  0  0  0  0  0  0  0  0  0  0
  143.8801  136.1219  152.4894 C   0  0  0  0  0  0  0  0  0  0  0  0
  143.0657  135.1658  153.3833 C   0  0  1  0  0  0  0  0  0  0  0  0
  141.5712  135.5148  153.4296 C   0  0  0  0  0  0  0  0  0  0  0  0
  143.1957  133.8605  152.8614 O   0  0  0  0  0  0  0  0  0  0  0  0
  146.0869  136.0749  153.5284 C   0  0  0  0  0  0  0  0  0  0  0  0
  146.2973  137.5841  153.7668 C   0  0  0  0  0  0  0  0  0  0  0  0
  150.6895  140.8728  156.0771 C   0  0  0  0  0  0  0  0  0  0  0  0
  150.4022  142.1346  156.5916 C   0  0  0  0  0  0  0  0  0  0  0  0
  151.1283  142.5495  157.7309 C   0  0  0  0  0  0  0  0  0  0  0  0
  150.8367  143.9210  158.3158 C   0  0  0  0  0  0  0  0  0  0  0  0
  153.5690  141.3934  159.8936 H   0  0  0  0  0  0  0  0  0  0  0  0
  152.2005  142.3978  160.3635 H   0  0  0  0  0  0  0  0  0  0  0  0
  153.4684  143.0555  159.3175 H   0  0  0  0  0  0  0  0  0  0  0  0
  153.1400  139.7903  158.2202 H   0  0  0  0  0  0  0  0  0  0  0  0
  150.6222  138.1943  154.1375 H   0  0  0  0  0  0  0  0  0  0  0  0
  148.9788  141.7785  154.4799 H   0  0  0  0  0  0  0  0  0  0  0  0
  149.5060  140.7906  153.1375 H   0  0  0  0  0  0  0  0  0  0  0  0
  147.9554  139.0398  154.7588 H   0  0  0  0  0  0  0  0  0  0  0  0
  146.6565  141.5171  154.4105 H   0  0  0  0  0  0  0  0  0  0  0  0
  146.3070  140.2304  152.6681 H   0  0  0  0  0  0  0  0  0  0  0  0
  147.9051  139.9926  152.0152 H   0  0  0  0  0  0  0  0  0  0  0  0
  145.2069  138.4532  151.3839 H   0  0  0  0  0  0  0  0  0  0  0  0
  146.6924  138.3104  150.4762 H   0  0  0  0  0  0  0  0  0  0  0  0
  145.3996  136.2120  150.2657 H   0  0  0  0  0  0  0  0  0  0  0  0
  146.9283  135.9427  151.0329 H   0  0  0  0  0  0  0  0  0  0  0  0
  143.8032  137.1227  152.9169 H   0  0  0  0  0  0  0  0  0  0  0  0
  143.4009  136.1857  151.5129 H   0  0  0  0  0  0  0  0  0  0  0  0
  143.4697  135.1437  154.3946 H   0  0  0  0  0  0  0  0  0  0  0  0
  141.4122  136.5050  153.8572 H   0  0  0  0  0  0  0  0  0  0  0  0
  141.0198  134.8018  154.0433 H   0  0  0  0  0  0  0  0  0  0  0  0
  141.1288  135.5088  152.4330 H   0  0  0  0  0  0  0  0  0  0  0  0
  143.2624  133.2521  153.5818 H   0  0  0  0  0  0  0  0  0  0  0  0
  145.6142  135.6239  154.4016 H   0  0  0  0  0  0  0  0  0  0  0  0
  147.0612  135.5926  153.4383 H   0  0  0  0  0  0  0  0  0  0  0  0
  146.9296  137.7220  154.6449 H   0  0  0  0  0  0  0  0  0  0  0  0
  145.3505  138.0815  153.9813 H   0  0  0  0  0  0  0  0  0  0  0  0
  149.6586  142.7759  156.1417 H   0  0  0  0  0  0  0  0  0  0  0  0
  150.0866  144.4540  157.7306 H   0  0  0  0  0  0  0  0  0  0  0  0
  151.7402  144.5309  158.3317 H   0  0  0  0  0  0  0  0  0  0  0  0
  150.4608  143.8300  159.3352 H   0  0  0  0  0  0  0  0  0  0  0  0
  147.8383  137.7528  152.4830 H   0  0  0  0  0  0  0  0  0  0  0  0
  152.3178  138.0757  156.0620 H   0  0  0  0  0  0  0  0  0  0  0  0
  1  2  1  0  0  0  0
  1 26  1  0  0  0  0
  1 27  1  0  0  0  0
  1 28  1  0  0  0  0
  2 24  1  0  0  0  0
  2  3  2  0  0  0  0
  3  4  1  0  0  0  0
  3 29  1  0  0  0  0
  4 22  2  0  0  0  0
  4  5  1  0  0  0  0
  5  6  2  0  0  0  0
  5 57  1  0  0  0  0
  6  7  1  0  0  0  0
  6 30  1  0  0  0  0
  7  8  1  0  0  0  0
  7 22  1  0  0  0  0
  8  9  1  0  0  0  0
  8 31  1  0  0  0  0
  8 32  1  0  0  0  0
  9 10  1  0  0  0  0
  9 11  1  0  0  0  0
  9 33  1  0  0  0  0
 10 34  1  0  0  0  0
 11 12  1  0  0  0  0
 11 35  1  0  0  0  0
 11 36  1  0  0  0  0
 12 21  1  0  0  0  0
 12 13  1  0  0  0  0
 12 56  1  0  0  0  0
 13 14  1  0  0  0  0
 13 37  1  0  0  0  0
 13 38  1  0  0  0  0
 14 15  1  0  0  0  0
 14 39  1  0  0  0  0
 14 40  1  0  0  0  0
 15 16  1  0  0  0  0
 15 20  1  0  0  0  0
 16 17  1  0  0  0  0
 16 41  1  0  0  0  0
 16 42  1  0  0  0  0
 17 18  1  0  0  0  0
 17 19  1  0  0  0  0
 17 43  1  0  0  0  0
 18 44  1  0  0  0  0
 18 45  1  0  0  0  0
 18 46  1  0  0  0  0
 19 47  1  0  0  0  0
 20 21  1  0  0  0  0
 20 48  1  0  0  0  0
 20 49  1  0  0  0  0
 21 50  1  0  0  0  0
 21 51  1  0  0  0  0
 22 23  1  0  0  0  0
 23 24  2  0  0  0  0
 23 52  1  0  0  0  0
 24 25  1  0  0  0  0
 25 53  1  0  0  0  0
 25 54  1  0  0  0  0
 25 55  1  0  0  0  0
M  CHG  1   5   1
M  CHG  1  12   1
M  END
> <s_m_source_file>
AV-unprocessed.smi

> <i_m_source_file_index>
1033

> <i_lp_mmshare_version>
43012

> <i_f3d_flags>
0

> <s_epik_input>
W0NIM11jKFtjSF0xKWMoW0NIM10pW2NIXWMoYzEyKW4oW2NIXW4yKVtDSDJdW0NASF0oW09IXSlbQ0gyXU4zW0NIMl1bQ0gyXU4oW0NIMl1bQ0gyXTMpW0NIMl1bQ0BIXShbQ0gzXSlbT0hd

> <s_epik_cmdline>
J2VwaWtfcHl0aG9uJywgJy1waCcsICc3LjAnLCAnLXRuJywgJzgnLCAnLW1hJywgJzIwMCcsICctbWV0YWxfYmluZGluZycsICctaW1hZScsICc8aW5maWxlLm1hZT4nLCAnLW9tYWUnLCAnPG91dGZpbGUubWFlPic=

> <r_epik_Ionization_Penalty>
1.22049

> <r_epik_Ionization_Penalty_Charging>
1.17952

> <r_epik_Ionization_Penalty_Neutral>
0.0409743

> <r_epik_State_Penalty>
1.61468

> <r_epik_Charging_Adjusted_Penalty>
2.7942

> <i_epik_Tot_Q>
2

> <i_epik_Tot_abs_Q>
2

> <r_epik_Metal_State_Penalty>
5.63169

> <b_epik_Metal_Only>
0

> <s_lp_Force_Field>
OPLS_2005

> <r_lp_Energy>
46.1755

> <b_lp_Chiralities_Consistent>
1

> <s_lp_Variant>
AV-unprocessed.smi:1033-12

> <Gold.Version>
5.8.1

> <Gold.Id.Protein>
6NUR|6NUR_protein|mol2

> <Gold.PLP.Fitness>
48.2477

> <Gold.PLP.PLP>
-42.4944

> <Gold.PLP.part.hbond>
-2.0000

> <Gold.PLP.part.metal>
0.0000

> <Gold.PLP.part.buried>
1.4260

> <Gold.PLP.part.nonpolar>
-41.9297

> <Gold.PLP.part.repulsive>
0.3035

> <Gold.PLP.ligand.clash>
0.0000

> <Gold.PLP.ligand.torsion>
1.6810

> <Gold.PLP.Chemscore.Hbond>
3.0000

> <Gold.PLP.Chemscore.CHOScore>
0.0000

> <Gold.PLP.Chemscore.Metal>
0.0000

> <Gold.Chemscore.Hbonds>
donor molecule, donor type, donor heavy atom, donor atom, acceptor molecule, acceptor atom, score
      L1  H    12    56       P1  7948  2.00
      L1  H    19    47       P1 10957  1.00

> <Gold.PLP.Chemscore.Internal.Correction>
0.1153

> <Gold.Rescore>
     Score         DG    S(hbond)    S(metal)    S(lipo)     H(rot)  DE(clash)    DE(int)     intcor
     15.52     -17.40       1.85        0.00     117.96       3.15       0.17       1.71       ----

> <Gold.Chemscore.Fitness>
15.5211

> <Gold.Chemscore.DG>
-17.4045

> <Gold.Chemscore.ZeroCoef>
-5.4800

> <Gold.Chemscore.Hbond>
1.8513

> <Gold.Chemscore.Metal>
0.0000

> <Gold.Chemscore.Lipo>
117.9563

> <Gold.Chemscore.Internal_Hbond>
0.0000

> <Gold.Chemscore.DEClash>
0.1713

> <Gold.Chemscore.DEInternal>
1.7121

> <Gold.Chemscore.Rot>
3.1483

> <Gold.Chemscore.Internal.Correction>
   9.000000E+99

> <Gold.Chemscore.Hbonds>
donor molecule, donor type, donor heavy atom, donor atom, acceptor molecule, acceptor atom, score
      L1  H    12    56       P1  7948  0.94
      L1  H    19    47       P1 10957  0.93

> <Gold.Chemscore.Hbond.Weighted>
-6.1833

> <Gold.Chemscore.Metal.Weighted>
-0.0000

> <Gold.Chemscore.Lipo.Weighted>
-13.8009

> <Gold.Chemscore.Internal_Hbond.Weighted>
0.0000

> <Gold.Chemscore.DEClash.Weighted>
0.1713

> <Gold.Chemscore.DEInternal.Weighted>
1.7121

> <Gold.Chemscore.Rot.Weighted>
8.0597

> <Gold.Chemscore.Internal.Correction.Weighted>
   9.000000E+99

> <Gold.Protein.RotatedTorsions>
[ 6907 6896 6895 6894 ] final   10.81 input  -60.11 | X-H torsion
[ 7974 7965 7964 7962 ] final  149.61 input  175.53 | X-H torsion
[ 8008 7997 7996 7995 ] final -162.94 input   59.86 | X-H torsion
[ 10167 10162 10161 10158 ] final -127.05 input  -65.29 | X-H torsion
[ 10718 10713 10712 10709 ] final  -67.43 input   66.30 | X-H torsion
[ 10763 10752 10751 10750 ] final  -46.41 input  -60.55 | X-H torsion
[ 11005 11000 10999 10996 ] final   96.34 input  -57.11 | X-H torsion

> <Gold.Protein.ActiveResidues>
 VAL166  LYS551  ARG553  GLY616  TRP617  ASP618  TYR619  PRO620  LYS621  CYS622 
 ASP623  PHE694  ASN695  SER759  ASP760  ASP761  ALA762  ILE779  LEU786  VAL792 
 PHE793  MET794  SER795  GLU796  ALA797  LYS798  CYS799  TRP800  GLU811  SER814 

> <Gold.Protein.RotatedAtoms>
  151.7443  135.0847  160.0320 H   0  0  0  0  0  0  0  0  0  0  0  0  # atno 6907 bound_to 6896
  152.3459  133.6117  159.5918 H   0  0  0  0  0  0  0  0  0  0  0  0  # atno 6908 bound_to 6896
  150.7508  133.9566  159.3544 H   0  0  0  0  0  0  0  0  0  0  0  0  # atno 6909 bound_to 6896
  144.8425  139.6302  143.6010 H   0  0  0  0  0  0  0  0  0  0  0  0  # atno 7974 bound_to 7965
  155.8141  140.0910  157.1887 H   0  0  0  0  0  0  0  0  0  0  0  0  # atno 8008 bound_to 7997
  154.3979  140.1449  156.3481 H   0  0  0  0  0  0  0  0  0  0  0  0  # atno 8009 bound_to 7997
  155.8334  140.3441  155.5589 H   0  0  0  0  0  0  0  0  0  0  0  0  # atno 8010 bound_to 7997
  139.9650  143.5908  152.2432 H   0  0  0  0  0  0  0  0  0  0  0  0  # atno 10167 bound_to 10162
  156.0558  130.4278  150.1853 H   0  0  0  0  0  0  0  0  0  0  0  0  # atno 10718 bound_to 10713
  154.0445  135.6639  153.4793 H   0  0  0  0  0  0  0  0  0  0  0  0  # atno 10763 bound_to 10752
  153.0488  135.5097  154.7811 H   0  0  0  0  0  0  0  0  0  0  0  0  # atno 10764 bound_to 10752
  154.6797  135.3043  154.9596 H   0  0  0  0  0  0  0  0  0  0  0  0  # atno 10765 bound_to 10752
  139.8782  134.8945  156.4144 H   0  0  0  0  0  0  0  0  0  0  0  0  # atno 11005 bound_to 11000
  146.2715  139.6648  142.9292 LP  0  0  0  0  0  0  0  0  0  0  0  0  # atno 17320 bound_to 7965
  145.4664  141.0434  143.2723 LP  0  0  0  0  0  0  0  0  0  0  0  0  # atno 17321 bound_to 7965
  139.6525  144.7661  151.2120 LP  0  0  0  0  0  0  0  0  0  0  0  0  # atno 17342 bound_to 10162
  140.7541  143.6138  150.8579 LP  0  0  0  0  0  0  0  0  0  0  0  0  # atno 17343 bound_to 10162
  156.9929  130.9899  151.3410 LP  0  0  0  0  0  0  0  0  0  0  0  0  # atno 17370 bound_to 10713
  157.5527  130.8193  149.8165 LP  0  0  0  0  0  0  0  0  0  0  0  0  # atno 17371 bound_to 10713
  140.9178  133.7666  155.9869 LP  0  0  0  0  0  0  0  0  0  0  0  0  # atno 17394 bound_to 11000
  140.8474  134.2994  157.5289 LP  0  0  0  0  0  0  0  0  0  0  0  0  # atno 17395 bound_to 11000

$$$$
