AV-unprocessed.smi:778|AV-procd|sdf|3703|dock7
  -GOLD-   22720 1123D 1   1.00000     0.00000
 Structure written by MMmdl.
 40 41  0  0  0  0  0  0  0  0  1 V2000
  146.2803  138.4971  151.4123 N   0  0  0  0  0  0  0  0  0  0  0  0
  146.9021  139.0407  152.2224 C   0  0  0  0  0  0  0  0  0  0  0  0
  147.6849  139.7251  153.2423 C   0  0  0  0  0  0  0  0  0  0  0  0
  148.9827  139.2755  153.5685 C   0  0  0  0  0  0  0  0  0  0  0  0
  149.7356  139.8867  154.5083 N   0  0  0  0  0  0  0  0  0  0  0  0
  149.1892  140.9434  155.1155 C   0  0  0  0  0  0  0  0  0  0  0  0
  150.1507  141.7764  156.3679 S   0  0  0  0  0  0  0  0  0  0  0  0
  150.9229  140.3986  157.2714 C   0  0  0  0  0  0  0  0  0  0  0  0
  151.3188  140.8149  158.6904 C   0  0  0  0  0  0  0  0  0  0  0  0
  151.5496  142.2156  158.6999 O   0  0  0  0  0  0  0  0  0  0  0  0
  152.9050  142.6087  158.8812 C   0  0  0  0  0  0  0  0  0  0  0  0
  153.4501  142.3188  160.2980 C   0  0  0  0  0  0  0  0  0  0  0  0
  152.6100  142.8705  161.4598 C   0  0  0  0  0  0  0  0  0  0  0  0
  152.4043  144.3939  161.4400 C   0  0  0  0  0  0  0  0  0  0  0  0
  151.3951  144.8422  160.3729 C   0  0  0  0  0  0  0  0  0  0  0  0
  151.9720  145.0629  158.9628 C   0  0  0  0  0  0  0  0  0  0  0  0
  153.0643  144.0870  158.4790 C   0  0  0  0  0  0  0  0  0  0  0  0
  147.9775  141.4589  154.8963 N   0  0  0  0  0  0  0  0  0  0  0  0
  147.2154  140.8556  153.9582 C   0  0  0  0  0  0  0  0  0  0  0  0
  145.9523  141.4093  153.7416 N   0  0  0  0  0  0  0  0  0  0  0  0
  149.4240  138.4215  153.0751 H   0  0  0  0  0  0  0  0  0  0  0  0
  150.2205  139.5659  157.3165 H   0  0  0  0  0  0  0  0  0  0  0  0
  151.8035  140.0552  156.7273 H   0  0  0  0  0  0  0  0  0  0  0  0
  150.5262  140.5383  159.3854 H   0  0  0  0  0  0  0  0  0  0  0  0
  152.2244  140.2880  158.9944 H   0  0  0  0  0  0  0  0  0  0  0  0
  153.5183  142.0372  158.1822 H   0  0  0  0  0  0  0  0  0  0  0  0
  153.5563  141.2426  160.4321 H   0  0  0  0  0  0  0  0  0  0  0  0
  154.4646  142.7110  160.3765 H   0  0  0  0  0  0  0  0  0  0  0  0
  151.6437  142.3653  161.4896 H   0  0  0  0  0  0  0  0  0  0  0  0
  153.1084  142.6025  162.3918 H   0  0  0  0  0  0  0  0  0  0  0  0
  152.0124  144.6857  162.4149 H   0  0  0  0  0  0  0  0  0  0  0  0
  153.3533  144.9199  161.3300 H   0  0  0  0  0  0  0  0  0  0  0  0
  150.5753  144.1243  160.3262 H   0  0  0  0  0  0  0  0  0  0  0  0
  150.9336  145.7767  160.6940 H   0  0  0  0  0  0  0  0  0  0  0  0
  151.1418  145.0414  158.2559 H   0  0  0  0  0  0  0  0  0  0  0  0
  152.3762  146.0738  158.9009 H   0  0  0  0  0  0  0  0  0  0  0  0
  154.0386  144.4429  158.8153 H   0  0  0  0  0  0  0  0  0  0  0  0
  153.1012  144.1497  157.3908 H   0  0  0  0  0  0  0  0  0  0  0  0
  145.3149  141.0239  153.0597 H   0  0  0  0  0  0  0  0  0  0  0  0
  145.6411  142.2229  154.2529 H   0  0  0  0  0  0  0  0  0  0  0  0
  1  2  3  0  0  0  0
  2  3  1  0  0  0  0
  3 19  1  0  0  0  0
  3  4  2  0  0  0  0
  4  5  1  0  0  0  0
  4 21  1  0  0  0  0
  5  6  2  0  0  0  0
  6  7  1  0  0  0  0
  6 18  1  0  0  0  0
  7  8  1  0  0  0  0
  8  9  1  0  0  0  0
  8 22  1  0  0  0  0
  8 23  1  0  0  0  0
  9 10  1  0  0  0  0
  9 24  1  0  0  0  0
  9 25  1  0  0  0  0
 10 11  1  0  0  0  0
 11 17  1  0  0  0  0
 11 12  1  0  0  0  0
 11 26  1  0  0  0  0
 12 13  1  0  0  0  0
 12 27  1  0  0  0  0
 12 28  1  0  0  0  0
 13 14  1  0  0  0  0
 13 29  1  0  0  0  0
 13 30  1  0  0  0  0
 14 15  1  0  0  0  0
 14 31  1  0  0  0  0
 14 32  1  0  0  0  0
 15 16  1  0  0  0  0
 15 33  1  0  0  0  0
 15 34  1  0  0  0  0
 16 17  1  0  0  0  0
 16 35  1  0  0  0  0
 16 36  1  0  0  0  0
 17 37  1  0  0  0  0
 17 38  1  0  0  0  0
 18 19  2  0  0  0  0
 19 20  1  0  0  0  0
 20 39  1  0  0  0  0
 20 40  1  0  0  0  0
M  END
> <s_m_source_file>
AV-unprocessed.smi

> <i_m_source_file_index>
778

> <i_lp_mmshare_version>
43012

> <i_f3d_flags>
0

> <s_epik_input>
TiNDYzFbY0hdbmMobmMxW05IMl0pU1tDSDJdW0NIMl1PW0NIXTJbQ0gyXVtDSDJdW0NIMl1bQ0gyXVtDSDJdW0NIMl0y

> <s_epik_cmdline>
J2VwaWtfcHl0aG9uJywgJy1waCcsICc3LjAnLCAnLXRuJywgJzgnLCAnLW1hJywgJzIwMCcsICctbWV0YWxfYmluZGluZycsICctaW1hZScsICc8aW5maWxlLm1hZT4nLCAnLW9tYWUnLCAnPG91dGZpbGUubWFlPic=

> <r_lp_tautomer_probability>
1

> <r_epik_Ionization_Penalty>
5.1519e-05

> <r_epik_Ionization_Penalty_Charging>
0

> <r_epik_Ionization_Penalty_Neutral>
5.1519e-05

> <r_epik_State_Penalty>
-0

> <r_epik_Charging_Adjusted_Penalty>
0

> <i_epik_Tot_Q>
0

> <i_epik_Tot_abs_Q>
0

> <r_epik_Metal_State_Penalty>
-0

> <b_epik_Metal_Only>
0

> <s_lp_Force_Field>
OPLS_2005

> <r_lp_Energy>
14.4265

> <b_lp_Chiralities_Consistent>
1

> <s_lp_Variant>
AV-unprocessed.smi:778-1

> <Gold.Version>
5.8.1

> <Gold.Id.Protein>
6NUR|6NUR_protein|mol2

> <Gold.PLP.Fitness>
49.6662

> <Gold.PLP.PLP>
-40.8901

> <Gold.PLP.part.hbond>
-3.0000

> <Gold.PLP.part.metal>
0.0000

> <Gold.PLP.part.buried>
5.6783

> <Gold.PLP.part.nonpolar>
-45.0821

> <Gold.PLP.part.repulsive>
0.6131

> <Gold.PLP.ligand.clash>
0.0000

> <Gold.PLP.ligand.torsion>
1.0424

> <Gold.PLP.Chemscore.Hbond>
2.8960

> <Gold.PLP.Chemscore.CHOScore>
0.7201

> <Gold.PLP.Chemscore.Metal>
0.0000

> <Gold.Chemscore.Hbonds>
donor molecule, donor type, donor heavy atom, donor atom, acceptor molecule, acceptor atom, score
      L1  H    20    39       P1 10175  1.00
      P1  H  7989  7998       L1     5  0.19
      L1  C     4    21       P1  7948  1.00
      L1  C     4    21       P1  7957  0.07

> <Gold.PLP.Chemscore.Internal.Correction>
0.0125

> <Gold.Rescore>
     Score         DG    S(hbond)    S(metal)    S(lipo)     H(rot)  DE(clash)    DE(int)     intcor
     14.86     -16.48       0.99        0.00     115.21       2.26       0.48       1.14       ----

> <Gold.Chemscore.Fitness>
14.8573

> <Gold.Chemscore.DG>
-16.4777

> <Gold.Chemscore.ZeroCoef>
-5.4800

> <Gold.Chemscore.Hbond>
0.9863

> <Gold.Chemscore.Metal>
0.0000

> <Gold.Chemscore.Lipo>
115.2085

> <Gold.Chemscore.Internal_Hbond>
0.0000

> <Gold.Chemscore.DEClash>
0.4777

> <Gold.Chemscore.DEInternal>
1.1427

> <Gold.Chemscore.Rot>
2.2562

> <Gold.Chemscore.Internal.Correction>
   9.000000E+99

> <Gold.Chemscore.Hbonds>
donor molecule, donor type, donor heavy atom, donor atom, acceptor molecule, acceptor atom, score
      L1  H    20    39       P1 10175  0.29
      P1  H  7989  7998       L1     5  0.04

> <Gold.Chemscore.Hbond.Weighted>
-3.2942

> <Gold.Chemscore.Metal.Weighted>
-0.0000

> <Gold.Chemscore.Lipo.Weighted>
-13.4794

> <Gold.Chemscore.Internal_Hbond.Weighted>
0.0000

> <Gold.Chemscore.DEClash.Weighted>
0.4777

> <Gold.Chemscore.DEInternal.Weighted>
1.1427

> <Gold.Chemscore.Rot.Weighted>
5.7759

> <Gold.Chemscore.Internal.Correction.Weighted>
   9.000000E+99

> <Gold.Protein.RotatedTorsions>
[ 6907 6896 6895 6894 ] final   13.11 input  -60.11 | X-H torsion
[ 7974 7965 7964 7962 ] final  152.10 input  175.53 | X-H torsion
[ 8008 7997 7996 7995 ] final  133.86 input   59.86 | X-H torsion
[ 10167 10162 10161 10158 ] final   79.86 input  -65.29 | X-H torsion
[ 10718 10713 10712 10709 ] final  156.05 input   66.30 | X-H torsion
[ 10763 10752 10751 10750 ] final -175.39 input  -60.55 | X-H torsion
[ 11005 11000 10999 10996 ] final   55.70 input  -57.11 | X-H torsion

> <Gold.Protein.ActiveResidues>
 VAL166  LYS551  ARG553  GLY616  TRP617  ASP618  TYR619  PRO620  LYS621  CYS622 
 ASP623  PHE694  ASN695  SER759  ASP760  ASP761  ALA762  ILE779  LEU786  VAL792 
 PHE793  MET794  SER795  GLU796  ALA797  LYS798  CYS799  TRP800  GLU811  SER814 

> <Gold.Protein.RotatedAtoms>
  151.7810  135.0761  160.0373 H   0  0  0  0  0  0  0  0  0  0  0  0  # atno 6907 bound_to 6896
  152.3223  133.5862  159.5761 H   0  0  0  0  0  0  0  0  0  0  0  0  # atno 6908 bound_to 6896
  150.7376  133.9909  159.3648 H   0  0  0  0  0  0  0  0  0  0  0  0  # atno 6909 bound_to 6896
  144.8246  139.6624  143.6085 H   0  0  0  0  0  0  0  0  0  0  0  0  # atno 7974 bound_to 7965
  156.2995  140.2510  156.3323 H   0  0  0  0  0  0  0  0  0  0  0  0  # atno 8008 bound_to 7997
  154.9133  140.0402  157.1977 H   0  0  0  0  0  0  0  0  0  0  0  0  # atno 8009 bound_to 7997
  154.8383  140.2887  155.5680 H   0  0  0  0  0  0  0  0  0  0  0  0  # atno 8010 bound_to 7997
  139.9558  144.5995  150.8118 H   0  0  0  0  0  0  0  0  0  0  0  0  # atno 10167 bound_to 10162
  157.2102  131.0696  151.1974 H   0  0  0  0  0  0  0  0  0  0  0  0  # atno 10718 bound_to 10713
  154.5850  135.2839  155.0694 H   0  0  0  0  0  0  0  0  0  0  0  0  # atno 10763 bound_to 10752
  154.2017  135.6423  153.5092 H   0  0  0  0  0  0  0  0  0  0  0  0  # atno 10764 bound_to 10752
  153.0101  135.5470  154.6516 H   0  0  0  0  0  0  0  0  0  0  0  0  # atno 10765 bound_to 10752
  140.0586  134.5634  155.9178 H   0  0  0  0  0  0  0  0  0  0  0  0  # atno 11005 bound_to 11000
  146.2551  139.6285  142.9400 LP  0  0  0  0  0  0  0  0  0  0  0  0  # atno 17320 bound_to 7965
  145.5029  141.0437  143.2530 LP  0  0  0  0  0  0  0  0  0  0  0  0  # atno 17321 bound_to 7965
  140.7568  143.3074  151.2928 LP  0  0  0  0  0  0  0  0  0  0  0  0  # atno 17342 bound_to 10162
  139.6592  144.0220  152.2681 LP  0  0  0  0  0  0  0  0  0  0  0  0  # atno 17343 bound_to 10162
  157.3680  130.7166  149.6546 LP  0  0  0  0  0  0  0  0  0  0  0  0  # atno 17370 bound_to 10713
  155.9691  130.4207  150.4434 LP  0  0  0  0  0  0  0  0  0  0  0  0  # atno 17371 bound_to 10713
  141.1963  133.6591  156.5686 LP  0  0  0  0  0  0  0  0  0  0  0  0  # atno 17394 bound_to 11000
  140.3805  134.7528  157.4658 LP  0  0  0  0  0  0  0  0  0  0  0  0  # atno 17395 bound_to 11000

$$$$
