AV-unprocessed.smi:861|AV-procd|sdf|3966|dock3
  -GOLD-   22720 1443D 1   1.00000     0.00000
 Structure written by MMmdl.
 44 45  0  0  0  0  0  0  0  0  2 V2000
  152.1623  140.0321  158.6774 C   0  0  0  0  0  0  0  0  0  0  0  0
  152.3448  141.5359  158.4109 C   0  0  0  0  0  0  0  0  0  0  0  0
  152.7978  142.2548  159.6909 C   0  0  0  0  0  0  0  0  0  0  0  0
  151.0716  142.1923  157.8393 C   0  0  0  0  0  0  0  0  0  0  0  0
  150.6722  141.6720  156.4447 C   0  0  0  0  0  0  0  0  0  0  0  0
  149.2730  142.0161  156.0868 N   0  3  1  0  0  0  0  0  0  0  0  0
  148.9199  141.5780  154.7158 C   0  0  0  0  0  0  0  0  0  0  0  0
  147.4831  141.9993  154.3684 C   0  0  0  0  0  0  0  0  0  0  0  0
  146.5864  141.4676  155.3350 O   0  0  0  0  0  0  0  0  0  0  0  0
  146.8486  141.9589  156.6445 C   0  0  1  0  0  0  0  0  0  0  0  0
  145.7544  141.4012  157.5733 C   0  0  0  0  0  0  0  0  0  0  0  0
  145.0552  142.4399  158.3220 N   0  0  0  0  0  0  0  0  0  0  0  0
  145.6977  143.1922  159.3163 C   0  0  0  0  0  0  0  0  0  0  0  0
  145.3953  144.5637  159.4344 C   0  0  0  0  0  0  0  0  0  0  0  0
  146.0512  145.2929  160.4415 C   0  0  0  0  0  0  0  0  0  0  0  0
  146.9603  144.5939  161.2565 C   0  0  0  0  0  0  0  0  0  0  0  0
  147.2122  143.2747  161.0997 N   0  0  0  0  0  0  0  0  0  0  0  0
  146.5886  142.5835  160.1391 N   0  0  0  0  0  0  0  0  0  0  0  0
  148.2685  141.5211  157.0608 C   0  0  0  0  0  0  0  0  0  0  0  0
  151.3429  139.8485  159.3730 H   0  0  0  0  0  0  0  0  0  0  0  0
  153.0653  139.5996  159.1092 H   0  0  0  0  0  0  0  0  0  0  0  0
  151.9531  139.4824  157.7600 H   0  0  0  0  0  0  0  0  0  0  0  0
  153.1444  141.6506  157.6777 H   0  0  0  0  0  0  0  0  0  0  0  0
  152.0452  142.1785  160.4763 H   0  0  0  0  0  0  0  0  0  0  0  0
  152.9797  143.3138  159.5058 H   0  0  0  0  0  0  0  0  0  0  0  0
  153.7240  141.8270  160.0760 H   0  0  0  0  0  0  0  0  0  0  0  0
  150.2540  142.0539  158.5468 H   0  0  0  0  0  0  0  0  0  0  0  0
  151.2341  143.2689  157.7707 H   0  0  0  0  0  0  0  0  0  0  0  0
  151.3407  142.1218  155.7091 H   0  0  0  0  0  0  0  0  0  0  0  0
  150.8109  140.5928  156.3715 H   0  0  0  0  0  0  0  0  0  0  0  0
  149.6131  142.0136  153.9951 H   0  0  0  0  0  0  0  0  0  0  0  0
  149.0187  140.4938  154.6420 H   0  0  0  0  0  0  0  0  0  0  0  0
  147.3929  143.0860  154.3258 H   0  0  0  0  0  0  0  0  0  0  0  0
  147.2074  141.6187  153.3849 H   0  0  0  0  0  0  0  0  0  0  0  0
  146.7898  143.0485  156.6258 H   0  0  0  0  0  0  0  0  0  0  0  0
  145.0314  140.8237  156.9958 H   0  0  0  0  0  0  0  0  0  0  0  0
  146.1961  140.7038  158.2856 H   0  0  0  0  0  0  0  0  0  0  0  0
  144.1060  142.6676  158.0622 H   0  0  0  0  0  0  0  0  0  0  0  0
  144.6856  145.0441  158.7768 H   0  0  0  0  0  0  0  0  0  0  0  0
  145.8655  146.3471  160.5851 H   0  0  0  0  0  0  0  0  0  0  0  0
  147.4941  145.0989  162.0478 H   0  0  0  0  0  0  0  0  0  0  0  0
  148.3251  140.4331  157.1234 H   0  0  0  0  0  0  0  0  0  0  0  0
  148.4884  141.9109  158.0538 H   0  0  0  0  0  0  0  0  0  0  0  0
  149.2130  143.0246  156.0870 H   0  0  0  0  0  0  0  0  0  0  0  0
  1  2  1  0  0  0  0
  1 20  1  0  0  0  0
  1 21  1  0  0  0  0
  1 22  1  0  0  0  0
  2  3  1  0  0  0  0
  2  4  1  0  0  0  0
  2 23  1  0  0  0  0
  3 24  1  0  0  0  0
  3 25  1  0  0  0  0
  3 26  1  0  0  0  0
  4  5  1  0  0  0  0
  4 27  1  0  0  0  0
  4 28  1  0  0  0  0
  5  6  1  0  0  0  0
  5 29  1  0  0  0  0
  5 30  1  0  0  0  0
  6 19  1  0  0  0  0
  6  7  1  0  0  0  0
  6 44  1  0  0  0  0
  7  8  1  0  0  0  0
  7 31  1  0  0  0  0
  7 32  1  0  0  0  0
  8  9  1  0  0  0  0
  8 33  1  0  0  0  0
  8 34  1  0  0  0  0
  9 10  1  0  0  0  0
 10 11  1  0  0  0  0
 10 19  1  0  0  0  0
 10 35  1  0  0  0  0
 11 12  1  0  0  0  0
 11 36  1  0  0  0  0
 11 37  1  0  0  0  0
 12 13  1  0  0  0  0
 12 38  1  0  0  0  0
 13 18  1  0  0  0  0
 13 14  2  0  0  0  0
 14 15  1  0  0  0  0
 14 39  1  0  0  0  0
 15 16  2  0  0  0  0
 15 40  1  0  0  0  0
 16 17  1  0  0  0  0
 16 41  1  0  0  0  0
 17 18  2  0  0  0  0
 19 42  1  0  0  0  0
 19 43  1  0  0  0  0
M  CHG  1   6   1
M  END
> <s_m_source_file>
AV-unprocessed.smi

> <i_m_source_file_index>
861

> <i_lp_mmshare_version>
43012

> <i_f3d_flags>
0

> <s_epik_input>
W0NIM11bQ0hdKFtDSDNdKVtDSDJdW0NIMl1OMVtDSDJdW0NIMl1PW0NASF0oW0NIMl0xKVtDSDJdW05IXWMyW2NIXVtjSF1bY0hdbm4y

> <s_epik_cmdline>
J2VwaWtfcHl0aG9uJywgJy1waCcsICc3LjAnLCAnLXRuJywgJzgnLCAnLW1hJywgJzIwMCcsICctbWV0YWxfYmluZGluZycsICctaW1hZScsICc8aW5maWxlLm1hZT4nLCAnLW9tYWUnLCAnPG91dGZpbGUubWFlPic=

> <r_lp_tautomer_probability>
0.999978

> <r_epik_Ionization_Penalty>
0.114704

> <r_epik_Ionization_Penalty_Charging>
0.0953451

> <r_epik_Ionization_Penalty_Neutral>
0.0193593

> <r_epik_State_Penalty>
0.104983

> <r_epik_Charging_Adjusted_Penalty>
0.200328

> <i_epik_Tot_Q>
1

> <i_epik_Tot_abs_Q>
1

> <r_epik_Metal_State_Penalty>
0.100113

> <b_epik_Metal_Only>
0

> <s_lp_Force_Field>
OPLS_2005

> <r_lp_Energy>
24.1259

> <b_lp_Chiralities_Consistent>
1

> <s_lp_Variant>
AV-unprocessed.smi:861-1

> <Gold.Version>
5.8.1

> <Gold.Id.Protein>
6NUR|6NUR_protein|mol2

> <Gold.PLP.Fitness>
42.4846

> <Gold.PLP.PLP>
-32.6923

> <Gold.PLP.part.hbond>
-3.9941

> <Gold.PLP.part.metal>
0.0000

> <Gold.PLP.part.buried>
-6.1670

> <Gold.PLP.part.nonpolar>
-23.9904

> <Gold.PLP.part.repulsive>
0.2773

> <Gold.PLP.ligand.clash>
0.0000

> <Gold.PLP.ligand.torsion>
1.1448

> <Gold.PLP.Chemscore.Hbond>
4.0000

> <Gold.PLP.Chemscore.CHOScore>
0.0000

> <Gold.PLP.Chemscore.Metal>
0.0000

> <Gold.Chemscore.Hbonds>
donor molecule, donor type, donor heavy atom, donor atom, acceptor molecule, acceptor atom, score
      L1  H     6    44       P1  8028  2.00
      P1  H  6933  6944       L1    17  1.00
      P1  H  6934  6946       L1    18  1.00

> <Gold.PLP.Chemscore.Internal.Correction>
0.0819

> <Gold.Rescore>
     Score         DG    S(hbond)    S(metal)    S(lipo)     H(rot)  DE(clash)    DE(int)     intcor
     15.37     -16.56       1.86        0.00      79.26       1.71       0.07       1.13       ----

> <Gold.Chemscore.Fitness>
15.3663

> <Gold.Chemscore.DG>
-16.5650

> <Gold.Chemscore.ZeroCoef>
-5.4800

> <Gold.Chemscore.Hbond>
1.8551

> <Gold.Chemscore.Metal>
0.0000

> <Gold.Chemscore.Lipo>
79.2605

> <Gold.Chemscore.Internal_Hbond>
0.0000

> <Gold.Chemscore.DEClash>
0.0690

> <Gold.Chemscore.DEInternal>
1.1296

> <Gold.Chemscore.Rot>
1.7127

> <Gold.Chemscore.Internal.Correction>
   9.000000E+99

> <Gold.Chemscore.Hbonds>
donor molecule, donor type, donor heavy atom, donor atom, acceptor molecule, acceptor atom, score
      L1  H     6    44       P1  8028  1.00
      P1  H  6933  6944       L1    17  0.39
      P1  H  6934  6946       L1    18  0.25

> <Gold.Chemscore.Hbond.Weighted>
-6.1959

> <Gold.Chemscore.Metal.Weighted>
-0.0000

> <Gold.Chemscore.Lipo.Weighted>
-9.2735

> <Gold.Chemscore.Internal_Hbond.Weighted>
0.0000

> <Gold.Chemscore.DEClash.Weighted>
0.0690

> <Gold.Chemscore.DEInternal.Weighted>
1.1296

> <Gold.Chemscore.Rot.Weighted>
4.3844

> <Gold.Chemscore.Internal.Correction.Weighted>
   9.000000E+99

> <Gold.Protein.RotatedTorsions>
[ 6907 6896 6895 6894 ] final   -8.71 input  -60.11 | X-H torsion
[ 7974 7965 7964 7962 ] final    7.82 input  175.53 | X-H torsion
[ 8008 7997 7996 7995 ] final -102.89 input   59.86 | X-H torsion
[ 10167 10162 10161 10158 ] final   22.36 input  -65.29 | X-H torsion
[ 10718 10713 10712 10709 ] final   34.17 input   66.30 | X-H torsion
[ 10763 10752 10751 10750 ] final  -44.61 input  -60.55 | X-H torsion
[ 11005 11000 10999 10996 ] final -150.14 input  -57.11 | X-H torsion

> <Gold.Protein.ActiveResidues>
 VAL166  LYS551  ARG553  GLY616  TRP617  ASP618  TYR619  PRO620  LYS621  CYS622 
 ASP623  PHE694  ASN695  SER759  ASP760  ASP761  ALA762  ILE779  LEU786  VAL792 
 PHE793  MET794  SER795  GLU796  ALA797  LYS798  CYS799  TRP800  GLU811  SER814 

> <Gold.Protein.RotatedAtoms>
  151.4293  135.1007  159.9637 H   0  0  0  0  0  0  0  0  0  0  0  0  # atno 6907 bound_to 6896
  152.4962  133.8633  159.7272 H   0  0  0  0  0  0  0  0  0  0  0  0  # atno 6908 bound_to 6896
  150.9167  133.6872  159.2869 H   0  0  0  0  0  0  0  0  0  0  0  0  # atno 6909 bound_to 6896
  146.2423  140.0026  142.8414 H   0  0  0  0  0  0  0  0  0  0  0  0  # atno 7974 bound_to 7965
  154.8630  140.0426  157.1677 H   0  0  0  0  0  0  0  0  0  0  0  0  # atno 8008 bound_to 7997
  154.8819  140.2974  155.5399 H   0  0  0  0  0  0  0  0  0  0  0  0  # atno 8009 bound_to 7997
  156.2998  140.2409  156.3823 H   0  0  0  0  0  0  0  0  0  0  0  0  # atno 8010 bound_to 7997
  140.5354  143.9769  150.6489 H   0  0  0  0  0  0  0  0  0  0  0  0  # atno 10167 bound_to 10162
  157.3070  130.7380  149.6701 H   0  0  0  0  0  0  0  0  0  0  0  0  # atno 10718 bound_to 10713
  154.0148  135.6677  153.4768 H   0  0  0  0  0  0  0  0  0  0  0  0  # atno 10763 bound_to 10752
  153.0605  135.5030  154.8078 H   0  0  0  0  0  0  0  0  0  0  0  0  # atno 10764 bound_to 10752
  154.6973  135.3072  154.9356 H   0  0  0  0  0  0  0  0  0  0  0  0  # atno 10765 bound_to 10752
  140.7434  134.3489  157.5142 H   0  0  0  0  0  0  0  0  0  0  0  0  # atno 11005 bound_to 11000
  145.1401  140.9566  143.4493 LP  0  0  0  0  0  0  0  0  0  0  0  0  # atno 17320 bound_to 7965
  145.0304  139.3346  143.6027 LP  0  0  0  0  0  0  0  0  0  0  0  0  # atno 17321 bound_to 7965
  140.3155  143.3170  152.0836 LP  0  0  0  0  0  0  0  0  0  0  0  0  # atno 17342 bound_to 10162
  139.4969  144.6608  151.6469 LP  0  0  0  0  0  0  0  0  0  0  0  0  # atno 17343 bound_to 10162
  155.9675  130.4263  150.4691 LP  0  0  0  0  0  0  0  0  0  0  0  0  # atno 17370 bound_to 10713
  157.2683  131.0581  151.2276 LP  0  0  0  0  0  0  0  0  0  0  0  0  # atno 17371 bound_to 10713
  139.8801  134.9095  156.2993 LP  0  0  0  0  0  0  0  0  0  0  0  0  # atno 17394 bound_to 11000
  140.9816  133.7264  156.0681 LP  0  0  0  0  0  0  0  0  0  0  0  0  # atno 17395 bound_to 11000

$$$$
