AV-unprocessed.smi:876|AV-procd|sdf|4021|dock5
  -GOLD-   22720 1513D 1   1.00000     0.00000
 Structure written by MMmdl.
 41 42  0  0  0  0  0  0  0  0  2 V2000
  152.3458  142.5037  158.8175 C   0  0  0  0  0  0  0  0  0  0  0  0
  151.6185  142.9349  157.6307 N   0  0  0  0  0  0  0  0  0  0  0  0
  151.5358  144.3516  157.2936 C   0  0  0  0  0  0  0  0  0  0  0  0
  151.0770  141.9720  156.7516 C   0  0  0  0  0  0  0  0  0  0  0  0
  151.6064  140.6656  156.6101 C   0  0  0  0  0  0  0  0  0  0  0  0
  151.0105  139.7569  155.7112 C   0  0  0  0  0  0  0  0  0  0  0  0
  149.8775  140.1570  154.9612 C   0  0  0  0  0  0  0  0  0  0  0  0
  149.2109  139.3290  154.0181 N   0  0  0  0  0  0  0  0  0  0  0  0
  147.9229  139.3642  153.6349 C   0  0  0  0  0  0  0  0  0  0  0  0
  147.0806  140.1641  154.0421 O   0  0  0  0  0  0  0  0  0  0  0  0
  147.6623  138.4178  152.7223 N   0  0  0  0  0  0  0  0  0  0  0  0
  146.3650  138.2026  152.0915 C   0  0  2  0  0  0  0  0  0  0  0  0
  145.3232  137.8743  153.1254 C   0  0  0  0  0  0  0  0  0  0  0  0
  144.7415  136.6962  152.9132 C   0  0  0  0  0  0  0  0  0  0  0  0
  145.2904  135.9802  151.7055 C   0  0  1  0  0  0  0  0  0  0  0  0
  144.2017  135.6221  150.6791 C   0  0  0  0  0  0  0  0  0  0  0  0
  144.6391  134.5797  149.8322 O   0  0  0  0  0  0  0  0  0  0  0  0
  146.3497  136.9677  151.1520 C   0  0  0  0  0  0  0  0  0  0  0  0
  149.3991  141.4718  155.1284 C   0  0  0  0  0  0  0  0  0  0  0  0
  150.0002  142.3093  156.0005 N   0  3  0  0  0  0  0  0  0  0  0  0
  146.0499  139.1011  151.5576 H   0  0  0  0  0  0  0  0  0  0  0  0
  145.7860  135.0706  152.0480 H   0  0  0  0  0  0  0  0  0  0  0  0
  153.1965  141.8799  158.5412 H   0  0  0  0  0  0  0  0  0  0  0  0
  151.6942  141.9324  159.4796 H   0  0  0  0  0  0  0  0  0  0  0  0
  152.7269  143.3559  159.3806 H   0  0  0  0  0  0  0  0  0  0  0  0
  150.4976  144.6539  157.1525 H   0  0  0  0  0  0  0  0  0  0  0  0
  152.0863  144.5591  156.3753 H   0  0  0  0  0  0  0  0  0  0  0  0
  151.9570  144.9728  158.0843 H   0  0  0  0  0  0  0  0  0  0  0  0
  152.4676  140.3424  157.1757 H   0  0  0  0  0  0  0  0  0  0  0  0
  151.4455  138.7751  155.6076 H   0  0  0  0  0  0  0  0  0  0  0  0
  149.7975  138.6655  153.5333 H   0  0  0  0  0  0  0  0  0  0  0  0
  148.4132  137.8061  152.4371 H   0  0  0  0  0  0  0  0  0  0  0  0
  145.0837  138.5473  153.9356 H   0  0  0  0  0  0  0  0  0  0  0  0
  143.9672  136.2670  153.5322 H   0  0  0  0  0  0  0  0  0  0  0  0
  143.2810  135.3175  151.1783 H   0  0  0  0  0  0  0  0  0  0  0  0
  143.9635  136.4896  150.0628 H   0  0  0  0  0  0  0  0  0  0  0  0
  145.0905  134.9614  149.0947 H   0  0  0  0  0  0  0  0  0  0  0  0
  146.1076  137.2794  150.1349 H   0  0  0  0  0  0  0  0  0  0  0  0
  147.3255  136.4820  151.1026 H   0  0  0  0  0  0  0  0  0  0  0  0
  148.5506  141.8791  154.5975 H   0  0  0  0  0  0  0  0  0  0  0  0
  149.6211  143.2512  156.0991 H   0  0  0  0  0  0  0  0  0  0  0  0
  1  2  1  0  0  0  0
  1 23  1  0  0  0  0
  1 24  1  0  0  0  0
  1 25  1  0  0  0  0
  2  3  1  0  0  0  0
  2  4  1  0  0  0  0
  3 26  1  0  0  0  0
  3 27  1  0  0  0  0
  3 28  1  0  0  0  0
  4 20  1  0  0  0  0
  4  5  2  0  0  0  0
  5  6  1  0  0  0  0
  5 29  1  0  0  0  0
  6  7  2  0  0  0  0
  6 30  1  0  0  0  0
  7  8  1  0  0  0  0
  7 19  1  0  0  0  0
  8  9  1  0  0  0  0
  8 31  1  0  0  0  0
  9 10  2  0  0  0  0
  9 11  1  0  0  0  0
 11 12  1  0  0  0  0
 11 32  1  0  0  0  0
 12 21  1  0  0  0  0
 12 18  1  0  0  0  0
 12 13  1  0  0  0  0
 13 14  2  0  0  0  0
 13 33  1  0  0  0  0
 14 15  1  0  0  0  0
 14 34  1  0  0  0  0
 15 22  1  0  0  0  0
 15 16  1  0  0  0  0
 15 18  1  0  0  0  0
 16 17  1  0  0  0  0
 16 35  1  0  0  0  0
 16 36  1  0  0  0  0
 17 37  1  0  0  0  0
 18 38  1  0  0  0  0
 18 39  1  0  0  0  0
 19 20  2  0  0  0  0
 19 40  1  0  0  0  0
 20 41  1  0  0  0  0
M  CHG  1  20   1
M  END
> <s_m_source_file>
AV-unprocessed.smi

> <i_m_source_file_index>
876

> <i_lp_mmshare_version>
43012

> <i_f3d_flags>
0

> <s_epik_input>
W0NIM11OKFtDSDNdKWMxW2NIXVtjSF1jKFtjSF1uMSlbTkhdQyg9TylbTkhdW0NAQEhdMltDSF09W0NIXVtDQEBIXShbQ0gyXTIpW0NIMl1bT0hd

> <s_epik_cmdline>
J2VwaWtfcHl0aG9uJywgJy1waCcsICc3LjAnLCAnLXRuJywgJzgnLCAnLW1hJywgJzIwMCcsICctbWV0YWxfYmluZGluZycsICctaW1hZScsICc8aW5maWxlLm1hZT4nLCAnLW9tYWUnLCAnPG91dGZpbGUubWFlPic=

> <r_lp_tautomer_probability>
0.999994

> <r_epik_Ionization_Penalty>
0.257994

> <r_epik_Ionization_Penalty_Charging>
0.257974

> <r_epik_Ionization_Penalty_Neutral>
1.95938e-05

> <r_epik_State_Penalty>
0.249586

> <r_epik_Charging_Adjusted_Penalty>
0.50756

> <i_epik_Tot_Q>
1

> <i_epik_Tot_abs_Q>
1

> <r_epik_Metal_State_Penalty>
0.538508

> <b_epik_Metal_Only>
0

> <s_lp_Force_Field>
OPLS_2005

> <r_lp_Energy>
26.2592

> <b_lp_Chiralities_Consistent>
1

> <s_lp_Variant>
AV-unprocessed.smi:876-3

> <Gold.Version>
5.8.1

> <Gold.Id.Protein>
6NUR|6NUR_protein|mol2

> <Gold.PLP.Fitness>
46.8538

> <Gold.PLP.PLP>
-36.3992

> <Gold.PLP.part.hbond>
-4.9218

> <Gold.PLP.part.metal>
0.0000

> <Gold.PLP.part.buried>
2.3630

> <Gold.PLP.part.nonpolar>
-34.9495

> <Gold.PLP.part.repulsive>
0.4075

> <Gold.PLP.ligand.clash>
0.0000

> <Gold.PLP.ligand.torsion>
0.7481

> <Gold.PLP.Chemscore.Hbond>
3.9760

> <Gold.PLP.Chemscore.CHOScore>
0.0000

> <Gold.PLP.Chemscore.Metal>
0.0000

> <Gold.Chemscore.Hbonds>
donor molecule, donor type, donor heavy atom, donor atom, acceptor molecule, acceptor atom, score
      L1  H    11    32       P1  7948  1.00
      L1  H    17    37       P1  7921  1.00
      L1  H    20    41       P1  8028  2.00

> <Gold.PLP.Chemscore.Internal.Correction>
0.0228

> <Gold.Rescore>
     Score         DG    S(hbond)    S(metal)    S(lipo)     H(rot)  DE(clash)    DE(int)     intcor
     15.47     -19.84       2.86        0.00      80.84       1.82       1.47       2.90       ----

> <Gold.Chemscore.Fitness>
15.4692

> <Gold.Chemscore.DG>
-19.8413

> <Gold.Chemscore.ZeroCoef>
-5.4800

> <Gold.Chemscore.Hbond>
2.8628

> <Gold.Chemscore.Metal>
0.0000

> <Gold.Chemscore.Lipo>
80.8389

> <Gold.Chemscore.Internal_Hbond>
0.0000

> <Gold.Chemscore.DEClash>
1.4691

> <Gold.Chemscore.DEInternal>
2.9029

> <Gold.Chemscore.Rot>
1.8197

> <Gold.Chemscore.Internal.Correction>
   9.000000E+99

> <Gold.Chemscore.Hbonds>
donor molecule, donor type, donor heavy atom, donor atom, acceptor molecule, acceptor atom, score
      L1  H    11    32       P1  7948  0.95
      L1  H    17    37       P1  7921  0.96
      L1  H    20    41       P1  8028  0.99

> <Gold.Chemscore.Hbond.Weighted>
-9.5616

> <Gold.Chemscore.Metal.Weighted>
-0.0000

> <Gold.Chemscore.Lipo.Weighted>
-9.4582

> <Gold.Chemscore.Internal_Hbond.Weighted>
0.0000

> <Gold.Chemscore.DEClash.Weighted>
1.4691

> <Gold.Chemscore.DEInternal.Weighted>
2.9029

> <Gold.Chemscore.Rot.Weighted>
4.6585

> <Gold.Chemscore.Internal.Correction.Weighted>
   9.000000E+99

> <Gold.Protein.RotatedTorsions>
[ 6907 6896 6895 6894 ] final   26.38 input  -60.11 | X-H torsion
[ 7974 7965 7964 7962 ] final  -81.20 input  175.53 | X-H torsion
[ 8008 7997 7996 7995 ] final -173.16 input   59.86 | X-H torsion
[ 10167 10162 10161 10158 ] final   59.95 input  -65.29 | X-H torsion
[ 10718 10713 10712 10709 ] final -113.44 input   66.30 | X-H torsion
[ 10763 10752 10751 10750 ] final  -89.48 input  -60.55 | X-H torsion
[ 11005 11000 10999 10996 ] final   10.24 input  -57.11 | X-H torsion

> <Gold.Protein.ActiveResidues>
 VAL166  LYS551  ARG553  GLY616  TRP617  ASP618  TYR619  PRO620  LYS621  CYS622 
 ASP623  PHE694  ASN695  SER759  ASP760  ASP761  ALA762  ILE779  LEU786  VAL792 
 PHE793  MET794  SER795  GLU796  ALA797  LYS798  CYS799  TRP800  GLU811  SER814 

> <Gold.Protein.RotatedAtoms>
  151.9866  135.0001  160.0559 H   0  0  0  0  0  0  0  0  0  0  0  0  # atno 6907 bound_to 6896
  152.1647  133.4600  159.4887 H   0  0  0  0  0  0  0  0  0  0  0  0  # atno 6908 bound_to 6896
  150.6893  134.1945  159.4341 H   0  0  0  0  0  0  0  0  0  0  0  0  # atno 6909 bound_to 6896
  145.5498  140.9498  143.1505 H   0  0  0  0  0  0  0  0  0  0  0  0  # atno 7974 bound_to 7965
  155.9538  140.1131  157.0954 H   0  0  0  0  0  0  0  0  0  0  0  0  # atno 8008 bound_to 7997
  154.4116  140.1195  156.5154 H   0  0  0  0  0  0  0  0  0  0  0  0  # atno 8009 bound_to 7997
  155.6808  140.3473  155.4857 H   0  0  0  0  0  0  0  0  0  0  0  0  # atno 8010 bound_to 7997
  140.1709  144.4278  150.6662 H   0  0  0  0  0  0  0  0  0  0  0  0  # atno 10167 bound_to 10162
  156.0767  130.5973  150.8642 H   0  0  0  0  0  0  0  0  0  0  0  0  # atno 10718 bound_to 10713
  154.6557  135.5339  153.7956 H   0  0  0  0  0  0  0  0  0  0  0  0  # atno 10763 bound_to 10752
  153.0412  135.6493  154.0949 H   0  0  0  0  0  0  0  0  0  0  0  0  # atno 10764 bound_to 10752
  154.0862  135.2943  155.3260 H   0  0  0  0  0  0  0  0  0  0  0  0  # atno 10765 bound_to 10752
  140.5167  134.0599  155.7833 H   0  0  0  0  0  0  0  0  0  0  0  0  # atno 11005 bound_to 11000
  144.7535  139.7134  143.7263 LP  0  0  0  0  0  0  0  0  0  0  0  0  # atno 17320 bound_to 7965
  146.1924  139.5172  142.9796 LP  0  0  0  0  0  0  0  0  0  0  0  0  # atno 17321 bound_to 7965
  140.6583  143.2244  151.5917 LP  0  0  0  0  0  0  0  0  0  0  0  0  # atno 17342 bound_to 10162
  139.5338  144.2838  152.1208 LP  0  0  0  0  0  0  0  0  0  0  0  0  # atno 17343 bound_to 10162
  157.5865  131.0945  150.9188 LP  0  0  0  0  0  0  0  0  0  0  0  0  # atno 17370 bound_to 10713
  156.9372  130.5371  149.5279 LP  0  0  0  0  0  0  0  0  0  0  0  0  # atno 17371 bound_to 10713
  141.1356  133.9227  157.2440 LP  0  0  0  0  0  0  0  0  0  0  0  0  # atno 17394 bound_to 11000
  139.9628  135.0150  156.9308 LP  0  0  0  0  0  0  0  0  0  0  0  0  # atno 17395 bound_to 11000

$$$$
