AV-unprocessed.smi:3029|AV-procd|sdf|11528|dock3
  -GOLD-   2272016473D 1   1.00000     0.00000
 Structure written by MMmdl.
 42 43  0  0  0  0  0  0  0  0  4 V2000
  147.1225  140.8206  155.0127 O   0  0  0  0  0  0  0  0  0  0  0  0
  148.2596  140.4139  154.7737 C   0  0  0  0  0  0  0  0  0  0  0  0
  149.4440  140.9780  155.4291 C   0  0  0  0  0  0  0  0  0  0  0  0
  150.6865  140.5394  155.1457 C   0  0  0  0  0  0  0  0  0  0  0  0
  150.8899  139.4854  154.1703 C   0  0  0  0  0  0  0  0  0  0  0  0
  152.2195  139.0189  153.8445 N   0  3  0  0  0  0  0  0  0  0  0  0
  152.3455  138.0724  153.0733 O   0  0  0  0  0  0  0  0  0  0  0  0
  153.1823  139.5870  154.3493 O   0  5  0  0  0  0  0  0  0  0  0  0
  149.7990  138.9628  153.5761 C   0  0  0  0  0  0  0  0  0  0  0  0
  148.4978  139.4101  153.8763 N   0  0  0  0  0  0  0  0  0  0  0  0
  147.3884  138.7650  153.1615 C   0  0  0  0  0  0  0  0  0  0  0  0
  146.6653  137.7419  154.0521 C   0  0  0  0  0  0  0  0  0  0  0  0
  147.0715  136.3643  153.7049 N   0  3  0  0  0  0  0  0  0  0  0  0
  145.9804  135.4796  153.2338 C   0  0  1  0  0  0  0  0  0  0  0  0
  144.9803  136.2935  152.3806 C   0  0  0  0  0  0  0  0  0  0  0  0
  143.8544  135.4187  151.8163 C   0  0  0  0  0  0  0  0  0  0  0  0
  144.4286  134.2583  150.9981 C   0  0  0  0  0  0  0  0  0  0  0  0
  145.3977  133.4240  151.8456 C   0  0  0  0  0  0  0  0  0  0  0  0
  146.5508  134.2717  152.4337 C   0  0  2  0  0  0  0  0  0  0  0  0
  147.4956  133.3713  153.2708 C   0  0  0  0  0  0  0  0  0  0  0  0
  146.8357  132.8144  154.2864 F   0  0  0  0  0  0  0  0  0  0  0  0
  147.9981  132.4029  152.5047 F   0  0  0  0  0  0  0  0  0  0  0  0
  148.5218  134.0679  153.7586 F   0  0  0  0  0  0  0  0  0  0  0  0
  149.3155  141.7649  156.1581 H   0  0  0  0  0  0  0  0  0  0  0  0
  151.5282  140.9851  155.6551 H   0  0  0  0  0  0  0  0  0  0  0  0
  149.8443  138.1788  152.8336 H   0  0  0  0  0  0  0  0  0  0  0  0
  146.6779  139.5176  152.8159 H   0  0  0  0  0  0  0  0  0  0  0  0
  147.7514  138.2812  152.2524 H   0  0  0  0  0  0  0  0  0  0  0  0
  146.8984  137.9272  155.1015 H   0  0  0  0  0  0  0  0  0  0  0  0
  145.5872  137.8528  153.9366 H   0  0  0  0  0  0  0  0  0  0  0  0
  147.7969  136.3943  153.0029 H   0  0  0  0  0  0  0  0  0  0  0  0
  145.4563  135.0857  154.1060 H   0  0  0  0  0  0  0  0  0  0  0  0
  144.5351  137.0950  152.9698 H   0  0  0  0  0  0  0  0  0  0  0  0
  145.5074  136.7762  151.5562 H   0  0  0  0  0  0  0  0  0  0  0  0
  143.2453  135.0293  152.6332 H   0  0  0  0  0  0  0  0  0  0  0  0
  143.1911  136.0205  151.1944 H   0  0  0  0  0  0  0  0  0  0  0  0
  143.6193  133.6273  150.6289 H   0  0  0  0  0  0  0  0  0  0  0  0
  144.9456  134.6450  150.1189 H   0  0  0  0  0  0  0  0  0  0  0  0
  144.8445  132.9433  152.6534 H   0  0  0  0  0  0  0  0  0  0  0  0
  145.7987  132.6182  151.2301 H   0  0  0  0  0  0  0  0  0  0  0  0
  147.1271  134.6651  151.5946 H   0  0  0  0  0  0  0  0  0  0  0  0
  147.4560  135.9509  154.5428 H   0  0  0  0  0  0  0  0  0  0  0  0
  1  2  2  0  0  0  0
  2 10  1  0  0  0  0
  2  3  1  0  0  0  0
  3  4  2  0  0  0  0
  3 24  1  0  0  0  0
  4  5  1  0  0  0  0
  4 25  1  0  0  0  0
  5  6  1  0  0  0  0
  5  9  2  0  0  0  0
  6  7  2  0  0  0  0
  6  8  1  0  0  0  0
  9 10  1  0  0  0  0
  9 26  1  0  0  0  0
 10 11  1  0  0  0  0
 11 12  1  0  0  0  0
 11 27  1  0  0  0  0
 11 28  1  0  0  0  0
 12 13  1  0  0  0  0
 12 29  1  0  0  0  0
 12 30  1  0  0  0  0
 13 14  1  0  0  0  0
 13 31  1  0  0  0  0
 13 42  1  0  0  0  0
 14 19  1  0  0  0  0
 14 15  1  0  0  0  0
 14 32  1  0  0  0  0
 15 16  1  0  0  0  0
 15 33  1  0  0  0  0
 15 34  1  0  0  0  0
 16 17  1  0  0  0  0
 16 35  1  0  0  0  0
 16 36  1  0  0  0  0
 17 18  1  0  0  0  0
 17 37  1  0  0  0  0
 17 38  1  0  0  0  0
 18 19  1  0  0  0  0
 18 39  1  0  0  0  0
 18 40  1  0  0  0  0
 19 20  1  0  0  0  0
 19 41  1  0  0  0  0
 20 21  1  0  0  0  0
 20 22  1  0  0  0  0
 20 23  1  0  0  0  0
M  CHG  1   6   1
M  CHG  1   8  -1
M  CHG  1  13   1
M  END
> <s_m_source_file>
AV-unprocessed.smi

> <i_m_source_file_index>
3029

> <i_lp_mmshare_version>
43012

> <i_f3d_flags>
0

> <s_epik_input>
Tz1jMVtjSF1bY0hdYyhbTitdKD1PKVtPLV0pW2NIXW4xW0NIMl1bQ0gyXVtOSF1bQ0BASF0yW0NIMl1bQ0gyXVtDSDJdW0NIMl1bQ0BIXTJDKEYpKEYpRg==

> <s_epik_cmdline>
J2VwaWtfcHl0aG9uJywgJy1waCcsICc3LjAnLCAnLXRuJywgJzgnLCAnLW1hJywgJzIwMCcsICctbWV0YWxfYmluZGluZycsICctaW1hZScsICc8aW5maWxlLm1hZT4nLCAnLW9tYWUnLCAnPG91dGZpbGUubWFlPic=

> <r_lp_tautomer_probability>
1

> <r_epik_Ionization_Penalty>
0.037386

> <r_epik_Ionization_Penalty_Charging>
0.037386

> <r_epik_Ionization_Penalty_Neutral>
0

> <r_epik_State_Penalty>
0.0312892

> <r_epik_Charging_Adjusted_Penalty>
0.0686752

> <i_epik_Tot_Q>
1

> <i_epik_Tot_abs_Q>
3

> <r_epik_Metal_State_Penalty>
0.0312892

> <b_epik_Metal_Only>
0

> <s_lp_Force_Field>
OPLS_2005

> <r_lp_Energy>
31.4453

> <b_lp_Chiralities_Consistent>
1

> <s_lp_Variant>
AV-unprocessed.smi:3029-4

> <Gold.Version>
5.8.1

> <Gold.Id.Protein>
6NUR|6NUR_protein|mol2

> <Gold.PLP.Fitness>
48.8980

> <Gold.PLP.PLP>
-36.8562

> <Gold.PLP.part.hbond>
-3.0000

> <Gold.PLP.part.metal>
0.0000

> <Gold.PLP.part.buried>
-0.5264

> <Gold.PLP.part.nonpolar>
-33.3069

> <Gold.PLP.part.repulsive>
0.2379

> <Gold.PLP.ligand.clash>
0.0000

> <Gold.PLP.ligand.torsion>
1.1561

> <Gold.PLP.Chemscore.Hbond>
3.7200

> <Gold.PLP.Chemscore.CHOScore>
1.0284

> <Gold.PLP.Chemscore.Metal>
0.0000

> <Gold.Chemscore.Hbonds>
donor molecule, donor type, donor heavy atom, donor atom, acceptor molecule, acceptor atom, score
      L1  H    13    31       P1  7948  2.00
      P1  H  7997  8009       L1     8  0.93
      L1  C     9    26       P1  7948  1.00
      L1  C     9    26       P1  7957  0.13

> <Gold.PLP.Chemscore.Internal.Correction>
0.1087

> <Gold.Rescore>
     Score         DG    S(hbond)    S(metal)    S(lipo)     H(rot)  DE(clash)    DE(int)     intcor
     13.62     -17.36       2.60        0.00      68.92       1.90       1.38       2.37       ----

> <Gold.Chemscore.Fitness>
13.6222

> <Gold.Chemscore.DG>
-17.3647

> <Gold.Chemscore.ZeroCoef>
-5.4800

> <Gold.Chemscore.Hbond>
2.6031

> <Gold.Chemscore.Metal>
0.0000

> <Gold.Chemscore.Lipo>
68.9227

> <Gold.Chemscore.Internal_Hbond>
0.0000

> <Gold.Chemscore.DEClash>
1.3759

> <Gold.Chemscore.DEInternal>
2.3666

> <Gold.Chemscore.Rot>
1.9037

> <Gold.Chemscore.Internal.Correction>
   9.000000E+99

> <Gold.Chemscore.Hbonds>
donor molecule, donor type, donor heavy atom, donor atom, acceptor molecule, acceptor atom, score
      L1  H    13    31       P1  7948  1.00
      P1  H  7997  8009       L1     8  0.89

> <Gold.Chemscore.Hbond.Weighted>
-8.6943

> <Gold.Chemscore.Metal.Weighted>
-0.0000

> <Gold.Chemscore.Lipo.Weighted>
-8.0640

> <Gold.Chemscore.Internal_Hbond.Weighted>
0.0000

> <Gold.Chemscore.DEClash.Weighted>
1.3759

> <Gold.Chemscore.DEInternal.Weighted>
2.3666

> <Gold.Chemscore.Rot.Weighted>
4.8736

> <Gold.Chemscore.Internal.Correction.Weighted>
   9.000000E+99

> <Gold.Protein.RotatedTorsions>
[ 6907 6896 6895 6894 ] final  -36.77 input  -60.11 | X-H torsion
[ 7974 7965 7964 7962 ] final  -90.88 input  175.53 | X-H torsion
[ 8008 7997 7996 7995 ] final -131.19 input   59.86 | X-H torsion
[ 10167 10162 10161 10158 ] final   52.18 input  -65.29 | X-H torsion
[ 10718 10713 10712 10709 ] final   -1.45 input   66.30 | X-H torsion
[ 10763 10752 10751 10750 ] final  146.51 input  -60.55 | X-H torsion
[ 11005 11000 10999 10996 ] final  -34.50 input  -57.11 | X-H torsion

> <Gold.Protein.ActiveResidues>
 VAL166  LYS551  ARG553  GLY616  TRP617  ASP618  TYR619  PRO620  LYS621  CYS622 
 ASP623  PHE694  ASN695  SER759  ASP760  ASP761  ALA762  ILE779  LEU786  VAL792 
 PHE793  MET794  SER795  GLU796  ALA797  LYS798  CYS799  TRP800  GLU811  SER814 

> <Gold.Protein.RotatedAtoms>
  151.0230  134.9483  159.8069 H   0  0  0  0  0  0  0  0  0  0  0  0  # atno 6907 bound_to 6896
  152.5329  134.2879  159.9042 H   0  0  0  0  0  0  0  0  0  0  0  0  # atno 6908 bound_to 6896
  151.2886  133.4133  159.2665 H   0  0  0  0  0  0  0  0  0  0  0  0  # atno 6909 bound_to 6896
  145.4205  140.9551  143.2183 H   0  0  0  0  0  0  0  0  0  0  0  0  # atno 7974 bound_to 7965
  155.3083  140.0456  157.3033 H   0  0  0  0  0  0  0  0  0  0  0  0  # atno 8008 bound_to 7997
  154.5447  140.2299  155.8549 H   0  0  0  0  0  0  0  0  0  0  0  0  # atno 8009 bound_to 7997
  156.1913  140.3049  155.9345 H   0  0  0  0  0  0  0  0  0  0  0  0  # atno 8010 bound_to 7997
  140.2541  144.3447  150.6339 H   0  0  0  0  0  0  0  0  0  0  0  0  # atno 10167 bound_to 10162
  156.8055  130.5407  149.5716 H   0  0  0  0  0  0  0  0  0  0  0  0  # atno 10718 bound_to 10713
  154.0231  135.2904  155.3378 H   0  0  0  0  0  0  0  0  0  0  0  0  # atno 10763 bound_to 10752
  154.7034  135.5179  153.8563 H   0  0  0  0  0  0  0  0  0  0  0  0  # atno 10764 bound_to 10752
  153.0672  135.6635  154.0451 H   0  0  0  0  0  0  0  0  0  0  0  0  # atno 10765 bound_to 10752
  140.9721  133.7104  156.1541 H   0  0  0  0  0  0  0  0  0  0  0  0  # atno 11005 bound_to 11000
  144.8248  139.5728  143.6970 LP  0  0  0  0  0  0  0  0  0  0  0  0  # atno 17320 bound_to 7965
  146.2659  139.6518  142.9330 LP  0  0  0  0  0  0  0  0  0  0  0  0  # atno 17321 bound_to 7965
  140.6018  143.2167  151.7058 LP  0  0  0  0  0  0  0  0  0  0  0  0  # atno 17342 bound_to 10162
  139.5037  144.3781  152.0403 LP  0  0  0  0  0  0  0  0  0  0  0  0  # atno 17343 bound_to 10162
  156.1076  130.6016  150.9995 LP  0  0  0  0  0  0  0  0  0  0  0  0  # atno 17370 bound_to 10713
  157.6532  131.0893  150.8004 LP  0  0  0  0  0  0  0  0  0  0  0  0  # atno 17371 bound_to 10713
  140.7314  134.4251  157.5565 LP  0  0  0  0  0  0  0  0  0  0  0  0  # atno 17394 bound_to 11000
  139.8916  134.8775  156.2311 LP  0  0  0  0  0  0  0  0  0  0  0  0  # atno 17395 bound_to 11000

$$$$
