AV-unprocessed.smi:109|AV-procd|sdf|1058|dock10
  -GOLD-   2262018133D 1   1.00000     0.00000
 Structure written by MMmdl.
 58 61  0  0  0  0  0  0  0  0  1 V2000
  149.9809  140.0751  154.0085 O   0  0  0  0  0  0  0  0  0  0  0  0
  149.2325  140.8803  154.8935 C   0  0  0  0  0  0  0  0  0  0  0  0
  150.1625  141.8725  155.6101 C   0  0  0  0  0  0  0  0  0  0  0  0
  150.7999  141.2857  156.8893 C   0  0  1  0  0  0  0  0  0  0  0  0
  151.6248  140.1280  156.5442 N   0  0  0  0  0  0  0  0  0  0  0  0
  151.4291  138.9195  157.1170 C   0  0  0  0  0  0  0  0  0  0  0  0
  151.7335  138.6955  158.4224 N   0  0  0  0  0  0  0  0  0  0  0  0
  151.5229  137.4912  158.9625 C   0  0  0  0  0  0  0  0  0  0  0  0
  151.0243  136.3941  158.3875 N   0  0  0  0  0  0  0  0  0  0  0  0
  150.7171  136.6159  157.0767 C   0  0  0  0  0  0  0  0  0  0  0  0
  150.8890  137.8393  156.3728 C   0  0  0  0  0  0  0  0  0  0  0  0
  150.4631  137.6886  155.0594 N   0  0  0  0  0  0  0  0  0  0  0  0
  150.0600  136.4475  154.9978 C   0  0  0  0  0  0  0  0  0  0  0  0
  150.1878  135.7269  156.1676 N   0  0  0  0  0  0  0  0  0  0  0  0
  149.8239  134.3040  156.4584 C   0  0  1  0  0  0  0  0  0  0  0  0
  148.8213  133.9225  155.5612 O   0  0  0  0  0  0  0  0  0  0  0  0
  149.4102  133.1722  154.5087 C   0  0  2  0  0  0  0  0  0  0  0  0
  148.3738  132.4739  153.6027 C   0  0  0  0  0  0  0  0  0  0  0  0
  148.5059  132.7958  152.2342 O   0  0  0  0  0  0  0  0  0  0  0  0
  150.5143  132.3630  155.2019 C   0  0  2  0  0  0  0  0  0  0  0  0
  150.0033  131.2064  155.8417 O   0  0  0  0  0  0  0  0  0  0  0  0
  151.0450  133.3912  156.2044 C   0  0  2  0  0  0  0  0  0  0  0  0
  151.5567  132.8010  157.3846 O   0  0  0  0  0  0  0  0  0  0  0  0
  151.6110  142.3163  157.7231 C   0  0  0  0  0  0  0  0  0  0  0  0
  152.3017  141.6805  158.9495 C   0  0  0  0  0  0  0  0  0  0  0  0
  153.1754  142.7025  159.6955 C   0  0  0  0  0  0  0  0  0  0  0  0
  152.3573  143.9343  160.1131 C   0  0  0  0  0  0  0  0  0  0  0  0
  151.6642  144.5755  158.9009 C   0  0  0  0  0  0  0  0  0  0  0  0
  150.7911  143.5543  158.1531 C   0  0  0  0  0  0  0  0  0  0  0  0
  149.4561  134.3091  157.4853 H   0  0  0  0  0  0  0  0  0  0  0  0
  149.9131  133.9017  153.8708 H   0  0  0  0  0  0  0  0  0  0  0  0
  151.2850  132.0498  154.4967 H   0  0  0  0  0  0  0  0  0  0  0  0
  151.8384  133.9725  155.7314 H   0  0  0  0  0  0  0  0  0  0  0  0
  149.5964  140.1382  153.1475 H   0  0  0  0  0  0  0  0  0  0  0  0
  148.4661  141.4112  154.3285 H   0  0  0  0  0  0  0  0  0  0  0  0
  148.7224  140.2340  155.6082 H   0  0  0  0  0  0  0  0  0  0  0  0
  150.9404  142.2027  154.9205 H   0  0  0  0  0  0  0  0  0  0  0  0
  149.5799  142.7586  155.8581 H   0  0  0  0  0  0  0  0  0  0  0  0
  149.9736  140.9403  157.5120 H   0  0  0  0  0  0  0  0  0  0  0  0
  152.3328  140.2910  155.8429 H   0  0  0  0  0  0  0  0  0  0  0  0
  151.7915  137.3932  160.0039 H   0  0  0  0  0  0  0  0  0  0  0  0
  149.6562  136.0279  154.0882 H   0  0  0  0  0  0  0  0  0  0  0  0
  148.4497  131.3923  153.7173 H   0  0  0  0  0  0  0  0  0  0  0  0
  147.3675  132.7534  153.9157 H   0  0  0  0  0  0  0  0  0  0  0  0
  148.9932  132.1070  151.8082 H   0  0  0  0  0  0  0  0  0  0  0  0
  150.5237  130.4630  155.5771 H   0  0  0  0  0  0  0  0  0  0  0  0
  152.1364  132.0962  157.1385 H   0  0  0  0  0  0  0  0  0  0  0  0
  152.4171  142.6788  157.0835 H   0  0  0  0  0  0  0  0  0  0  0  0
  151.5617  141.2799  159.6417 H   0  0  0  0  0  0  0  0  0  0  0  0
  152.9183  140.8380  158.6345 H   0  0  0  0  0  0  0  0  0  0  0  0
  153.6221  142.2376  160.5749 H   0  0  0  0  0  0  0  0  0  0  0  0
  154.0027  143.0127  159.0560 H   0  0  0  0  0  0  0  0  0  0  0  0
  151.6086  143.6433  160.8511 H   0  0  0  0  0  0  0  0  0  0  0  0
  153.0049  144.6637  160.6006 H   0  0  0  0  0  0  0  0  0  0  0  0
  151.0533  145.4185  159.2252 H   0  0  0  0  0  0  0  0  0  0  0  0
  152.4153  144.9816  158.2223 H   0  0  0  0  0  0  0  0  0  0  0  0
  150.3424  144.0326  157.2820 H   0  0  0  0  0  0  0  0  0  0  0  0
  149.9674  143.2545  158.8011 H   0  0  0  0  0  0  0  0  0  0  0  0
  1  2  1  0  0  0  0
  1 34  1  0  0  0  0
  2  3  1  0  0  0  0
  2 35  1  0  0  0  0
  2 36  1  0  0  0  0
  3  4  1  0  0  0  0
  3 37  1  0  0  0  0
  3 38  1  0  0  0  0
  4  5  1  0  0  0  0
  4 24  1  0  0  0  0
  4 39  1  0  0  0  0
  5  6  1  0  0  0  0
  5 40  1  0  0  0  0
  6 11  1  0  0  0  0
  6  7  2  0  0  0  0
  7  8  1  0  0  0  0
  8  9  2  0  0  0  0
  8 41  1  0  0  0  0
  9 10  1  0  0  0  0
 10 14  1  0  0  0  0
 10 11  2  0  0  0  0
 11 12  1  0  0  0  0
 12 13  2  0  0  0  0
 13 14  1  0  0  0  0
 13 42  1  0  0  0  0
 14 15  1  0  0  0  0
 15 30  1  0  0  0  0
 15 22  1  0  0  0  0
 15 16  1  0  0  0  0
 16 17  1  0  0  0  0
 17 31  1  0  0  0  0
 17 18  1  0  0  0  0
 17 20  1  0  0  0  0
 18 19  1  0  0  0  0
 18 43  1  0  0  0  0
 18 44  1  0  0  0  0
 19 45  1  0  0  0  0
 20 32  1  0  0  0  0
 20 21  1  0  0  0  0
 20 22  1  0  0  0  0
 21 46  1  0  0  0  0
 22 33  1  0  0  0  0
 22 23  1  0  0  0  0
 23 47  1  0  0  0  0
 24 29  1  0  0  0  0
 24 25  1  0  0  0  0
 24 48  1  0  0  0  0
 25 26  1  0  0  0  0
 25 49  1  0  0  0  0
 25 50  1  0  0  0  0
 26 27  1  0  0  0  0
 26 51  1  0  0  0  0
 26 52  1  0  0  0  0
 27 28  1  0  0  0  0
 27 53  1  0  0  0  0
 27 54  1  0  0  0  0
 28 29  1  0  0  0  0
 28 55  1  0  0  0  0
 28 56  1  0  0  0  0
 29 57  1  0  0  0  0
 29 58  1  0  0  0  0
M  END
> <s_m_source_file>
AV-unprocessed.smi

> <i_m_source_file_index>
109

> <i_lp_mmshare_version>
43012

> <i_f3d_flags>
0

> <s_epik_input>
W0NIMl0xW0NIMl1bQ0gyXVtDSDJdW0NIMl1bQ0hdMVtDQEhdKFtDSDJdW0NIMl1bT0hdKVtOSF1jKG5bY0hdbjIpYyhjMjMpbltjSF1uM1tDQEBIXTRPW0NASF0oW0NIMl1bT0hdKVtDQEBIXShbT0hdKVtDQEhdNFtPSF0=

> <s_epik_cmdline>
J2VwaWtfcHl0aG9uJywgJy1waCcsICc3LjAnLCAnLXRuJywgJzgnLCAnLW1hJywgJzIwMCcsICctbWV0YWxfYmluZGluZycsICctaW1hZScsICc8aW5maWxlLm1hZT4nLCAnLW9tYWUnLCAnPG91dGZpbGUubWFlPic=

> <r_lp_tautomer_probability>
1

> <r_epik_Ionization_Penalty>
0.000793976

> <r_epik_Ionization_Penalty_Charging>
0

> <r_epik_Ionization_Penalty_Neutral>
0.000793976

> <r_epik_State_Penalty>
-0

> <r_epik_Charging_Adjusted_Penalty>
0

> <i_epik_Tot_Q>
0

> <i_epik_Tot_abs_Q>
0

> <r_epik_Metal_State_Penalty>
-0

> <b_epik_Metal_Only>
0

> <s_epik_Chemistry_Notes>
This compound contains an acetal/aminal-like group ( X-CH(R)-Y where X, Y are N, S, or O) that may be acid/base labile, releasing an aldehyde.

> <s_lp_Force_Field>
OPLS_2005

> <r_lp_Energy>
57.9674

> <b_lp_Chiralities_Consistent>
1

> <s_lp_Variant>
AV-unprocessed.smi:109-28

> <Gold.Version>
5.8.1

> <Gold.Id.Protein>
6NUR|6NUR_protein|mol2

> <Gold.PLP.Fitness>
58.3857

> <Gold.PLP.PLP>
-46.9869

> <Gold.PLP.part.hbond>
-5.0000

> <Gold.PLP.part.metal>
0.0000

> <Gold.PLP.part.buried>
-7.6206

> <Gold.PLP.part.nonpolar>
-34.9970

> <Gold.PLP.part.repulsive>
0.2915

> <Gold.PLP.ligand.clash>
0.0000

> <Gold.PLP.ligand.torsion>
2.3754

> <Gold.PLP.Chemscore.Hbond>
4.3120

> <Gold.PLP.Chemscore.CHOScore>
1.0000

> <Gold.PLP.Chemscore.Metal>
0.0000

> <Gold.Chemscore.Hbonds>
donor molecule, donor type, donor heavy atom, donor atom, acceptor molecule, acceptor atom, score
      L1  H     1    34       P1  7957  1.00
      L1  H    19    45       P1 10747  0.90
      P1  H  6896  6907       L1     9  0.70
      P1  H  6896  6909       L1    23  0.93
      P1  H  7989  7998       L1     1  0.57
      L1  C    13    42       P1  7948  1.00

> <Gold.PLP.Chemscore.Internal.Correction>
0.2136

> <Gold.Rescore>
     Score         DG    S(hbond)    S(metal)    S(lipo)     H(rot)  DE(clash)    DE(int)     intcor
     11.62     -15.64       3.34        0.00     111.25       5.47       0.07       3.95       ----

> <Gold.Chemscore.Fitness>
11.6249

> <Gold.Chemscore.DG>
-15.6428

> <Gold.Chemscore.ZeroCoef>
-5.4800

> <Gold.Chemscore.Hbond>
3.3353

> <Gold.Chemscore.Metal>
0.0000

> <Gold.Chemscore.Lipo>
111.2514

> <Gold.Chemscore.Internal_Hbond>
0.0000

> <Gold.Chemscore.DEClash>
0.0726

> <Gold.Chemscore.DEInternal>
3.9452

> <Gold.Chemscore.Rot>
5.4662

> <Gold.Chemscore.Internal.Correction>
   9.000000E+99

> <Gold.Chemscore.Hbonds>
donor molecule, donor type, donor heavy atom, donor atom, acceptor molecule, acceptor atom, score
      L1  H     1    34       P1  7957  0.95
      L1  H    19    45       P1 10747  0.77
      P1  H  6896  6907       L1     9  0.42
      P1  H  6896  6909       L1    23  0.88
      P1  H  7989  7998       L1     1  0.04

> <Gold.Chemscore.Hbond.Weighted>
-11.1398

> <Gold.Chemscore.Metal.Weighted>
-0.0000

> <Gold.Chemscore.Lipo.Weighted>
-13.0164

> <Gold.Chemscore.Internal_Hbond.Weighted>
0.0000

> <Gold.Chemscore.DEClash.Weighted>
0.0726

> <Gold.Chemscore.DEInternal.Weighted>
3.9452

> <Gold.Chemscore.Rot.Weighted>
13.9935

> <Gold.Chemscore.Internal.Correction.Weighted>
   9.000000E+99

> <Gold.Protein.RotatedTorsions>
[ 6907 6896 6895 6894 ] final  -38.68 input  -60.11 | X-H torsion
[ 7974 7965 7964 7962 ] final   48.98 input  175.53 | X-H torsion
[ 8008 7997 7996 7995 ] final  121.40 input   59.86 | X-H torsion
[ 10167 10162 10161 10158 ] final -108.42 input  -65.29 | X-H torsion
[ 10718 10713 10712 10709 ] final    8.85 input   66.30 | X-H torsion
[ 10763 10752 10751 10750 ] final  -30.85 input  -60.55 | X-H torsion
[ 11005 11000 10999 10996 ] final  107.74 input  -57.11 | X-H torsion

> <Gold.Protein.ActiveResidues>
 VAL166  LYS551  ARG553  GLY616  TRP617  ASP618  TYR619  PRO620  LYS621  CYS622 
 ASP623  PHE694  ASN695  SER759  ASP760  ASP761  ALA762  ILE779  LEU786  VAL792 
 PHE793  MET794  SER795  GLU796  ALA797  LYS798  CYS799  TRP800  GLU811  SER814 

> <Gold.Protein.RotatedAtoms>
  150.9995  134.9310  159.7945 H   0  0  0  0  0  0  0  0  0  0  0  0  # atno 6907 bound_to 6896
  152.5274  134.3173  159.9145 H   0  0  0  0  0  0  0  0  0  0  0  0  # atno 6908 bound_to 6896
  151.3179  133.4011  159.2686 H   0  0  0  0  0  0  0  0  0  0  0  0  # atno 6909 bound_to 6896
  146.0152  139.4588  142.9931 H   0  0  0  0  0  0  0  0  0  0  0  0  # atno 7974 bound_to 7965
  156.2685  140.2809  156.1303 H   0  0  0  0  0  0  0  0  0  0  0  0  # atno 8008 bound_to 7997
  155.1061  140.0390  157.2728 H   0  0  0  0  0  0  0  0  0  0  0  0  # atno 8009 bound_to 7997
  154.6778  140.2602  155.6946 H   0  0  0  0  0  0  0  0  0  0  0  0  # atno 8010 bound_to 7997
  140.1664  143.4079  152.1388 H   0  0  0  0  0  0  0  0  0  0  0  0  # atno 10167 bound_to 10162
  156.9577  130.5921  149.5660 H   0  0  0  0  0  0  0  0  0  0  0  0  # atno 10718 bound_to 10713
  153.7878  135.6900  153.4877 H   0  0  0  0  0  0  0  0  0  0  0  0  # atno 10763 bound_to 10752
  153.1769  135.4521  154.9976 H   0  0  0  0  0  0  0  0  0  0  0  0  # atno 10764 bound_to 10752
  154.8056  135.3355  154.7376 H   0  0  0  0  0  0  0  0  0  0  0  0  # atno 10765 bound_to 10752
  139.8833  134.9410  156.5865 H   0  0  0  0  0  0  0  0  0  0  0  0  # atno 11005 bound_to 11000
  145.7279  141.0052  143.1367 LP  0  0  0  0  0  0  0  0  0  0  0  0  # atno 17320 bound_to 7965
  144.6968  139.8949  143.7455 LP  0  0  0  0  0  0  0  0  0  0  0  0  # atno 17321 bound_to 7965
  139.5358  144.7207  151.4899 LP  0  0  0  0  0  0  0  0  0  0  0  0  # atno 17342 bound_to 10162
  140.6610  143.8497  150.6888 LP  0  0  0  0  0  0  0  0  0  0  0  0  # atno 17343 bound_to 10162
  156.0335  130.5425  150.8595 LP  0  0  0  0  0  0  0  0  0  0  0  0  # atno 17370 bound_to 10713
  157.5679  131.0946  150.9462 LP  0  0  0  0  0  0  0  0  0  0  0  0  # atno 17371 bound_to 10713
  140.7988  133.8522  155.8708 LP  0  0  0  0  0  0  0  0  0  0  0  0  # atno 17394 bound_to 11000
  140.9611  134.1654  157.4653 LP  0  0  0  0  0  0  0  0  0  0  0  0  # atno 17395 bound_to 11000

$$$$
