AV-unprocessed.smi:1929|AV-procd|sdf|7799|dock2
  -GOLD-   22720 9543D 1   1.00000     0.00000
 Structure written by MMmdl.
 42 43  0  0  0  0  0  0  0  0  1 V2000
  142.7434  136.7320  152.8316 C   0  0  0  0  0  0  0  0  0  0  0  0
  143.8811  137.5233  152.3893 N   0  0  0  0  0  0  0  0  0  0  0  0
  145.1182  137.4135  152.8948 C   0  0  0  0  0  0  0  0  0  0  0  0
  145.4137  136.6258  153.7935 O   0  0  0  0  0  0  0  0  0  0  0  0
  146.1926  138.3250  152.2899 C   0  0  0  0  0  0  0  0  0  0  0  0
  146.8109  139.2664  153.2516 N   0  0  0  0  0  0  0  0  0  0  0  0
  147.1654  140.5062  152.5533 C   0  0  0  0  0  0  0  0  0  0  0  0
  147.6879  141.5585  153.5469 C   0  0  0  0  0  0  0  0  0  0  0  0
  148.9119  141.0359  154.3112 C   0  0  0  0  0  0  0  0  0  0  0  0
  149.3188  142.0065  155.3231 N   0  0  0  0  0  0  0  0  0  0  0  0
  150.1912  141.7706  156.3137 C   0  0  0  0  0  0  0  0  0  0  0  0
  150.7481  140.6859  156.4815 O   0  0  0  0  0  0  0  0  0  0  0  0
  150.3492  142.8575  157.0893 N   0  0  0  0  0  0  0  0  0  0  0  0
  151.1872  143.0282  158.2251 C   0  0  0  0  0  0  0  0  0  0  0  0
  151.3126  144.3283  158.7573 C   0  0  0  0  0  0  0  0  0  0  0  0
  152.1500  144.5284  159.8728 C   0  0  0  0  0  0  0  0  0  0  0  0
  152.8526  143.5370  160.4602 N   0  0  0  0  0  0  0  0  0  0  0  0
  152.7425  142.2956  159.9415 C   0  0  0  0  0  0  0  0  0  0  0  0
  151.9331  141.9873  158.8295 C   0  0  0  0  0  0  0  0  0  0  0  0
  148.5573  139.6857  154.9553 C   0  0  0  0  0  0  0  0  0  0  0  0
  147.9946  138.7002  153.9155 C   0  0  0  0  0  0  0  0  0  0  0  0
  141.8573  137.0022  152.2575 H   0  0  0  0  0  0  0  0  0  0  0  0
  142.5337  136.9092  153.8871 H   0  0  0  0  0  0  0  0  0  0  0  0
  142.9317  135.6674  152.6872 H   0  0  0  0  0  0  0  0  0  0  0  0
  143.7204  138.1929  151.6507 H   0  0  0  0  0  0  0  0  0  0  0  0
  146.9689  137.7191  151.8180 H   0  0  0  0  0  0  0  0  0  0  0  0
  145.7138  138.8899  151.4889 H   0  0  0  0  0  0  0  0  0  0  0  0
  147.9137  140.3092  151.7833 H   0  0  0  0  0  0  0  0  0  0  0  0
  146.2875  140.9089  152.0464 H   0  0  0  0  0  0  0  0  0  0  0  0
  147.9445  142.4738  153.0125 H   0  0  0  0  0  0  0  0  0  0  0  0
  146.8929  141.8210  154.2468 H   0  0  0  0  0  0  0  0  0  0  0  0
  149.7267  140.8913  153.5989 H   0  0  0  0  0  0  0  0  0  0  0  0
  148.9020  142.9239  155.2644 H   0  0  0  0  0  0  0  0  0  0  0  0
  149.7603  143.6467  156.8676 H   0  0  0  0  0  0  0  0  0  0  0  0
  150.7747  145.1598  158.3257 H   0  0  0  0  0  0  0  0  0  0  0  0
  152.2595  145.5129  160.3034 H   0  0  0  0  0  0  0  0  0  0  0  0
  153.3231  141.5230  160.4235 H   0  0  0  0  0  0  0  0  0  0  0  0
  151.9129  140.9731  158.4619 H   0  0  0  0  0  0  0  0  0  0  0  0
  149.4389  139.2525  155.4292 H   0  0  0  0  0  0  0  0  0  0  0  0
  147.8219  139.8329  155.7480 H   0  0  0  0  0  0  0  0  0  0  0  0
  147.7463  137.7737  154.4329 H   0  0  0  0  0  0  0  0  0  0  0  0
  148.7582  138.4533  153.1760 H   0  0  0  0  0  0  0  0  0  0  0  0
  1  2  1  0  0  0  0
  1 22  1  0  0  0  0
  1 23  1  0  0  0  0
  1 24  1  0  0  0  0
  2  3  1  0  0  0  0
  2 25  1  0  0  0  0
  3  4  2  0  0  0  0
  3  5  1  0  0  0  0
  5  6  1  0  0  0  0
  5 26  1  0  0  0  0
  5 27  1  0  0  0  0
  6 21  1  0  0  0  0
  6  7  1  0  0  0  0
  7  8  1  0  0  0  0
  7 28  1  0  0  0  0
  7 29  1  0  0  0  0
  8  9  1  0  0  0  0
  8 30  1  0  0  0  0
  8 31  1  0  0  0  0
  9 10  1  0  0  0  0
  9 20  1  0  0  0  0
  9 32  1  0  0  0  0
 10 11  1  0  0  0  0
 10 33  1  0  0  0  0
 11 12  2  0  0  0  0
 11 13  1  0  0  0  0
 13 14  1  0  0  0  0
 13 34  1  0  0  0  0
 14 19  1  0  0  0  0
 14 15  2  0  0  0  0
 15 16  1  0  0  0  0
 15 35  1  0  0  0  0
 16 17  2  0  0  0  0
 16 36  1  0  0  0  0
 17 18  1  0  0  0  0
 18 19  2  0  0  0  0
 18 37  1  0  0  0  0
 19 38  1  0  0  0  0
 20 21  1  0  0  0  0
 20 39  1  0  0  0  0
 20 40  1  0  0  0  0
 21 41  1  0  0  0  0
 21 42  1  0  0  0  0
M  END
> <s_m_source_file>
AV-unprocessed.smi

> <i_m_source_file_index>
1929

> <i_lp_mmshare_version>
43012

> <i_f3d_flags>
0

> <s_epik_input>
W0NIM11bTkhdQyg9TylbQ0gyXU4xW0NIMl1bQ0gyXVtDSF0oW0NIMl1bQ0gyXTEpW05IXUMoPU8pW05IXWMyW2NIXVtjSF1uW2NIXVtjSF0y

> <s_epik_cmdline>
J2VwaWtfcHl0aG9uJywgJy1waCcsICc3LjAnLCAnLXRuJywgJzgnLCAnLW1hJywgJzIwMCcsICctbWV0YWxfYmluZGluZycsICctaW1hZScsICc8aW5maWxlLm1hZT4nLCAnLW9tYWUnLCAnPG91dGZpbGUubWFlPic=

> <r_epik_Ionization_Penalty>
0.286942

> <r_epik_Ionization_Penalty_Charging>
0

> <r_epik_Ionization_Penalty_Neutral>
0.286942

> <r_epik_State_Penalty>
0.264061

> <r_epik_Charging_Adjusted_Penalty>
0.264061

> <i_epik_Tot_Q>
0

> <i_epik_Tot_abs_Q>
0

> <r_epik_Metal_State_Penalty>
0.245324

> <b_epik_Metal_Only>
0

> <s_lp_Force_Field>
OPLS_2005

> <r_lp_Energy>
20.0656

> <b_lp_Chiralities_Consistent>
1

> <s_lp_Variant>
AV-unprocessed.smi:1929-1

> <Gold.Version>
5.8.1

> <Gold.Id.Protein>
6NUR|6NUR_protein|mol2

> <Gold.PLP.Fitness>
46.6077

> <Gold.PLP.PLP>
-38.8239

> <Gold.PLP.part.hbond>
-4.0000

> <Gold.PLP.part.metal>
0.0000

> <Gold.PLP.part.buried>
-4.8222

> <Gold.PLP.part.nonpolar>
-31.4197

> <Gold.PLP.part.repulsive>
0.5857

> <Gold.PLP.ligand.clash>
0.0000

> <Gold.PLP.ligand.torsion>
0.5600

> <Gold.PLP.Chemscore.Hbond>
2.9600

> <Gold.PLP.Chemscore.CHOScore>
0.0000

> <Gold.PLP.Chemscore.Metal>
0.0000

> <Gold.Chemscore.Hbonds>
donor molecule, donor type, donor heavy atom, donor atom, acceptor molecule, acceptor atom, score
      L1  H     2    25       P1 10171  0.96
      L1  H    10    33       P1  8028  1.00
      L1  H    13    34       P1  8028  1.00

> <Gold.PLP.Chemscore.Internal.Correction>
0.0238

> <Gold.Rescore>
     Score         DG    S(hbond)    S(metal)    S(lipo)     H(rot)  DE(clash)    DE(int)     intcor
     18.50     -22.87       2.92        0.00     101.71       1.66       1.58       2.79       ----

> <Gold.Chemscore.Fitness>
18.5019

> <Gold.Chemscore.DG>
-22.8733

> <Gold.Chemscore.ZeroCoef>
-5.4800

> <Gold.Chemscore.Hbond>
2.9188

> <Gold.Chemscore.Metal>
0.0000

> <Gold.Chemscore.Lipo>
101.7076

> <Gold.Chemscore.Internal_Hbond>
0.0000

> <Gold.Chemscore.DEClash>
1.5849

> <Gold.Chemscore.DEInternal>
2.7865

> <Gold.Chemscore.Rot>
1.6623

> <Gold.Chemscore.Internal.Correction>
   9.000000E+99

> <Gold.Chemscore.Hbonds>
donor molecule, donor type, donor heavy atom, donor atom, acceptor molecule, acceptor atom, score
      L1  H     2    25       P1 10171  0.88
      L1  H    10    33       P1  8028  0.97
      L1  H    13    34       P1  8028  0.95

> <Gold.Chemscore.Hbond.Weighted>
-9.7489

> <Gold.Chemscore.Metal.Weighted>
-0.0000

> <Gold.Chemscore.Lipo.Weighted>
-11.8998

> <Gold.Chemscore.Internal_Hbond.Weighted>
0.0000

> <Gold.Chemscore.DEClash.Weighted>
1.5849

> <Gold.Chemscore.DEInternal.Weighted>
2.7865

> <Gold.Chemscore.Rot.Weighted>
4.2554

> <Gold.Chemscore.Internal.Correction.Weighted>
   9.000000E+99

> <Gold.Protein.RotatedTorsions>
[ 6907 6896 6895 6894 ] final   94.42 input  -60.11 | X-H torsion
[ 7974 7965 7964 7962 ] final -158.91 input  175.53 | X-H torsion
[ 8008 7997 7996 7995 ] final  -94.80 input   59.86 | X-H torsion
[ 10167 10162 10161 10158 ] final   64.81 input  -65.29 | X-H torsion
[ 10718 10713 10712 10709 ] final  177.66 input   66.30 | X-H torsion
[ 10763 10752 10751 10750 ] final -101.39 input  -60.55 | X-H torsion
[ 11005 11000 10999 10996 ] final   58.13 input  -57.11 | X-H torsion

> <Gold.Protein.ActiveResidues>
 VAL166  LYS551  ARG553  GLY616  TRP617  ASP618  TYR619  PRO620  LYS621  CYS622 
 ASP623  PHE694  ASN695  SER759  ASP760  ASP761  ALA762  ILE779  LEU786  VAL792 
 PHE793  MET794  SER795  GLU796  ALA797  LYS798  CYS799  TRP800  GLU811  SER814 

> <Gold.Protein.RotatedAtoms>
  152.5449  134.1197  159.8393 H   0  0  0  0  0  0  0  0  0  0  0  0  # atno 6907 bound_to 6896
  151.1254  133.5067  159.2608 H   0  0  0  0  0  0  0  0  0  0  0  0  # atno 6908 bound_to 6896
  151.1733  135.0338  159.8815 H   0  0  0  0  0  0  0  0  0  0  0  0  # atno 6909 bound_to 6896
  144.7486  140.3761  143.6065 H   0  0  0  0  0  0  0  0  0  0  0  0  # atno 7974 bound_to 7965
  154.7531  140.0486  157.0910 H   0  0  0  0  0  0  0  0  0  0  0  0  # atno 8008 bound_to 7997
  155.0032  140.3127  155.4839 H   0  0  0  0  0  0  0  0  0  0  0  0  # atno 8009 bound_to 7997
  156.2889  140.2197  156.5143 H   0  0  0  0  0  0  0  0  0  0  0  0  # atno 8010 bound_to 7997
  140.1181  144.4756  150.6937 H   0  0  0  0  0  0  0  0  0  0  0  0  # atno 10167 bound_to 10162
  156.9021  130.9882  151.3034 H   0  0  0  0  0  0  0  0  0  0  0  0  # atno 10718 bound_to 10713
  154.7654  135.4899  153.9545 H   0  0  0  0  0  0  0  0  0  0  0  0  # atno 10763 bound_to 10752
  153.1302  135.6751  153.9199 H   0  0  0  0  0  0  0  0  0  0  0  0  # atno 10764 bound_to 10752
  153.8905  135.3121  155.3426 H   0  0  0  0  0  0  0  0  0  0  0  0  # atno 10765 bound_to 10752
  140.0400  134.5887  155.9394 H   0  0  0  0  0  0  0  0  0  0  0  0  # atno 11005 bound_to 11000
  145.7027  139.1665  143.2584 LP  0  0  0  0  0  0  0  0  0  0  0  0  # atno 17320 bound_to 7965
  146.1404  140.7065  142.9370 LP  0  0  0  0  0  0  0  0  0  0  0  0  # atno 17321 bound_to 7965
  140.6887  143.2364  151.5189 LP  0  0  0  0  0  0  0  0  0  0  0  0  # atno 17342 bound_to 10162
  139.5583  144.2220  152.1649 LP  0  0  0  0  0  0  0  0  0  0  0  0  # atno 17343 bound_to 10162
  157.6020  130.8519  149.8816 LP  0  0  0  0  0  0  0  0  0  0  0  0  # atno 17370 bound_to 10713
  156.0577  130.3705  150.1054 LP  0  0  0  0  0  0  0  0  0  0  0  0  # atno 17371 bound_to 10713
  141.1878  133.6561  156.5297 LP  0  0  0  0  0  0  0  0  0  0  0  0  # atno 17394 bound_to 11000
  140.4084  134.7294  157.4822 LP  0  0  0  0  0  0  0  0  0  0  0  0  # atno 17395 bound_to 11000

$$$$
