AV-unprocessed.smi:1605|AV-procd|sdf|6457|dock7
  -GOLD-   22720 7113D 1   1.00000     0.00000
 Structure written by MMmdl.
 52 54  0  0  0  0  0  0  0  0  3 V2000
  146.0636  133.4072  156.6062 C   0  0  0  0  0  0  0  0  0  0  0  0
  147.2718  133.2381  155.8810 O   0  0  0  0  0  0  0  0  0  0  0  0
  147.2145  133.6807  154.5296 C   0  0  2  0  0  0  0  0  0  0  0  0
  148.5887  133.4280  153.8906 C   0  0  0  0  0  0  0  0  0  0  0  0
  149.6746  134.3318  154.5011 C   0  0  0  0  0  0  0  0  0  0  0  0
  149.3065  135.7670  154.3940 N   0  3  2  0  0  0  0  0  0  0  0  0
  150.3955  136.6649  154.8584 C   0  0  0  0  0  0  0  0  0  0  0  0
  150.0028  138.1543  154.7922 C   0  0  2  0  0  0  0  0  0  0  0  0
  149.5938  138.4539  153.4718 O   0  0  0  0  0  0  0  0  0  0  0  0
  151.1749  139.0730  155.1893 C   0  0  0  0  0  0  0  0  0  0  0  0
  150.7344  140.4180  155.5896 N   0  0  0  0  0  0  0  0  0  0  0  0
  149.8717  141.2679  154.9682 C   0  0  0  0  0  0  0  0  0  0  0  0
  149.7853  142.3945  155.7278 N   0  3  0  0  0  0  0  0  0  0  0  0
  150.6018  142.2625  156.8529 C   0  0  0  0  0  0  0  0  0  0  0  0
  150.8459  143.1351  157.9066 C   0  0  0  0  0  0  0  0  0  0  0  0
  151.7390  142.6997  158.9113 C   0  0  0  0  0  0  0  0  0  0  0  0
  152.0287  143.6301  160.0770 C   0  0  0  0  0  0  0  0  0  0  0  0
  152.3537  141.4229  158.8378 C   0  0  0  0  0  0  0  0  0  0  0  0
  153.3065  140.9615  159.9275 C   0  0  0  0  0  0  0  0  0  0  0  0
  152.0958  140.5518  157.7551 C   0  0  0  0  0  0  0  0  0  0  0  0
  151.2123  140.9953  156.7733 C   0  0  0  0  0  0  0  0  0  0  0  0
  147.9981  136.0459  155.0442 C   0  0  0  0  0  0  0  0  0  0  0  0
  146.8798  135.1816  154.4374 C   0  0  0  0  0  0  0  0  0  0  0  0
  146.1871  133.0061  157.6120 H   0  0  0  0  0  0  0  0  0  0  0  0
  145.2405  132.8704  156.1334 H   0  0  0  0  0  0  0  0  0  0  0  0
  145.7890  134.4573  156.7013 H   0  0  0  0  0  0  0  0  0  0  0  0
  146.4692  133.0976  153.9859 H   0  0  0  0  0  0  0  0  0  0  0  0
  148.8667  132.3799  154.0058 H   0  0  0  0  0  0  0  0  0  0  0  0
  148.5285  133.6118  152.8171 H   0  0  0  0  0  0  0  0  0  0  0  0
  149.8384  134.0741  155.5487 H   0  0  0  0  0  0  0  0  0  0  0  0
  150.6165  134.1538  153.9807 H   0  0  0  0  0  0  0  0  0  0  0  0
  150.6808  136.3866  155.8743 H   0  0  0  0  0  0  0  0  0  0  0  0
  151.2863  136.5173  154.2450 H   0  0  0  0  0  0  0  0  0  0  0  0
  149.1662  138.3583  155.4599 H   0  0  0  0  0  0  0  0  0  0  0  0
  149.6495  137.6650  152.9536 H   0  0  0  0  0  0  0  0  0  0  0  0
  151.7063  138.6461  156.0409 H   0  0  0  0  0  0  0  0  0  0  0  0
  151.9071  139.1547  154.3859 H   0  0  0  0  0  0  0  0  0  0  0  0
  149.3494  141.0831  154.0406 H   0  0  0  0  0  0  0  0  0  0  0  0
  150.3733  144.1054  157.9570 H   0  0  0  0  0  0  0  0  0  0  0  0
  151.7025  143.1812  161.0153 H   0  0  0  0  0  0  0  0  0  0  0  0
  151.5110  144.5831  159.9652 H   0  0  0  0  0  0  0  0  0  0  0  0
  153.0964  143.8392  160.1461 H   0  0  0  0  0  0  0  0  0  0  0  0
  153.6724  139.9521  159.7369 H   0  0  0  0  0  0  0  0  0  0  0  0
  152.8061  140.9552  160.8962 H   0  0  0  0  0  0  0  0  0  0  0  0
  154.1709  141.6233  159.9870 H   0  0  0  0  0  0  0  0  0  0  0  0
  152.5706  139.5834  157.7001 H   0  0  0  0  0  0  0  0  0  0  0  0
  148.0752  135.8585  156.1164 H   0  0  0  0  0  0  0  0  0  0  0  0
  147.7329  137.0961  154.9286 H   0  0  0  0  0  0  0  0  0  0  0  0
  146.7458  135.4553  153.3901 H   0  0  0  0  0  0  0  0  0  0  0  0
  145.9305  135.4016  154.9246 H   0  0  0  0  0  0  0  0  0  0  0  0
  149.1933  135.9525  153.4072 H   0  0  0  0  0  0  0  0  0  0  0  0
  149.2086  143.1930  155.4946 H   0  0  0  0  0  0  0  0  0  0  0  0
  1  2  1  0  0  0  0
  1 24  1  0  0  0  0
  1 25  1  0  0  0  0
  1 26  1  0  0  0  0
  2  3  1  0  0  0  0
  3 23  1  0  0  0  0
  3  4  1  0  0  0  0
  3 27  1  0  0  0  0
  4  5  1  0  0  0  0
  4 28  1  0  0  0  0
  4 29  1  0  0  0  0
  5  6  1  0  0  0  0
  5 30  1  0  0  0  0
  5 31  1  0  0  0  0
  6  7  1  0  0  0  0
  6 22  1  0  0  0  0
  6 51  1  0  0  0  0
  7  8  1  0  0  0  0
  7 32  1  0  0  0  0
  7 33  1  0  0  0  0
  8  9  1  0  0  0  0
  8 10  1  0  0  0  0
  8 34  1  0  0  0  0
  9 35  1  0  0  0  0
 10 11  1  0  0  0  0
 10 36  1  0  0  0  0
 10 37  1  0  0  0  0
 11 21  1  0  0  0  0
 11 12  1  0  0  0  0
 12 13  2  0  0  0  0
 12 38  1  0  0  0  0
 13 14  1  0  0  0  0
 13 52  1  0  0  0  0
 14 21  2  0  0  0  0
 14 15  1  0  0  0  0
 15 16  2  0  0  0  0
 15 39  1  0  0  0  0
 16 17  1  0  0  0  0
 16 18  1  0  0  0  0
 17 40  1  0  0  0  0
 17 41  1  0  0  0  0
 17 42  1  0  0  0  0
 18 19  1  0  0  0  0
 18 20  2  0  0  0  0
 19 43  1  0  0  0  0
 19 44  1  0  0  0  0
 19 45  1  0  0  0  0
 20 21  1  0  0  0  0
 20 46  1  0  0  0  0
 22 23  1  0  0  0  0
 22 47  1  0  0  0  0
 22 48  1  0  0  0  0
 23 49  1  0  0  0  0
 23 50  1  0  0  0  0
M  CHG  1   6   1
M  CHG  1  13   1
M  END
> <s_m_source_file>
AV-unprocessed.smi

> <i_m_source_file_index>
1605

> <i_lp_mmshare_version>
43012

> <i_f3d_flags>
0

> <s_epik_input>
W0NIM11PW0NIXTFbQ0gyXVtDSDJdTihbQ0gyXVtDSDJdMSlbQ0gyXVtDQEhdKFtPSF0pW0NIMl1uKFtjSF1uMiljKGMyMylbY0hdYyhbQ0gzXSljKFtjSF0zKVtDSDNd

> <s_epik_cmdline>
J2VwaWtfcHl0aG9uJywgJy1waCcsICc3LjAnLCAnLXRuJywgJzgnLCAnLW1hJywgJzIwMCcsICctbWV0YWxfYmluZGluZycsICctaW1hZScsICc8aW5maWxlLm1hZT4nLCAnLW9tYWUnLCAnPG91dGZpbGUubWFlPic=

> <r_epik_Ionization_Penalty>
1.19848

> <r_epik_Ionization_Penalty_Charging>
1.19848

> <r_epik_Ionization_Penalty_Neutral>
1.67134e-06

> <r_epik_State_Penalty>
1.2782

> <r_epik_Charging_Adjusted_Penalty>
2.47668

> <i_epik_Tot_Q>
2

> <i_epik_Tot_abs_Q>
2

> <r_epik_Metal_State_Penalty>
5.29544

> <b_epik_Metal_Only>
0

> <s_lp_Force_Field>
OPLS_2005

> <r_lp_Energy>
31.9375

> <b_lp_Chiralities_Consistent>
1

> <s_lp_Variant>
AV-unprocessed.smi:1605-7

> <Gold.Version>
5.8.1

> <Gold.Id.Protein>
6NUR|6NUR_protein|mol2

> <Gold.PLP.Fitness>
56.5090

> <Gold.PLP.PLP>
-42.1163

> <Gold.PLP.part.hbond>
-4.0000

> <Gold.PLP.part.metal>
0.0000

> <Gold.PLP.part.buried>
-3.4199

> <Gold.PLP.part.nonpolar>
-34.7970

> <Gold.PLP.part.repulsive>
0.1771

> <Gold.PLP.ligand.clash>
0.0000

> <Gold.PLP.ligand.torsion>
0.3382

> <Gold.PLP.Chemscore.Hbond>
5.0000

> <Gold.PLP.Chemscore.CHOScore>
0.0000

> <Gold.PLP.Chemscore.Metal>
0.0000

> <Gold.Chemscore.Hbonds>
donor molecule, donor type, donor heavy atom, donor atom, acceptor molecule, acceptor atom, score
      L1  H     6    51       P1  7948  2.00
      L1  H     9    35       P1  7948  1.00
      L1  H    13    52       P1  8028  2.00

> <Gold.PLP.Chemscore.Internal.Correction>
0.0691

> <Gold.Rescore>
     Score         DG    S(hbond)    S(metal)    S(lipo)     H(rot)  DE(clash)    DE(int)     intcor
     21.32     -21.98       2.95        0.00     106.76       2.28       0.32       0.34       ----

> <Gold.Chemscore.Fitness>
21.3195

> <Gold.Chemscore.DG>
-21.9815

> <Gold.Chemscore.ZeroCoef>
-5.4800

> <Gold.Chemscore.Hbond>
2.9513

> <Gold.Chemscore.Metal>
0.0000

> <Gold.Chemscore.Lipo>
106.7620

> <Gold.Chemscore.Internal_Hbond>
0.0000

> <Gold.Chemscore.DEClash>
0.3219

> <Gold.Chemscore.DEInternal>
0.3401

> <Gold.Chemscore.Rot>
2.2839

> <Gold.Chemscore.Internal.Correction>
   9.000000E+99

> <Gold.Chemscore.Hbonds>
donor molecule, donor type, donor heavy atom, donor atom, acceptor molecule, acceptor atom, score
      L1  H     6    51       P1  7948  0.75
      L1  H     9    35       P1  7948  0.64
      L1  H    13    52       P1  8028  0.91

> <Gold.Chemscore.Hbond.Weighted>
-9.8572

> <Gold.Chemscore.Metal.Weighted>
-0.0000

> <Gold.Chemscore.Lipo.Weighted>
-12.4911

> <Gold.Chemscore.Internal_Hbond.Weighted>
0.0000

> <Gold.Chemscore.DEClash.Weighted>
0.3219

> <Gold.Chemscore.DEInternal.Weighted>
0.3401

> <Gold.Chemscore.Rot.Weighted>
5.8469

> <Gold.Chemscore.Internal.Correction.Weighted>
   9.000000E+99

> <Gold.Protein.RotatedTorsions>
[ 6907 6896 6895 6894 ] final  166.93 input  -60.11 | X-H torsion
[ 7974 7965 7964 7962 ] final  169.64 input  175.53 | X-H torsion
[ 8008 7997 7996 7995 ] final    9.01 input   59.86 | X-H torsion
[ 10167 10162 10161 10158 ] final  -72.66 input  -65.29 | X-H torsion
[ 10718 10713 10712 10709 ] final   48.62 input   66.30 | X-H torsion
[ 10763 10752 10751 10750 ] final  -38.05 input  -60.55 | X-H torsion
[ 11005 11000 10999 10996 ] final  -27.46 input  -57.11 | X-H torsion

> <Gold.Protein.ActiveResidues>
 VAL166  LYS551  ARG553  GLY616  TRP617  ASP618  TYR619  PRO620  LYS621  CYS622 
 ASP623  PHE694  ASN695  SER759  ASP760  ASP761  ALA762  ILE779  LEU786  VAL792 
 PHE793  MET794  SER795  GLU796  ALA797  LYS798  CYS799  TRP800  GLU811  SER814 

> <Gold.Protein.RotatedAtoms>
  151.8713  133.3476  159.3735 H   0  0  0  0  0  0  0  0  0  0  0  0  # atno 6907 bound_to 6896
  150.7152  134.5110  159.5616 H   0  0  0  0  0  0  0  0  0  0  0  0  # atno 6908 bound_to 6896
  152.2643  134.8001  160.0476 H   0  0  0  0  0  0  0  0  0  0  0  0  # atno 6909 bound_to 6896
  144.7349  139.9084  143.6413 H   0  0  0  0  0  0  0  0  0  0  0  0  # atno 7974 bound_to 7965
  154.7743  140.2807  155.6113 H   0  0  0  0  0  0  0  0  0  0  0  0  # atno 8008 bound_to 7997
  156.2939  140.2635  156.2481 H   0  0  0  0  0  0  0  0  0  0  0  0  # atno 8009 bound_to 7997
  154.9861  140.0374  157.2289 H   0  0  0  0  0  0  0  0  0  0  0  0  # atno 8010 bound_to 7997
  140.5174  143.2336  151.7489 H   0  0  0  0  0  0  0  0  0  0  0  0  # atno 10167 bound_to 10162
  157.4705  130.8252  149.7983 H   0  0  0  0  0  0  0  0  0  0  0  0  # atno 10718 bound_to 10713
  153.9065  135.6797  153.4753 H   0  0  0  0  0  0  0  0  0  0  0  0  # atno 10763 bound_to 10752
  153.1101  135.4787  154.9018 H   0  0  0  0  0  0  0  0  0  0  0  0  # atno 10764 bound_to 10752
  154.7549  135.3194  154.8444 H   0  0  0  0  0  0  0  0  0  0  0  0  # atno 10765 bound_to 10752
  140.9121  133.7454  156.0685 H   0  0  0  0  0  0  0  0  0  0  0  0  # atno 11005 bound_to 11000
  146.1019  139.4016  143.0341 LP  0  0  0  0  0  0  0  0  0  0  0  0  # atno 17320 bound_to 7965
  145.7566  140.9952  143.1222 LP  0  0  0  0  0  0  0  0  0  0  0  0  # atno 17321 bound_to 7965
  139.4913  144.4304  151.9878 LP  0  0  0  0  0  0  0  0  0  0  0  0  # atno 17342 bound_to 10162
  140.3399  144.3216  150.5969 LP  0  0  0  0  0  0  0  0  0  0  0  0  # atno 17343 bound_to 10162
  156.0071  130.3850  150.2393 LP  0  0  0  0  0  0  0  0  0  0  0  0  # atno 17370 bound_to 10713
  157.0575  131.0080  151.3233 LP  0  0  0  0  0  0  0  0  0  0  0  0  # atno 17371 bound_to 10713
  140.8097  134.3414  157.5415 LP  0  0  0  0  0  0  0  0  0  0  0  0  # atno 17394 bound_to 11000
  139.8759  134.9246  156.3355 LP  0  0  0  0  0  0  0  0  0  0  0  0  # atno 17395 bound_to 11000

$$$$
