AV-unprocessed.smi:1510|AV-procd|sdf|6095|dock5
  -GOLD-   22720 6223D 1   1.00000     0.00000
 Structure written by MMmdl.
 32 33  0  0  0  0  0  0  0  0  2 V2000
  151.7861  140.1631  155.2515 O   0  0  0  0  0  0  0  0  0  0  0  0
  151.6610  139.7691  156.4125 C   0  0  0  0  0  0  0  0  0  0  0  0
  151.9911  138.3207  156.8068 C   0  0  0  0  0  0  0  0  0  0  0  0
  153.0025  138.1973  157.8668 N   0  0  0  0  0  0  0  0  0  0  0  0
  154.2519  138.8941  157.5731 N   0  5  0  0  0  0  0  0  0  0  0  0
  155.2618  138.8549  158.4824 C   0  0  0  0  0  0  0  0  0  0  0  0
  156.3358  139.4266  158.3104 O   0  0  0  0  0  0  0  0  0  0  0  0
  155.0524  138.0976  159.7054 C   0  0  0  0  0  0  0  0  0  0  0  0
  153.8951  137.4491  159.9421 C   0  0  0  0  0  0  0  0  0  0  0  0
  152.7844  137.4672  158.9979 C   0  0  0  0  0  0  0  0  0  0  0  0
  151.7277  136.8698  159.2037 O   0  0  0  0  0  0  0  0  0  0  0  0
  151.2254  140.5550  157.4086 N   0  0  0  0  0  0  0  0  0  0  0  0
  150.8558  141.9587  157.2728 C   0  0  0  0  0  0  0  0  0  0  0  0
  151.8444  142.8787  158.0084 C   0  0  1  0  0  0  0  0  0  0  0  0
  151.5564  144.3701  157.8253 C   0  0  0  0  0  0  0  0  0  0  0  0
  152.0432  145.0044  159.1215 C   0  0  0  0  0  0  0  0  0  0  0  0
  152.4099  143.8130  160.0081 C   0  0  0  0  0  0  0  0  0  0  0  0
  151.7406  142.7120  159.4141 O   0  0  0  0  0  0  0  0  0  0  0  0
  151.0731  137.8209  157.1206 H   0  0  0  0  0  0  0  0  0  0  0  0
  152.3175  137.7932  155.9086 H   0  0  0  0  0  0  0  0  0  0  0  0
  155.8439  138.0519  160.4389 H   0  0  0  0  0  0  0  0  0  0  0  0
  153.7846  136.8968  160.8635 H   0  0  0  0  0  0  0  0  0  0  0  0
  151.1528  140.1515  158.3309 H   0  0  0  0  0  0  0  0  0  0  0  0
  150.8046  142.2266  156.2161 H   0  0  0  0  0  0  0  0  0  0  0  0
  149.8506  142.0892  157.6744 H   0  0  0  0  0  0  0  0  0  0  0  0
  152.8706  142.6661  157.7017 H   0  0  0  0  0  0  0  0  0  0  0  0
  152.0520  144.7787  156.9440 H   0  0  0  0  0  0  0  0  0  0  0  0
  150.4850  144.5436  157.7157 H   0  0  0  0  0  0  0  0  0  0  0  0
  152.9009  145.6592  158.9645 H   0  0  0  0  0  0  0  0  0  0  0  0
  151.2470  145.5971  159.5737 H   0  0  0  0  0  0  0  0  0  0  0  0
  153.4859  143.6336  159.9855 H   0  0  0  0  0  0  0  0  0  0  0  0
  152.1092  143.9515  161.0468 H   0  0  0  0  0  0  0  0  0  0  0  0
  1  2  2  0  0  0  0
  2  3  1  0  0  0  0
  2 12  1  0  0  0  0
  3 19  1  0  0  0  0
  3 20  1  0  0  0  0
  3  4  1  0  0  0  0
  4  5  1  0  0  0  0
  4 10  1  0  0  0  0
  5  6  1  0  0  0  0
  6  7  2  0  0  0  0
  6  8  1  0  0  0  0
  8 21  1  0  0  0  0
  8  9  2  0  0  0  0
  9 22  1  0  0  0  0
  9 10  1  0  0  0  0
 10 11  2  0  0  0  0
 12 13  1  0  0  0  0
 12 23  1  0  0  0  0
 13 14  1  0  0  0  0
 13 24  1  0  0  0  0
 13 25  1  0  0  0  0
 14 18  1  0  0  0  0
 14 15  1  0  0  0  0
 14 26  1  0  0  0  0
 15 16  1  0  0  0  0
 15 27  1  0  0  0  0
 15 28  1  0  0  0  0
 16 17  1  0  0  0  0
 16 29  1  0  0  0  0
 16 30  1  0  0  0  0
 17 18  1  0  0  0  0
 17 31  1  0  0  0  0
 17 32  1  0  0  0  0
M  CHG  1   5  -1
M  END
> <s_m_source_file>
AV-unprocessed.smi

> <i_m_source_file_index>
1510

> <i_lp_mmshare_version>
43012

> <i_f3d_flags>
0

> <s_epik_input>
TzFbQ0gyXVtDSDJdW0NIMl1bQ0BIXTFbQ0gyXVtOSF1DKD1PKVtDSDJdbjJbbkhdYyg9TylbY0hdW2NIXWMyPU8=

> <s_epik_cmdline>
J2VwaWtfcHl0aG9uJywgJy1waCcsICc3LjAnLCAnLXRuJywgJzgnLCAnLW1hJywgJzIwMCcsICctbWV0YWxfYmluZGluZycsICctaW1hZScsICc8aW5maWxlLm1hZT4nLCAnLW9tYWUnLCAnPG91dGZpbGUubWFlPic=

> <r_lp_tautomer_probability>
1

> <r_epik_Ionization_Penalty>
0.0970799

> <r_epik_Ionization_Penalty_Charging>
0.0970799

> <r_epik_Ionization_Penalty_Neutral>
2.6859e-08

> <r_epik_State_Penalty>
0.0341592

> <r_epik_Charging_Adjusted_Penalty>
0.131239

> <i_epik_Tot_Q>
-1

> <i_epik_Tot_abs_Q>
1

> <r_epik_Metal_State_Penalty>
0.0341592

> <b_epik_Metal_Only>
0

> <s_lp_Force_Field>
OPLS_2005

> <r_lp_Energy>
32.1041

> <b_lp_Chiralities_Consistent>
1

> <s_lp_Variant>
AV-unprocessed.smi:1510-2

> <Gold.Version>
5.8.1

> <Gold.Id.Protein>
6NUR|6NUR_protein|mol2

> <Gold.PLP.Fitness>
43.2192

> <Gold.PLP.PLP>
-31.8110

> <Gold.PLP.part.hbond>
-4.0000

> <Gold.PLP.part.metal>
0.0000

> <Gold.PLP.part.buried>
-4.6823

> <Gold.PLP.part.nonpolar>
-23.3694

> <Gold.PLP.part.repulsive>
0.0870

> <Gold.PLP.ligand.clash>
0.0000

> <Gold.PLP.ligand.torsion>
0.0968

> <Gold.PLP.Chemscore.Hbond>
3.8640

> <Gold.PLP.Chemscore.CHOScore>
0.0000

> <Gold.PLP.Chemscore.Metal>
0.0000

> <Gold.Chemscore.Hbonds>
donor molecule, donor type, donor heavy atom, donor atom, acceptor molecule, acceptor atom, score
      P1  H  6896  6908       L1    11  0.82
      P1  H  7989  7998       L1     1  0.88
      P1  H  7997  8009       L1     7  0.61
      P1  H  7997  8010       L1     5  0.80

> <Gold.PLP.Chemscore.Internal.Correction>
0.0099

> <Gold.Rescore>
     Score         DG    S(hbond)    S(metal)    S(lipo)     H(rot)  DE(clash)    DE(int)     intcor
     16.90     -17.33       2.65        0.00      70.35       2.05       0.29       0.14       ----

> <Gold.Chemscore.Fitness>
16.8980

> <Gold.Chemscore.DG>
-17.3331

> <Gold.Chemscore.ZeroCoef>
-5.4800

> <Gold.Chemscore.Hbond>
2.6531

> <Gold.Chemscore.Metal>
0.0000

> <Gold.Chemscore.Lipo>
70.3463

> <Gold.Chemscore.Internal_Hbond>
0.0000

> <Gold.Chemscore.DEClash>
0.2946

> <Gold.Chemscore.DEInternal>
0.1406

> <Gold.Chemscore.Rot>
2.0463

> <Gold.Chemscore.Internal.Correction>
   9.000000E+99

> <Gold.Chemscore.Hbonds>
donor molecule, donor type, donor heavy atom, donor atom, acceptor molecule, acceptor atom, score
      P1  H  6896  6908       L1    11  0.80
      P1  H  7989  7998       L1     1  0.86
      P1  H  7997  8009       L1     7  0.12
      P1  H  7997  8010       L1     5  0.30

> <Gold.Chemscore.Hbond.Weighted>
-8.8612

> <Gold.Chemscore.Metal.Weighted>
-0.0000

> <Gold.Chemscore.Lipo.Weighted>
-8.2305

> <Gold.Chemscore.Internal_Hbond.Weighted>
0.0000

> <Gold.Chemscore.DEClash.Weighted>
0.2946

> <Gold.Chemscore.DEInternal.Weighted>
0.1406

> <Gold.Chemscore.Rot.Weighted>
5.2386

> <Gold.Chemscore.Internal.Correction.Weighted>
   9.000000E+99

> <Gold.Protein.RotatedTorsions>
[ 6907 6896 6895 6894 ] final -144.79 input  -60.11 | X-H torsion
[ 7974 7965 7964 7962 ] final -114.14 input  175.53 | X-H torsion
[ 8008 7997 7996 7995 ] final   63.37 input   59.86 | X-H torsion
[ 10167 10162 10161 10158 ] final  129.01 input  -65.29 | X-H torsion
[ 10718 10713 10712 10709 ] final -123.94 input   66.30 | X-H torsion
[ 10763 10752 10751 10750 ] final   66.62 input  -60.55 | X-H torsion
[ 11005 11000 10999 10996 ] final  -35.68 input  -57.11 | X-H torsion

> <Gold.Protein.ActiveResidues>
 VAL166  LYS551  ARG553  GLY616  TRP617  ASP618  TYR619  PRO620  LYS621  CYS622 
 ASP623  PHE694  ASN695  SER759  ASP760  ASP761  ALA762  ILE779  LEU786  VAL792 
 PHE793  MET794  SER795  GLU796  ALA797  LYS798  CYS799  TRP800  GLU811  SER814 

> <Gold.Protein.RotatedAtoms>
  151.1188  133.5119  159.2602 H   0  0  0  0  0  0  0  0  0  0  0  0  # atno 6907 bound_to 6896
  151.1885  135.0391  159.8832 H   0  0  0  0  0  0  0  0  0  0  0  0  # atno 6908 bound_to 6896
  152.5454  134.1031  159.8380 H   0  0  0  0  0  0  0  0  0  0  0  0  # atno 6909 bound_to 6896
  145.1236  140.8684  143.3799 H   0  0  0  0  0  0  0  0  0  0  0  0  # atno 7974 bound_to 7965
  155.6292  140.3496  155.4677 H   0  0  0  0  0  0  0  0  0  0  0  0  # atno 8008 bound_to 7997
  156.0017  140.1214  157.0565 H   0  0  0  0  0  0  0  0  0  0  0  0  # atno 8009 bound_to 7997
  154.4251  140.1099  156.5692 H   0  0  0  0  0  0  0  0  0  0  0  0  # atno 8010 bound_to 7997
  139.5498  144.6804  151.4358 H   0  0  0  0  0  0  0  0  0  0  0  0  # atno 10167 bound_to 10162
  156.1545  130.6558  150.9961 H   0  0  0  0  0  0  0  0  0  0  0  0  # atno 10718 bound_to 10713
  153.0148  135.5314  154.6852 H   0  0  0  0  0  0  0  0  0  0  0  0  # atno 10763 bound_to 10752
  154.6001  135.2867  155.0546 H   0  0  0  0  0  0  0  0  0  0  0  0  # atno 10764 bound_to 10752
  154.1607  135.6548  153.5037 H   0  0  0  0  0  0  0  0  0  0  0  0  # atno 10765 bound_to 10752
  140.9815  133.7054  156.1692 H   0  0  0  0  0  0  0  0  0  0  0  0  # atno 11005 bound_to 11000
  145.0712  139.3030  143.5831 LP  0  0  0  0  0  0  0  0  0  0  0  0  # atno 17320 bound_to 7965
  146.3519  140.0188  142.8660 LP  0  0  0  0  0  0  0  0  0  0  0  0  # atno 17321 bound_to 7965
  140.6758  143.8193  150.7056 LP  0  0  0  0  0  0  0  0  0  0  0  0  # atno 17342 bound_to 10162
  140.1631  143.4258  152.2053 LP  0  0  0  0  0  0  0  0  0  0  0  0  # atno 17343 bound_to 10162
  157.6684  131.0867  150.7673 LP  0  0  0  0  0  0  0  0  0  0  0  0  # atno 17370 bound_to 10713
  156.7739  130.4838  149.5413 LP  0  0  0  0  0  0  0  0  0  0  0  0  # atno 17371 bound_to 10713
  140.7179  134.4390  157.5577 LP  0  0  0  0  0  0  0  0  0  0  0  0  # atno 17394 bound_to 11000
  139.8952  134.8688  156.2142 LP  0  0  0  0  0  0  0  0  0  0  0  0  # atno 17395 bound_to 11000

$$$$
