AV-unprocessed.smi:3231|AV-procd|sdf|12334|dock1
  -GOLD-   2272018183D 1   1.00000     0.00000
 Structure written by MMmdl.
 41 42  0  0  0  0  0  0  0  0  2 V2000
  149.7791  138.4197  153.4206 O   0  0  0  0  0  0  0  0  0  0  0  0
  148.7439  139.0220  154.1736 C   0  0  1  0  0  0  0  0  0  0  0  0
  149.2125  140.4178  154.6274 C   0  0  0  0  0  0  0  0  0  0  0  0
  149.9710  140.3681  155.8745 N   0  0  0  0  0  0  0  0  0  0  0  0
  150.4683  141.6702  156.3087 C   0  0  0  0  0  0  0  0  0  0  0  0
  151.1657  141.5820  157.6759 C   0  0  0  0  0  0  0  0  0  0  0  0
  151.6832  142.8663  158.1144 N   0  0  0  0  0  0  0  0  0  0  0  0
  151.6596  144.0715  157.4446 C   0  0  0  0  0  0  0  0  0  0  0  0
  152.2555  144.9973  158.2522 C   0  0  0  0  0  0  0  0  0  0  0  0
  152.6158  144.2534  159.4104 C   0  0  0  0  0  0  0  0  0  0  0  0
  152.2716  142.9785  159.3257 N   0  0  0  0  0  0  0  0  0  0  0  0
  147.4224  139.0400  153.3727 C   0  0  0  0  0  0  0  0  0  0  0  0
  146.9340  137.6803  153.0266 N   0  3  0  0  0  0  0  0  0  0  0  0
  146.4900  136.8881  154.2013 C   0  0  0  0  0  0  0  0  0  0  0  0
  146.0340  135.4859  153.7635 C   0  0  0  0  0  0  0  0  0  0  0  0
  144.9986  135.5992  152.7954 O   0  0  0  0  0  0  0  0  0  0  0  0
  145.4361  136.2800  151.6264 C   0  0  0  0  0  0  0  0  0  0  0  0
  145.8703  137.7090  151.9941 C   0  0  0  0  0  0  0  0  0  0  0  0
  149.9664  138.9596  152.6687 H   0  0  0  0  0  0  0  0  0  0  0  0
  148.6236  138.4250  155.0765 H   0  0  0  0  0  0  0  0  0  0  0  0
  149.8320  140.8578  153.8451 H   0  0  0  0  0  0  0  0  0  0  0  0
  148.3481  141.0740  154.7382 H   0  0  0  0  0  0  0  0  0  0  0  0
  149.3944  139.9657  156.6077 H   0  0  0  0  0  0  0  0  0  0  0  0
  151.1706  142.0587  155.5705 H   0  0  0  0  0  0  0  0  0  0  0  0
  149.6487  142.3879  156.3652 H   0  0  0  0  0  0  0  0  0  0  0  0
  150.4871  141.1873  158.4340 H   0  0  0  0  0  0  0  0  0  0  0  0
  152.0026  140.8854  157.6155 H   0  0  0  0  0  0  0  0  0  0  0  0
  151.2247  144.1689  156.4607 H   0  0  0  0  0  0  0  0  0  0  0  0
  152.4106  146.0461  158.0471 H   0  0  0  0  0  0  0  0  0  0  0  0
  153.1135  144.5996  160.3040 H   0  0  0  0  0  0  0  0  0  0  0  0
  146.6464  139.5664  153.9307 H   0  0  0  0  0  0  0  0  0  0  0  0
  147.5761  139.6109  152.4554 H   0  0  0  0  0  0  0  0  0  0  0  0
  147.2955  136.7904  154.9278 H   0  0  0  0  0  0  0  0  0  0  0  0
  145.6697  137.4044  154.7026 H   0  0  0  0  0  0  0  0  0  0  0  0
  146.8693  134.9134  153.3567 H   0  0  0  0  0  0  0  0  0  0  0  0
  145.6553  134.9299  154.6212 H   0  0  0  0  0  0  0  0  0  0  0  0
  146.2543  135.7325  151.1556 H   0  0  0  0  0  0  0  0  0  0  0  0
  144.6174  136.3091  150.9072 H   0  0  0  0  0  0  0  0  0  0  0  0
  145.0146  138.2759  152.3648 H   0  0  0  0  0  0  0  0  0  0  0  0
  146.2325  138.2206  151.1015 H   0  0  0  0  0  0  0  0  0  0  0  0
  147.7138  137.1901  152.6125 H   0  0  0  0  0  0  0  0  0  0  0  0
  1  2  1  0  0  0  0
  1 19  1  0  0  0  0
  2  3  1  0  0  0  0
  2 12  1  0  0  0  0
  2 20  1  0  0  0  0
  3  4  1  0  0  0  0
  3 21  1  0  0  0  0
  3 22  1  0  0  0  0
  4  5  1  0  0  0  0
  4 23  1  0  0  0  0
  5  6  1  0  0  0  0
  5 24  1  0  0  0  0
  5 25  1  0  0  0  0
  6  7  1  0  0  0  0
  6 26  1  0  0  0  0
  6 27  1  0  0  0  0
  7 11  1  0  0  0  0
  7  8  1  0  0  0  0
  8  9  2  0  0  0  0
  8 28  1  0  0  0  0
  9 10  1  0  0  0  0
  9 29  1  0  0  0  0
 10 11  2  0  0  0  0
 10 30  1  0  0  0  0
 12 13  1  0  0  0  0
 12 31  1  0  0  0  0
 12 32  1  0  0  0  0
 13 18  1  0  0  0  0
 13 14  1  0  0  0  0
 13 41  1  0  0  0  0
 14 15  1  0  0  0  0
 14 33  1  0  0  0  0
 14 34  1  0  0  0  0
 15 16  1  0  0  0  0
 15 35  1  0  0  0  0
 15 36  1  0  0  0  0
 16 17  1  0  0  0  0
 17 18  1  0  0  0  0
 17 37  1  0  0  0  0
 17 38  1  0  0  0  0
 18 39  1  0  0  0  0
 18 40  1  0  0  0  0
M  CHG  1  13   1
M  END
> <s_m_source_file>
AV-unprocessed.smi

> <i_m_source_file_index>
3231

> <i_lp_mmshare_version>
43012

> <i_f3d_flags>
0

> <s_epik_input>
W0NIMl0xW0NIMl1PW0NIMl1bQ0gyXU4xW0NIMl1bQ0BIXShbT0hdKVtDSDJdW05IXVtDSDJdW0NIMl1uMltjSF1bY0hdW2NIXW4y

> <s_epik_cmdline>
J2VwaWtfcHl0aG9uJywgJy1waCcsICc3LjAnLCAnLXRuJywgJzgnLCAnLW1hJywgJzIwMCcsICctbWV0YWxfYmluZGluZycsICctaW1hZScsICc8aW5maWxlLm1hZT4nLCAnLW9tYWUnLCAnPG91dGZpbGUubWFlPic=

> <r_epik_Ionization_Penalty>
0.33973

> <r_epik_Ionization_Penalty_Charging>
0.202493

> <r_epik_Ionization_Penalty_Neutral>
0.137237

> <r_epik_State_Penalty>
0.943915

> <r_epik_Charging_Adjusted_Penalty>
1.14641

> <i_epik_Tot_Q>
1

> <i_epik_Tot_abs_Q>
1

> <r_epik_Metal_State_Penalty>
0.94313

> <b_epik_Metal_Only>
0

> <s_lp_Force_Field>
OPLS_2005

> <r_lp_Energy>
28.856

> <b_lp_Chiralities_Consistent>
1

> <s_lp_Variant>
AV-unprocessed.smi:3231-4

> <Gold.Version>
5.8.1

> <Gold.Id.Protein>
6NUR|6NUR_protein|mol2

> <Gold.PLP.Fitness>
47.6192

> <Gold.PLP.PLP>
-36.2459

> <Gold.PLP.part.hbond>
-3.0000

> <Gold.PLP.part.metal>
0.0000

> <Gold.PLP.part.buried>
-2.0177

> <Gold.PLP.part.nonpolar>
-31.7740

> <Gold.PLP.part.repulsive>
0.1360

> <Gold.PLP.ligand.clash>
0.0000

> <Gold.PLP.ligand.torsion>
0.4195

> <Gold.PLP.Chemscore.Hbond>
3.0000

> <Gold.PLP.Chemscore.CHOScore>
1.0000

> <Gold.PLP.Chemscore.Metal>
0.0000

> <Gold.Chemscore.Hbonds>
donor molecule, donor type, donor heavy atom, donor atom, acceptor molecule, acceptor atom, score
      L1  H     1    19       P1  7957  1.00
      L1  H    13    41       P1  7948  2.00
      L1  C     8    28       P1  8028  1.00

> <Gold.PLP.Chemscore.Internal.Correction>
0.2123

> <Gold.Rescore>
     Score         DG    S(hbond)    S(metal)    S(lipo)     H(rot)  DE(clash)    DE(int)     intcor
     14.80     -15.28       1.92        0.00      91.12       2.84       0.10       0.39       ----

> <Gold.Chemscore.Fitness>
14.7967

> <Gold.Chemscore.DG>
-15.2807

> <Gold.Chemscore.ZeroCoef>
-5.4800

> <Gold.Chemscore.Hbond>
1.9189

> <Gold.Chemscore.Metal>
0.0000

> <Gold.Chemscore.Lipo>
91.1216

> <Gold.Chemscore.Internal_Hbond>
0.0000

> <Gold.Chemscore.DEClash>
0.0982

> <Gold.Chemscore.DEInternal>
0.3858

> <Gold.Chemscore.Rot>
2.8397

> <Gold.Chemscore.Internal.Correction>
   9.000000E+99

> <Gold.Chemscore.Hbonds>
donor molecule, donor type, donor heavy atom, donor atom, acceptor molecule, acceptor atom, score
      L1  H     1    19       P1  7957  0.69
      L1  H    13    41       P1  7948  1.00

> <Gold.Chemscore.Hbond.Weighted>
-6.4091

> <Gold.Chemscore.Metal.Weighted>
-0.0000

> <Gold.Chemscore.Lipo.Weighted>
-10.6612

> <Gold.Chemscore.Internal_Hbond.Weighted>
0.0000

> <Gold.Chemscore.DEClash.Weighted>
0.0982

> <Gold.Chemscore.DEInternal.Weighted>
0.3858

> <Gold.Chemscore.Rot.Weighted>
7.2696

> <Gold.Chemscore.Internal.Correction.Weighted>
   9.000000E+99

> <Gold.Protein.RotatedTorsions>
[ 6907 6896 6895 6894 ] final   38.70 input  -60.11 | X-H torsion
[ 7974 7965 7964 7962 ] final   11.72 input  175.53 | X-H torsion
[ 8008 7997 7996 7995 ] final   87.23 input   59.86 | X-H torsion
[ 10167 10162 10161 10158 ] final   45.59 input  -65.29 | X-H torsion
[ 10718 10713 10712 10709 ] final -142.89 input   66.30 | X-H torsion
[ 10763 10752 10751 10750 ] final   14.52 input  -60.55 | X-H torsion
[ 11005 11000 10999 10996 ] final   42.69 input  -57.11 | X-H torsion

> <Gold.Protein.ActiveResidues>
 VAL166  LYS551  ARG553  GLY616  TRP617  ASP618  TYR619  PRO620  LYS621  CYS622 
 ASP623  PHE694  ASN695  SER759  ASP760  ASP761  ALA762  ILE779  LEU786  VAL792 
 PHE793  MET794  SER795  GLU796  ALA797  LYS798  CYS799  TRP800  GLU811  SER814 

> <Gold.Protein.RotatedAtoms>
  152.1599  134.8920  160.0542 H   0  0  0  0  0  0  0  0  0  0  0  0  # atno 6907 bound_to 6896
  151.9920  133.3789  159.4156 H   0  0  0  0  0  0  0  0  0  0  0  0  # atno 6908 bound_to 6896
  150.6886  134.3849  159.5094 H   0  0  0  0  0  0  0  0  0  0  0  0  # atno 6909 bound_to 6896
  146.2365  139.9443  142.8479 H   0  0  0  0  0  0  0  0  0  0  0  0  # atno 7974 bound_to 7965
  155.9727  140.3384  155.6590 H   0  0  0  0  0  0  0  0  0  0  0  0  # atno 8008 bound_to 7997
  155.6653  140.0720  157.2558 H   0  0  0  0  0  0  0  0  0  0  0  0  # atno 8009 bound_to 7997
  154.4171  140.1701  156.1808 H   0  0  0  0  0  0  0  0  0  0  0  0  # atno 8010 bound_to 7997
  140.3226  144.2687  150.6180 H   0  0  0  0  0  0  0  0  0  0  0  0  # atno 10167 bound_to 10162
  156.3513  130.7689  151.1843 H   0  0  0  0  0  0  0  0  0  0  0  0  # atno 10718 bound_to 10713
  153.1614  135.6796  153.8737 H   0  0  0  0  0  0  0  0  0  0  0  0  # atno 10763 bound_to 10752
  153.8131  135.3140  155.3404 H   0  0  0  0  0  0  0  0  0  0  0  0  # atno 10764 bound_to 10752
  154.7935  135.4821  154.0196 H   0  0  0  0  0  0  0  0  0  0  0  0  # atno 10765 bound_to 10752
  140.1715  134.4216  155.8254 H   0  0  0  0  0  0  0  0  0  0  0  0  # atno 11005 bound_to 11000
  145.1922  140.9817  143.4204 LP  0  0  0  0  0  0  0  0  0  0  0  0  # atno 17320 bound_to 7965
  144.9847  139.3748  143.6244 LP  0  0  0  0  0  0  0  0  0  0  0  0  # atno 17321 bound_to 7965
  140.5470  143.2213  151.7991 LP  0  0  0  0  0  0  0  0  0  0  0  0  # atno 17342 bound_to 10162
  139.4871  144.4526  151.9636 LP  0  0  0  0  0  0  0  0  0  0  0  0  # atno 17343 bound_to 10162
  157.7461  131.0426  150.4705 LP  0  0  0  0  0  0  0  0  0  0  0  0  # atno 17370 bound_to 10713
  156.4901  130.4093  149.6411 LP  0  0  0  0  0  0  0  0  0  0  0  0  # atno 17371 bound_to 10713
  141.2217  133.6958  156.7772 LP  0  0  0  0  0  0  0  0  0  0  0  0  # atno 17394 bound_to 11000
  140.2372  134.8641  157.3536 LP  0  0  0  0  0  0  0  0  0  0  0  0  # atno 17395 bound_to 11000

$$$$
