AV-unprocessed.smi:1291|AV-procd|sdf|5391|dock2
  -GOLD-   22720 4543D 1   1.00000     0.00000
 Structure written by MMmdl.
 43 45  0  0  0  0  0  0  0  0  1 V2000
  151.2956  139.8476  154.3481 O   0  0  0  0  0  0  0  0  0  0  0  0
  150.8535  139.4088  155.6140 C   0  0  0  0  0  0  0  0  0  0  0  0
  151.1786  140.3823  156.7050 C   0  0  0  0  0  0  0  0  0  0  0  0
  150.8108  141.6622  156.6337 N   0  0  0  0  0  0  0  0  0  0  0  0
  151.3245  142.1925  157.8007 C   0  0  0  0  0  0  0  0  0  0  0  0
  151.2758  143.5100  158.3101 C   0  0  0  0  0  0  0  0  0  0  0  0
  151.8870  143.8218  159.5422 C   0  0  0  0  0  0  0  0  0  0  0  0
  152.5546  142.8236  160.2808 C   0  0  0  0  0  0  0  0  0  0  0  0
  152.6139  141.5044  159.7919 C   0  0  0  0  0  0  0  0  0  0  0  0
  152.0003  141.1976  158.5622 C   0  0  0  0  0  0  0  0  0  0  0  0
  151.8748  140.0298  157.8160 N   0  0  0  0  0  0  0  0  0  0  0  0
  152.4056  138.7242  158.1808 C   0  0  0  0  0  0  0  0  0  0  0  0
  151.4298  137.9249  159.0752 C   0  0  2  0  0  0  0  0  0  0  0  0
  152.1567  136.8937  159.7137 O   0  0  0  0  0  0  0  0  0  0  0  0
  150.2846  137.2881  158.2714 C   0  0  0  0  0  0  0  0  0  0  0  0
  149.7569  136.1886  159.0000 O   0  0  0  0  0  0  0  0  0  0  0  0
  148.6194  136.5153  159.7868 C   0  0  0  0  0  0  0  0  0  0  0  0
  147.9244  135.2946  160.3695 C   0  0  0  0  0  0  0  0  0  0  0  0
  148.0451  134.0489  159.7183 C   0  0  0  0  0  0  0  0  0  0  0  0
  147.4114  132.9072  160.2459 C   0  0  0  0  0  0  0  0  0  0  0  0
  146.6565  133.0053  161.4303 C   0  0  0  0  0  0  0  0  0  0  0  0
  146.5382  134.2449  162.0875 C   0  0  0  0  0  0  0  0  0  0  0  0
  147.1711  135.3883  161.5613 C   0  0  0  0  0  0  0  0  0  0  0  0
  147.0450  136.5737  162.2051 F   0  0  0  0  0  0  0  0  0  0  0  0
  151.1376  139.1602  153.7195 H   0  0  0  0  0  0  0  0  0  0  0  0
  149.7729  139.2672  155.5721 H   0  0  0  0  0  0  0  0  0  0  0  0
  151.2839  138.4326  155.8342 H   0  0  0  0  0  0  0  0  0  0  0  0
  150.7686  144.2822  157.7507 H   0  0  0  0  0  0  0  0  0  0  0  0
  151.8443  144.8321  159.9218 H   0  0  0  0  0  0  0  0  0  0  0  0
  153.0214  143.0712  161.2230 H   0  0  0  0  0  0  0  0  0  0  0  0
  153.1263  140.7393  160.3558 H   0  0  0  0  0  0  0  0  0  0  0  0
  152.6194  138.1795  157.2608 H   0  0  0  0  0  0  0  0  0  0  0  0
  153.3789  138.8547  158.6544 H   0  0  0  0  0  0  0  0  0  0  0  0
  151.0099  138.5758  159.8440 H   0  0  0  0  0  0  0  0  0  0  0  0
  152.4659  137.2157  160.5464 H   0  0  0  0  0  0  0  0  0  0  0  0
  149.4846  138.0182  158.1389 H   0  0  0  0  0  0  0  0  0  0  0  0
  150.6221  136.9938  157.2764 H   0  0  0  0  0  0  0  0  0  0  0  0
  148.9550  137.1359  160.6177 H   0  0  0  0  0  0  0  0  0  0  0  0
  147.9295  137.1301  159.2074 H   0  0  0  0  0  0  0  0  0  0  0  0
  148.6227  133.9686  158.8089 H   0  0  0  0  0  0  0  0  0  0  0  0
  147.5046  131.9565  159.7419 H   0  0  0  0  0  0  0  0  0  0  0  0
  146.1691  132.1305  161.8350 H   0  0  0  0  0  0  0  0  0  0  0  0
  145.9606  134.3197  162.9970 H   0  0  0  0  0  0  0  0  0  0  0  0
  1  2  1  0  0  0  0
  1 25  1  0  0  0  0
  2  3  1  0  0  0  0
  2 26  1  0  0  0  0
  2 27  1  0  0  0  0
  3 11  1  0  0  0  0
  3  4  2  0  0  0  0
  4  5  1  0  0  0  0
  5 10  2  0  0  0  0
  5  6  1  0  0  0  0
  6  7  2  0  0  0  0
  6 28  1  0  0  0  0
  7  8  1  0  0  0  0
  7 29  1  0  0  0  0
  8  9  2  0  0  0  0
  8 30  1  0  0  0  0
  9 10  1  0  0  0  0
  9 31  1  0  0  0  0
 10 11  1  0  0  0  0
 11 12  1  0  0  0  0
 12 13  1  0  0  0  0
 12 32  1  0  0  0  0
 12 33  1  0  0  0  0
 13 14  1  0  0  0  0
 13 15  1  0  0  0  0
 13 34  1  0  0  0  0
 14 35  1  0  0  0  0
 15 16  1  0  0  0  0
 15 36  1  0  0  0  0
 15 37  1  0  0  0  0
 16 17  1  0  0  0  0
 17 18  1  0  0  0  0
 17 38  1  0  0  0  0
 17 39  1  0  0  0  0
 18 23  1  0  0  0  0
 18 19  2  0  0  0  0
 19 20  1  0  0  0  0
 19 40  1  0  0  0  0
 20 21  2  0  0  0  0
 20 41  1  0  0  0  0
 21 22  1  0  0  0  0
 21 42  1  0  0  0  0
 22 23  2  0  0  0  0
 22 43  1  0  0  0  0
 23 24  1  0  0  0  0
M  END
> <s_m_source_file>
AV-unprocessed.smi

> <i_m_source_file_index>
1291

> <i_lp_mmshare_version>
43012

> <i_f3d_flags>
0

> <s_epik_input>
W2NIXTFbY0hdW2NIXVtjSF1jKGMxMiluKGMobjIpW0NIMl1bT0hdKVtDSDJdW0NASF0oW09IXSlbQ0gyXU9bQ0gyXWMzW2NIXVtjSF1bY0hdW2NIXWMzRg==

> <s_epik_cmdline>
J2VwaWtfcHl0aG9uJywgJy1waCcsICc3LjAnLCAnLXRuJywgJzgnLCAnLW1hJywgJzIwMCcsICctbWV0YWxfYmluZGluZycsICctaW1hZScsICc8aW5maWxlLm1hZT4nLCAnLW9tYWUnLCAnPG91dGZpbGUubWFlPic=

> <r_epik_Ionization_Penalty>
0.0649918

> <r_epik_Ionization_Penalty_Charging>
0

> <r_epik_Ionization_Penalty_Neutral>
0.0649918

> <r_epik_State_Penalty>
0.0565791

> <r_epik_Charging_Adjusted_Penalty>
0.0565791

> <i_epik_Tot_Q>
0

> <i_epik_Tot_abs_Q>
0

> <r_epik_Metal_State_Penalty>
5.93658e-05

> <b_epik_Metal_Only>
0

> <s_lp_Force_Field>
OPLS_2005

> <r_lp_Energy>
20.1032

> <b_lp_Chiralities_Consistent>
1

> <s_lp_Variant>
AV-unprocessed.smi:1291-1

> <Gold.Version>
5.8.1

> <Gold.Id.Protein>
6NUR|6NUR_protein|mol2

> <Gold.PLP.Fitness>
57.2762

> <Gold.PLP.PLP>
-53.8320

> <Gold.PLP.part.hbond>
-3.0000

> <Gold.PLP.part.metal>
0.0000

> <Gold.PLP.part.buried>
-5.0822

> <Gold.PLP.part.nonpolar>
-46.1287

> <Gold.PLP.part.repulsive>
0.0664

> <Gold.PLP.ligand.clash>
0.0000

> <Gold.PLP.ligand.torsion>
1.4053

> <Gold.PLP.Chemscore.Hbond>
2.0169

> <Gold.PLP.Chemscore.CHOScore>
0.0000

> <Gold.PLP.Chemscore.Metal>
0.0000

> <Gold.Chemscore.Hbonds>
donor molecule, donor type, donor heavy atom, donor atom, acceptor molecule, acceptor atom, score
      P1  H  6896  6907       L1    14  1.00
      P1  H  6896  6909       L1    16  0.13
      P1  H  7989  7998       L1     1  0.56

> <Gold.PLP.Chemscore.Internal.Correction>
0.2042

> <Gold.Rescore>
     Score         DG    S(hbond)    S(metal)    S(lipo)     H(rot)  DE(clash)    DE(int)     intcor
     17.44     -19.08       2.01        0.00     131.73       3.33       0.21       1.42       ----

> <Gold.Chemscore.Fitness>
17.4443

> <Gold.Chemscore.DG>
-19.0764

> <Gold.Chemscore.ZeroCoef>
-5.4800

> <Gold.Chemscore.Hbond>
2.0098

> <Gold.Chemscore.Metal>
0.0000

> <Gold.Chemscore.Lipo>
131.7311

> <Gold.Chemscore.Internal_Hbond>
0.0000

> <Gold.Chemscore.DEClash>
0.2092

> <Gold.Chemscore.DEInternal>
1.4229

> <Gold.Chemscore.Rot>
3.3316

> <Gold.Chemscore.Internal.Correction>
   9.000000E+99

> <Gold.Chemscore.Hbonds>
donor molecule, donor type, donor heavy atom, donor atom, acceptor molecule, acceptor atom, score
      P1  H  6896  6907       L1    14  0.40
      P1  H  6896  6909       L1    16  0.12
      P1  H  7989  7998       L1     1  0.13

> <Gold.Chemscore.Hbond.Weighted>
-6.7126

> <Gold.Chemscore.Metal.Weighted>
-0.0000

> <Gold.Chemscore.Lipo.Weighted>
-15.4125

> <Gold.Chemscore.Internal_Hbond.Weighted>
0.0000

> <Gold.Chemscore.DEClash.Weighted>
0.2092

> <Gold.Chemscore.DEInternal.Weighted>
1.4229

> <Gold.Chemscore.Rot.Weighted>
8.5288

> <Gold.Chemscore.Internal.Correction.Weighted>
   9.000000E+99

> <Gold.Protein.RotatedTorsions>
[ 6907 6896 6895 6894 ] final   20.00 input  -60.11 | X-H torsion
[ 7974 7965 7964 7962 ] final  109.74 input  175.53 | X-H torsion
[ 8008 7997 7996 7995 ] final -179.14 input   59.86 | X-H torsion
[ 10167 10162 10161 10158 ] final  162.33 input  -65.29 | X-H torsion
[ 10718 10713 10712 10709 ] final  -86.15 input   66.30 | X-H torsion
[ 10763 10752 10751 10750 ] final   31.52 input  -60.55 | X-H torsion
[ 11005 11000 10999 10996 ] final -103.48 input  -57.11 | X-H torsion

> <Gold.Protein.ActiveResidues>
 VAL166  LYS551  ARG553  GLY616  TRP617  ASP618  TYR619  PRO620  LYS621  CYS622 
 ASP623  PHE694  ASN695  SER759  ASP760  ASP761  ALA762  ILE779  LEU786  VAL792 
 PHE793  MET794  SER795  GLU796  ALA797  LYS798  CYS799  TRP800  GLU811  SER814 

> <Gold.Protein.RotatedAtoms>
  151.8896  135.0422  160.0496 H   0  0  0  0  0  0  0  0  0  0  0  0  # atno 6907 bound_to 6896
  152.2447  133.5160  159.5298 H   0  0  0  0  0  0  0  0  0  0  0  0  # atno 6908 bound_to 6896
  150.7064  134.0958  159.3990 H   0  0  0  0  0  0  0  0  0  0  0  0  # atno 6909 bound_to 6896
  145.2639  139.2692  143.4002 H   0  0  0  0  0  0  0  0  0  0  0  0  # atno 7974 bound_to 7965
  156.0270  140.1273  157.0298 H   0  0  0  0  0  0  0  0  0  0  0  0  # atno 8008 bound_to 7997
  154.4334  140.1057  156.6115 H   0  0  0  0  0  0  0  0  0  0  0  0  # atno 8009 bound_to 7997
  155.5862  140.3468  155.4556 H   0  0  0  0  0  0  0  0  0  0  0  0  # atno 8010 bound_to 7997
  139.4859  144.4448  151.8905 H   0  0  0  0  0  0  0  0  0  0  0  0  # atno 10167 bound_to 10162
  155.9991  130.4755  150.4670 H   0  0  0  0  0  0  0  0  0  0  0  0  # atno 10718 bound_to 10713
  153.0311  135.6437  154.1212 H   0  0  0  0  0  0  0  0  0  0  0  0  # atno 10763 bound_to 10752
  154.0934  135.2864  155.3268 H   0  0  0  0  0  0  0  0  0  0  0  0  # atno 10764 bound_to 10752
  154.6449  135.5447  153.7896 H   0  0  0  0  0  0  0  0  0  0  0  0  # atno 10765 bound_to 10752
  141.1144  133.8643  157.1491 H   0  0  0  0  0  0  0  0  0  0  0  0  # atno 11005 bound_to 11000
  146.3267  140.3063  142.8624 LP  0  0  0  0  0  0  0  0  0  0  0  0  # atno 17320 bound_to 7965
  144.9394  140.8062  143.5640 LP  0  0  0  0  0  0  0  0  0  0  0  0  # atno 17321 bound_to 7965
  140.3902  144.2625  150.5900 LP  0  0  0  0  0  0  0  0  0  0  0  0  # atno 17342 bound_to 10162
  140.5153  143.2280  151.8473 LP  0  0  0  0  0  0  0  0  0  0  0  0  # atno 17343 bound_to 10162
  157.2689  131.0583  151.2273 LP  0  0  0  0  0  0  0  0  0  0  0  0  # atno 17370 bound_to 10713
  157.3360  130.7009  149.6353 LP  0  0  0  0  0  0  0  0  0  0  0  0  # atno 17371 bound_to 10713
  140.0057  135.0009  157.0287 LP  0  0  0  0  0  0  0  0  0  0  0  0  # atno 17394 bound_to 11000
  140.4687  134.1409  155.7200 LP  0  0  0  0  0  0  0  0  0  0  0  0  # atno 17395 bound_to 11000

$$$$
