AV-unprocessed.smi:470|AV-procd|sdf|2656|dock3
  -GOLD-   2262023 63D 1   1.00000     0.00000
 Structure written by MMmdl.
 32 33  0  0  0  0  0  0  0  0  2 V2000
  149.9186  138.3267  153.4264 N   0  0  0  0  0  0  0  0  0  0  0  0
  150.7238  138.6590  154.4400 C   0  0  0  0  0  0  0  0  0  0  0  0
  151.0278  139.8257  154.6814 O   0  0  0  0  0  0  0  0  0  0  0  0
  151.2776  137.5192  155.2995 C   0  0  0  0  0  0  0  0  0  0  0  0
  150.1668  136.8261  156.0335 C   0  0  0  0  0  0  0  0  0  0  0  0
  149.0520  136.2448  155.4870 C   0  0  0  0  0  0  0  0  0  0  0  0
  148.0299  135.5411  156.7071 S   0  0  0  0  0  0  0  0  0  0  0  0
  149.1769  136.0501  157.9476 C   0  0  0  0  0  0  0  0  0  0  0  0
  149.0352  135.8331  159.2666 N   0  5  0  0  0  0  0  0  0  0  0  0
  148.1542  136.4942  160.0706 C   0  0  0  0  0  0  0  0  0  0  0  0
  147.4106  137.3957  159.6888 O   0  0  0  0  0  0  0  0  0  0  0  0
  148.0964  136.0619  161.5671 C   0  0  2  0  0  0  0  0  0  0  0  0
  147.7270  134.5656  161.7255 C   0  0  0  0  0  0  0  0  0  0  0  0
  146.2314  134.3059  161.6948 C   0  0  0  0  0  0  0  0  0  0  0  0
  145.3065  135.2588  161.8952 C   0  0  0  0  0  0  0  0  0  0  0  0
  145.6426  136.7129  162.1676 C   0  0  0  0  0  0  0  0  0  0  0  0
  147.1494  136.9415  162.4230 C   0  0  0  0  0  0  0  0  0  0  0  0
  150.2063  136.7276  157.4271 N   0  0  0  0  0  0  0  0  0  0  0  0
  149.5137  139.0479  152.8477 H   0  0  0  0  0  0  0  0  0  0  0  0
  149.7009  137.3546  153.2572 H   0  0  0  0  0  0  0  0  0  0  0  0
  151.8185  136.8206  154.6597 H   0  0  0  0  0  0  0  0  0  0  0  0
  152.0079  137.9199  156.0036 H   0  0  0  0  0  0  0  0  0  0  0  0
  148.7730  136.1846  154.4459 H   0  0  0  0  0  0  0  0  0  0  0  0
  149.0762  136.2063  162.0201 H   0  0  0  0  0  0  0  0  0  0  0  0
  148.1878  133.9692  160.9385 H   0  0  0  0  0  0  0  0  0  0  0  0
  148.1182  134.1816  162.6678 H   0  0  0  0  0  0  0  0  0  0  0  0
  145.9198  133.2863  161.5221 H   0  0  0  0  0  0  0  0  0  0  0  0
  144.2580  135.0032  161.8555 H   0  0  0  0  0  0  0  0  0  0  0  0
  145.3006  137.3040  161.3183 H   0  0  0  0  0  0  0  0  0  0  0  0
  145.0684  137.0556  163.0285 H   0  0  0  0  0  0  0  0  0  0  0  0
  147.3527  136.7251  163.4725 H   0  0  0  0  0  0  0  0  0  0  0  0
  147.3886  137.9976  162.2922 H   0  0  0  0  0  0  0  0  0  0  0  0
  1  2  1  0  0  0  0
  1 19  1  0  0  0  0
  1 20  1  0  0  0  0
  2  3  2  0  0  0  0
  2  4  1  0  0  0  0
  4  5  1  0  0  0  0
  4 21  1  0  0  0  0
  4 22  1  0  0  0  0
  5 18  1  0  0  0  0
  5  6  2  0  0  0  0
  6  7  1  0  0  0  0
  6 23  1  0  0  0  0
  7  8  1  0  0  0  0
  8  9  1  0  0  0  0
  8 18  2  0  0  0  0
  9 10  1  0  0  0  0
 10 11  2  0  0  0  0
 10 12  1  0  0  0  0
 12 17  1  0  0  0  0
 12 13  1  0  0  0  0
 12 24  1  0  0  0  0
 13 14  1  0  0  0  0
 13 25  1  0  0  0  0
 13 26  1  0  0  0  0
 14 15  2  0  0  0  0
 14 27  1  0  0  0  0
 15 16  1  0  0  0  0
 15 28  1  0  0  0  0
 16 17  1  0  0  0  0
 16 29  1  0  0  0  0
 16 30  1  0  0  0  0
 17 31  1  0  0  0  0
 17 32  1  0  0  0  0
M  CHG  1   9  -1
M  END
> <s_m_source_file>
AV-unprocessed.smi

> <i_m_source_file_index>
470

> <i_lp_mmshare_version>
43012

> <i_f3d_flags>
0

> <s_epik_input>
W05IMl1DKD1PKVtDSDJdYzFbY0hdc2MobjEpW05IXUMoPU8pW0NAQEhdMltDSDJdW0NIXT1bQ0hdW0NIMl1bQ0gyXTI=

> <s_epik_cmdline>
J2VwaWtfcHl0aG9uJywgJy1waCcsICc3LjAnLCAnLXRuJywgJzgnLCAnLW1hJywgJzIwMCcsICctbWV0YWxfYmluZGluZycsICctaW1hZScsICc8aW5maWxlLm1hZT4nLCAnLW9tYWUnLCAnPG91dGZpbGUubWFlPic=

> <r_lp_tautomer_probability>
1

> <r_epik_Ionization_Penalty>
4.98985

> <r_epik_Ionization_Penalty_Charging>
4.63309

> <r_epik_Ionization_Penalty_Neutral>
0.356756

> <r_epik_State_Penalty>
4.63286

> <r_epik_Charging_Adjusted_Penalty>
9.26595

> <i_epik_Tot_Q>
-1

> <i_epik_Tot_abs_Q>
1

> <r_epik_Metal_State_Penalty>
0.88943

> <b_epik_Metal_Only>
1

> <s_lp_Force_Field>
OPLS_2005

> <r_lp_Energy>
8.68427

> <b_lp_Chiralities_Consistent>
1

> <s_lp_Variant>
AV-unprocessed.smi:470-3

> <Gold.Version>
5.8.1

> <Gold.Id.Protein>
6NUR|6NUR_protein|mol2

> <Gold.PLP.Fitness>
48.1650

> <Gold.PLP.PLP>
-30.1638

> <Gold.PLP.part.hbond>
-5.0919

> <Gold.PLP.part.metal>
0.0000

> <Gold.PLP.part.buried>
-4.7012

> <Gold.PLP.part.nonpolar>
-19.4399

> <Gold.PLP.part.repulsive>
0.1485

> <Gold.PLP.ligand.clash>
0.0000

> <Gold.PLP.ligand.torsion>
0.7544

> <Gold.PLP.Chemscore.Hbond>
5.6080

> <Gold.PLP.Chemscore.CHOScore>
0.8765

> <Gold.PLP.Chemscore.Metal>
0.0000

> <Gold.Chemscore.Hbonds>
donor molecule, donor type, donor heavy atom, donor atom, acceptor molecule, acceptor atom, score
      L1  H     1    19       P1  7957  0.91
      L1  H     1    20       P1  7948  0.78
      P1  H  6896  6907       L1     9  1.82
      P1  H  6934  6947       L1    11  0.81
      P1  H  7989  7998       L1     3  1.00
      L1  C     6    23       P1  7948  0.88

> <Gold.PLP.Chemscore.Internal.Correction>
0.0567

> <Gold.Rescore>
     Score         DG    S(hbond)    S(metal)    S(lipo)     H(rot)  DE(clash)    DE(int)     intcor
     18.74     -20.44       3.79        0.00      60.45       1.87       0.09       1.61       ----

> <Gold.Chemscore.Fitness>
18.7387

> <Gold.Chemscore.DG>
-20.4412

> <Gold.Chemscore.ZeroCoef>
-5.4800

> <Gold.Chemscore.Hbond>
3.7944

> <Gold.Chemscore.Metal>
0.0000

> <Gold.Chemscore.Lipo>
60.4485

> <Gold.Chemscore.Internal_Hbond>
0.0000

> <Gold.Chemscore.DEClash>
0.0914

> <Gold.Chemscore.DEInternal>
1.6111

> <Gold.Chemscore.Rot>
1.8689

> <Gold.Chemscore.Internal.Correction>
   9.000000E+99

> <Gold.Chemscore.Hbonds>
donor molecule, donor type, donor heavy atom, donor atom, acceptor molecule, acceptor atom, score
      L1  H     1    19       P1  7957  0.87
      L1  H     1    20       P1  7948  0.51
      P1  H  6896  6907       L1     9  0.27
      P1  H  6934  6947       L1    11  0.74
      P1  H  7989  7998       L1     3  0.99

> <Gold.Chemscore.Hbond.Weighted>
-12.6732

> <Gold.Chemscore.Metal.Weighted>
-0.0000

> <Gold.Chemscore.Lipo.Weighted>
-7.0725

> <Gold.Chemscore.Internal_Hbond.Weighted>
0.0000

> <Gold.Chemscore.DEClash.Weighted>
0.0914

> <Gold.Chemscore.DEInternal.Weighted>
1.6111

> <Gold.Chemscore.Rot.Weighted>
4.7844

> <Gold.Chemscore.Internal.Correction.Weighted>
   9.000000E+99

> <Gold.Protein.RotatedTorsions>
[ 6907 6896 6895 6894 ] final  -55.37 input  -60.11 | X-H torsion
[ 7974 7965 7964 7962 ] final  118.46 input  175.53 | X-H torsion
[ 8008 7997 7996 7995 ] final -141.30 input   59.86 | X-H torsion
[ 10167 10162 10161 10158 ] final  103.72 input  -65.29 | X-H torsion
[ 10718 10713 10712 10709 ] final   30.76 input   66.30 | X-H torsion
[ 10763 10752 10751 10750 ] final  -87.23 input  -60.55 | X-H torsion
[ 11005 11000 10999 10996 ] final -123.99 input  -57.11 | X-H torsion

> <Gold.Protein.ActiveResidues>
 VAL166  LYS551  ARG553  GLY616  TRP617  ASP618  TYR619  PRO620  LYS621  CYS622 
 ASP623  PHE694  ASN695  SER759  ASP760  ASP761  ALA762  ILE779  LEU786  VAL792 
 PHE793  MET794  SER795  GLU796  ALA797  LYS798  CYS799  TRP800  GLU811  SER814 

> <Gold.Protein.RotatedAtoms>
  150.8257  134.7487  159.6810 H   0  0  0  0  0  0  0  0  0  0  0  0  # atno 6907 bound_to 6896
  152.4368  134.5667  159.9919 H   0  0  0  0  0  0  0  0  0  0  0  0  # atno 6908 bound_to 6896
  151.5840  133.3337  159.3050 H   0  0  0  0  0  0  0  0  0  0  0  0  # atno 6909 bound_to 6896
  145.1549  139.3189  143.4547 H   0  0  0  0  0  0  0  0  0  0  0  0  # atno 7974 bound_to 7965
  155.4756  140.0556  157.2974 H   0  0  0  0  0  0  0  0  0  0  0  0  # atno 8008 bound_to 7997
  154.4681  140.2027  156.0019 H   0  0  0  0  0  0  0  0  0  0  0  0  # atno 8009 bound_to 7997
  156.1009  140.3219  155.7945 H   0  0  0  0  0  0  0  0  0  0  0  0  # atno 8010 bound_to 7997
  139.7239  144.7052  151.0829 H   0  0  0  0  0  0  0  0  0  0  0  0  # atno 10167 bound_to 10162
  157.2638  130.7174  149.6468 H   0  0  0  0  0  0  0  0  0  0  0  0  # atno 10718 bound_to 10713
  154.6313  135.5420  153.7684 H   0  0  0  0  0  0  0  0  0  0  0  0  # atno 10763 bound_to 10752
  153.0286  135.6436  154.1296 H   0  0  0  0  0  0  0  0  0  0  0  0  # atno 10764 bound_to 10752
  154.1226  135.2919  155.3184 H   0  0  0  0  0  0  0  0  0  0  0  0  # atno 10765 bound_to 10752
  140.9876  134.0584  157.3692 H   0  0  0  0  0  0  0  0  0  0  0  0  # atno 11005 bound_to 11000
  146.3490  140.1637  142.8590 LP  0  0  0  0  0  0  0  0  0  0  0  0  # atno 17320 bound_to 7965
  145.0392  140.8932  143.5063 LP  0  0  0  0  0  0  0  0  0  0  0  0  # atno 17321 bound_to 7965
  140.7759  143.5130  150.9629 LP  0  0  0  0  0  0  0  0  0  0  0  0  # atno 17342 bound_to 10162
  139.8818  143.7063  152.3156 LP  0  0  0  0  0  0  0  0  0  0  0  0  # atno 17343 bound_to 10162
  155.9663  130.4389  150.5237 LP  0  0  0  0  0  0  0  0  0  0  0  0  # atno 17370 bound_to 10713
  157.3147  131.0670  151.1976 LP  0  0  0  0  0  0  0  0  0  0  0  0  # atno 17371 bound_to 10713
  139.8977  135.0152  156.7116 LP  0  0  0  0  0  0  0  0  0  0  0  0  # atno 17394 bound_to 11000
  140.7090  133.9240  155.8072 LP  0  0  0  0  0  0  0  0  0  0  0  0  # atno 17395 bound_to 11000

$$$$
