AV-unprocessed.smi:243|AV-procd|sdf|1862|dock3
  -GOLD-   2262020493D 1   1.00000     0.00000
 Structure written by MMmdl.
 58 61  0  0  0  0  0  0  0  0  2 V2000
  146.5399  128.8983  151.3710 C   0  0  0  0  0  0  0  0  0  0  0  0
  146.5524  130.0788  152.3534 C   0  0  0  0  0  0  0  0  0  0  0  0
  146.5031  131.3953  151.6677 N   0  3  2  0  0  0  0  0  0  0  0  0
  146.7634  132.5370  152.5801 C   0  0  0  0  0  0  0  0  0  0  0  0
  146.8150  133.8729  151.8136 C   0  0  0  0  0  0  0  0  0  0  0  0
  145.5751  134.1443  150.9324 C   0  0  2  0  0  0  0  0  0  0  0  0
  144.4474  134.7786  151.6420 N   0  0  0  0  0  0  0  0  0  0  0  0
  143.2608  133.9928  151.9654 C   0  0  0  0  0  0  0  0  0  0  0  0
  144.6472  135.8289  152.4698 C   0  0  0  0  0  0  0  0  0  0  0  0
  144.0041  135.8671  153.6650 N   0  0  0  0  0  0  0  0  0  0  0  0
  144.1931  136.8981  154.4939 C   0  0  0  0  0  0  0  0  0  0  0  0
  144.9590  137.9775  154.3215 N   0  0  0  0  0  0  0  0  0  0  0  0
  145.5789  137.9576  153.1068 C   0  0  0  0  0  0  0  0  0  0  0  0
  145.4733  136.9325  152.1257 C   0  0  0  0  0  0  0  0  0  0  0  0
  146.2423  137.2555  151.0153 N   0  0  0  0  0  0  0  0  0  0  0  0
  146.7819  138.4023  151.3264 C   0  0  0  0  0  0  0  0  0  0  0  0
  146.4342  138.8995  152.5624 N   0  0  0  0  0  0  0  0  0  0  0  0
  146.8851  140.1474  153.1591 C   0  0  0  0  0  0  0  0  0  0  0  0
  147.9085  139.9501  154.3013 C   0  0  2  0  0  0  0  0  0  0  0  0
  147.2736  139.2922  155.3837 O   0  0  0  0  0  0  0  0  0  0  0  0
  148.5258  141.2472  154.8182 C   0  0  0  0  0  0  0  0  0  0  0  0
  149.9313  140.8202  155.2174 C   0  0  0  0  0  0  0  0  0  0  0  0
  150.2802  139.9138  154.1858 O   0  0  0  0  0  0  0  0  0  0  0  0
  149.1380  139.1209  153.8791 C   0  0  0  0  0  0  0  0  0  0  0  0
  145.2540  132.8817  150.0816 C   0  0  2  0  0  0  0  0  0  0  0  0
  144.0173  133.0015  149.1768 C   0  0  0  0  0  0  0  0  0  0  0  0
  145.2402  131.5788  150.9090 C   0  0  0  0  0  0  0  0  0  0  0  0
  146.4777  127.9531  151.9108 H   0  0  0  0  0  0  0  0  0  0  0  0
  147.4422  128.8603  150.7615 H   0  0  0  0  0  0  0  0  0  0  0  0
  145.6810  128.9519  150.7013 H   0  0  0  0  0  0  0  0  0  0  0  0
  145.6796  129.9784  152.9999 H   0  0  0  0  0  0  0  0  0  0  0  0
  147.4253  130.0286  153.0061 H   0  0  0  0  0  0  0  0  0  0  0  0
  146.0042  132.5507  153.3595 H   0  0  0  0  0  0  0  0  0  0  0  0
  147.7165  132.4002  153.0890 H   0  0  0  0  0  0  0  0  0  0  0  0
  146.9923  134.7038  152.4958 H   0  0  0  0  0  0  0  0  0  0  0  0
  147.6904  133.8459  151.1633 H   0  0  0  0  0  0  0  0  0  0  0  0
  145.8913  134.9104  150.2234 H   0  0  0  0  0  0  0  0  0  0  0  0
  143.2988  133.5959  152.9796 H   0  0  0  0  0  0  0  0  0  0  0  0
  143.1462  133.1542  151.2787 H   0  0  0  0  0  0  0  0  0  0  0  0
  142.3679  134.6134  151.8810 H   0  0  0  0  0  0  0  0  0  0  0  0
  143.6539  136.8520  155.4286 H   0  0  0  0  0  0  0  0  0  0  0  0
  147.4516  138.9212  150.6560 H   0  0  0  0  0  0  0  0  0  0  0  0
  147.3108  140.7726  152.3730 H   0  0  0  0  0  0  0  0  0  0  0  0
  146.0082  140.6798  153.5300 H   0  0  0  0  0  0  0  0  0  0  0  0
  146.3528  139.2118  155.1874 H   0  0  0  0  0  0  0  0  0  0  0  0
  148.6004  141.9775  154.0114 H   0  0  0  0  0  0  0  0  0  0  0  0
  147.9669  141.7087  155.6335 H   0  0  0  0  0  0  0  0  0  0  0  0
  150.6282  141.6566  155.2728 H   0  0  0  0  0  0  0  0  0  0  0  0
  149.9292  140.3044  156.1789 H   0  0  0  0  0  0  0  0  0  0  0  0
  149.1986  138.1731  154.4166 H   0  0  0  0  0  0  0  0  0  0  0  0
  149.1387  138.8903  152.8134 H   0  0  0  0  0  0  0  0  0  0  0  0
  146.0972  132.7789  149.3964 H   0  0  0  0  0  0  0  0  0  0  0  0
  143.0935  132.9981  149.7546 H   0  0  0  0  0  0  0  0  0  0  0  0
  143.9636  132.1646  148.4801 H   0  0  0  0  0  0  0  0  0  0  0  0
  144.0474  133.9158  148.5841 H   0  0  0  0  0  0  0  0  0  0  0  0
  145.1128  130.7355  150.2290 H   0  0  0  0  0  0  0  0  0  0  0  0
  144.3948  131.5460  151.5927 H   0  0  0  0  0  0  0  0  0  0  0  0
  147.2446  131.3899  150.9817 H   0  0  0  0  0  0  0  0  0  0  0  0
  1  2  1  0  0  0  0
  1 28  1  0  0  0  0
  1 29  1  0  0  0  0
  1 30  1  0  0  0  0
  2  3  1  0  0  0  0
  2 31  1  0  0  0  0
  2 32  1  0  0  0  0
  3 27  1  0  0  0  0
  3  4  1  0  0  0  0
  3 58  1  0  0  0  0
  4  5  1  0  0  0  0
  4 33  1  0  0  0  0
  4 34  1  0  0  0  0
  5  6  1  0  0  0  0
  5 35  1  0  0  0  0
  5 36  1  0  0  0  0
  6  7  1  0  0  0  0
  6 25  1  0  0  0  0
  6 37  1  0  0  0  0
  7  8  1  0  0  0  0
  7  9  1  0  0  0  0
  8 38  1  0  0  0  0
  8 39  1  0  0  0  0
  8 40  1  0  0  0  0
  9 14  1  0  0  0  0
  9 10  2  0  0  0  0
 10 11  1  0  0  0  0
 11 12  2  0  0  0  0
 11 41  1  0  0  0  0
 12 13  1  0  0  0  0
 13 17  1  0  0  0  0
 13 14  2  0  0  0  0
 14 15  1  0  0  0  0
 15 16  2  0  0  0  0
 16 17  1  0  0  0  0
 16 42  1  0  0  0  0
 17 18  1  0  0  0  0
 18 19  1  0  0  0  0
 18 43  1  0  0  0  0
 18 44  1  0  0  0  0
 19 24  1  0  0  0  0
 19 20  1  0  0  0  0
 19 21  1  0  0  0  0
 20 45  1  0  0  0  0
 21 22  1  0  0  0  0
 21 46  1  0  0  0  0
 21 47  1  0  0  0  0
 22 23  1  0  0  0  0
 22 48  1  0  0  0  0
 22 49  1  0  0  0  0
 23 24  1  0  0  0  0
 24 50  1  0  0  0  0
 24 51  1  0  0  0  0
 25 26  1  0  0  0  0
 25 27  1  0  0  0  0
 25 52  1  0  0  0  0
 26 53  1  0  0  0  0
 26 54  1  0  0  0  0
 26 55  1  0  0  0  0
 27 56  1  0  0  0  0
 27 57  1  0  0  0  0
M  CHG  1   3   1
M  END
> <s_m_source_file>
AV-unprocessed.smi

> <i_m_source_file_index>
243

> <i_lp_mmshare_version>
43012

> <i_f3d_flags>
0

> <s_epik_input>
W0NIM11bQ0gyXU4xW0NIMl1bQ0gyXVtDQEhdKFtDQEBIXShbQ0gzXSlbQ0gyXTEpTihbQ0gzXSljKG5bY0hdbjIpYyhjMjMpbltjSF1uM1tDSDJdW0NAQF00KFtPSF0pW0NIMl1bQ0gyXU9bQ0gyXTQ=

> <s_epik_cmdline>
J2VwaWtfcHl0aG9uJywgJy1waCcsICc3LjAnLCAnLXRuJywgJzgnLCAnLW1hJywgJzIwMCcsICctbWV0YWxfYmluZGluZycsICctaW1hZScsICc8aW5maWxlLm1hZT4nLCAnLW9tYWUnLCAnPG91dGZpbGUubWFlPic=

> <r_lp_tautomer_probability>
1

> <r_epik_Ionization_Penalty>
0.00253099

> <r_epik_Ionization_Penalty_Charging>
0.00137877

> <r_epik_Ionization_Penalty_Neutral>
0.00115221

> <r_epik_State_Penalty>
-0

> <r_epik_Charging_Adjusted_Penalty>
0.00137877

> <i_epik_Tot_Q>
1

> <i_epik_Tot_abs_Q>
1

> <r_epik_Metal_State_Penalty>
-0

> <b_epik_Metal_Only>
0

> <s_lp_Force_Field>
OPLS_2005

> <r_lp_Energy>
52.4668

> <b_lp_Chiralities_Consistent>
1

> <s_lp_Variant>
AV-unprocessed.smi:243-15

> <Gold.Version>
5.8.1

> <Gold.Id.Protein>
6NUR|6NUR_protein|mol2

> <Gold.PLP.Fitness>
50.2637

> <Gold.PLP.PLP>
-42.6770

> <Gold.PLP.part.hbond>
-2.1555

> <Gold.PLP.part.metal>
0.0000

> <Gold.PLP.part.buried>
-1.4530

> <Gold.PLP.part.nonpolar>
-42.8634

> <Gold.PLP.part.repulsive>
2.4408

> <Gold.PLP.ligand.clash>
0.0000

> <Gold.PLP.ligand.torsion>
0.9898

> <Gold.PLP.Chemscore.Hbond>
2.0000

> <Gold.PLP.Chemscore.CHOScore>
0.8697

> <Gold.PLP.Chemscore.Metal>
0.0000

> <Gold.Chemscore.Hbonds>
donor molecule, donor type, donor heavy atom, donor atom, acceptor molecule, acceptor atom, score
      L1  H     3    58       P1 10747  1.00
      P1  H  7989  7998       L1    23  0.90
      L1  C    16    42       P1  7957  0.85

> <Gold.PLP.Chemscore.Internal.Correction>
0.9574

> <Gold.Rescore>
     Score         DG    S(hbond)    S(metal)    S(lipo)     H(rot)  DE(clash)    DE(int)     intcor
     15.22     -17.96       1.83        0.00     103.21       2.24       1.73       1.01       ----

> <Gold.Chemscore.Fitness>
15.2226

> <Gold.Chemscore.DG>
-17.9551

> <Gold.Chemscore.ZeroCoef>
-5.4800

> <Gold.Chemscore.Hbond>
1.8348

> <Gold.Chemscore.Metal>
0.0000

> <Gold.Chemscore.Lipo>
103.2148

> <Gold.Chemscore.Internal_Hbond>
0.0000

> <Gold.Chemscore.DEClash>
1.7268

> <Gold.Chemscore.DEInternal>
1.0057

> <Gold.Chemscore.Rot>
2.2379

> <Gold.Chemscore.Internal.Correction>
   9.000000E+99

> <Gold.Chemscore.Hbonds>
donor molecule, donor type, donor heavy atom, donor atom, acceptor molecule, acceptor atom, score
      L1  H     3    58       P1 10747  0.97
      P1  H  7989  7998       L1    23  0.18

> <Gold.Chemscore.Hbond.Weighted>
-6.1281

> <Gold.Chemscore.Metal.Weighted>
-0.0000

> <Gold.Chemscore.Lipo.Weighted>
-12.0761

> <Gold.Chemscore.Internal_Hbond.Weighted>
0.0000

> <Gold.Chemscore.DEClash.Weighted>
1.7268

> <Gold.Chemscore.DEInternal.Weighted>
1.0057

> <Gold.Chemscore.Rot.Weighted>
5.7291

> <Gold.Chemscore.Internal.Correction.Weighted>
   9.000000E+99

> <Gold.Protein.RotatedTorsions>
[ 6907 6896 6895 6894 ] final  -77.18 input  -60.11 | X-H torsion
[ 7974 7965 7964 7962 ] final -160.42 input  175.53 | X-H torsion
[ 8008 7997 7996 7995 ] final -161.88 input   59.86 | X-H torsion
[ 10167 10162 10161 10158 ] final -126.85 input  -65.29 | X-H torsion
[ 10718 10713 10712 10709 ] final  164.33 input   66.30 | X-H torsion
[ 10763 10752 10751 10750 ] final  128.67 input  -60.55 | X-H torsion
[ 11005 11000 10999 10996 ] final  133.17 input  -57.11 | X-H torsion

> <Gold.Protein.ActiveResidues>
 VAL166  LYS551  ARG553  GLY616  TRP617  ASP618  TYR619  PRO620  LYS621  CYS622 
 ASP623  PHE694  ASN695  SER759  ASP760  ASP761  ALA762  ILE779  LEU786  VAL792 
 PHE793  MET794  SER795  GLU796  ALA797  LYS798  CYS799  TRP800  GLU811  SER814 

> <Gold.Protein.RotatedAtoms>
  150.7006  134.4461  159.5314 H   0  0  0  0  0  0  0  0  0  0  0  0  # atno 6907 bound_to 6896
  152.2162  134.8453  160.0500 H   0  0  0  0  0  0  0  0  0  0  0  0  # atno 6908 bound_to 6896
  151.9320  133.3579  159.3971 H   0  0  0  0  0  0  0  0  0  0  0  0  # atno 6909 bound_to 6896
  144.7427  140.3544  143.6109 H   0  0  0  0  0  0  0  0  0  0  0  0  # atno 7974 bound_to 7965
  155.7987  140.0889  157.1969 H   0  0  0  0  0  0  0  0  0  0  0  0  # atno 8008 bound_to 7997
  154.3982  140.1476  156.3308 H   0  0  0  0  0  0  0  0  0  0  0  0  # atno 8009 bound_to 7997
  155.8484  140.3435  155.5680 H   0  0  0  0  0  0  0  0  0  0  0  0  # atno 8010 bound_to 7997
  139.9671  143.5886  152.2425 H   0  0  0  0  0  0  0  0  0  0  0  0  # atno 10167 bound_to 10162
  157.0958  131.0430  151.2518 H   0  0  0  0  0  0  0  0  0  0  0  0  # atno 10718 bound_to 10713
  153.7293  135.3241  155.3282 H   0  0  0  0  0  0  0  0  0  0  0  0  # atno 10763 bound_to 10752
  154.8331  135.4518  154.1138 H   0  0  0  0  0  0  0  0  0  0  0  0  # atno 10764 bound_to 10752
  153.2281  135.6956  153.8003 H   0  0  0  0  0  0  0  0  0  0  0  0  # atno 10765 bound_to 10752
  139.9835  134.9540  156.9687 H   0  0  0  0  0  0  0  0  0  0  0  0  # atno 11005 bound_to 11000
  145.7243  139.1718  143.2467 LP  0  0  0  0  0  0  0  0  0  0  0  0  # atno 17320 bound_to 7965
  146.1254  140.7255  142.9438 LP  0  0  0  0  0  0  0  0  0  0  0  0  # atno 17321 bound_to 7965
  139.6509  144.7660  151.2150 LP  0  0  0  0  0  0  0  0  0  0  0  0  # atno 17342 bound_to 10162
  140.7534  143.6162  150.8557 LP  0  0  0  0  0  0  0  0  0  0  0  0  # atno 17343 bound_to 10162
  157.4682  130.7693  149.7299 LP  0  0  0  0  0  0  0  0  0  0  0  0  # atno 17370 bound_to 10713
  155.9886  130.3958  150.3111 LP  0  0  0  0  0  0  0  0  0  0  0  0  # atno 17371 bound_to 10713
  140.5049  134.1060  155.7258 LP  0  0  0  0  0  0  0  0  0  0  0  0  # atno 17394 bound_to 11000
  141.1504  133.8979  157.2112 LP  0  0  0  0  0  0  0  0  0  0  0  0  # atno 17395 bound_to 11000

$$$$
