AV-unprocessed.smi:2412|AV-procd|sdf|9532|dock9
  -GOLD-   2272013163D 1   1.00000     0.00000
 Structure written by MMmdl.
 37 38  0  0  0  0  0  0  0  0  1 V2000
  147.6921  136.5907  162.8979 C   0  0  0  0  0  0  0  0  0  0  0  0
  147.5162  135.4220  161.9440 C   0  0  0  0  0  0  0  0  0  0  0  0
  146.8590  134.2512  162.3800 C   0  0  0  0  0  0  0  0  0  0  0  0
  146.6585  133.1720  161.5962 N   0  0  0  0  0  0  0  0  0  0  0  0
  147.1092  133.2255  160.3263 C   0  0  0  0  0  0  0  0  0  0  0  0
  147.7771  134.3418  159.7868 C   0  0  0  0  0  0  0  0  0  0  0  0
  148.0016  135.4687  160.6143 C   0  0  0  0  0  0  0  0  0  0  0  0
  148.6468  136.6547  160.1617 N   0  0  0  0  0  0  0  0  0  0  0  0
  149.4975  136.8120  159.1327 C   0  0  0  0  0  0  0  0  0  0  0  0
  149.9048  135.9124  158.3977 O   0  0  0  0  0  0  0  0  0  0  0  0
  149.8735  138.0937  159.0069 N   0  0  0  0  0  0  0  0  0  0  0  0
  150.7714  138.6088  157.9746 C   0  0  0  0  0  0  0  0  0  0  0  0
  150.8926  140.1443  157.9811 C   0  0  0  0  0  0  0  0  0  0  0  0
  150.0830  140.8284  157.3521 O   0  0  0  0  0  0  0  0  0  0  0  0
  151.8909  140.7006  158.6984 N   0  0  0  0  0  0  0  0  0  0  0  0
  152.8874  139.9745  159.4856 C   0  0  0  0  0  0  0  0  0  0  0  0
  153.9050  141.0237  159.9359 C   0  0  0  0  0  0  0  0  0  0  0  0
  153.1266  142.3316  159.9217 C   0  0  0  0  0  0  0  0  0  0  0  0
  152.1004  142.1433  158.8046 C   0  0  0  0  0  0  0  0  0  0  0  0
  147.2865  136.3624  163.8839 H   0  0  0  0  0  0  0  0  0  0  0  0
  147.1770  137.4733  162.5177 H   0  0  0  0  0  0  0  0  0  0  0  0
  148.7492  136.8301  163.0166 H   0  0  0  0  0  0  0  0  0  0  0  0
  146.4787  134.1766  163.3883 H   0  0  0  0  0  0  0  0  0  0  0  0
  146.9255  132.3532  159.7167 H   0  0  0  0  0  0  0  0  0  0  0  0
  148.0876  134.3147  158.7539 H   0  0  0  0  0  0  0  0  0  0  0  0
  148.4770  137.4762  160.7228 H   0  0  0  0  0  0  0  0  0  0  0  0
  149.4923  138.7681  159.6540 H   0  0  0  0  0  0  0  0  0  0  0  0
  151.7588  138.1775  158.1406 H   0  0  0  0  0  0  0  0  0  0  0  0
  150.4359  138.2646  156.9952 H   0  0  0  0  0  0  0  0  0  0  0  0
  152.3987  139.5214  160.3494 H   0  0  0  0  0  0  0  0  0  0  0  0
  153.3756  139.1837  158.9147 H   0  0  0  0  0  0  0  0  0  0  0  0
  154.3398  140.8004  160.9106 H   0  0  0  0  0  0  0  0  0  0  0  0
  154.7191  141.0773  159.2118 H   0  0  0  0  0  0  0  0  0  0  0  0
  152.6112  142.4588  160.8747 H   0  0  0  0  0  0  0  0  0  0  0  0
  153.7643  143.2025  159.7677 H   0  0  0  0  0  0  0  0  0  0  0  0
  152.4929  142.5138  157.8565 H   0  0  0  0  0  0  0  0  0  0  0  0
  151.1757  142.6805  159.0219 H   0  0  0  0  0  0  0  0  0  0  0  0
  1  2  1  0  0  0  0
  1 20  1  0  0  0  0
  1 21  1  0  0  0  0
  1 22  1  0  0  0  0
  2  7  1  0  0  0  0
  2  3  2  0  0  0  0
  3  4  1  0  0  0  0
  3 23  1  0  0  0  0
  4  5  2  0  0  0  0
  5  6  1  0  0  0  0
  5 24  1  0  0  0  0
  6  7  2  0  0  0  0
  6 25  1  0  0  0  0
  7  8  1  0  0  0  0
  8  9  1  0  0  0  0
  8 26  1  0  0  0  0
  9 10  2  0  0  0  0
  9 11  1  0  0  0  0
 11 12  1  0  0  0  0
 11 27  1  0  0  0  0
 12 13  1  0  0  0  0
 12 28  1  0  0  0  0
 12 29  1  0  0  0  0
 13 14  2  0  0  0  0
 13 15  1  0  0  0  0
 15 19  1  0  0  0  0
 15 16  1  0  0  0  0
 16 17  1  0  0  0  0
 16 30  1  0  0  0  0
 16 31  1  0  0  0  0
 17 18  1  0  0  0  0
 17 32  1  0  0  0  0
 17 33  1  0  0  0  0
 18 19  1  0  0  0  0
 18 34  1  0  0  0  0
 18 35  1  0  0  0  0
 19 36  1  0  0  0  0
 19 37  1  0  0  0  0
M  END
> <s_m_source_file>
AV-unprocessed.smi

> <i_m_source_file_index>
2412

> <i_lp_mmshare_version>
43012

> <i_f3d_flags>
0

> <s_epik_input>
W0NIM11jMVtjSF1uW2NIXVtjSF1jMVtOSF1DKD1PKVtOSF1bQ0gyXUMoPU8pTjJbQ0gyXVtDSDJdW0NIMl1bQ0gyXTI=

> <s_epik_cmdline>
J2VwaWtfcHl0aG9uJywgJy1waCcsICc3LjAnLCAnLXRuJywgJzgnLCAnLW1hJywgJzIwMCcsICctbWV0YWxfYmluZGluZycsICctaW1hZScsICc8aW5maWxlLm1hZT4nLCAnLW9tYWUnLCAnPG91dGZpbGUubWFlPic=

> <r_epik_Ionization_Penalty>
0.157619

> <r_epik_Ionization_Penalty_Charging>
0

> <r_epik_Ionization_Penalty_Neutral>
0.157619

> <r_epik_State_Penalty>
0.146889

> <r_epik_Charging_Adjusted_Penalty>
0.146889

> <i_epik_Tot_Q>
0

> <i_epik_Tot_abs_Q>
0

> <r_epik_Metal_State_Penalty>
0.115729

> <b_epik_Metal_Only>
0

> <s_lp_Force_Field>
OPLS_2005

> <r_lp_Energy>
29.7149

> <b_lp_Chiralities_Consistent>
1

> <s_lp_Variant>
AV-unprocessed.smi:2412-1

> <Gold.Version>
5.8.1

> <Gold.Id.Protein>
6NUR|6NUR_protein|mol2

> <Gold.PLP.Fitness>
37.9497

> <Gold.PLP.PLP>
-35.9366

> <Gold.PLP.part.hbond>
-1.0000

> <Gold.PLP.part.metal>
0.0000

> <Gold.PLP.part.buried>
-5.4126

> <Gold.PLP.part.nonpolar>
-31.4637

> <Gold.PLP.part.repulsive>
0.9254

> <Gold.PLP.ligand.clash>
0.0000

> <Gold.PLP.ligand.torsion>
0.4942

> <Gold.PLP.Chemscore.Hbond>
1.0000

> <Gold.PLP.Chemscore.CHOScore>
0.0000

> <Gold.PLP.Chemscore.Metal>
0.0000

> <Gold.Chemscore.Hbonds>
donor molecule, donor type, donor heavy atom, donor atom, acceptor molecule, acceptor atom, score
      P1  H  6896  6909       L1    10  1.00

> <Gold.PLP.Chemscore.Internal.Correction>
0.0014

> <Gold.Rescore>
     Score         DG    S(hbond)    S(metal)    S(lipo)     H(rot)  DE(clash)    DE(int)     intcor
     13.87     -15.29       0.96        0.00      83.90       1.26       0.08       1.33       ----

> <Gold.Chemscore.Fitness>
13.8716

> <Gold.Chemscore.DG>
-15.2850

> <Gold.Chemscore.ZeroCoef>
-5.4800

> <Gold.Chemscore.Hbond>
0.9649

> <Gold.Chemscore.Metal>
0.0000

> <Gold.Chemscore.Lipo>
83.9009

> <Gold.Chemscore.Internal_Hbond>
0.0000

> <Gold.Chemscore.DEClash>
0.0785

> <Gold.Chemscore.DEInternal>
1.3350

> <Gold.Chemscore.Rot>
1.2633

> <Gold.Chemscore.Internal.Correction>
   9.000000E+99

> <Gold.Chemscore.Hbonds>
donor molecule, donor type, donor heavy atom, donor atom, acceptor molecule, acceptor atom, score
      P1  H  6896  6909       L1    10  0.39

> <Gold.Chemscore.Hbond.Weighted>
-3.2227

> <Gold.Chemscore.Metal.Weighted>
-0.0000

> <Gold.Chemscore.Lipo.Weighted>
-9.8164

> <Gold.Chemscore.Internal_Hbond.Weighted>
0.0000

> <Gold.Chemscore.DEClash.Weighted>
0.0785

> <Gold.Chemscore.DEInternal.Weighted>
1.3350

> <Gold.Chemscore.Rot.Weighted>
3.2341

> <Gold.Chemscore.Internal.Correction.Weighted>
   9.000000E+99

> <Gold.Protein.RotatedTorsions>
[ 6907 6896 6895 6894 ] final   60.28 input  -60.11 | X-H torsion
[ 7974 7965 7964 7962 ] final  -17.25 input  175.53 | X-H torsion
[ 8008 7997 7996 7995 ] final  121.58 input   59.86 | X-H torsion
[ 10167 10162 10161 10158 ] final -165.87 input  -65.29 | X-H torsion
[ 10718 10713 10712 10709 ] final  -81.36 input   66.30 | X-H torsion
[ 10763 10752 10751 10750 ] final   13.90 input  -60.55 | X-H torsion
[ 11005 11000 10999 10996 ] final  -99.50 input  -57.11 | X-H torsion

> <Gold.Protein.ActiveResidues>
 VAL166  LYS551  ARG553  GLY616  TRP617  ASP618  TYR619  PRO620  LYS621  CYS622 
 ASP623  PHE694  ASN695  SER759  ASP760  ASP761  ALA762  ILE779  LEU786  VAL792 
 PHE793  MET794  SER795  GLU796  ALA797  LYS798  CYS799  TRP800  GLU811  SER814 

> <Gold.Protein.RotatedAtoms>
  152.3989  134.6320  160.0077 H   0  0  0  0  0  0  0  0  0  0  0  0  # atno 6907 bound_to 6896
  151.6531  133.3314  159.3164 H   0  0  0  0  0  0  0  0  0  0  0  0  # atno 6908 bound_to 6896
  150.7892  134.6945  159.6560 H   0  0  0  0  0  0  0  0  0  0  0  0  # atno 6909 bound_to 6896
  146.1950  140.3753  142.8444 H   0  0  0  0  0  0  0  0  0  0  0  0  # atno 7974 bound_to 7965
  156.2692  140.2805  156.1331 H   0  0  0  0  0  0  0  0  0  0  0  0  # atno 8008 bound_to 7997
  155.1033  140.0390  157.2721 H   0  0  0  0  0  0  0  0  0  0  0  0  # atno 8009 bound_to 7997
  154.6798  140.2606  155.6926 H   0  0  0  0  0  0  0  0  0  0  0  0  # atno 8010 bound_to 7997
  139.6153  144.0732  152.1882 H   0  0  0  0  0  0  0  0  0  0  0  0  # atno 10167 bound_to 10162
  156.0052  130.4601  150.3940 H   0  0  0  0  0  0  0  0  0  0  0  0  # atno 10718 bound_to 10713
  153.1675  135.6806  153.8655 H   0  0  0  0  0  0  0  0  0  0  0  0  # atno 10763 bound_to 10752
  153.8030  135.3153  155.3393 H   0  0  0  0  0  0  0  0  0  0  0  0  # atno 10764 bound_to 10752
  154.7975  135.4798  154.0287 H   0  0  0  0  0  0  0  0  0  0  0  0  # atno 10765 bound_to 10752
  141.1306  133.8326  157.0980 H   0  0  0  0  0  0  0  0  0  0  0  0  # atno 11005 bound_to 11000
  144.8561  140.7073  143.6137 LP  0  0  0  0  0  0  0  0  0  0  0  0  # atno 17320 bound_to 7965
  145.3673  139.1667  143.4351 LP  0  0  0  0  0  0  0  0  0  0  0  0  # atno 17321 bound_to 7965
  140.0361  144.6043  150.7448 LP  0  0  0  0  0  0  0  0  0  0  0  0  # atno 17342 bound_to 10162
  140.7347  143.2731  151.3824 LP  0  0  0  0  0  0  0  0  0  0  0  0  # atno 17343 bound_to 10162
  157.2013  131.0439  151.2649 LP  0  0  0  0  0  0  0  0  0  0  0  0  # atno 17370 bound_to 10713
  157.3973  130.7314  149.6741 LP  0  0  0  0  0  0  0  0  0  0  0  0  # atno 17371 bound_to 10713
  140.0351  134.9882  157.0855 LP  0  0  0  0  0  0  0  0  0  0  0  0  # atno 17394 bound_to 11000
  140.4224  134.1867  155.7165 LP  0  0  0  0  0  0  0  0  0  0  0  0  # atno 17395 bound_to 11000

$$$$
