AV-unprocessed.smi:767|AV-procd|sdf|3664|dock9
  -GOLD-   22720 1 73D 1   1.00000     0.00000
 Structure written by MMmdl.
 47 49  0  0  0  0  0  0  0  0  1 V2000
  138.7793  136.9576  154.4501 C   0  0  0  0  0  0  0  0  0  0  0  0
  140.1878  136.6907  153.9628 C   0  0  0  0  0  0  0  0  0  0  0  0
  140.9881  137.7401  153.4654 C   0  0  0  0  0  0  0  0  0  0  0  0
  142.2976  137.4423  153.0427 C   0  0  0  0  0  0  0  0  0  0  0  0
  142.7541  136.1107  153.1270 C   0  0  0  0  0  0  0  0  0  0  0  0
  144.1699  135.7423  152.7152 C   0  0  0  0  0  0  0  0  0  0  0  0
  145.0052  136.9354  152.2093 C   0  0  0  0  0  0  0  0  0  0  0  0
  146.3699  136.9209  152.7330 N   0  0  0  0  0  0  0  0  0  0  0  0
  146.7949  137.6097  153.8026 C   0  0  0  0  0  0  0  0  0  0  0  0
  146.0688  138.3138  154.5049 O   0  0  0  0  0  0  0  0  0  0  0  0
  148.1104  137.4622  154.0050 N   0  0  0  0  0  0  0  0  0  0  0  0
  148.8512  138.1677  155.0438 C   0  0  1  0  0  0  0  0  0  0  0  0
  150.3133  138.4133  154.6747 C   0  0  2  0  0  0  0  0  0  0  0  0
  151.6180  137.9290  155.1987 C   0  0  0  0  0  0  0  0  0  0  0  0
  152.3428  139.2999  155.2688 C   0  0  0  0  0  0  0  0  0  0  0  0
  151.3207  140.3022  155.0477 O   0  0  0  0  0  0  0  0  0  0  0  0
  150.1358  139.6774  155.4965 C   0  0  1  0  0  0  0  0  0  0  0  0
  148.6866  139.7331  154.9733 C   0  0  0  0  0  0  0  0  0  0  0  0
  148.4433  140.4171  153.6127 C   0  0  0  0  0  0  0  0  0  0  0  0
  147.6522  140.3184  155.9354 C   0  0  0  0  0  0  0  0  0  0  0  0
  141.8663  135.1323  153.6237 C   0  0  0  0  0  0  0  0  0  0  0  0
  140.6111  135.4098  154.0369 N   0  0  0  0  0  0  0  0  0  0  0  0
  138.6612  138.0004  154.7466 H   0  0  0  0  0  0  0  0  0  0  0  0
  138.5413  136.3340  155.3128 H   0  0  0  0  0  0  0  0  0  0  0  0
  138.0607  136.7418  153.6592 H   0  0  0  0  0  0  0  0  0  0  0  0
  140.6140  138.7523  153.4197 H   0  0  0  0  0  0  0  0  0  0  0  0
  142.9405  138.2267  152.6713 H   0  0  0  0  0  0  0  0  0  0  0  0
  144.6705  135.2800  153.5663 H   0  0  0  0  0  0  0  0  0  0  0  0
  144.1259  134.9776  151.9388 H   0  0  0  0  0  0  0  0  0  0  0  0
  145.0141  136.9456  151.1182 H   0  0  0  0  0  0  0  0  0  0  0  0
  144.5302  137.8684  152.5131 H   0  0  0  0  0  0  0  0  0  0  0  0
  147.0457  136.3702  152.2239 H   0  0  0  0  0  0  0  0  0  0  0  0
  148.6355  136.8650  153.3834 H   0  0  0  0  0  0  0  0  0  0  0  0
  148.7292  137.7471  156.0465 H   0  0  0  0  0  0  0  0  0  0  0  0
  150.4075  138.6043  153.6033 H   0  0  0  0  0  0  0  0  0  0  0  0
  151.5175  137.4679  156.1823 H   0  0  0  0  0  0  0  0  0  0  0  0
  152.1115  137.2285  154.5249 H   0  0  0  0  0  0  0  0  0  0  0  0
  152.8108  139.4413  156.2438 H   0  0  0  0  0  0  0  0  0  0  0  0
  153.1156  139.3925  154.5053 H   0  0  0  0  0  0  0  0  0  0  0  0
  150.1736  139.5119  156.5795 H   0  0  0  0  0  0  0  0  0  0  0  0
  148.4932  141.5026  153.7032 H   0  0  0  0  0  0  0  0  0  0  0  0
  147.4573  140.1717  153.2208 H   0  0  0  0  0  0  0  0  0  0  0  0
  149.1637  140.1405  152.8453 H   0  0  0  0  0  0  0  0  0  0  0  0
  147.7768  141.3951  156.0538 H   0  0  0  0  0  0  0  0  0  0  0  0
  147.7312  139.8734  156.9275 H   0  0  0  0  0  0  0  0  0  0  0  0
  146.6350  140.1402  155.5850 H   0  0  0  0  0  0  0  0  0  0  0  0
  142.1776  134.1016  153.7086 H   0  0  0  0  0  0  0  0  0  0  0  0
  1  2  1  0  0  0  0
  1 23  1  0  0  0  0
  1 24  1  0  0  0  0
  1 25  1  0  0  0  0
  2 22  1  0  0  0  0
  2  3  2  0  0  0  0
  3  4  1  0  0  0  0
  3 26  1  0  0  0  0
  4  5  2  0  0  0  0
  4 27  1  0  0  0  0
  5  6  1  0  0  0  0
  5 21  1  0  0  0  0
  6  7  1  0  0  0  0
  6 28  1  0  0  0  0
  6 29  1  0  0  0  0
  7  8  1  0  0  0  0
  7 30  1  0  0  0  0
  7 31  1  0  0  0  0
  8  9  1  0  0  0  0
  8 32  1  0  0  0  0
  9 10  2  0  0  0  0
  9 11  1  0  0  0  0
 11 12  1  0  0  0  0
 11 33  1  0  0  0  0
 12 18  1  0  0  0  0
 12 13  1  0  0  0  0
 12 34  1  0  0  0  0
 13 17  1  0  0  0  0
 13 14  1  0  0  0  0
 13 35  1  0  0  0  0
 14 15  1  0  0  0  0
 14 36  1  0  0  0  0
 14 37  1  0  0  0  0
 15 16  1  0  0  0  0
 15 38  1  0  0  0  0
 15 39  1  0  0  0  0
 16 17  1  0  0  0  0
 17 18  1  0  0  0  0
 17 40  1  0  0  0  0
 18 19  1  0  0  0  0
 18 20  1  0  0  0  0
 19 41  1  0  0  0  0
 19 42  1  0  0  0  0
 19 43  1  0  0  0  0
 20 44  1  0  0  0  0
 20 45  1  0  0  0  0
 20 46  1  0  0  0  0
 21 22  2  0  0  0  0
 21 47  1  0  0  0  0
M  END
> <s_m_source_file>
AV-unprocessed.smi

> <i_m_source_file_index>
767

> <i_lp_mmshare_version>
43012

> <i_f3d_flags>
0

> <s_epik_input>
W0NIM11jMVtjSF1bY0hdYyhbY0hdbjEpW0NIMl1bQ0gyXVtOSF1DKD1PKVtOSF1bQ0BIXTJDKFtDSDNdKShbQ0gzXSlbQ0BIXShbQ0BASF0yMylPW0NIMl1bQ0gyXTM=

> <s_epik_cmdline>
J2VwaWtfcHl0aG9uJywgJy1waCcsICc3LjAnLCAnLXRuJywgJzgnLCAnLW1hJywgJzIwMCcsICctbWV0YWxfYmluZGluZycsICctaW1hZScsICc8aW5maWxlLm1hZT4nLCAnLW9tYWUnLCAnPG91dGZpbGUubWFlPic=

> <r_epik_Ionization_Penalty>
0.0567523

> <r_epik_Ionization_Penalty_Charging>
0

> <r_epik_Ionization_Penalty_Neutral>
0.0567523

> <r_epik_State_Penalty>
0.0489186

> <r_epik_Charging_Adjusted_Penalty>
0.0489186

> <i_epik_Tot_Q>
0

> <i_epik_Tot_abs_Q>
0

> <r_epik_Metal_State_Penalty>
0.044622

> <b_epik_Metal_Only>
0

> <s_lp_Force_Field>
OPLS_2005

> <r_lp_Energy>
55.1366

> <b_lp_Chiralities_Consistent>
1

> <s_lp_Variant>
AV-unprocessed.smi:767-8

> <Gold.Version>
5.8.1

> <Gold.Id.Protein>
6NUR|6NUR_protein|mol2

> <Gold.PLP.Fitness>
48.9292

> <Gold.PLP.PLP>
-35.5728

> <Gold.PLP.part.hbond>
-4.2364

> <Gold.PLP.part.metal>
0.0000

> <Gold.PLP.part.buried>
-3.1347

> <Gold.PLP.part.nonpolar>
-28.8992

> <Gold.PLP.part.repulsive>
0.3129

> <Gold.PLP.ligand.clash>
0.0000

> <Gold.PLP.ligand.torsion>
0.6682

> <Gold.PLP.Chemscore.Hbond>
3.8640

> <Gold.PLP.Chemscore.CHOScore>
0.9406

> <Gold.PLP.Chemscore.Metal>
0.0000

> <Gold.Chemscore.Hbonds>
donor molecule, donor type, donor heavy atom, donor atom, acceptor molecule, acceptor atom, score
      L1  H     8    32       P1  7948  0.86
      L1  H    11    33       P1  7948  1.00
      P1  H  7989  7998       L1    16  1.00
      P1  H 11000 11005       L1    22  1.00
      L1  C    21    47       P1 10957  0.81

> <Gold.PLP.Chemscore.Internal.Correction>
0.2788

> <Gold.Rescore>
     Score         DG    S(hbond)    S(metal)    S(lipo)     H(rot)  DE(clash)    DE(int)     intcor
     20.27     -23.76       3.52        0.00      87.46       1.45       1.75       1.74       ----

> <Gold.Chemscore.Fitness>
20.2677

> <Gold.Chemscore.DG>
-23.7576

> <Gold.Chemscore.ZeroCoef>
-5.4800

> <Gold.Chemscore.Hbond>
3.5199

> <Gold.Chemscore.Metal>
0.0000

> <Gold.Chemscore.Lipo>
87.4551

> <Gold.Chemscore.Internal_Hbond>
0.0000

> <Gold.Chemscore.DEClash>
1.7490

> <Gold.Chemscore.DEInternal>
1.7409

> <Gold.Chemscore.Rot>
1.4497

> <Gold.Chemscore.Internal.Correction>
   9.000000E+99

> <Gold.Chemscore.Hbonds>
donor molecule, donor type, donor heavy atom, donor atom, acceptor molecule, acceptor atom, score
      L1  H     8    32       P1  7948  0.84
      L1  H    11    33       P1  7948  0.96
      P1  H  7989  7998       L1    16  0.43
      P1  H 11000 11005       L1    22  0.67

> <Gold.Chemscore.Hbond.Weighted>
-11.7566

> <Gold.Chemscore.Metal.Weighted>
-0.0000

> <Gold.Chemscore.Lipo.Weighted>
-10.2322

> <Gold.Chemscore.Internal_Hbond.Weighted>
0.0000

> <Gold.Chemscore.DEClash.Weighted>
1.7490

> <Gold.Chemscore.DEInternal.Weighted>
1.7409

> <Gold.Chemscore.Rot.Weighted>
3.7112

> <Gold.Chemscore.Internal.Correction.Weighted>
   9.000000E+99

> <Gold.Protein.RotatedTorsions>
[ 6907 6896 6895 6894 ] final  179.68 input  -60.11 | X-H torsion
[ 7974 7965 7964 7962 ] final   15.37 input  175.53 | X-H torsion
[ 8008 7997 7996 7995 ] final  148.02 input   59.86 | X-H torsion
[ 10167 10162 10161 10158 ] final  126.50 input  -65.29 | X-H torsion
[ 10718 10713 10712 10709 ] final   94.50 input   66.30 | X-H torsion
[ 10763 10752 10751 10750 ] final  -19.76 input  -60.55 | X-H torsion
[ 11005 11000 10999 10996 ] final   45.39 input  -57.11 | X-H torsion

> <Gold.Protein.ActiveResidues>
 VAL166  LYS551  ARG553  GLY616  TRP617  ASP618  TYR619  PRO620  LYS621  CYS622 
 ASP623  PHE694  ASN695  SER759  ASP760  ASP761  ALA762  ILE779  LEU786  VAL792 
 PHE793  MET794  SER795  GLU796  ALA797  LYS798  CYS799  TRP800  GLU811  SER814 

> <Gold.Protein.RotatedAtoms>
  151.6678  133.3315  159.3188 H   0  0  0  0  0  0  0  0  0  0  0  0  # atno 6907 bound_to 6896
  150.7882  134.6889  159.6495 H   0  0  0  0  0  0  0  0  0  0  0  0  # atno 6908 bound_to 6896
  152.3957  134.6373  160.0142 H   0  0  0  0  0  0  0  0  0  0  0  0  # atno 6909 bound_to 6896
  146.2280  139.8904  142.8556 H   0  0  0  0  0  0  0  0  0  0  0  0  # atno 7974 bound_to 7965
  156.2805  140.2140  156.5631 H   0  0  0  0  0  0  0  0  0  0  0  0  # atno 8008 bound_to 7997
  154.7196  140.0504  157.0650 H   0  0  0  0  0  0  0  0  0  0  0  0  # atno 8009 bound_to 7997
  155.0496  140.3154  155.4699 H   0  0  0  0  0  0  0  0  0  0  0  0  # atno 8010 bound_to 7997
  139.5628  144.6892  151.3996 H   0  0  0  0  0  0  0  0  0  0  0  0  # atno 10167 bound_to 10162
  157.6947  131.0514  150.4196 H   0  0  0  0  0  0  0  0  0  0  0  0  # atno 10718 bound_to 10713
  153.6099  135.6996  153.5351 H   0  0  0  0  0  0  0  0  0  0  0  0  # atno 10763 bound_to 10752
  153.3026  135.4124  155.1265 H   0  0  0  0  0  0  0  0  0  0  0  0  # atno 10764 bound_to 10752
  154.8565  135.3652  154.5637 H   0  0  0  0  0  0  0  0  0  0  0  0  # atno 10765 bound_to 10752
  140.1464  134.4517  155.8412 H   0  0  0  0  0  0  0  0  0  0  0  0  # atno 11005 bound_to 11000
  145.2424  141.0014  143.3928 LP  0  0  0  0  0  0  0  0  0  0  0  0  # atno 17320 bound_to 7965
  144.9441  139.4155  143.6434 LP  0  0  0  0  0  0  0  0  0  0  0  0  # atno 17321 bound_to 7965
  140.6909  143.7864  150.7254 LP  0  0  0  0  0  0  0  0  0  0  0  0  # atno 17342 bound_to 10162
  140.1346  143.4495  152.2233 LP  0  0  0  0  0  0  0  0  0  0  0  0  # atno 17343 bound_to 10162
  156.4573  130.4024  149.6598 LP  0  0  0  0  0  0  0  0  0  0  0  0  # atno 17370 bound_to 10713
  156.3726  130.7538  151.2523 LP  0  0  0  0  0  0  0  0  0  0  0  0  # atno 17371 bound_to 10713
  141.2193  133.6854  156.7342 LP  0  0  0  0  0  0  0  0  0  0  0  0  # atno 17394 bound_to 11000
  140.2658  134.8431  157.3801 LP  0  0  0  0  0  0  0  0  0  0  0  0  # atno 17395 bound_to 11000

$$$$
