AV-unprocessed.smi:564|AV-procd|sdf|2948|dock2
  -GOLD-   2262023443D 1   1.00000     0.00000
 Structure written by MMmdl.
 50 51  0  0  0  0  0  0  0  0  2 V2000
  146.3903  142.7396  154.4411 C   0  0  0  0  0  0  0  0  0  0  0  0
  147.4901  141.7541  154.7156 C   0  0  0  0  0  0  0  0  0  0  0  0
  148.2855  141.9402  155.7558 N   0  0  0  0  0  0  0  0  0  0  0  0
  149.1433  140.9008  155.7233 N   0  0  0  0  0  0  0  0  0  0  0  0
  150.1708  140.7956  156.7413 C   0  0  0  0  0  0  0  0  0  0  0  0
  148.8903  140.0571  154.6590 C   0  0  0  0  0  0  0  0  0  0  0  0
  149.7032  138.8289  154.4050 C   0  0  0  0  0  0  0  0  0  0  0  0
  147.8237  140.5806  153.9778 C   0  0  0  0  0  0  0  0  0  0  0  0
  147.1455  140.0575  152.7364 C   0  0  0  0  0  0  0  0  0  0  0  0
  146.6319  138.6341  152.9687 C   0  0  0  0  0  0  0  0  0  0  0  0
  146.6166  138.1550  154.1030 O   0  0  0  0  0  0  0  0  0  0  0  0
  146.2092  137.9669  151.8850 N   0  0  0  0  0  0  0  0  0  0  0  0
  145.6894  136.6065  151.9050 C   0  0  0  0  0  0  0  0  0  0  0  0
  145.7314  135.9958  150.4940 C   0  0  0  0  0  0  0  0  0  0  0  0
  145.5635  134.5171  150.4850 N   0  3  1  0  0  0  0  0  0  0  0  0
  146.5210  133.8424  151.4032 C   0  0  0  0  0  0  0  0  0  0  0  0
  146.4925  132.3164  151.2227 C   0  0  0  0  0  0  0  0  0  0  0  0
  145.0754  131.7660  151.4129 C   0  0  0  0  0  0  0  0  0  0  0  0
  144.1053  132.4890  150.4688 C   0  0  0  0  0  0  0  0  0  0  0  0
  144.1582  134.0225  150.6389 C   0  0  1  0  0  0  0  0  0  0  0  0
  143.4768  134.4866  151.9444 C   0  0  0  0  0  0  0  0  0  0  0  0
  145.4330  142.2310  154.3250 H   0  0  0  0  0  0  0  0  0  0  0  0
  146.5854  143.2937  153.5230 H   0  0  0  0  0  0  0  0  0  0  0  0
  146.2827  143.4635  155.2497 H   0  0  0  0  0  0  0  0  0  0  0  0
  151.1502  140.9510  156.2890 H   0  0  0  0  0  0  0  0  0  0  0  0
  150.1399  139.8050  157.1951 H   0  0  0  0  0  0  0  0  0  0  0  0
  150.0182  141.5429  157.5211 H   0  0  0  0  0  0  0  0  0  0  0  0
  149.3199  138.2704  153.5514 H   0  0  0  0  0  0  0  0  0  0  0  0
  149.6856  138.1662  155.2704 H   0  0  0  0  0  0  0  0  0  0  0  0
  150.7416  139.0880  154.1974 H   0  0  0  0  0  0  0  0  0  0  0  0
  146.2974  140.6824  152.4555 H   0  0  0  0  0  0  0  0  0  0  0  0
  147.8250  140.0750  151.8833 H   0  0  0  0  0  0  0  0  0  0  0  0
  146.2551  138.4331  150.9903 H   0  0  0  0  0  0  0  0  0  0  0  0
  146.2958  136.0308  152.6039 H   0  0  0  0  0  0  0  0  0  0  0  0
  144.6646  136.6026  152.2803 H   0  0  0  0  0  0  0  0  0  0  0  0
  144.9159  136.4353  149.9176 H   0  0  0  0  0  0  0  0  0  0  0  0
  146.6477  136.2787  149.9755 H   0  0  0  0  0  0  0  0  0  0  0  0
  147.5323  134.1983  151.2030 H   0  0  0  0  0  0  0  0  0  0  0  0
  146.2996  134.1076  152.4374 H   0  0  0  0  0  0  0  0  0  0  0  0
  146.8547  132.0588  150.2265 H   0  0  0  0  0  0  0  0  0  0  0  0
  147.1740  131.8441  151.9309 H   0  0  0  0  0  0  0  0  0  0  0  0
  145.0603  130.6933  151.2172 H   0  0  0  0  0  0  0  0  0  0  0  0
  144.7605  131.8958  152.4488 H   0  0  0  0  0  0  0  0  0  0  0  0
  144.3592  132.2346  149.4387 H   0  0  0  0  0  0  0  0  0  0  0  0
  143.0895  132.1242  150.6260 H   0  0  0  0  0  0  0  0  0  0  0  0
  143.5713  134.4276  149.8155 H   0  0  0  0  0  0  0  0  0  0  0  0
  142.4700  134.0748  152.0197 H   0  0  0  0  0  0  0  0  0  0  0  0
  143.3726  135.5705  151.9844 H   0  0  0  0  0  0  0  0  0  0  0  0
  144.0215  134.1702  152.8335 H   0  0  0  0  0  0  0  0  0  0  0  0
  145.8452  134.2264  149.5594 H   0  0  0  0  0  0  0  0  0  0  0  0
  1  2  1  0  0  0  0
  1 22  1  0  0  0  0
  1 23  1  0  0  0  0
  1 24  1  0  0  0  0
  2  8  1  0  0  0  0
  2  3  2  0  0  0  0
  3  4  1  0  0  0  0
  4  5  1  0  0  0  0
  4  6  1  0  0  0  0
  5 25  1  0  0  0  0
  5 26  1  0  0  0  0
  5 27  1  0  0  0  0
  6  7  1  0  0  0  0
  6  8  2  0  0  0  0
  7 28  1  0  0  0  0
  7 29  1  0  0  0  0
  7 30  1  0  0  0  0
  8  9  1  0  0  0  0
  9 10  1  0  0  0  0
  9 31  1  0  0  0  0
  9 32  1  0  0  0  0
 10 11  2  0  0  0  0
 10 12  1  0  0  0  0
 12 13  1  0  0  0  0
 12 33  1  0  0  0  0
 13 14  1  0  0  0  0
 13 34  1  0  0  0  0
 13 35  1  0  0  0  0
 14 15  1  0  0  0  0
 14 36  1  0  0  0  0
 14 37  1  0  0  0  0
 15 20  1  0  0  0  0
 15 16  1  0  0  0  0
 15 50  1  0  0  0  0
 16 17  1  0  0  0  0
 16 38  1  0  0  0  0
 16 39  1  0  0  0  0
 17 18  1  0  0  0  0
 17 40  1  0  0  0  0
 17 41  1  0  0  0  0
 18 19  1  0  0  0  0
 18 42  1  0  0  0  0
 18 43  1  0  0  0  0
 19 20  1  0  0  0  0
 19 44  1  0  0  0  0
 19 45  1  0  0  0  0
 20 21  1  0  0  0  0
 20 46  1  0  0  0  0
 21 47  1  0  0  0  0
 21 48  1  0  0  0  0
 21 49  1  0  0  0  0
M  CHG  1  15   1
M  END
> <s_m_source_file>
AV-unprocessed.smi

> <i_m_source_file_index>
564

> <i_lp_mmshare_version>
43012

> <i_f3d_flags>
0

> <s_epik_input>
W0NIM11jMW5uKFtDSDNdKWMoW0NIM10pYzFbQ0gyXUMoPU8pW05IXVtDSDJdW0NIMl1OMltDSDJdW0NIMl1bQ0gyXVtDSDJdW0NASF0yW0NIM10=

> <s_epik_cmdline>
J2VwaWtfcHl0aG9uJywgJy1waCcsICc3LjAnLCAnLXRuJywgJzgnLCAnLW1hJywgJzIwMCcsICctbWV0YWxfYmluZGluZycsICctaW1hZScsICc8aW5maWxlLm1hZT4nLCAnLW9tYWUnLCAnPG91dGZpbGUubWFlPic=

> <r_lp_tautomer_probability>
1

> <r_epik_Ionization_Penalty>
0.00456826

> <r_epik_Ionization_Penalty_Charging>
0.00240401

> <r_epik_Ionization_Penalty_Neutral>
0.00216425

> <r_epik_State_Penalty>
-0

> <r_epik_Charging_Adjusted_Penalty>
0.00240401

> <i_epik_Tot_Q>
1

> <i_epik_Tot_abs_Q>
1

> <r_epik_Metal_State_Penalty>
-0

> <b_epik_Metal_Only>
0

> <s_lp_Force_Field>
OPLS_2005

> <r_lp_Energy>
16.0318

> <b_lp_Chiralities_Consistent>
1

> <s_lp_Variant>
AV-unprocessed.smi:564-2

> <Gold.Version>
5.8.1

> <Gold.Id.Protein>
6NUR|6NUR_protein|mol2

> <Gold.PLP.Fitness>
42.1969

> <Gold.PLP.PLP>
-39.9245

> <Gold.PLP.part.hbond>
-1.9286

> <Gold.PLP.part.metal>
0.0000

> <Gold.PLP.part.buried>
-0.3707

> <Gold.PLP.part.nonpolar>
-40.4750

> <Gold.PLP.part.repulsive>
2.8997

> <Gold.PLP.ligand.clash>
0.0000

> <Gold.PLP.ligand.torsion>
0.3940

> <Gold.PLP.Chemscore.Hbond>
0.9600

> <Gold.PLP.Chemscore.CHOScore>
0.0000

> <Gold.PLP.Chemscore.Metal>
0.0000

> <Gold.Chemscore.Hbonds>
donor molecule, donor type, donor heavy atom, donor atom, acceptor molecule, acceptor atom, score
      L1  H    15    50       P1  7921  0.91

> <Gold.PLP.Chemscore.Internal.Correction>
0.1804

> <Gold.Rescore>
     Score         DG    S(hbond)    S(metal)    S(lipo)     H(rot)  DE(clash)    DE(int)     intcor
     14.66     -16.54       0.94        0.00     102.92       1.61       1.35       0.52       ----

> <Gold.Chemscore.Fitness>
14.6644

> <Gold.Chemscore.DG>
-16.5370

> <Gold.Chemscore.ZeroCoef>
-5.4800

> <Gold.Chemscore.Hbond>
0.9425

> <Gold.Chemscore.Metal>
0.0000

> <Gold.Chemscore.Lipo>
102.9176

> <Gold.Chemscore.Internal_Hbond>
0.0000

> <Gold.Chemscore.DEClash>
1.3528

> <Gold.Chemscore.DEInternal>
0.5197

> <Gold.Chemscore.Rot>
1.6142

> <Gold.Chemscore.Internal.Correction>
   9.000000E+99

> <Gold.Chemscore.Hbonds>
donor molecule, donor type, donor heavy atom, donor atom, acceptor molecule, acceptor atom, score
      L1  H    15    50       P1  7921  0.42

> <Gold.Chemscore.Hbond.Weighted>
-3.1480

> <Gold.Chemscore.Metal.Weighted>
-0.0000

> <Gold.Chemscore.Lipo.Weighted>
-12.0414

> <Gold.Chemscore.Internal_Hbond.Weighted>
0.0000

> <Gold.Chemscore.DEClash.Weighted>
1.3528

> <Gold.Chemscore.DEInternal.Weighted>
0.5197

> <Gold.Chemscore.Rot.Weighted>
4.1324

> <Gold.Chemscore.Internal.Correction.Weighted>
   9.000000E+99

> <Gold.Protein.RotatedTorsions>
[ 6907 6896 6895 6894 ] final  173.02 input  -60.11 | X-H torsion
[ 7974 7965 7964 7962 ] final -100.03 input  175.53 | X-H torsion
[ 8008 7997 7996 7995 ] final  -45.72 input   59.86 | X-H torsion
[ 10167 10162 10161 10158 ] final -106.32 input  -65.29 | X-H torsion
[ 10718 10713 10712 10709 ] final  -97.89 input   66.30 | X-H torsion
[ 10763 10752 10751 10750 ] final -176.19 input  -60.55 | X-H torsion
[ 11005 11000 10999 10996 ] final   49.00 input  -57.11 | X-H torsion

> <Gold.Protein.ActiveResidues>
 VAL166  LYS551  ARG553  GLY616  TRP617  ASP618  TYR619  PRO620  LYS621  CYS622 
 ASP623  PHE694  ASN695  SER759  ASP760  ASP761  ALA762  ILE779  LEU786  VAL792 
 PHE793  MET794  SER795  GLU796  ALA797  LYS798  CYS799  TRP800  GLU811  SER814 

> <Gold.Protein.RotatedAtoms>
  151.7750  133.3344  159.3455 H   0  0  0  0  0  0  0  0  0  0  0  0  # atno 6907 bound_to 6896
  150.7447  134.5983  159.6033 H   0  0  0  0  0  0  0  0  0  0  0  0  # atno 6908 bound_to 6896
  152.3315  134.7255  160.0339 H   0  0  0  0  0  0  0  0  0  0  0  0  # atno 6909 bound_to 6896
  145.2998  140.9374  143.2830 H   0  0  0  0  0  0  0  0  0  0  0  0  # atno 7974 bound_to 7965
  154.4002  140.1389  156.3893 H   0  0  0  0  0  0  0  0  0  0  0  0  # atno 8008 bound_to 7997
  155.7929  140.3478  155.5339 H   0  0  0  0  0  0  0  0  0  0  0  0  # atno 8009 bound_to 7997
  155.8561  140.0949  157.1634 H   0  0  0  0  0  0  0  0  0  0  0  0  # atno 8010 bound_to 7997
  140.1891  143.3906  152.1221 H   0  0  0  0  0  0  0  0  0  0  0  0  # atno 10167 bound_to 10162
  156.0094  130.5214  150.6441 H   0  0  0  0  0  0  0  0  0  0  0  0  # atno 10718 bound_to 10713
  154.5754  135.2831  155.0786 H   0  0  0  0  0  0  0  0  0  0  0  0  # atno 10763 bound_to 10752
  154.2143  135.6402  153.5128 H   0  0  0  0  0  0  0  0  0  0  0  0  # atno 10764 bound_to 10752
  153.0071  135.5499  154.6390 H   0  0  0  0  0  0  0  0  0  0  0  0  # atno 10765 bound_to 10752
  140.1141  134.4916  155.8652 H   0  0  0  0  0  0  0  0  0  0  0  0  # atno 11005 bound_to 11000
  144.9103  139.4537  143.6590 LP  0  0  0  0  0  0  0  0  0  0  0  0  # atno 17320 bound_to 7965
  146.3156  139.7907  142.8986 LP  0  0  0  0  0  0  0  0  0  0  0  0  # atno 17321 bound_to 7965
  139.5264  144.7107  151.5216 LP  0  0  0  0  0  0  0  0  0  0  0  0  # atno 17342 bound_to 10162
  140.6468  143.8778  150.6745 LP  0  0  0  0  0  0  0  0  0  0  0  0  # atno 17343 bound_to 10162
  157.4215  131.0837  151.1126 LP  0  0  0  0  0  0  0  0  0  0  0  0  # atno 17370 bound_to 10713
  157.1726  130.6274  149.5645 LP  0  0  0  0  0  0  0  0  0  0  0  0  # atno 17371 bound_to 10713
  141.2137  133.6737  156.6762 LP  0  0  0  0  0  0  0  0  0  0  0  0  # atno 17394 bound_to 11000
  140.3052  134.8131  157.4131 LP  0  0  0  0  0  0  0  0  0  0  0  0  # atno 17395 bound_to 11000

$$$$
