AV-unprocessed.smi:2124|AV-procd|sdf|8650|dock3
  -GOLD-   2272011393D 1   1.00000     0.00000
 Structure written by MMmdl.
 47 49  0  0  0  0  0  0  0  0  1 V2000
  146.7374  132.7727  151.9186 C   0  0  0  0  0  0  0  0  0  0  0  0
  147.3540  132.7888  153.3014 C   0  0  0  0  0  0  0  0  0  0  0  0
  147.1390  131.8820  154.1965 N   0  0  0  0  0  0  0  0  0  0  0  0
  147.7690  132.0025  155.4429 C   0  0  0  0  0  0  0  0  0  0  0  0
  147.4676  130.8954  156.4382 C   0  0  0  0  0  0  0  0  0  0  0  0
  148.5974  133.0499  155.7285 C   0  0  0  0  0  0  0  0  0  0  0  0
  149.3005  133.2071  157.0756 C   0  0  0  0  0  0  0  0  0  0  0  0
  148.7780  134.3413  157.9595 C   0  0  0  0  0  0  0  0  0  0  0  0
  149.5254  135.2644  158.2816 O   0  0  0  0  0  0  0  0  0  0  0  0
  147.4927  134.2609  158.3373 N   0  0  0  0  0  0  0  0  0  0  0  0
  146.7805  135.2351  159.1615 C   0  0  2  0  0  0  0  0  0  0  0  0
  146.6800  136.5688  158.4027 C   0  0  0  0  0  0  0  0  0  0  0  0
  147.5067  135.3785  160.5199 C   0  0  2  0  0  0  0  0  0  0  0  0
  147.5179  134.0973  161.3857 C   0  0  0  0  0  0  0  0  0  0  0  0
  147.0605  134.6055  162.7655 C   0  0  2  0  0  0  0  0  0  0  0  0
  145.5484  134.8902  162.7181 C   0  0  0  0  0  0  0  0  0  0  0  0
  145.4734  136.1704  161.8666 C   0  0  0  0  0  0  0  0  0  0  0  0
  146.9513  136.4332  161.5098 C   0  0  1  0  0  0  0  0  0  0  0  0
  147.6442  136.0131  162.8026 C   0  0  0  0  0  0  0  0  0  0  0  0
  148.8334  134.0813  154.6991 C   0  0  0  0  0  0  0  0  0  0  0  0
  149.5536  135.0669  154.8506 O   0  0  0  0  0  0  0  0  0  0  0  0
  148.1873  133.8827  153.5283 N   0  0  0  0  0  0  0  0  0  0  0  0
  148.3166  134.5612  152.7921 H   0  0  0  0  0  0  0  0  0  0  0  0
  145.6504  132.8086  151.9920 H   0  0  0  0  0  0  0  0  0  0  0  0
  147.0157  131.8579  151.3948 H   0  0  0  0  0  0  0  0  0  0  0  0
  147.0680  133.6226  151.3196 H   0  0  0  0  0  0  0  0  0  0  0  0
  148.3784  130.3605  156.7070 H   0  0  0  0  0  0  0  0  0  0  0  0
  146.7651  130.1710  156.0242 H   0  0  0  0  0  0  0  0  0  0  0  0
  147.0239  131.3053  157.3446 H   0  0  0  0  0  0  0  0  0  0  0  0
  149.2269  132.2636  157.6176 H   0  0  0  0  0  0  0  0  0  0  0  0
  150.3714  133.3565  156.9337 H   0  0  0  0  0  0  0  0  0  0  0  0
  146.9602  133.4634  158.0212 H   0  0  0  0  0  0  0  0  0  0  0  0
  145.7715  134.8625  159.3410 H   0  0  0  0  0  0  0  0  0  0  0  0
  146.1109  137.3062  158.9686 H   0  0  0  0  0  0  0  0  0  0  0  0
  146.1759  136.4393  157.4444 H   0  0  0  0  0  0  0  0  0  0  0  0
  147.6667  136.9890  158.2056 H   0  0  0  0  0  0  0  0  0  0  0  0
  148.5435  135.6492  160.3103 H   0  0  0  0  0  0  0  0  0  0  0  0
  146.8523  133.3209  161.0062 H   0  0  0  0  0  0  0  0  0  0  0  0
  148.5228  133.6761  161.4334 H   0  0  0  0  0  0  0  0  0  0  0  0
  147.3581  133.9586  163.5912 H   0  0  0  0  0  0  0  0  0  0  0  0
  144.9848  134.0653  162.2808 H   0  0  0  0  0  0  0  0  0  0  0  0
  145.1538  135.0719  163.7186 H   0  0  0  0  0  0  0  0  0  0  0  0
  144.8275  136.0635  160.9964 H   0  0  0  0  0  0  0  0  0  0  0  0
  145.0764  136.9936  162.4617 H   0  0  0  0  0  0  0  0  0  0  0  0
  147.1507  137.4623  161.2091 H   0  0  0  0  0  0  0  0  0  0  0  0
  147.3269  136.5903  163.6730 H   0  0  0  0  0  0  0  0  0  0  0  0
  148.7337  136.0317  162.7398 H   0  0  0  0  0  0  0  0  0  0  0  0
  1  2  1  0  0  0  0
  1 24  1  0  0  0  0
  1 25  1  0  0  0  0
  1 26  1  0  0  0  0
  2 22  1  0  0  0  0
  2  3  2  0  0  0  0
  3  4  1  0  0  0  0
  4  5  1  0  0  0  0
  4  6  2  0  0  0  0
  5 27  1  0  0  0  0
  5 28  1  0  0  0  0
  5 29  1  0  0  0  0
  6  7  1  0  0  0  0
  6 20  1  0  0  0  0
  7  8  1  0  0  0  0
  7 30  1  0  0  0  0
  7 31  1  0  0  0  0
  8  9  2  0  0  0  0
  8 10  1  0  0  0  0
 10 11  1  0  0  0  0
 10 32  1  0  0  0  0
 11 12  1  0  0  0  0
 11 13  1  0  0  0  0
 11 33  1  0  0  0  0
 12 34  1  0  0  0  0
 12 35  1  0  0  0  0
 12 36  1  0  0  0  0
 13 18  1  0  0  0  0
 13 14  1  0  0  0  0
 13 37  1  0  0  0  0
 14 15  1  0  0  0  0
 14 38  1  0  0  0  0
 14 39  1  0  0  0  0
 15 19  1  0  0  0  0
 15 16  1  0  0  0  0
 15 40  1  0  0  0  0
 16 17  1  0  0  0  0
 16 41  1  0  0  0  0
 16 42  1  0  0  0  0
 17 18  1  0  0  0  0
 17 43  1  0  0  0  0
 17 44  1  0  0  0  0
 18 19  1  0  0  0  0
 18 45  1  0  0  0  0
 19 46  1  0  0  0  0
 19 47  1  0  0  0  0
 20 21  2  0  0  0  0
 20 22  1  0  0  0  0
 22 23  1  0  0  0  0
M  END
> <s_m_source_file>
AV-unprocessed.smi

> <i_m_source_file_index>
2124

> <i_lp_mmshare_version>
43012

> <i_f3d_flags>
0

> <s_epik_input>
W0NIM11jMW5jKFtDSDNdKWMoYyg9TylbbkhdMSlbQ0gyXUMoPU8pW05IXVtDQEhdKFtDSDNdKVtDQEhdKFtDSDJdW0NASF0yMylbQ0BIXShbQ0gyXTMpW0NIMl1bQ0gyXTI=

> <s_epik_cmdline>
J2VwaWtfcHl0aG9uJywgJy1waCcsICc3LjAnLCAnLXRuJywgJzgnLCAnLW1hJywgJzIwMCcsICctbWV0YWxfYmluZGluZycsICctaW1hZScsICc8aW5maWxlLm1hZT4nLCAnLW9tYWUnLCAnPG91dGZpbGUubWFlPic=

> <r_lp_tautomer_probability>
0.839158

> <r_epik_Ionization_Penalty>
0.000383628

> <r_epik_Ionization_Penalty_Charging>
0.00035045

> <r_epik_Ionization_Penalty_Neutral>
3.31781e-05

> <r_epik_State_Penalty>
0.09125

> <r_epik_Charging_Adjusted_Penalty>
0.0916005

> <i_epik_Tot_Q>
0

> <i_epik_Tot_abs_Q>
0

> <r_epik_Metal_State_Penalty>
0.255229

> <b_epik_Metal_Only>
0

> <s_lp_Force_Field>
OPLS_2005

> <r_lp_Energy>
53.1602

> <b_lp_Chiralities_Consistent>
1

> <s_lp_Variant>
AV-unprocessed.smi:2124-1

> <Gold.Version>
5.8.1

> <Gold.Id.Protein>
6NUR|6NUR_protein|mol2

> <Gold.PLP.Fitness>
36.8633

> <Gold.PLP.PLP>
-31.1471

> <Gold.PLP.part.hbond>
-2.0000

> <Gold.PLP.part.metal>
0.0000

> <Gold.PLP.part.buried>
-3.8546

> <Gold.PLP.part.nonpolar>
-26.3039

> <Gold.PLP.part.repulsive>
0.2551

> <Gold.PLP.ligand.clash>
0.0000

> <Gold.PLP.ligand.torsion>
0.1477

> <Gold.PLP.Chemscore.Hbond>
2.0000

> <Gold.PLP.Chemscore.CHOScore>
0.0000

> <Gold.PLP.Chemscore.Metal>
0.0000

> <Gold.Chemscore.Hbonds>
donor molecule, donor type, donor heavy atom, donor atom, acceptor molecule, acceptor atom, score
      L1  H    22    23       P1  7948  1.00
      P1  H  6896  6909       L1     9  1.00

> <Gold.PLP.Chemscore.Internal.Correction>
0.0116

> <Gold.Rescore>
     Score         DG    S(hbond)    S(metal)    S(lipo)     H(rot)  DE(clash)    DE(int)     intcor
     15.13     -16.19       1.85        0.00      74.98       1.65       0.06       1.00       ----

> <Gold.Chemscore.Fitness>
15.1322

> <Gold.Chemscore.DG>
-16.1851

> <Gold.Chemscore.ZeroCoef>
-5.4800

> <Gold.Chemscore.Hbond>
1.8458

> <Gold.Chemscore.Metal>
0.0000

> <Gold.Chemscore.Lipo>
74.9812

> <Gold.Chemscore.Internal_Hbond>
0.0000

> <Gold.Chemscore.DEClash>
0.0563

> <Gold.Chemscore.DEInternal>
0.9966

> <Gold.Chemscore.Rot>
1.6534

> <Gold.Chemscore.Internal.Correction>
   9.000000E+99

> <Gold.Chemscore.Hbonds>
donor molecule, donor type, donor heavy atom, donor atom, acceptor molecule, acceptor atom, score
      L1  H    22    23       P1  7948  0.34
      P1  H  6896  6909       L1     9  0.35

> <Gold.Chemscore.Hbond.Weighted>
-6.1649

> <Gold.Chemscore.Metal.Weighted>
-0.0000

> <Gold.Chemscore.Lipo.Weighted>
-8.7728

> <Gold.Chemscore.Internal_Hbond.Weighted>
0.0000

> <Gold.Chemscore.DEClash.Weighted>
0.0563

> <Gold.Chemscore.DEInternal.Weighted>
0.9966

> <Gold.Chemscore.Rot.Weighted>
4.2326

> <Gold.Chemscore.Internal.Correction.Weighted>
   9.000000E+99

> <Gold.Protein.RotatedTorsions>
[ 6907 6896 6895 6894 ] final   40.23 input  -60.11 | X-H torsion
[ 7974 7965 7964 7962 ] final  143.69 input  175.53 | X-H torsion
[ 8008 7997 7996 7995 ] final  148.25 input   59.86 | X-H torsion
[ 10167 10162 10161 10158 ] final  126.52 input  -65.29 | X-H torsion
[ 10718 10713 10712 10709 ] final   10.75 input   66.30 | X-H torsion
[ 10763 10752 10751 10750 ] final -137.91 input  -60.55 | X-H torsion
[ 11005 11000 10999 10996 ] final   46.67 input  -57.11 | X-H torsion

> <Gold.Protein.ActiveResidues>
 VAL166  LYS551  ARG553  GLY616  TRP617  ASP618  TYR619  PRO620  LYS621  CYS622 
 ASP623  PHE694  ASN695  SER759  ASP760  ASP761  ALA762  ILE779  LEU786  VAL792 
 PHE793  MET794  SER795  GLU796  ALA797  LYS798  CYS799  TRP800  GLU811  SER814 

> <Gold.Protein.RotatedAtoms>
  152.1798  134.8764  160.0527 H   0  0  0  0  0  0  0  0  0  0  0  0  # atno 6907 bound_to 6896
  151.9693  133.3715  159.4073 H   0  0  0  0  0  0  0  0  0  0  0  0  # atno 6908 bound_to 6896
  150.6915  134.4081  159.5193 H   0  0  0  0  0  0  0  0  0  0  0  0  # atno 6909 bound_to 6896
  144.8900  139.5573  143.5803 H   0  0  0  0  0  0  0  0  0  0  0  0  # atno 7974 bound_to 7965
  156.2797  140.2134  156.5668 H   0  0  0  0  0  0  0  0  0  0  0  0  # atno 8008 bound_to 7997
  154.7168  140.0507  157.0625 H   0  0  0  0  0  0  0  0  0  0  0  0  # atno 8009 bound_to 7997
  155.0532  140.3158  155.4688 H   0  0  0  0  0  0  0  0  0  0  0  0  # atno 8010 bound_to 7997
  139.5627  144.6892  151.3998 H   0  0  0  0  0  0  0  0  0  0  0  0  # atno 10167 bound_to 10162
  156.9855  130.6022  149.5681 H   0  0  0  0  0  0  0  0  0  0  0  0  # atno 10718 bound_to 10713
  154.8650  135.3628  154.5299 H   0  0  0  0  0  0  0  0  0  0  0  0  # atno 10763 bound_to 10752
  153.5925  135.7015  153.5422 H   0  0  0  0  0  0  0  0  0  0  0  0  # atno 10764 bound_to 10752
  153.3361  135.4111  155.1496 H   0  0  0  0  0  0  0  0  0  0  0  0  # atno 10765 bound_to 10752
  140.1348  134.4659  155.8494 H   0  0  0  0  0  0  0  0  0  0  0  0  # atno 11005 bound_to 11000
  146.3048  139.7542  142.9065 LP  0  0  0  0  0  0  0  0  0  0  0  0  # atno 17320 bound_to 7965
  145.3801  141.0357  143.3182 LP  0  0  0  0  0  0  0  0  0  0  0  0  # atno 17321 bound_to 7965
  140.6908  143.7866  150.7252 LP  0  0  0  0  0  0  0  0  0  0  0  0  # atno 17342 bound_to 10162
  140.1348  143.4494  152.2231 LP  0  0  0  0  0  0  0  0  0  0  0  0  # atno 17343 bound_to 10162
  156.0228  130.5322  150.8322 LP  0  0  0  0  0  0  0  0  0  0  0  0  # atno 17370 bound_to 10713
  157.5496  131.0943  150.9714 LP  0  0  0  0  0  0  0  0  0  0  0  0  # atno 17371 bound_to 10713
  141.2176  133.6810  156.7136 LP  0  0  0  0  0  0  0  0  0  0  0  0  # atno 17394 bound_to 11000
  140.2797  134.8327  157.3922 LP  0  0  0  0  0  0  0  0  0  0  0  0  # atno 17395 bound_to 11000

$$$$
