AV-unprocessed.smi:2032|AV-procd|sdf|8234|dock5
  -GOLD-   2272010503D 1   1.00000     0.00000
 Structure written by MMmdl.
 42 43  0  0  0  0  0  0  0  0  1 V2000
  151.1266  142.0809  157.7271 C   0  0  0  0  0  0  0  0  0  0  0  0
  150.8525  141.7463  156.2569 C   0  0  1  0  0  0  0  0  0  0  0  0
  151.4755  140.3999  155.8417 C   0  0  0  0  0  0  0  0  0  0  0  0
  151.1604  140.0235  154.4590 N   0  0  0  0  0  0  0  0  0  0  0  0
  151.7348  138.7114  154.0786 C   0  0  1  0  0  0  0  0  0  0  0  0
  153.2835  138.7302  154.0196 C   0  0  0  0  0  0  0  0  0  0  0  0
  151.2857  137.5463  155.0080 C   0  0  0  0  0  0  0  0  0  0  0  0
  150.8273  136.3661  154.2799 N   0  0  0  0  0  0  0  0  0  0  0  0
  151.1393  135.1003  154.5944 C   0  0  0  0  0  0  0  0  0  0  0  0
  151.8505  134.7950  155.5522 O   0  0  0  0  0  0  0  0  0  0  0  0
  150.5785  134.2323  153.7342 N   0  0  0  0  0  0  0  0  0  0  0  0
  150.6876  132.8169  153.7194 C   0  0  0  0  0  0  0  0  0  0  0  0
  150.0651  132.0204  152.8425 N   0  0  0  0  0  0  0  0  0  0  0  0
  150.3510  130.6710  153.0649 C   0  0  0  0  0  0  0  0  0  0  0  0
  151.1987  130.4564  154.1230 C   0  0  0  0  0  0  0  0  0  0  0  0
  151.6764  131.9499  154.8851 S   0  0  0  0  0  0  0  0  0  0  0  0
  149.7018  140.0597  154.3048 C   0  0  0  0  0  0  0  0  0  0  0  0
  149.0833  141.4071  154.7229 C   0  0  1  0  0  0  0  0  0  0  0  0
  147.5538  141.3938  154.6304 C   0  0  0  0  0  0  0  0  0  0  0  0
  149.4446  141.6881  156.0689 O   0  0  0  0  0  0  0  0  0  0  0  0
  152.1971  142.1549  157.9198 H   0  0  0  0  0  0  0  0  0  0  0  0
  150.7190  141.3159  158.3885 H   0  0  0  0  0  0  0  0  0  0  0  0
  150.6732  143.0340  158.0005 H   0  0  0  0  0  0  0  0  0  0  0  0
  151.2610  142.5450  155.6353 H   0  0  0  0  0  0  0  0  0  0  0  0
  152.5502  140.4987  155.9771 H   0  0  0  0  0  0  0  0  0  0  0  0
  151.1395  139.6158  156.5224 H   0  0  0  0  0  0  0  0  0  0  0  0
  151.3824  138.4746  153.0736 H   0  0  0  0  0  0  0  0  0  0  0  0
  153.7038  137.7505  153.7952 H   0  0  0  0  0  0  0  0  0  0  0  0
  153.7098  139.0593  154.9677 H   0  0  0  0  0  0  0  0  0  0  0  0
  153.6598  139.3852  153.2351 H   0  0  0  0  0  0  0  0  0  0  0  0
  152.1117  137.2477  155.6541 H   0  0  0  0  0  0  0  0  0  0  0  0
  150.4704  137.8376  155.6684 H   0  0  0  0  0  0  0  0  0  0  0  0
  150.2351  136.5278  153.4786 H   0  0  0  0  0  0  0  0  0  0  0  0
  150.0178  134.6312  152.9959 H   0  0  0  0  0  0  0  0  0  0  0  0
  149.9058  129.9268  152.4211 H   0  0  0  0  0  0  0  0  0  0  0  0
  151.5696  129.5144  154.4983 H   0  0  0  0  0  0  0  0  0  0  0  0
  149.4243  139.8915  153.2658 H   0  0  0  0  0  0  0  0  0  0  0  0
  149.2503  139.2555  154.8879 H   0  0  0  0  0  0  0  0  0  0  0  0
  149.4656  142.2011  154.0789 H   0  0  0  0  0  0  0  0  0  0  0  0
  147.2243  141.1891  153.6115 H   0  0  0  0  0  0  0  0  0  0  0  0
  147.1371  142.3562  154.9273 H   0  0  0  0  0  0  0  0  0  0  0  0
  147.1257  140.6306  155.2809 H   0  0  0  0  0  0  0  0  0  0  0  0
  1  2  1  0  0  0  0
  1 21  1  0  0  0  0
  1 22  1  0  0  0  0
  1 23  1  0  0  0  0
  2 20  1  0  0  0  0
  2  3  1  0  0  0  0
  2 24  1  0  0  0  0
  3  4  1  0  0  0  0
  3 25  1  0  0  0  0
  3 26  1  0  0  0  0
  4  5  1  0  0  0  0
  4 17  1  0  0  0  0
  5  6  1  0  0  0  0
  5  7  1  0  0  0  0
  5 27  1  0  0  0  0
  6 28  1  0  0  0  0
  6 29  1  0  0  0  0
  6 30  1  0  0  0  0
  7  8  1  0  0  0  0
  7 31  1  0  0  0  0
  7 32  1  0  0  0  0
  8  9  1  0  0  0  0
  8 33  1  0  0  0  0
  9 10  2  0  0  0  0
  9 11  1  0  0  0  0
 11 12  1  0  0  0  0
 11 34  1  0  0  0  0
 12 16  1  0  0  0  0
 12 13  2  0  0  0  0
 13 14  1  0  0  0  0
 14 15  2  0  0  0  0
 14 35  1  0  0  0  0
 15 16  1  0  0  0  0
 15 36  1  0  0  0  0
 17 18  1  0  0  0  0
 17 37  1  0  0  0  0
 17 38  1  0  0  0  0
 18 19  1  0  0  0  0
 18 20  1  0  0  0  0
 18 39  1  0  0  0  0
 19 40  1  0  0  0  0
 19 41  1  0  0  0  0
 19 42  1  0  0  0  0
M  END
> <s_m_source_file>
AV-unprocessed.smi

> <i_m_source_file_index>
2032

> <i_lp_mmshare_version>
43012

> <i_f3d_flags>
0

> <s_epik_input>
W0NIM11bQ0BASF0xW0NIMl1OKFtDSDJdW0NASF0oTzEpW0NIM10pW0NASF0oW0NIM10pW0NIMl1bTkhdQyg9TylbTkhdYzJuW2NIXVtjSF1zMg==

> <s_epik_cmdline>
J2VwaWtfcHl0aG9uJywgJy1waCcsICc3LjAnLCAnLXRuJywgJzgnLCAnLW1hJywgJzIwMCcsICctbWV0YWxfYmluZGluZycsICctaW1hZScsICc8aW5maWxlLm1hZT4nLCAnLW9tYWUnLCAnPG91dGZpbGUubWFlPic=

> <r_lp_tautomer_probability>
0.999

> <r_epik_Ionization_Penalty>
0.219202

> <r_epik_Ionization_Penalty_Charging>
0

> <r_epik_Ionization_Penalty_Neutral>
0.219202

> <r_epik_State_Penalty>
0.209349

> <r_epik_Charging_Adjusted_Penalty>
0.209349

> <i_epik_Tot_Q>
0

> <i_epik_Tot_abs_Q>
0

> <r_epik_Metal_State_Penalty>
0.247737

> <b_epik_Metal_Only>
0

> <s_lp_Force_Field>
OPLS_2005

> <r_lp_Energy>
24.906

> <b_lp_Chiralities_Consistent>
1

> <s_lp_Variant>
AV-unprocessed.smi:2032-4

> <Gold.Version>
5.8.1

> <Gold.Id.Protein>
6NUR|6NUR_protein|mol2

> <Gold.PLP.Fitness>
45.7147

> <Gold.PLP.PLP>
-38.3664

> <Gold.PLP.part.hbond>
-3.1005

> <Gold.PLP.part.metal>
0.0000

> <Gold.PLP.part.buried>
-4.3924

> <Gold.PLP.part.nonpolar>
-32.6596

> <Gold.PLP.part.repulsive>
1.7626

> <Gold.PLP.ligand.clash>
0.0000

> <Gold.PLP.ligand.torsion>
0.7925

> <Gold.PLP.Chemscore.Hbond>
2.7800

> <Gold.PLP.Chemscore.CHOScore>
0.1870

> <Gold.PLP.Chemscore.Metal>
0.0000

> <Gold.Chemscore.Hbonds>
donor molecule, donor type, donor heavy atom, donor atom, acceptor molecule, acceptor atom, score
      L1  H     8    33       P1  7948  0.55
      P1  H  7989  7998       L1     4  0.59

> <Gold.PLP.Chemscore.Internal.Correction>
0.0322

> <Gold.Rescore>
     Score         DG    S(hbond)    S(metal)    S(lipo)     H(rot)  DE(clash)    DE(int)     intcor
     13.40     -16.09       1.66        0.00      77.83       1.57       0.61       2.08       ----

> <Gold.Chemscore.Fitness>
13.4045

> <Gold.Chemscore.DG>
-16.0897

> <Gold.Chemscore.ZeroCoef>
-5.4800

> <Gold.Chemscore.Hbond>
1.6574

> <Gold.Chemscore.Metal>
0.0000

> <Gold.Chemscore.Lipo>
77.8289

> <Gold.Chemscore.Internal_Hbond>
0.0000

> <Gold.Chemscore.DEClash>
0.6082

> <Gold.Chemscore.DEInternal>
2.0770

> <Gold.Chemscore.Rot>
1.5750

> <Gold.Chemscore.Internal.Correction>
   9.000000E+99

> <Gold.Chemscore.Hbonds>
donor molecule, donor type, donor heavy atom, donor atom, acceptor molecule, acceptor atom, score
      L1  H     8    33       P1  7948  0.03
      P1  H  7989  7998       L1     4  0.11

> <Gold.Chemscore.Hbond.Weighted>
-5.5356

> <Gold.Chemscore.Metal.Weighted>
-0.0000

> <Gold.Chemscore.Lipo.Weighted>
-9.1060

> <Gold.Chemscore.Internal_Hbond.Weighted>
0.0000

> <Gold.Chemscore.DEClash.Weighted>
0.6082

> <Gold.Chemscore.DEInternal.Weighted>
2.0770

> <Gold.Chemscore.Rot.Weighted>
4.0319

> <Gold.Chemscore.Internal.Correction.Weighted>
   9.000000E+99

> <Gold.Protein.RotatedTorsions>
[ 6907 6896 6895 6894 ] final -149.95 input  -60.11 | X-H torsion
[ 7974 7965 7964 7962 ] final    6.10 input  175.53 | X-H torsion
[ 8008 7997 7996 7995 ] final -177.31 input   59.86 | X-H torsion
[ 10167 10162 10161 10158 ] final  -18.01 input  -65.29 | X-H torsion
[ 10718 10713 10712 10709 ] final -115.13 input   66.30 | X-H torsion
[ 10763 10752 10751 10750 ] final   23.17 input  -60.55 | X-H torsion
[ 11005 11000 10999 10996 ] final -160.98 input  -57.11 | X-H torsion

> <Gold.Protein.ActiveResidues>
 VAL166  LYS551  ARG553  GLY616  TRP617  ASP618  TYR619  PRO620  LYS621  CYS622 
 ASP623  PHE694  ASN695  SER759  ASP760  ASP761  ALA762  ILE779  LEU786  VAL792 
 PHE793  MET794  SER795  GLU796  ALA797  LYS798  CYS799  TRP800  GLU811  SER814 

> <Gold.Protein.RotatedAtoms>
  151.1915  133.4664  159.2594 H   0  0  0  0  0  0  0  0  0  0  0  0  # atno 6907 bound_to 6896
  151.1159  135.0052  159.8526 H   0  0  0  0  0  0  0  0  0  0  0  0  # atno 6908 bound_to 6896
  152.5453  134.1830  159.8696 H   0  0  0  0  0  0  0  0  0  0  0  0  # atno 6909 bound_to 6896
  146.2437  140.0285  142.8392 H   0  0  0  0  0  0  0  0  0  0  0  0  # atno 7974 bound_to 7965
  156.0054  140.1229  157.0506 H   0  0  0  0  0  0  0  0  0  0  0  0  # atno 8008 bound_to 7997
  154.4257  140.1098  156.5824 H   0  0  0  0  0  0  0  0  0  0  0  0  # atno 8009 bound_to 7997
  155.6154  140.3472  155.4637 H   0  0  0  0  0  0  0  0  0  0  0  0  # atno 8010 bound_to 7997
  140.7254  143.4959  150.9931 H   0  0  0  0  0  0  0  0  0  0  0  0  # atno 10167 bound_to 10162
  156.0875  130.6064  150.8866 H   0  0  0  0  0  0  0  0  0  0  0  0  # atno 10718 bound_to 10713
  153.0859  135.6633  153.9951 H   0  0  0  0  0  0  0  0  0  0  0  0  # atno 10763 bound_to 10752
  153.9560  135.2979  155.3437 H   0  0  0  0  0  0  0  0  0  0  0  0  # atno 10764 bound_to 10752
  154.7267  135.5141  153.8969 H   0  0  0  0  0  0  0  0  0  0  0  0  # atno 10765 bound_to 10752
  140.6255  134.4706  157.5226 H   0  0  0  0  0  0  0  0  0  0  0  0  # atno 11005 bound_to 11000
  145.1176  140.9443  143.4619 LP  0  0  0  0  0  0  0  0  0  0  0  0  # atno 17320 bound_to 7965
  145.0513  139.3179  143.5927 LP  0  0  0  0  0  0  0  0  0  0  0  0  # atno 17321 bound_to 7965
  139.8666  143.7246  152.3169 LP  0  0  0  0  0  0  0  0  0  0  0  0  # atno 17342 bound_to 10162
  139.7480  144.7542  151.0550 LP  0  0  0  0  0  0  0  0  0  0  0  0  # atno 17343 bound_to 10162
  157.6014  131.0941  150.8953 LP  0  0  0  0  0  0  0  0  0  0  0  0  # atno 17370 bound_to 10713
  156.9110  130.5280  149.5280 LP  0  0  0  0  0  0  0  0  0  0  0  0  # atno 17371 bound_to 10713
  139.9136  134.8292  156.1441 LP  0  0  0  0  0  0  0  0  0  0  0  0  # atno 17394 bound_to 11000
  141.0712  133.6796  156.2145 LP  0  0  0  0  0  0  0  0  0  0  0  0  # atno 17395 bound_to 11000

$$$$
