AV-unprocessed.smi:160|AV-procd|sdf|1368|dock8
  -GOLD-   2262019 83D 1   1.00000     0.00000
 Structure written by MMmdl.
 28 29  0  0  0  0  0  0  0  0  2 V2000
  141.0201  139.2236  153.0848 N   0  5  0  0  0  0  0  0  0  0  0  0
  140.6495  138.0344  153.6081 C   0  0  0  0  0  0  0  0  0  0  0  0
  139.5683  137.7774  154.1367 O   0  0  0  0  0  0  0  0  0  0  0  0
  141.6986  136.9522  153.5085 C   0  0  0  0  0  0  0  0  0  0  0  0
  141.4325  135.6815  153.9383 N   0  0  0  0  0  0  0  0  0  0  0  0
  142.6010  135.1159  153.6664 C   0  0  0  0  0  0  0  0  0  0  0  0
  143.4936  135.9416  153.1082 N   0  0  0  0  0  0  0  0  0  0  0  0
  144.9188  135.7296  152.6961 C   0  0  1  0  0  0  0  0  0  0  0  0
  145.2364  134.3832  152.8630 O   0  0  0  0  0  0  0  0  0  0  0  0
  144.9105  133.6763  151.6739 C   0  0  2  0  0  0  0  0  0  0  0  0
  145.6746  132.3439  151.6321 C   0  0  0  0  0  0  0  0  0  0  0  0
  147.0657  132.5801  151.5847 O   0  0  0  0  0  0  0  0  0  0  0  0
  145.3403  134.6611  150.5797 C   0  0  1  0  0  0  0  0  0  0  0  0
  144.5385  134.4880  149.4287 O   0  0  0  0  0  0  0  0  0  0  0  0
  145.1022  136.0399  151.1986 C   0  0  2  0  0  0  0  0  0  0  0  0
  146.2159  136.8818  150.9793 O   0  0  0  0  0  0  0  0  0  0  0  0
  142.9222  137.1669  153.0147 N   0  0  0  0  0  0  0  0  0  0  0  0
  145.4897  136.3682  153.3717 H   0  0  0  0  0  0  0  0  0  0  0  0
  143.8320  133.5114  151.6267 H   0  0  0  0  0  0  0  0  0  0  0  0
  146.3939  134.5194  150.3322 H   0  0  0  0  0  0  0  0  0  0  0  0
  144.2090  136.5210  150.7965 H   0  0  0  0  0  0  0  0  0  0  0  0
  140.8144  139.4070  152.0956 H   0  0  0  0  0  0  0  0  0  0  0  0
  142.8088  134.0783  153.8821 H   0  0  0  0  0  0  0  0  0  0  0  0
  145.4724  131.7686  152.5362 H   0  0  0  0  0  0  0  0  0  0  0  0
  145.3628  131.7344  150.7834 H   0  0  0  0  0  0  0  0  0  0  0  0
  147.4451  132.0087  150.9347 H   0  0  0  0  0  0  0  0  0  0  0  0
  145.1061  134.3087  148.6946 H   0  0  0  0  0  0  0  0  0  0  0  0
  147.0006  136.3945  151.1802 H   0  0  0  0  0  0  0  0  0  0  0  0
  1  2  1  0  0  0  0
  1 22  1  0  0  0  0
  2  3  2  0  0  0  0
  2  4  1  0  0  0  0
  4 17  2  0  0  0  0
  4  5  1  0  0  0  0
  5  6  2  0  0  0  0
  6  7  1  0  0  0  0
  6 23  1  0  0  0  0
  7  8  1  0  0  0  0
  7 17  1  0  0  0  0
  8 18  1  0  0  0  0
  8 15  1  0  0  0  0
  8  9  1  0  0  0  0
  9 10  1  0  0  0  0
 10 19  1  0  0  0  0
 10 11  1  0  0  0  0
 10 13  1  0  0  0  0
 11 12  1  0  0  0  0
 11 24  1  0  0  0  0
 11 25  1  0  0  0  0
 12 26  1  0  0  0  0
 13 20  1  0  0  0  0
 13 14  1  0  0  0  0
 13 15  1  0  0  0  0
 14 27  1  0  0  0  0
 15 21  1  0  0  0  0
 15 16  1  0  0  0  0
 16 28  1  0  0  0  0
M  CHG  1   1  -1
M  END
> <s_m_source_file>
AV-unprocessed.smi

> <i_m_source_file_index>
160

> <i_lp_mmshare_version>
43012

> <i_f3d_flags>
0

> <s_epik_input>
W05IMl1DKD1PKWMxbltjSF1uKG4xKVtDQEBIXTJPW0NASF0oW0NIMl1bT0hdKVtDQEBIXShbT0hdKVtDQEhdMltPSF0=

> <s_epik_cmdline>
J2VwaWtfcHl0aG9uJywgJy1waCcsICc3LjAnLCAnLXRuJywgJzgnLCAnLW1hJywgJzIwMCcsICctbWV0YWxfYmluZGluZycsICctaW1hZScsICc8aW5maWxlLm1hZT4nLCAnLW9tYWUnLCAnPG91dGZpbGUubWFlPic=

> <r_lp_tautomer_probability>
1

> <r_epik_Ionization_Penalty>
6.6993

> <r_epik_Ionization_Penalty_Charging>
6.6993

> <r_epik_Ionization_Penalty_Neutral>
6.01698e-06

> <r_epik_State_Penalty>
6.69929

> <r_epik_Charging_Adjusted_Penalty>
13.3986

> <i_epik_Tot_Q>
-1

> <i_epik_Tot_abs_Q>
1

> <r_epik_Metal_State_Penalty>
2.62798

> <b_epik_Metal_Only>
1

> <s_epik_Chemistry_Notes>
This compound contains an acetal/aminal-like group ( X-CH(R)-Y where X, Y are N, S, or O) that may be acid/base labile, releasing an aldehyde.

> <s_lp_Force_Field>
OPLS_2005

> <r_lp_Energy>
37.5232

> <b_lp_Chiralities_Consistent>
1

> <s_lp_Variant>
AV-unprocessed.smi:160-26

> <Gold.Version>
5.8.1

> <Gold.Id.Protein>
6NUR|6NUR_protein|mol2

> <Gold.PLP.Fitness>
41.6676

> <Gold.PLP.PLP>
-26.7338

> <Gold.PLP.part.hbond>
-5.4167

> <Gold.PLP.part.metal>
0.0000

> <Gold.PLP.part.buried>
-6.2485

> <Gold.PLP.part.nonpolar>
-14.9531

> <Gold.PLP.part.repulsive>
0.4688

> <Gold.PLP.ligand.clash>
0.0000

> <Gold.PLP.ligand.torsion>
0.0539

> <Gold.PLP.Chemscore.Hbond>
4.0000

> <Gold.PLP.Chemscore.CHOScore>
1.0000

> <Gold.PLP.Chemscore.Metal>
0.0000

> <Gold.Chemscore.Hbonds>
donor molecule, donor type, donor heavy atom, donor atom, acceptor molecule, acceptor atom, score
      L1  H     1    22       P1 10160  1.00
      L1  H    12    26       P1 10747  1.00
      L1  H    14    27       P1  7921  1.00
      L1  H    16    28       P1  7948  1.00
      L1  C     6    23       P1 10957  1.00

> <Gold.PLP.Chemscore.Internal.Correction>
0.0415

> <Gold.Rescore>
     Score         DG    S(hbond)    S(metal)    S(lipo)     H(rot)  DE(clash)    DE(int)     intcor
     11.51     -11.56       4.13        0.00      22.36       4.04       0.00       0.05       ----

> <Gold.Chemscore.Fitness>
11.5128

> <Gold.Chemscore.DG>
-11.5616

> <Gold.Chemscore.ZeroCoef>
-5.4800

> <Gold.Chemscore.Hbond>
4.1343

> <Gold.Chemscore.Metal>
0.0000

> <Gold.Chemscore.Lipo>
22.3599

> <Gold.Chemscore.Internal_Hbond>
0.0000

> <Gold.Chemscore.DEClash>
0.0000

> <Gold.Chemscore.DEInternal>
0.0489

> <Gold.Chemscore.Rot>
4.0403

> <Gold.Chemscore.Internal.Correction>
   9.000000E+99

> <Gold.Chemscore.Hbonds>
donor molecule, donor type, donor heavy atom, donor atom, acceptor molecule, acceptor atom, score
      L1  H     1    22       P1 10160  0.94
      L1  H    12    26       P1 10747  0.89
      L1  H    14    27       P1  7921  0.91
      L1  H    16    28       P1  7948  0.91

> <Gold.Chemscore.Hbond.Weighted>
-13.8086

> <Gold.Chemscore.Metal.Weighted>
-0.0000

> <Gold.Chemscore.Lipo.Weighted>
-2.6161

> <Gold.Chemscore.Internal_Hbond.Weighted>
0.0000

> <Gold.Chemscore.DEClash.Weighted>
0.0000

> <Gold.Chemscore.DEInternal.Weighted>
0.0489

> <Gold.Chemscore.Rot.Weighted>
10.3431

> <Gold.Chemscore.Internal.Correction.Weighted>
   9.000000E+99

> <Gold.Protein.RotatedTorsions>
[ 6907 6896 6895 6894 ] final -177.77 input  -60.11 | X-H torsion
[ 7974 7965 7964 7962 ] final  -87.97 input  175.53 | X-H torsion
[ 8008 7997 7996 7995 ] final  124.51 input   59.86 | X-H torsion
[ 10167 10162 10161 10158 ] final -132.64 input  -65.29 | X-H torsion
[ 10718 10713 10712 10709 ] final  -96.04 input   66.30 | X-H torsion
[ 10763 10752 10751 10750 ] final -152.23 input  -60.55 | X-H torsion
[ 11005 11000 10999 10996 ] final   46.54 input  -57.11 | X-H torsion

> <Gold.Protein.ActiveResidues>
 VAL166  LYS551  ARG553  GLY616  TRP617  ASP618  TYR619  PRO620  LYS621  CYS622 
 ASP623  PHE694  ASN695  SER759  ASP760  ASP761  ALA762  ILE779  LEU786  VAL792 
 PHE793  MET794  SER795  GLU796  ALA797  LYS798  CYS799  TRP800  GLU811  SER814 

> <Gold.Protein.RotatedAtoms>
  151.6264  133.3335  159.3099 H   0  0  0  0  0  0  0  0  0  0  0  0  # atno 6907 bound_to 6896
  150.8079  134.7219  159.6672 H   0  0  0  0  0  0  0  0  0  0  0  0  # atno 6908 bound_to 6896
  152.4175  134.6020  160.0054 H   0  0  0  0  0  0  0  0  0  0  0  0  # atno 6909 bound_to 6896
  145.4593  140.9561  143.1978 H   0  0  0  0  0  0  0  0  0  0  0  0  # atno 7974 bound_to 7965
  156.2804  140.2738  156.1800 H   0  0  0  0  0  0  0  0  0  0  0  0  # atno 8008 bound_to 7997
  155.0566  140.0386  157.2580 H   0  0  0  0  0  0  0  0  0  0  0  0  # atno 8009 bound_to 7997
  154.7151  140.2676  155.6598 H   0  0  0  0  0  0  0  0  0  0  0  0  # atno 8010 bound_to 7997
  139.9064  143.6546  152.2584 H   0  0  0  0  0  0  0  0  0  0  0  0  # atno 10167 bound_to 10162
  156.0054  130.5134  150.6166 H   0  0  0  0  0  0  0  0  0  0  0  0  # atno 10718 bound_to 10713
  154.8007  135.3241  154.7556 H   0  0  0  0  0  0  0  0  0  0  0  0  # atno 10763 bound_to 10752
  153.8224  135.6886  153.4829 H   0  0  0  0  0  0  0  0  0  0  0  0  # atno 10764 bound_to 10752
  153.1723  135.4618  154.9862 H   0  0  0  0  0  0  0  0  0  0  0  0  # atno 10765 bound_to 10752
  140.1359  134.4645  155.8485 H   0  0  0  0  0  0  0  0  0  0  0  0  # atno 11005 bound_to 11000
  144.8012  139.6137  143.7070 LP  0  0  0  0  0  0  0  0  0  0  0  0  # atno 17320 bound_to 7965
  146.2460  139.6099  142.9459 LP  0  0  0  0  0  0  0  0  0  0  0  0  # atno 17321 bound_to 7965
  139.6980  144.7639  151.1322 LP  0  0  0  0  0  0  0  0  0  0  0  0  # atno 17342 bound_to 10162
  140.7695  143.5497  150.9219 LP  0  0  0  0  0  0  0  0  0  0  0  0  # atno 17343 bound_to 10162
  157.3989  131.0807  151.1327 LP  0  0  0  0  0  0  0  0  0  0  0  0  # atno 17370 bound_to 10713
  157.1995  130.6388  149.5733 LP  0  0  0  0  0  0  0  0  0  0  0  0  # atno 17371 bound_to 10713
  141.2178  133.6814  156.7157 LP  0  0  0  0  0  0  0  0  0  0  0  0  # atno 17394 bound_to 11000
  140.2782  134.8337  157.3910 LP  0  0  0  0  0  0  0  0  0  0  0  0  # atno 17395 bound_to 11000

$$$$
