AV-unprocessed.smi:1266|AV-procd|sdf|5321|dock10
  -GOLD-   22720 4443D 1   1.00000     0.00000
 Structure written by MMmdl.
 40 41  0  0  0  0  0  0  0  0  3 V2000
  151.0583  140.4302  155.2584 O   0  0  0  0  0  0  0  0  0  0  0  0
  150.2125  141.3255  155.2825 C   0  0  0  0  0  0  0  0  0  0  0  0
  149.0054  141.2974  154.3341 C   0  0  0  0  0  0  0  0  0  0  0  0
  147.7437  141.7042  154.9758 N   0  0  0  0  0  0  0  0  0  0  0  0
  146.9574  142.6551  154.2954 C   0  0  0  0  0  0  0  0  0  0  0  0
  145.7845  143.0992  154.7881 C   0  0  0  0  0  0  0  0  0  0  0  0
  144.9926  144.0795  154.0779 N   0  3  0  0  0  0  0  0  0  0  0  0
  145.3749  144.4576  152.9752 O   0  0  0  0  0  0  0  0  0  0  0  0
  143.9647  144.5045  154.5972 O   0  5  0  0  0  0  0  0  0  0  0  0
  145.3415  142.5625  156.0603 C   0  0  0  0  0  0  0  0  0  0  0  0
  146.0919  141.6575  156.7190 C   0  0  0  0  0  0  0  0  0  0  0  0
  147.3712  141.1804  156.1838 C   0  0  0  0  0  0  0  0  0  0  0  0
  148.0647  140.3593  156.7841 O   0  0  0  0  0  0  0  0  0  0  0  0
  150.2670  142.3678  156.1262 N   0  0  0  0  0  0  0  0  0  0  0  0
  151.3142  142.6086  157.1163 C   0  0  0  0  0  0  0  0  0  0  0  0
  150.9627  141.8381  158.4065 C   0  0  0  0  0  0  0  0  0  0  0  0
  152.1399  141.7322  159.3911 C   0  0  0  0  0  0  0  0  0  0  0  0
  152.2949  142.9074  160.3725 C   0  0  0  0  0  0  0  0  0  0  0  0
  152.0381  144.3146  159.8060 C   0  0  0  0  0  0  0  0  0  0  0  0
  152.5248  144.5431  158.3661 C   0  0  0  0  0  0  0  0  0  0  0  0
  151.4827  144.1294  157.3129 C   0  0  0  0  0  0  0  0  0  0  0  0
  149.2261  141.9441  153.4837 H   0  0  0  0  0  0  0  0  0  0  0  0
  148.9060  140.2960  153.9108 H   0  0  0  0  0  0  0  0  0  0  0  0
  147.3775  142.9968  153.3602 H   0  0  0  0  0  0  0  0  0  0  0  0
  144.4055  142.8822  156.4942 H   0  0  0  0  0  0  0  0  0  0  0  0
  145.7433  141.2714  157.6656 H   0  0  0  0  0  0  0  0  0  0  0  0
  149.5270  143.0531  156.0764 H   0  0  0  0  0  0  0  0  0  0  0  0
  152.2513  142.2029  156.7302 H   0  0  0  0  0  0  0  0  0  0  0  0
  150.0853  142.2639  158.8949 H   0  0  0  0  0  0  0  0  0  0  0  0
  150.6819  140.8215  158.1270 H   0  0  0  0  0  0  0  0  0  0  0  0
  152.0253  140.8214  159.9801 H   0  0  0  0  0  0  0  0  0  0  0  0
  153.0676  141.5948  158.8344 H   0  0  0  0  0  0  0  0  0  0  0  0
  151.6265  142.7560  161.2207 H   0  0  0  0  0  0  0  0  0  0  0  0
  153.3032  142.8693  160.7869 H   0  0  0  0  0  0  0  0  0  0  0  0
  150.9739  144.5448  159.8689 H   0  0  0  0  0  0  0  0  0  0  0  0
  152.5250  145.0351  160.4641 H   0  0  0  0  0  0  0  0  0  0  0  0
  152.7110  145.6103  158.2412 H   0  0  0  0  0  0  0  0  0  0  0  0
  153.4824  144.0519  158.1898 H   0  0  0  0  0  0  0  0  0  0  0  0
  151.7773  144.5697  156.3594 H   0  0  0  0  0  0  0  0  0  0  0  0
  150.5205  144.5820  157.5569 H   0  0  0  0  0  0  0  0  0  0  0  0
  1  2  2  0  0  0  0
  2  3  1  0  0  0  0
  2 14  1  0  0  0  0
  3  4  1  0  0  0  0
  3 22  1  0  0  0  0
  3 23  1  0  0  0  0
  4 12  1  0  0  0  0
  4  5  1  0  0  0  0
  5  6  2  0  0  0  0
  5 24  1  0  0  0  0
  6  7  1  0  0  0  0
  6 10  1  0  0  0  0
  7  8  2  0  0  0  0
  7  9  1  0  0  0  0
 10 11  2  0  0  0  0
 10 25  1  0  0  0  0
 11 12  1  0  0  0  0
 11 26  1  0  0  0  0
 12 13  2  0  0  0  0
 14 15  1  0  0  0  0
 14 27  1  0  0  0  0
 15 21  1  0  0  0  0
 15 16  1  0  0  0  0
 15 28  1  0  0  0  0
 16 17  1  0  0  0  0
 16 29  1  0  0  0  0
 16 30  1  0  0  0  0
 17 18  1  0  0  0  0
 17 31  1  0  0  0  0
 17 32  1  0  0  0  0
 18 19  1  0  0  0  0
 18 33  1  0  0  0  0
 18 34  1  0  0  0  0
 19 20  1  0  0  0  0
 19 35  1  0  0  0  0
 19 36  1  0  0  0  0
 20 21  1  0  0  0  0
 20 37  1  0  0  0  0
 20 38  1  0  0  0  0
 21 39  1  0  0  0  0
 21 40  1  0  0  0  0
M  CHG  1   7   1
M  CHG  1   9  -1
M  END
> <s_m_source_file>
AV-unprocessed.smi

> <i_m_source_file_index>
1266

> <i_lp_mmshare_version>
43012

> <i_f3d_flags>
0

> <s_epik_input>
W0NIMl0xW0NIMl1bQ0gyXVtDSDJdW0NIMl1bQ0gyXVtDSF0xW05IXUMoPU8pW0NIMl1uMltjSF1jKFtOK10oPU8pW08tXSlbY0hdW2NIXWMyPU8=

> <s_epik_cmdline>
J2VwaWtfcHl0aG9uJywgJy1waCcsICc3LjAnLCAnLXRuJywgJzgnLCAnLW1hJywgJzIwMCcsICctbWV0YWxfYmluZGluZycsICctaW1hZScsICc8aW5maWxlLm1hZT4nLCAnLW9tYWUnLCAnPG91dGZpbGUubWFlPic=

> <r_lp_tautomer_probability>
1

> <r_epik_Ionization_Penalty>
2.02954e-08

> <r_epik_Ionization_Penalty_Charging>
8.05481e-11

> <r_epik_Ionization_Penalty_Neutral>
2.02148e-08

> <r_epik_State_Penalty>
-0

> <r_epik_Charging_Adjusted_Penalty>
8.05481e-11

> <i_epik_Tot_Q>
0

> <i_epik_Tot_abs_Q>
2

> <r_epik_Metal_State_Penalty>
-0

> <b_epik_Metal_Only>
0

> <s_lp_Force_Field>
OPLS_2005

> <r_lp_Energy>
25.8216

> <b_lp_Chiralities_Consistent>
1

> <s_lp_Variant>
AV-unprocessed.smi:1266-1

> <Gold.Version>
5.8.1

> <Gold.Id.Protein>
6NUR|6NUR_protein|mol2

> <Gold.PLP.Fitness>
49.2547

> <Gold.PLP.PLP>
-45.9717

> <Gold.PLP.part.hbond>
-2.4323

> <Gold.PLP.part.metal>
0.0000

> <Gold.PLP.part.buried>
-4.4273

> <Gold.PLP.part.nonpolar>
-39.7295

> <Gold.PLP.part.repulsive>
0.4835

> <Gold.PLP.ligand.clash>
0.0000

> <Gold.PLP.ligand.torsion>
0.7628

> <Gold.PLP.Chemscore.Hbond>
1.5952

> <Gold.PLP.Chemscore.CHOScore>
0.0000

> <Gold.PLP.Chemscore.Metal>
0.0000

> <Gold.Chemscore.Hbonds>
donor molecule, donor type, donor heavy atom, donor atom, acceptor molecule, acceptor atom, score
      L1  H    14    27       P1  8028  1.00
      P1  H  7989  7998       L1     1  0.65

> <Gold.PLP.Chemscore.Internal.Correction>
0.0231

> <Gold.Rescore>
     Score         DG    S(hbond)    S(metal)    S(lipo)     H(rot)  DE(clash)    DE(int)     intcor
     14.48     -16.58       0.99        0.00     100.54       1.55       0.25       1.85       ----

> <Gold.Chemscore.Fitness>
14.4807

> <Gold.Chemscore.DG>
-16.5756

> <Gold.Chemscore.ZeroCoef>
-5.4800

> <Gold.Chemscore.Hbond>
0.9884

> <Gold.Chemscore.Metal>
0.0000

> <Gold.Chemscore.Lipo>
100.5416

> <Gold.Chemscore.Internal_Hbond>
0.0000

> <Gold.Chemscore.DEClash>
0.2472

> <Gold.Chemscore.DEInternal>
1.8476

> <Gold.Chemscore.Rot>
1.5505

> <Gold.Chemscore.Internal.Correction>
   9.000000E+99

> <Gold.Chemscore.Hbonds>
donor molecule, donor type, donor heavy atom, donor atom, acceptor molecule, acceptor atom, score
      L1  H    14    27       P1  8028  0.96
      P1  H  7989  7998       L1     1  0.05

> <Gold.Chemscore.Hbond.Weighted>
-3.3013

> <Gold.Chemscore.Metal.Weighted>
-0.0000

> <Gold.Chemscore.Lipo.Weighted>
-11.7634

> <Gold.Chemscore.Internal_Hbond.Weighted>
0.0000

> <Gold.Chemscore.DEClash.Weighted>
0.2472

> <Gold.Chemscore.DEInternal.Weighted>
1.8476

> <Gold.Chemscore.Rot.Weighted>
3.9692

> <Gold.Chemscore.Internal.Correction.Weighted>
   9.000000E+99

> <Gold.Protein.RotatedTorsions>
[ 6907 6896 6895 6894 ] final    5.09 input  -60.11 | X-H torsion
[ 7974 7965 7964 7962 ] final   73.00 input  175.53 | X-H torsion
[ 8008 7997 7996 7995 ] final  122.62 input   59.86 | X-H torsion
[ 10167 10162 10161 10158 ] final  -19.36 input  -65.29 | X-H torsion
[ 10718 10713 10712 10709 ] final -122.90 input   66.30 | X-H torsion
[ 10763 10752 10751 10750 ] final  -58.64 input  -60.55 | X-H torsion
[ 11005 11000 10999 10996 ] final -178.27 input  -57.11 | X-H torsion

> <Gold.Protein.ActiveResidues>
 VAL166  LYS551  ARG553  GLY616  TRP617  ASP618  TYR619  PRO620  LYS621  CYS622 
 ASP623  PHE694  ASN695  SER759  ASP760  ASP761  ALA762  ILE779  LEU786  VAL792 
 PHE793  MET794  SER795  GLU796  ALA797  LYS798  CYS799  TRP800  GLU811  SER814 

> <Gold.Protein.RotatedAtoms>
  151.6519  135.1000  160.0162 H   0  0  0  0  0  0  0  0  0  0  0  0  # atno 6907 bound_to 6896
  152.3996  133.6794  159.6313 H   0  0  0  0  0  0  0  0  0  0  0  0  # atno 6908 bound_to 6896
  150.7898  133.8731  159.3305 H   0  0  0  0  0  0  0  0  0  0  0  0  # atno 6909 bound_to 6896
  145.7463  139.2741  143.1457 H   0  0  0  0  0  0  0  0  0  0  0  0  # atno 7974 bound_to 7965
  156.2735  140.2781  156.1497 H   0  0  0  0  0  0  0  0  0  0  0  0  # atno 8008 bound_to 7997
  155.0866  140.0388  157.2673 H   0  0  0  0  0  0  0  0  0  0  0  0  # atno 8009 bound_to 7997
  154.6922  140.2631  155.6807 H   0  0  0  0  0  0  0  0  0  0  0  0  # atno 8010 bound_to 7997
  140.7267  143.4826  151.0097 H   0  0  0  0  0  0  0  0  0  0  0  0  # atno 10167 bound_to 10162
  156.1457  130.6498  150.9839 H   0  0  0  0  0  0  0  0  0  0  0  0  # atno 10718 bound_to 10713
  154.2413  135.6343  153.5208 H   0  0  0  0  0  0  0  0  0  0  0  0  # atno 10763 bound_to 10752
  152.9929  135.5543  154.5907 H   0  0  0  0  0  0  0  0  0  0  0  0  # atno 10764 bound_to 10752
  154.5413  135.2895  155.1067 H   0  0  0  0  0  0  0  0  0  0  0  0  # atno 10765 bound_to 10752
  140.4316  134.6514  157.4714 H   0  0  0  0  0  0  0  0  0  0  0  0  # atno 11005 bound_to 11000
  146.0399  140.8175  142.9834 LP  0  0  0  0  0  0  0  0  0  0  0  0  # atno 17320 bound_to 7965
  144.6859  140.2895  143.7280 LP  0  0  0  0  0  0  0  0  0  0  0  0  # atno 17321 bound_to 7965
  139.8526  143.7418  152.3177 LP  0  0  0  0  0  0  0  0  0  0  0  0  # atno 17342 bound_to 10162
  139.7606  144.7507  151.0370 LP  0  0  0  0  0  0  0  0  0  0  0  0  # atno 17343 bound_to 10162
  157.6615  131.0880  150.7828 LP  0  0  0  0  0  0  0  0  0  0  0  0  # atno 17370 bound_to 10713
  156.7900  130.4887  149.5386 LP  0  0  0  0  0  0  0  0  0  0  0  0  # atno 17371 bound_to 10713
  140.0130  134.6661  155.9351 LP  0  0  0  0  0  0  0  0  0  0  0  0  # atno 17394 bound_to 11000
  141.1743  133.6539  156.4769 LP  0  0  0  0  0  0  0  0  0  0  0  0  # atno 17395 bound_to 11000

$$$$
