AV-unprocessed.smi:85|AV-procd|sdf|810|dock4
  -GOLD-   2262017203D 1   1.00000     0.00000
 Structure written by MMmdl.
 62 65  0  0  0  0  0  0  0  0  1 V2000
  149.1190  140.9477  154.4365 C   0  0  0  0  0  0  0  0  0  0  0  0
  149.5851  141.3616  155.8424 C   0  0  0  0  0  0  0  0  0  0  0  0
  150.9987  141.0774  156.0985 N   0  0  0  0  0  0  0  0  0  0  0  0
  151.4292  139.8560  155.6953 C   0  0  0  0  0  0  0  0  0  0  0  0
  152.6189  139.8029  155.0455 N   0  0  0  0  0  0  0  0  0  0  0  0
  153.0996  138.6312  154.6209 C   0  0  0  0  0  0  0  0  0  0  0  0
  152.5625  137.4158  154.7418 N   0  0  0  0  0  0  0  0  0  0  0  0
  151.3644  137.4641  155.3921 C   0  0  0  0  0  0  0  0  0  0  0  0
  150.7220  138.6339  155.8871 C   0  0  0  0  0  0  0  0  0  0  0  0
  149.5084  138.2930  156.4727 N   0  0  0  0  0  0  0  0  0  0  0  0
  149.4432  136.9970  156.3416 C   0  0  0  0  0  0  0  0  0  0  0  0
  150.5262  136.4133  155.7237 N   0  0  0  0  0  0  0  0  0  0  0  0
  150.7153  134.9932  155.4632 C   0  0  0  0  0  0  0  0  0  0  0  0
  149.5119  134.0879  155.8642 C   0  0  0  0  0  0  0  0  0  0  0  0
  148.2177  134.5157  155.1138 C   0  0  0  0  0  0  0  0  0  0  0  0
  148.4004  134.5564  153.7126 O   0  0  0  0  0  0  0  0  0  0  0  0
  149.8846  132.6170  155.5511 C   0  0  0  0  0  0  0  0  0  0  0  0
  148.9029  131.6041  156.1666 C   0  0  0  0  0  0  0  0  0  0  0  0
  148.8275  131.7979  157.5727 O   0  0  0  0  0  0  0  0  0  0  0  0
  148.3329  133.0828  157.9259 C   0  0  0  0  0  0  0  0  0  0  0  0
  149.2743  134.1786  157.3930 C   0  0  0  0  0  0  0  0  0  0  0  0
  151.5512  141.5793  157.3664 C   0  0  2  0  0  0  0  0  0  0  0  0
  151.5515  140.5453  158.5063 C   0  0  0  0  0  0  0  0  0  0  0  0
  152.2138  141.1385  159.7567 C   0  0  0  0  0  0  0  0  0  0  0  0
  151.5438  142.3342  160.1540 O   0  0  0  0  0  0  0  0  0  0  0  0
  151.4995  143.3897  159.1876 C   0  0  0  0  0  0  0  0  0  0  0  0
  150.5868  144.4619  159.8057 C   0  0  0  0  0  0  0  0  0  0  0  0
  152.9037  143.9932  158.9694 C   0  0  0  0  0  0  0  0  0  0  0  0
  150.8696  142.8663  157.8746 C   0  0  0  0  0  0  0  0  0  0  0  0
  148.0834  141.2459  154.2730 H   0  0  0  0  0  0  0  0  0  0  0  0
  149.1732  139.8688  154.2892 H   0  0  0  0  0  0  0  0  0  0  0  0
  149.7264  141.4243  153.6668 H   0  0  0  0  0  0  0  0  0  0  0  0
  149.4248  142.4339  155.9585 H   0  0  0  0  0  0  0  0  0  0  0  0
  148.9610  140.8817  156.5953 H   0  0  0  0  0  0  0  0  0  0  0  0
  154.0526  138.6729  154.1145 H   0  0  0  0  0  0  0  0  0  0  0  0
  148.6017  136.4255  156.7052 H   0  0  0  0  0  0  0  0  0  0  0  0
  150.9344  134.8773  154.4010 H   0  0  0  0  0  0  0  0  0  0  0  0
  151.6194  134.6746  155.9839 H   0  0  0  0  0  0  0  0  0  0  0  0
  147.3915  133.8366  155.3156 H   0  0  0  0  0  0  0  0  0  0  0  0
  147.8809  135.4975  155.4467 H   0  0  0  0  0  0  0  0  0  0  0  0
  148.2961  133.6813  153.3714 H   0  0  0  0  0  0  0  0  0  0  0  0
  149.9558  132.4560  154.4750 H   0  0  0  0  0  0  0  0  0  0  0  0
  150.8780  132.4039  155.9482 H   0  0  0  0  0  0  0  0  0  0  0  0
  147.9117  131.6807  155.7191 H   0  0  0  0  0  0  0  0  0  0  0  0
  149.2516  130.5892  155.9752 H   0  0  0  0  0  0  0  0  0  0  0  0
  147.3153  133.2106  157.5557 H   0  0  0  0  0  0  0  0  0  0  0  0
  148.2755  133.1440  159.0129 H   0  0  0  0  0  0  0  0  0  0  0  0
  150.2278  134.0825  157.9141 H   0  0  0  0  0  0  0  0  0  0  0  0
  148.8773  135.1573  157.6634 H   0  0  0  0  0  0  0  0  0  0  0  0
  152.5942  141.8134  157.1528 H   0  0  0  0  0  0  0  0  0  0  0  0
  150.5331  140.2489  158.7603 H   0  0  0  0  0  0  0  0  0  0  0  0
  152.0790  139.6413  158.2000 H   0  0  0  0  0  0  0  0  0  0  0  0
  152.1569  140.4243  160.5782 H   0  0  0  0  0  0  0  0  0  0  0  0
  153.2741  141.3243  159.5863 H   0  0  0  0  0  0  0  0  0  0  0  0
  150.4668  145.3149  159.1368 H   0  0  0  0  0  0  0  0  0  0  0  0
  150.9943  144.8334  160.7464 H   0  0  0  0  0  0  0  0  0  0  0  0
  149.5931  144.0640  160.0155 H   0  0  0  0  0  0  0  0  0  0  0  0
  152.8569  144.8567  158.3052 H   0  0  0  0  0  0  0  0  0  0  0  0
  153.6033  143.2876  158.5242 H   0  0  0  0  0  0  0  0  0  0  0  0
  153.3361  144.3288  159.9124 H   0  0  0  0  0  0  0  0  0  0  0  0
  150.9001  143.6467  157.1136 H   0  0  0  0  0  0  0  0  0  0  0  0
  149.8158  142.6584  158.0595 H   0  0  0  0  0  0  0  0  0  0  0  0
  1  2  1  0  0  0  0
  1 30  1  0  0  0  0
  1 31  1  0  0  0  0
  1 32  1  0  0  0  0
  2  3  1  0  0  0  0
  2 33  1  0  0  0  0
  2 34  1  0  0  0  0
  3  4  1  0  0  0  0
  3 22  1  0  0  0  0
  4  9  1  0  0  0  0
  4  5  2  0  0  0  0
  5  6  1  0  0  0  0
  6  7  2  0  0  0  0
  6 35  1  0  0  0  0
  7  8  1  0  0  0  0
  8 12  1  0  0  0  0
  8  9  2  0  0  0  0
  9 10  1  0  0  0  0
 10 11  2  0  0  0  0
 11 12  1  0  0  0  0
 11 36  1  0  0  0  0
 12 13  1  0  0  0  0
 13 14  1  0  0  0  0
 13 37  1  0  0  0  0
 13 38  1  0  0  0  0
 14 21  1  0  0  0  0
 14 15  1  0  0  0  0
 14 17  1  0  0  0  0
 15 16  1  0  0  0  0
 15 39  1  0  0  0  0
 15 40  1  0  0  0  0
 16 41  1  0  0  0  0
 17 18  1  0  0  0  0
 17 42  1  0  0  0  0
 17 43  1  0  0  0  0
 18 19  1  0  0  0  0
 18 44  1  0  0  0  0
 18 45  1  0  0  0  0
 19 20  1  0  0  0  0
 20 21  1  0  0  0  0
 20 46  1  0  0  0  0
 20 47  1  0  0  0  0
 21 48  1  0  0  0  0
 21 49  1  0  0  0  0
 22 29  1  0  0  0  0
 22 23  1  0  0  0  0
 22 50  1  0  0  0  0
 23 24  1  0  0  0  0
 23 51  1  0  0  0  0
 23 52  1  0  0  0  0
 24 25  1  0  0  0  0
 24 53  1  0  0  0  0
 24 54  1  0  0  0  0
 25 26  1  0  0  0  0
 26 27  1  0  0  0  0
 26 28  1  0  0  0  0
 26 29  1  0  0  0  0
 27 55  1  0  0  0  0
 27 56  1  0  0  0  0
 27 57  1  0  0  0  0
 28 58  1  0  0  0  0
 28 59  1  0  0  0  0
 28 60  1  0  0  0  0
 29 61  1  0  0  0  0
 29 62  1  0  0  0  0
M  END
> <s_m_source_file>
AV-unprocessed.smi

> <i_m_source_file_index>
85

> <i_lp_mmshare_version>
43012

> <i_f3d_flags>
0

> <s_epik_input>
W0NIM11DMShbQ0gzXSlPW0NIMl1bQ0gyXVtDQEhdKFtDSDJdMSlOKFtDSDJdW0NIM10pYyhuW2NIXW4yKWMoYzIzKW5bY0hdbjNbQ0gyXUM0KFtDSDJdW09IXSlbQ0gyXVtDSDJdT1tDSDJdW0NIMl00

> <s_epik_cmdline>
J2VwaWtfcHl0aG9uJywgJy1waCcsICc3LjAnLCAnLXRuJywgJzgnLCAnLW1hJywgJzIwMCcsICctbWV0YWxfYmluZGluZycsICctaW1hZScsICc8aW5maWxlLm1hZT4nLCAnLW9tYWUnLCAnPG91dGZpbGUubWFlPic=

> <r_lp_tautomer_probability>
1

> <r_epik_Ionization_Penalty>
0.00336056

> <r_epik_Ionization_Penalty_Charging>
0

> <r_epik_Ionization_Penalty_Neutral>
0.00336056

> <r_epik_State_Penalty>
0.00222191

> <r_epik_Charging_Adjusted_Penalty>
0.00222191

> <i_epik_Tot_Q>
0

> <i_epik_Tot_abs_Q>
0

> <r_epik_Metal_State_Penalty>
-0

> <b_epik_Metal_Only>
0

> <s_lp_Force_Field>
OPLS_2005

> <r_lp_Energy>
35.7443

> <b_lp_Chiralities_Consistent>
1

> <s_lp_Variant>
AV-unprocessed.smi:85-1

> <Gold.Version>
5.8.1

> <Gold.Id.Protein>
6NUR|6NUR_protein|mol2

> <Gold.PLP.Fitness>
47.6331

> <Gold.PLP.PLP>
-45.0126

> <Gold.PLP.part.hbond>
-4.6267

> <Gold.PLP.part.metal>
0.0000

> <Gold.PLP.part.buried>
-7.2178

> <Gold.PLP.part.nonpolar>
-34.2871

> <Gold.PLP.part.repulsive>
0.1485

> <Gold.PLP.ligand.clash>
0.0000

> <Gold.PLP.ligand.torsion>
1.1309

> <Gold.PLP.Chemscore.Hbond>
1.3395

> <Gold.PLP.Chemscore.CHOScore>
0.0000

> <Gold.PLP.Chemscore.Metal>
0.0000

> <Gold.Chemscore.Hbonds>
donor molecule, donor type, donor heavy atom, donor atom, acceptor molecule, acceptor atom, score
      P1  H  7989  7998       L1     5  0.17
      P1  H  7997  8010       L1     5  0.46
      P1  H 10752 10763       L1     7  0.56

> <Gold.PLP.Chemscore.Internal.Correction>
0.8637

> <Gold.Rescore>
     Score         DG    S(hbond)    S(metal)    S(lipo)     H(rot)  DE(clash)    DE(int)     intcor
     11.40     -14.14       0.88        0.00     106.78       2.65       0.28       2.46       ----

> <Gold.Chemscore.Fitness>
11.3963

> <Gold.Chemscore.DG>
-14.1358

> <Gold.Chemscore.ZeroCoef>
-5.4800

> <Gold.Chemscore.Hbond>
0.8799

> <Gold.Chemscore.Metal>
0.0000

> <Gold.Chemscore.Lipo>
106.7766

> <Gold.Chemscore.Internal_Hbond>
0.0000

> <Gold.Chemscore.DEClash>
0.2782

> <Gold.Chemscore.DEInternal>
2.4613

> <Gold.Chemscore.Rot>
2.6469

> <Gold.Chemscore.Internal.Correction>
   9.000000E+99

> <Gold.Chemscore.Hbonds>
donor molecule, donor type, donor heavy atom, donor atom, acceptor molecule, acceptor atom, score
      P1  H  7997  8010       L1     5  0.02
      P1  H 10752 10763       L1     7  0.34

> <Gold.Chemscore.Hbond.Weighted>
-2.9390

> <Gold.Chemscore.Metal.Weighted>
-0.0000

> <Gold.Chemscore.Lipo.Weighted>
-12.4929

> <Gold.Chemscore.Internal_Hbond.Weighted>
0.0000

> <Gold.Chemscore.DEClash.Weighted>
0.2782

> <Gold.Chemscore.DEInternal.Weighted>
2.4613

> <Gold.Chemscore.Rot.Weighted>
6.7761

> <Gold.Chemscore.Internal.Correction.Weighted>
   9.000000E+99

> <Gold.Protein.RotatedTorsions>
[ 6907 6896 6895 6894 ] final -108.43 input  -60.11 | X-H torsion
[ 7974 7965 7964 7962 ] final -132.27 input  175.53 | X-H torsion
[ 8008 7997 7996 7995 ] final   92.01 input   59.86 | X-H torsion
[ 10167 10162 10161 10158 ] final  -72.97 input  -65.29 | X-H torsion
[ 10718 10713 10712 10709 ] final   51.14 input   66.30 | X-H torsion
[ 10763 10752 10751 10750 ] final   51.89 input  -60.55 | X-H torsion
[ 11005 11000 10999 10996 ] final -147.48 input  -57.11 | X-H torsion

> <Gold.Protein.ActiveResidues>
 VAL166  LYS551  ARG553  GLY616  TRP617  ASP618  TYR619  PRO620  LYS621  CYS622 
 ASP623  PHE694  ASN695  SER759  ASP760  ASP761  ALA762  ILE779  LEU786  VAL792 
 PHE793  MET794  SER795  GLU796  ALA797  LYS798  CYS799  TRP800  GLU811  SER814 

> <Gold.Protein.RotatedAtoms>
  150.7501  133.9678  159.3535 H   0  0  0  0  0  0  0  0  0  0  0  0  # atno 6907 bound_to 6896
  151.7609  135.0808  160.0355 H   0  0  0  0  0  0  0  0  0  0  0  0  # atno 6908 bound_to 6896
  152.3404  133.6023  159.5908 H   0  0  0  0  0  0  0  0  0  0  0  0  # atno 6909 bound_to 6896
  144.9301  140.7118  143.4911 H   0  0  0  0  0  0  0  0  0  0  0  0  # atno 7974 bound_to 7965
  156.0304  140.3331  155.7133 H   0  0  0  0  0  0  0  0  0  0  0  0  # atno 8008 bound_to 7997
  155.5893  140.0644  157.2780 H   0  0  0  0  0  0  0  0  0  0  0  0  # atno 8009 bound_to 7997
  154.4351  140.1830  156.1046 H   0  0  0  0  0  0  0  0  0  0  0  0  # atno 8010 bound_to 7997
  140.5148  143.2339  151.7531 H   0  0  0  0  0  0  0  0  0  0  0  0  # atno 10167 bound_to 10162
  157.4952  130.8402  149.8250 H   0  0  0  0  0  0  0  0  0  0  0  0  # atno 10718 bound_to 10713
  152.9786  135.5831  154.4488 H   0  0  0  0  0  0  0  0  0  0  0  0  # atno 10763 bound_to 10752
  154.4080  135.2769  155.2057 H   0  0  0  0  0  0  0  0  0  0  0  0  # atno 10764 bound_to 10752
  154.3859  135.6136  153.5870 H   0  0  0  0  0  0  0  0  0  0  0  0  # atno 10765 bound_to 10752
  140.7712  134.3187  157.5074 H   0  0  0  0  0  0  0  0  0  0  0  0  # atno 11005 bound_to 11000
  145.3156  139.1804  143.4615 LP  0  0  0  0  0  0  0  0  0  0  0  0  # atno 17320 bound_to 7965
  146.3243  140.3166  142.8630 LP  0  0  0  0  0  0  0  0  0  0  0  0  # atno 17321 bound_to 7965
  139.4906  144.4339  151.9841 LP  0  0  0  0  0  0  0  0  0  0  0  0  # atno 17342 bound_to 10162
  140.3432  144.3178  150.5963 LP  0  0  0  0  0  0  0  0  0  0  0  0  # atno 17343 bound_to 10162
  156.0196  130.3800  150.2002 LP  0  0  0  0  0  0  0  0  0  0  0  0  # atno 17370 bound_to 10713
  157.0191  130.9974  151.3345 LP  0  0  0  0  0  0  0  0  0  0  0  0  # atno 17371 bound_to 10713
  139.8755  134.9262  156.3394 LP  0  0  0  0  0  0  0  0  0  0  0  0  # atno 17394 bound_to 11000
  140.9572  133.7412  156.0351 LP  0  0  0  0  0  0  0  0  0  0  0  0  # atno 17395 bound_to 11000

$$$$
