AV-unprocessed.smi:3297|AV-procd|sdf|12638|dock3
  -GOLD-   2272018573D 1   1.00000     0.00000
 Structure written by MMmdl.
 34 35  0  0  0  0  0  0  0  0  1 V2000
  148.2819  139.0178  152.8860 O   0  0  0  0  0  0  0  0  0  0  0  0
  148.7650  138.9091  154.2077 C   0  0  0  0  0  0  0  0  0  0  0  0
  149.4438  140.2170  154.6320 C   0  0  0  0  0  0  0  0  0  0  0  0
  150.8521  140.0555  154.5427 O   0  0  0  0  0  0  0  0  0  0  0  0
  151.5252  140.0347  155.7945 C   0  0  2  0  0  0  0  0  0  0  0  0
  151.1460  138.7796  156.6061 C   0  0  0  0  0  0  0  0  0  0  0  0
  151.7532  138.8541  158.0157 C   0  0  0  0  0  0  0  0  0  0  0  0
  151.3491  140.1576  158.7247 C   0  0  0  0  0  0  0  0  0  0  0  0
  151.6846  141.3221  157.9063 N   0  0  0  0  0  0  0  0  0  0  0  0
  151.6597  142.5479  158.6022 C   0  0  0  0  0  0  0  0  0  0  0  0
  150.7594  143.4859  158.2143 N   0  0  0  0  0  0  0  0  0  0  0  0
  150.7155  144.6607  158.8779 C   0  0  0  0  0  0  0  0  0  0  0  0
  151.5618  144.9679  159.9598 C   0  0  0  0  0  0  0  0  0  0  0  0
  152.5017  144.0022  160.3638 C   0  0  0  0  0  0  0  0  0  0  0  0
  152.5552  142.7738  159.6767 C   0  0  0  0  0  0  0  0  0  0  0  0
  153.4691  141.8402  160.0376 F   0  0  0  0  0  0  0  0  0  0  0  0
  151.1164  141.3078  156.5572 C   0  0  0  0  0  0  0  0  0  0  0  0
  148.8162  139.6437  152.4215 H   0  0  0  0  0  0  0  0  0  0  0  0
  147.9104  138.7099  154.8546 H   0  0  0  0  0  0  0  0  0  0  0  0
  149.4438  138.0608  154.2988 H   0  0  0  0  0  0  0  0  0  0  0  0
  149.0838  141.0540  154.0332 H   0  0  0  0  0  0  0  0  0  0  0  0
  149.1859  140.4291  155.6705 H   0  0  0  0  0  0  0  0  0  0  0  0
  152.6054  140.0622  155.6391 H   0  0  0  0  0  0  0  0  0  0  0  0
  150.0604  138.7022  156.6787 H   0  0  0  0  0  0  0  0  0  0  0  0
  151.4914  137.8737  156.1087 H   0  0  0  0  0  0  0  0  0  0  0  0
  151.4350  137.9944  158.6059 H   0  0  0  0  0  0  0  0  0  0  0  0
  152.8403  138.7982  157.9477 H   0  0  0  0  0  0  0  0  0  0  0  0
  150.2742  140.1603  158.9103 H   0  0  0  0  0  0  0  0  0  0  0  0
  151.8330  140.2042  159.6998 H   0  0  0  0  0  0  0  0  0  0  0  0
  149.9832  145.3772  158.5365 H   0  0  0  0  0  0  0  0  0  0  0  0
  151.4935  145.9206  160.4636 H   0  0  0  0  0  0  0  0  0  0  0  0
  153.1736  144.2012  161.1855 H   0  0  0  0  0  0  0  0  0  0  0  0
  151.4533  142.1854  156.0038 H   0  0  0  0  0  0  0  0  0  0  0  0
  150.0291  141.3672  156.6257 H   0  0  0  0  0  0  0  0  0  0  0  0
  1  2  1  0  0  0  0
  1 18  1  0  0  0  0
  2  3  1  0  0  0  0
  2 19  1  0  0  0  0
  2 20  1  0  0  0  0
  3  4  1  0  0  0  0
  3 21  1  0  0  0  0
  3 22  1  0  0  0  0
  4  5  1  0  0  0  0
  5 17  1  0  0  0  0
  5  6  1  0  0  0  0
  5 23  1  0  0  0  0
  6  7  1  0  0  0  0
  6 24  1  0  0  0  0
  6 25  1  0  0  0  0
  7  8  1  0  0  0  0
  7 26  1  0  0  0  0
  7 27  1  0  0  0  0
  8  9  1  0  0  0  0
  8 28  1  0  0  0  0
  8 29  1  0  0  0  0
  9 10  1  0  0  0  0
  9 17  1  0  0  0  0
 10 15  1  0  0  0  0
 10 11  2  0  0  0  0
 11 12  1  0  0  0  0
 12 13  2  0  0  0  0
 12 30  1  0  0  0  0
 13 14  1  0  0  0  0
 13 31  1  0  0  0  0
 14 15  2  0  0  0  0
 14 32  1  0  0  0  0
 15 16  1  0  0  0  0
 17 33  1  0  0  0  0
 17 34  1  0  0  0  0
M  END
> <s_m_source_file>
AV-unprocessed.smi

> <i_m_source_file_index>
3297

> <i_lp_mmshare_version>
43012

> <i_f3d_flags>
0

> <s_epik_input>
W09IXVtDSDJdW0NIMl1PW0NAQEhdMVtDSDJdW0NIMl1bQ0gyXU4oW0NIMl0xKWMybltjSF1bY0hdW2NIXWMyRg==

> <s_epik_cmdline>
J2VwaWtfcHl0aG9uJywgJy1waCcsICc3LjAnLCAnLXRuJywgJzgnLCAnLW1hJywgJzIwMCcsICctbWV0YWxfYmluZGluZycsICctaW1hZScsICc8aW5maWxlLm1hZT4nLCAnLW9tYWUnLCAnPG91dGZpbGUubWFlPic=

> <r_lp_tautomer_probability>
1

> <r_epik_Ionization_Penalty>
0.00104501

> <r_epik_Ionization_Penalty_Charging>
0

> <r_epik_Ionization_Penalty_Neutral>
0.00104501

> <r_epik_State_Penalty>
0.000654582

> <r_epik_Charging_Adjusted_Penalty>
0.000654582

> <i_epik_Tot_Q>
0

> <i_epik_Tot_abs_Q>
0

> <r_epik_Metal_State_Penalty>
-0

> <b_epik_Metal_Only>
0

> <s_lp_Force_Field>
OPLS_2005

> <r_lp_Energy>
21.0324

> <b_lp_Chiralities_Consistent>
1

> <s_lp_Variant>
AV-unprocessed.smi:3297-1

> <Gold.Version>
5.8.1

> <Gold.Id.Protein>
6NUR|6NUR_protein|mol2

> <Gold.PLP.Fitness>
45.3613

> <Gold.PLP.PLP>
-37.9944

> <Gold.PLP.part.hbond>
-2.5803

> <Gold.PLP.part.metal>
0.0000

> <Gold.PLP.part.buried>
-7.1700

> <Gold.PLP.part.nonpolar>
-29.5197

> <Gold.PLP.part.repulsive>
0.2356

> <Gold.PLP.ligand.clash>
0.0000

> <Gold.PLP.ligand.torsion>
0.9829

> <Gold.PLP.Chemscore.Hbond>
1.9920

> <Gold.PLP.Chemscore.CHOScore>
1.0000

> <Gold.PLP.Chemscore.Metal>
0.0000

> <Gold.Chemscore.Hbonds>
donor molecule, donor type, donor heavy atom, donor atom, acceptor molecule, acceptor atom, score
      L1  H     1    18       P1  7957  0.98
      P1  H  7989  7998       L1     4  1.00
      L1  C    12    30       P1  8029  1.00

> <Gold.PLP.Chemscore.Internal.Correction>
0.3567

> <Gold.Rescore>
     Score         DG    S(hbond)    S(metal)    S(lipo)     H(rot)  DE(clash)    DE(int)     intcor
     14.52     -15.61       1.82        0.00      83.91       2.25       0.00       1.09       ----

> <Gold.Chemscore.Fitness>
14.5206

> <Gold.Chemscore.DG>
-15.6141

> <Gold.Chemscore.ZeroCoef>
-5.4800

> <Gold.Chemscore.Hbond>
1.8210

> <Gold.Chemscore.Metal>
0.0000

> <Gold.Chemscore.Lipo>
83.9140

> <Gold.Chemscore.Internal_Hbond>
0.0000

> <Gold.Chemscore.DEClash>
0.0000

> <Gold.Chemscore.DEInternal>
1.0935

> <Gold.Chemscore.Rot>
2.2524

> <Gold.Chemscore.Internal.Correction>
   9.000000E+99

> <Gold.Chemscore.Hbonds>
donor molecule, donor type, donor heavy atom, donor atom, acceptor molecule, acceptor atom, score
      L1  H     1    18       P1  7957  0.87
      P1  H  7989  7998       L1     4  0.74

> <Gold.Chemscore.Hbond.Weighted>
-6.0823

> <Gold.Chemscore.Metal.Weighted>
-0.0000

> <Gold.Chemscore.Lipo.Weighted>
-9.8179

> <Gold.Chemscore.Internal_Hbond.Weighted>
0.0000

> <Gold.Chemscore.DEClash.Weighted>
0.0000

> <Gold.Chemscore.DEInternal.Weighted>
1.0935

> <Gold.Chemscore.Rot.Weighted>
5.7661

> <Gold.Chemscore.Internal.Correction.Weighted>
   9.000000E+99

> <Gold.Protein.RotatedTorsions>
[ 6907 6896 6895 6894 ] final    3.56 input  -60.11 | X-H torsion
[ 7974 7965 7964 7962 ] final    9.45 input  175.53 | X-H torsion
[ 8008 7997 7996 7995 ] final   62.32 input   59.86 | X-H torsion
[ 10167 10162 10161 10158 ] final  -85.41 input  -65.29 | X-H torsion
[ 10718 10713 10712 10709 ] final  -30.03 input   66.30 | X-H torsion
[ 10763 10752 10751 10750 ] final -116.44 input  -60.55 | X-H torsion
[ 11005 11000 10999 10996 ] final   60.23 input  -57.11 | X-H torsion

> <Gold.Protein.ActiveResidues>
 VAL166  LYS551  ARG553  GLY616  TRP617  ASP618  TYR619  PRO620  LYS621  CYS622 
 ASP623  PHE694  ASN695  SER759  ASP760  ASP761  ALA762  ILE779  LEU786  VAL792 
 PHE793  MET794  SER795  GLU796  ALA797  LYS798  CYS799  TRP800  GLU811  SER814 

> <Gold.Protein.RotatedAtoms>
  151.6270  135.1026  160.0113 H   0  0  0  0  0  0  0  0  0  0  0  0  # atno 6907 bound_to 6896
  152.4127  133.6984  159.6420 H   0  0  0  0  0  0  0  0  0  0  0  0  # atno 6908 bound_to 6896
  150.8016  133.8513  159.3247 H   0  0  0  0  0  0  0  0  0  0  0  0  # atno 6909 bound_to 6896
  146.2403  139.9781  142.8439 H   0  0  0  0  0  0  0  0  0  0  0  0  # atno 7974 bound_to 7965
  155.6125  140.3495  155.4626 H   0  0  0  0  0  0  0  0  0  0  0  0  # atno 8008 bound_to 7997
  156.0143  140.1240  157.0446 H   0  0  0  0  0  0  0  0  0  0  0  0  # atno 8009 bound_to 7997
  154.4292  140.1075  156.5860 H   0  0  0  0  0  0  0  0  0  0  0  0  # atno 8010 bound_to 7997
  140.4040  143.2650  151.9105 H   0  0  0  0  0  0  0  0  0  0  0  0  # atno 10167 bound_to 10162
  156.4050  130.4397  149.7294 H   0  0  0  0  0  0  0  0  0  0  0  0  # atno 10718 bound_to 10713
  154.8519  135.4345  154.1822 H   0  0  0  0  0  0  0  0  0  0  0  0  # atno 10763 bound_to 10752
  153.2910  135.6961  153.7299 H   0  0  0  0  0  0  0  0  0  0  0  0  # atno 10764 bound_to 10752
  153.6466  135.3458  155.3062 H   0  0  0  0  0  0  0  0  0  0  0  0  # atno 10765 bound_to 10752
  140.0247  134.6101  155.9590 H   0  0  0  0  0  0  0  0  0  0  0  0  # atno 11005 bound_to 11000
  145.1617  140.9676  143.4373 LP  0  0  0  0  0  0  0  0  0  0  0  0  # atno 17320 bound_to 7965
  145.0110  139.3510  143.6120 LP  0  0  0  0  0  0  0  0  0  0  0  0  # atno 17321 bound_to 7965
  139.4784  144.5605  151.8247 LP  0  0  0  0  0  0  0  0  0  0  0  0  # atno 17342 bound_to 10162
  140.4709  144.1587  150.5918 LP  0  0  0  0  0  0  0  0  0  0  0  0  # atno 17343 bound_to 10162
  156.4295  130.7808  151.2828 LP  0  0  0  0  0  0  0  0  0  0  0  0  # atno 17370 bound_to 10713
  157.7505  131.0158  150.3519 LP  0  0  0  0  0  0  0  0  0  0  0  0  # atno 17371 bound_to 10713
  141.1795  133.6544  156.4963 LP  0  0  0  0  0  0  0  0  0  0  0  0  # atno 17394 bound_to 11000
  140.4327  134.7087  157.4950 LP  0  0  0  0  0  0  0  0  0  0  0  0  # atno 17395 bound_to 11000

$$$$
