AV-unprocessed.smi:2101|AV-procd|sdf|8580|dock5
  -GOLD-   2272011313D 1   1.00000     0.00000
 Structure written by MMmdl.
 42 43  0  0  0  0  0  0  0  0  2 V2000
  149.9427  133.1712  154.9844 C   0  0  0  0  0  0  0  0  0  0  0  0
  150.5507  133.8264  156.5921 S   0  0  0  0  0  0  0  0  0  0  0  0
  149.7019  133.2810  157.6625 O   0  0  0  0  0  0  0  0  0  0  0  0
  152.0081  133.6346  156.6475 O   0  0  0  0  0  0  0  0  0  0  0  0
  150.2408  135.5343  156.4841 N   0  0  0  0  0  0  0  0  0  0  0  0
  150.9916  136.4638  157.3594 C   0  0  0  0  0  0  0  0  0  0  0  0
  152.0813  137.2246  156.5789 C   0  0  0  0  0  0  0  0  0  0  0  0
  151.4601  137.8862  155.4241 N   0  0  0  0  0  0  0  0  0  0  0  0
  151.1557  139.2030  155.3159 C   0  0  0  0  0  0  0  0  0  0  0  0
  150.6786  139.7038  154.2964 O   0  0  0  0  0  0  0  0  0  0  0  0
  151.4556  139.9408  156.3989 N   0  0  0  0  0  0  0  0  0  0  0  0
  151.2359  141.3776  156.5185 C   0  0  0  0  0  0  0  0  0  0  0  0
  150.4441  141.7221  157.7913 C   0  0  0  0  0  0  0  0  0  0  0  0
  151.0301  142.9114  158.5261 C   0  0  0  0  0  0  0  0  0  0  0  0
  151.9561  142.7642  159.5818 C   0  0  0  0  0  0  0  0  0  0  0  0
  152.4660  143.9166  160.2163 C   0  0  0  0  0  0  0  0  0  0  0  0
  152.0392  145.1894  159.7829 C   0  0  0  0  0  0  0  0  0  0  0  0
  151.1135  145.2778  158.7233 C   0  0  0  0  0  0  0  0  0  0  0  0
  150.6493  144.1508  158.1399 N   0  3  0  0  0  0  0  0  0  0  0  0
  150.9337  136.8823  154.4974 C   0  0  0  0  0  0  0  0  0  0  0  0
  149.7973  136.1078  155.1926 C   0  0  0  0  0  0  0  0  0  0  0  0
  150.0978  132.0929  154.9570 H   0  0  0  0  0  0  0  0  0  0  0  0
  150.4938  133.6309  154.1655 H   0  0  0  0  0  0  0  0  0  0  0  0
  148.8790  133.3794  154.8794 H   0  0  0  0  0  0  0  0  0  0  0  0
  150.2857  137.1756  157.7891 H   0  0  0  0  0  0  0  0  0  0  0  0
  151.4337  135.9259  158.1975 H   0  0  0  0  0  0  0  0  0  0  0  0
  152.6001  137.9091  157.2498 H   0  0  0  0  0  0  0  0  0  0  0  0
  152.8491  136.5354  156.2271 H   0  0  0  0  0  0  0  0  0  0  0  0
  151.8634  139.4714  157.1946 H   0  0  0  0  0  0  0  0  0  0  0  0
  152.2078  141.8717  156.5396 H   0  0  0  0  0  0  0  0  0  0  0  0
  150.7196  141.7479  155.6311 H   0  0  0  0  0  0  0  0  0  0  0  0
  149.4050  141.9452  157.5443 H   0  0  0  0  0  0  0  0  0  0  0  0
  150.4216  140.8613  158.4609 H   0  0  0  0  0  0  0  0  0  0  0  0
  152.2748  141.7825  159.9012 H   0  0  0  0  0  0  0  0  0  0  0  0
  153.1762  143.8258  161.0252 H   0  0  0  0  0  0  0  0  0  0  0  0
  152.4169  146.0841  160.2561 H   0  0  0  0  0  0  0  0  0  0  0  0
  150.7330  146.2082  158.3272 H   0  0  0  0  0  0  0  0  0  0  0  0
  150.5694  137.3235  153.5687 H   0  0  0  0  0  0  0  0  0  0  0  0
  151.7352  136.2054  154.2015 H   0  0  0  0  0  0  0  0  0  0  0  0
  149.4182  135.3242  154.5373 H   0  0  0  0  0  0  0  0  0  0  0  0
  148.9600  136.7800  155.3843 H   0  0  0  0  0  0  0  0  0  0  0  0
  149.9806  144.2381  157.3740 H   0  0  0  0  0  0  0  0  0  0  0  0
  1  2  1  0  0  0  0
  1 22  1  0  0  0  0
  1 23  1  0  0  0  0
  1 24  1  0  0  0  0
  2  3  2  0  0  0  0
  2  4  2  0  0  0  0
  2  5  1  0  0  0  0
  5 21  1  0  0  0  0
  5  6  1  0  0  0  0
  6  7  1  0  0  0  0
  6 25  1  0  0  0  0
  6 26  1  0  0  0  0
  7  8  1  0  0  0  0
  7 27  1  0  0  0  0
  7 28  1  0  0  0  0
  8  9  1  0  0  0  0
  8 20  1  0  0  0  0
  9 10  2  0  0  0  0
  9 11  1  0  0  0  0
 11 12  1  0  0  0  0
 11 29  1  0  0  0  0
 12 13  1  0  0  0  0
 12 30  1  0  0  0  0
 12 31  1  0  0  0  0
 13 14  1  0  0  0  0
 13 32  1  0  0  0  0
 13 33  1  0  0  0  0
 14 19  1  0  0  0  0
 14 15  2  0  0  0  0
 15 16  1  0  0  0  0
 15 34  1  0  0  0  0
 16 17  2  0  0  0  0
 16 35  1  0  0  0  0
 17 18  1  0  0  0  0
 17 36  1  0  0  0  0
 18 19  2  0  0  0  0
 18 37  1  0  0  0  0
 19 42  1  0  0  0  0
 20 21  1  0  0  0  0
 20 38  1  0  0  0  0
 20 39  1  0  0  0  0
 21 40  1  0  0  0  0
 21 41  1  0  0  0  0
M  CHG  1  19   1
M  END
> <s_m_source_file>
AV-unprocessed.smi

> <i_m_source_file_index>
2101

> <i_lp_mmshare_version>
43012

> <i_f3d_flags>
0

> <s_epik_input>
W0NIM11TKD1PKSg9TylOMVtDSDJdW0NIMl1OKFtDSDJdW0NIMl0xKUMoPU8pW05IXVtDSDJdW0NIMl1jMltjSF1bY0hdW2NIXVtjSF1uMg==

> <s_epik_cmdline>
J2VwaWtfcHl0aG9uJywgJy1waCcsICc3LjAnLCAnLXRuJywgJzgnLCAnLW1hJywgJzIwMCcsICctbWV0YWxfYmluZGluZycsICctaW1hZScsICc8aW5maWxlLm1hZT4nLCAnLW9tYWUnLCAnPG91dGZpbGUubWFlPic=

> <r_epik_Ionization_Penalty>
1.56137

> <r_epik_Ionization_Penalty_Charging>
1.56133

> <r_epik_Ionization_Penalty_Neutral>
3.86464e-05

> <r_epik_State_Penalty>
1.65637

> <r_epik_Charging_Adjusted_Penalty>
3.2177

> <i_epik_Tot_Q>
1

> <i_epik_Tot_abs_Q>
1

> <r_epik_Metal_State_Penalty>
1.69784

> <b_epik_Metal_Only>
0

> <s_lp_Force_Field>
OPLS_2005

> <r_lp_Energy>
29.4976

> <b_lp_Chiralities_Consistent>
1

> <s_lp_Variant>
AV-unprocessed.smi:2101-2

> <Gold.Version>
5.8.1

> <Gold.Id.Protein>
6NUR|6NUR_protein|mol2

> <Gold.PLP.Fitness>
47.3165

> <Gold.PLP.PLP>
-37.1305

> <Gold.PLP.part.hbond>
-3.6231

> <Gold.PLP.part.metal>
0.0000

> <Gold.PLP.part.buried>
-3.4800

> <Gold.PLP.part.nonpolar>
-29.9080

> <Gold.PLP.part.repulsive>
0.3160

> <Gold.PLP.ligand.clash>
0.0000

> <Gold.PLP.ligand.torsion>
1.9753

> <Gold.PLP.Chemscore.Hbond>
4.0000

> <Gold.PLP.Chemscore.CHOScore>
0.0000

> <Gold.PLP.Chemscore.Metal>
0.0000

> <Gold.Chemscore.Hbonds>
donor molecule, donor type, donor heavy atom, donor atom, acceptor molecule, acceptor atom, score
      L1  H    19    42       P1  8028  1.85
      P1  H  6896  6909       L1     3  0.76
      P1  H  7989  7998       L1    10  1.00

> <Gold.PLP.Chemscore.Internal.Correction>
2.1364

> <Gold.Rescore>
     Score         DG    S(hbond)    S(metal)    S(lipo)     H(rot)  DE(clash)    DE(int)     intcor
     16.49     -20.15       2.17        0.00      95.65       1.47       1.69       1.97       ----

> <Gold.Chemscore.Fitness>
16.4864

> <Gold.Chemscore.DG>
-20.1466

> <Gold.Chemscore.ZeroCoef>
-5.4800

> <Gold.Chemscore.Hbond>
2.1684

> <Gold.Chemscore.Metal>
0.0000

> <Gold.Chemscore.Lipo>
95.6475

> <Gold.Chemscore.Internal_Hbond>
0.0000

> <Gold.Chemscore.DEClash>
1.6872

> <Gold.Chemscore.DEInternal>
1.9730

> <Gold.Chemscore.Rot>
1.4714

> <Gold.Chemscore.Internal.Correction>
   9.000000E+99

> <Gold.Chemscore.Hbonds>
donor molecule, donor type, donor heavy atom, donor atom, acceptor molecule, acceptor atom, score
      L1  H    19    42       P1  8028  0.44
      P1  H  6896  6909       L1     3  0.12
      P1  H  7989  7998       L1    10  0.94

> <Gold.Chemscore.Hbond.Weighted>
-7.2425

> <Gold.Chemscore.Metal.Weighted>
-0.0000

> <Gold.Chemscore.Lipo.Weighted>
-11.1908

> <Gold.Chemscore.Internal_Hbond.Weighted>
0.0000

> <Gold.Chemscore.DEClash.Weighted>
1.6872

> <Gold.Chemscore.DEInternal.Weighted>
1.9730

> <Gold.Chemscore.Rot.Weighted>
3.7667

> <Gold.Chemscore.Internal.Correction.Weighted>
   9.000000E+99

> <Gold.Protein.RotatedTorsions>
[ 6907 6896 6895 6894 ] final  -23.98 input  -60.11 | X-H torsion
[ 7974 7965 7964 7962 ] final   61.76 input  175.53 | X-H torsion
[ 8008 7997 7996 7995 ] final   28.89 input   59.86 | X-H torsion
[ 10167 10162 10161 10158 ] final  -90.45 input  -65.29 | X-H torsion
[ 10718 10713 10712 10709 ] final  -80.26 input   66.30 | X-H torsion
[ 10763 10752 10751 10750 ] final  -46.38 input  -60.55 | X-H torsion
[ 11005 11000 10999 10996 ] final  -55.73 input  -57.11 | X-H torsion

> <Gold.Protein.ActiveResidues>
 VAL166  LYS551  ARG553  GLY616  TRP617  ASP618  TYR619  PRO620  LYS621  CYS622 
 ASP623  PHE694  ASN695  SER759  ASP760  ASP761  ALA762  ILE779  LEU786  VAL792 
 PHE793  MET794  SER795  GLU796  ALA797  LYS798  CYS799  TRP800  GLU811  SER814 

> <Gold.Protein.RotatedAtoms>
  151.1962  135.0423  159.8852 H   0  0  0  0  0  0  0  0  0  0  0  0  # atno 6907 bound_to 6896
  152.5436  134.0901  159.8283 H   0  0  0  0  0  0  0  0  0  0  0  0  # atno 6908 bound_to 6896
  151.1036  133.5178  159.2641 H   0  0  0  0  0  0  0  0  0  0  0  0  # atno 6909 bound_to 6896
  145.8811  139.3444  143.0706 H   0  0  0  0  0  0  0  0  0  0  0  0  # atno 7974 bound_to 7965
  155.0658  140.3195  155.4646 H   0  0  0  0  0  0  0  0  0  0  0  0  # atno 8008 bound_to 7997
  156.2802  140.2121  156.5730 H   0  0  0  0  0  0  0  0  0  0  0  0  # atno 8009 bound_to 7997
  154.7095  140.0499  157.0524 H   0  0  0  0  0  0  0  0  0  0  0  0  # atno 8010 bound_to 7997
  140.3548  143.2872  151.9684 H   0  0  0  0  0  0  0  0  0  0  0  0  # atno 10167 bound_to 10162
  156.0074  130.4569  150.3773 H   0  0  0  0  0  0  0  0  0  0  0  0  # atno 10718 bound_to 10713
  154.0441  135.6640  153.4793 H   0  0  0  0  0  0  0  0  0  0  0  0  # atno 10763 bound_to 10752
  153.0490  135.5096  154.7814 H   0  0  0  0  0  0  0  0  0  0  0  0  # atno 10764 bound_to 10752
  154.6799  135.3043  154.9593 H   0  0  0  0  0  0  0  0  0  0  0  0  # atno 10765 bound_to 10752
  141.1087  133.6611  156.4513 H   0  0  0  0  0  0  0  0  0  0  0  0  # atno 11005 bound_to 11000
  145.9023  140.9235  143.0497 LP  0  0  0  0  0  0  0  0  0  0  0  0  # atno 17320 bound_to 7965
  144.6727  140.1049  143.7458 LP  0  0  0  0  0  0  0  0  0  0  0  0  # atno 17321 bound_to 7965
  139.4821  144.6044  151.7547 LP  0  0  0  0  0  0  0  0  0  0  0  0  # atno 17342 bound_to 10162
  140.5184  144.0917  150.6015 LP  0  0  0  0  0  0  0  0  0  0  0  0  # atno 17343 bound_to 10162
  157.1855  131.0402  151.2727 LP  0  0  0  0  0  0  0  0  0  0  0  0  # atno 17370 bound_to 10713
  157.4108  130.7384  149.6837 LP  0  0  0  0  0  0  0  0  0  0  0  0  # atno 17371 bound_to 10713
  140.4832  134.6645  157.5180 LP  0  0  0  0  0  0  0  0  0  0  0  0  # atno 17394 bound_to 11000
  139.9970  134.6895  155.9593 LP  0  0  0  0  0  0  0  0  0  0  0  0  # atno 17395 bound_to 11000

$$$$
