AV-unprocessed.smi:662|AV-procd|sdf|3243|dock9
  -GOLD-   22720 0193D 1   1.00000     0.00000
 Structure written by MMmdl.
 34 35  0  0  0  0  0  0  0  0  2 V2000
  149.7526  140.7118  158.1472 O   0  0  0  0  0  0  0  0  0  0  0  0
  149.6771  141.7708  157.5249 C   0  0  0  0  0  0  0  0  0  0  0  0
  148.6842  142.0297  156.6559 N   0  0  0  0  0  0  0  0  0  0  0  0
  147.5870  141.1188  156.3480 C   0  0  0  0  0  0  0  0  0  0  0  0
  146.2326  141.6896  156.7976 C   0  0  0  0  0  0  0  0  0  0  0  0
  145.5523  142.4563  155.7141 C   0  0  0  0  0  0  0  0  0  0  0  0
  144.5675  143.3294  155.9391 N   0  0  0  0  0  0  0  0  0  0  0  0
  144.0658  143.8960  154.7622 C   0  0  0  0  0  0  0  0  0  0  0  0
  142.9586  144.9078  154.8349 C   0  0  0  0  0  0  0  0  0  0  0  0
  142.5855  145.3150  153.6216 F   0  0  0  0  0  0  0  0  0  0  0  0
  141.8828  144.4003  155.4359 F   0  0  0  0  0  0  0  0  0  0  0  0
  143.3367  145.9858  155.5211 F   0  0  0  0  0  0  0  0  0  0  0  0
  144.6857  143.4211  153.6319 C   0  0  0  0  0  0  0  0  0  0  0  0
  145.9171  142.2466  154.0062 S   0  0  0  0  0  0  0  0  0  0  0  0
  150.7621  142.8410  157.7366 C   0  0  2  0  0  0  0  0  0  0  0  0
  151.7346  142.4423  158.8548 C   0  0  0  0  0  0  0  0  0  0  0  0
  152.3062  143.7761  159.3103 C   0  0  0  0  0  0  0  0  0  0  0  0
  151.1375  144.7481  159.1420 C   0  0  0  0  0  0  0  0  0  0  0  0
  150.2315  144.1672  158.1287 N   0  3  0  0  0  0  0  0  0  0  0  0
  148.6879  142.9122  156.1665 H   0  0  0  0  0  0  0  0  0  0  0  0
  147.5786  140.9491  155.2708 H   0  0  0  0  0  0  0  0  0  0  0  0
  147.7652  140.1472  156.8126 H   0  0  0  0  0  0  0  0  0  0  0  0
  145.5690  140.8870  157.1224 H   0  0  0  0  0  0  0  0  0  0  0  0
  146.3686  142.3483  157.6559 H   0  0  0  0  0  0  0  0  0  0  0  0
  144.4899  143.6880  152.6039 H   0  0  0  0  0  0  0  0  0  0  0  0
  151.3139  142.9701  156.8045 H   0  0  0  0  0  0  0  0  0  0  0  0
  151.2052  141.9711  159.6852 H   0  0  0  0  0  0  0  0  0  0  0  0
  152.5077  141.7518  158.5156 H   0  0  0  0  0  0  0  0  0  0  0  0
  152.6939  143.7496  160.3291 H   0  0  0  0  0  0  0  0  0  0  0  0
  153.1237  144.0658  158.6485 H   0  0  0  0  0  0  0  0  0  0  0  0
  150.5861  144.8467  160.0775 H   0  0  0  0  0  0  0  0  0  0  0  0
  151.4744  145.7420  158.8458 H   0  0  0  0  0  0  0  0  0  0  0  0
  150.1643  144.7649  157.3171 H   0  0  0  0  0  0  0  0  0  0  0  0
  149.3205  144.0463  158.5469 H   0  0  0  0  0  0  0  0  0  0  0  0
  1  2  2  0  0  0  0
  2  3  1  0  0  0  0
  2 15  1  0  0  0  0
  3  4  1  0  0  0  0
  3 20  1  0  0  0  0
  4  5  1  0  0  0  0
  4 21  1  0  0  0  0
  4 22  1  0  0  0  0
  5  6  1  0  0  0  0
  5 23  1  0  0  0  0
  5 24  1  0  0  0  0
  6 14  1  0  0  0  0
  6  7  2  0  0  0  0
  7  8  1  0  0  0  0
  8  9  1  0  0  0  0
  8 13  2  0  0  0  0
  9 10  1  0  0  0  0
  9 11  1  0  0  0  0
  9 12  1  0  0  0  0
 13 14  1  0  0  0  0
 13 25  1  0  0  0  0
 15 19  1  0  0  0  0
 15 16  1  0  0  0  0
 15 26  1  0  0  0  0
 16 17  1  0  0  0  0
 16 27  1  0  0  0  0
 16 28  1  0  0  0  0
 17 18  1  0  0  0  0
 17 29  1  0  0  0  0
 17 30  1  0  0  0  0
 18 19  1  0  0  0  0
 18 31  1  0  0  0  0
 18 32  1  0  0  0  0
 19 33  1  0  0  0  0
 19 34  1  0  0  0  0
M  CHG  1  19   1
M  END
> <s_m_source_file>
AV-unprocessed.smi

> <i_m_source_file_index>
662

> <i_lp_mmshare_version>
43012

> <i_f3d_flags>
0

> <s_epik_input>
W05IXTFbQ0gyXVtDSDJdW0NIMl1bQ0BIXTFDKD1PKVtOSF1bQ0gyXVtDSDJdYzJuYyhDKEYpKEYpRilbY0hdczI=

> <s_epik_cmdline>
J2VwaWtfcHl0aG9uJywgJy1waCcsICc3LjAnLCAnLXRuJywgJzgnLCAnLW1hJywgJzIwMCcsICctbWV0YWxfYmluZGluZycsICctaW1hZScsICc8aW5maWxlLm1hZT4nLCAnLW9tYWUnLCAnPG91dGZpbGUubWFlPic=

> <r_epik_Ionization_Penalty>
0.0382401

> <r_epik_Ionization_Penalty_Charging>
0.0382382

> <r_epik_Ionization_Penalty_Neutral>
1.85239e-06

> <r_epik_State_Penalty>
0.0320549

> <r_epik_Charging_Adjusted_Penalty>
0.0702931

> <i_epik_Tot_Q>
1

> <i_epik_Tot_abs_Q>
1

> <r_epik_Metal_State_Penalty>
0.0320549

> <b_epik_Metal_Only>
0

> <s_lp_Force_Field>
OPLS_2005

> <r_lp_Energy>
7.29414

> <b_lp_Chiralities_Consistent>
1

> <s_lp_Variant>
AV-unprocessed.smi:662-1

> <Gold.Version>
5.8.1

> <Gold.Id.Protein>
6NUR|6NUR_protein|mol2

> <Gold.PLP.Fitness>
42.1947

> <Gold.PLP.PLP>
-34.2933

> <Gold.PLP.part.hbond>
-3.5966

> <Gold.PLP.part.metal>
0.0000

> <Gold.PLP.part.buried>
-3.3234

> <Gold.PLP.part.nonpolar>
-29.6976

> <Gold.PLP.part.repulsive>
0.1951

> <Gold.PLP.ligand.clash>
0.0000

> <Gold.PLP.ligand.torsion>
0.5636

> <Gold.PLP.Chemscore.Hbond>
2.2054

> <Gold.PLP.Chemscore.CHOScore>
0.7968

> <Gold.PLP.Chemscore.Metal>
0.0000

> <Gold.Chemscore.Hbonds>
donor molecule, donor type, donor heavy atom, donor atom, acceptor molecule, acceptor atom, score
      L1  H     3    20       P1  8028  1.00
      L1  H    19    33       P1  8028  1.17
      L1  C    13    25       P1 10174  0.31

> <Gold.PLP.Chemscore.Internal.Correction>
0.0221

> <Gold.Rescore>
     Score         DG    S(hbond)    S(metal)    S(lipo)     H(rot)  DE(clash)    DE(int)     intcor
     13.41     -13.98       1.34        0.00      77.64       1.97       0.07       0.50       ----

> <Gold.Chemscore.Fitness>
13.4107

> <Gold.Chemscore.DG>
-13.9826

> <Gold.Chemscore.ZeroCoef>
-5.4800

> <Gold.Chemscore.Hbond>
1.3358

> <Gold.Chemscore.Metal>
0.0000

> <Gold.Chemscore.Lipo>
77.6357

> <Gold.Chemscore.Internal_Hbond>
0.0000

> <Gold.Chemscore.DEClash>
0.0721

> <Gold.Chemscore.DEInternal>
0.4999

> <Gold.Chemscore.Rot>
1.9697

> <Gold.Chemscore.Internal.Correction>
   9.000000E+99

> <Gold.Chemscore.Hbonds>
donor molecule, donor type, donor heavy atom, donor atom, acceptor molecule, acceptor atom, score
      L1  H     3    20       P1  8028  0.99
      L1  H    19    33       P1  8028  0.13

> <Gold.Chemscore.Hbond.Weighted>
-4.4617

> <Gold.Chemscore.Metal.Weighted>
-0.0000

> <Gold.Chemscore.Lipo.Weighted>
-9.0834

> <Gold.Chemscore.Internal_Hbond.Weighted>
0.0000

> <Gold.Chemscore.DEClash.Weighted>
0.0721

> <Gold.Chemscore.DEInternal.Weighted>
0.4999

> <Gold.Chemscore.Rot.Weighted>
5.0424

> <Gold.Chemscore.Internal.Correction.Weighted>
   9.000000E+99

> <Gold.Protein.RotatedTorsions>
[ 6907 6896 6895 6894 ] final  -39.58 input  -60.11 | X-H torsion
[ 7974 7965 7964 7962 ] final -108.34 input  175.53 | X-H torsion
[ 8008 7997 7996 7995 ] final  129.85 input   59.86 | X-H torsion
[ 10167 10162 10161 10158 ] final   44.70 input  -65.29 | X-H torsion
[ 10718 10713 10712 10709 ] final   -8.50 input   66.30 | X-H torsion
[ 10763 10752 10751 10750 ] final  -13.09 input  -60.55 | X-H torsion
[ 11005 11000 10999 10996 ] final  -98.55 input  -57.11 | X-H torsion

> <Gold.Protein.ActiveResidues>
 VAL166  LYS551  ARG553  GLY616  TRP617  ASP618  TYR619  PRO620  LYS621  CYS622 
 ASP623  PHE694  ASN695  SER759  ASP760  ASP761  ALA762  ILE779  LEU786  VAL792 
 PHE793  MET794  SER795  GLU796  ALA797  LYS798  CYS799  TRP800  GLU811  SER814 

> <Gold.Protein.RotatedAtoms>
  150.9886  134.9226  159.7886 H   0  0  0  0  0  0  0  0  0  0  0  0  # atno 6907 bound_to 6896
  152.5244  134.3312  159.9193 H   0  0  0  0  0  0  0  0  0  0  0  0  # atno 6908 bound_to 6896
  151.3318  133.3956  159.2698 H   0  0  0  0  0  0  0  0  0  0  0  0  # atno 6909 bound_to 6896
  145.1941  140.9028  143.3407 H   0  0  0  0  0  0  0  0  0  0  0  0  # atno 7974 bound_to 7965
  156.2944  140.2610  156.2666 H   0  0  0  0  0  0  0  0  0  0  0  0  # atno 8008 bound_to 7997
  154.9736  140.0390  157.2264 H   0  0  0  0  0  0  0  0  0  0  0  0  # atno 8009 bound_to 7997
  154.7836  140.2799  155.6050 H   0  0  0  0  0  0  0  0  0  0  0  0  # atno 8010 bound_to 7997
  140.3317  144.2581  150.6167 H   0  0  0  0  0  0  0  0  0  0  0  0  # atno 10167 bound_to 10162
  156.7016  130.5095  149.5915 H   0  0  0  0  0  0  0  0  0  0  0  0  # atno 10718 bound_to 10713
  153.5082  135.7016  153.5795 H   0  0  0  0  0  0  0  0  0  0  0  0  # atno 10763 bound_to 10752
  153.3897  135.3899  155.1914 H   0  0  0  0  0  0  0  0  0  0  0  0  # atno 10764 bound_to 10752
  154.8705  135.3855  154.4559 H   0  0  0  0  0  0  0  0  0  0  0  0  # atno 10765 bound_to 10752
  141.1341  133.8253  157.0854 H   0  0  0  0  0  0  0  0  0  0  0  0  # atno 11005 bound_to 11000
  145.0012  139.3597  143.6166 LP  0  0  0  0  0  0  0  0  0  0  0  0  # atno 17320 bound_to 7965
  146.3430  139.9236  142.8763 LP  0  0  0  0  0  0  0  0  0  0  0  0  # atno 17321 bound_to 7965
  140.5391  143.2227  151.8114 LP  0  0  0  0  0  0  0  0  0  0  0  0  # atno 17342 bound_to 10162
  139.4855  144.4623  151.9526 LP  0  0  0  0  0  0  0  0  0  0  0  0  # atno 17343 bound_to 10162
  156.1724  130.6446  151.0854 LP  0  0  0  0  0  0  0  0  0  0  0  0  # atno 17370 bound_to 10713
  157.6971  131.0790  150.6937 LP  0  0  0  0  0  0  0  0  0  0  0  0  # atno 17371 bound_to 10713
  140.0425  134.9847  157.0989 LP  0  0  0  0  0  0  0  0  0  0  0  0  # atno 17394 bound_to 11000
  140.4113  134.1979  155.7163 LP  0  0  0  0  0  0  0  0  0  0  0  0  # atno 17395 bound_to 11000

$$$$
