AV-unprocessed.smi:964|AV-procd|sdf|4279|dock10
  -GOLD-   22720 2183D 1   1.00000     0.00000
 Structure written by MMmdl.
 20 20  0  0  0  0  0  0  0  0  2 V2000
  151.6121  137.8763  153.9038 C   0  0  0  0  0  0  0  0  0  0  0  0
  150.5097  138.8768  153.9927 C   0  0  0  0  0  0  0  0  0  0  0  0
  149.2743  138.6096  153.5456 N   0  0  0  0  0  0  0  0  0  0  0  0
  148.6084  139.7424  153.8148 C   0  0  0  0  0  0  0  0  0  0  0  0
  147.1637  139.9178  153.4785 C   0  0  0  0  0  0  0  0  0  0  0  0
  146.6031  138.7426  152.6658 C   0  0  0  0  0  0  0  0  0  0  0  0
  147.1264  138.7432  151.2894 N   0  3  0  0  0  0  0  0  0  0  0  0
  149.3722  140.6762  154.3894 N   0  0  0  0  0  0  0  0  0  0  0  0
  150.6276  140.1041  154.5080 N   0  0  0  0  0  0  0  0  0  0  0  0
  148.9325  137.7612  153.1178 H   0  0  0  0  0  0  0  0  0  0  0  0
  152.5083  138.2512  154.3990 H   0  0  0  0  0  0  0  0  0  0  0  0
  151.8499  137.6727  152.8595 H   0  0  0  0  0  0  0  0  0  0  0  0
  151.3133  136.9451  154.3854 H   0  0  0  0  0  0  0  0  0  0  0  0
  147.0527  140.8473  152.9182 H   0  0  0  0  0  0  0  0  0  0  0  0
  146.5969  140.0415  154.4026 H   0  0  0  0  0  0  0  0  0  0  0  0
  146.8674  137.7952  153.1373 H   0  0  0  0  0  0  0  0  0  0  0  0
  145.5145  138.7914  152.6290 H   0  0  0  0  0  0  0  0  0  0  0  0
  147.6058  137.8720  151.1113 H   0  0  0  0  0  0  0  0  0  0  0  0
  147.7736  139.5104  151.1754 H   0  0  0  0  0  0  0  0  0  0  0  0
  146.3635  138.8468  150.6356 H   0  0  0  0  0  0  0  0  0  0  0  0
  1 11  1  0  0  0  0
  1 12  1  0  0  0  0
  1 13  1  0  0  0  0
  1  2  1  0  0  0  0
  2  3  1  0  0  0  0
  2  9  2  0  0  0  0
  3 10  1  0  0  0  0
  3  4  1  0  0  0  0
  4  8  2  0  0  0  0
  4  5  1  0  0  0  0
  5  6  1  0  0  0  0
  5 14  1  0  0  0  0
  5 15  1  0  0  0  0
  6  7  1  0  0  0  0
  6 16  1  0  0  0  0
  6 17  1  0  0  0  0
  7 18  1  0  0  0  0
  7 19  1  0  0  0  0
  7 20  1  0  0  0  0
  8  9  1  0  0  0  0
M  CHG  1   7   1
M  END
> <s_m_source_file>
AV-unprocessed.smi

> <i_m_source_file_index>
964

> <i_lp_mmshare_version>
43012

> <i_f3d_flags>
0

> <s_epik_input>
W0NIM11jMW5jKG5bbkhdMSlbQ0gyXVtDSDJdW05IMl0=

> <s_epik_cmdline>
J2VwaWtfcHl0aG9uJywgJy1waCcsICc3LjAnLCAnLXRuJywgJzgnLCAnLW1hJywgJzIwMCcsICctbWV0YWxfYmluZGluZycsICctaW1hZScsICc8aW5maWxlLm1hZT4nLCAnLW9tYWUnLCAnPG91dGZpbGUubWFlPic=

> <r_lp_tautomer_probability>
0.0517155

> <r_epik_Ionization_Penalty>
0.0139864

> <r_epik_Ionization_Penalty_Charging>
0.00465044

> <r_epik_Ionization_Penalty_Neutral>
0.00933595

> <r_epik_State_Penalty>
2.23303

> <r_epik_Charging_Adjusted_Penalty>
2.23768

> <i_epik_Tot_Q>
1

> <i_epik_Tot_abs_Q>
1

> <r_epik_Metal_State_Penalty>
2.43351

> <b_epik_Metal_Only>
0

> <s_lp_Force_Field>
OPLS_2005

> <r_lp_Energy>
2.69796

> <b_lp_Chiralities_Consistent>
1

> <s_lp_Variant>
AV-unprocessed.smi:964-3

> <Gold.Version>
5.8.1

> <Gold.Id.Protein>
6NUR|6NUR_protein|mol2

> <Gold.PLP.Fitness>
32.7849

> <Gold.PLP.PLP>
-18.2777

> <Gold.PLP.part.hbond>
-5.6299

> <Gold.PLP.part.metal>
0.0000

> <Gold.PLP.part.buried>
-1.9220

> <Gold.PLP.part.nonpolar>
-12.1838

> <Gold.PLP.part.repulsive>
1.7291

> <Gold.PLP.ligand.clash>
0.0000

> <Gold.PLP.ligand.torsion>
0.0812

> <Gold.PLP.Chemscore.Hbond>
4.8897

> <Gold.PLP.Chemscore.CHOScore>
0.0000

> <Gold.PLP.Chemscore.Metal>
0.0000

> <Gold.Chemscore.Hbonds>
donor molecule, donor type, donor heavy atom, donor atom, acceptor molecule, acceptor atom, score
      L1  H     3    10       P1  7948  1.00
      L1  H     7    18       P1  7948  1.13
      L1  H     7    19       P1  7957  0.93
      P1  H  7989  7998       L1     9  1.00

> <Gold.PLP.Chemscore.Internal.Correction>
0.0004

> <Gold.Rescore>
     Score         DG    S(hbond)    S(metal)    S(lipo)     H(rot)  DE(clash)    DE(int)     intcor
     13.73     -14.01       2.98        0.00      20.77       1.51       0.16       0.13       ----

> <Gold.Chemscore.Fitness>
13.7259

> <Gold.Chemscore.DG>
-14.0121

> <Gold.Chemscore.ZeroCoef>
-5.4800

> <Gold.Chemscore.Hbond>
2.9829

> <Gold.Chemscore.Metal>
0.0000

> <Gold.Chemscore.Lipo>
20.7710

> <Gold.Chemscore.Internal_Hbond>
0.0000

> <Gold.Chemscore.DEClash>
0.1578

> <Gold.Chemscore.DEInternal>
0.1284

> <Gold.Chemscore.Rot>
1.5082

> <Gold.Chemscore.Internal.Correction>
   9.000000E+99

> <Gold.Chemscore.Hbonds>
donor molecule, donor type, donor heavy atom, donor atom, acceptor molecule, acceptor atom, score
      L1  H     3    10       P1  7948  0.97
      L1  H     7    18       P1  7948  0.53
      L1  H     7    19       P1  7957  0.79
      P1  H  7989  7998       L1     9  0.29

> <Gold.Chemscore.Hbond.Weighted>
-9.9630

> <Gold.Chemscore.Metal.Weighted>
-0.0000

> <Gold.Chemscore.Lipo.Weighted>
-2.4302

> <Gold.Chemscore.Internal_Hbond.Weighted>
0.0000

> <Gold.Chemscore.DEClash.Weighted>
0.1578

> <Gold.Chemscore.DEInternal.Weighted>
0.1284

> <Gold.Chemscore.Rot.Weighted>
3.8611

> <Gold.Chemscore.Internal.Correction.Weighted>
   9.000000E+99

> <Gold.Protein.RotatedTorsions>
[ 6907 6896 6895 6894 ] final  -52.63 input  -60.11 | X-H torsion
[ 7974 7965 7964 7962 ] final   43.74 input  175.53 | X-H torsion
[ 8008 7997 7996 7995 ] final   46.11 input   59.86 | X-H torsion
[ 10167 10162 10161 10158 ] final -132.70 input  -65.29 | X-H torsion
[ 10718 10713 10712 10709 ] final  128.21 input   66.30 | X-H torsion
[ 10763 10752 10751 10750 ] final  170.55 input  -60.55 | X-H torsion
[ 11005 11000 10999 10996 ] final  130.98 input  -57.11 | X-H torsion

> <Gold.Protein.ActiveResidues>
 VAL166  LYS551  ARG553  GLY616  TRP617  ASP618  TYR619  PRO620  LYS621  CYS622 
 ASP623  PHE694  ASN695  SER759  ASP760  ASP761  ALA762  ILE779  LEU786  VAL792 
 PHE793  MET794  SER795  GLU796  ALA797  LYS798  CYS799  TRP800  GLU811  SER814 

> <Gold.Protein.RotatedAtoms>
  150.8500  134.7822  159.7000 H   0  0  0  0  0  0  0  0  0  0  0  0  # atno 6907 bound_to 6896
  152.4567  134.5272  159.9810 H   0  0  0  0  0  0  0  0  0  0  0  0  # atno 6908 bound_to 6896
  151.5395  133.3397  159.2968 H   0  0  0  0  0  0  0  0  0  0  0  0  # atno 6909 bound_to 6896
  146.0629  139.5152  142.9647 H   0  0  0  0  0  0  0  0  0  0  0  0  # atno 7974 bound_to 7965
  155.3470  140.3411  155.4239 H   0  0  0  0  0  0  0  0  0  0  0  0  # atno 8008 bound_to 7997
  156.1784  140.1655  156.8356 H   0  0  0  0  0  0  0  0  0  0  0  0  # atno 8009 bound_to 7997
  154.5307  140.0746  156.8322 H   0  0  0  0  0  0  0  0  0  0  0  0  # atno 8010 bound_to 7997
  139.9059  143.6552  152.2585 H   0  0  0  0  0  0  0  0  0  0  0  0  # atno 10167 bound_to 10162
  157.5264  131.1098  150.9076 H   0  0  0  0  0  0  0  0  0  0  0  0  # atno 10718 bound_to 10713
  154.3992  135.2755  155.2107 H   0  0  0  0  0  0  0  0  0  0  0  0  # atno 10763 bound_to 10752
  154.4140  135.6016  153.5973 H   0  0  0  0  0  0  0  0  0  0  0  0  # atno 10764 bound_to 10752
  152.9831  135.5956  154.4258 H   0  0  0  0  0  0  0  0  0  0  0  0  # atno 10765 bound_to 10752
  139.9703  134.9579  156.9372 H   0  0  0  0  0  0  0  0  0  0  0  0  # atno 11005 bound_to 11000
  145.6529  141.0259  143.1750 LP  0  0  0  0  0  0  0  0  0  0  0  0  # atno 17320 bound_to 7965
  144.7185  139.8112  143.7390 LP  0  0  0  0  0  0  0  0  0  0  0  0  # atno 17321 bound_to 7965
  139.6985  144.7638  151.1315 LP  0  0  0  0  0  0  0  0  0  0  0  0  # atno 17342 bound_to 10162
  140.7696  143.5491  150.9225 LP  0  0  0  0  0  0  0  0  0  0  0  0  # atno 17343 bound_to 10162
  156.9670  130.5477  149.5288 LP  0  0  0  0  0  0  0  0  0  0  0  0  # atno 17370 bound_to 10713
  156.0390  130.5475  150.8725 LP  0  0  0  0  0  0  0  0  0  0  0  0  # atno 17371 bound_to 10713
  140.5307  134.0816  155.7315 LP  0  0  0  0  0  0  0  0  0  0  0  0  # atno 17394 bound_to 11000
  141.1383  133.9183  157.2384 LP  0  0  0  0  0  0  0  0  0  0  0  0  # atno 17395 bound_to 11000

$$$$
