AV-unprocessed.smi:452|AV-procd|sdf|2610|dock6
  -GOLD-   2262023 13D 1   1.00000     0.00000
 Structure written by MMmdl.
 43 44  0  0  0  0  0  0  0  0  1 V2000
  153.9896  134.5830  165.7484 C   0  0  0  0  0  0  0  0  0  0  0  0
  154.5697  135.4706  164.6363 C   0  0  0  0  0  0  0  0  0  0  0  0
  154.0534  136.9121  164.7843 C   0  0  0  0  0  0  0  0  0  0  0  0
  154.2648  134.8722  163.2472 C   0  0  0  0  0  0  0  0  0  0  0  0
  154.9520  135.6087  162.0796 C   0  0  0  0  0  0  0  0  0  0  0  0
  154.1114  136.7692  161.5368 C   0  0  0  0  0  0  0  0  0  0  0  0
  152.9532  136.5670  161.1709 O   0  0  0  0  0  0  0  0  0  0  0  0
  154.7284  137.9653  161.4944 N   0  0  0  0  0  0  0  0  0  0  0  0
  154.2080  139.2117  161.0557 C   0  0  0  0  0  0  0  0  0  0  0  0
  153.1149  139.1218  160.1658 C   0  0  0  0  0  0  0  0  0  0  0  0
  152.5295  140.3003  159.6654 C   0  0  0  0  0  0  0  0  0  0  0  0
  153.0469  141.5458  160.0691 C   0  0  0  0  0  0  0  0  0  0  0  0
  152.4845  142.7294  159.5702 N   0  0  0  0  0  0  0  0  0  0  0  0
  152.6763  143.8668  160.4610 C   0  0  0  0  0  0  0  0  0  0  0  0
  152.1493  145.1514  159.7975 C   0  0  0  0  0  0  0  0  0  0  0  0
  150.7849  144.9741  159.4266 O   0  0  0  0  0  0  0  0  0  0  0  0
  150.6184  143.9075  158.4966 C   0  0  0  0  0  0  0  0  0  0  0  0
  151.1011  142.5913  159.1311 C   0  0  0  0  0  0  0  0  0  0  0  0
  154.1396  141.5426  160.9643 C   0  0  0  0  0  0  0  0  0  0  0  0
  154.7029  140.4134  161.4425 N   0  0  0  0  0  0  0  0  0  0  0  0
  152.9037  134.5146  165.6737 H   0  0  0  0  0  0  0  0  0  0  0  0
  154.2310  134.9790  166.7352 H   0  0  0  0  0  0  0  0  0  0  0  0
  154.3912  133.5707  165.6959 H   0  0  0  0  0  0  0  0  0  0  0  0
  155.6525  135.4870  164.7679 H   0  0  0  0  0  0  0  0  0  0  0  0
  152.9765  136.9654  164.6218 H   0  0  0  0  0  0  0  0  0  0  0  0
  154.5324  137.5894  164.0782 H   0  0  0  0  0  0  0  0  0  0  0  0
  154.2564  137.2989  165.7835 H   0  0  0  0  0  0  0  0  0  0  0  0
  154.5888  133.8302  163.2411 H   0  0  0  0  0  0  0  0  0  0  0  0
  153.1856  134.8513  163.0879 H   0  0  0  0  0  0  0  0  0  0  0  0
  155.9233  135.9907  162.3945 H   0  0  0  0  0  0  0  0  0  0  0  0
  155.1410  134.9129  161.2615 H   0  0  0  0  0  0  0  0  0  0  0  0
  155.6804  137.9868  161.8288 H   0  0  0  0  0  0  0  0  0  0  0  0
  152.7270  138.1600  159.8626 H   0  0  0  0  0  0  0  0  0  0  0  0
  151.6963  140.2451  158.9801 H   0  0  0  0  0  0  0  0  0  0  0  0
  152.1496  143.6924  161.4003 H   0  0  0  0  0  0  0  0  0  0  0  0
  153.7349  143.9771  160.6994 H   0  0  0  0  0  0  0  0  0  0  0  0
  152.2241  145.9900  160.4899 H   0  0  0  0  0  0  0  0  0  0  0  0
  152.7450  145.4078  158.9199 H   0  0  0  0  0  0  0  0  0  0  0  0
  149.5650  143.8317  158.2266 H   0  0  0  0  0  0  0  0  0  0  0  0
  151.1684  144.1221  157.5788 H   0  0  0  0  0  0  0  0  0  0  0  0
  151.0216  141.7773  158.4097 H   0  0  0  0  0  0  0  0  0  0  0  0
  150.4631  142.3372  159.9783 H   0  0  0  0  0  0  0  0  0  0  0  0
  154.5826  142.4679  161.3021 H   0  0  0  0  0  0  0  0  0  0  0  0
  1  2  1  0  0  0  0
  1 21  1  0  0  0  0
  1 22  1  0  0  0  0
  1 23  1  0  0  0  0
  2  3  1  0  0  0  0
  2  4  1  0  0  0  0
  2 24  1  0  0  0  0
  3 25  1  0  0  0  0
  3 26  1  0  0  0  0
  3 27  1  0  0  0  0
  4  5  1  0  0  0  0
  4 28  1  0  0  0  0
  4 29  1  0  0  0  0
  5  6  1  0  0  0  0
  5 30  1  0  0  0  0
  5 31  1  0  0  0  0
  6  7  2  0  0  0  0
  6  8  1  0  0  0  0
  8  9  1  0  0  0  0
  8 32  1  0  0  0  0
  9 20  1  0  0  0  0
  9 10  2  0  0  0  0
 10 11  1  0  0  0  0
 10 33  1  0  0  0  0
 11 12  2  0  0  0  0
 11 34  1  0  0  0  0
 12 13  1  0  0  0  0
 12 19  1  0  0  0  0
 13 18  1  0  0  0  0
 13 14  1  0  0  0  0
 14 15  1  0  0  0  0
 14 35  1  0  0  0  0
 14 36  1  0  0  0  0
 15 16  1  0  0  0  0
 15 37  1  0  0  0  0
 15 38  1  0  0  0  0
 16 17  1  0  0  0  0
 17 18  1  0  0  0  0
 17 39  1  0  0  0  0
 17 40  1  0  0  0  0
 18 41  1  0  0  0  0
 18 42  1  0  0  0  0
 19 20  2  0  0  0  0
 19 43  1  0  0  0  0
M  END
> <s_m_source_file>
AV-unprocessed.smi

> <i_m_source_file_index>
452

> <i_lp_mmshare_version>
43012

> <i_f3d_flags>
0

> <s_epik_input>
W0NIM11bQ0hdKFtDSDNdKVtDSDJdW0NIMl1DKD1PKVtOSF1jMVtjSF1bY0hdYyhbY0hdbjEpTjJbQ0gyXVtDSDJdT1tDSDJdW0NIMl0y

> <s_epik_cmdline>
J2VwaWtfcHl0aG9uJywgJy1waCcsICc3LjAnLCAnLXRuJywgJzgnLCAnLW1hJywgJzIwMCcsICctbWV0YWxfYmluZGluZycsICctaW1hZScsICc8aW5maWxlLm1hZT4nLCAnLW9tYWUnLCAnPG91dGZpbGUubWFlPic=

> <r_lp_tautomer_probability>
1

> <r_epik_Ionization_Penalty>
0.0030116

> <r_epik_Ionization_Penalty_Charging>
0

> <r_epik_Ionization_Penalty_Neutral>
0.0030116

> <r_epik_State_Penalty>
0.00263935

> <r_epik_Charging_Adjusted_Penalty>
0.00263935

> <i_epik_Tot_Q>
0

> <i_epik_Tot_abs_Q>
0

> <r_epik_Metal_State_Penalty>
-0

> <b_epik_Metal_Only>
0

> <s_lp_Force_Field>
OPLS_2005

> <r_lp_Energy>
28.4973

> <b_lp_Chiralities_Consistent>
1

> <s_lp_Variant>
AV-unprocessed.smi:452-1

> <Gold.Version>
5.8.1

> <Gold.Id.Protein>
6NUR|6NUR_protein|mol2

> <Gold.PLP.Fitness>
41.8220

> <Gold.PLP.PLP>
-40.7707

> <Gold.PLP.part.hbond>
-1.0000

> <Gold.PLP.part.metal>
0.0000

> <Gold.PLP.part.buried>
-5.8953

> <Gold.PLP.part.nonpolar>
-34.2700

> <Gold.PLP.part.repulsive>
0.1587

> <Gold.PLP.ligand.clash>
0.0000

> <Gold.PLP.ligand.torsion>
1.0277

> <Gold.PLP.Chemscore.Hbond>
1.0000

> <Gold.PLP.Chemscore.CHOScore>
0.0000

> <Gold.PLP.Chemscore.Metal>
0.0000

> <Gold.Chemscore.Hbonds>
donor molecule, donor type, donor heavy atom, donor atom, acceptor molecule, acceptor atom, score
      P1  H  6896  6908       L1     7  0.86

> <Gold.PLP.Chemscore.Internal.Correction>
0.1067

> <Gold.Rescore>
     Score         DG    S(hbond)    S(metal)    S(lipo)     H(rot)  DE(clash)    DE(int)     intcor
     16.64     -18.69       1.00        0.00     115.82       1.43       0.15       1.89       ----

> <Gold.Chemscore.Fitness>
16.6383

> <Gold.Chemscore.DG>
-18.6860

> <Gold.Chemscore.ZeroCoef>
-5.4800

> <Gold.Chemscore.Hbond>
0.9952

> <Gold.Chemscore.Metal>
0.0000

> <Gold.Chemscore.Lipo>
115.8208

> <Gold.Chemscore.Internal_Hbond>
0.0000

> <Gold.Chemscore.DEClash>
0.1549

> <Gold.Chemscore.DEInternal>
1.8928

> <Gold.Chemscore.Rot>
1.4332

> <Gold.Chemscore.Internal.Correction>
   9.000000E+99

> <Gold.Chemscore.Hbonds>
donor molecule, donor type, donor heavy atom, donor atom, acceptor molecule, acceptor atom, score
      P1  H  6896  6908       L1     7  0.81

> <Gold.Chemscore.Hbond.Weighted>
-3.3239

> <Gold.Chemscore.Metal.Weighted>
-0.0000

> <Gold.Chemscore.Lipo.Weighted>
-13.5510

> <Gold.Chemscore.Internal_Hbond.Weighted>
0.0000

> <Gold.Chemscore.DEClash.Weighted>
0.1549

> <Gold.Chemscore.DEInternal.Weighted>
1.8928

> <Gold.Chemscore.Rot.Weighted>
3.6689

> <Gold.Chemscore.Internal.Correction.Weighted>
   9.000000E+99

> <Gold.Protein.RotatedTorsions>
[ 6907 6896 6895 6894 ] final  -83.45 input  -60.11 | X-H torsion
[ 7974 7965 7964 7962 ] final -131.62 input  175.53 | X-H torsion
[ 8008 7997 7996 7995 ] final  115.15 input   59.86 | X-H torsion
[ 10167 10162 10161 10158 ] final -161.34 input  -65.29 | X-H torsion
[ 10718 10713 10712 10709 ] final  -75.30 input   66.30 | X-H torsion
[ 10763 10752 10751 10750 ] final -136.43 input  -60.55 | X-H torsion
[ 11005 11000 10999 10996 ] final   85.91 input  -57.11 | X-H torsion

> <Gold.Protein.ActiveResidues>
 VAL166  LYS551  ARG553  GLY616  TRP617  ASP618  TYR619  PRO620  LYS621  CYS622 
 ASP623  PHE694  ASN695  SER759  ASP760  ASP761  ALA762  ILE779  LEU786  VAL792 
 PHE793  MET794  SER795  GLU796  ALA797  LYS798  CYS799  TRP800  GLU811  SER814 

> <Gold.Protein.RotatedAtoms>
  150.6885  134.3509  159.4908 H   0  0  0  0  0  0  0  0  0  0  0  0  # atno 6907 bound_to 6896
  152.1351  134.9103  160.0566 H   0  0  0  0  0  0  0  0  0  0  0  0  # atno 6908 bound_to 6896
  152.0258  133.3882  159.4314 H   0  0  0  0  0  0  0  0  0  0  0  0  # atno 6909 bound_to 6896
  144.9362  140.7186  143.4875 H   0  0  0  0  0  0  0  0  0  0  0  0  # atno 7974 bound_to 7965
  156.2364  140.2944  156.0325 H   0  0  0  0  0  0  0  0  0  0  0  0  # atno 8008 bound_to 7997
  155.2078  140.0411  157.2945 H   0  0  0  0  0  0  0  0  0  0  0  0  # atno 8009 bound_to 7997
  154.6087  140.2446  155.7704 H   0  0  0  0  0  0  0  0  0  0  0  0  # atno 8010 bound_to 7997
  139.6472  144.0150  152.2136 H   0  0  0  0  0  0  0  0  0  0  0  0  # atno 10167 bound_to 10162
  156.0212  130.4437  150.3022 H   0  0  0  0  0  0  0  0  0  0  0  0  # atno 10718 bound_to 10713
  154.8684  135.3673  154.5060 H   0  0  0  0  0  0  0  0  0  0  0  0  # atno 10763 bound_to 10752
  153.5698  135.7021  153.5515 H   0  0  0  0  0  0  0  0  0  0  0  0  # atno 10764 bound_to 10752
  153.3553  135.4061  155.1640 H   0  0  0  0  0  0  0  0  0  0  0  0  # atno 10765 bound_to 10752
  139.8958  134.8319  156.2648 H   0  0  0  0  0  0  0  0  0  0  0  0  # atno 11005 bound_to 11000
  145.3063  139.1833  143.4662 LP  0  0  0  0  0  0  0  0  0  0  0  0  # atno 17320 bound_to 7965
  146.3267  140.3061  142.8624 LP  0  0  0  0  0  0  0  0  0  0  0  0  # atno 17321 bound_to 7965
  139.9855  144.6398  150.7862 LP  0  0  0  0  0  0  0  0  0  0  0  0  # atno 17342 bound_to 10162
  140.7520  143.2983  151.3147 LP  0  0  0  0  0  0  0  0  0  0  0  0  # atno 17343 bound_to 10162
  157.1125  131.0225  151.3042 LP  0  0  0  0  0  0  0  0  0  0  0  0  # atno 17370 bound_to 10713
  157.4693  130.7699  149.7308 LP  0  0  0  0  0  0  0  0  0  0  0  0  # atno 17371 bound_to 10713
  141.0139  133.7080  156.1157 LP  0  0  0  0  0  0  0  0  0  0  0  0  # atno 17394 bound_to 11000
  140.7329  134.4235  157.5564 LP  0  0  0  0  0  0  0  0  0  0  0  0  # atno 17395 bound_to 11000

$$$$
