AV-unprocessed.smi:1793|AV-procd|sdf|7230|dock2
  -GOLD-   22720 8473D 1   1.00000     0.00000
 Structure written by MMmdl.
 47 49  0  0  0  0  0  0  0  0  2 V2000
  152.1632  138.1084  154.9162 C   0  0  0  0  0  0  0  0  0  0  0  0
  150.6302  138.1609  154.9822 C   0  0  2  0  0  0  0  0  0  0  0  0
  150.0776  136.9652  154.3491 N   0  0  0  0  0  0  0  0  0  0  0  0
  150.3562  135.7010  154.6952 C   0  0  0  0  0  0  0  0  0  0  0  0
  151.1932  135.3845  155.5404 O   0  0  0  0  0  0  0  0  0  0  0  0
  149.5800  134.8345  154.0268 N   0  0  0  0  0  0  0  0  0  0  0  0
  149.4708  133.4403  154.2729 C   0  0  0  0  0  0  0  0  0  0  0  0
  150.3865  132.7911  155.1377 C   0  0  0  0  0  0  0  0  0  0  0  0
  150.3128  131.3966  155.3150 C   0  0  0  0  0  0  0  0  0  0  0  0
  149.3331  130.6730  154.6128 C   0  0  0  0  0  0  0  0  0  0  0  0
  148.4813  131.3216  153.7912 N   0  3  0  0  0  0  0  0  0  0  0  0
  148.4915  132.6633  153.5909 C   0  0  0  0  0  0  0  0  0  0  0  0
  147.5225  133.2142  152.7215 N   0  0  0  0  0  0  0  0  0  0  0  0
  146.7464  132.3503  151.8394 C   0  0  0  0  0  0  0  0  0  0  0  0
  145.5855  133.2168  151.3581 C   0  0  0  0  0  0  0  0  0  0  0  0
  145.2913  134.0807  152.5809 C   0  0  0  0  0  0  0  0  0  0  0  0
  146.6691  134.2905  153.2171 C   0  0  0  0  0  0  0  0  0  0  0  0
  150.0662  139.4469  154.3358 C   0  0  1  0  0  0  0  0  0  0  0  0
  148.5806  139.7378  154.5866 C   0  0  0  0  0  0  0  0  0  0  0  0
  148.5324  141.2401  154.4292 C   0  0  0  0  0  0  0  0  0  0  0  0
  149.8484  141.6569  155.0762 C   0  0  0  0  0  0  0  0  0  0  0  0
  150.7641  140.6001  154.8041 O   0  0  0  0  0  0  0  0  0  0  0  0
  152.6059  138.9720  155.4133 H   0  0  0  0  0  0  0  0  0  0  0  0
  152.5208  138.0986  153.8859 H   0  0  0  0  0  0  0  0  0  0  0  0
  152.5468  137.2145  155.4093 H   0  0  0  0  0  0  0  0  0  0  0  0
  150.3583  138.1666  156.0394 H   0  0  0  0  0  0  0  0  0  0  0  0
  149.3810  137.1183  153.6347 H   0  0  0  0  0  0  0  0  0  0  0  0
  148.8725  135.2354  153.4286 H   0  0  0  0  0  0  0  0  0  0  0  0
  151.1560  133.3480  155.6518 H   0  0  0  0  0  0  0  0  0  0  0  0
  151.0052  130.8898  155.9712 H   0  0  0  0  0  0  0  0  0  0  0  0
  149.2057  129.6023  154.6810 H   0  0  0  0  0  0  0  0  0  0  0  0
  147.3498  131.9833  151.0086 H   0  0  0  0  0  0  0  0  0  0  0  0
  146.3578  131.4924  152.3896 H   0  0  0  0  0  0  0  0  0  0  0  0
  145.9075  133.8457  150.5268 H   0  0  0  0  0  0  0  0  0  0  0  0
  144.7254  132.6325  151.0302 H   0  0  0  0  0  0  0  0  0  0  0  0
  144.7926  135.0181  152.3324 H   0  0  0  0  0  0  0  0  0  0  0  0
  144.6482  133.5313  153.2700 H   0  0  0  0  0  0  0  0  0  0  0  0
  146.6050  134.2945  154.3061 H   0  0  0  0  0  0  0  0  0  0  0  0
  147.0853  135.2462  152.8972 H   0  0  0  0  0  0  0  0  0  0  0  0
  150.2332  139.4083  153.2582 H   0  0  0  0  0  0  0  0  0  0  0  0
  147.9238  139.2158  153.8901 H   0  0  0  0  0  0  0  0  0  0  0  0
  148.2802  139.4703  155.6000 H   0  0  0  0  0  0  0  0  0  0  0  0
  148.5303  141.5076  153.3716 H   0  0  0  0  0  0  0  0  0  0  0  0
  147.6612  141.6954  154.9013 H   0  0  0  0  0  0  0  0  0  0  0  0
  150.2158  142.6119  154.7001 H   0  0  0  0  0  0  0  0  0  0  0  0
  149.7297  141.7409  156.1568 H   0  0  0  0  0  0  0  0  0  0  0  0
  147.7793  130.7685  153.2993 H   0  0  0  0  0  0  0  0  0  0  0  0
  1  2  1  0  0  0  0
  1 23  1  0  0  0  0
  1 24  1  0  0  0  0
  1 25  1  0  0  0  0
  2  3  1  0  0  0  0
  2 18  1  0  0  0  0
  2 26  1  0  0  0  0
  3  4  1  0  0  0  0
  3 27  1  0  0  0  0
  4  5  2  0  0  0  0
  4  6  1  0  0  0  0
  6  7  1  0  0  0  0
  6 28  1  0  0  0  0
  7 12  1  0  0  0  0
  7  8  2  0  0  0  0
  8  9  1  0  0  0  0
  8 29  1  0  0  0  0
  9 10  2  0  0  0  0
  9 30  1  0  0  0  0
 10 11  1  0  0  0  0
 10 31  1  0  0  0  0
 11 12  2  0  0  0  0
 11 47  1  0  0  0  0
 12 13  1  0  0  0  0
 13 17  1  0  0  0  0
 13 14  1  0  0  0  0
 14 15  1  0  0  0  0
 14 32  1  0  0  0  0
 14 33  1  0  0  0  0
 15 16  1  0  0  0  0
 15 34  1  0  0  0  0
 15 35  1  0  0  0  0
 16 17  1  0  0  0  0
 16 36  1  0  0  0  0
 16 37  1  0  0  0  0
 17 38  1  0  0  0  0
 17 39  1  0  0  0  0
 18 22  1  0  0  0  0
 18 19  1  0  0  0  0
 18 40  1  0  0  0  0
 19 20  1  0  0  0  0
 19 41  1  0  0  0  0
 19 42  1  0  0  0  0
 20 21  1  0  0  0  0
 20 43  1  0  0  0  0
 20 44  1  0  0  0  0
 21 22  1  0  0  0  0
 21 45  1  0  0  0  0
 21 46  1  0  0  0  0
M  CHG  1  11   1
M  END
> <s_m_source_file>
AV-unprocessed.smi

> <i_m_source_file_index>
1793

> <i_lp_mmshare_version>
43012

> <i_f3d_flags>
0

> <s_epik_input>
TzFbQ0gyXVtDSDJdW0NIMl1bQ0BIXTFbQ0BIXShbQ0gzXSlbTkhdQyg9TylbTkhdYzJbY0hdW2NIXVtjSF1uYzJOM1tDSDJdW0NIMl1bQ0gyXVtDSDJdMw==

> <s_epik_cmdline>
J2VwaWtfcHl0aG9uJywgJy1waCcsICc3LjAnLCAnLXRuJywgJzgnLCAnLW1hJywgJzIwMCcsICctbWV0YWxfYmluZGluZycsICctaW1hZScsICc8aW5maWxlLm1hZT4nLCAnLW9tYWUnLCAnPG91dGZpbGUubWFlPic=

> <r_lp_tautomer_probability>
0.999994

> <r_epik_Ionization_Penalty>
1.11092

> <r_epik_Ionization_Penalty_Charging>
1.1109

> <r_epik_Ionization_Penalty_Neutral>
1.9363e-05

> <r_epik_State_Penalty>
1.16888

> <r_epik_Charging_Adjusted_Penalty>
2.27978

> <i_epik_Tot_Q>
1

> <i_epik_Tot_abs_Q>
1

> <r_epik_Metal_State_Penalty>
1.25472

> <b_epik_Metal_Only>
0

> <s_lp_Force_Field>
OPLS_2005

> <r_lp_Energy>
52.8031

> <b_lp_Chiralities_Consistent>
1

> <s_lp_Variant>
AV-unprocessed.smi:1793-7

> <Gold.Version>
5.8.1

> <Gold.Id.Protein>
6NUR|6NUR_protein|mol2

> <Gold.PLP.Fitness>
46.0615

> <Gold.PLP.PLP>
-36.9410

> <Gold.PLP.part.hbond>
-4.6826

> <Gold.PLP.part.metal>
0.0000

> <Gold.PLP.part.buried>
-0.8600

> <Gold.PLP.part.nonpolar>
-30.9904

> <Gold.PLP.part.repulsive>
0.4039

> <Gold.PLP.ligand.clash>
0.1566

> <Gold.PLP.ligand.torsion>
0.3290

> <Gold.PLP.Chemscore.Hbond>
3.1744

> <Gold.PLP.Chemscore.CHOScore>
0.0000

> <Gold.PLP.Chemscore.Metal>
0.0000

> <Gold.Chemscore.Hbonds>
donor molecule, donor type, donor heavy atom, donor atom, acceptor molecule, acceptor atom, score
      L1  H     3    27       P1  7948  0.67
      L1  H     6    28       P1  7948  0.64
      P1  H  7989  7998       L1    22  0.89
      P1  H 10752 10764       L1     5  1.00

> <Gold.PLP.Chemscore.Internal.Correction>
0.4120

> <Gold.Rescore>
     Score         DG    S(hbond)    S(metal)    S(lipo)     H(rot)  DE(clash)    DE(int)     intcor
     15.97     -19.63       2.46        0.00      80.93       1.38       0.13       3.54       ----

> <Gold.Chemscore.Fitness>
15.9675

> <Gold.Chemscore.DG>
-19.6340

> <Gold.Chemscore.ZeroCoef>
-5.4800

> <Gold.Chemscore.Hbond>
2.4606

> <Gold.Chemscore.Metal>
0.0000

> <Gold.Chemscore.Lipo>
80.9298

> <Gold.Chemscore.Internal_Hbond>
0.0000

> <Gold.Chemscore.DEClash>
0.1276

> <Gold.Chemscore.DEInternal>
3.5389

> <Gold.Chemscore.Rot>
1.3802

> <Gold.Chemscore.Internal.Correction>
   9.000000E+99

> <Gold.Chemscore.Hbonds>
donor molecule, donor type, donor heavy atom, donor atom, acceptor molecule, acceptor atom, score
      L1  H     3    27       P1  7948  0.61
      L1  H     6    28       P1  7948  0.42
      P1  H  7989  7998       L1    22  0.13
      P1  H 10752 10764       L1     5  0.58

> <Gold.Chemscore.Hbond.Weighted>
-8.2184

> <Gold.Chemscore.Metal.Weighted>
-0.0000

> <Gold.Chemscore.Lipo.Weighted>
-9.4688

> <Gold.Chemscore.Internal_Hbond.Weighted>
0.0000

> <Gold.Chemscore.DEClash.Weighted>
0.1276

> <Gold.Chemscore.DEInternal.Weighted>
3.5389

> <Gold.Chemscore.Rot.Weighted>
3.5332

> <Gold.Chemscore.Internal.Correction.Weighted>
   9.000000E+99

> <Gold.Protein.RotatedTorsions>
[ 6907 6896 6895 6894 ] final   97.17 input  -60.11 | X-H torsion
[ 7974 7965 7964 7962 ] final -155.60 input  175.53 | X-H torsion
[ 8008 7997 7996 7995 ] final  -61.09 input   59.86 | X-H torsion
[ 10167 10162 10161 10158 ] final  -40.71 input  -65.29 | X-H torsion
[ 10718 10713 10712 10709 ] final -158.64 input   66.30 | X-H torsion
[ 10763 10752 10751 10750 ] final  -53.60 input  -60.55 | X-H torsion
[ 11005 11000 10999 10996 ] final  165.06 input  -57.11 | X-H torsion

> <Gold.Protein.ActiveResidues>
 VAL166  LYS551  ARG553  GLY616  TRP617  ASP618  TYR619  PRO620  LYS621  CYS622 
 ASP623  PHE694  ASN695  SER759  ASP760  ASP761  ALA762  ILE779  LEU786  VAL792 
 PHE793  MET794  SER795  GLU796  ALA797  LYS798  CYS799  TRP800  GLU811  SER814 

> <Gold.Protein.RotatedAtoms>
  152.5427  134.0774  159.8220 H   0  0  0  0  0  0  0  0  0  0  0  0  # atno 6907 bound_to 6896
  151.0880  133.5330  159.2624 H   0  0  0  0  0  0  0  0  0  0  0  0  # atno 6908 bound_to 6896
  151.2132  135.0498  159.8974 H   0  0  0  0  0  0  0  0  0  0  0  0  # atno 6909 bound_to 6896
  144.7632  140.4226  143.5961 H   0  0  0  0  0  0  0  0  0  0  0  0  # atno 7974 bound_to 7965
  154.4431  140.1025  156.6376 H   0  0  0  0  0  0  0  0  0  0  0  0  # atno 8008 bound_to 7997
  155.5536  140.3486  155.4456 H   0  0  0  0  0  0  0  0  0  0  0  0  # atno 8009 bound_to 7997
  156.0511  140.1304  157.0038 H   0  0  0  0  0  0  0  0  0  0  0  0  # atno 8010 bound_to 7997
  140.7026  143.3137  151.2963 H   0  0  0  0  0  0  0  0  0  0  0  0  # atno 10167 bound_to 10162
  156.5569  130.8630  151.2797 H   0  0  0  0  0  0  0  0  0  0  0  0  # atno 10718 bound_to 10713
  154.1614  135.6474  153.4987 H   0  0  0  0  0  0  0  0  0  0  0  0  # atno 10763 bound_to 10752
  153.0109  135.5361  154.6706 H   0  0  0  0  0  0  0  0  0  0  0  0  # atno 10764 bound_to 10752
  154.6021  135.2945  155.0496 H   0  0  0  0  0  0  0  0  0  0  0  0  # atno 10765 bound_to 10752
  140.2522  134.7968  157.3513 H   0  0  0  0  0  0  0  0  0  0  0  0  # atno 11005 bound_to 11000
  145.6552  139.1572  143.2839 LP  0  0  0  0  0  0  0  0  0  0  0  0  # atno 17320 bound_to 7965
  146.1715  140.6637  142.9231 LP  0  0  0  0  0  0  0  0  0  0  0  0  # atno 17321 bound_to 7965
  139.6569  144.0260  152.2665 LP  0  0  0  0  0  0  0  0  0  0  0  0  # atno 17342 bound_to 10162
  139.9815  144.6425  150.7896 LP  0  0  0  0  0  0  0  0  0  0  0  0  # atno 17343 bound_to 10162
  157.7376  130.9799  150.2205 LP  0  0  0  0  0  0  0  0  0  0  0  0  # atno 17370 bound_to 10713
  156.2834  130.3736  149.7913 LP  0  0  0  0  0  0  0  0  0  0  0  0  # atno 17371 bound_to 10713
  140.1546  134.4806  155.7937 LP  0  0  0  0  0  0  0  0  0  0  0  0  # atno 17394 bound_to 11000
  141.2200  133.6876  156.7439 LP  0  0  0  0  0  0  0  0  0  0  0  0  # atno 17395 bound_to 11000

$$$$
