AV-unprocessed.smi:832|AV-procd|sdf|3878|dock3
  -GOLD-   22720 1333D 1   1.00000     0.00000
 Structure written by MMmdl.
 42 43  0  0  0  0  0  0  0  0  2 V2000
  144.0828  133.5910  151.3773 C   0  0  0  0  0  0  0  0  0  0  0  0
  144.7211  134.8314  151.9016 C   0  0  0  0  0  0  0  0  0  0  0  0
  144.4938  136.1603  151.6785 C   0  0  0  0  0  0  0  0  0  0  0  0
  145.4600  136.7929  152.5051 C   0  0  0  0  0  0  0  0  0  0  0  0
  145.5517  138.2070  152.5665 N   0  0  0  0  0  0  0  0  0  0  0  0
  146.5971  138.9417  152.9832 C   0  0  0  0  0  0  0  0  0  0  0  0
  147.6758  138.4875  153.3655 O   0  0  0  0  0  0  0  0  0  0  0  0
  146.3229  140.2537  152.9323 N   0  0  0  0  0  0  0  0  0  0  0  0
  147.2270  141.3226  153.3470 C   0  0  0  0  0  0  0  0  0  0  0  0
  148.0559  140.9353  154.5869 C   0  0  2  0  0  0  0  0  0  0  0  0
  147.3830  141.1992  155.9327 C   0  0  0  0  0  0  0  0  0  0  0  0
  148.5674  141.2654  156.8893 C   0  0  0  0  0  0  0  0  0  0  0  0
  149.6318  141.9642  156.1356 N   0  3  1  0  0  0  0  0  0  0  0  0
  151.0249  141.7202  156.6062 C   0  0  0  0  0  0  0  0  0  0  0  0
  151.5017  140.2948  156.2669 C   0  0  0  0  0  0  0  0  0  0  0  0
  151.1456  141.9508  158.1248 C   0  0  0  0  0  0  0  0  0  0  0  0
  149.3908  141.6908  154.6950 C   0  0  0  0  0  0  0  0  0  0  0  0
  146.2124  135.9286  153.1689 N   0  0  0  0  0  0  0  0  0  0  0  0
  145.7424  134.6669  152.7855 O   0  0  0  0  0  0  0  0  0  0  0  0
  143.2276  133.8299  150.7450 H   0  0  0  0  0  0  0  0  0  0  0  0
  143.7326  132.9610  152.1951 H   0  0  0  0  0  0  0  0  0  0  0  0
  144.7917  133.0135  150.7838 H   0  0  0  0  0  0  0  0  0  0  0  0
  143.7526  136.6042  151.0306 H   0  0  0  0  0  0  0  0  0  0  0  0
  144.7261  138.7111  152.2786 H   0  0  0  0  0  0  0  0  0  0  0  0
  145.4111  140.5344  152.6017 H   0  0  0  0  0  0  0  0  0  0  0  0
  147.8972  141.5280  152.5119 H   0  0  0  0  0  0  0  0  0  0  0  0
  146.6762  142.2478  153.5267 H   0  0  0  0  0  0  0  0  0  0  0  0
  148.2831  139.8689  154.5356 H   0  0  0  0  0  0  0  0  0  0  0  0
  146.8645  142.1591  155.9189 H   0  0  0  0  0  0  0  0  0  0  0  0
  146.6618  140.4285  156.2068 H   0  0  0  0  0  0  0  0  0  0  0  0
  148.3187  141.7825  157.8164 H   0  0  0  0  0  0  0  0  0  0  0  0
  148.8930  140.2539  157.1385 H   0  0  0  0  0  0  0  0  0  0  0  0
  151.6831  142.4264  156.0971 H   0  0  0  0  0  0  0  0  0  0  0  0
  152.5041  140.1163  156.6579 H   0  0  0  0  0  0  0  0  0  0  0  0
  151.5494  140.1224  155.1917 H   0  0  0  0  0  0  0  0  0  0  0  0
  150.8418  139.5416  156.6989 H   0  0  0  0  0  0  0  0  0  0  0  0
  152.1600  141.7497  158.4706 H   0  0  0  0  0  0  0  0  0  0  0  0
  150.4733  141.2947  158.6789 H   0  0  0  0  0  0  0  0  0  0  0  0
  150.9145  142.9776  158.4070 H   0  0  0  0  0  0  0  0  0  0  0  0
  150.1873  141.0956  154.2464 H   0  0  0  0  0  0  0  0  0  0  0  0
  149.3567  142.6454  154.1685 H   0  0  0  0  0  0  0  0  0  0  0  0
  149.4502  142.9500  156.2608 H   0  0  0  0  0  0  0  0  0  0  0  0
  1  2  1  0  0  0  0
  1 20  1  0  0  0  0
  1 21  1  0  0  0  0
  1 22  1  0  0  0  0
  2 19  1  0  0  0  0
  2  3  2  0  0  0  0
  3  4  1  0  0  0  0
  3 23  1  0  0  0  0
  4  5  1  0  0  0  0
  4 18  2  0  0  0  0
  5  6  1  0  0  0  0
  5 24  1  0  0  0  0
  6  7  2  0  0  0  0
  6  8  1  0  0  0  0
  8  9  1  0  0  0  0
  8 25  1  0  0  0  0
  9 10  1  0  0  0  0
  9 26  1  0  0  0  0
  9 27  1  0  0  0  0
 10 17  1  0  0  0  0
 10 11  1  0  0  0  0
 10 28  1  0  0  0  0
 11 12  1  0  0  0  0
 11 29  1  0  0  0  0
 11 30  1  0  0  0  0
 12 13  1  0  0  0  0
 12 31  1  0  0  0  0
 12 32  1  0  0  0  0
 13 14  1  0  0  0  0
 13 17  1  0  0  0  0
 13 42  1  0  0  0  0
 14 15  1  0  0  0  0
 14 16  1  0  0  0  0
 14 33  1  0  0  0  0
 15 34  1  0  0  0  0
 15 35  1  0  0  0  0
 15 36  1  0  0  0  0
 16 37  1  0  0  0  0
 16 38  1  0  0  0  0
 16 39  1  0  0  0  0
 17 40  1  0  0  0  0
 17 41  1  0  0  0  0
 18 19  1  0  0  0  0
M  CHG  1  13   1
M  END
> <s_m_source_file>
AV-unprocessed.smi

> <i_m_source_file_index>
832

> <i_lp_mmshare_version>
43012

> <i_f3d_flags>
0

> <s_epik_input>
W0NIM11jMVtjSF1jKG5vMSlbTkhdQyg9TylbTkhdW0NIMl1bQ0BASF0yW0NIMl1bQ0gyXU4oW0NIMl0yKVtDSF0oW0NIM10pW0NIM10=

> <s_epik_cmdline>
J2VwaWtfcHl0aG9uJywgJy1waCcsICc3LjAnLCAnLXRuJywgJzgnLCAnLW1hJywgJzIwMCcsICctbWV0YWxfYmluZGluZycsICctaW1hZScsICc8aW5maWxlLm1hZT4nLCAnLW9tYWUnLCAnPG91dGZpbGUubWFlPic=

> <r_lp_tautomer_probability>
1

> <r_epik_Ionization_Penalty>
0.000242791

> <r_epik_Ionization_Penalty_Charging>
0.000220876

> <r_epik_Ionization_Penalty_Neutral>
2.19143e-05

> <r_epik_State_Penalty>
-0

> <r_epik_Charging_Adjusted_Penalty>
0.000220876

> <i_epik_Tot_Q>
1

> <i_epik_Tot_abs_Q>
1

> <r_epik_Metal_State_Penalty>
-0

> <b_epik_Metal_Only>
0

> <s_lp_Force_Field>
OPLS_2005

> <r_lp_Energy>
27.9623

> <b_lp_Chiralities_Consistent>
1

> <s_lp_Variant>
AV-unprocessed.smi:832-3

> <Gold.Version>
5.8.1

> <Gold.Id.Protein>
6NUR|6NUR_protein|mol2

> <Gold.PLP.Fitness>
38.3522

> <Gold.PLP.PLP>
-27.7624

> <Gold.PLP.part.hbond>
-3.2721

> <Gold.PLP.part.metal>
0.0000

> <Gold.PLP.part.buried>
-3.8191

> <Gold.PLP.part.nonpolar>
-21.9335

> <Gold.PLP.part.repulsive>
1.8290

> <Gold.PLP.ligand.clash>
0.0000

> <Gold.PLP.ligand.torsion>
0.6125

> <Gold.PLP.Chemscore.Hbond>
3.9280

> <Gold.PLP.Chemscore.CHOScore>
0.0000

> <Gold.PLP.Chemscore.Metal>
0.0000

> <Gold.Chemscore.Hbonds>
donor molecule, donor type, donor heavy atom, donor atom, acceptor molecule, acceptor atom, score
      L1  H     5    24       P1 10175  0.90
      L1  H     8    25       P1 10175  1.00
      L1  H    13    42       P1  8028  2.00

> <Gold.PLP.Chemscore.Internal.Correction>
0.0308

> <Gold.Rescore>
     Score         DG    S(hbond)    S(metal)    S(lipo)     H(rot)  DE(clash)    DE(int)     intcor
     14.61     -17.93       2.73        0.00      61.63       1.51       0.04       3.29       ----

> <Gold.Chemscore.Fitness>
14.6062

> <Gold.Chemscore.DG>
-17.9303

> <Gold.Chemscore.ZeroCoef>
-5.4800

> <Gold.Chemscore.Hbond>
2.7296

> <Gold.Chemscore.Metal>
0.0000

> <Gold.Chemscore.Lipo>
61.6320

> <Gold.Chemscore.Internal_Hbond>
0.0000

> <Gold.Chemscore.DEClash>
0.0375

> <Gold.Chemscore.DEInternal>
3.2866

> <Gold.Chemscore.Rot>
1.5146

> <Gold.Chemscore.Internal.Correction>
   9.000000E+99

> <Gold.Chemscore.Hbonds>
donor molecule, donor type, donor heavy atom, donor atom, acceptor molecule, acceptor atom, score
      L1  H     5    24       P1 10175  0.83
      L1  H     8    25       P1 10175  0.55
      L1  H    13    42       P1  8028  0.97

> <Gold.Chemscore.Hbond.Weighted>
-9.1167

> <Gold.Chemscore.Metal.Weighted>
-0.0000

> <Gold.Chemscore.Lipo.Weighted>
-7.2109

> <Gold.Chemscore.Internal_Hbond.Weighted>
0.0000

> <Gold.Chemscore.DEClash.Weighted>
0.0375

> <Gold.Chemscore.DEInternal.Weighted>
3.2866

> <Gold.Chemscore.Rot.Weighted>
3.8774

> <Gold.Chemscore.Internal.Correction.Weighted>
   9.000000E+99

> <Gold.Protein.RotatedTorsions>
[ 6907 6896 6895 6894 ] final  -51.57 input  -60.11 | X-H torsion
[ 7974 7965 7964 7962 ] final -109.54 input  175.53 | X-H torsion
[ 8008 7997 7996 7995 ] final   84.52 input   59.86 | X-H torsion
[ 10167 10162 10161 10158 ] final  159.82 input  -65.29 | X-H torsion
[ 10718 10713 10712 10709 ] final  116.67 input   66.30 | X-H torsion
[ 10763 10752 10751 10750 ] final  139.25 input  -60.55 | X-H torsion
[ 11005 11000 10999 10996 ] final   -5.70 input  -57.11 | X-H torsion

> <Gold.Protein.ActiveResidues>
 VAL166  LYS551  ARG553  GLY616  TRP617  ASP618  TYR619  PRO620  LYS621  CYS622 
 ASP623  PHE694  ASN695  SER759  ASP760  ASP761  ALA762  ILE779  LEU786  VAL792 
 PHE793  MET794  SER795  GLU796  ALA797  LYS798  CYS799  TRP800  GLU811  SER814 

> <Gold.Protein.RotatedAtoms>
  150.8599  134.7948  159.7074 H   0  0  0  0  0  0  0  0  0  0  0  0  # atno 6907 bound_to 6896
  152.4639  134.5117  159.9765 H   0  0  0  0  0  0  0  0  0  0  0  0  # atno 6908 bound_to 6896
  151.5223  133.3426  159.2939 H   0  0  0  0  0  0  0  0  0  0  0  0  # atno 6909 bound_to 6896
  145.1792  140.8963  143.3490 H   0  0  0  0  0  0  0  0  0  0  0  0  # atno 7974 bound_to 7965
  155.9381  140.3410  155.6305 H   0  0  0  0  0  0  0  0  0  0  0  0  # atno 8008 bound_to 7997
  155.7073  140.0767  157.2404 H   0  0  0  0  0  0  0  0  0  0  0  0  # atno 8009 bound_to 7997
  154.4097  140.1629  156.2245 H   0  0  0  0  0  0  0  0  0  0  0  0  # atno 8010 bound_to 7997
  139.4835  144.4694  151.8597 H   0  0  0  0  0  0  0  0  0  0  0  0  # atno 10167 bound_to 10162
  157.6146  131.1028  150.7505 H   0  0  0  0  0  0  0  0  0  0  0  0  # atno 10718 bound_to 10713
  153.9031  135.3020  155.3448 H   0  0  0  0  0  0  0  0  0  0  0  0  # atno 10763 bound_to 10752
  154.7661  135.4910  153.9559 H   0  0  0  0  0  0  0  0  0  0  0  0  # atno 10764 bound_to 10752
  153.1234  135.6787  153.9398 H   0  0  0  0  0  0  0  0  0  0  0  0  # atno 10765 bound_to 10752
  140.6940  133.9047  155.8637 H   0  0  0  0  0  0  0  0  0  0  0  0  # atno 11005 bound_to 11000
  145.0153  139.3472  143.6099 LP  0  0  0  0  0  0  0  0  0  0  0  0  # atno 17320 bound_to 7965
  146.3456  139.9432  142.8738 LP  0  0  0  0  0  0  0  0  0  0  0  0  # atno 17321 bound_to 7965
  140.4161  144.2305  150.5887 LP  0  0  0  0  0  0  0  0  0  0  0  0  # atno 17342 bound_to 10162
  140.4919  143.2345  151.8806 LP  0  0  0  0  0  0  0  0  0  0  0  0  # atno 17343 bound_to 10162
  156.7876  130.4879  149.5390 LP  0  0  0  0  0  0  0  0  0  0  0  0  # atno 17370 bound_to 10713
  156.1262  130.6145  151.0267 LP  0  0  0  0  0  0  0  0  0  0  0  0  # atno 17371 bound_to 10713
  141.0218  134.0878  157.4112 LP  0  0  0  0  0  0  0  0  0  0  0  0  # atno 17394 bound_to 11000
  139.8915  135.0119  156.6797 LP  0  0  0  0  0  0  0  0  0  0  0  0  # atno 17395 bound_to 11000

$$$$
