AV-unprocessed.smi:2032|AV-procd|sdf|8253|dock8
  -GOLD-   2272010523D 1   1.00000     0.00000
 Structure written by MMmdl.
 42 43  0  0  0  0  0  0  0  0  3 V2000
  153.8579  141.6333  160.7827 C   0  0  0  0  0  0  0  0  0  0  0  0
  152.7721  142.5064  160.1439 C   0  0  2  0  0  0  0  0  0  0  0  0
  151.7388  141.6656  159.3709 C   0  0  0  0  0  0  0  0  0  0  0  0
  150.7533  142.5393  158.6798 N   0  3  2  0  0  0  0  0  0  0  0  0
  149.6362  141.8403  157.9666 C   0  0  1  0  0  0  0  0  0  0  0  0
  148.3479  142.6885  157.8363 C   0  0  0  0  0  0  0  0  0  0  0  0
  150.1183  141.3753  156.5675 C   0  0  0  0  0  0  0  0  0  0  0  0
  151.3006  140.5218  156.6268 N   0  0  0  0  0  0  0  0  0  0  0  0
  151.6986  139.6736  155.6684 C   0  0  0  0  0  0  0  0  0  0  0  0
  151.0311  139.5540  154.6382 O   0  0  0  0  0  0  0  0  0  0  0  0
  152.8480  139.0252  155.9607 N   0  5  0  0  0  0  0  0  0  0  0  0
  152.9855  138.4029  157.1427 C   0  0  0  0  0  0  0  0  0  0  0  0
  154.1738  138.1705  157.7118 N   0  0  0  0  0  0  0  0  0  0  0  0
  154.0821  137.5051  158.9357 C   0  0  0  0  0  0  0  0  0  0  0  0
  152.7944  137.2166  159.3028 C   0  0  0  0  0  0  0  0  0  0  0  0
  151.6516  137.7746  158.1145 S   0  0  0  0  0  0  0  0  0  0  0  0
  151.4761  143.4938  157.7969 C   0  0  0  0  0  0  0  0  0  0  0  0
  152.5264  144.3047  158.5778 C   0  0  1  0  0  0  0  0  0  0  0  0
  151.9157  145.3665  159.5102 C   0  0  0  0  0  0  0  0  0  0  0  0
  153.4125  143.4213  159.2613 O   0  0  0  0  0  0  0  0  0  0  0  0
  153.4259  140.9191  161.4840 H   0  0  0  0  0  0  0  0  0  0  0  0
  154.5761  142.2433  161.3315 H   0  0  0  0  0  0  0  0  0  0  0  0
  154.4078  141.0704  160.0279 H   0  0  0  0  0  0  0  0  0  0  0  0
  152.2713  143.0558  160.9414 H   0  0  0  0  0  0  0  0  0  0  0  0
  152.2350  141.0248  158.6397 H   0  0  0  0  0  0  0  0  0  0  0  0
  151.2433  141.0175  160.0933 H   0  0  0  0  0  0  0  0  0  0  0  0
  149.3689  140.9643  158.5597 H   0  0  0  0  0  0  0  0  0  0  0  0
  147.5662  142.1511  157.2993 H   0  0  0  0  0  0  0  0  0  0  0  0
  148.5334  143.6177  157.2966 H   0  0  0  0  0  0  0  0  0  0  0  0
  147.9205  142.9337  158.8086 H   0  0  0  0  0  0  0  0  0  0  0  0
  149.3258  140.8104  156.0757 H   0  0  0  0  0  0  0  0  0  0  0  0
  150.3386  142.2154  155.9098 H   0  0  0  0  0  0  0  0  0  0  0  0
  151.8726  140.5851  157.4566 H   0  0  0  0  0  0  0  0  0  0  0  0
  154.9867  137.2746  159.4785 H   0  0  0  0  0  0  0  0  0  0  0  0
  152.4497  136.7116  160.1925 H   0  0  0  0  0  0  0  0  0  0  0  0
  151.9713  142.9331  157.0022 H   0  0  0  0  0  0  0  0  0  0  0  0
  150.7898  144.1804  157.3035 H   0  0  0  0  0  0  0  0  0  0  0  0
  153.1388  144.8396  157.8512 H   0  0  0  0  0  0  0  0  0  0  0  0
  151.3572  146.1069  158.9370 H   0  0  0  0  0  0  0  0  0  0  0  0
  152.6945  145.8957  160.0598 H   0  0  0  0  0  0  0  0  0  0  0  0
  151.2269  144.9353  160.2364 H   0  0  0  0  0  0  0  0  0  0  0  0
  150.3154  143.0856  159.4077 H   0  0  0  0  0  0  0  0  0  0  0  0
  1  2  1  0  0  0  0
  1 21  1  0  0  0  0
  1 22  1  0  0  0  0
  1 23  1  0  0  0  0
  2 20  1  0  0  0  0
  2  3  1  0  0  0  0
  2 24  1  0  0  0  0
  3  4  1  0  0  0  0
  3 25  1  0  0  0  0
  3 26  1  0  0  0  0
  4  5  1  0  0  0  0
  4 17  1  0  0  0  0
  4 42  1  0  0  0  0
  5  6  1  0  0  0  0
  5  7  1  0  0  0  0
  5 27  1  0  0  0  0
  6 28  1  0  0  0  0
  6 29  1  0  0  0  0
  6 30  1  0  0  0  0
  7  8  1  0  0  0  0
  7 31  1  0  0  0  0
  7 32  1  0  0  0  0
  8  9  1  0  0  0  0
  8 33  1  0  0  0  0
  9 10  2  0  0  0  0
  9 11  1  0  0  0  0
 11 12  1  0  0  0  0
 12 16  1  0  0  0  0
 12 13  2  0  0  0  0
 13 14  1  0  0  0  0
 14 15  2  0  0  0  0
 14 34  1  0  0  0  0
 15 16  1  0  0  0  0
 15 35  1  0  0  0  0
 17 18  1  0  0  0  0
 17 36  1  0  0  0  0
 17 37  1  0  0  0  0
 18 19  1  0  0  0  0
 18 20  1  0  0  0  0
 18 38  1  0  0  0  0
 19 39  1  0  0  0  0
 19 40  1  0  0  0  0
 19 41  1  0  0  0  0
M  CHG  1   4   1
M  CHG  1  11  -1
M  END
> <s_m_source_file>
AV-unprocessed.smi

> <i_m_source_file_index>
2032

> <i_lp_mmshare_version>
43012

> <i_f3d_flags>
0

> <s_epik_input>
W0NIM11bQ0BASF0xW0NIMl1OKFtDSDJdW0NASF0oTzEpW0NIM10pW0NASF0oW0NIM10pW0NIMl1bTkhdQyg9TylbTkhdYzJuW2NIXVtjSF1zMg==

> <s_epik_cmdline>
J2VwaWtfcHl0aG9uJywgJy1waCcsICc3LjAnLCAnLXRuJywgJzgnLCAnLW1hJywgJzIwMCcsICctbWV0YWxfYmluZGluZycsICctaW1hZScsICc8aW5maWxlLm1hZT4nLCAnLW9tYWUnLCAnPG91dGZpbGUubWFlPic=

> <r_lp_tautomer_probability>
0.999

> <r_epik_Ionization_Penalty>
6.71699

> <r_epik_Ionization_Penalty_Charging>
5.88592

> <r_epik_Ionization_Penalty_Neutral>
0.831074

> <r_epik_State_Penalty>
6.08365

> <r_epik_Charging_Adjusted_Penalty>
11.9696

> <i_epik_Tot_Q>
0

> <i_epik_Tot_abs_Q>
2

> <r_epik_Metal_State_Penalty>
2.0947

> <b_epik_Metal_Only>
1

> <s_lp_Force_Field>
OPLS_2005

> <r_lp_Energy>
13.0518

> <b_lp_Chiralities_Consistent>
1

> <s_lp_Variant>
AV-unprocessed.smi:2032-23

> <Gold.Version>
5.8.1

> <Gold.Id.Protein>
6NUR|6NUR_protein|mol2

> <Gold.PLP.Fitness>
45.2370

> <Gold.PLP.PLP>
-38.0447

> <Gold.PLP.part.hbond>
-3.0000

> <Gold.PLP.part.metal>
0.0000

> <Gold.PLP.part.buried>
-4.1203

> <Gold.PLP.part.nonpolar>
-30.7369

> <Gold.PLP.part.repulsive>
0.3025

> <Gold.PLP.ligand.clash>
0.0000

> <Gold.PLP.ligand.torsion>
1.1498

> <Gold.PLP.Chemscore.Hbond>
3.1440

> <Gold.PLP.Chemscore.CHOScore>
0.0000

> <Gold.PLP.Chemscore.Metal>
0.0000

> <Gold.Chemscore.Hbonds>
donor molecule, donor type, donor heavy atom, donor atom, acceptor molecule, acceptor atom, score
      P1  H  7989  7998       L1    10  1.00
      P1  H  7997  8008       L1    11  1.52
      P1  H  7997  8010       L1    13  0.38

> <Gold.PLP.Chemscore.Internal.Correction>
0.0600

> <Gold.Rescore>
     Score         DG    S(hbond)    S(metal)    S(lipo)     H(rot)  DE(clash)    DE(int)     intcor
     15.97     -17.66       1.56        0.00      94.04       1.58       0.38       1.32       ----

> <Gold.Chemscore.Fitness>
15.9655

> <Gold.Chemscore.DG>
-17.6644

> <Gold.Chemscore.ZeroCoef>
-5.4800

> <Gold.Chemscore.Hbond>
1.5642

> <Gold.Chemscore.Metal>
0.0000

> <Gold.Chemscore.Lipo>
94.0374

> <Gold.Chemscore.Internal_Hbond>
0.0000

> <Gold.Chemscore.DEClash>
0.3813

> <Gold.Chemscore.DEInternal>
1.3176

> <Gold.Chemscore.Rot>
1.5791

> <Gold.Chemscore.Internal.Correction>
   9.000000E+99

> <Gold.Chemscore.Hbonds>
donor molecule, donor type, donor heavy atom, donor atom, acceptor molecule, acceptor atom, score
      P1  H  7989  7998       L1    10  0.55
      P1  H  7997  8008       L1    11  0.28
      P1  H  7997  8010       L1    13  0.15

> <Gold.Chemscore.Hbond.Weighted>
-5.2245

> <Gold.Chemscore.Metal.Weighted>
-0.0000

> <Gold.Chemscore.Lipo.Weighted>
-11.0024

> <Gold.Chemscore.Internal_Hbond.Weighted>
0.0000

> <Gold.Chemscore.DEClash.Weighted>
0.3813

> <Gold.Chemscore.DEInternal.Weighted>
1.3176

> <Gold.Chemscore.Rot.Weighted>
4.0425

> <Gold.Chemscore.Internal.Correction.Weighted>
   9.000000E+99

> <Gold.Protein.RotatedTorsions>
[ 6907 6896 6895 6894 ] final   26.70 input  -60.11 | X-H torsion
[ 7974 7965 7964 7962 ] final  -24.22 input  175.53 | X-H torsion
[ 8008 7997 7996 7995 ] final   -9.32 input   59.86 | X-H torsion
[ 10167 10162 10161 10158 ] final  116.40 input  -65.29 | X-H torsion
[ 10718 10713 10712 10709 ] final  -83.38 input   66.30 | X-H torsion
[ 10763 10752 10751 10750 ] final -178.59 input  -60.55 | X-H torsion
[ 11005 11000 10999 10996 ] final   37.61 input  -57.11 | X-H torsion

> <Gold.Protein.ActiveResidues>
 VAL166  LYS551  ARG553  GLY616  TRP617  ASP618  TYR619  PRO620  LYS621  CYS622 
 ASP623  PHE694  ASN695  SER759  ASP760  ASP761  ALA762  ILE779  LEU786  VAL792 
 PHE793  MET794  SER795  GLU796  ALA797  LYS798  CYS799  TRP800  GLU811  SER814 

> <Gold.Protein.RotatedAtoms>
  151.9913  134.9978  160.0561 H   0  0  0  0  0  0  0  0  0  0  0  0  # atno 6907 bound_to 6896
  152.1606  133.4574  159.4867 H   0  0  0  0  0  0  0  0  0  0  0  0  # atno 6908 bound_to 6896
  150.6887  134.1994  159.4359 H   0  0  0  0  0  0  0  0  0  0  0  0  # atno 6909 bound_to 6896
  146.1568  140.4722  142.8588 H   0  0  0  0  0  0  0  0  0  0  0  0  # atno 7974 bound_to 7965
  154.5658  140.2358  155.8266 H   0  0  0  0  0  0  0  0  0  0  0  0  # atno 8008 bound_to 7997
  156.2067  140.3038  155.9600 H   0  0  0  0  0  0  0  0  0  0  0  0  # atno 8009 bound_to 7997
  155.2804  140.0422  157.3005 H   0  0  0  0  0  0  0  0  0  0  0  0  # atno 8010 bound_to 7997
  139.6249  144.7107  151.2554 H   0  0  0  0  0  0  0  0  0  0  0  0  # atno 10167 bound_to 10162
  156.0019  130.4664  150.4248 H   0  0  0  0  0  0  0  0  0  0  0  0  # atno 10718 bound_to 10713
  154.5458  135.2809  155.1054 H   0  0  0  0  0  0  0  0  0  0  0  0  # atno 10763 bound_to 10752
  154.2519  135.6338  153.5247 H   0  0  0  0  0  0  0  0  0  0  0  0  # atno 10764 bound_to 10752
  152.9990  135.5584  154.6010 H   0  0  0  0  0  0  0  0  0  0  0  0  # atno 10765 bound_to 10752
  140.2208  134.3643  155.8006 H   0  0  0  0  0  0  0  0  0  0  0  0  # atno 11005 bound_to 11000
  144.7974  140.6148  143.6501 LP  0  0  0  0  0  0  0  0  0  0  0  0  # atno 17320 bound_to 7965
  145.4688  139.1505  143.3825 LP  0  0  0  0  0  0  0  0  0  0  0  0  # atno 17321 bound_to 7965
  140.7405  143.6586  150.8184 LP  0  0  0  0  0  0  0  0  0  0  0  0  # atno 17342 bound_to 10162
  140.0202  143.5550  152.2803 LP  0  0  0  0  0  0  0  0  0  0  0  0  # atno 17343 bound_to 10162
  157.2301  131.0502  151.2497 LP  0  0  0  0  0  0  0  0  0  0  0  0  # atno 17370 bound_to 10713
  157.3719  130.7185  149.6570 LP  0  0  0  0  0  0  0  0  0  0  0  0  # atno 17371 bound_to 10713
  141.2223  133.7192  156.8572 LP  0  0  0  0  0  0  0  0  0  0  0  0  # atno 17394 bound_to 11000
  140.1852  134.9005  157.2995 LP  0  0  0  0  0  0  0  0  0  0  0  0  # atno 17395 bound_to 11000

$$$$
