AV-unprocessed.smi:2895|AV-procd|sdf|11133|dock5
  -GOLD-   2272016 03D 1   1.00000     0.00000
 Structure written by MMmdl.
 54 57  0  0  0  0  0  0  0  0  3 V2000
  149.5375  134.3929  156.2211 O   0  0  0  0  0  0  0  0  0  0  0  0
  148.7090  134.9141  155.4725 C   0  0  0  0  0  0  0  0  0  0  0  0
  148.8455  136.1819  155.0432 N   0  0  0  0  0  0  0  0  0  0  0  0
  149.9470  137.0734  155.3872 C   0  0  0  0  0  0  0  0  0  0  0  0
  150.2032  138.1081  154.2799 C   0  0  0  0  0  0  0  0  0  0  0  0
  149.8754  139.5187  154.7304 C   0  0  0  0  0  0  0  0  0  0  0  0
  148.7461  140.1916  154.2137 C   0  0  0  0  0  0  0  0  0  0  0  0
  148.4658  141.5019  154.6528 C   0  0  0  0  0  0  0  0  0  0  0  0
  149.2740  142.0955  155.5585 N   0  3  0  0  0  0  0  0  0  0  0  0
  150.3619  141.4861  156.0791 C   0  0  0  0  0  0  0  0  0  0  0  0
  150.6923  140.1758  155.6769 C   0  0  0  0  0  0  0  0  0  0  0  0
  147.6147  134.2585  154.9996 N   0  0  0  0  0  0  0  0  0  0  0  0
  146.5571  134.9244  154.2027 C   0  0  0  0  0  0  0  0  0  0  0  0
  145.2026  134.1954  154.2036 C   0  0  0  0  0  0  0  0  0  0  0  0
  145.3437  132.7430  153.9521 N   0  3  0  0  0  0  0  0  0  0  0  0
  145.8094  132.3651  152.5799 C   0  0  1  0  0  0  0  0  0  0  0  0
  145.2268  131.0040  152.1148 C   0  0  0  0  0  0  0  0  0  0  0  0
  144.5828  131.3302  150.7574 C   0  0  2  0  0  0  0  0  0  0  0  0
  145.6786  131.6475  149.7255 C   0  0  0  0  0  0  0  0  0  0  0  0
  146.1757  133.0303  150.1813 C   0  0  0  0  0  0  0  0  0  0  0  0
  145.3276  133.3047  151.4391 C   0  0  1  0  0  0  0  0  0  0  0  0
  143.9868  132.7035  151.0330 C   0  0  0  0  0  0  0  0  0  0  0  0
  146.1597  132.1600  155.0428 C   0  0  0  0  0  0  0  0  0  0  0  0
  147.5649  132.7865  155.1341 C   0  0  0  0  0  0  0  0  0  0  0  0
  148.1398  136.5498  154.4218 H   0  0  0  0  0  0  0  0  0  0  0  0
  149.7446  137.5713  156.3371 H   0  0  0  0  0  0  0  0  0  0  0  0
  150.8382  136.4642  155.5412 H   0  0  0  0  0  0  0  0  0  0  0  0
  151.2472  138.0703  153.9660 H   0  0  0  0  0  0  0  0  0  0  0  0
  149.6089  137.8720  153.3960 H   0  0  0  0  0  0  0  0  0  0  0  0
  148.1015  139.7114  153.4914 H   0  0  0  0  0  0  0  0  0  0  0  0
  147.6261  142.0883  154.3097 H   0  0  0  0  0  0  0  0  0  0  0  0
  150.9305  142.0605  156.7959 H   0  0  0  0  0  0  0  0  0  0  0  0
  151.5601  139.6830  156.0909 H   0  0  0  0  0  0  0  0  0  0  0  0
  146.3648  135.9373  154.5597 H   0  0  0  0  0  0  0  0  0  0  0  0
  146.9189  135.0235  153.1784 H   0  0  0  0  0  0  0  0  0  0  0  0
  144.7392  134.3217  155.1834 H   0  0  0  0  0  0  0  0  0  0  0  0
  144.5081  134.6678  153.5130 H   0  0  0  0  0  0  0  0  0  0  0  0
  146.8992  132.3258  152.5776 H   0  0  0  0  0  0  0  0  0  0  0  0
  145.9910  130.2295  152.0380 H   0  0  0  0  0  0  0  0  0  0  0  0
  144.4528  130.6381  152.7904 H   0  0  0  0  0  0  0  0  0  0  0  0
  143.8690  130.5779  150.4207 H   0  0  0  0  0  0  0  0  0  0  0  0
  146.4719  130.8988  149.7215 H   0  0  0  0  0  0  0  0  0  0  0  0
  145.2628  131.7019  148.7183 H   0  0  0  0  0  0  0  0  0  0  0  0
  147.2470  133.0434  150.3849 H   0  0  0  0  0  0  0  0  0  0  0  0
  145.9769  133.7780  149.4123 H   0  0  0  0  0  0  0  0  0  0  0  0
  145.2976  134.3669  151.6707 H   0  0  0  0  0  0  0  0  0  0  0  0
  143.5523  133.1718  150.1480 H   0  0  0  0  0  0  0  0  0  0  0  0
  143.2490  132.7047  151.8372 H   0  0  0  0  0  0  0  0  0  0  0  0
  145.6353  132.3283  155.9845 H   0  0  0  0  0  0  0  0  0  0  0  0
  146.2404  131.0776  154.9495 H   0  0  0  0  0  0  0  0  0  0  0  0
  148.1986  132.3643  154.3529 H   0  0  0  0  0  0  0  0  0  0  0  0
  148.0019  132.4617  156.0801 H   0  0  0  0  0  0  0  0  0  0  0  0
  144.4180  132.3492  154.0442 H   0  0  0  0  0  0  0  0  0  0  0  0
  149.0530  143.0441  155.8623 H   0  0  0  0  0  0  0  0  0  0  0  0
  1  2  2  0  0  0  0
  2  3  1  0  0  0  0
  2 12  1  0  0  0  0
  3  4  1  0  0  0  0
  3 25  1  0  0  0  0
  4  5  1  0  0  0  0
  4 26  1  0  0  0  0
  4 27  1  0  0  0  0
  5  6  1  0  0  0  0
  5 28  1  0  0  0  0
  5 29  1  0  0  0  0
  6 11  1  0  0  0  0
  6  7  2  0  0  0  0
  7  8  1  0  0  0  0
  7 30  1  0  0  0  0
  8  9  2  0  0  0  0
  8 31  1  0  0  0  0
  9 10  1  0  0  0  0
  9 54  1  0  0  0  0
 10 11  2  0  0  0  0
 10 32  1  0  0  0  0
 11 33  1  0  0  0  0
 12 24  1  0  0  0  0
 12 13  1  0  0  0  0
 13 14  1  0  0  0  0
 13 34  1  0  0  0  0
 13 35  1  0  0  0  0
 14 15  1  0  0  0  0
 14 36  1  0  0  0  0
 14 37  1  0  0  0  0
 15 16  1  0  0  0  0
 15 23  1  0  0  0  0
 15 53  1  0  0  0  0
 16 21  1  0  0  0  0
 16 17  1  0  0  0  0
 16 38  1  0  0  0  0
 17 18  1  0  0  0  0
 17 39  1  0  0  0  0
 17 40  1  0  0  0  0
 18 22  1  0  0  0  0
 18 19  1  0  0  0  0
 18 41  1  0  0  0  0
 19 20  1  0  0  0  0
 19 42  1  0  0  0  0
 19 43  1  0  0  0  0
 20 21  1  0  0  0  0
 20 44  1  0  0  0  0
 20 45  1  0  0  0  0
 21 22  1  0  0  0  0
 21 46  1  0  0  0  0
 22 47  1  0  0  0  0
 22 48  1  0  0  0  0
 23 24  1  0  0  0  0
 23 49  1  0  0  0  0
 23 50  1  0  0  0  0
 24 51  1  0  0  0  0
 24 52  1  0  0  0  0
M  CHG  1   9   1
M  CHG  1  15   1
M  END
> <s_m_source_file>
AV-unprocessed.smi

> <i_m_source_file_index>
2895

> <i_lp_mmshare_version>
43012

> <i_f3d_flags>
0

> <s_epik_input>
W0NIMl0xW0NIMl1bQ0BASF0oW0NIMl0yKVtDQEBIXShbQ0gyXVtDQEhdMTIpTihbQ0gyXVtDSDJdMylbQ0gyXVtDSDJdTjNDKD1PKVtOSF1bQ0gyXVtDSDJdYzRbY0hdW2NIXW5bY0hdW2NIXTQ=

> <s_epik_cmdline>
J2VwaWtfcHl0aG9uJywgJy1waCcsICc3LjAnLCAnLXRuJywgJzgnLCAnLW1hJywgJzIwMCcsICctbWV0YWxfYmluZGluZycsICctaW1hZScsICc8aW5maWxlLm1hZT4nLCAnLW9tYWUnLCAnPG91dGZpbGUubWFlPic=

> <r_epik_Ionization_Penalty>
1.44916

> <r_epik_Ionization_Penalty_Charging>
1.44913

> <r_epik_Ionization_Penalty_Neutral>
2.64641e-05

> <r_epik_State_Penalty>
1.53218

> <r_epik_Charging_Adjusted_Penalty>
2.98131

> <i_epik_Tot_Q>
2

> <i_epik_Tot_abs_Q>
2

> <r_epik_Metal_State_Penalty>
1.58241

> <b_epik_Metal_Only>
0

> <s_lp_Force_Field>
OPLS_2005

> <r_lp_Energy>
108.8

> <b_lp_Chiralities_Consistent>
1

> <s_lp_Variant>
AV-unprocessed.smi:2895-6

> <Gold.Version>
5.8.1

> <Gold.Id.Protein>
6NUR|6NUR_protein|mol2

> <Gold.PLP.Fitness>
48.4742

> <Gold.PLP.PLP>
-39.6263

> <Gold.PLP.part.hbond>
-2.5160

> <Gold.PLP.part.metal>
0.0000

> <Gold.PLP.part.buried>
-4.7984

> <Gold.PLP.part.nonpolar>
-34.5962

> <Gold.PLP.part.repulsive>
0.1740

> <Gold.PLP.ligand.clash>
0.2516

> <Gold.PLP.ligand.torsion>
1.3026

> <Gold.PLP.Chemscore.Hbond>
3.8525

> <Gold.PLP.Chemscore.CHOScore>
0.0000

> <Gold.PLP.Chemscore.Metal>
0.0000

> <Gold.Chemscore.Hbonds>
donor molecule, donor type, donor heavy atom, donor atom, acceptor molecule, acceptor atom, score
      L1  H     9    54       P1  8028  2.00
      L1  H    15    53       P1 10957  2.00

> <Gold.PLP.Chemscore.Internal.Correction>
0.1473

> <Gold.Rescore>
     Score         DG    S(hbond)    S(metal)    S(lipo)     H(rot)  DE(clash)    DE(int)     intcor
     19.00     -20.49       1.67        0.00     112.67       1.46       0.19       1.30       ----

> <Gold.Chemscore.Fitness>
19.0043

> <Gold.Chemscore.DG>
-20.4931

> <Gold.Chemscore.ZeroCoef>
-5.4800

> <Gold.Chemscore.Hbond>
1.6651

> <Gold.Chemscore.Metal>
0.0000

> <Gold.Chemscore.Lipo>
112.6687

> <Gold.Chemscore.Internal_Hbond>
0.0000

> <Gold.Chemscore.DEClash>
0.1923

> <Gold.Chemscore.DEInternal>
1.2964

> <Gold.Chemscore.Rot>
1.4572

> <Gold.Chemscore.Internal.Correction>
   9.000000E+99

> <Gold.Chemscore.Hbonds>
donor molecule, donor type, donor heavy atom, donor atom, acceptor molecule, acceptor atom, score
      L1  H     9    54       P1  8028  0.98
      L1  H    15    53       P1 10957  0.39

> <Gold.Chemscore.Hbond.Weighted>
-5.5614

> <Gold.Chemscore.Metal.Weighted>
-0.0000

> <Gold.Chemscore.Lipo.Weighted>
-13.1822

> <Gold.Chemscore.Internal_Hbond.Weighted>
0.0000

> <Gold.Chemscore.DEClash.Weighted>
0.1923

> <Gold.Chemscore.DEInternal.Weighted>
1.2964

> <Gold.Chemscore.Rot.Weighted>
3.7305

> <Gold.Chemscore.Internal.Correction.Weighted>
   9.000000E+99

> <Gold.Protein.RotatedTorsions>
[ 6907 6896 6895 6894 ] final -155.83 input  -60.11 | X-H torsion
[ 7974 7965 7964 7962 ] final  -54.59 input  175.53 | X-H torsion
[ 8008 7997 7996 7995 ] final -170.06 input   59.86 | X-H torsion
[ 10167 10162 10161 10158 ] final  -54.19 input  -65.29 | X-H torsion
[ 10718 10713 10712 10709 ] final   22.56 input   66.30 | X-H torsion
[ 10763 10752 10751 10750 ] final  -74.50 input  -60.55 | X-H torsion
[ 11005 11000 10999 10996 ] final -109.30 input  -57.11 | X-H torsion

> <Gold.Protein.ActiveResidues>
 VAL166  LYS551  ARG553  GLY616  TRP617  ASP618  TYR619  PRO620  LYS621  CYS622 
 ASP623  PHE694  ASN695  SER759  ASP760  ASP761  ALA762  ILE779  LEU786  VAL792 
 PHE793  MET794  SER795  GLU796  ALA797  LYS798  CYS799  TRP800  GLU811  SER814 

> <Gold.Protein.RotatedAtoms>
  151.2784  133.4221  159.2625 H   0  0  0  0  0  0  0  0  0  0  0  0  # atno 6907 bound_to 6896
  151.0383  134.9589  159.8158 H   0  0  0  0  0  0  0  0  0  0  0  0  # atno 6908 bound_to 6896
  152.5360  134.2743  159.9036 H   0  0  0  0  0  0  0  0  0  0  0  0  # atno 6909 bound_to 6896
  145.8838  140.8124  142.9826 H   0  0  0  0  0  0  0  0  0  0  0  0  # atno 7974 bound_to 7965
  155.9132  140.1061  157.1263 H   0  0  0  0  0  0  0  0  0  0  0  0  # atno 8008 bound_to 7997
  154.4042  140.1270  156.4649 H   0  0  0  0  0  0  0  0  0  0  0  0  # atno 8009 bound_to 7997
  155.7285  140.3469  155.5050 H   0  0  0  0  0  0  0  0  0  0  0  0  # atno 8010 bound_to 7997
  140.6444  143.2526  151.4900 H   0  0  0  0  0  0  0  0  0  0  0  0  # atno 10167 bound_to 10162
  157.1541  130.6687  149.6021 H   0  0  0  0  0  0  0  0  0  0  0  0  # atno 10718 bound_to 10713
  154.4739  135.5862  153.6341 H   0  0  0  0  0  0  0  0  0  0  0  0  # atno 10763 bound_to 10752
  152.9838  135.6073  154.3332 H   0  0  0  0  0  0  0  0  0  0  0  0  # atno 10764 bound_to 10752
  154.3217  135.2843  155.2495 H   0  0  0  0  0  0  0  0  0  0  0  0  # atno 10765 bound_to 10752
  141.0855  133.9147  157.2195 H   0  0  0  0  0  0  0  0  0  0  0  0  # atno 11005 bound_to 11000
  144.6728  140.1425  143.7436 LP  0  0  0  0  0  0  0  0  0  0  0  0  # atno 17320 bound_to 7965
  145.8991  139.2420  143.1504 LP  0  0  0  0  0  0  0  0  0  0  0  0  # atno 17321 bound_to 7965
  139.5654  144.2055  152.1756 LP  0  0  0  0  0  0  0  0  0  0  0  0  # atno 17342 bound_to 10162
  140.1335  144.5266  150.6787 LP  0  0  0  0  0  0  0  0  0  0  0  0  # atno 17343 bound_to 10162
  155.9765  130.4734  150.6534 LP  0  0  0  0  0  0  0  0  0  0  0  0  # atno 17370 bound_to 10713
  157.4194  131.0834  151.1146 LP  0  0  0  0  0  0  0  0  0  0  0  0  # atno 17371 bound_to 10713
  139.9672  135.0138  156.9419 LP  0  0  0  0  0  0  0  0  0  0  0  0  # atno 17394 bound_to 11000
  140.5373  134.0754  155.7332 LP  0  0  0  0  0  0  0  0  0  0  0  0  # atno 17395 bound_to 11000

$$$$
