AV-unprocessed.smi:2991|AV-procd|sdf|11399|dock8
  -GOLD-   2272016323D 1   1.00000     0.00000
 Structure written by MMmdl.
 38 39  0  0  0  0  0  0  0  0  2 V2000
  148.6453  130.1710  153.4412 C   0  0  0  0  0  0  0  0  0  0  0  0
  149.4342  131.2457  154.1643 C   0  0  0  0  0  0  0  0  0  0  0  0
  150.3470  130.8481  155.0779 N   0  3  0  0  0  0  0  0  0  0  0  0
  151.1022  131.7124  155.7872 C   0  0  0  0  0  0  0  0  0  0  0  0
  150.9605  133.0989  155.5847 C   0  0  0  0  0  0  0  0  0  0  0  0
  150.0296  133.5717  154.6252 C   0  0  0  0  0  0  0  0  0  0  0  0
  149.8125  134.9553  154.3733 N   0  0  0  0  0  0  0  0  0  0  0  0
  150.1634  136.0075  155.1317 C   0  0  0  0  0  0  0  0  0  0  0  0
  150.7512  135.9399  156.2112 O   0  0  0  0  0  0  0  0  0  0  0  0
  149.8059  137.1625  154.5527 N   0  0  0  0  0  0  0  0  0  0  0  0
  150.0701  138.5011  155.0803 C   0  0  2  0  0  0  0  0  0  0  0  0
  149.0628  139.5274  154.5005 C   0  0  0  0  0  0  0  0  0  0  0  0
  149.5323  140.9970  154.4722 C   0  0  0  0  0  0  0  0  0  0  0  0
  150.0309  141.5614  155.8181 C   0  0  0  0  0  0  0  0  0  0  0  0
  151.1671  140.7809  156.5218 C   0  0  0  0  0  0  0  0  0  0  0  0
  151.9856  139.9649  155.6257 N   0  0  0  0  0  0  0  0  0  0  0  0
  151.5561  138.8868  154.9473 C   0  0  0  0  0  0  0  0  0  0  0  0
  152.3130  138.2378  154.2263 O   0  0  0  0  0  0  0  0  0  0  0  0
  149.2465  132.6264  153.9171 C   0  0  0  0  0  0  0  0  0  0  0  0
  148.0757  133.1486  152.7526 Cl  0  0  0  0  0  0  0  0  0  0  0  0
  147.5777  130.2938  153.6264 H   0  0  0  0  0  0  0  0  0  0  0  0
  148.9342  129.1728  153.7728 H   0  0  0  0  0  0  0  0  0  0  0  0
  148.8177  130.2333  152.3664 H   0  0  0  0  0  0  0  0  0  0  0  0
  151.7886  131.2718  156.4956 H   0  0  0  0  0  0  0  0  0  0  0  0
  151.5593  133.7734  156.1776 H   0  0  0  0  0  0  0  0  0  0  0  0
  149.4173  135.1732  153.4699 H   0  0  0  0  0  0  0  0  0  0  0  0
  149.3340  137.1227  153.6606 H   0  0  0  0  0  0  0  0  0  0  0  0
  149.8900  138.4401  156.1545 H   0  0  0  0  0  0  0  0  0  0  0  0
  148.8099  139.2466  153.4770 H   0  0  0  0  0  0  0  0  0  0  0  0
  148.1296  139.4604  155.0612 H   0  0  0  0  0  0  0  0  0  0  0  0
  150.3154  141.1127  153.7216 H   0  0  0  0  0  0  0  0  0  0  0  0
  148.7094  141.6182  154.1172 H   0  0  0  0  0  0  0  0  0  0  0  0
  150.3759  142.5801  155.6380 H   0  0  0  0  0  0  0  0  0  0  0  0
  149.1907  141.6574  156.5066 H   0  0  0  0  0  0  0  0  0  0  0  0
  151.8215  141.4816  157.0410 H   0  0  0  0  0  0  0  0  0  0  0  0
  150.7534  140.1437  157.3042 H   0  0  0  0  0  0  0  0  0  0  0  0
  152.9558  140.2277  155.5274 H   0  0  0  0  0  0  0  0  0  0  0  0
  150.4674  129.8484  155.2425 H   0  0  0  0  0  0  0  0  0  0  0  0
  1  2  1  0  0  0  0
  1 21  1  0  0  0  0
  1 22  1  0  0  0  0
  1 23  1  0  0  0  0
  2 19  1  0  0  0  0
  2  3  2  0  0  0  0
  3  4  1  0  0  0  0
  3 38  1  0  0  0  0
  4  5  2  0  0  0  0
  4 24  1  0  0  0  0
  5  6  1  0  0  0  0
  5 25  1  0  0  0  0
  6  7  1  0  0  0  0
  6 19  2  0  0  0  0
  7  8  1  0  0  0  0
  7 26  1  0  0  0  0
  8  9  2  0  0  0  0
  8 10  1  0  0  0  0
 10 11  1  0  0  0  0
 10 27  1  0  0  0  0
 11 17  1  0  0  0  0
 11 12  1  0  0  0  0
 11 28  1  0  0  0  0
 12 13  1  0  0  0  0
 12 29  1  0  0  0  0
 12 30  1  0  0  0  0
 13 14  1  0  0  0  0
 13 31  1  0  0  0  0
 13 32  1  0  0  0  0
 14 15  1  0  0  0  0
 14 33  1  0  0  0  0
 14 34  1  0  0  0  0
 15 16  1  0  0  0  0
 15 35  1  0  0  0  0
 15 36  1  0  0  0  0
 16 17  1  0  0  0  0
 16 37  1  0  0  0  0
 17 18  2  0  0  0  0
 19 20  1  0  0  0  0
M  CHG  1   3   1
M  END
> <s_m_source_file>
AV-unprocessed.smi

> <i_m_source_file_index>
2991

> <i_lp_mmshare_version>
43012

> <i_f3d_flags>
0

> <s_epik_input>
W0NIM11jMW5bY0hdW2NIXWMoYzFDbClbTkhdQyg9TylbTkhdW0NAQEhdMltDSDJdW0NIMl1bQ0gyXVtDSDJdW05IXUMyPU8=

> <s_epik_cmdline>
J2VwaWtfcHl0aG9uJywgJy1waCcsICc3LjAnLCAnLXRuJywgJzgnLCAnLW1hJywgJzIwMCcsICctbWV0YWxfYmluZGluZycsICctaW1hZScsICc8aW5maWxlLm1hZT4nLCAnLW9tYWUnLCAnPG91dGZpbGUubWFlPic=

> <r_epik_Ionization_Penalty>
2.55031

> <r_epik_Ionization_Penalty_Charging>
2.55029

> <r_epik_Ionization_Penalty_Neutral>
1.86001e-05

> <r_epik_State_Penalty>
2.71882

> <r_epik_Charging_Adjusted_Penalty>
5.26911

> <i_epik_Tot_Q>
1

> <i_epik_Tot_abs_Q>
1

> <r_epik_Metal_State_Penalty>
2.7268

> <b_epik_Metal_Only>
0

> <s_lp_Force_Field>
OPLS_2005

> <r_lp_Energy>
25.1386

> <b_lp_Chiralities_Consistent>
1

> <s_lp_Variant>
AV-unprocessed.smi:2991-3

> <Gold.Version>
5.8.1

> <Gold.Id.Protein>
6NUR|6NUR_protein|mol2

> <Gold.PLP.Fitness>
40.2524

> <Gold.PLP.PLP>
-35.2569

> <Gold.PLP.part.hbond>
-2.0427

> <Gold.PLP.part.metal>
0.0000

> <Gold.PLP.part.buried>
-3.2248

> <Gold.PLP.part.nonpolar>
-30.5126

> <Gold.PLP.part.repulsive>
0.3757

> <Gold.PLP.ligand.clash>
0.0000

> <Gold.PLP.ligand.torsion>
0.3035

> <Gold.PLP.Chemscore.Hbond>
1.8500

> <Gold.PLP.Chemscore.CHOScore>
0.0000

> <Gold.PLP.Chemscore.Metal>
0.0000

> <Gold.Chemscore.Hbonds>
donor molecule, donor type, donor heavy atom, donor atom, acceptor molecule, acceptor atom, score
      L1  H     7    26       P1  7948  0.70
      L1  H    10    27       P1  7948  1.00

> <Gold.PLP.Chemscore.Internal.Correction>
0.0525

> <Gold.Rescore>
     Score         DG    S(hbond)    S(metal)    S(lipo)     H(rot)  DE(clash)    DE(int)     intcor
     14.58     -16.09       1.57        0.00      67.79       1.00       0.01       1.50       ----

> <Gold.Chemscore.Fitness>
14.5759

> <Gold.Chemscore.DG>
-16.0878

> <Gold.Chemscore.ZeroCoef>
-5.4800

> <Gold.Chemscore.Hbond>
1.5679

> <Gold.Chemscore.Metal>
0.0000

> <Gold.Chemscore.Lipo>
67.7876

> <Gold.Chemscore.Internal_Hbond>
0.0000

> <Gold.Chemscore.DEClash>
0.0077

> <Gold.Chemscore.DEInternal>
1.5042

> <Gold.Chemscore.Rot>
1.0000

> <Gold.Chemscore.Internal.Correction>
   9.000000E+99

> <Gold.Chemscore.Hbonds>
donor molecule, donor type, donor heavy atom, donor atom, acceptor molecule, acceptor atom, score
      L1  H     7    26       P1  7948  0.07
      L1  H    10    27       P1  7948  0.87

> <Gold.Chemscore.Hbond.Weighted>
-5.2366

> <Gold.Chemscore.Metal.Weighted>
-0.0000

> <Gold.Chemscore.Lipo.Weighted>
-7.9311

> <Gold.Chemscore.Internal_Hbond.Weighted>
0.0000

> <Gold.Chemscore.DEClash.Weighted>
0.0077

> <Gold.Chemscore.DEInternal.Weighted>
1.5042

> <Gold.Chemscore.Rot.Weighted>
2.5600

> <Gold.Chemscore.Internal.Correction.Weighted>
   9.000000E+99

> <Gold.Protein.RotatedTorsions>
[ 6907 6896 6895 6894 ] final -115.66 input  -60.11 | X-H torsion
[ 7974 7965 7964 7962 ] final   89.70 input  175.53 | X-H torsion
[ 8008 7997 7996 7995 ] final    4.60 input   59.86 | X-H torsion
[ 10167 10162 10161 10158 ] final  -90.67 input  -65.29 | X-H torsion
[ 10718 10713 10712 10709 ] final  -59.89 input   66.30 | X-H torsion
[ 10763 10752 10751 10750 ] final -118.04 input  -60.55 | X-H torsion
[ 11005 11000 10999 10996 ] final  -46.14 input  -57.11 | X-H torsion

> <Gold.Protein.ActiveResidues>
 VAL166  LYS551  ARG553  GLY616  TRP617  ASP618  TYR619  PRO620  LYS621  CYS622 
 ASP623  PHE694  ASN695  SER759  ASP760  ASP761  ALA762  ILE779  LEU786  VAL792 
 PHE793  MET794  SER795  GLU796  ALA797  LYS798  CYS799  TRP800  GLU811  SER814 

> <Gold.Protein.RotatedAtoms>
  150.7995  133.8626  159.3235 H   0  0  0  0  0  0  0  0  0  0  0  0  # atno 6907 bound_to 6896
  151.6442  135.1007  160.0157 H   0  0  0  0  0  0  0  0  0  0  0  0  # atno 6908 bound_to 6896
  152.4081  133.6881  159.6409 H   0  0  0  0  0  0  0  0  0  0  0  0  # atno 6909 bound_to 6896
  145.5289  139.2282  143.2630 H   0  0  0  0  0  0  0  0  0  0  0  0  # atno 7974 bound_to 7965
  154.7179  140.2706  155.6568 H   0  0  0  0  0  0  0  0  0  0  0  0  # atno 8008 bound_to 7997
  156.2815  140.2740  156.1766 H   0  0  0  0  0  0  0  0  0  0  0  0  # atno 8009 bound_to 7997
  155.0546  140.0371  157.2545 H   0  0  0  0  0  0  0  0  0  0  0  0  # atno 8010 bound_to 7997
  140.3525  143.2883  151.9709 H   0  0  0  0  0  0  0  0  0  0  0  0  # atno 10167 bound_to 10162
  156.1029  130.4184  150.0778 H   0  0  0  0  0  0  0  0  0  0  0  0  # atno 10718 bound_to 10713
  154.8575  135.4288  154.2076 H   0  0  0  0  0  0  0  0  0  0  0  0  # atno 10763 bound_to 10752
  153.3108  135.6975  153.7123 H   0  0  0  0  0  0  0  0  0  0  0  0  # atno 10764 bound_to 10752
  153.6216  135.3501  155.2986 H   0  0  0  0  0  0  0  0  0  0  0  0  # atno 10765 bound_to 10752
  141.0560  133.6726  156.3112 H   0  0  0  0  0  0  0  0  0  0  0  0  # atno 11005 bound_to 11000
  146.2057  140.6104  142.9082 LP  0  0  0  0  0  0  0  0  0  0  0  0  # atno 17320 bound_to 7965
  144.7636  140.5480  143.6718 LP  0  0  0  0  0  0  0  0  0  0  0  0  # atno 17321 bound_to 7965
  139.4824  144.6063  151.7515 LP  0  0  0  0  0  0  0  0  0  0  0  0  # atno 17342 bound_to 10162
  140.5205  144.0886  150.6021 LP  0  0  0  0  0  0  0  0  0  0  0  0  # atno 17343 bound_to 10162
  156.8761  130.9540  151.3604 LP  0  0  0  0  0  0  0  0  0  0  0  0  # atno 17370 bound_to 10713
  157.6202  130.8649  149.9096 LP  0  0  0  0  0  0  0  0  0  0  0  0  # atno 17371 bound_to 10713
  140.5963  134.5599  157.5509 LP  0  0  0  0  0  0  0  0  0  0  0  0  # atno 17394 bound_to 11000
  139.9390  134.7821  156.0727 LP  0  0  0  0  0  0  0  0  0  0  0  0  # atno 17395 bound_to 11000

$$$$
