AV-unprocessed.smi:1047|AV-procd|sdf|4578|dock4
  -GOLD-   22720 3 43D 1   1.00000     0.00000
 Structure written by MMmdl.
 56 58  0  0  0  0  0  0  0  0  2 V2000
  143.4687  146.0552  156.4355 C   0  0  0  0  0  0  0  0  0  0  0  0
  142.9029  144.6397  156.6154 C   0  0  0  0  0  0  0  0  0  0  0  0
  143.9365  143.6699  157.0651 N   0  3  1  0  0  0  0  0  0  0  0  0
  143.4445  142.2821  157.2587 C   0  0  0  0  0  0  0  0  0  0  0  0
  143.2932  141.5445  155.9146 C   0  0  0  0  0  0  0  0  0  0  0  0
  144.5235  141.5890  155.2024 O   0  0  0  0  0  0  0  0  0  0  0  0
  144.9295  142.9195  154.8955 C   0  0  2  0  0  0  0  0  0  0  0  0
  146.2147  142.8440  154.0587 C   0  0  0  0  0  0  0  0  0  0  0  0
  147.2926  142.2060  154.8072 N   0  0  0  0  0  0  0  0  0  0  0  0
  148.0384  141.2267  154.0223 C   0  0  0  0  0  0  0  0  0  0  0  0
  149.2464  140.6835  154.8100 C   0  0  1  0  0  0  0  0  0  0  0  0
  150.0192  139.8826  153.9401 O   0  0  0  0  0  0  0  0  0  0  0  0
  150.1717  141.7868  155.3595 C   0  0  0  0  0  0  0  0  0  0  0  0
  151.0469  141.3084  156.4145 N   0  0  0  0  0  0  0  0  0  0  0  0
  151.7538  140.1620  156.4198 C   0  0  0  0  0  0  0  0  0  0  0  0
  152.4947  139.9079  157.4943 N   0  0  0  0  0  0  0  0  0  0  0  0
  152.2445  141.0231  158.2755 C   0  0  0  0  0  0  0  0  0  0  0  0
  152.7286  141.3726  159.5552 C   0  0  0  0  0  0  0  0  0  0  0  0
  152.3327  142.5792  160.1753 C   0  0  0  0  0  0  0  0  0  0  0  0
  152.8769  142.9154  161.5526 C   0  0  0  0  0  0  0  0  0  0  0  0
  151.4380  143.4578  159.5130 C   0  0  0  0  0  0  0  0  0  0  0  0
  150.9983  144.7595  160.1597 C   0  0  0  0  0  0  0  0  0  0  0  0
  150.9440  143.1234  158.2347 C   0  0  0  0  0  0  0  0  0  0  0  0
  151.3452  141.9201  157.6279 C   0  0  0  0  0  0  0  0  0  0  0  0
  145.1583  143.6725  156.2232 C   0  0  0  0  0  0  0  0  0  0  0  0
  142.7151  146.7162  156.0069 H   0  0  0  0  0  0  0  0  0  0  0  0
  144.3267  146.0546  155.7625 H   0  0  0  0  0  0  0  0  0  0  0  0
  143.7823  146.4949  157.3819 H   0  0  0  0  0  0  0  0  0  0  0  0
  142.0556  144.6533  157.3006 H   0  0  0  0  0  0  0  0  0  0  0  0
  142.5098  144.3173  155.6505 H   0  0  0  0  0  0  0  0  0  0  0  0
  144.1698  141.7503  157.8757 H   0  0  0  0  0  0  0  0  0  0  0  0
  142.5075  142.2672  157.8140 H   0  0  0  0  0  0  0  0  0  0  0  0
  143.0291  140.5017  156.0904 H   0  0  0  0  0  0  0  0  0  0  0  0
  142.4923  141.9724  155.3105 H   0  0  0  0  0  0  0  0  0  0  0  0
  144.1537  143.4228  154.3153 H   0  0  0  0  0  0  0  0  0  0  0  0
  146.0219  142.2703  153.1513 H   0  0  0  0  0  0  0  0  0  0  0  0
  146.5089  143.8445  153.7382 H   0  0  0  0  0  0  0  0  0  0  0  0
  147.9288  142.9146  155.1598 H   0  0  0  0  0  0  0  0  0  0  0  0
  147.3913  140.4083  153.7033 H   0  0  0  0  0  0  0  0  0  0  0  0
  148.3860  141.7129  153.1109 H   0  0  0  0  0  0  0  0  0  0  0  0
  148.9048  140.0642  155.6409 H   0  0  0  0  0  0  0  0  0  0  0  0
  149.5933  139.8623  153.0965 H   0  0  0  0  0  0  0  0  0  0  0  0
  150.7962  142.1883  154.5600 H   0  0  0  0  0  0  0  0  0  0  0  0
  149.5840  142.6219  155.7428 H   0  0  0  0  0  0  0  0  0  0  0  0
  151.7186  139.4731  155.5882 H   0  0  0  0  0  0  0  0  0  0  0  0
  153.4093  140.7024  160.0591 H   0  0  0  0  0  0  0  0  0  0  0  0
  153.4325  143.8529  161.5260 H   0  0  0  0  0  0  0  0  0  0  0  0
  153.5501  142.1384  161.9159 H   0  0  0  0  0  0  0  0  0  0  0  0
  152.0628  143.0144  162.2709 H   0  0  0  0  0  0  0  0  0  0  0  0
  150.3148  145.3128  159.5151 H   0  0  0  0  0  0  0  0  0  0  0  0
  151.8597  145.3972  160.3595 H   0  0  0  0  0  0  0  0  0  0  0  0
  150.4852  144.5640  161.1015 H   0  0  0  0  0  0  0  0  0  0  0  0
  150.2603  143.7831  157.7213 H   0  0  0  0  0  0  0  0  0  0  0  0
  145.4911  144.6947  156.0395 H   0  0  0  0  0  0  0  0  0  0  0  0
  145.9597  143.1879  156.7829 H   0  0  0  0  0  0  0  0  0  0  0  0
  144.2287  144.0017  157.9735 H   0  0  0  0  0  0  0  0  0  0  0  0
  1  2  1  0  0  0  0
  1 26  1  0  0  0  0
  1 27  1  0  0  0  0
  1 28  1  0  0  0  0
  2  3  1  0  0  0  0
  2 29  1  0  0  0  0
  2 30  1  0  0  0  0
  3 25  1  0  0  0  0
  3  4  1  0  0  0  0
  3 56  1  0  0  0  0
  4  5  1  0  0  0  0
  4 31  1  0  0  0  0
  4 32  1  0  0  0  0
  5  6  1  0  0  0  0
  5 33  1  0  0  0  0
  5 34  1  0  0  0  0
  6  7  1  0  0  0  0
  7  8  1  0  0  0  0
  7 25  1  0  0  0  0
  7 35  1  0  0  0  0
  8  9  1  0  0  0  0
  8 36  1  0  0  0  0
  8 37  1  0  0  0  0
  9 10  1  0  0  0  0
  9 38  1  0  0  0  0
 10 11  1  0  0  0  0
 10 39  1  0  0  0  0
 10 40  1  0  0  0  0
 11 12  1  0  0  0  0
 11 13  1  0  0  0  0
 11 41  1  0  0  0  0
 12 42  1  0  0  0  0
 13 14  1  0  0  0  0
 13 43  1  0  0  0  0
 13 44  1  0  0  0  0
 14 24  1  0  0  0  0
 14 15  1  0  0  0  0
 15 16  2  0  0  0  0
 15 45  1  0  0  0  0
 16 17  1  0  0  0  0
 17 24  2  0  0  0  0
 17 18  1  0  0  0  0
 18 19  2  0  0  0  0
 18 46  1  0  0  0  0
 19 20  1  0  0  0  0
 19 21  1  0  0  0  0
 20 47  1  0  0  0  0
 20 48  1  0  0  0  0
 20 49  1  0  0  0  0
 21 22  1  0  0  0  0
 21 23  2  0  0  0  0
 22 50  1  0  0  0  0
 22 51  1  0  0  0  0
 22 52  1  0  0  0  0
 23 24  1  0  0  0  0
 23 53  1  0  0  0  0
 25 54  1  0  0  0  0
 25 55  1  0  0  0  0
M  CHG  1   3   1
M  END
> <s_m_source_file>
AV-unprocessed.smi

> <i_m_source_file_index>
1047

> <i_lp_mmshare_version>
43012

> <i_f3d_flags>
0

> <s_epik_input>
W0NIM11bQ0gyXU4xW0NIMl1bQ0gyXU9bQ0BIXShbQ0gyXTEpW0NIMl1bTkhdW0NIMl1bQ0BIXShbT0hdKVtDSDJdbihbY0hdbjIpYyhjMjMpW2NIXWMoW0NIM10pYyhbY0hdMylbQ0gzXQ==

> <s_epik_cmdline>
J2VwaWtfcHl0aG9uJywgJy1waCcsICc3LjAnLCAnLXRuJywgJzgnLCAnLW1hJywgJzIwMCcsICctbWV0YWxfYmluZGluZycsICctaW1hZScsICc8aW5maWxlLm1hZT4nLCAnLW9tYWUnLCAnPG91dGZpbGUubWFlPic=

> <r_epik_Ionization_Penalty>
1.19246

> <r_epik_Ionization_Penalty_Charging>
0.210041

> <r_epik_Ionization_Penalty_Neutral>
0.982415

> <r_epik_State_Penalty>
1.57595

> <r_epik_Charging_Adjusted_Penalty>
1.78599

> <i_epik_Tot_Q>
1

> <i_epik_Tot_abs_Q>
1

> <r_epik_Metal_State_Penalty>
1.46172

> <b_epik_Metal_Only>
0

> <s_lp_Force_Field>
OPLS_2005

> <r_lp_Energy>
33.2573

> <b_lp_Chiralities_Consistent>
1

> <s_lp_Variant>
AV-unprocessed.smi:1047-19

> <Gold.Version>
5.8.1

> <Gold.Id.Protein>
6NUR|6NUR_protein|mol2

> <Gold.PLP.Fitness>
59.6242

> <Gold.PLP.PLP>
-49.0548

> <Gold.PLP.part.hbond>
-4.0000

> <Gold.PLP.part.metal>
0.0000

> <Gold.PLP.part.buried>
-7.0140

> <Gold.PLP.part.nonpolar>
-37.9342

> <Gold.PLP.part.repulsive>
0.1610

> <Gold.PLP.ligand.clash>
0.0000

> <Gold.PLP.ligand.torsion>
0.7155

> <Gold.PLP.Chemscore.Hbond>
3.9280

> <Gold.PLP.Chemscore.CHOScore>
0.0000

> <Gold.PLP.Chemscore.Metal>
0.0000

> <Gold.Chemscore.Hbonds>
donor molecule, donor type, donor heavy atom, donor atom, acceptor molecule, acceptor atom, score
      L1  H     9    38       P1  8028  0.89
      L1  H    12    42       P1  7957  1.00
      P1  H  7989  7998       L1    12  0.87
      P1  H  7997  8008       L1    16  0.89

> <Gold.PLP.Chemscore.Internal.Correction>
0.2164

> <Gold.Rescore>
     Score         DG    S(hbond)    S(metal)    S(lipo)     H(rot)  DE(clash)    DE(int)     intcor
     20.48     -21.66       2.62        0.00     120.71       2.62       0.59       0.58       ----

> <Gold.Chemscore.Fitness>
20.4776

> <Gold.Chemscore.DG>
-21.6559

> <Gold.Chemscore.ZeroCoef>
-5.4800

> <Gold.Chemscore.Hbond>
2.6235

> <Gold.Chemscore.Metal>
0.0000

> <Gold.Chemscore.Lipo>
120.7094

> <Gold.Chemscore.Internal_Hbond>
0.0000

> <Gold.Chemscore.DEClash>
0.5941

> <Gold.Chemscore.DEInternal>
0.5843

> <Gold.Chemscore.Rot>
2.6209

> <Gold.Chemscore.Internal.Correction>
   9.000000E+99

> <Gold.Chemscore.Hbonds>
donor molecule, donor type, donor heavy atom, donor atom, acceptor molecule, acceptor atom, score
      L1  H     9    38       P1  8028  0.75
      L1  H    12    42       P1  7957  0.95
      P1  H  7989  7998       L1    12  0.13
      P1  H  7997  8008       L1    16  0.23

> <Gold.Chemscore.Hbond.Weighted>
-8.7626

> <Gold.Chemscore.Metal.Weighted>
-0.0000

> <Gold.Chemscore.Lipo.Weighted>
-14.1230

> <Gold.Chemscore.Internal_Hbond.Weighted>
0.0000

> <Gold.Chemscore.DEClash.Weighted>
0.5941

> <Gold.Chemscore.DEInternal.Weighted>
0.5843

> <Gold.Chemscore.Rot.Weighted>
6.7096

> <Gold.Chemscore.Internal.Correction.Weighted>
   9.000000E+99

> <Gold.Protein.RotatedTorsions>
[ 6907 6896 6895 6894 ] final   42.23 input  -60.11 | X-H torsion
[ 7974 7965 7964 7962 ] final  -88.05 input  175.53 | X-H torsion
[ 8008 7997 7996 7995 ] final  -73.34 input   59.86 | X-H torsion
[ 10167 10162 10161 10158 ] final -126.84 input  -65.29 | X-H torsion
[ 10718 10713 10712 10709 ] final  141.85 input   66.30 | X-H torsion
[ 10763 10752 10751 10750 ] final  101.49 input  -60.55 | X-H torsion
[ 11005 11000 10999 10996 ] final   83.56 input  -57.11 | X-H torsion

> <Gold.Protein.ActiveResidues>
 VAL166  LYS551  ARG553  GLY616  TRP617  ASP618  TYR619  PRO620  LYS621  CYS622 
 ASP623  PHE694  ASN695  SER759  ASP760  ASP761  ALA762  ILE779  LEU786  VAL792 
 PHE793  MET794  SER795  GLU796  ALA797  LYS798  CYS799  TRP800  GLU811  SER814 

> <Gold.Protein.RotatedAtoms>
  152.2053  134.8551  160.0503 H   0  0  0  0  0  0  0  0  0  0  0  0  # atno 6907 bound_to 6896
  151.9389  133.3627  159.3966 H   0  0  0  0  0  0  0  0  0  0  0  0  # atno 6908 bound_to 6896
  150.6964  134.4384  159.5325 H   0  0  0  0  0  0  0  0  0  0  0  0  # atno 6909 bound_to 6896
  145.4584  140.9561  143.1983 H   0  0  0  0  0  0  0  0  0  0  0  0  # atno 7974 bound_to 7965
  154.5239  140.0781  156.8223 H   0  0  0  0  0  0  0  0  0  0  0  0  # atno 8008 bound_to 7997
  155.3517  140.3413  155.4221 H   0  0  0  0  0  0  0  0  0  0  0  0  # atno 8009 bound_to 7997
  156.1711  140.1620  156.8433 H   0  0  0  0  0  0  0  0  0  0  0  0  # atno 8010 bound_to 7997
  139.9671  143.5886  152.2425 H   0  0  0  0  0  0  0  0  0  0  0  0  # atno 10167 bound_to 10162
  157.3872  131.1000  151.0681 H   0  0  0  0  0  0  0  0  0  0  0  0  # atno 10718 bound_to 10713
  153.3274  135.4043  155.1467 H   0  0  0  0  0  0  0  0  0  0  0  0  # atno 10763 bound_to 10752
  154.8615  135.3602  154.5516 H   0  0  0  0  0  0  0  0  0  0  0  0  # atno 10764 bound_to 10752
  153.5953  135.7072  153.5466 H   0  0  0  0  0  0  0  0  0  0  0  0  # atno 10765 bound_to 10752
  139.9027  134.8154  156.2326 H   0  0  0  0  0  0  0  0  0  0  0  0  # atno 11005 bound_to 11000
  144.8018  139.6126  143.7068 LP  0  0  0  0  0  0  0  0  0  0  0  0  # atno 17320 bound_to 7965
  146.2465  139.6109  142.9456 LP  0  0  0  0  0  0  0  0  0  0  0  0  # atno 17321 bound_to 7965
  139.6509  144.7660  151.2150 LP  0  0  0  0  0  0  0  0  0  0  0  0  # atno 17342 bound_to 10162
  140.7534  143.6162  150.8557 LP  0  0  0  0  0  0  0  0  0  0  0  0  # atno 17343 bound_to 10162
  157.1728  130.6275  149.5646 LP  0  0  0  0  0  0  0  0  0  0  0  0  # atno 17370 bound_to 10713
  155.9789  130.4779  150.6686 LP  0  0  0  0  0  0  0  0  0  0  0  0  # atno 17371 bound_to 10713
  141.0336  133.6975  156.1472 LP  0  0  0  0  0  0  0  0  0  0  0  0  # atno 17394 bound_to 11000
  140.7061  134.4512  157.5584 LP  0  0  0  0  0  0  0  0  0  0  0  0  # atno 17395 bound_to 11000

$$$$
