AV-unprocessed.smi:1602|AV-procd|sdf|6439|dock8
  -GOLD-   22720 7 83D 1   1.00000     0.00000
 Structure written by MMmdl.
 36 37  0  0  0  0  0  0  0  0  1 V2000
  152.2265  137.0705  156.4881 C   0  0  0  0  0  0  0  0  0  0  0  0
  151.3398  138.2946  156.2273 C   0  0  2  0  0  0  0  0  0  0  0  0
  151.0413  138.4956  154.7292 C   0  0  0  0  0  0  0  0  0  0  0  0
  149.9499  139.4273  154.5055 N   0  0  0  0  0  0  0  0  0  0  0  0
  148.7150  139.1818  153.9429 C   0  0  0  0  0  0  0  0  0  0  0  0
  148.0355  140.3657  153.9214 C   0  0  0  0  0  0  0  0  0  0  0  0
  148.9486  141.2893  154.5032 C   0  0  0  0  0  0  0  0  0  0  0  0
  150.0922  140.7239  154.8550 N   0  0  0  0  0  0  0  0  0  0  0  0
  151.9908  139.4890  156.7714 N   0  0  0  0  0  0  0  0  0  0  0  0
  152.7625  139.3947  158.3099 S   0  0  0  0  0  0  0  0  0  0  0  0
  151.9688  138.5195  159.1860 O   0  0  0  0  0  0  0  0  0  0  0  0
  154.1941  139.1442  158.0836 O   0  0  0  0  0  0  0  0  0  0  0  0
  152.5521  141.0307  158.8333 N   0  0  0  0  0  0  0  0  0  0  0  0
  151.2188  141.6327  158.6489 C   0  0  0  0  0  0  0  0  0  0  0  0
  151.2403  143.1382  158.9582 C   0  0  0  0  0  0  0  0  0  0  0  0
  151.7715  143.3631  160.2547 O   0  0  0  0  0  0  0  0  0  0  0  0
  153.1159  142.9180  160.3465 C   0  0  0  0  0  0  0  0  0  0  0  0
  153.1887  141.4009  160.1080 C   0  0  0  0  0  0  0  0  0  0  0  0
  151.7523  136.1594  156.1226 H   0  0  0  0  0  0  0  0  0  0  0  0
  152.4112  136.9397  157.5551 H   0  0  0  0  0  0  0  0  0  0  0  0
  153.1923  137.1655  155.9905 H   0  0  0  0  0  0  0  0  0  0  0  0
  150.3955  138.1406  156.7520 H   0  0  0  0  0  0  0  0  0  0  0  0
  151.9262  138.8615  154.2067 H   0  0  0  0  0  0  0  0  0  0  0  0
  150.7772  137.5436  154.2663 H   0  0  0  0  0  0  0  0  0  0  0  0
  148.4295  138.1976  153.6017 H   0  0  0  0  0  0  0  0  0  0  0  0
  147.0395  140.5457  153.5452 H   0  0  0  0  0  0  0  0  0  0  0  0
  148.8153  142.3465  154.6787 H   0  0  0  0  0  0  0  0  0  0  0  0
  152.5616  139.9781  156.0826 H   0  0  0  0  0  0  0  0  0  0  0  0
  150.8730  141.4744  157.6280 H   0  0  0  0  0  0  0  0  0  0  0  0
  150.5103  141.1273  159.3063 H   0  0  0  0  0  0  0  0  0  0  0  0
  151.8264  143.6785  158.2128 H   0  0  0  0  0  0  0  0  0  0  0  0
  150.2286  143.5419  158.9170 H   0  0  0  0  0  0  0  0  0  0  0  0
  153.7389  143.4537  159.6284 H   0  0  0  0  0  0  0  0  0  0  0  0
  153.4998  143.1584  161.3381 H   0  0  0  0  0  0  0  0  0  0  0  0
  152.6880  140.8695  160.9183 H   0  0  0  0  0  0  0  0  0  0  0  0
  154.2297  141.0774  160.1077 H   0  0  0  0  0  0  0  0  0  0  0  0
  1  2  1  0  0  0  0
  1 19  1  0  0  0  0
  1 20  1  0  0  0  0
  1 21  1  0  0  0  0
  2  3  1  0  0  0  0
  2  9  1  0  0  0  0
  2 22  1  0  0  0  0
  3  4  1  0  0  0  0
  3 23  1  0  0  0  0
  3 24  1  0  0  0  0
  4  8  1  0  0  0  0
  4  5  1  0  0  0  0
  5  6  2  0  0  0  0
  5 25  1  0  0  0  0
  6  7  1  0  0  0  0
  6 26  1  0  0  0  0
  7  8  2  0  0  0  0
  7 27  1  0  0  0  0
  9 10  1  0  0  0  0
  9 28  1  0  0  0  0
 10 11  2  0  0  0  0
 10 12  2  0  0  0  0
 10 13  1  0  0  0  0
 13 18  1  0  0  0  0
 13 14  1  0  0  0  0
 14 15  1  0  0  0  0
 14 29  1  0  0  0  0
 14 30  1  0  0  0  0
 15 16  1  0  0  0  0
 15 31  1  0  0  0  0
 15 32  1  0  0  0  0
 16 17  1  0  0  0  0
 17 18  1  0  0  0  0
 17 33  1  0  0  0  0
 17 34  1  0  0  0  0
 18 35  1  0  0  0  0
 18 36  1  0  0  0  0
M  END
> <s_m_source_file>
AV-unprocessed.smi

> <i_m_source_file_index>
1602

> <i_lp_mmshare_version>
43012

> <i_f3d_flags>
0

> <s_epik_input>
bjFbY0hdW2NIXVtjSF1uMVtDSDJdW0NAQEhdKFtDSDNdKVtOSF1TKD1PKSg9TylOMltDSDJdW0NIMl1PW0NIMl1bQ0gyXTI=

> <s_epik_cmdline>
J2VwaWtfcHl0aG9uJywgJy1waCcsICc3LjAnLCAnLXRuJywgJzgnLCAnLW1hJywgJzIwMCcsICctbWV0YWxfYmluZGluZycsICctaW1hZScsICc8aW5maWxlLm1hZT4nLCAnLW9tYWUnLCAnPG91dGZpbGUubWFlPic=

> <r_lp_tautomer_probability>
1

> <r_epik_Ionization_Penalty>
0.114248

> <r_epik_Ionization_Penalty_Charging>
0

> <r_epik_Ionization_Penalty_Neutral>
0.114248

> <r_epik_State_Penalty>
0.103909

> <r_epik_Charging_Adjusted_Penalty>
0.103909

> <i_epik_Tot_Q>
0

> <i_epik_Tot_abs_Q>
0

> <r_epik_Metal_State_Penalty>
0.436178

> <b_epik_Metal_Only>
0

> <s_lp_Force_Field>
OPLS_2005

> <r_lp_Energy>
7.48288

> <b_lp_Chiralities_Consistent>
1

> <s_lp_Variant>
AV-unprocessed.smi:1602-1

> <Gold.Version>
5.8.1

> <Gold.Id.Protein>
6NUR|6NUR_protein|mol2

> <Gold.PLP.Fitness>
37.7923

> <Gold.PLP.PLP>
-29.8547

> <Gold.PLP.part.hbond>
-1.8654

> <Gold.PLP.part.metal>
0.0000

> <Gold.PLP.part.buried>
-0.9326

> <Gold.PLP.part.nonpolar>
-26.0547

> <Gold.PLP.part.repulsive>
0.1517

> <Gold.PLP.ligand.clash>
0.0000

> <Gold.PLP.ligand.torsion>
1.1100

> <Gold.PLP.Chemscore.Hbond>
1.4160

> <Gold.PLP.Chemscore.CHOScore>
1.7224

> <Gold.PLP.Chemscore.Metal>
0.0000

> <Gold.Chemscore.Hbonds>
donor molecule, donor type, donor heavy atom, donor atom, acceptor molecule, acceptor atom, score
      P1  H  7989  7998       L1     8  0.35
      P1  H  7997  8009       L1    12  0.75
      L1  C     5    25       P1  7948  0.67
      L1  C     7    27       P1  8028  0.95

> <Gold.PLP.Chemscore.Internal.Correction>
0.7424

> <Gold.Rescore>
     Score         DG    S(hbond)    S(metal)    S(lipo)     H(rot)  DE(clash)    DE(int)     intcor
     13.28     -14.26       1.41        0.00      77.81       1.97       0.01       0.98       ----

> <Gold.Chemscore.Fitness>
13.2787

> <Gold.Chemscore.DG>
-14.2611

> <Gold.Chemscore.ZeroCoef>
-5.4800

> <Gold.Chemscore.Hbond>
1.4096

> <Gold.Chemscore.Metal>
0.0000

> <Gold.Chemscore.Lipo>
77.8148

> <Gold.Chemscore.Internal_Hbond>
0.0000

> <Gold.Chemscore.DEClash>
0.0060

> <Gold.Chemscore.DEInternal>
0.9763

> <Gold.Chemscore.Rot>
1.9654

> <Gold.Chemscore.Internal.Correction>
   9.000000E+99

> <Gold.Chemscore.Hbonds>
donor molecule, donor type, donor heavy atom, donor atom, acceptor molecule, acceptor atom, score
      P1  H  7989  7998       L1     8  0.01
      P1  H  7997  8009       L1    12  0.44

> <Gold.Chemscore.Hbond.Weighted>
-4.7082

> <Gold.Chemscore.Metal.Weighted>
-0.0000

> <Gold.Chemscore.Lipo.Weighted>
-9.1043

> <Gold.Chemscore.Internal_Hbond.Weighted>
0.0000

> <Gold.Chemscore.DEClash.Weighted>
0.0060

> <Gold.Chemscore.DEInternal.Weighted>
0.9763

> <Gold.Chemscore.Rot.Weighted>
5.0315

> <Gold.Chemscore.Internal.Correction.Weighted>
   9.000000E+99

> <Gold.Protein.RotatedTorsions>
[ 6907 6896 6895 6894 ] final  152.96 input  -60.11 | X-H torsion
[ 7974 7965 7964 7962 ] final   57.93 input  175.53 | X-H torsion
[ 8008 7997 7996 7995 ] final  155.14 input   59.86 | X-H torsion
[ 10167 10162 10161 10158 ] final  -14.54 input  -65.29 | X-H torsion
[ 10718 10713 10712 10709 ] final   51.71 input   66.30 | X-H torsion
[ 10763 10752 10751 10750 ] final  -61.12 input  -60.55 | X-H torsion
[ 11005 11000 10999 10996 ] final -120.51 input  -57.11 | X-H torsion

> <Gold.Protein.ActiveResidues>
 VAL166  LYS551  ARG553  GLY616  TRP617  ASP618  TYR619  PRO620  LYS621  CYS622 
 ASP623  PHE694  ASN695  SER759  ASP760  ASP761  ALA762  ILE779  LEU786  VAL792 
 PHE793  MET794  SER795  GLU796  ALA797  LYS798  CYS799  TRP800  GLU811  SER814 

> <Gold.Protein.RotatedAtoms>
  152.0794  133.4145  159.4494 H   0  0  0  0  0  0  0  0  0  0  0  0  # atno 6907 bound_to 6896
  150.6862  134.3000  159.4711 H   0  0  0  0  0  0  0  0  0  0  0  0  # atno 6908 bound_to 6896
  152.0840  134.9452  160.0623 H   0  0  0  0  0  0  0  0  0  0  0  0  # atno 6909 bound_to 6896
  145.9237  139.3750  143.0463 H   0  0  0  0  0  0  0  0  0  0  0  0  # atno 7974 bound_to 7965
  156.2494  140.1947  156.6755 H   0  0  0  0  0  0  0  0  0  0  0  0  # atno 8008 bound_to 7997
  154.6361  140.0589  156.9816 H   0  0  0  0  0  0  0  0  0  0  0  0  # atno 8009 bound_to 7997
  155.1635  140.3262  155.4409 H   0  0  0  0  0  0  0  0  0  0  0  0  # atno 8010 bound_to 7997
  140.7203  143.5311  150.9519 H   0  0  0  0  0  0  0  0  0  0  0  0  # atno 10167 bound_to 10162
  157.5007  130.8436  149.8312 H   0  0  0  0  0  0  0  0  0  0  0  0  # atno 10718 bound_to 10713
  154.2797  135.6274  153.5342 H   0  0  0  0  0  0  0  0  0  0  0  0  # atno 10763 bound_to 10752
  152.9867  135.5630  154.5509 H   0  0  0  0  0  0  0  0  0  0  0  0  # atno 10764 bound_to 10752
  154.5097  135.2876  155.1328 H   0  0  0  0  0  0  0  0  0  0  0  0  # atno 10765 bound_to 10752
  141.0138  134.0226  157.3378 H   0  0  0  0  0  0  0  0  0  0  0  0  # atno 11005 bound_to 11000
  145.8517  140.9525  143.0746 LP  0  0  0  0  0  0  0  0  0  0  0  0  # atno 17320 bound_to 7965
  144.6756  140.0415  143.7481 LP  0  0  0  0  0  0  0  0  0  0  0  0  # atno 17321 bound_to 7965
  139.9031  143.6811  152.3128 LP  0  0  0  0  0  0  0  0  0  0  0  0  # atno 17342 bound_to 10162
  139.7168  144.7610  151.1021 LP  0  0  0  0  0  0  0  0  0  0  0  0  # atno 17343 bound_to 10162
  156.0227  130.3790  150.1913 LP  0  0  0  0  0  0  0  0  0  0  0  0  # atno 17370 bound_to 10713
  157.0103  130.9949  151.3367 LP  0  0  0  0  0  0  0  0  0  0  0  0  # atno 17371 bound_to 10713
  139.9105  135.0189  156.7671 LP  0  0  0  0  0  0  0  0  0  0  0  0  # atno 17394 bound_to 11000
  140.6689  133.9577  155.7845 LP  0  0  0  0  0  0  0  0  0  0  0  0  # atno 17395 bound_to 11000

$$$$
