AV-unprocessed.smi:1740|AV-procd|sdf|7009|dock10
  -GOLD-   22720 8223D 1   1.00000     0.00000
 Structure written by MMmdl.
 52 54  0  0  0  0  0  0  0  0  2 V2000
  154.4480  135.5069  164.6093 N   0  0  0  0  0  0  0  0  0  0  0  0
  155.6618  135.6496  164.0710 C   0  0  0  0  0  0  0  0  0  0  0  0
  156.3587  134.6886  163.7533 O   0  0  0  0  0  0  0  0  0  0  0  0
  156.1692  137.0817  163.8667 C   0  0  0  0  0  0  0  0  0  0  0  0
  155.2934  137.9349  163.0303 N   0  0  0  0  0  0  0  0  0  0  0  0
  155.0682  137.3657  161.6930 C   0  0  0  0  0  0  0  0  0  0  0  0
  154.1022  138.2487  160.8828 C   0  0  0  0  0  0  0  0  0  0  0  0
  154.6300  139.6872  160.7594 C   0  0  0  0  0  0  0  0  0  0  0  0
  153.6482  140.5480  160.1067 N   0  0  0  0  0  0  0  0  0  0  0  0
  153.0451  140.2820  158.9397 C   0  0  0  0  0  0  0  0  0  0  0  0
  153.2562  139.2664  158.2767 O   0  0  0  0  0  0  0  0  0  0  0  0
  152.1738  141.2491  158.6081 N   0  0  0  0  0  0  0  0  0  0  0  0
  151.3287  141.2970  157.4643 C   0  0  0  0  0  0  0  0  0  0  0  0
  151.1470  140.1531  156.6456 C   0  0  0  0  0  0  0  0  0  0  0  0
  150.3672  140.2420  155.4773 C   0  0  0  0  0  0  0  0  0  0  0  0
  149.7929  141.4782  155.1357 C   0  0  0  0  0  0  0  0  0  0  0  0
  149.9933  142.5507  155.9293 N   0  3  0  0  0  0  0  0  0  0  0  0
  150.7209  142.5255  157.0741 C   0  0  0  0  0  0  0  0  0  0  0  0
  150.8313  143.7247  157.8145 N   0  0  0  0  0  0  0  0  0  0  0  0
  150.1233  143.8780  159.0804 C   0  0  0  0  0  0  0  0  0  0  0  0
  150.7632  145.0921  159.7481 C   0  0  0  0  0  0  0  0  0  0  0  0
  152.2213  144.9728  159.3154 C   0  0  0  0  0  0  0  0  0  0  0  0
  152.1342  144.3770  157.9065 C   0  0  0  0  0  0  0  0  0  0  0  0
  154.9458  140.2230  162.1624 C   0  0  0  0  0  0  0  0  0  0  0  0
  155.8886  139.2707  162.9183 C   0  0  0  0  0  0  0  0  0  0  0  0
  154.0694  134.5826  164.7572 H   0  0  0  0  0  0  0  0  0  0  0  0
  153.9117  136.3248  164.8603 H   0  0  0  0  0  0  0  0  0  0  0  0
  156.2775  137.5298  164.8556 H   0  0  0  0  0  0  0  0  0  0  0  0
  157.1708  137.0453  163.4336 H   0  0  0  0  0  0  0  0  0  0  0  0
  156.0174  137.2603  161.1645 H   0  0  0  0  0  0  0  0  0  0  0  0
  154.6349  136.3679  161.7615 H   0  0  0  0  0  0  0  0  0  0  0  0
  153.9558  137.8160  159.8924 H   0  0  0  0  0  0  0  0  0  0  0  0
  153.1239  138.2509  161.3660 H   0  0  0  0  0  0  0  0  0  0  0  0
  155.5540  139.6822  160.1776 H   0  0  0  0  0  0  0  0  0  0  0  0
  153.4115  141.4061  160.5828 H   0  0  0  0  0  0  0  0  0  0  0  0
  152.0240  141.9730  159.2956 H   0  0  0  0  0  0  0  0  0  0  0  0
  151.6156  139.2107  156.8863 H   0  0  0  0  0  0  0  0  0  0  0  0
  150.2235  139.3767  154.8465 H   0  0  0  0  0  0  0  0  0  0  0  0
  149.1866  141.6428  154.2567 H   0  0  0  0  0  0  0  0  0  0  0  0
  149.0533  144.0190  158.9243 H   0  0  0  0  0  0  0  0  0  0  0  0
  150.2676  142.9982  159.7090 H   0  0  0  0  0  0  0  0  0  0  0  0
  150.3304  146.0107  159.3495 H   0  0  0  0  0  0  0  0  0  0  0  0
  150.6369  145.0980  160.8312 H   0  0  0  0  0  0  0  0  0  0  0  0
  152.7538  145.9240  159.3412 H   0  0  0  0  0  0  0  0  0  0  0  0
  152.7420  144.2785  159.9766 H   0  0  0  0  0  0  0  0  0  0  0  0
  152.9563  143.6845  157.7184 H   0  0  0  0  0  0  0  0  0  0  0  0
  152.1822  145.1721  157.1619 H   0  0  0  0  0  0  0  0  0  0  0  0
  155.4011  141.2114  162.0909 H   0  0  0  0  0  0  0  0  0  0  0  0
  154.0239  140.3473  162.7329 H   0  0  0  0  0  0  0  0  0  0  0  0
  156.0731  139.6780  163.9133 H   0  0  0  0  0  0  0  0  0  0  0  0
  156.8553  139.2160  162.4141 H   0  0  0  0  0  0  0  0  0  0  0  0
  149.5628  143.4338  155.6544 H   0  0  0  0  0  0  0  0  0  0  0  0
  1  2  1  0  0  0  0
  1 26  1  0  0  0  0
  1 27  1  0  0  0  0
  2  3  2  0  0  0  0
  2  4  1  0  0  0  0
  4  5  1  0  0  0  0
  4 28  1  0  0  0  0
  4 29  1  0  0  0  0
  5 25  1  0  0  0  0
  5  6  1  0  0  0  0
  6  7  1  0  0  0  0
  6 30  1  0  0  0  0
  6 31  1  0  0  0  0
  7  8  1  0  0  0  0
  7 32  1  0  0  0  0
  7 33  1  0  0  0  0
  8  9  1  0  0  0  0
  8 24  1  0  0  0  0
  8 34  1  0  0  0  0
  9 10  1  0  0  0  0
  9 35  1  0  0  0  0
 10 11  2  0  0  0  0
 10 12  1  0  0  0  0
 12 13  1  0  0  0  0
 12 36  1  0  0  0  0
 13 18  1  0  0  0  0
 13 14  2  0  0  0  0
 14 15  1  0  0  0  0
 14 37  1  0  0  0  0
 15 16  2  0  0  0  0
 15 38  1  0  0  0  0
 16 17  1  0  0  0  0
 16 39  1  0  0  0  0
 17 18  2  0  0  0  0
 17 52  1  0  0  0  0
 18 19  1  0  0  0  0
 19 23  1  0  0  0  0
 19 20  1  0  0  0  0
 20 21  1  0  0  0  0
 20 40  1  0  0  0  0
 20 41  1  0  0  0  0
 21 22  1  0  0  0  0
 21 42  1  0  0  0  0
 21 43  1  0  0  0  0
 22 23  1  0  0  0  0
 22 44  1  0  0  0  0
 22 45  1  0  0  0  0
 23 46  1  0  0  0  0
 23 47  1  0  0  0  0
 24 25  1  0  0  0  0
 24 48  1  0  0  0  0
 24 49  1  0  0  0  0
 25 50  1  0  0  0  0
 25 51  1  0  0  0  0
M  CHG  1  17   1
M  END
> <s_m_source_file>
AV-unprocessed.smi

> <i_m_source_file_index>
1740

> <i_lp_mmshare_version>
43012

> <i_f3d_flags>
0

> <s_epik_input>
W05IMl1DKD1PKVtDSDJdTjFbQ0gyXVtDSDJdW0NIXShbQ0gyXVtDSDJdMSlbTkhdQyg9TylbTkhdYzJbY0hdW2NIXVtjSF1uYzJOM1tDSDJdW0NIMl1bQ0gyXVtDSDJdMw==

> <s_epik_cmdline>
J2VwaWtfcHl0aG9uJywgJy1waCcsICc3LjAnLCAnLXRuJywgJzgnLCAnLW1hJywgJzIwMCcsICctbWV0YWxfYmluZGluZycsICctaW1hZScsICc8aW5maWxlLm1hZT4nLCAnLW9tYWUnLCAnPG91dGZpbGUubWFlPic=

> <r_epik_Ionization_Penalty>
1.24114

> <r_epik_Ionization_Penalty_Charging>
1.08532

> <r_epik_Ionization_Penalty_Neutral>
0.155817

> <r_epik_State_Penalty>
1.33508

> <r_epik_Charging_Adjusted_Penalty>
2.4204

> <i_epik_Tot_Q>
1

> <i_epik_Tot_abs_Q>
1

> <r_epik_Metal_State_Penalty>
1.43573

> <b_epik_Metal_Only>
0

> <s_lp_Force_Field>
OPLS_2005

> <r_lp_Energy>
46.1835

> <b_lp_Chiralities_Consistent>
1

> <s_lp_Variant>
AV-unprocessed.smi:1740-4

> <Gold.Version>
5.8.1

> <Gold.Id.Protein>
6NUR|6NUR_protein|mol2

> <Gold.PLP.Fitness>
51.9842

> <Gold.PLP.PLP>
-43.2258

> <Gold.PLP.part.hbond>
-2.9602

> <Gold.PLP.part.metal>
0.0000

> <Gold.PLP.part.buried>
-6.5828

> <Gold.PLP.part.nonpolar>
-34.5516

> <Gold.PLP.part.repulsive>
1.0231

> <Gold.PLP.ligand.clash>
0.0000

> <Gold.PLP.ligand.torsion>
0.3084

> <Gold.PLP.Chemscore.Hbond>
3.0000

> <Gold.PLP.Chemscore.CHOScore>
0.0000

> <Gold.PLP.Chemscore.Metal>
0.0000

> <Gold.Chemscore.Hbonds>
donor molecule, donor type, donor heavy atom, donor atom, acceptor molecule, acceptor atom, score
      L1  H    17    52       P1  8028  1.59
      P1  H  7997  8008       L1    11  0.90

> <Gold.PLP.Chemscore.Internal.Correction>
0.3752

> <Gold.Rescore>
     Score         DG    S(hbond)    S(metal)    S(lipo)     H(rot)  DE(clash)    DE(int)     intcor
     13.53     -16.87       1.46        0.00     103.50       2.19       0.41       2.92       ----

> <Gold.Chemscore.Fitness>
13.5311

> <Gold.Chemscore.DG>
-16.8652

> <Gold.Chemscore.ZeroCoef>
-5.4800

> <Gold.Chemscore.Hbond>
1.4627

> <Gold.Chemscore.Metal>
0.0000

> <Gold.Chemscore.Lipo>
103.4955

> <Gold.Chemscore.Internal_Hbond>
0.0000

> <Gold.Chemscore.DEClash>
0.4106

> <Gold.Chemscore.DEInternal>
2.9235

> <Gold.Chemscore.Rot>
2.1911

> <Gold.Chemscore.Internal.Correction>
   9.000000E+99

> <Gold.Chemscore.Hbonds>
donor molecule, donor type, donor heavy atom, donor atom, acceptor molecule, acceptor atom, score
      L1  H    17    52       P1  8028  0.79
      P1  H  7997  8008       L1    11  0.17

> <Gold.Chemscore.Hbond.Weighted>
-4.8855

> <Gold.Chemscore.Metal.Weighted>
-0.0000

> <Gold.Chemscore.Lipo.Weighted>
-12.1090

> <Gold.Chemscore.Internal_Hbond.Weighted>
0.0000

> <Gold.Chemscore.DEClash.Weighted>
0.4106

> <Gold.Chemscore.DEInternal.Weighted>
2.9235

> <Gold.Chemscore.Rot.Weighted>
5.6092

> <Gold.Chemscore.Internal.Correction.Weighted>
   9.000000E+99

> <Gold.Protein.RotatedTorsions>
[ 6907 6896 6895 6894 ] final   -2.40 input  -60.11 | X-H torsion
[ 7974 7965 7964 7962 ] final   37.40 input  175.53 | X-H torsion
[ 8008 7997 7996 7995 ] final  -85.17 input   59.86 | X-H torsion
[ 10167 10162 10161 10158 ] final -138.05 input  -65.29 | X-H torsion
[ 10718 10713 10712 10709 ] final  173.66 input   66.30 | X-H torsion
[ 10763 10752 10751 10750 ] final -170.84 input  -60.55 | X-H torsion
[ 11005 11000 10999 10996 ] final -127.83 input  -57.11 | X-H torsion

> <Gold.Protein.ActiveResidues>
 VAL166  LYS551  ARG553  GLY616  TRP617  ASP618  TYR619  PRO620  LYS621  CYS622 
 ASP623  PHE694  ASN695  SER759  ASP760  ASP761  ALA762  ILE779  LEU786  VAL792 
 PHE793  MET794  SER795  GLU796  ALA797  LYS798  CYS799  TRP800  GLU811  SER814 

> <Gold.Protein.RotatedAtoms>
  151.5306  135.1068  159.9901 H   0  0  0  0  0  0  0  0  0  0  0  0  # atno 6907 bound_to 6896
  152.4580  133.7759  159.6835 H   0  0  0  0  0  0  0  0  0  0  0  0  # atno 6908 bound_to 6896
  150.8531  133.7691  159.3043 H   0  0  0  0  0  0  0  0  0  0  0  0  # atno 6909 bound_to 6896
  146.1140  139.5899  142.9333 H   0  0  0  0  0  0  0  0  0  0  0  0  # atno 7974 bound_to 7965
  154.6377  140.0595  156.9809 H   0  0  0  0  0  0  0  0  0  0  0  0  # atno 8008 bound_to 7997
  155.1565  140.3279  155.4402 H   0  0  0  0  0  0  0  0  0  0  0  0  # atno 8009 bound_to 7997
  156.2515  140.1938  156.6674 H   0  0  0  0  0  0  0  0  0  0  0  0  # atno 8010 bound_to 7997
  139.8516  143.7191  152.2657 H   0  0  0  0  0  0  0  0  0  0  0  0  # atno 10167 bound_to 10162
  156.9610  131.0060  151.2927 H   0  0  0  0  0  0  0  0  0  0  0  0  # atno 10718 bound_to 10713
  154.6371  135.2894  155.0147 H   0  0  0  0  0  0  0  0  0  0  0  0  # atno 10763 bound_to 10752
  154.1287  135.6537  153.4921 H   0  0  0  0  0  0  0  0  0  0  0  0  # atno 10764 bound_to 10752
  153.0308  135.5305  154.7223 H   0  0  0  0  0  0  0  0  0  0  0  0  # atno 10765 bound_to 10752
  140.9566  134.0993  157.4010 H   0  0  0  0  0  0  0  0  0  0  0  0  # atno 11005 bound_to 11000
  145.5604  141.0405  143.2229 LP  0  0  0  0  0  0  0  0  0  0  0  0  # atno 17320 bound_to 7965
  144.7537  139.7129  143.7263 LP  0  0  0  0  0  0  0  0  0  0  0  0  # atno 17321 bound_to 7965
  139.7459  144.7547  151.0580 LP  0  0  0  0  0  0  0  0  0  0  0  0  # atno 17342 bound_to 10162
  140.7787  143.4916  150.9885 LP  0  0  0  0  0  0  0  0  0  0  0  0  # atno 17343 bound_to 10162
  157.5658  130.8276  149.8325 LP  0  0  0  0  0  0  0  0  0  0  0  0  # atno 17370 bound_to 10713
  156.0322  130.3761  150.1656 LP  0  0  0  0  0  0  0  0  0  0  0  0  # atno 17371 bound_to 10713
  139.8864  135.0081  156.6498 LP  0  0  0  0  0  0  0  0  0  0  0  0  # atno 17394 bound_to 11000
  140.7527  133.8884  155.8358 LP  0  0  0  0  0  0  0  0  0  0  0  0  # atno 17395 bound_to 11000

$$$$
