AV-unprocessed.smi:738|AV-procd|sdf|3539|dock8
  -GOLD-   22720 0533D 1   1.00000     0.00000
 Structure written by MMmdl.
 35 37  0  0  0  0  0  0  0  0  1 V2000
  146.0072  140.1980  154.2276 N   0  0  0  0  0  0  0  0  0  0  0  0
  146.8262  141.2091  154.5330 C   0  0  0  0  0  0  0  0  0  0  0  0
  146.6671  142.3438  154.0870 O   0  0  0  0  0  0  0  0  0  0  0  0
  147.9227  140.9026  155.5117 C   0  0  0  0  0  0  0  0  0  0  0  0
  149.0225  141.7767  155.6548 C   0  0  0  0  0  0  0  0  0  0  0  0
  150.0498  141.5505  156.5006 N   0  0  0  0  0  0  0  0  0  0  0  0
  150.0369  140.4203  157.2473 C   0  0  0  0  0  0  0  0  0  0  0  0
  151.1110  140.1988  158.1252 N   0  0  0  0  0  0  0  0  0  0  0  0
  151.9218  139.0379  157.7550 C   0  0  0  0  0  0  0  0  0  0  0  0
  153.0629  138.8029  158.7754 C   0  0  0  0  0  0  0  0  0  0  0  0
  153.8318  139.9939  158.9733 O   0  0  0  0  0  0  0  0  0  0  0  0
  152.9891  141.0473  159.4199 C   0  0  1  0  0  0  0  0  0  0  0  0
  153.6517  142.4038  159.6437 C   0  0  0  0  0  0  0  0  0  0  0  0
  152.4967  143.4150  159.4787 C   0  0  0  0  0  0  0  0  0  0  0  0
  151.3221  142.6421  158.8431 C   0  0  0  0  0  0  0  0  0  0  0  0
  151.9727  141.3555  158.3309 C   0  0  2  0  0  0  0  0  0  0  0  0
  148.9883  139.4745  157.1692 C   0  0  0  0  0  0  0  0  0  0  0  0
  148.9919  138.0379  158.1310 Cl  0  0  0  0  0  0  0  0  0  0  0  0
  147.9199  139.7201  156.2850 C   0  0  0  0  0  0  0  0  0  0  0  0
  145.2482  140.3486  153.5788 H   0  0  0  0  0  0  0  0  0  0  0  0
  146.1438  139.2905  154.6479 H   0  0  0  0  0  0  0  0  0  0  0  0
  149.0844  142.6897  155.0807 H   0  0  0  0  0  0  0  0  0  0  0  0
  151.2885  138.1520  157.6927 H   0  0  0  0  0  0  0  0  0  0  0  0
  152.3519  139.1927  156.7643 H   0  0  0  0  0  0  0  0  0  0  0  0
  152.6551  138.4680  159.7304 H   0  0  0  0  0  0  0  0  0  0  0  0
  153.7226  138.0102  158.4225 H   0  0  0  0  0  0  0  0  0  0  0  0
  152.4837  140.7503  160.3422 H   0  0  0  0  0  0  0  0  0  0  0  0
  154.1399  142.4738  160.6161 H   0  0  0  0  0  0  0  0  0  0  0  0
  154.4076  142.5794  158.8771 H   0  0  0  0  0  0  0  0  0  0  0  0
  152.1985  143.8331  160.4407 H   0  0  0  0  0  0  0  0  0  0  0  0
  152.8091  144.2460  158.8455 H   0  0  0  0  0  0  0  0  0  0  0  0
  150.5763  142.4115  159.6055 H   0  0  0  0  0  0  0  0  0  0  0  0
  150.8284  143.2056  158.0509 H   0  0  0  0  0  0  0  0  0  0  0  0
  152.5035  141.5755  157.4022 H   0  0  0  0  0  0  0  0  0  0  0  0
  147.1158  139.0032  156.2068 H   0  0  0  0  0  0  0  0  0  0  0  0
  1  2  1  0  0  0  0
  1 20  1  0  0  0  0
  1 21  1  0  0  0  0
  2  3  2  0  0  0  0
  2  4  1  0  0  0  0
  4 19  1  0  0  0  0
  4  5  2  0  0  0  0
  5  6  1  0  0  0  0
  5 22  1  0  0  0  0
  6  7  2  0  0  0  0
  7  8  1  0  0  0  0
  7 17  1  0  0  0  0
  8 16  1  0  0  0  0
  8  9  1  0  0  0  0
  9 10  1  0  0  0  0
  9 23  1  0  0  0  0
  9 24  1  0  0  0  0
 10 11  1  0  0  0  0
 10 25  1  0  0  0  0
 10 26  1  0  0  0  0
 11 12  1  0  0  0  0
 12 16  1  0  0  0  0
 12 13  1  0  0  0  0
 12 27  1  0  0  0  0
 13 14  1  0  0  0  0
 13 28  1  0  0  0  0
 13 29  1  0  0  0  0
 14 15  1  0  0  0  0
 14 30  1  0  0  0  0
 14 31  1  0  0  0  0
 15 16  1  0  0  0  0
 15 32  1  0  0  0  0
 15 33  1  0  0  0  0
 16 34  1  0  0  0  0
 17 18  1  0  0  0  0
 17 19  2  0  0  0  0
 19 35  1  0  0  0  0
M  END
> <s_m_source_file>
AV-unprocessed.smi

> <i_m_source_file_index>
738

> <i_lp_mmshare_version>
43012

> <i_f3d_flags>
0

> <s_epik_input>
W05IMl1DKD1PKWMxW2NIXW5jKGMoQ2wpW2NIXTEpTihbQ0gyXVtDSDJdTzIpW0NASF0oW0NASF0yMylbQ0gyXVtDSDJdW0NIMl0z

> <s_epik_cmdline>
J2VwaWtfcHl0aG9uJywgJy1waCcsICc3LjAnLCAnLXRuJywgJzgnLCAnLW1hJywgJzIwMCcsICctbWV0YWxfYmluZGluZycsICctaW1hZScsICc8aW5maWxlLm1hZT4nLCAnLW9tYWUnLCAnPG91dGZpbGUubWFlPic=

> <r_lp_tautomer_probability>
1

> <r_epik_Ionization_Penalty>
6.75978e-06

> <r_epik_Ionization_Penalty_Charging>
0

> <r_epik_Ionization_Penalty_Neutral>
6.75978e-06

> <r_epik_State_Penalty>
-0

> <r_epik_Charging_Adjusted_Penalty>
0

> <i_epik_Tot_Q>
0

> <i_epik_Tot_abs_Q>
0

> <r_epik_Metal_State_Penalty>
-0

> <b_epik_Metal_Only>
0

> <s_lp_Force_Field>
OPLS_2005

> <r_lp_Energy>
40.6009

> <b_lp_Chiralities_Consistent>
1

> <s_lp_Variant>
AV-unprocessed.smi:738-2

> <Gold.Version>
5.8.1

> <Gold.Id.Protein>
6NUR|6NUR_protein|mol2

> <Gold.PLP.Fitness>
33.6580

> <Gold.PLP.PLP>
-25.1928

> <Gold.PLP.part.hbond>
-2.0000

> <Gold.PLP.part.metal>
0.0000

> <Gold.PLP.part.buried>
-3.4942

> <Gold.PLP.part.nonpolar>
-20.2291

> <Gold.PLP.part.repulsive>
0.2607

> <Gold.PLP.ligand.clash>
0.0000

> <Gold.PLP.ligand.torsion>
0.2858

> <Gold.PLP.Chemscore.Hbond>
2.0000

> <Gold.PLP.Chemscore.CHOScore>
0.9962

> <Gold.PLP.Chemscore.Metal>
0.0000

> <Gold.Chemscore.Hbonds>
donor molecule, donor type, donor heavy atom, donor atom, acceptor molecule, acceptor atom, score
      L1  H     1    20       P1 10175  1.00
      P1  H  7997  8009       L1    11  1.00
      L1  C     5    22       P1  8028  1.00

> <Gold.PLP.Chemscore.Internal.Correction>
0.0482

> <Gold.Rescore>
     Score         DG    S(hbond)    S(metal)    S(lipo)     H(rot)  DE(clash)    DE(int)     intcor
     15.69     -17.31       1.85        0.00      70.31       1.00       0.12       1.49       ----

> <Gold.Chemscore.Fitness>
15.6948

> <Gold.Chemscore.DG>
-17.3098

> <Gold.Chemscore.ZeroCoef>
-5.4800

> <Gold.Chemscore.Hbond>
1.8454

> <Gold.Chemscore.Metal>
0.0000

> <Gold.Chemscore.Lipo>
70.3096

> <Gold.Chemscore.Internal_Hbond>
0.0000

> <Gold.Chemscore.DEClash>
0.1217

> <Gold.Chemscore.DEInternal>
1.4933

> <Gold.Chemscore.Rot>
1.0000

> <Gold.Chemscore.Internal.Correction>
   9.000000E+99

> <Gold.Chemscore.Hbonds>
donor molecule, donor type, donor heavy atom, donor atom, acceptor molecule, acceptor atom, score
      L1  H     1    20       P1 10175  1.00
      P1  H  7997  8009       L1    11  0.27

> <Gold.Chemscore.Hbond.Weighted>
-6.1636

> <Gold.Chemscore.Metal.Weighted>
-0.0000

> <Gold.Chemscore.Lipo.Weighted>
-8.2262

> <Gold.Chemscore.Internal_Hbond.Weighted>
0.0000

> <Gold.Chemscore.DEClash.Weighted>
0.1217

> <Gold.Chemscore.DEInternal.Weighted>
1.4933

> <Gold.Chemscore.Rot.Weighted>
2.5600

> <Gold.Chemscore.Internal.Correction.Weighted>
   9.000000E+99

> <Gold.Protein.RotatedTorsions>
[ 6907 6896 6895 6894 ] final  -92.12 input  -60.11 | X-H torsion
[ 7974 7965 7964 7962 ] final   97.83 input  175.53 | X-H torsion
[ 8008 7997 7996 7995 ] final  129.14 input   59.86 | X-H torsion
[ 10167 10162 10161 10158 ] final  156.92 input  -65.29 | X-H torsion
[ 10718 10713 10712 10709 ] final  -33.97 input   66.30 | X-H torsion
[ 10763 10752 10751 10750 ] final  -33.58 input  -60.55 | X-H torsion
[ 11005 11000 10999 10996 ] final  146.46 input  -57.11 | X-H torsion

> <Gold.Protein.ActiveResidues>
 VAL166  LYS551  ARG553  GLY616  TRP617  ASP618  TYR619  PRO620  LYS621  CYS622 
 ASP623  PHE694  ASN695  SER759  ASP760  ASP761  ALA762  ILE779  LEU786  VAL792 
 PHE793  MET794  SER795  GLU796  ALA797  LYS798  CYS799  TRP800  GLU811  SER814 

> <Gold.Protein.RotatedAtoms>
  150.6901  134.2171  159.4381 H   0  0  0  0  0  0  0  0  0  0  0  0  # atno 6907 bound_to 6896
  152.0130  134.9863  160.0578 H   0  0  0  0  0  0  0  0  0  0  0  0  # atno 6908 bound_to 6896
  152.1471  133.4464  159.4832 H   0  0  0  0  0  0  0  0  0  0  0  0  # atno 6909 bound_to 6896
  145.4202  139.2322  143.3200 H   0  0  0  0  0  0  0  0  0  0  0  0  # atno 7974 bound_to 7965
  156.2930  140.2628  156.2550 H   0  0  0  0  0  0  0  0  0  0  0  0  # atno 8008 bound_to 7997
  154.9845  140.0389  157.2311 H   0  0  0  0  0  0  0  0  0  0  0  0  # atno 8009 bound_to 7997
  154.7742  140.2783  155.6119 H   0  0  0  0  0  0  0  0  0  0  0  0  # atno 8010 bound_to 7997
  139.4822  144.4965  151.8232 H   0  0  0  0  0  0  0  0  0  0  0  0  # atno 10167 bound_to 10162
  156.3562  130.4316  149.7662 H   0  0  0  0  0  0  0  0  0  0  0  0  # atno 10718 bound_to 10713
  153.8326  135.6865  153.4812 H   0  0  0  0  0  0  0  0  0  0  0  0  # atno 10763 bound_to 10752
  153.1502  135.4621  154.9623 H   0  0  0  0  0  0  0  0  0  0  0  0  # atno 10764 bound_to 10752
  154.7880  135.3291  154.7787 H   0  0  0  0  0  0  0  0  0  0  0  0  # atno 10765 bound_to 10752
  140.0795  134.9105  157.1477 H   0  0  0  0  0  0  0  0  0  0  0  0  # atno 11005 bound_to 11000
  146.2660  140.4926  142.8834 LP  0  0  0  0  0  0  0  0  0  0  0  0  # atno 17320 bound_to 7965
  144.8250  140.6614  143.6328 LP  0  0  0  0  0  0  0  0  0  0  0  0  # atno 17321 bound_to 7965
  140.4453  144.1929  150.5894 LP  0  0  0  0  0  0  0  0  0  0  0  0  # atno 17342 bound_to 10162
  140.4640  143.2438  151.9180 LP  0  0  0  0  0  0  0  0  0  0  0  0  # atno 17343 bound_to 10162
  156.4843  130.8055  151.3068 LP  0  0  0  0  0  0  0  0  0  0  0  0  # atno 17370 bound_to 10713
  157.7468  130.9995  150.2894 LP  0  0  0  0  0  0  0  0  0  0  0  0  # atno 17371 bound_to 10713
  140.3508  134.2600  155.7199 LP  0  0  0  0  0  0  0  0  0  0  0  0  # atno 17394 bound_to 11000
  141.2041  133.7894  157.0302 LP  0  0  0  0  0  0  0  0  0  0  0  0  # atno 17395 bound_to 11000

$$$$
