AV-unprocessed.smi:2941|AV-procd|sdf|11264|dock8
  -GOLD-   2272016153D 1   1.00000     0.00000
 Structure written by MMmdl.
 36 37  0  0  0  0  0  0  0  0  1 V2000
  152.2420  143.2469  159.3753 C   0  0  0  0  0  0  0  0  0  0  0  0
  151.7057  141.9630  159.1086 O   0  0  0  0  0  0  0  0  0  0  0  0
  150.5349  142.0173  158.3116 C   0  0  0  0  0  0  0  0  0  0  0  0
  150.9345  142.3665  156.8701 C   0  0  0  0  0  0  0  0  0  0  0  0
  150.4625  141.3515  155.9187 N   0  0  0  0  0  0  0  0  0  0  0  0
  149.2272  141.5958  155.2878 C   0  0  0  0  0  0  0  0  0  0  0  0
  148.7001  140.7433  154.3891 C   0  0  0  0  0  0  0  0  0  0  0  0
  147.3984  141.0391  153.7443 C   0  0  0  0  0  0  0  0  0  0  0  0
  147.0422  140.4386  152.7294 O   0  0  0  0  0  0  0  0  0  0  0  0
  146.5307  142.0981  154.3384 C   0  0  0  0  0  0  0  0  0  0  0  0
  146.0468  143.1121  153.4808 C   0  0  0  0  0  0  0  0  0  0  0  0
  145.2309  144.1457  153.9781 C   0  0  0  0  0  0  0  0  0  0  0  0
  144.7813  145.1136  153.1450 F   0  0  0  0  0  0  0  0  0  0  0  0
  144.8839  144.1738  155.3406 C   0  0  0  0  0  0  0  0  0  0  0  0
  145.3469  143.1628  156.2027 C   0  0  0  0  0  0  0  0  0  0  0  0
  146.1629  142.1232  155.7116 C   0  0  0  0  0  0  0  0  0  0  0  0
  146.5518  141.1447  156.5840 O   0  0  0  0  0  0  0  0  0  0  0  0
  149.4413  139.5330  154.0933 C   0  0  0  0  0  0  0  0  0  0  0  0
  150.6194  139.2892  154.7006 C   0  0  0  0  0  0  0  0  0  0  0  0
  151.3639  138.1055  154.4242 C   0  0  0  0  0  0  0  0  0  0  0  0
  151.9458  137.1314  154.1962 N   0  0  0  0  0  0  0  0  0  0  0  0
  151.1971  140.2233  155.6771 C   0  0  0  0  0  0  0  0  0  0  0  0
  152.2688  140.0108  156.2467 O   0  0  0  0  0  0  0  0  0  0  0  0
  153.1436  143.1489  159.9800 H   0  0  0  0  0  0  0  0  0  0  0  0
  151.5321  143.8632  159.9282 H   0  0  0  0  0  0  0  0  0  0  0  0
  152.5101  143.7630  158.4525 H   0  0  0  0  0  0  0  0  0  0  0  0
  150.0199  141.0558  158.3413 H   0  0  0  0  0  0  0  0  0  0  0  0
  149.8510  142.7709  158.7056 H   0  0  0  0  0  0  0  0  0  0  0  0
  150.5296  143.3450  156.6078 H   0  0  0  0  0  0  0  0  0  0  0  0
  152.0175  142.4829  156.8027 H   0  0  0  0  0  0  0  0  0  0  0  0
  148.7470  142.5190  155.5811 H   0  0  0  0  0  0  0  0  0  0  0  0
  146.3070  143.1099  152.4318 H   0  0  0  0  0  0  0  0  0  0  0  0
  144.2577  144.9662  155.7235 H   0  0  0  0  0  0  0  0  0  0  0  0
  145.0647  143.1837  157.2453 H   0  0  0  0  0  0  0  0  0  0  0  0
  146.7511  140.3249  156.1579 H   0  0  0  0  0  0  0  0  0  0  0  0
  149.0538  138.8123  153.3875 H   0  0  0  0  0  0  0  0  0  0  0  0
  1  2  1  0  0  0  0
  1 24  1  0  0  0  0
  1 25  1  0  0  0  0
  1 26  1  0  0  0  0
  2  3  1  0  0  0  0
  3  4  1  0  0  0  0
  3 27  1  0  0  0  0
  3 28  1  0  0  0  0
  4  5  1  0  0  0  0
  4 29  1  0  0  0  0
  4 30  1  0  0  0  0
  5 22  1  0  0  0  0
  5  6  1  0  0  0  0
  6  7  2  0  0  0  0
  6 31  1  0  0  0  0
  7  8  1  0  0  0  0
  7 18  1  0  0  0  0
  8  9  2  0  0  0  0
  8 10  1  0  0  0  0
 10 16  1  0  0  0  0
 10 11  2  0  0  0  0
 11 12  1  0  0  0  0
 11 32  1  0  0  0  0
 12 13  1  0  0  0  0
 12 14  2  0  0  0  0
 14 15  1  0  0  0  0
 14 33  1  0  0  0  0
 15 16  2  0  0  0  0
 15 34  1  0  0  0  0
 16 17  1  0  0  0  0
 17 35  1  0  0  0  0
 18 19  2  0  0  0  0
 18 36  1  0  0  0  0
 19 20  1  0  0  0  0
 19 22  1  0  0  0  0
 20 21  3  0  0  0  0
 22 23  2  0  0  0  0
M  END
> <s_m_source_file>
AV-unprocessed.smi

> <i_m_source_file_index>
2941

> <i_lp_mmshare_version>
43012

> <i_f3d_flags>
0

> <s_epik_input>
W0NIM11PW0NIMl1bQ0gyXW4xW2NIXWMoW2NIXWMoQyNOKWMxPU8pQyg9TyljMltjSF1jKEYpW2NIXVtjSF1jMltPSF0=

> <s_epik_cmdline>
J2VwaWtfcHl0aG9uJywgJy1waCcsICc3LjAnLCAnLXRuJywgJzgnLCAnLW1hJywgJzIwMCcsICctbWV0YWxfYmluZGluZycsICctaW1hZScsICc8aW5maWxlLm1hZT4nLCAnLW9tYWUnLCAnPG91dGZpbGUubWFlPic=

> <r_epik_Ionization_Penalty>
0.27579

> <r_epik_Ionization_Penalty_Charging>
5.62591e-11

> <r_epik_Ionization_Penalty_Neutral>
0.27579

> <r_epik_State_Penalty>
0.26814

> <r_epik_Charging_Adjusted_Penalty>
0.26814

> <i_epik_Tot_Q>
0

> <i_epik_Tot_abs_Q>
0

> <r_epik_Metal_State_Penalty>
0.26814

> <b_epik_Metal_Only>
0

> <s_lp_Force_Field>
OPLS_2005

> <r_lp_Energy>
22.041

> <b_lp_Chiralities_Consistent>
1

> <s_lp_Variant>
AV-unprocessed.smi:2941-1

> <Gold.Version>
5.8.1

> <Gold.Id.Protein>
6NUR|6NUR_protein|mol2

> <Gold.PLP.Fitness>
56.1644

> <Gold.PLP.PLP>
-49.2898

> <Gold.PLP.part.hbond>
-2.0000

> <Gold.PLP.part.metal>
0.0000

> <Gold.PLP.part.buried>
-4.9436

> <Gold.PLP.part.nonpolar>
-43.0770

> <Gold.PLP.part.repulsive>
1.8102

> <Gold.PLP.ligand.clash>
0.0000

> <Gold.PLP.ligand.torsion>
1.7931

> <Gold.PLP.Chemscore.Hbond>
1.9120

> <Gold.PLP.Chemscore.CHOScore>
1.0000

> <Gold.PLP.Chemscore.Metal>
0.0000

> <Gold.Chemscore.Hbonds>
donor molecule, donor type, donor heavy atom, donor atom, acceptor molecule, acceptor atom, score
      P1  H  7997  8010       L1    23  0.81
      P1  H 10752 10765       L1    21  0.94
      L1  C     6    31       P1  8028  1.00

> <Gold.PLP.Chemscore.Internal.Correction>
1.7248

> <Gold.Rescore>
     Score         DG    S(hbond)    S(metal)    S(lipo)     H(rot)  DE(clash)    DE(int)     intcor
     13.25     -15.64       1.53        0.00      87.73       2.04       0.46       1.93       ----

> <Gold.Chemscore.Fitness>
13.2518

> <Gold.Chemscore.DG>
-15.6393

> <Gold.Chemscore.ZeroCoef>
-5.4800

> <Gold.Chemscore.Hbond>
1.5283

> <Gold.Chemscore.Metal>
0.0000

> <Gold.Chemscore.Lipo>
87.7320

> <Gold.Chemscore.Internal_Hbond>
0.0000

> <Gold.Chemscore.DEClash>
0.4593

> <Gold.Chemscore.DEInternal>
1.9282

> <Gold.Chemscore.Rot>
2.0351

> <Gold.Chemscore.Internal.Correction>
   9.000000E+99

> <Gold.Chemscore.Hbonds>
donor molecule, donor type, donor heavy atom, donor atom, acceptor molecule, acceptor atom, score
      P1  H  7997  8010       L1    23  0.78
      P1  H 10752 10765       L1    21  0.91

> <Gold.Chemscore.Hbond.Weighted>
-5.1046

> <Gold.Chemscore.Metal.Weighted>
-0.0000

> <Gold.Chemscore.Lipo.Weighted>
-10.2646

> <Gold.Chemscore.Internal_Hbond.Weighted>
0.0000

> <Gold.Chemscore.DEClash.Weighted>
0.4593

> <Gold.Chemscore.DEInternal.Weighted>
1.9282

> <Gold.Chemscore.Rot.Weighted>
5.2099

> <Gold.Chemscore.Internal.Correction.Weighted>
   9.000000E+99

> <Gold.Protein.RotatedTorsions>
[ 6907 6896 6895 6894 ] final  -10.23 input  -60.11 | X-H torsion
[ 7974 7965 7964 7962 ] final   77.01 input  175.53 | X-H torsion
[ 8008 7997 7996 7995 ] final   64.80 input   59.86 | X-H torsion
[ 10167 10162 10161 10158 ] final  -74.34 input  -65.29 | X-H torsion
[ 10718 10713 10712 10709 ] final  122.23 input   66.30 | X-H torsion
[ 10763 10752 10751 10750 ] final  142.54 input  -60.55 | X-H torsion
[ 11005 11000 10999 10996 ] final   -0.74 input  -57.11 | X-H torsion

> <Gold.Protein.ActiveResidues>
 VAL166  LYS551  ARG553  GLY616  TRP617  ASP618  TYR619  PRO620  LYS621  CYS622 
 ASP623  PHE694  ASN695  SER759  ASP760  ASP761  ALA762  ILE779  LEU786  VAL792 
 PHE793  MET794  SER795  GLU796  ALA797  LYS798  CYS799  TRP800  GLU811  SER814 

> <Gold.Protein.RotatedAtoms>
  151.4053  135.0977  159.9568 H   0  0  0  0  0  0  0  0  0  0  0  0  # atno 6907 bound_to 6896
  152.5037  133.8849  159.7375 H   0  0  0  0  0  0  0  0  0  0  0  0  # atno 6908 bound_to 6896
  150.9332  133.6685  159.2834 H   0  0  0  0  0  0  0  0  0  0  0  0  # atno 6909 bound_to 6896
  145.6954  139.2566  143.1735 H   0  0  0  0  0  0  0  0  0  0  0  0  # atno 7974 bound_to 7965
  155.6517  140.3497  155.4750 H   0  0  0  0  0  0  0  0  0  0  0  0  # atno 8008 bound_to 7997
  155.9842  140.1180  157.0721 H   0  0  0  0  0  0  0  0  0  0  0  0  # atno 8009 bound_to 7997
  154.4200  140.1132  156.5463 H   0  0  0  0  0  0  0  0  0  0  0  0  # atno 8010 bound_to 7997
  140.5035  143.2357  151.7713 H   0  0  0  0  0  0  0  0  0  0  0  0  # atno 10167 bound_to 10162
  157.5758  131.1079  150.8282 H   0  0  0  0  0  0  0  0  0  0  0  0  # atno 10718 bound_to 10713
  153.9576  135.2963  155.3435 H   0  0  0  0  0  0  0  0  0  0  0  0  # atno 10763 bound_to 10752
  154.7392  135.5032  153.9097 H   0  0  0  0  0  0  0  0  0  0  0  0  # atno 10764 bound_to 10752
  153.0963  135.6722  153.9867 H   0  0  0  0  0  0  0  0  0  0  0  0  # atno 10765 bound_to 10752
  140.6396  133.9501  155.8319 H   0  0  0  0  0  0  0  0  0  0  0  0  # atno 11005 bound_to 11000
  146.0844  140.7727  142.9625 LP  0  0  0  0  0  0  0  0  0  0  0  0  # atno 17320 bound_to 7965
  144.6984  140.3540  143.7176 LP  0  0  0  0  0  0  0  0  0  0  0  0  # atno 17321 bound_to 7965
  139.4878  144.4490  151.9677 LP  0  0  0  0  0  0  0  0  0  0  0  0  # atno 17342 bound_to 10162
  140.3579  144.3008  150.5938 LP  0  0  0  0  0  0  0  0  0  0  0  0  # atno 17343 bound_to 10162
  156.8742  130.5156  149.5295 LP  0  0  0  0  0  0  0  0  0  0  0  0  # atno 17370 bound_to 10713
  156.0802  130.5815  150.9549 LP  0  0  0  0  0  0  0  0  0  0  0  0  # atno 17371 bound_to 10713
  141.0616  134.0337  157.3650 LP  0  0  0  0  0  0  0  0  0  0  0  0  # atno 17394 bound_to 11000
  139.9085  135.0185  156.7591 LP  0  0  0  0  0  0  0  0  0  0  0  0  # atno 17395 bound_to 11000

$$$$
