AV-unprocessed.smi:1445|AV-procd|sdf|5888|dock3
  -GOLD-   22720 5573D 1   1.00000     0.00000
 Structure written by MMmdl.
 46 47  0  0  0  0  0  0  0  0  2 V2000
  148.1596  140.5035  154.2464 C   0  0  0  0  0  0  0  0  0  0  0  0
  148.9335  139.3100  154.1953 O   0  0  0  0  0  0  0  0  0  0  0  0
  150.1718  139.2996  154.8091 C   0  0  0  0  0  0  0  0  0  0  0  0
  150.6589  140.4666  155.3005 N   0  0  0  0  0  0  0  0  0  0  0  0
  151.8662  140.4566  155.9019 C   0  0  0  0  0  0  0  0  0  0  0  0
  152.6435  139.2932  156.0505 C   0  0  0  0  0  0  0  0  0  0  0  0
  152.1405  138.0817  155.5419 C   0  0  0  0  0  0  0  0  0  0  0  0
  150.8813  138.0789  154.8941 C   0  0  0  0  0  0  0  0  0  0  0  0
  150.2738  136.9088  154.3621 N   0  0  0  0  0  0  0  0  0  0  0  0
  150.4753  135.6289  154.7170 C   0  0  0  0  0  0  0  0  0  0  0  0
  151.2508  135.2446  155.5923 O   0  0  0  0  0  0  0  0  0  0  0  0
  149.7343  134.7964  153.9724 N   0  0  0  0  0  0  0  0  0  0  0  0
  149.7352  133.3433  154.0946 C   0  0  0  0  0  0  0  0  0  0  0  0
  148.6414  132.7029  153.2182 C   0  0  0  0  0  0  0  0  0  0  0  0
  147.5458  133.6512  152.8943 N   0  3  2  0  0  0  0  0  0  0  0  0
  146.8184  134.1017  154.1093 C   0  0  0  0  0  0  0  0  0  0  0  0
  145.7847  135.1859  153.7666 C   0  0  0  0  0  0  0  0  0  0  0  0
  144.8016  134.6886  152.6999 C   0  0  0  0  0  0  0  0  0  0  0  0
  145.5661  134.1987  151.4588 C   0  0  2  0  0  0  0  0  0  0  0  0
  144.6075  133.6675  150.3836 C   0  0  0  0  0  0  0  0  0  0  0  0
  146.6102  133.1360  151.8579 C   0  0  0  0  0  0  0  0  0  0  0  0
  147.2182  140.3452  153.7204 H   0  0  0  0  0  0  0  0  0  0  0  0
  148.6746  141.3330  153.7596 H   0  0  0  0  0  0  0  0  0  0  0  0
  147.9212  140.7821  155.2738 H   0  0  0  0  0  0  0  0  0  0  0  0
  152.2205  141.4035  156.2818 H   0  0  0  0  0  0  0  0  0  0  0  0
  153.6012  139.3285  156.5483 H   0  0  0  0  0  0  0  0  0  0  0  0
  152.7202  137.1806  155.6704 H   0  0  0  0  0  0  0  0  0  0  0  0
  149.6728  137.0614  153.5652 H   0  0  0  0  0  0  0  0  0  0  0  0
  149.1260  135.1973  153.2729 H   0  0  0  0  0  0  0  0  0  0  0  0
  150.7177  132.9477  153.8307 H   0  0  0  0  0  0  0  0  0  0  0  0
  149.5789  133.1099  155.1469 H   0  0  0  0  0  0  0  0  0  0  0  0
  149.0673  132.2996  152.2981 H   0  0  0  0  0  0  0  0  0  0  0  0
  148.2232  131.8533  153.7602 H   0  0  0  0  0  0  0  0  0  0  0  0
  146.3280  133.2473  154.5789 H   0  0  0  0  0  0  0  0  0  0  0  0
  147.5248  134.5022  154.8375 H   0  0  0  0  0  0  0  0  0  0  0  0
  145.2417  135.4806  154.6651 H   0  0  0  0  0  0  0  0  0  0  0  0
  146.2959  136.0800  153.4069 H   0  0  0  0  0  0  0  0  0  0  0  0
  144.1948  133.8791  153.1085 H   0  0  0  0  0  0  0  0  0  0  0  0
  144.1121  135.4890  152.4290 H   0  0  0  0  0  0  0  0  0  0  0  0
  146.0980  135.0504  151.0317 H   0  0  0  0  0  0  0  0  0  0  0  0
  144.0468  132.8040  150.7432 H   0  0  0  0  0  0  0  0  0  0  0  0
  145.1509  133.3625  149.4887 H   0  0  0  0  0  0  0  0  0  0  0  0
  143.8880  134.4313  150.0867 H   0  0  0  0  0  0  0  0  0  0  0  0
  147.1642  132.8374  150.9690 H   0  0  0  0  0  0  0  0  0  0  0  0
  146.1127  132.2398  152.2330 H   0  0  0  0  0  0  0  0  0  0  0  0
  147.9875  134.4751  152.5115 H   0  0  0  0  0  0  0  0  0  0  0  0
  1  2  1  0  0  0  0
  1 22  1  0  0  0  0
  1 23  1  0  0  0  0
  1 24  1  0  0  0  0
  2  3  1  0  0  0  0
  3  8  1  0  0  0  0
  3  4  2  0  0  0  0
  4  5  1  0  0  0  0
  5  6  2  0  0  0  0
  5 25  1  0  0  0  0
  6  7  1  0  0  0  0
  6 26  1  0  0  0  0
  7  8  2  0  0  0  0
  7 27  1  0  0  0  0
  8  9  1  0  0  0  0
  9 10  1  0  0  0  0
  9 28  1  0  0  0  0
 10 11  2  0  0  0  0
 10 12  1  0  0  0  0
 12 13  1  0  0  0  0
 12 29  1  0  0  0  0
 13 14  1  0  0  0  0
 13 30  1  0  0  0  0
 13 31  1  0  0  0  0
 14 15  1  0  0  0  0
 14 32  1  0  0  0  0
 14 33  1  0  0  0  0
 15 21  1  0  0  0  0
 15 16  1  0  0  0  0
 15 46  1  0  0  0  0
 16 17  1  0  0  0  0
 16 34  1  0  0  0  0
 16 35  1  0  0  0  0
 17 18  1  0  0  0  0
 17 36  1  0  0  0  0
 17 37  1  0  0  0  0
 18 19  1  0  0  0  0
 18 38  1  0  0  0  0
 18 39  1  0  0  0  0
 19 20  1  0  0  0  0
 19 21  1  0  0  0  0
 19 40  1  0  0  0  0
 20 41  1  0  0  0  0
 20 42  1  0  0  0  0
 20 43  1  0  0  0  0
 21 44  1  0  0  0  0
 21 45  1  0  0  0  0
M  CHG  1  15   1
M  END
> <s_m_source_file>
AV-unprocessed.smi

> <i_m_source_file_index>
1445

> <i_lp_mmshare_version>
43012

> <i_f3d_flags>
0

> <s_epik_input>
W0NIM11PYzFuW2NIXVtjSF1bY0hdYzFbTkhdQyg9TylbTkhdW0NIMl1bQ0gyXU4yW0NIMl1bQ0gyXVtDSDJdW0NAQEhdKFtDSDNdKVtDSDJdMg==

> <s_epik_cmdline>
J2VwaWtfcHl0aG9uJywgJy1waCcsICc3LjAnLCAnLXRuJywgJzgnLCAnLW1hJywgJzIwMCcsICctbWV0YWxfYmluZGluZycsICctaW1hZScsICc8aW5maWxlLm1hZT4nLCAnLW9tYWUnLCAnPG91dGZpbGUubWFlPic=

> <r_lp_tautomer_probability>
1

> <r_epik_Ionization_Penalty>
0.00179544

> <r_epik_Ionization_Penalty_Charging>
0.00171832

> <r_epik_Ionization_Penalty_Neutral>
7.71118e-05

> <r_epik_State_Penalty>
0.0011618

> <r_epik_Charging_Adjusted_Penalty>
0.00288012

> <i_epik_Tot_Q>
1

> <i_epik_Tot_abs_Q>
1

> <r_epik_Metal_State_Penalty>
-0

> <b_epik_Metal_Only>
0

> <s_lp_Force_Field>
OPLS_2005

> <r_lp_Energy>
18.8635

> <b_lp_Chiralities_Consistent>
1

> <s_lp_Variant>
AV-unprocessed.smi:1445-4

> <Gold.Version>
5.8.1

> <Gold.Id.Protein>
6NUR|6NUR_protein|mol2

> <Gold.PLP.Fitness>
47.6650

> <Gold.PLP.PLP>
-33.0343

> <Gold.PLP.part.hbond>
-6.4034

> <Gold.PLP.part.metal>
0.0000

> <Gold.PLP.part.buried>
-0.6831

> <Gold.PLP.part.nonpolar>
-26.4716

> <Gold.PLP.part.repulsive>
0.6989

> <Gold.PLP.ligand.clash>
0.0000

> <Gold.PLP.ligand.torsion>
0.5015

> <Gold.PLP.Chemscore.Hbond>
5.1844

> <Gold.PLP.Chemscore.CHOScore>
0.0000

> <Gold.PLP.Chemscore.Metal>
0.0000

> <Gold.Chemscore.Hbonds>
donor molecule, donor type, donor heavy atom, donor atom, acceptor molecule, acceptor atom, score
      L1  H     9    28       P1  7948  0.88
      L1  H    12    29       P1  7948  0.90
      L1  H    15    46       P1  7948  1.85
      P1  H  7989  7998       L1     4  0.21
      P1  H 10752 10765       L1    11  1.00

> <Gold.PLP.Chemscore.Internal.Correction>
0.0804

> <Gold.Rescore>
     Score         DG    S(hbond)    S(metal)    S(lipo)     H(rot)  DE(clash)    DE(int)     intcor
     13.66     -17.84       2.53        0.00      70.84       1.71       1.81       2.37       ----

> <Gold.Chemscore.Fitness>
13.6569

> <Gold.Chemscore.DG>
-17.8394

> <Gold.Chemscore.ZeroCoef>
-5.4800

> <Gold.Chemscore.Hbond>
2.5300

> <Gold.Chemscore.Metal>
0.0000

> <Gold.Chemscore.Lipo>
70.8438

> <Gold.Chemscore.Internal_Hbond>
0.0000

> <Gold.Chemscore.DEClash>
1.8135

> <Gold.Chemscore.DEInternal>
2.3690

> <Gold.Chemscore.Rot>
1.7107

> <Gold.Chemscore.Internal.Correction>
   9.000000E+99

> <Gold.Chemscore.Hbonds>
donor molecule, donor type, donor heavy atom, donor atom, acceptor molecule, acceptor atom, score
      L1  H     9    28       P1  7948  0.62
      L1  H    12    29       P1  7948  0.20
      L1  H    15    46       P1  7948  0.40
      P1  H 10752 10765       L1    11  0.43

> <Gold.Chemscore.Hbond.Weighted>
-8.4501

> <Gold.Chemscore.Metal.Weighted>
-0.0000

> <Gold.Chemscore.Lipo.Weighted>
-8.2887

> <Gold.Chemscore.Internal_Hbond.Weighted>
0.0000

> <Gold.Chemscore.DEClash.Weighted>
1.8135

> <Gold.Chemscore.DEInternal.Weighted>
2.3690

> <Gold.Chemscore.Rot.Weighted>
4.3794

> <Gold.Chemscore.Internal.Correction.Weighted>
   9.000000E+99

> <Gold.Protein.RotatedTorsions>
[ 6907 6896 6895 6894 ] final  145.50 input  -60.11 | X-H torsion
[ 7974 7965 7964 7962 ] final   89.92 input  175.53 | X-H torsion
[ 8008 7997 7996 7995 ] final  -39.60 input   59.86 | X-H torsion
[ 10167 10162 10161 10158 ] final  115.76 input  -65.29 | X-H torsion
[ 10718 10713 10712 10709 ] final  -95.25 input   66.30 | X-H torsion
[ 10763 10752 10751 10750 ] final -167.41 input  -60.55 | X-H torsion
[ 11005 11000 10999 10996 ] final   -4.75 input  -57.11 | X-H torsion

> <Gold.Protein.ActiveResidues>
 VAL166  LYS551  ARG553  GLY616  TRP617  ASP618  TYR619  PRO620  LYS621  CYS622 
 ASP623  PHE694  ASN695  SER759  ASP760  ASP761  ALA762  ILE779  LEU786  VAL792 
 PHE793  MET794  SER795  GLU796  ALA797  LYS798  CYS799  TRP800  GLU811  SER814 

> <Gold.Protein.RotatedAtoms>
  152.1801  133.4701  159.4953 H   0  0  0  0  0  0  0  0  0  0  0  0  # atno 6907 bound_to 6896
  150.6933  134.1844  159.4270 H   0  0  0  0  0  0  0  0  0  0  0  0  # atno 6908 bound_to 6896
  151.9755  135.0055  160.0605 H   0  0  0  0  0  0  0  0  0  0  0  0  # atno 6909 bound_to 6896
  145.5259  139.2281  143.2646 H   0  0  0  0  0  0  0  0  0  0  0  0  # atno 7974 bound_to 7965
  154.4021  140.1547  156.2890 H   0  0  0  0  0  0  0  0  0  0  0  0  # atno 8008 bound_to 7997
  155.8802  140.3444  155.5861 H   0  0  0  0  0  0  0  0  0  0  0  0  # atno 8009 bound_to 7997
  155.7675  140.0826  157.2115 H   0  0  0  0  0  0  0  0  0  0  0  0  # atno 8010 bound_to 7997
  139.6294  144.7113  151.2463 H   0  0  0  0  0  0  0  0  0  0  0  0  # atno 10167 bound_to 10162
  156.0040  130.5101  150.6049 H   0  0  0  0  0  0  0  0  0  0  0  0  # atno 10718 bound_to 10713
  154.6734  135.2943  154.9711 H   0  0  0  0  0  0  0  0  0  0  0  0  # atno 10763 bound_to 10752
  154.0730  135.6615  153.4831 H   0  0  0  0  0  0  0  0  0  0  0  0  # atno 10764 bound_to 10752
  153.0501  135.5179  154.7742 H   0  0  0  0  0  0  0  0  0  0  0  0  # atno 10765 bound_to 10752
  140.6836  133.9132  155.8571 H   0  0  0  0  0  0  0  0  0  0  0  0  # atno 11005 bound_to 11000
  146.2076  140.6073  142.9074 LP  0  0  0  0  0  0  0  0  0  0  0  0  # atno 17320 bound_to 7965
  144.7651  140.5512  143.6708 LP  0  0  0  0  0  0  0  0  0  0  0  0  # atno 17321 bound_to 7965
  140.7430  143.6507  150.8251 LP  0  0  0  0  0  0  0  0  0  0  0  0  # atno 17342 bound_to 10162
  140.0130  143.5622  152.2831 LP  0  0  0  0  0  0  0  0  0  0  0  0  # atno 17343 bound_to 10162
  157.3891  131.0793  151.1409 LP  0  0  0  0  0  0  0  0  0  0  0  0  # atno 17370 bound_to 10713
  157.2107  130.6436  149.5773 LP  0  0  0  0  0  0  0  0  0  0  0  0  # atno 17371 bound_to 10713
  141.0298  134.0773  157.4027 LP  0  0  0  0  0  0  0  0  0  0  0  0  # atno 17394 bound_to 11000
  139.8944  135.0136  156.6950 LP  0  0  0  0  0  0  0  0  0  0  0  0  # atno 17395 bound_to 11000

$$$$
