AV-unprocessed.smi:101|AV-procd|sdf|922|dock4
  -GOLD-   2262017423D 1   1.00000     0.00000
 Structure written by MMmdl.
 44 46  0  0  0  0  0  0  0  0  1 V2000
  147.0113  142.3632  154.5150 C   0  0  0  0  0  0  0  0  0  0  0  0
  147.4049  140.9047  154.6856 C   0  0  0  0  0  0  0  0  0  0  0  0
  148.6525  140.4499  154.4039 C   0  0  0  0  0  0  0  0  0  0  0  0
  149.0558  139.1278  154.5650 N   0  0  0  0  0  0  0  0  0  0  0  0
  150.4652  138.6762  154.2020 C   0  0  1  0  0  0  0  0  0  0  0  0
  151.3519  139.7442  154.3945 O   0  0  0  0  0  0  0  0  0  0  0  0
  152.0783  139.5989  155.6117 C   0  0  1  0  0  0  0  0  0  0  0  0
  151.2680  140.1449  156.8063 C   0  0  0  0  0  0  0  0  0  0  0  0
  151.9224  141.2854  157.3373 O   0  0  0  0  0  0  0  0  0  0  0  0
  152.1316  141.3859  158.6651 C   0  0  0  0  0  0  0  0  0  0  0  0
  152.2966  140.4150  159.4062 O   0  0  0  0  0  0  0  0  0  0  0  0
  152.1137  142.7956  159.1490 C   0  0  0  0  0  0  0  0  0  0  0  0
  152.2679  143.0552  160.5308 C   0  0  0  0  0  0  0  0  0  0  0  0
  152.2385  144.3753  161.0200 C   0  0  0  0  0  0  0  0  0  0  0  0
  152.0556  145.4521  160.1331 C   0  0  0  0  0  0  0  0  0  0  0  0
  151.9011  145.2070  158.7561 C   0  0  0  0  0  0  0  0  0  0  0  0
  151.9295  143.8872  158.2650 C   0  0  0  0  0  0  0  0  0  0  0  0
  152.3086  138.0874  155.6379 C   0  0  1  0  0  0  0  0  0  0  0  0
  152.6018  137.6071  156.9361 O   0  0  0  0  0  0  0  0  0  0  0  0
  150.9961  137.5260  155.1006 C   0  0  2  0  0  0  0  0  0  0  0  0
  151.2507  136.3511  154.3567 O   0  0  0  0  0  0  0  0  0  0  0  0
  148.0808  138.1648  154.9102 C   0  0  0  0  0  0  0  0  0  0  0  0
  148.3101  136.9567  154.9408 O   0  0  0  0  0  0  0  0  0  0  0  0
  146.8039  138.6313  155.2167 N   0  0  0  0  0  0  0  0  0  0  0  0
  146.3875  139.9625  155.1552 C   0  0  0  0  0  0  0  0  0  0  0  0
  145.2347  140.2546  155.4689 O   0  0  0  0  0  0  0  0  0  0  0  0
  146.1157  137.9461  155.4932 H   0  0  0  0  0  0  0  0  0  0  0  0
  147.8316  142.9611  154.1168 H   0  0  0  0  0  0  0  0  0  0  0  0
  146.7226  142.7928  155.4750 H   0  0  0  0  0  0  0  0  0  0  0  0
  146.1686  142.4559  153.8291 H   0  0  0  0  0  0  0  0  0  0  0  0
  149.3597  141.1738  154.0284 H   0  0  0  0  0  0  0  0  0  0  0  0
  150.4048  138.4303  153.1404 H   0  0  0  0  0  0  0  0  0  0  0  0
  153.0274  140.1320  155.5447 H   0  0  0  0  0  0  0  0  0  0  0  0
  150.2491  140.3872  156.5025 H   0  0  0  0  0  0  0  0  0  0  0  0
  151.1971  139.3938  157.5934 H   0  0  0  0  0  0  0  0  0  0  0  0
  152.4061  142.2442  161.2315 H   0  0  0  0  0  0  0  0  0  0  0  0
  152.3557  144.5613  162.0774 H   0  0  0  0  0  0  0  0  0  0  0  0
  152.0332  146.4646  160.5083 H   0  0  0  0  0  0  0  0  0  0  0  0
  151.7599  146.0327  158.0745 H   0  0  0  0  0  0  0  0  0  0  0  0
  151.8044  143.7339  157.2030 H   0  0  0  0  0  0  0  0  0  0  0  0
  153.1324  137.8432  154.9646 H   0  0  0  0  0  0  0  0  0  0  0  0
  152.5433  136.6638  156.9285 H   0  0  0  0  0  0  0  0  0  0  0  0
  150.3093  137.3286  155.9247 H   0  0  0  0  0  0  0  0  0  0  0  0
  151.2157  136.5684  153.4372 H   0  0  0  0  0  0  0  0  0  0  0  0
  1  2  1  0  0  0  0
  1 28  1  0  0  0  0
  1 29  1  0  0  0  0
  1 30  1  0  0  0  0
  2 25  1  0  0  0  0
  2  3  2  0  0  0  0
  3  4  1  0  0  0  0
  3 31  1  0  0  0  0
  4  5  1  0  0  0  0
  4 22  1  0  0  0  0
  5 20  1  0  0  0  0
  5  6  1  0  0  0  0
  5 32  1  0  0  0  0
  6  7  1  0  0  0  0
  7  8  1  0  0  0  0
  7 18  1  0  0  0  0
  7 33  1  0  0  0  0
  8  9  1  0  0  0  0
  8 34  1  0  0  0  0
  8 35  1  0  0  0  0
  9 10  1  0  0  0  0
 10 11  2  0  0  0  0
 10 12  1  0  0  0  0
 12 17  1  0  0  0  0
 12 13  2  0  0  0  0
 13 14  1  0  0  0  0
 13 36  1  0  0  0  0
 14 15  2  0  0  0  0
 14 37  1  0  0  0  0
 15 16  1  0  0  0  0
 15 38  1  0  0  0  0
 16 17  2  0  0  0  0
 16 39  1  0  0  0  0
 17 40  1  0  0  0  0
 18 19  1  0  0  0  0
 18 20  1  0  0  0  0
 18 41  1  0  0  0  0
 19 42  1  0  0  0  0
 20 21  1  0  0  0  0
 20 43  1  0  0  0  0
 21 44  1  0  0  0  0
 22 23  2  0  0  0  0
 22 24  1  0  0  0  0
 24 27  1  0  0  0  0
 24 25  1  0  0  0  0
 25 26  2  0  0  0  0
M  END
> <s_m_source_file>
AV-unprocessed.smi

> <i_m_source_file_index>
101

> <i_lp_mmshare_version>
43012

> <i_f3d_flags>
0

> <s_epik_input>
Tz1jMVtuSF1jKD1PKW4oW2NIXWMxW0NIM10pW0NAQEhdMk9bQ0BIXShbQ0BASF0oW09IXSlbQ0BIXTJbT0hdKVtDSDJdT0MoPU8pYzNbY0hdW2NIXVtjSF1bY0hdW2NIXTM=

> <s_epik_cmdline>
J2VwaWtfcHl0aG9uJywgJy1waCcsICc3LjAnLCAnLXRuJywgJzgnLCAnLW1hJywgJzIwMCcsICctbWV0YWxfYmluZGluZycsICctaW1hZScsICc8aW5maWxlLm1hZT4nLCAnLW9tYWUnLCAnPG91dGZpbGUubWFlPic=

> <r_lp_tautomer_probability>
0.999537

> <r_epik_Ionization_Penalty>
0.00263537

> <r_epik_Ionization_Penalty_Charging>
0.00263428

> <r_epik_Ionization_Penalty_Neutral>
1.09111e-06

> <r_epik_State_Penalty>
0.00183335

> <r_epik_Charging_Adjusted_Penalty>
0.00446763

> <i_epik_Tot_Q>
0

> <i_epik_Tot_abs_Q>
0

> <r_epik_Metal_State_Penalty>
1.00528

> <b_epik_Metal_Only>
0

> <s_epik_Chemistry_Notes>
This compound has an ester and may undergo hydrolysis at high or low pH. This compound contains an acetal/aminal-like group ( X-CH(R)-Y where X, Y are N, S, or O) that may be acid/base labile, releasing an aldehyde.

> <s_lp_Force_Field>
OPLS_2005

> <r_lp_Energy>
31.3632

> <b_lp_Chiralities_Consistent>
1

> <s_lp_Variant>
AV-unprocessed.smi:101-10

> <Gold.Version>
5.8.1

> <Gold.Id.Protein>
6NUR|6NUR_protein|mol2

> <Gold.PLP.Fitness>
53.2690

> <Gold.PLP.PLP>
-48.7901

> <Gold.PLP.part.hbond>
-2.7740

> <Gold.PLP.part.metal>
0.0000

> <Gold.PLP.part.buried>
-5.1874

> <Gold.PLP.part.nonpolar>
-41.2233

> <Gold.PLP.part.repulsive>
0.3213

> <Gold.PLP.ligand.clash>
0.0000

> <Gold.PLP.ligand.torsion>
2.0864

> <Gold.PLP.Chemscore.Hbond>
2.8210

> <Gold.PLP.Chemscore.CHOScore>
0.0000

> <Gold.PLP.Chemscore.Metal>
0.0000

> <Gold.Chemscore.Hbonds>
donor molecule, donor type, donor heavy atom, donor atom, acceptor molecule, acceptor atom, score
      L1  H    21    44       P1  7949  0.99
      P1  H  7989  7998       L1     6  0.83
      P1  H 10752 10764       L1    21  1.00

> <Gold.PLP.Chemscore.Internal.Correction>
0.1887

> <Gold.Rescore>
     Score         DG    S(hbond)    S(metal)    S(lipo)     H(rot)  DE(clash)    DE(int)     intcor
     13.55     -18.21       2.28        0.00     116.36       3.32       0.34       4.32       ----

> <Gold.Chemscore.Fitness>
13.5529

> <Gold.Chemscore.DG>
-18.2075

> <Gold.Chemscore.ZeroCoef>
-5.4800

> <Gold.Chemscore.Hbond>
2.2770

> <Gold.Chemscore.Metal>
0.0000

> <Gold.Chemscore.Lipo>
116.3613

> <Gold.Chemscore.Internal_Hbond>
0.0000

> <Gold.Chemscore.DEClash>
0.3364

> <Gold.Chemscore.DEInternal>
4.3181

> <Gold.Chemscore.Rot>
3.3172

> <Gold.Chemscore.Internal.Correction>
   9.000000E+99

> <Gold.Chemscore.Hbonds>
donor molecule, donor type, donor heavy atom, donor atom, acceptor molecule, acceptor atom, score
      L1  H    21    44       P1  7949  0.49
      P1  H  7989  7998       L1     6  0.79
      P1  H 10752 10764       L1    21  0.48

> <Gold.Chemscore.Hbond.Weighted>
-7.6052

> <Gold.Chemscore.Metal.Weighted>
-0.0000

> <Gold.Chemscore.Lipo.Weighted>
-13.6143

> <Gold.Chemscore.Internal_Hbond.Weighted>
0.0000

> <Gold.Chemscore.DEClash.Weighted>
0.3364

> <Gold.Chemscore.DEInternal.Weighted>
4.3181

> <Gold.Chemscore.Rot.Weighted>
8.4920

> <Gold.Chemscore.Internal.Correction.Weighted>
   9.000000E+99

> <Gold.Protein.RotatedTorsions>
[ 6907 6896 6895 6894 ] final   62.34 input  -60.11 | X-H torsion
[ 7974 7965 7964 7962 ] final -173.93 input  175.53 | X-H torsion
[ 8008 7997 7996 7995 ] final  -66.04 input   59.86 | X-H torsion
[ 10167 10162 10161 10158 ] final  -35.44 input  -65.29 | X-H torsion
[ 10718 10713 10712 10709 ] final   25.35 input   66.30 | X-H torsion
[ 10763 10752 10751 10750 ] final  -54.49 input  -60.55 | X-H torsion
[ 11005 11000 10999 10996 ] final  137.35 input  -57.11 | X-H torsion

> <Gold.Protein.ActiveResidues>
 VAL166  LYS551  ARG553  GLY616  TRP617  ASP618  TYR619  PRO620  LYS621  CYS622 
 ASP623  PHE694  ASN695  SER759  ASP760  ASP761  ALA762  ILE779  LEU786  VAL792 
 PHE793  MET794  SER795  GLU796  ALA797  LYS798  CYS799  TRP800  GLU811  SER814 

> <Gold.Protein.RotatedAtoms>
  152.4164  134.6034  160.0006 H   0  0  0  0  0  0  0  0  0  0  0  0  # atno 6907 bound_to 6896
  151.6197  133.3334  159.3093 H   0  0  0  0  0  0  0  0  0  0  0  0  # atno 6908 bound_to 6896
  150.8052  134.7212  159.6704 H   0  0  0  0  0  0  0  0  0  0  0  0  # atno 6909 bound_to 6896
  144.7135  140.1548  143.6381 H   0  0  0  0  0  0  0  0  0  0  0  0  # atno 7974 bound_to 7965
  154.4709  140.0921  156.7143 H   0  0  0  0  0  0  0  0  0  0  0  0  # atno 8008 bound_to 7997
  155.4726  140.3465  155.4309 H   0  0  0  0  0  0  0  0  0  0  0  0  # atno 8009 bound_to 7997
  156.1038  140.1429  156.9420 H   0  0  0  0  0  0  0  0  0  0  0  0  # atno 8010 bound_to 7997
  140.7165  143.3477  151.2221 H   0  0  0  0  0  0  0  0  0  0  0  0  # atno 10167 bound_to 10162
  157.1922  130.6851  149.6154 H   0  0  0  0  0  0  0  0  0  0  0  0  # atno 10718 bound_to 10713
  154.1756  135.6452  153.5021 H   0  0  0  0  0  0  0  0  0  0  0  0  # atno 10763 bound_to 10752
  153.0072  135.5394  154.6567 H   0  0  0  0  0  0  0  0  0  0  0  0  # atno 10764 bound_to 10752
  154.5918  135.2935  155.0600 H   0  0  0  0  0  0  0  0  0  0  0  0  # atno 10765 bound_to 10752
  140.0108  134.9440  157.0273 H   0  0  0  0  0  0  0  0  0  0  0  0  # atno 11005 bound_to 11000
  145.9084  139.2472  143.1452 LP  0  0  0  0  0  0  0  0  0  0  0  0  # atno 17320 bound_to 7965
  145.9741  140.8736  143.0147 LP  0  0  0  0  0  0  0  0  0  0  0  0  # atno 17321 bound_to 7965
  139.7001  143.9548  152.2901 LP  0  0  0  0  0  0  0  0  0  0  0  0  # atno 17342 bound_to 10162
  139.9238  144.6783  150.8434 LP  0  0  0  0  0  0  0  0  0  0  0  0  # atno 17343 bound_to 10162
  155.9710  130.4611  150.6096 LP  0  0  0  0  0  0  0  0  0  0  0  0  # atno 17370 bound_to 10713
  157.3849  131.0787  151.1444 LP  0  0  0  0  0  0  0  0  0  0  0  0  # atno 17371 bound_to 10713
  140.4558  134.1535  155.7186 LP  0  0  0  0  0  0  0  0  0  0  0  0  # atno 17394 bound_to 11000
  141.1709  133.8610  157.1572 LP  0  0  0  0  0  0  0  0  0  0  0  0  # atno 17395 bound_to 11000

$$$$
