AV-unprocessed.smi:1810|AV-procd|sdf|7334|dock6
  -GOLD-   22720 8593D 1   1.00000     0.00000
 Structure written by MMmdl.
 39 40  0  0  0  0  0  0  0  0  2 V2000
  151.1690  144.8203  160.1471 C   0  0  0  0  0  0  0  0  0  0  0  0
  151.6975  143.5204  159.6028 C   0  0  0  0  0  0  0  0  0  0  0  0
  151.2677  143.1604  158.4381 N   0  0  0  0  0  0  0  0  0  0  0  0
  151.6915  141.9867  157.8465 N   0  0  0  0  0  0  0  0  0  0  0  0
  151.0931  141.7297  156.5321 C   0  0  0  0  0  0  0  0  0  0  0  0
  150.1798  140.4948  156.5594 C   0  0  0  0  0  0  0  0  0  0  0  0
  149.4105  140.4724  155.3651 O   0  0  0  0  0  0  0  0  0  0  0  0
  148.1491  141.0286  155.3915 C   0  0  0  0  0  0  0  0  0  0  0  0
  147.4893  141.4528  156.5738 C   0  0  0  0  0  0  0  0  0  0  0  0
  146.1973  142.0102  156.5101 C   0  0  0  0  0  0  0  0  0  0  0  0
  145.5540  142.1485  155.2646 C   0  0  0  0  0  0  0  0  0  0  0  0
  143.9112  142.8623  155.1868 S   0  0  0  0  0  0  0  0  0  0  0  0
  143.9858  143.3859  153.6619 N   0  5  0  0  0  0  0  0  0  0  0  0
  142.9604  141.7536  155.3629 O   0  0  0  0  0  0  0  0  0  0  0  0
  143.8851  143.9599  156.1666 O   0  0  0  0  0  0  0  0  0  0  0  0
  146.1981  141.7327  154.0829 C   0  0  0  0  0  0  0  0  0  0  0  0
  147.4895  141.1757  154.1529 C   0  0  0  0  0  0  0  0  0  0  0  0
  152.5744  141.1100  158.4040 C   0  0  0  0  0  0  0  0  0  0  0  0
  152.9225  140.0710  157.8410 O   0  0  0  0  0  0  0  0  0  0  0  0
  153.0565  141.5230  159.7241 C   0  0  0  0  0  0  0  0  0  0  0  0
  153.9840  140.6327  160.3442 C   0  0  0  0  0  0  0  0  0  0  0  0
  154.7246  139.9108  160.8645 N   0  0  0  0  0  0  0  0  0  0  0  0
  152.6479  142.6733  160.3162 C   0  0  0  0  0  0  0  0  0  0  0  0
  153.1186  143.1473  161.6845 C   0  0  0  0  0  0  0  0  0  0  0  0
  151.9853  145.5081  160.3684 H   0  0  0  0  0  0  0  0  0  0  0  0
  150.6074  144.6543  161.0666 H   0  0  0  0  0  0  0  0  0  0  0  0
  150.5040  145.3177  159.4393 H   0  0  0  0  0  0  0  0  0  0  0  0
  150.5157  142.5984  156.2107 H   0  0  0  0  0  0  0  0  0  0  0  0
  151.8712  141.6041  155.7770 H   0  0  0  0  0  0  0  0  0  0  0  0
  150.7803  139.5869  156.6354 H   0  0  0  0  0  0  0  0  0  0  0  0
  149.5219  140.5433  157.4287 H   0  0  0  0  0  0  0  0  0  0  0  0
  147.9520  141.3605  157.5444 H   0  0  0  0  0  0  0  0  0  0  0  0
  145.7035  142.3261  157.4171 H   0  0  0  0  0  0  0  0  0  0  0  0
  143.4100  142.7627  153.0834 H   0  0  0  0  0  0  0  0  0  0  0  0
  145.7080  141.8344  153.1261 H   0  0  0  0  0  0  0  0  0  0  0  0
  147.9795  140.8567  153.2448 H   0  0  0  0  0  0  0  0  0  0  0  0
  153.7940  142.4355  162.1585 H   0  0  0  0  0  0  0  0  0  0  0  0
  152.2702  143.2878  162.3552 H   0  0  0  0  0  0  0  0  0  0  0  0
  153.6499  144.0958  161.5975 H   0  0  0  0  0  0  0  0  0  0  0  0
  1  2  1  0  0  0  0
  1 25  1  0  0  0  0
  1 26  1  0  0  0  0
  1 27  1  0  0  0  0
  2 23  1  0  0  0  0
  2  3  2  0  0  0  0
  3  4  1  0  0  0  0
  4  5  1  0  0  0  0
  4 18  1  0  0  0  0
  5  6  1  0  0  0  0
  5 28  1  0  0  0  0
  5 29  1  0  0  0  0
  6  7  1  0  0  0  0
  6 30  1  0  0  0  0
  6 31  1  0  0  0  0
  7  8  1  0  0  0  0
  8 17  1  0  0  0  0
  8  9  2  0  0  0  0
  9 10  1  0  0  0  0
  9 32  1  0  0  0  0
 10 11  2  0  0  0  0
 10 33  1  0  0  0  0
 11 12  1  0  0  0  0
 11 16  1  0  0  0  0
 12 13  1  0  0  0  0
 12 14  2  0  0  0  0
 12 15  2  0  0  0  0
 13 34  1  0  0  0  0
 16 17  2  0  0  0  0
 16 35  1  0  0  0  0
 17 36  1  0  0  0  0
 18 19  2  0  0  0  0
 18 20  1  0  0  0  0
 20 21  1  0  0  0  0
 20 23  2  0  0  0  0
 21 22  3  0  0  0  0
 23 24  1  0  0  0  0
 24 37  1  0  0  0  0
 24 38  1  0  0  0  0
 24 39  1  0  0  0  0
M  CHG  1  13  -1
M  END
> <s_m_source_file>
AV-unprocessed.smi

> <i_m_source_file_index>
1810

> <i_lp_mmshare_version>
43012

> <i_f3d_flags>
0

> <s_epik_input>
TiNDYyhjMVtDSDNdKWMoPU8pbihuYzFbQ0gzXSlbQ0gyXVtDSDJdT2MyW2NIXVtjSF1jKFMoPU8pKD1PKVtOSDJdKVtjSF1bY0hdMg==

> <s_epik_cmdline>
J2VwaWtfcHl0aG9uJywgJy1waCcsICc3LjAnLCAnLXRuJywgJzgnLCAnLW1hJywgJzIwMCcsICctbWV0YWxfYmluZGluZycsICctaW1hZScsICc8aW5maWxlLm1hZT4nLCAnLW9tYWUnLCAnPG91dGZpbGUubWFlPic=

> <r_lp_tautomer_probability>
1

> <r_epik_Ionization_Penalty>
4.40921

> <r_epik_Ionization_Penalty_Charging>
4.40921

> <r_epik_Ionization_Penalty_Neutral>
1.83918e-13

> <r_epik_State_Penalty>
4.40908

> <r_epik_Charging_Adjusted_Penalty>
8.81829

> <i_epik_Tot_Q>
-1

> <i_epik_Tot_abs_Q>
1

> <r_epik_Metal_State_Penalty>
0.775711

> <b_epik_Metal_Only>
1

> <s_lp_Force_Field>
OPLS_2005

> <r_lp_Energy>
29.6197

> <b_lp_Chiralities_Consistent>
1

> <s_lp_Variant>
AV-unprocessed.smi:1810-2

> <Gold.Version>
5.8.1

> <Gold.Id.Protein>
6NUR|6NUR_protein|mol2

> <Gold.PLP.Fitness>
50.9455

> <Gold.PLP.PLP>
-45.9350

> <Gold.PLP.part.hbond>
-2.0000

> <Gold.PLP.part.metal>
0.0000

> <Gold.PLP.part.buried>
-7.0678

> <Gold.PLP.part.nonpolar>
-36.4662

> <Gold.PLP.part.repulsive>
0.4041

> <Gold.PLP.ligand.clash>
0.0000

> <Gold.PLP.ligand.torsion>
1.5692

> <Gold.PLP.Chemscore.Hbond>
2.0000

> <Gold.PLP.Chemscore.CHOScore>
0.0000

> <Gold.PLP.Chemscore.Metal>
0.0000

> <Gold.Chemscore.Hbonds>
donor molecule, donor type, donor heavy atom, donor atom, acceptor molecule, acceptor atom, score
      L1  H    13    34       P1 10174  0.18
      P1  H  7997  8010       L1    19  0.98

> <Gold.PLP.Chemscore.Internal.Correction>
2.1489

> <Gold.Rescore>
     Score         DG    S(hbond)    S(metal)    S(lipo)     H(rot)  DE(clash)    DE(int)     intcor
     14.23     -17.08       1.61        0.00      95.67       1.94       0.21       2.64       ----

> <Gold.Chemscore.Fitness>
14.2281

> <Gold.Chemscore.DG>
-17.0762

> <Gold.Chemscore.ZeroCoef>
-5.4800

> <Gold.Chemscore.Hbond>
1.6063

> <Gold.Chemscore.Metal>
0.0000

> <Gold.Chemscore.Lipo>
95.6705

> <Gold.Chemscore.Internal_Hbond>
0.0000

> <Gold.Chemscore.DEClash>
0.2100

> <Gold.Chemscore.DEInternal>
2.6380

> <Gold.Chemscore.Rot>
1.9384

> <Gold.Chemscore.Internal.Correction>
   9.000000E+99

> <Gold.Chemscore.Hbonds>
donor molecule, donor type, donor heavy atom, donor atom, acceptor molecule, acceptor atom, score
      L1  H    13    34       P1 10174  0.02
      P1  H  7997  8010       L1    19  0.90

> <Gold.Chemscore.Hbond.Weighted>
-5.3650

> <Gold.Chemscore.Metal.Weighted>
-0.0000

> <Gold.Chemscore.Lipo.Weighted>
-11.1935

> <Gold.Chemscore.Internal_Hbond.Weighted>
0.0000

> <Gold.Chemscore.DEClash.Weighted>
0.2100

> <Gold.Chemscore.DEInternal.Weighted>
2.6380

> <Gold.Chemscore.Rot.Weighted>
4.9622

> <Gold.Chemscore.Internal.Correction.Weighted>
   9.000000E+99

> <Gold.Protein.RotatedTorsions>
[ 6907 6896 6895 6894 ] final  132.09 input  -60.11 | X-H torsion
[ 7974 7965 7964 7962 ] final   26.04 input  175.53 | X-H torsion
[ 8008 7997 7996 7995 ] final   56.35 input   59.86 | X-H torsion
[ 10167 10162 10161 10158 ] final   94.67 input  -65.29 | X-H torsion
[ 10718 10713 10712 10709 ] final -125.32 input   66.30 | X-H torsion
[ 10763 10752 10751 10750 ] final  -22.61 input  -60.55 | X-H torsion
[ 11005 11000 10999 10996 ] final   51.83 input  -57.11 | X-H torsion

> <Gold.Protein.ActiveResidues>
 VAL166  LYS551  ARG553  GLY616  TRP617  ASP618  TYR619  PRO620  LYS621  CYS622 
 ASP623  PHE694  ASN695  SER759  ASP760  ASP761  ALA762  ILE779  LEU786  VAL792 
 PHE793  MET794  SER795  GLU796  ALA797  LYS798  CYS799  TRP800  GLU811  SER814 

> <Gold.Protein.RotatedAtoms>
  152.3360  133.6012  159.5842 H   0  0  0  0  0  0  0  0  0  0  0  0  # atno 6907 bound_to 6896
  150.7450  133.9795  159.3580 H   0  0  0  0  0  0  0  0  0  0  0  0  # atno 6908 bound_to 6896
  151.7665  135.0798  160.0404 H   0  0  0  0  0  0  0  0  0  0  0  0  # atno 6909 bound_to 6896
  146.1858  139.7382  142.8868 H   0  0  0  0  0  0  0  0  0  0  0  0  # atno 7974 bound_to 7965
  155.5160  140.3478  155.4397 H   0  0  0  0  0  0  0  0  0  0  0  0  # atno 8008 bound_to 7997
  156.0817  140.1388  156.9731 H   0  0  0  0  0  0  0  0  0  0  0  0  # atno 8009 bound_to 7997
  154.4583  140.0944  156.6798 H   0  0  0  0  0  0  0  0  0  0  0  0  # atno 8010 bound_to 7997
  139.8061  144.6793  150.9701 H   0  0  0  0  0  0  0  0  0  0  0  0  # atno 10167 bound_to 10162
  156.1665  130.6638  151.0121 H   0  0  0  0  0  0  0  0  0  0  0  0  # atno 10718 bound_to 10713
  153.6547  135.6979  153.5197 H   0  0  0  0  0  0  0  0  0  0  0  0  # atno 10763 bound_to 10752
  153.2679  135.4224  155.0958 H   0  0  0  0  0  0  0  0  0  0  0  0  # atno 10764 bound_to 10752
  154.8467  135.3571  154.6091 H   0  0  0  0  0  0  0  0  0  0  0  0  # atno 10765 bound_to 10752
  140.0900  134.5222  155.8861 H   0  0  0  0  0  0  0  0  0  0  0  0  # atno 11005 bound_to 11000
  145.3943  141.0377  143.3106 LP  0  0  0  0  0  0  0  0  0  0  0  0  # atno 17320 bound_to 7965
  144.8394  139.5496  143.6907 LP  0  0  0  0  0  0  0  0  0  0  0  0  # atno 17321 bound_to 7965
  140.7819  143.4232  151.0809 LP  0  0  0  0  0  0  0  0  0  0  0  0  # atno 17342 bound_to 10162
  139.7901  143.8231  152.3150 LP  0  0  0  0  0  0  0  0  0  0  0  0  # atno 17343 bound_to 10162
  157.6771  131.0847  150.7466 LP  0  0  0  0  0  0  0  0  0  0  0  0  # atno 17370 bound_to 10713
  156.7526  130.4773  149.5453 LP  0  0  0  0  0  0  0  0  0  0  0  0  # atno 17371 bound_to 10713
  141.2075  133.6664  156.6308 LP  0  0  0  0  0  0  0  0  0  0  0  0  # atno 17394 bound_to 11000
  140.3366  134.7884  157.4366 LP  0  0  0  0  0  0  0  0  0  0  0  0  # atno 17395 bound_to 11000

$$$$
