AV-unprocessed.smi:167|AV-procd|sdf|1394|dock10
  -GOLD-   2262019133D 1   1.00000     0.00000
 Structure written by MMmdl.
 51 55  0  0  0  0  0  0  0  0  1 V2000
  154.9387  129.9126  154.1231 O   0  0  0  0  0  0  0  0  0  0  0  0
  153.8530  129.0275  154.2975 C   0  0  0  0  0  0  0  0  0  0  0  0
  152.5873  129.8103  154.6930 C   0  0  2  0  0  0  0  0  0  0  0  0
  152.6886  130.5717  156.0275 C   0  0  0  0  0  0  0  0  0  0  0  0
  151.3913  130.1238  156.7360 C   0  0  2  0  0  0  0  0  0  0  0  0
  151.5879  128.6944  157.2664 C   0  0  0  0  0  0  0  0  0  0  0  0
  151.4904  127.8807  155.9680 C   0  0  0  0  0  0  0  0  0  0  0  0
  151.2889  128.9943  154.9216 C   0  0  1  0  0  0  0  0  0  0  0  0
  150.4387  129.9247  155.6505 N   0  0  0  0  0  0  0  0  0  0  0  0
  149.8720  130.9936  155.0238 C   0  0  0  0  0  0  0  0  0  0  0  0
  150.3979  132.2293  155.2380 N   0  0  0  0  0  0  0  0  0  0  0  0
  149.8763  133.3038  154.6407 C   0  0  0  0  0  0  0  0  0  0  0  0
  148.8361  133.3725  153.8095 N   0  0  0  0  0  0  0  0  0  0  0  0
  148.2873  132.1416  153.6043 C   0  0  0  0  0  0  0  0  0  0  0  0
  148.7366  130.9106  154.1644 C   0  0  0  0  0  0  0  0  0  0  0  0
  147.9223  129.8753  153.7194 N   0  0  0  0  0  0  0  0  0  0  0  0
  147.0595  130.4547  152.9311 C   0  0  0  0  0  0  0  0  0  0  0  0
  147.1906  131.8201  152.8245 N   0  0  0  0  0  0  0  0  0  0  0  0
  146.4082  132.7059  152.0128 C   0  0  0  0  0  0  0  0  0  0  0  0
  144.8785  132.6802  152.0775 C   0  0  0  0  0  0  0  0  0  0  0  0
  144.8212  133.0719  150.5821 C   0  0  0  0  0  0  0  0  0  0  0  0
  143.7479  132.3884  149.7117 C   0  0  0  0  0  0  0  0  0  0  0  0
  142.4331  132.6725  150.1459 O   0  0  0  0  0  0  0  0  0  0  0  0
  144.7413  134.5837  150.2966 C   0  0  0  0  0  0  0  0  0  0  0  0
  143.5859  135.1600  150.8710 O   0  0  0  0  0  0  0  0  0  0  0  0
  146.2513  132.4887  150.5036 C   0  0  0  0  0  0  0  0  0  0  0  0
  155.2430  130.1867  154.9748 H   0  0  0  0  0  0  0  0  0  0  0  0
  153.7072  128.4408  153.3914 H   0  0  0  0  0  0  0  0  0  0  0  0
  154.1110  128.3200  155.0858 H   0  0  0  0  0  0  0  0  0  0  0  0
  152.3937  130.5378  153.9025 H   0  0  0  0  0  0  0  0  0  0  0  0
  153.5814  130.3216  156.6019 H   0  0  0  0  0  0  0  0  0  0  0  0
  152.6948  131.6486  155.8541 H   0  0  0  0  0  0  0  0  0  0  0  0
  151.0647  130.8118  157.5168 H   0  0  0  0  0  0  0  0  0  0  0  0
  152.5396  128.5615  157.7820 H   0  0  0  0  0  0  0  0  0  0  0  0
  150.7868  128.4178  157.9531 H   0  0  0  0  0  0  0  0  0  0  0  0
  152.3581  127.2489  155.7855 H   0  0  0  0  0  0  0  0  0  0  0  0
  150.6158  127.2295  155.9997 H   0  0  0  0  0  0  0  0  0  0  0  0
  150.8661  128.6005  153.9995 H   0  0  0  0  0  0  0  0  0  0  0  0
  150.3607  134.2435  154.8622 H   0  0  0  0  0  0  0  0  0  0  0  0
  146.2960  129.8954  152.4101 H   0  0  0  0  0  0  0  0  0  0  0  0
  146.7832  133.7095  152.2203 H   0  0  0  0  0  0  0  0  0  0  0  0
  144.4928  131.6804  152.2835 H   0  0  0  0  0  0  0  0  0  0  0  0
  144.4477  133.4080  152.7656 H   0  0  0  0  0  0  0  0  0  0  0  0
  143.8243  132.7071  148.6720 H   0  0  0  0  0  0  0  0  0  0  0  0
  143.8748  131.3053  149.7185 H   0  0  0  0  0  0  0  0  0  0  0  0
  141.8921  131.9156  149.9798 H   0  0  0  0  0  0  0  0  0  0  0  0
  145.6088  135.1106  150.6947 H   0  0  0  0  0  0  0  0  0  0  0  0
  144.7327  134.7799  149.2239 H   0  0  0  0  0  0  0  0  0  0  0  0
  142.8277  134.8349  150.4095 H   0  0  0  0  0  0  0  0  0  0  0  0
  146.9480  133.0642  149.8932 H   0  0  0  0  0  0  0  0  0  0  0  0
  146.2800  131.4329  150.2302 H   0  0  0  0  0  0  0  0  0  0  0  0
  1  2  1  0  0  0  0
  1 27  1  0  0  0  0
  2  3  1  0  0  0  0
  2 28  1  0  0  0  0
  2 29  1  0  0  0  0
  3  8  1  0  0  0  0
  3  4  1  0  0  0  0
  3 30  1  0  0  0  0
  4  5  1  0  0  0  0
  4 31  1  0  0  0  0
  4 32  1  0  0  0  0
  5  9  1  0  0  0  0
  5  6  1  0  0  0  0
  5 33  1  0  0  0  0
  6  7  1  0  0  0  0
  6 34  1  0  0  0  0
  6 35  1  0  0  0  0
  7  8  1  0  0  0  0
  7 36  1  0  0  0  0
  7 37  1  0  0  0  0
  8  9  1  0  0  0  0
  8 38  1  0  0  0  0
  9 10  1  0  0  0  0
 10 15  1  0  0  0  0
 10 11  2  0  0  0  0
 11 12  1  0  0  0  0
 12 13  2  0  0  0  0
 12 39  1  0  0  0  0
 13 14  1  0  0  0  0
 14 18  1  0  0  0  0
 14 15  2  0  0  0  0
 15 16  1  0  0  0  0
 16 17  2  0  0  0  0
 17 18  1  0  0  0  0
 17 40  1  0  0  0  0
 18 19  1  0  0  0  0
 19 26  1  0  0  0  0
 19 20  1  0  0  0  0
 19 41  1  0  0  0  0
 20 21  1  0  0  0  0
 20 42  1  0  0  0  0
 20 43  1  0  0  0  0
 21 22  1  0  0  0  0
 21 24  1  0  0  0  0
 21 26  1  0  0  0  0
 22 23  1  0  0  0  0
 22 44  1  0  0  0  0
 22 45  1  0  0  0  0
 23 46  1  0  0  0  0
 24 25  1  0  0  0  0
 24 47  1  0  0  0  0
 24 48  1  0  0  0  0
 25 49  1  0  0  0  0
 26 50  1  0  0  0  0
 26 51  1  0  0  0  0
M  END
> <s_m_source_file>
AV-unprocessed.smi

> <i_m_source_file_index>
167

> <i_lp_mmshare_version>
43012

> <i_f3d_flags>
0

> <s_epik_input>
W09IXVtDSDJdW0NASF0oW0NIMl1bQ0BASF0xMilbQ0BIXShbQ0gyXVtDSDJdMSlOMmMobltjSF1uMyljKGMzNCluW2NIXW40W0NIXShbQ0gyXTUpW0NIMl1DNShbQ0gyXVtPSF0pW0NIMl1bT0hd

> <s_epik_cmdline>
J2VwaWtfcHl0aG9uJywgJy1waCcsICc3LjAnLCAnLXRuJywgJzgnLCAnLW1hJywgJzIwMCcsICctbWV0YWxfYmluZGluZycsICctaW1hZScsICc8aW5maWxlLm1hZT4nLCAnLW9tYWUnLCAnPG91dGZpbGUubWFlPic=

> <r_lp_tautomer_probability>
1

> <r_epik_Ionization_Penalty>
0.0047903

> <r_epik_Ionization_Penalty_Charging>
0

> <r_epik_Ionization_Penalty_Neutral>
0.0047903

> <r_epik_State_Penalty>
0.00341021

> <r_epik_Charging_Adjusted_Penalty>
0.00341021

> <i_epik_Tot_Q>
0

> <i_epik_Tot_abs_Q>
0

> <r_epik_Metal_State_Penalty>
-0

> <b_epik_Metal_Only>
0

> <s_lp_Force_Field>
OPLS_2005

> <r_lp_Energy>
89.3367

> <b_lp_Chiralities_Consistent>
1

> <s_lp_Variant>
AV-unprocessed.smi:167-3

> <Gold.Version>
5.8.1

> <Gold.Id.Protein>
6NUR|6NUR_protein|mol2

> <Gold.PLP.Fitness>
43.8502

> <Gold.PLP.PLP>
-38.9235

> <Gold.PLP.part.hbond>
-2.4017

> <Gold.PLP.part.metal>
0.0000

> <Gold.PLP.part.buried>
-4.0498

> <Gold.PLP.part.nonpolar>
-33.4177

> <Gold.PLP.part.repulsive>
0.2363

> <Gold.PLP.ligand.clash>
0.0000

> <Gold.PLP.ligand.torsion>
0.7614

> <Gold.PLP.Chemscore.Hbond>
1.9913

> <Gold.PLP.Chemscore.CHOScore>
0.0000

> <Gold.PLP.Chemscore.Metal>
0.0000

> <Gold.Chemscore.Hbonds>
donor molecule, donor type, donor heavy atom, donor atom, acceptor molecule, acceptor atom, score
      L1  H    23    46       P1 10952  1.00
      L1  H    25    49       P1 10186  0.93

> <Gold.PLP.Chemscore.Internal.Correction>
0.4756

> <Gold.Rescore>
     Score         DG    S(hbond)    S(metal)    S(lipo)     H(rot)  DE(clash)    DE(int)     intcor
      7.33     -10.11       1.65        0.00      84.38       4.20       1.00       1.78       ----

> <Gold.Chemscore.Fitness>
7.3281

> <Gold.Chemscore.DG>
-10.1074

> <Gold.Chemscore.ZeroCoef>
-5.4800

> <Gold.Chemscore.Hbond>
1.6515

> <Gold.Chemscore.Metal>
0.0000

> <Gold.Chemscore.Lipo>
84.3845

> <Gold.Chemscore.Internal_Hbond>
0.0000

> <Gold.Chemscore.DEClash>
1.0020

> <Gold.Chemscore.DEInternal>
1.7772

> <Gold.Chemscore.Rot>
4.2038

> <Gold.Chemscore.Internal.Correction>
   9.000000E+99

> <Gold.Chemscore.Hbonds>
donor molecule, donor type, donor heavy atom, donor atom, acceptor molecule, acceptor atom, score
      L1  H    23    46       P1 10952  0.90
      L1  H    25    49       P1 10186  0.20

> <Gold.Chemscore.Hbond.Weighted>
-5.5161

> <Gold.Chemscore.Metal.Weighted>
-0.0000

> <Gold.Chemscore.Lipo.Weighted>
-9.8730

> <Gold.Chemscore.Internal_Hbond.Weighted>
0.0000

> <Gold.Chemscore.DEClash.Weighted>
1.0020

> <Gold.Chemscore.DEInternal.Weighted>
1.7772

> <Gold.Chemscore.Rot.Weighted>
10.7617

> <Gold.Chemscore.Internal.Correction.Weighted>
   9.000000E+99

> <Gold.Protein.RotatedTorsions>
[ 6907 6896 6895 6894 ] final   -2.06 input  -60.11 | X-H torsion
[ 7974 7965 7964 7962 ] final   90.73 input  175.53 | X-H torsion
[ 8008 7997 7996 7995 ] final  146.20 input   59.86 | X-H torsion
[ 10167 10162 10161 10158 ] final   25.50 input  -65.29 | X-H torsion
[ 10718 10713 10712 10709 ] final  -35.31 input   66.30 | X-H torsion
[ 10763 10752 10751 10750 ] final  -70.68 input  -60.55 | X-H torsion
[ 11005 11000 10999 10996 ] final  -37.15 input  -57.11 | X-H torsion

> <Gold.Protein.ActiveResidues>
 VAL166  LYS551  ARG553  GLY616  TRP617  ASP618  TYR619  PRO620  LYS621  CYS622 
 ASP623  PHE694  ASN695  SER759  ASP760  ASP761  ALA762  ILE779  LEU786  VAL792 
 PHE793  MET794  SER795  GLU796  ALA797  LYS798  CYS799  TRP800  GLU811  SER814 

> <Gold.Protein.RotatedAtoms>
  151.5360  135.1068  159.9914 H   0  0  0  0  0  0  0  0  0  0  0  0  # atno 6907 bound_to 6896
  152.4557  133.7714  159.6811 H   0  0  0  0  0  0  0  0  0  0  0  0  # atno 6908 bound_to 6896
  150.8500  133.7736  159.3054 H   0  0  0  0  0  0  0  0  0  0  0  0  # atno 6909 bound_to 6896
  145.5151  139.2278  143.2703 H   0  0  0  0  0  0  0  0  0  0  0  0  # atno 7974 bound_to 7965
  156.2862  140.2188  156.5339 H   0  0  0  0  0  0  0  0  0  0  0  0  # atno 8008 bound_to 7997
  154.7426  140.0486  157.0846 H   0  0  0  0  0  0  0  0  0  0  0  0  # atno 8009 bound_to 7997
  155.0211  140.3124  155.4796 H   0  0  0  0  0  0  0  0  0  0  0  0  # atno 8010 bound_to 7997
  140.5101  144.0175  150.6369 H   0  0  0  0  0  0  0  0  0  0  0  0  # atno 10167 bound_to 10162
  156.3402  130.4292  149.7794 H   0  0  0  0  0  0  0  0  0  0  0  0  # atno 10718 bound_to 10713
  154.4211  135.5986  153.6010 H   0  0  0  0  0  0  0  0  0  0  0  0  # atno 10763 bound_to 10752
  152.9794  135.5952  154.3954 H   0  0  0  0  0  0  0  0  0  0  0  0  # atno 10764 bound_to 10752
  154.3780  135.2841  155.2206 H   0  0  0  0  0  0  0  0  0  0  0  0  # atno 10765 bound_to 10752
  140.9930  133.6995  156.1883 H   0  0  0  0  0  0  0  0  0  0  0  0  # atno 11005 bound_to 11000
  146.2142  140.5960  142.9046 LP  0  0  0  0  0  0  0  0  0  0  0  0  # atno 17320 bound_to 7965
  144.7706  140.5629  143.6673 LP  0  0  0  0  0  0  0  0  0  0  0  0  # atno 17321 bound_to 7965
  140.3495  143.2972  152.0503 LP  0  0  0  0  0  0  0  0  0  0  0  0  # atno 17342 bound_to 10162
  139.4894  144.6384  151.6927 LP  0  0  0  0  0  0  0  0  0  0  0  0  # atno 17343 bound_to 10162
  156.5034  130.8139  151.3141 LP  0  0  0  0  0  0  0  0  0  0  0  0  # atno 17370 bound_to 10713
  157.7445  130.9937  150.2682 LP  0  0  0  0  0  0  0  0  0  0  0  0  # atno 17371 bound_to 10713
  140.7010  134.4563  157.5586 LP  0  0  0  0  0  0  0  0  0  0  0  0  # atno 17394 bound_to 11000
  139.9001  134.8576  156.1933 LP  0  0  0  0  0  0  0  0  0  0  0  0  # atno 17395 bound_to 11000

$$$$
