AV-unprocessed.smi:1033|AV-procd|sdf|4510|dock1
  -GOLD-   22720 2513D 1   1.00000     0.00000
 Structure written by MMmdl.
 57 59  0  0  0  0  0  0  0  0  3 V2000
  152.9418  142.7592  161.6800 C   0  0  0  0  0  0  0  0  0  0  0  0
  152.3992  142.4891  160.2876 C   0  0  0  0  0  0  0  0  0  0  0  0
  152.7832  141.3053  159.6180 C   0  0  0  0  0  0  0  0  0  0  0  0
  152.3004  141.0166  158.3228 C   0  0  0  0  0  0  0  0  0  0  0  0
  152.5394  139.9344  157.4929 N   0  0  0  0  0  0  0  0  0  0  0  0
  151.8041  140.2436  156.4287 C   0  0  0  0  0  0  0  0  0  0  0  0
  151.1090  141.3967  156.4748 N   0  0  0  0  0  0  0  0  0  0  0  0
  150.2335  141.9405  155.4525 C   0  0  0  0  0  0  0  0  0  0  0  0
  149.3636  140.8511  154.7973 C   0  0  2  0  0  0  0  0  0  0  0  0
  150.1615  140.0870  153.9138 O   0  0  0  0  0  0  0  0  0  0  0  0
  148.1842  141.4514  154.0072 C   0  0  0  0  0  0  0  0  0  0  0  0
  147.2335  142.1948  154.8746 N   0  3  2  0  0  0  0  0  0  0  0  0
  146.7322  141.3688  156.0014 C   0  0  0  0  0  0  0  0  0  0  0  0
  145.8170  142.1855  156.9373 C   0  0  0  0  0  0  0  0  0  0  0  0
  144.7076  142.8506  156.2041 N   0  3  2  0  0  0  0  0  0  0  0  0
  143.5802  141.9537  155.8297 C   0  0  0  0  0  0  0  0  0  0  0  0
  142.2252  142.6886  155.8175 C   0  0  2  0  0  0  0  0  0  0  0  0
  141.0479  141.7284  155.6045 C   0  0  0  0  0  0  0  0  0  0  0  0
  142.2200  143.6327  154.7660 O   0  0  0  0  0  0  0  0  0  0  0  0
  145.2254  143.6591  155.0719 C   0  0  0  0  0  0  0  0  0  0  0  0
  146.1115  142.8229  154.1297 C   0  0  0  0  0  0  0  0  0  0  0  0
  151.4139  141.9511  157.7127 C   0  0  0  0  0  0  0  0  0  0  0  0
  151.0267  143.1340  158.3670 C   0  0  0  0  0  0  0  0  0  0  0  0
  151.5198  143.4078  159.6597 C   0  0  0  0  0  0  0  0  0  0  0  0
  151.0983  144.6888  160.3577 C   0  0  0  0  0  0  0  0  0  0  0  0
  153.5905  141.9508  162.0183 H   0  0  0  0  0  0  0  0  0  0  0  0
  152.1260  142.8548  162.3970 H   0  0  0  0  0  0  0  0  0  0  0  0
  153.5229  143.6815  161.6911 H   0  0  0  0  0  0  0  0  0  0  0  0
  153.4545  140.6066  160.0953 H   0  0  0  0  0  0  0  0  0  0  0  0
  151.7622  139.5903  155.5691 H   0  0  0  0  0  0  0  0  0  0  0  0
  149.6027  142.6980  155.9193 H   0  0  0  0  0  0  0  0  0  0  0  0
  150.8390  142.4550  154.7045 H   0  0  0  0  0  0  0  0  0  0  0  0
  148.9964  140.1891  155.5804 H   0  0  0  0  0  0  0  0  0  0  0  0
  149.7323  140.0556  153.0712 H   0  0  0  0  0  0  0  0  0  0  0  0
  148.5476  142.1145  153.2208 H   0  0  0  0  0  0  0  0  0  0  0  0
  147.6602  140.6384  153.5015 H   0  0  0  0  0  0  0  0  0  0  0  0
  146.2036  140.4993  155.6083 H   0  0  0  0  0  0  0  0  0  0  0  0
  147.5761  140.9857  156.5765 H   0  0  0  0  0  0  0  0  0  0  0  0
  145.4350  141.5544  157.7388 H   0  0  0  0  0  0  0  0  0  0  0  0
  146.4086  142.9614  157.4251 H   0  0  0  0  0  0  0  0  0  0  0  0
  143.7540  141.5393  154.8353 H   0  0  0  0  0  0  0  0  0  0  0  0
  143.5428  141.0996  156.5064 H   0  0  0  0  0  0  0  0  0  0  0  0
  142.0671  143.2215  156.7546 H   0  0  0  0  0  0  0  0  0  0  0  0
  140.9973  140.9881  156.4035 H   0  0  0  0  0  0  0  0  0  0  0  0
  141.1354  141.1916  154.6591 H   0  0  0  0  0  0  0  0  0  0  0  0
  140.0988  142.2660  155.5958 H   0  0  0  0  0  0  0  0  0  0  0  0
  142.1801  143.1715  153.9415 H   0  0  0  0  0  0  0  0  0  0  0  0
  144.4027  144.1180  154.5222 H   0  0  0  0  0  0  0  0  0  0  0  0
  145.8112  144.4840  155.4803 H   0  0  0  0  0  0  0  0  0  0  0  0
  146.4917  143.4721  153.3423 H   0  0  0  0  0  0  0  0  0  0  0  0
  145.5187  142.0497  153.6383 H   0  0  0  0  0  0  0  0  0  0  0  0
  150.3569  143.8253  157.8776 H   0  0  0  0  0  0  0  0  0  0  0  0
  150.4169  145.2738  159.7391 H   0  0  0  0  0  0  0  0  0  0  0  0
  151.9684  145.3087  160.5750 H   0  0  0  0  0  0  0  0  0  0  0  0
  150.5892  144.4648  161.2952 H   0  0  0  0  0  0  0  0  0  0  0  0
  144.2982  143.5146  156.8471 H   0  0  0  0  0  0  0  0  0  0  0  0
  147.7691  142.9442  155.2907 H   0  0  0  0  0  0  0  0  0  0  0  0
  1  2  1  0  0  0  0
  1 26  1  0  0  0  0
  1 27  1  0  0  0  0
  1 28  1  0  0  0  0
  2 24  1  0  0  0  0
  2  3  2  0  0  0  0
  3  4  1  0  0  0  0
  3 29  1  0  0  0  0
  4 22  2  0  0  0  0
  4  5  1  0  0  0  0
  5  6  2  0  0  0  0
  6  7  1  0  0  0  0
  6 30  1  0  0  0  0
  7  8  1  0  0  0  0
  7 22  1  0  0  0  0
  8  9  1  0  0  0  0
  8 31  1  0  0  0  0
  8 32  1  0  0  0  0
  9 10  1  0  0  0  0
  9 11  1  0  0  0  0
  9 33  1  0  0  0  0
 10 34  1  0  0  0  0
 11 12  1  0  0  0  0
 11 35  1  0  0  0  0
 11 36  1  0  0  0  0
 12 21  1  0  0  0  0
 12 13  1  0  0  0  0
 12 57  1  0  0  0  0
 13 14  1  0  0  0  0
 13 37  1  0  0  0  0
 13 38  1  0  0  0  0
 14 15  1  0  0  0  0
 14 39  1  0  0  0  0
 14 40  1  0  0  0  0
 15 16  1  0  0  0  0
 15 20  1  0  0  0  0
 15 56  1  0  0  0  0
 16 17  1  0  0  0  0
 16 41  1  0  0  0  0
 16 42  1  0  0  0  0
 17 18  1  0  0  0  0
 17 19  1  0  0  0  0
 17 43  1  0  0  0  0
 18 44  1  0  0  0  0
 18 45  1  0  0  0  0
 18 46  1  0  0  0  0
 19 47  1  0  0  0  0
 20 21  1  0  0  0  0
 20 48  1  0  0  0  0
 20 49  1  0  0  0  0
 21 50  1  0  0  0  0
 21 51  1  0  0  0  0
 22 23  1  0  0  0  0
 23 24  2  0  0  0  0
 23 52  1  0  0  0  0
 24 25  1  0  0  0  0
 25 53  1  0  0  0  0
 25 54  1  0  0  0  0
 25 55  1  0  0  0  0
M  CHG  1  12   1
M  CHG  1  15   1
M  END
> <s_m_source_file>
AV-unprocessed.smi

> <i_m_source_file_index>
1033

> <i_lp_mmshare_version>
43012

> <i_f3d_flags>
0

> <s_epik_input>
W0NIM11jKFtjSF0xKWMoW0NIM10pW2NIXWMoYzEyKW4oW2NIXW4yKVtDSDJdW0NASF0oW09IXSlbQ0gyXU4zW0NIMl1bQ0gyXU4oW0NIMl1bQ0gyXTMpW0NIMl1bQ0BIXShbQ0gzXSlbT0hd

> <s_epik_cmdline>
J2VwaWtfcHl0aG9uJywgJy1waCcsICc3LjAnLCAnLXRuJywgJzgnLCAnLW1hJywgJzIwMCcsICctbWV0YWxfYmluZGluZycsICctaW1hZScsICc8aW5maWxlLm1hZT4nLCAnLW9tYWUnLCAnPG91dGZpbGUubWFlPic=

> <r_epik_Ionization_Penalty>
3.16016

> <r_epik_Ionization_Penalty_Charging>
3.07679

> <r_epik_Ionization_Penalty_Neutral>
0.083365

> <r_epik_State_Penalty>
2.09701

> <r_epik_Charging_Adjusted_Penalty>
5.1738

> <i_epik_Tot_Q>
2

> <i_epik_Tot_abs_Q>
2

> <r_epik_Metal_State_Penalty>
2.02534

> <b_epik_Metal_Only>
0

> <s_lp_Force_Field>
OPLS_2005

> <r_lp_Energy>
28.3009

> <b_lp_Chiralities_Consistent>
1

> <s_lp_Variant>
AV-unprocessed.smi:1033-21

> <Gold.Version>
5.8.1

> <Gold.Id.Protein>
6NUR|6NUR_protein|mol2

> <Gold.PLP.Fitness>
65.6271

> <Gold.PLP.PLP>
-48.9999

> <Gold.PLP.part.hbond>
-4.9992

> <Gold.PLP.part.metal>
0.0000

> <Gold.PLP.part.buried>
-6.3680

> <Gold.PLP.part.nonpolar>
-36.7236

> <Gold.PLP.part.repulsive>
0.1056

> <Gold.PLP.ligand.clash>
0.0000

> <Gold.PLP.ligand.torsion>
0.7415

> <Gold.PLP.Chemscore.Hbond>
5.8945

> <Gold.PLP.Chemscore.CHOScore>
0.0000

> <Gold.PLP.Chemscore.Metal>
0.0000

> <Gold.Chemscore.Hbonds>
donor molecule, donor type, donor heavy atom, donor atom, acceptor molecule, acceptor atom, score
      L1  H    10    34       P1  7957  1.00
      L1  H    12    57       P1  8028  1.66
      L1  H    19    47       P1 10174  1.00
      P1  H  7989  7998       L1    10  0.90
      P1  H  7997  8010       L1     5  1.00

> <Gold.PLP.Chemscore.Internal.Correction>
0.4267

> <Gold.Rescore>
     Score         DG    S(hbond)    S(metal)    S(lipo)     H(rot)  DE(clash)    DE(int)     intcor
     18.95     -22.29       3.17        0.00     121.87       3.14       0.58       2.77       ----

> <Gold.Chemscore.Fitness>
18.9459

> <Gold.Chemscore.DG>
-22.2933

> <Gold.Chemscore.ZeroCoef>
-5.4800

> <Gold.Chemscore.Hbond>
3.1700

> <Gold.Chemscore.Metal>
0.0000

> <Gold.Chemscore.Lipo>
121.8694

> <Gold.Chemscore.Internal_Hbond>
0.0000

> <Gold.Chemscore.DEClash>
0.5794

> <Gold.Chemscore.DEInternal>
2.7680

> <Gold.Chemscore.Rot>
3.1380

> <Gold.Chemscore.Internal.Correction>
   9.000000E+99

> <Gold.Chemscore.Hbonds>
donor molecule, donor type, donor heavy atom, donor atom, acceptor molecule, acceptor atom, score
      L1  H    10    34       P1  7957  0.98
      L1  H    12    57       P1  8028  0.56
      L1  H    19    47       P1 10174  0.97
      P1  H  7989  7998       L1    10  0.19
      P1  H  7997  8010       L1     5  0.23

> <Gold.Chemscore.Hbond.Weighted>
-10.5878

> <Gold.Chemscore.Metal.Weighted>
-0.0000

> <Gold.Chemscore.Lipo.Weighted>
-14.2587

> <Gold.Chemscore.Internal_Hbond.Weighted>
0.0000

> <Gold.Chemscore.DEClash.Weighted>
0.5794

> <Gold.Chemscore.DEInternal.Weighted>
2.7680

> <Gold.Chemscore.Rot.Weighted>
8.0332

> <Gold.Chemscore.Internal.Correction.Weighted>
   9.000000E+99

> <Gold.Protein.RotatedTorsions>
[ 6907 6896 6895 6894 ] final   83.72 input  -60.11 | X-H torsion
[ 7974 7965 7964 7962 ] final  110.19 input  175.53 | X-H torsion
[ 8008 7997 7996 7995 ] final   51.84 input   59.86 | X-H torsion
[ 10167 10162 10161 10158 ] final -173.51 input  -65.29 | X-H torsion
[ 10718 10713 10712 10709 ] final  -45.79 input   66.30 | X-H torsion
[ 10763 10752 10751 10750 ] final   12.58 input  -60.55 | X-H torsion
[ 11005 11000 10999 10996 ] final  158.44 input  -57.11 | X-H torsion

> <Gold.Protein.ActiveResidues>
 VAL166  LYS551  ARG553  GLY616  TRP617  ASP618  TYR619  PRO620  LYS621  CYS622 
 ASP623  PHE694  ASN695  SER759  ASP760  ASP761  ALA762  ILE779  LEU786  VAL792 
 PHE793  MET794  SER795  GLU796  ALA797  LYS798  CYS799  TRP800  GLU811  SER814 

> <Gold.Protein.RotatedAtoms>
  152.5334  134.2851  159.9021 H   0  0  0  0  0  0  0  0  0  0  0  0  # atno 6907 bound_to 6896
  151.2805  133.4205  159.2634 H   0  0  0  0  0  0  0  0  0  0  0  0  # atno 6908 bound_to 6896
  151.0288  134.9539  159.8156 H   0  0  0  0  0  0  0  0  0  0  0  0  # atno 6909 bound_to 6896
  145.2581  139.2713  143.4031 H   0  0  0  0  0  0  0  0  0  0  0  0  # atno 7974 bound_to 7965
  155.4419  140.3455  155.4291 H   0  0  0  0  0  0  0  0  0  0  0  0  # atno 8008 bound_to 7997
  156.1273  140.1504  156.9147 H   0  0  0  0  0  0  0  0  0  0  0  0  # atno 8009 bound_to 7997
  154.4868  140.0853  156.7484 H   0  0  0  0  0  0  0  0  0  0  0  0  # atno 8010 bound_to 7997
  139.5684  144.1699  152.1348 H   0  0  0  0  0  0  0  0  0  0  0  0  # atno 10167 bound_to 10162
  156.2248  130.4168  149.8948 H   0  0  0  0  0  0  0  0  0  0  0  0  # atno 10718 bound_to 10713
  153.1808  135.6827  153.8481 H   0  0  0  0  0  0  0  0  0  0  0  0  # atno 10763 bound_to 10752
  153.7814  135.3182  155.3367 H   0  0  0  0  0  0  0  0  0  0  0  0  # atno 10764 bound_to 10752
  154.8058  135.4749  154.0484 H   0  0  0  0  0  0  0  0  0  0  0  0  # atno 10765 bound_to 10752
  140.1865  134.8438  157.2863 H   0  0  0  0  0  0  0  0  0  0  0  0  # atno 11005 bound_to 11000
  146.3283  140.2990  142.8619 LP  0  0  0  0  0  0  0  0  0  0  0  0  # atno 17320 bound_to 7965
  144.9443  140.8111  143.5611 LP  0  0  0  0  0  0  0  0  0  0  0  0  # atno 17321 bound_to 7965
  140.1227  144.5359  150.6852 LP  0  0  0  0  0  0  0  0  0  0  0  0  # atno 17342 bound_to 10162
  140.6969  143.2409  151.4976 LP  0  0  0  0  0  0  0  0  0  0  0  0  # atno 17343 bound_to 10162
  156.6582  130.8771  151.3543 LP  0  0  0  0  0  0  0  0  0  0  0  0  # atno 17370 bound_to 10713
  157.7105  130.9435  150.1073 LP  0  0  0  0  0  0  0  0  0  0  0  0  # atno 17371 bound_to 10713
  140.2208  134.4026  155.7567 LP  0  0  0  0  0  0  0  0  0  0  0  0  # atno 17394 bound_to 11000
  141.2225  133.7165  156.8487 LP  0  0  0  0  0  0  0  0  0  0  0  0  # atno 17395 bound_to 11000

$$$$
