AV-unprocessed.smi:1916|AV-procd|sdf|7764|dock6
  -GOLD-   22720 9503D 1   1.00000     0.00000
 Structure written by MMmdl.
 45 47  0  0  0  0  0  0  0  0  1 V2000
  148.7799  140.3087  157.3807 O   0  0  0  0  0  0  0  0  0  0  0  0
  149.0270  141.3592  156.7873 C   0  0  0  0  0  0  0  0  0  0  0  0
  148.1036  142.3021  156.5412 N   0  0  0  0  0  0  0  0  0  0  0  0
  146.7173  142.2673  157.0024 C   0  0  0  0  0  0  0  0  0  0  0  0
  146.6101  141.9896  158.5162 C   0  0  0  0  0  0  0  0  0  0  0  0
  146.6465  143.2429  159.3761 C   0  0  0  0  0  0  0  0  0  0  0  0
  145.6098  144.1990  159.3044 C   0  0  0  0  0  0  0  0  0  0  0  0
  145.7132  145.3617  160.0922 C   0  0  0  0  0  0  0  0  0  0  0  0
  146.8415  145.5225  160.9189 C   0  0  0  0  0  0  0  0  0  0  0  0
  147.8172  144.5057  160.9262 C   0  0  0  0  0  0  0  0  0  0  0  0
  147.7269  143.3858  160.1765 N   0  0  0  0  0  0  0  0  0  0  0  0
  150.4607  141.6683  156.3289 C   0  0  2  0  0  0  0  0  0  0  0  0
  151.4099  140.4776  156.5526 C   0  0  0  0  0  0  0  0  0  0  0  0
  152.2950  140.9302  157.7024 C   0  0  0  0  0  0  0  0  0  0  0  0
  153.0814  140.1713  158.2674 O   0  0  0  0  0  0  0  0  0  0  0  0
  152.0831  142.2181  158.0088 N   0  0  0  0  0  0  0  0  0  0  0  0
  152.7132  142.9265  159.1357 C   0  0  0  0  0  0  0  0  0  0  0  0
  152.5772  142.2396  160.5101 C   0  0  0  0  0  0  0  0  0  0  0  0
  152.6327  143.3843  161.5169 C   0  0  0  0  0  0  0  0  0  0  0  0
  151.8513  144.5040  160.8347 C   0  0  0  0  0  0  0  0  0  0  0  0
  152.1456  144.3500  159.3374 C   0  0  0  0  0  0  0  0  0  0  0  0
  151.0782  142.8230  157.1429 C   0  0  0  0  0  0  0  0  0  0  0  0
  148.3959  143.1309  156.0439 H   0  0  0  0  0  0  0  0  0  0  0  0
  146.2606  143.2309  156.7763 H   0  0  0  0  0  0  0  0  0  0  0  0
  146.1448  141.5245  156.4442 H   0  0  0  0  0  0  0  0  0  0  0  0
  145.6872  141.4460  158.7220 H   0  0  0  0  0  0  0  0  0  0  0  0
  147.4217  141.3294  158.8243 H   0  0  0  0  0  0  0  0  0  0  0  0
  144.7629  144.0543  158.6500 H   0  0  0  0  0  0  0  0  0  0  0  0
  144.9448  146.1198  160.0572 H   0  0  0  0  0  0  0  0  0  0  0  0
  146.9564  146.4034  161.5332 H   0  0  0  0  0  0  0  0  0  0  0  0
  148.6943  144.5948  161.5499 H   0  0  0  0  0  0  0  0  0  0  0  0
  150.4455  141.9320  155.2700 H   0  0  0  0  0  0  0  0  0  0  0  0
  150.8989  139.5460  156.8010 H   0  0  0  0  0  0  0  0  0  0  0  0
  152.0272  140.2970  155.6720 H   0  0  0  0  0  0  0  0  0  0  0  0
  153.7796  143.0152  158.9196 H   0  0  0  0  0  0  0  0  0  0  0  0
  151.6090  141.7519  160.6236 H   0  0  0  0  0  0  0  0  0  0  0  0
  153.3499  141.4896  160.6822 H   0  0  0  0  0  0  0  0  0  0  0  0
  152.2161  143.1118  162.4871 H   0  0  0  0  0  0  0  0  0  0  0  0
  153.6676  143.6930  161.6699 H   0  0  0  0  0  0  0  0  0  0  0  0
  150.7844  144.3617  161.0124 H   0  0  0  0  0  0  0  0  0  0  0  0
  152.1195  145.4905  161.2141 H   0  0  0  0  0  0  0  0  0  0  0  0
  152.8764  145.0906  159.0104 H   0  0  0  0  0  0  0  0  0  0  0  0
  151.2361  144.5232  158.7600 H   0  0  0  0  0  0  0  0  0  0  0  0
  151.5593  143.5432  156.4797 H   0  0  0  0  0  0  0  0  0  0  0  0
  150.3300  143.3590  157.7282 H   0  0  0  0  0  0  0  0  0  0  0  0
  1  2  2  0  0  0  0
  2  3  1  0  0  0  0
  2 12  1  0  0  0  0
  3  4  1  0  0  0  0
  3 23  1  0  0  0  0
  4  5  1  0  0  0  0
  4 24  1  0  0  0  0
  4 25  1  0  0  0  0
  5  6  1  0  0  0  0
  5 26  1  0  0  0  0
  5 27  1  0  0  0  0
  6 11  1  0  0  0  0
  6  7  2  0  0  0  0
  7  8  1  0  0  0  0
  7 28  1  0  0  0  0
  8  9  2  0  0  0  0
  8 29  1  0  0  0  0
  9 10  1  0  0  0  0
  9 30  1  0  0  0  0
 10 11  2  0  0  0  0
 10 31  1  0  0  0  0
 12 22  1  0  0  0  0
 12 13  1  0  0  0  0
 12 32  1  0  0  0  0
 13 14  1  0  0  0  0
 13 33  1  0  0  0  0
 13 34  1  0  0  0  0
 14 15  2  0  0  0  0
 14 16  1  0  0  0  0
 16 17  1  0  0  0  0
 16 22  1  0  0  0  0
 17 21  1  0  0  0  0
 17 18  1  0  0  0  0
 17 35  1  0  0  0  0
 18 19  1  0  0  0  0
 18 36  1  0  0  0  0
 18 37  1  0  0  0  0
 19 20  1  0  0  0  0
 19 38  1  0  0  0  0
 19 39  1  0  0  0  0
 20 21  1  0  0  0  0
 20 40  1  0  0  0  0
 20 41  1  0  0  0  0
 21 42  1  0  0  0  0
 21 43  1  0  0  0  0
 22 44  1  0  0  0  0
 22 45  1  0  0  0  0
M  END
> <s_m_source_file>
AV-unprocessed.smi

> <i_m_source_file_index>
1916

> <i_lp_mmshare_version>
43012

> <i_f3d_flags>
0

> <s_epik_input>
W0NIMl0xW0NIMl1bQ0gyXVtDSDJdW0NIXTFOKFtDSDJdMilDKD1PKVtDSDJdW0NASF0yQyg9TylbTkhdW0NIMl1bQ0gyXWMzW2NIXVtjSF1bY0hdW2NIXW4z

> <s_epik_cmdline>
J2VwaWtfcHl0aG9uJywgJy1waCcsICc3LjAnLCAnLXRuJywgJzgnLCAnLW1hJywgJzIwMCcsICctbWV0YWxfYmluZGluZycsICctaW1hZScsICc8aW5maWxlLm1hZT4nLCAnLW9tYWUnLCAnPG91dGZpbGUubWFlPic=

> <r_epik_Ionization_Penalty>
0.0252359

> <r_epik_Ionization_Penalty_Charging>
0

> <r_epik_Ionization_Penalty_Neutral>
0.0252359

> <r_epik_State_Penalty>
0.020532

> <r_epik_Charging_Adjusted_Penalty>
0.020532

> <i_epik_Tot_Q>
0

> <i_epik_Tot_abs_Q>
0

> <r_epik_Metal_State_Penalty>
0.0196901

> <b_epik_Metal_Only>
0

> <s_lp_Force_Field>
OPLS_2005

> <r_lp_Energy>
33.617

> <b_lp_Chiralities_Consistent>
1

> <s_lp_Variant>
AV-unprocessed.smi:1916-1

> <Gold.Version>
5.8.1

> <Gold.Id.Protein>
6NUR|6NUR_protein|mol2

> <Gold.PLP.Fitness>
52.4493

> <Gold.PLP.PLP>
-44.9935

> <Gold.PLP.part.hbond>
-3.0000

> <Gold.PLP.part.metal>
0.0000

> <Gold.PLP.part.buried>
-5.7911

> <Gold.PLP.part.nonpolar>
-35.4854

> <Gold.PLP.part.repulsive>
0.1230

> <Gold.PLP.ligand.clash>
0.0000

> <Gold.PLP.ligand.torsion>
0.4223

> <Gold.PLP.Chemscore.Hbond>
2.7399

> <Gold.PLP.Chemscore.CHOScore>
0.0000

> <Gold.PLP.Chemscore.Metal>
0.0000

> <Gold.Chemscore.Hbonds>
donor molecule, donor type, donor heavy atom, donor atom, acceptor molecule, acceptor atom, score
      L1  H     3    23       P1  8028  1.00
      P1  H  6933  6944       L1    11  0.70
      P1  H  7997  8009       L1    15  0.96

> <Gold.PLP.Chemscore.Internal.Correction>
0.0807

> <Gold.Rescore>
     Score         DG    S(hbond)    S(metal)    S(lipo)     H(rot)  DE(clash)    DE(int)     intcor
     18.49     -19.77       1.80        0.00     105.94       1.61       0.08       1.20       ----

> <Gold.Chemscore.Fitness>
18.4906

> <Gold.Chemscore.DG>
-19.7742

> <Gold.Chemscore.ZeroCoef>
-5.4800

> <Gold.Chemscore.Hbond>
1.8035

> <Gold.Chemscore.Metal>
0.0000

> <Gold.Chemscore.Lipo>
105.9397

> <Gold.Chemscore.Internal_Hbond>
0.0000

> <Gold.Chemscore.DEClash>
0.0804

> <Gold.Chemscore.DEInternal>
1.2031

> <Gold.Chemscore.Rot>
1.6110

> <Gold.Chemscore.Internal.Correction>
   9.000000E+99

> <Gold.Chemscore.Hbonds>
donor molecule, donor type, donor heavy atom, donor atom, acceptor molecule, acceptor atom, score
      L1  H     3    23       P1  8028  0.90
      P1  H  6933  6944       L1    11  0.07
      P1  H  7997  8009       L1    15  0.50

> <Gold.Chemscore.Hbond.Weighted>
-6.0235

> <Gold.Chemscore.Metal.Weighted>
-0.0000

> <Gold.Chemscore.Lipo.Weighted>
-12.3949

> <Gold.Chemscore.Internal_Hbond.Weighted>
0.0000

> <Gold.Chemscore.DEClash.Weighted>
0.0804

> <Gold.Chemscore.DEInternal.Weighted>
1.2031

> <Gold.Chemscore.Rot.Weighted>
4.1243

> <Gold.Chemscore.Internal.Correction.Weighted>
   9.000000E+99

> <Gold.Protein.RotatedTorsions>
[ 6907 6896 6895 6894 ] final -115.05 input  -60.11 | X-H torsion
[ 7974 7965 7964 7962 ] final  158.51 input  175.53 | X-H torsion
[ 8008 7997 7996 7995 ] final  149.52 input   59.86 | X-H torsion
[ 10167 10162 10161 10158 ] final   47.64 input  -65.29 | X-H torsion
[ 10718 10713 10712 10709 ] final    5.88 input   66.30 | X-H torsion
[ 10763 10752 10751 10750 ] final   43.84 input  -60.55 | X-H torsion
[ 11005 11000 10999 10996 ] final  174.59 input  -57.11 | X-H torsion

> <Gold.Protein.ActiveResidues>
 VAL166  LYS551  ARG553  GLY616  TRP617  ASP618  TYR619  PRO620  LYS621  CYS622 
 ASP623  PHE694  ASN695  SER759  ASP760  ASP761  ALA762  ILE779  LEU786  VAL792 
 PHE793  MET794  SER795  GLU796  ALA797  LYS798  CYS799  TRP800  GLU811  SER814 

> <Gold.Protein.RotatedAtoms>
  150.7949  133.8713  159.3259 H   0  0  0  0  0  0  0  0  0  0  0  0  # atno 6907 bound_to 6896
  151.6541  135.0996  160.0176 H   0  0  0  0  0  0  0  0  0  0  0  0  # atno 6908 bound_to 6896
  152.4029  133.6805  159.6366 H   0  0  0  0  0  0  0  0  0  0  0  0  # atno 6909 bound_to 6896
  144.7842  139.7488  143.6247 H   0  0  0  0  0  0  0  0  0  0  0  0  # atno 7974 bound_to 7965
  156.2752  140.2099  156.5870 H   0  0  0  0  0  0  0  0  0  0  0  0  # atno 8008 bound_to 7997
  154.7012  140.0520  157.0483 H   0  0  0  0  0  0  0  0  0  0  0  0  # atno 8009 bound_to 7997
  155.0732  140.3179  155.4627 H   0  0  0  0  0  0  0  0  0  0  0  0  # atno 8010 bound_to 7997
  140.3016  144.2928  150.6218 H   0  0  0  0  0  0  0  0  0  0  0  0  # atno 10167 bound_to 10162
  156.9140  130.5766  149.5647 H   0  0  0  0  0  0  0  0  0  0  0  0  # atno 10718 bound_to 10713
  152.9852  135.6089  154.3177 H   0  0  0  0  0  0  0  0  0  0  0  0  # atno 10763 bound_to 10752
  154.2888  135.2775  155.2666 H   0  0  0  0  0  0  0  0  0  0  0  0  # atno 10764 bound_to 10752
  154.4971  135.5877  153.6559 H   0  0  0  0  0  0  0  0  0  0  0  0  # atno 10765 bound_to 10752
  140.3530  134.7178  157.4281 H   0  0  0  0  0  0  0  0  0  0  0  0  # atno 11005 bound_to 11000
  146.2065  139.5393  142.9709 LP  0  0  0  0  0  0  0  0  0  0  0  0  # atno 17320 bound_to 7965
  145.5968  141.0361  143.2040 LP  0  0  0  0  0  0  0  0  0  0  0  0  # atno 17321 bound_to 7965
  140.5646  143.2188  151.7705 LP  0  0  0  0  0  0  0  0  0  0  0  0  # atno 17342 bound_to 10162
  139.4914  144.4301  151.9882 LP  0  0  0  0  0  0  0  0  0  0  0  0  # atno 17343 bound_to 10162
  156.0522  130.5590  150.9015 LP  0  0  0  0  0  0  0  0  0  0  0  0  # atno 17370 bound_to 10713
  157.5950  131.0943  150.9056 LP  0  0  0  0  0  0  0  0  0  0  0  0  # atno 17371 bound_to 10713
  140.0687  134.5892  155.8666 LP  0  0  0  0  0  0  0  0  0  0  0  0  # atno 17394 bound_to 11000
  141.2006  133.6614  156.5908 LP  0  0  0  0  0  0  0  0  0  0  0  0  # atno 17395 bound_to 11000

$$$$
