AV-unprocessed.smi:66|AV-procd|sdf|626|dock6
  -GOLD-   2262016523D 1   1.00000     0.00000
 Structure written by MMmdl.
 27 29  0  0  0  0  0  0  0  0  3 V2000
  151.5784  137.9492  155.9653 O   0  0  0  0  0  0  0  0  0  0  0  0
  152.2372  138.8106  156.5879 C   0  0  0  0  0  0  0  0  0  0  0  0
  153.1768  138.5705  157.3789 O   0  5  0  0  0  0  0  0  0  0  0  0
  151.8383  140.2774  156.3683 C   0  0  1  0  0  0  0  0  0  0  0  0
  150.7388  140.4244  155.3063 C   0  0  0  0  0  0  0  0  0  0  0  0
  150.0583  141.7268  155.7163 C   0  0  1  0  0  0  0  0  0  0  0  0
  148.7451  141.8404  155.2088 O   0  0  0  0  0  0  0  0  0  0  0  0
  150.1017  141.6811  157.2453 C   0  0  0  0  0  0  0  0  0  0  0  0
  151.2910  140.9040  157.5748 N   0  0  0  0  0  0  0  0  0  0  0  0
  152.1196  141.3136  158.6439 C   0  0  0  0  0  0  0  0  0  0  0  0
  153.1069  140.4748  159.0512 N   0  0  0  0  0  0  0  0  0  0  0  0
  153.8903  140.8712  160.0601 C   0  0  0  0  0  0  0  0  0  0  0  0
  153.8181  142.0251  160.7299 N   0  0  0  0  0  0  0  0  0  0  0  0
  152.8397  142.8682  160.3415 C   0  0  0  0  0  0  0  0  0  0  0  0
  152.4751  144.0644  160.7744 N   0  5  0  0  0  0  0  0  0  0  0  0
  151.4120  144.4576  160.0274 C   0  0  0  0  0  0  0  0  0  0  0  0
  151.0462  143.5553  159.0943 N   0  0  0  0  0  0  0  0  0  0  0  0
  151.9614  142.5617  159.3024 C   0  0  0  0  0  0  0  0  0  0  0  0
  152.7115  140.8452  156.0433 H   0  0  0  0  0  0  0  0  0  0  0  0
  151.1356  140.4590  154.2914 H   0  0  0  0  0  0  0  0  0  0  0  0
  150.0265  139.5986  155.3617 H   0  0  0  0  0  0  0  0  0  0  0  0
  150.6536  142.5694  155.3617 H   0  0  0  0  0  0  0  0  0  0  0  0
  148.5389  142.7579  155.1199 H   0  0  0  0  0  0  0  0  0  0  0  0
  150.1207  142.6898  157.6600 H   0  0  0  0  0  0  0  0  0  0  0  0
  149.2329  141.1610  157.6512 H   0  0  0  0  0  0  0  0  0  0  0  0
  154.6695  140.1870  160.3617 H   0  0  0  0  0  0  0  0  0  0  0  0
  150.9477  145.4177  160.2158 H   0  0  0  0  0  0  0  0  0  0  0  0
  1  2  2  0  0  0  0
  2  3  1  0  0  0  0
  2  4  1  0  0  0  0
  4  5  1  0  0  0  0
  4 19  1  0  0  0  0
  4  9  1  0  0  0  0
  5  6  1  0  0  0  0
  5 20  1  0  0  0  0
  5 21  1  0  0  0  0
  6  7  1  0  0  0  0
  6  8  1  0  0  0  0
  6 22  1  0  0  0  0
  7 23  1  0  0  0  0
  8 24  1  0  0  0  0
  8 25  1  0  0  0  0
  8  9  1  0  0  0  0
  9 10  1  0  0  0  0
 10 11  1  0  0  0  0
 10 18  2  0  0  0  0
 11 12  2  0  0  0  0
 12 26  1  0  0  0  0
 12 13  1  0  0  0  0
 13 14  2  0  0  0  0
 14 15  1  0  0  0  0
 14 18  1  0  0  0  0
 15 16  1  0  0  0  0
 16 17  2  0  0  0  0
 16 27  1  0  0  0  0
 17 18  1  0  0  0  0
M  CHG  1   3  -1
M  CHG  1  15  -1
M  END
> <s_m_source_file>
AV-unprocessed.smi

> <i_m_source_file_index>
66

> <i_lp_mmshare_version>
43012

> <i_f3d_flags>
0

> <s_epik_input>
Tz1DKFtPSF0pW0NAQEhdMVtDSDJdW0NAQEhdKFtPSF0pW0NIMl1OMWMobltjSF1uMiljKGMyMylbbkhdW2NIXW4z

> <s_epik_cmdline>
J2VwaWtfcHl0aG9uJywgJy1waCcsICc3LjAnLCAnLXRuJywgJzgnLCAnLW1hJywgJzIwMCcsICctbWV0YWxfYmluZGluZycsICctaW1hZScsICc8aW5maWxlLm1hZT4nLCAnLW9tYWUnLCAnPG91dGZpbGUubWFlPic=

> <r_lp_tautomer_probability>
0.955585

> <r_epik_Ionization_Penalty>
7.65809

> <r_epik_Ionization_Penalty_Charging>
3.4974

> <r_epik_Ionization_Penalty_Neutral>
4.16069

> <r_epik_State_Penalty>
3.51624

> <r_epik_Charging_Adjusted_Penalty>
7.01364

> <i_epik_Tot_Q>
-2

> <i_epik_Tot_abs_Q>
2

> <r_epik_Metal_State_Penalty>
0.522662

> <b_epik_Metal_Only>
1

> <s_lp_Force_Field>
OPLS_2005

> <r_lp_Energy>
45.116

> <b_lp_Chiralities_Consistent>
1

> <s_lp_Variant>
AV-unprocessed.smi:66-10

> <Gold.Version>
5.8.1

> <Gold.Id.Protein>
6NUR|6NUR_protein|mol2

> <Gold.PLP.Fitness>
39.0928

> <Gold.PLP.PLP>
-30.6850

> <Gold.PLP.part.hbond>
-2.0583

> <Gold.PLP.part.metal>
0.0000

> <Gold.PLP.part.buried>
-2.3744

> <Gold.PLP.part.nonpolar>
-25.4941

> <Gold.PLP.part.repulsive>
0.1587

> <Gold.PLP.ligand.clash>
0.0000

> <Gold.PLP.ligand.torsion>
0.4306

> <Gold.PLP.Chemscore.Hbond>
3.0000

> <Gold.PLP.Chemscore.CHOScore>
0.0000

> <Gold.PLP.Chemscore.Metal>
0.0000

> <Gold.Chemscore.Hbonds>
donor molecule, donor type, donor heavy atom, donor atom, acceptor molecule, acceptor atom, score
      L1  H     7    23       P1  8028  0.96
      P1  H  7997  8009       L1     3  1.80

> <Gold.PLP.Chemscore.Internal.Correction>
0.2689

> <Gold.Rescore>
     Score         DG    S(hbond)    S(metal)    S(lipo)     H(rot)  DE(clash)    DE(int)     intcor
      6.02     -10.10       1.48        0.00      36.01       1.78       0.38       3.70       ----

> <Gold.Chemscore.Fitness>
6.0242

> <Gold.Chemscore.DG>
-10.1000

> <Gold.Chemscore.ZeroCoef>
-5.4800

> <Gold.Chemscore.Hbond>
1.4825

> <Gold.Chemscore.Metal>
0.0000

> <Gold.Chemscore.Lipo>
36.0126

> <Gold.Chemscore.Internal_Hbond>
0.0000

> <Gold.Chemscore.DEClash>
0.3757

> <Gold.Chemscore.DEInternal>
3.7002

> <Gold.Chemscore.Rot>
1.7754

> <Gold.Chemscore.Internal.Correction>
   9.000000E+99

> <Gold.Chemscore.Hbonds>
donor molecule, donor type, donor heavy atom, donor atom, acceptor molecule, acceptor atom, score
      L1  H     7    23       P1  8028  0.87
      P1  H  7997  8009       L1     3  0.17

> <Gold.Chemscore.Hbond.Weighted>
-4.9516

> <Gold.Chemscore.Metal.Weighted>
-0.0000

> <Gold.Chemscore.Lipo.Weighted>
-4.2135

> <Gold.Chemscore.Internal_Hbond.Weighted>
0.0000

> <Gold.Chemscore.DEClash.Weighted>
0.3757

> <Gold.Chemscore.DEInternal.Weighted>
3.7002

> <Gold.Chemscore.Rot.Weighted>
4.5451

> <Gold.Chemscore.Internal.Correction.Weighted>
   9.000000E+99

> <Gold.Protein.RotatedTorsions>
[ 6907 6896 6895 6894 ] final  -31.14 input  -60.11 | X-H torsion
[ 7974 7965 7964 7962 ] final -169.39 input  175.53 | X-H torsion
[ 8008 7997 7996 7995 ] final  171.89 input   59.86 | X-H torsion
[ 10167 10162 10161 10158 ] final  -66.19 input  -65.29 | X-H torsion
[ 10718 10713 10712 10709 ] final   74.91 input   66.30 | X-H torsion
[ 10763 10752 10751 10750 ] final  -77.12 input  -60.55 | X-H torsion
[ 11005 11000 10999 10996 ] final  -95.02 input  -57.11 | X-H torsion

> <Gold.Protein.ActiveResidues>
 VAL166  LYS551  ARG553  GLY616  TRP617  ASP618  TYR619  PRO620  LYS621  CYS622 
 ASP623  PHE694  ASN695  SER759  ASP760  ASP761  ALA762  ILE779  LEU786  VAL792 
 PHE793  MET794  SER795  GLU796  ALA797  LYS798  CYS799  TRP800  GLU811  SER814 

> <Gold.Protein.RotatedAtoms>
  151.0961  134.9945  159.8425 H   0  0  0  0  0  0  0  0  0  0  0  0  # atno 6907 bound_to 6896
  152.5433  134.2007  159.8721 H   0  0  0  0  0  0  0  0  0  0  0  0  # atno 6908 bound_to 6896
  151.2046  133.4547  159.2630 H   0  0  0  0  0  0  0  0  0  0  0  0  # atno 6909 bound_to 6896
  144.7186  140.2228  143.6314 H   0  0  0  0  0  0  0  0  0  0  0  0  # atno 7974 bound_to 7965
  156.1227  140.1500  156.9180 H   0  0  0  0  0  0  0  0  0  0  0  0  # atno 8008 bound_to 7997
  154.4848  140.0868  156.7503 H   0  0  0  0  0  0  0  0  0  0  0  0  # atno 8009 bound_to 7997
  155.4398  140.3430  155.4291 H   0  0  0  0  0  0  0  0  0  0  0  0  # atno 8010 bound_to 7997
  140.5675  143.2315  151.6605 H   0  0  0  0  0  0  0  0  0  0  0  0  # atno 10167 bound_to 10162
  157.6612  130.9701  150.1278 H   0  0  0  0  0  0  0  0  0  0  0  0  # atno 10718 bound_to 10713
  154.5088  135.5774  153.6589 H   0  0  0  0  0  0  0  0  0  0  0  0  # atno 10763 bound_to 10752
  152.9893  135.6154  154.2906 H   0  0  0  0  0  0  0  0  0  0  0  0  # atno 10764 bound_to 10752
  154.2819  135.2850  155.2673 H   0  0  0  0  0  0  0  0  0  0  0  0  # atno 10765 bound_to 10752
  141.1454  133.7996  157.0377 H   0  0  0  0  0  0  0  0  0  0  0  0  # atno 11005 bound_to 11000
  145.8485  139.2164  143.1786 LP  0  0  0  0  0  0  0  0  0  0  0  0  # atno 17320 bound_to 7965
  146.0282  140.8283  142.9889 LP  0  0  0  0  0  0  0  0  0  0  0  0  # atno 17321 bound_to 7965
  139.5100  144.3556  152.0611 LP  0  0  0  0  0  0  0  0  0  0  0  0  # atno 17342 bound_to 10162
  140.2690  144.3985  150.6158 LP  0  0  0  0  0  0  0  0  0  0  0  0  # atno 17343 bound_to 10162
  156.2132  130.3668  149.8644 LP  0  0  0  0  0  0  0  0  0  0  0  0  # atno 17370 bound_to 10713
  156.6517  130.8746  151.3532 LP  0  0  0  0  0  0  0  0  0  0  0  0  # atno 17371 bound_to 10713
  140.0713  134.9701  157.1471 LP  0  0  0  0  0  0  0  0  0  0  0  0  # atno 17394 bound_to 11000
  140.3707  134.2393  155.7178 LP  0  0  0  0  0  0  0  0  0  0  0  0  # atno 17395 bound_to 11000

$$$$
