AV-unprocessed.smi:2244|AV-procd|sdf|9072|dock4
  -GOLD-   2272012273D 1   1.00000     0.00000
 Structure written by MMmdl.
 49 51  0  0  0  0  0  0  0  0  1 V2000
  152.5302  129.7767  155.5384 C   0  0  0  0  0  0  0  0  0  0  0  0
  151.0320  130.0230  155.8261 C   0  0  0  0  0  0  0  0  0  0  0  0
  150.2300  128.9478  155.0641 C   0  0  0  0  0  0  0  0  0  0  0  0
  150.8196  129.8575  157.3455 C   0  0  0  0  0  0  0  0  0  0  0  0
  150.5719  131.4243  155.3857 C   0  0  0  0  0  0  0  0  0  0  0  0
  149.7062  131.6461  154.2911 C   0  0  0  0  0  0  0  0  0  0  0  0
  149.3620  132.9739  153.9876 C   0  0  0  0  0  0  0  0  0  0  0  0
  149.8918  134.0085  154.7851 C   0  0  0  0  0  0  0  0  0  0  0  0
  149.4996  135.3228  154.3969 N   0  0  0  0  0  0  0  0  0  0  0  0
  149.6262  136.5138  155.0201 C   0  0  0  0  0  0  0  0  0  0  0  0
  150.1661  136.5968  156.1222 O   0  0  0  0  0  0  0  0  0  0  0  0
  149.1405  137.5826  154.3675 N   0  0  0  0  0  0  0  0  0  0  0  0
  149.1595  138.9569  154.8577 C   0  0  2  0  0  0  0  0  0  0  0  0
  148.0741  139.7754  154.1456 C   0  0  0  0  0  0  0  0  0  0  0  0
  148.1481  141.2530  154.5596 C   0  0  0  0  0  0  0  0  0  0  0  0
  149.4470  141.7800  154.2969 O   0  0  0  0  0  0  0  0  0  0  0  0
  150.5207  141.1140  154.9636 C   0  0  1  0  0  0  0  0  0  0  0  0
  150.5098  141.3813  156.4629 C   0  0  0  0  0  0  0  0  0  0  0  0
  151.1990  142.5990  157.0310 C   0  0  0  0  0  0  0  0  0  0  0  0
  151.7664  141.2225  157.2862 C   0  0  0  0  0  0  0  0  0  0  0  0
  150.5299  139.6135  154.6107 C   0  0  0  0  0  0  0  0  0  0  0  0
  150.7184  133.7194  155.8225 N   0  0  0  0  0  0  0  0  0  0  0  0
  151.0499  132.4596  156.1182 N   0  0  0  0  0  0  0  0  0  0  0  0
  152.8365  128.7814  155.8628 H   0  0  0  0  0  0  0  0  0  0  0  0
  153.1646  130.4916  156.0639 H   0  0  0  0  0  0  0  0  0  0  0  0
  152.7533  129.8462  154.4731 H   0  0  0  0  0  0  0  0  0  0  0  0
  150.3635  129.0461  153.9862 H   0  0  0  0  0  0  0  0  0  0  0  0
  149.1614  129.0159  155.2700 H   0  0  0  0  0  0  0  0  0  0  0  0
  150.5473  127.9427  155.3441 H   0  0  0  0  0  0  0  0  0  0  0  0
  151.1545  128.8782  157.6893 H   0  0  0  0  0  0  0  0  0  0  0  0
  149.7686  129.9510  157.6211 H   0  0  0  0  0  0  0  0  0  0  0  0
  151.3751  130.6101  157.9066 H   0  0  0  0  0  0  0  0  0  0  0  0
  149.3072  130.8449  153.6884 H   0  0  0  0  0  0  0  0  0  0  0  0
  148.7048  133.1895  153.1576 H   0  0  0  0  0  0  0  0  0  0  0  0
  149.0852  135.3775  153.4780 H   0  0  0  0  0  0  0  0  0  0  0  0
  148.7136  137.4277  153.4648 H   0  0  0  0  0  0  0  0  0  0  0  0
  148.9435  138.9510  155.9273 H   0  0  0  0  0  0  0  0  0  0  0  0
  148.2008  139.6996  153.0645 H   0  0  0  0  0  0  0  0  0  0  0  0
  147.0860  139.3740  154.3730 H   0  0  0  0  0  0  0  0  0  0  0  0
  147.4194  141.8331  153.9930 H   0  0  0  0  0  0  0  0  0  0  0  0
  147.8879  141.3753  155.6111 H   0  0  0  0  0  0  0  0  0  0  0  0
  151.4378  141.5516  154.5670 H   0  0  0  0  0  0  0  0  0  0  0  0
  149.5887  141.0926  156.9638 H   0  0  0  0  0  0  0  0  0  0  0  0
  151.7374  143.2447  156.3401 H   0  0  0  0  0  0  0  0  0  0  0  0
  150.7139  143.1067  157.8621 H   0  0  0  0  0  0  0  0  0  0  0  0
  151.6602  140.8115  158.2881 H   0  0  0  0  0  0  0  0  0  0  0  0
  152.6835  140.9523  156.7667 H   0  0  0  0  0  0  0  0  0  0  0  0
  151.3108  139.1019  155.1748 H   0  0  0  0  0  0  0  0  0  0  0  0
  150.7937  139.5050  153.5575 H   0  0  0  0  0  0  0  0  0  0  0  0
  1  2  1  0  0  0  0
  1 24  1  0  0  0  0
  1 25  1  0  0  0  0
  1 26  1  0  0  0  0
  2  3  1  0  0  0  0
  2  4  1  0  0  0  0
  2  5  1  0  0  0  0
  3 27  1  0  0  0  0
  3 28  1  0  0  0  0
  3 29  1  0  0  0  0
  4 30  1  0  0  0  0
  4 31  1  0  0  0  0
  4 32  1  0  0  0  0
  5 23  1  0  0  0  0
  5  6  2  0  0  0  0
  6  7  1  0  0  0  0
  6 33  1  0  0  0  0
  7  8  2  0  0  0  0
  7 34  1  0  0  0  0
  8  9  1  0  0  0  0
  8 22  1  0  0  0  0
  9 10  1  0  0  0  0
  9 35  1  0  0  0  0
 10 11  2  0  0  0  0
 10 12  1  0  0  0  0
 12 13  1  0  0  0  0
 12 36  1  0  0  0  0
 13 21  1  0  0  0  0
 13 14  1  0  0  0  0
 13 37  1  0  0  0  0
 14 15  1  0  0  0  0
 14 38  1  0  0  0  0
 14 39  1  0  0  0  0
 15 16  1  0  0  0  0
 15 40  1  0  0  0  0
 15 41  1  0  0  0  0
 16 17  1  0  0  0  0
 17 18  1  0  0  0  0
 17 21  1  0  0  0  0
 17 42  1  0  0  0  0
 18 20  1  0  0  0  0
 18 19  1  0  0  0  0
 18 43  1  0  0  0  0
 19 20  1  0  0  0  0
 19 44  1  0  0  0  0
 19 45  1  0  0  0  0
 20 46  1  0  0  0  0
 20 47  1  0  0  0  0
 21 48  1  0  0  0  0
 21 49  1  0  0  0  0
 22 23  2  0  0  0  0
M  END
> <s_m_source_file>
AV-unprocessed.smi

> <i_m_source_file_index>
2244

> <i_lp_mmshare_version>
43012

> <i_f3d_flags>
0

> <s_epik_input>
W0NIM11DKFtDSDNdKShbQ0gzXSljMVtjSF1bY0hdYyhubjEpW05IXUMoPU8pW05IXVtDQEBIXTJbQ0gyXVtDSDJdT1tDQEhdKFtDSDJdMilbQ0hdM1tDSDJdW0NIMl0z

> <s_epik_cmdline>
J2VwaWtfcHl0aG9uJywgJy1waCcsICc3LjAnLCAnLXRuJywgJzgnLCAnLW1hJywgJzIwMCcsICctbWV0YWxfYmluZGluZycsICctaW1hZScsICc8aW5maWxlLm1hZT4nLCAnLW9tYWUnLCAnPG91dGZpbGUubWFlPic=

> <r_lp_tautomer_probability>
1

> <r_epik_Ionization_Penalty>
0.011369

> <r_epik_Ionization_Penalty_Charging>
0

> <r_epik_Ionization_Penalty_Neutral>
0.011369

> <r_epik_State_Penalty>
0.00456331

> <r_epik_Charging_Adjusted_Penalty>
0.00456331

> <i_epik_Tot_Q>
0

> <i_epik_Tot_abs_Q>
0

> <r_epik_Metal_State_Penalty>
-0

> <b_epik_Metal_Only>
0

> <s_lp_Force_Field>
OPLS_2005

> <r_lp_Energy>
29.5867

> <b_lp_Chiralities_Consistent>
1

> <s_lp_Variant>
AV-unprocessed.smi:2244-1

> <Gold.Version>
5.8.1

> <Gold.Id.Protein>
6NUR|6NUR_protein|mol2

> <Gold.PLP.Fitness>
39.6676

> <Gold.PLP.PLP>
-34.5041

> <Gold.PLP.part.hbond>
-4.0000

> <Gold.PLP.part.metal>
0.0000

> <Gold.PLP.part.buried>
0.3115

> <Gold.PLP.part.nonpolar>
-28.1970

> <Gold.PLP.part.repulsive>
0.2611

> <Gold.PLP.ligand.clash>
0.0000

> <Gold.PLP.ligand.torsion>
1.1607

> <Gold.PLP.Chemscore.Hbond>
2.1300

> <Gold.PLP.Chemscore.CHOScore>
0.0000

> <Gold.PLP.Chemscore.Metal>
0.0000

> <Gold.Chemscore.Hbonds>
donor molecule, donor type, donor heavy atom, donor atom, acceptor molecule, acceptor atom, score
      L1  H     9    35       P1  7948  0.98
      L1  H    12    36       P1  7948  0.77
      P1  H  8011  8017       L1    16  0.40

> <Gold.PLP.Chemscore.Internal.Correction>
1.0949

> <Gold.Rescore>
     Score         DG    S(hbond)    S(metal)    S(lipo)     H(rot)  DE(clash)    DE(int)     intcor
     13.71     -17.91       1.81        0.00      83.14       1.30       1.82       2.38       ----

> <Gold.Chemscore.Fitness>
13.7111

> <Gold.Chemscore.DG>
-17.9122

> <Gold.Chemscore.ZeroCoef>
-5.4800

> <Gold.Chemscore.Hbond>
1.8064

> <Gold.Chemscore.Metal>
0.0000

> <Gold.Chemscore.Lipo>
83.1391

> <Gold.Chemscore.Internal_Hbond>
0.0000

> <Gold.Chemscore.DEClash>
1.8231

> <Gold.Chemscore.DEInternal>
2.3781

> <Gold.Chemscore.Rot>
1.3002

> <Gold.Chemscore.Internal.Correction>
   9.000000E+99

> <Gold.Chemscore.Hbonds>
donor molecule, donor type, donor heavy atom, donor atom, acceptor molecule, acceptor atom, score
      L1  H     9    35       P1  7948  0.47
      L1  H    12    36       P1  7948  0.73
      P1  H  8011  8017       L1    16  0.34

> <Gold.Chemscore.Hbond.Weighted>
-6.0333

> <Gold.Chemscore.Metal.Weighted>
-0.0000

> <Gold.Chemscore.Lipo.Weighted>
-9.7273

> <Gold.Chemscore.Internal_Hbond.Weighted>
0.0000

> <Gold.Chemscore.DEClash.Weighted>
1.8231

> <Gold.Chemscore.DEInternal.Weighted>
2.3781

> <Gold.Chemscore.Rot.Weighted>
3.3284

> <Gold.Chemscore.Internal.Correction.Weighted>
   9.000000E+99

> <Gold.Protein.RotatedTorsions>
[ 6907 6896 6895 6894 ] final -136.14 input  -60.11 | X-H torsion
[ 7974 7965 7964 7962 ] final  -27.90 input  175.53 | X-H torsion
[ 8008 7997 7996 7995 ] final  150.12 input   59.86 | X-H torsion
[ 10167 10162 10161 10158 ] final  -52.63 input  -65.29 | X-H torsion
[ 10718 10713 10712 10709 ] final  -82.53 input   66.30 | X-H torsion
[ 10763 10752 10751 10750 ] final -176.83 input  -60.55 | X-H torsion
[ 11005 11000 10999 10996 ] final  178.32 input  -57.11 | X-H torsion

> <Gold.Protein.ActiveResidues>
 VAL166  LYS551  ARG553  GLY616  TRP617  ASP618  TYR619  PRO620  LYS621  CYS622 
 ASP623  PHE694  ASN695  SER759  ASP760  ASP761  ALA762  ILE779  LEU786  VAL792 
 PHE793  MET794  SER795  GLU796  ALA797  LYS798  CYS799  TRP800  GLU811  SER814 

> <Gold.Protein.RotatedAtoms>
  151.0064  133.6006  159.2688 H   0  0  0  0  0  0  0  0  0  0  0  0  # atno 6907 bound_to 6896
  151.3174  135.0809  159.9303 H   0  0  0  0  0  0  0  0  0  0  0  0  # atno 6908 bound_to 6896
  152.5288  133.9718  159.7820 H   0  0  0  0  0  0  0  0  0  0  0  0  # atno 6909 bound_to 6896
  146.1326  140.5212  142.8687 H   0  0  0  0  0  0  0  0  0  0  0  0  # atno 7974 bound_to 7965
  156.2728  140.2083  156.5966 H   0  0  0  0  0  0  0  0  0  0  0  0  # atno 8008 bound_to 7997
  154.6940  140.0527  157.0415 H   0  0  0  0  0  0  0  0  0  0  0  0  # atno 8009 bound_to 7997
  155.0827  140.3188  155.4599 H   0  0  0  0  0  0  0  0  0  0  0  0  # atno 8010 bound_to 7997
  140.6527  143.2577  151.4675 H   0  0  0  0  0  0  0  0  0  0  0  0  # atno 10167 bound_to 10162
  156.0031  130.4637  150.4119 H   0  0  0  0  0  0  0  0  0  0  0  0  # atno 10718 bound_to 10713
  154.5675  135.2825  155.0859 H   0  0  0  0  0  0  0  0  0  0  0  0  # atno 10763 bound_to 10752
  154.2245  135.6385  153.5159 H   0  0  0  0  0  0  0  0  0  0  0  0  # atno 10764 bound_to 10752
  153.0047  135.5522  154.6288 H   0  0  0  0  0  0  0  0  0  0  0  0  # atno 10765 bound_to 10752
  140.3938  134.6838  157.4523 H   0  0  0  0  0  0  0  0  0  0  0  0  # atno 11005 bound_to 11000
  144.7706  140.5629  143.6673 LP  0  0  0  0  0  0  0  0  0  0  0  0  # atno 17320 bound_to 7965
  145.5227  139.1476  143.3543 LP  0  0  0  0  0  0  0  0  0  0  0  0  # atno 17321 bound_to 7965
  139.5745  144.1851  152.1883 LP  0  0  0  0  0  0  0  0  0  0  0  0  # atno 17342 bound_to 10162
  140.1157  144.5417  150.6895 LP  0  0  0  0  0  0  0  0  0  0  0  0  # atno 17343 bound_to 10162
  157.2181  131.0476  151.2562 LP  0  0  0  0  0  0  0  0  0  0  0  0  # atno 17370 bound_to 10713
  157.3826  130.7239  149.6640 LP  0  0  0  0  0  0  0  0  0  0  0  0  # atno 17371 bound_to 10713
  140.0387  134.6299  155.9009 LP  0  0  0  0  0  0  0  0  0  0  0  0  # atno 17394 bound_to 11000
  141.1881  133.6561  156.5311 LP  0  0  0  0  0  0  0  0  0  0  0  0  # atno 17395 bound_to 11000

$$$$
