AV-unprocessed.smi:649|AV-procd|sdf|3181|dock9
  -GOLD-   22720 0103D 1   1.00000     0.00000
 Structure written by MMmdl.
 34 35  0  0  0  0  0  0  0  0  2 V2000
  141.3378  137.0242  153.7603 C   0  0  0  0  0  0  0  0  0  0  0  0
  142.5816  136.4351  153.1284 C   0  0  0  0  0  0  0  0  0  0  0  0
  142.5594  135.1373  152.5868 C   0  0  0  0  0  0  0  0  0  0  0  0
  143.7162  134.6081  151.9874 C   0  0  0  0  0  0  0  0  0  0  0  0
  144.9061  135.3646  151.9158 C   0  0  0  0  0  0  0  0  0  0  0  0
  146.1100  134.7301  151.2381 C   0  0  0  0  0  0  0  0  0  0  0  0
  144.9364  136.6774  152.4663 C   0  0  0  0  0  0  0  0  0  0  0  0
  146.1636  137.5948  152.4101 C   0  0  1  0  0  0  0  0  0  0  0  0
  146.5857  137.8976  151.0963 O   0  0  0  0  0  0  0  0  0  0  0  0
  146.0113  138.9042  153.2221 C   0  0  0  0  0  0  0  0  0  0  0  0
  147.2919  139.3932  153.7574 N   0  0  0  0  0  0  0  0  0  0  0  0
  148.3206  138.4564  153.9592 C   0  0  0  0  0  0  0  0  0  0  0  0
  149.5388  138.8175  154.4056 C   0  0  0  0  0  0  0  0  0  0  0  0
  150.7888  137.6458  154.6270 Cl  0  0  0  0  0  0  0  0  0  0  0  0
  149.7739  140.2317  154.6891 C   0  0  0  0  0  0  0  0  0  0  0  0
  150.8750  140.5960  155.0994 O   0  0  0  0  0  0  0  0  0  0  0  0
  148.7410  141.1004  154.4817 N   0  5  0  0  0  0  0  0  0  0  0  0
  147.5115  140.7153  154.0199 C   0  0  0  0  0  0  0  0  0  0  0  0
  146.5994  141.5191  153.8259 O   0  0  0  0  0  0  0  0  0  0  0  0
  143.7661  137.1930  153.0688 C   0  0  0  0  0  0  0  0  0  0  0  0
  140.6291  136.2435  154.0377 H   0  0  0  0  0  0  0  0  0  0  0  0
  140.8474  137.7014  153.0606 H   0  0  0  0  0  0  0  0  0  0  0  0
  141.5929  137.5852  154.6598 H   0  0  0  0  0  0  0  0  0  0  0  0
  141.6566  134.5456  152.6239 H   0  0  0  0  0  0  0  0  0  0  0  0
  143.6814  133.6111  151.5736 H   0  0  0  0  0  0  0  0  0  0  0  0
  146.8757  134.4807  151.9723 H   0  0  0  0  0  0  0  0  0  0  0  0
  146.5417  135.3926  150.4910 H   0  0  0  0  0  0  0  0  0  0  0  0
  145.8330  133.8078  150.7271 H   0  0  0  0  0  0  0  0  0  0  0  0
  146.9969  137.0417  152.8448 H   0  0  0  0  0  0  0  0  0  0  0  0
  145.8180  138.0283  150.5614 H   0  0  0  0  0  0  0  0  0  0  0  0
  145.5425  139.6722  152.6044 H   0  0  0  0  0  0  0  0  0  0  0  0
  145.3140  138.7570  154.0458 H   0  0  0  0  0  0  0  0  0  0  0  0
  148.0656  137.4356  153.7149 H   0  0  0  0  0  0  0  0  0  0  0  0
  143.7687  138.1940  153.4759 H   0  0  0  0  0  0  0  0  0  0  0  0
  1  2  1  0  0  0  0
  1 21  1  0  0  0  0
  1 22  1  0  0  0  0
  1 23  1  0  0  0  0
  2 20  1  0  0  0  0
  2  3  2  0  0  0  0
  3  4  1  0  0  0  0
  3 24  1  0  0  0  0
  4  5  2  0  0  0  0
  4 25  1  0  0  0  0
  5  6  1  0  0  0  0
  5  7  1  0  0  0  0
  6 26  1  0  0  0  0
  6 27  1  0  0  0  0
  6 28  1  0  0  0  0
  7  8  1  0  0  0  0
  7 20  2  0  0  0  0
  8  9  1  0  0  0  0
  8 10  1  0  0  0  0
  8 29  1  0  0  0  0
  9 30  1  0  0  0  0
 10 11  1  0  0  0  0
 10 31  1  0  0  0  0
 10 32  1  0  0  0  0
 11 18  1  0  0  0  0
 11 12  1  0  0  0  0
 12 13  2  0  0  0  0
 12 33  1  0  0  0  0
 13 14  1  0  0  0  0
 13 15  1  0  0  0  0
 15 16  2  0  0  0  0
 15 17  1  0  0  0  0
 17 18  1  0  0  0  0
 18 19  2  0  0  0  0
 20 34  1  0  0  0  0
M  CHG  1  17  -1
M  END
> <s_m_source_file>
AV-unprocessed.smi

> <i_m_source_file_index>
649

> <i_lp_mmshare_version>
43012

> <i_f3d_flags>
0

> <s_epik_input>
W0NIM11jMVtjSF1bY0hdYyhbQ0gzXSljKFtjSF0xKVtDQEhdKFtPSF0pW0NIMl1uMltjSF1jKENsKWMoPU8pW25IXWMyPU8=

> <s_epik_cmdline>
J2VwaWtfcHl0aG9uJywgJy1waCcsICc3LjAnLCAnLXRuJywgJzgnLCAnLW1hJywgJzIwMCcsICctbWV0YWxfYmluZGluZycsICctaW1hZScsICc8aW5maWxlLm1hZT4nLCAnLW9tYWUnLCAnPG91dGZpbGUubWFlPic=

> <r_epik_Ionization_Penalty>
1.7979

> <r_epik_Ionization_Penalty_Charging>
3.23819e-08

> <r_epik_Ionization_Penalty_Neutral>
1.7979

> <r_epik_State_Penalty>
1.91135

> <r_epik_Charging_Adjusted_Penalty>
1.91135

> <i_epik_Tot_Q>
-1

> <i_epik_Tot_abs_Q>
1

> <r_epik_Metal_State_Penalty>
0.014155

> <b_epik_Metal_Only>
0

> <s_lp_Force_Field>
OPLS_2005

> <r_lp_Energy>
20.3663

> <b_lp_Chiralities_Consistent>
1

> <s_lp_Variant>
AV-unprocessed.smi:649-4

> <Gold.Version>
5.8.1

> <Gold.Id.Protein>
6NUR|6NUR_protein|mol2

> <Gold.PLP.Fitness>
42.0588

> <Gold.PLP.PLP>
-31.7294

> <Gold.PLP.part.hbond>
-3.8723

> <Gold.PLP.part.metal>
0.0000

> <Gold.PLP.part.buried>
-1.3058

> <Gold.PLP.part.nonpolar>
-27.8785

> <Gold.PLP.part.repulsive>
0.3975

> <Gold.PLP.ligand.clash>
0.0000

> <Gold.PLP.ligand.torsion>
0.7235

> <Gold.PLP.Chemscore.Hbond>
2.9833

> <Gold.PLP.Chemscore.CHOScore>
0.9182

> <Gold.PLP.Chemscore.Metal>
0.0000

> <Gold.Chemscore.Hbonds>
donor molecule, donor type, donor heavy atom, donor atom, acceptor molecule, acceptor atom, score
      L1  H     9    30       P1 10171  0.71
      P1  H  7954  7966       L1     9  1.00
      P1  H  7989  7998       L1    16  0.86
      L1  C    12    33       P1  7948  0.88

> <Gold.PLP.Chemscore.Internal.Correction>
0.0719

> <Gold.Rescore>
     Score         DG    S(hbond)    S(metal)    S(lipo)     H(rot)  DE(clash)    DE(int)     intcor
     13.85     -15.75       2.18        0.00      71.10       2.09       1.26       0.65       ----

> <Gold.Chemscore.Fitness>
13.8503

> <Gold.Chemscore.DG>
-15.7535

> <Gold.Chemscore.ZeroCoef>
-5.4800

> <Gold.Chemscore.Hbond>
2.1848

> <Gold.Chemscore.Metal>
0.0000

> <Gold.Chemscore.Lipo>
71.0993

> <Gold.Chemscore.Internal_Hbond>
0.0000

> <Gold.Chemscore.DEClash>
1.2576

> <Gold.Chemscore.DEInternal>
0.6456

> <Gold.Chemscore.Rot>
2.0868

> <Gold.Chemscore.Internal.Correction>
   9.000000E+99

> <Gold.Chemscore.Hbonds>
donor molecule, donor type, donor heavy atom, donor atom, acceptor molecule, acceptor atom, score
      L1  H     9    30       P1 10171  0.71
      P1  H  7954  7966       L1     9  0.63
      P1  H  7989  7998       L1    16  0.16

> <Gold.Chemscore.Hbond.Weighted>
-7.2972

> <Gold.Chemscore.Metal.Weighted>
-0.0000

> <Gold.Chemscore.Lipo.Weighted>
-8.3186

> <Gold.Chemscore.Internal_Hbond.Weighted>
0.0000

> <Gold.Chemscore.DEClash.Weighted>
1.2576

> <Gold.Chemscore.DEInternal.Weighted>
0.6456

> <Gold.Chemscore.Rot.Weighted>
5.3423

> <Gold.Chemscore.Internal.Correction.Weighted>
   9.000000E+99

> <Gold.Protein.RotatedTorsions>
[ 6907 6896 6895 6894 ] final -166.65 input  -60.11 | X-H torsion
[ 7974 7965 7964 7962 ] final   33.36 input  175.53 | X-H torsion
[ 8008 7997 7996 7995 ] final  111.92 input   59.86 | X-H torsion
[ 10167 10162 10161 10158 ] final  130.61 input  -65.29 | X-H torsion
[ 10718 10713 10712 10709 ] final  -37.89 input   66.30 | X-H torsion
[ 10763 10752 10751 10750 ] final  104.32 input  -60.55 | X-H torsion
[ 11005 11000 10999 10996 ] final  -95.32 input  -57.11 | X-H torsion

> <Gold.Protein.ActiveResidues>
 VAL166  LYS551  ARG553  GLY616  TRP617  ASP618  TYR619  PRO620  LYS621  CYS622 
 ASP623  PHE694  ASN695  SER759  ASP760  ASP761  ALA762  ILE779  LEU786  VAL792 
 PHE793  MET794  SER795  GLU796  ALA797  LYS798  CYS799  TRP800  GLU811  SER814 

> <Gold.Protein.RotatedAtoms>
  151.4470  133.3628  159.2789 H   0  0  0  0  0  0  0  0  0  0  0  0  # atno 6907 bound_to 6896
  150.9118  134.8536  159.7441 H   0  0  0  0  0  0  0  0  0  0  0  0  # atno 6908 bound_to 6896
  152.4936  134.4400  159.9592 H   0  0  0  0  0  0  0  0  0  0  0  0  # atno 6909 bound_to 6896
  146.1426  139.6407  142.9153 H   0  0  0  0  0  0  0  0  0  0  0  0  # atno 7974 bound_to 7965
  156.2157  140.3010  155.9834 H   0  0  0  0  0  0  0  0  0  0  0  0  # atno 8008 bound_to 7997
  155.2611  140.0430  157.3014 H   0  0  0  0  0  0  0  0  0  0  0  0  # atno 8009 bound_to 7997
  154.5764  140.2363  155.8124 H   0  0  0  0  0  0  0  0  0  0  0  0  # atno 8010 bound_to 7997
  139.5422  144.6741  151.4589 H   0  0  0  0  0  0  0  0  0  0  0  0  # atno 10167 bound_to 10162
  156.3100  130.4251  149.8060 H   0  0  0  0  0  0  0  0  0  0  0  0  # atno 10718 bound_to 10713
  153.3644  135.3947  155.1742 H   0  0  0  0  0  0  0  0  0  0  0  0  # atno 10763 bound_to 10752
  154.8684  135.3687  154.5058 H   0  0  0  0  0  0  0  0  0  0  0  0  # atno 10764 bound_to 10752
  153.5520  135.7082  153.5647 H   0  0  0  0  0  0  0  0  0  0  0  0  # atno 10765 bound_to 10752
  141.1445  133.8018  157.0420 H   0  0  0  0  0  0  0  0  0  0  0  0  # atno 11005 bound_to 11000
  145.5012  141.0437  143.2539 LP  0  0  0  0  0  0  0  0  0  0  0  0  # atno 17320 bound_to 7965
  144.7809  139.6527  143.7154 LP  0  0  0  0  0  0  0  0  0  0  0  0  # atno 17321 bound_to 7965
  140.6656  143.8405  150.6938 LP  0  0  0  0  0  0  0  0  0  0  0  0  # atno 17342 bound_to 10162
  140.1813  143.4112  152.1931 LP  0  0  0  0  0  0  0  0  0  0  0  0  # atno 17343 bound_to 10162
  156.5406  130.8298  151.3268 LP  0  0  0  0  0  0  0  0  0  0  0  0  # atno 17370 bound_to 10713
  157.7389  130.9821  150.2278 LP  0  0  0  0  0  0  0  0  0  0  0  0  # atno 17371 bound_to 10713
  140.0687  134.9714  157.1430 LP  0  0  0  0  0  0  0  0  0  0  0  0  # atno 17394 bound_to 11000
  140.3742  134.2357  155.7175 LP  0  0  0  0  0  0  0  0  0  0  0  0  # atno 17395 bound_to 11000

$$$$
