AV-unprocessed.smi:485|AV-procd|sdf|2692|dock6
  -GOLD-   2262023123D 1   1.00000     0.00000
 Structure written by MMmdl.
 36 38  0  0  0  0  0  0  0  0  1 V2000
  152.0306  137.0420  153.8777 O   0  0  0  0  0  0  0  0  0  0  0  0
  151.9976  138.2407  154.6222 C   0  0  0  0  0  0  0  0  0  0  0  0
  150.7222  139.0046  154.4339 C   0  0  0  0  0  0  0  0  0  0  0  0
  149.7407  138.5551  153.6513 N   0  0  0  0  0  0  0  0  0  0  0  0
  148.7780  139.5377  153.7764 C   0  0  0  0  0  0  0  0  0  0  0  0
  147.4953  139.6457  153.1929 C   0  0  0  0  0  0  0  0  0  0  0  0
  146.6754  140.7587  153.4719 C   0  0  0  0  0  0  0  0  0  0  0  0
  147.1252  141.7777  154.3366 C   0  0  0  0  0  0  0  0  0  0  0  0
  148.3996  141.6894  154.9289 C   0  0  0  0  0  0  0  0  0  0  0  0
  149.2143  140.5760  154.6473 C   0  0  0  0  0  0  0  0  0  0  0  0
  150.4885  140.1897  155.0522 N   0  0  0  0  0  0  0  0  0  0  0  0
  151.3657  140.9200  155.9574 C   0  0  0  0  0  0  0  0  0  0  0  0
  150.8063  141.0138  157.3913 C   0  0  1  0  0  0  0  0  0  0  0  0
  151.0221  139.7962  158.0790 O   0  0  0  0  0  0  0  0  0  0  0  0
  151.3896  142.2098  158.1278 C   0  0  0  0  0  0  0  0  0  0  0  0
  151.2498  143.5177  157.6118 C   0  0  0  0  0  0  0  0  0  0  0  0
  151.7844  144.6175  158.3111 C   0  0  0  0  0  0  0  0  0  0  0  0
  152.4567  144.4172  159.5320 C   0  0  0  0  0  0  0  0  0  0  0  0
  152.5945  143.1166  160.0536 C   0  0  0  0  0  0  0  0  0  0  0  0
  152.0614  142.0165  159.3540 C   0  0  0  0  0  0  0  0  0  0  0  0
  151.6082  137.1934  153.0462 H   0  0  0  0  0  0  0  0  0  0  0  0
  152.1454  138.0150  155.6776 H   0  0  0  0  0  0  0  0  0  0  0  0
  152.8387  138.8637  154.3161 H   0  0  0  0  0  0  0  0  0  0  0  0
  147.1416  138.8704  152.5297 H   0  0  0  0  0  0  0  0  0  0  0  0
  145.6970  140.8312  153.0199 H   0  0  0  0  0  0  0  0  0  0  0  0
  146.4914  142.6274  154.5448 H   0  0  0  0  0  0  0  0  0  0  0  0
  148.7490  142.4692  155.5893 H   0  0  0  0  0  0  0  0  0  0  0  0
  152.3418  140.4331  155.9640 H   0  0  0  0  0  0  0  0  0  0  0  0
  151.5328  141.9181  155.5519 H   0  0  0  0  0  0  0  0  0  0  0  0
  149.7253  141.1460  157.3436 H   0  0  0  0  0  0  0  0  0  0  0  0
  150.7234  139.8986  158.9698 H   0  0  0  0  0  0  0  0  0  0  0  0
  150.7291  143.6835  156.6799 H   0  0  0  0  0  0  0  0  0  0  0  0
  151.6768  145.6152  157.9119 H   0  0  0  0  0  0  0  0  0  0  0  0
  152.8646  145.2608  160.0692 H   0  0  0  0  0  0  0  0  0  0  0  0
  153.1075  142.9629  160.9916 H   0  0  0  0  0  0  0  0  0  0  0  0
  152.1673  141.0230  159.7647 H   0  0  0  0  0  0  0  0  0  0  0  0
  1  2  1  0  0  0  0
  1 21  1  0  0  0  0
  2  3  1  0  0  0  0
  2 22  1  0  0  0  0
  2 23  1  0  0  0  0
  3 11  1  0  0  0  0
  3  4  2  0  0  0  0
  4  5  1  0  0  0  0
  5 10  2  0  0  0  0
  5  6  1  0  0  0  0
  6  7  2  0  0  0  0
  6 24  1  0  0  0  0
  7  8  1  0  0  0  0
  7 25  1  0  0  0  0
  8  9  2  0  0  0  0
  8 26  1  0  0  0  0
  9 10  1  0  0  0  0
  9 27  1  0  0  0  0
 10 11  1  0  0  0  0
 11 12  1  0  0  0  0
 12 13  1  0  0  0  0
 12 28  1  0  0  0  0
 12 29  1  0  0  0  0
 13 14  1  0  0  0  0
 13 15  1  0  0  0  0
 13 30  1  0  0  0  0
 14 31  1  0  0  0  0
 15 20  1  0  0  0  0
 15 16  2  0  0  0  0
 16 17  1  0  0  0  0
 16 32  1  0  0  0  0
 17 18  2  0  0  0  0
 17 33  1  0  0  0  0
 18 19  1  0  0  0  0
 18 34  1  0  0  0  0
 19 20  2  0  0  0  0
 19 35  1  0  0  0  0
 20 36  1  0  0  0  0
M  END
> <s_m_source_file>
AV-unprocessed.smi

> <i_m_source_file_index>
485

> <i_lp_mmshare_version>
43012

> <i_f3d_flags>
0

> <s_epik_input>
W2NIXTFbY0hdW2NIXVtjSF1jKGMxMiluKGMobjIpW0NIMl1bT0hdKVtDSDJdW0NASF0oW09IXSljM1tjSF1bY0hdW2NIXVtjSF1bY0hdMw==

> <s_epik_cmdline>
J2VwaWtfcHl0aG9uJywgJy1waCcsICc3LjAnLCAnLXRuJywgJzgnLCAnLW1hJywgJzIwMCcsICctbWV0YWxfYmluZGluZycsICctaW1hZScsICc8aW5maWxlLm1hZT4nLCAnLW9tYWUnLCAnPG91dGZpbGUubWFlPic=

> <r_epik_Ionization_Penalty>
0.0634722

> <r_epik_Ionization_Penalty_Charging>
0

> <r_epik_Ionization_Penalty_Neutral>
0.0634722

> <r_epik_State_Penalty>
0.0551572

> <r_epik_Charging_Adjusted_Penalty>
0.0551572

> <i_epik_Tot_Q>
0

> <i_epik_Tot_abs_Q>
0

> <r_epik_Metal_State_Penalty>
5.78034e-05

> <b_epik_Metal_Only>
0

> <s_lp_Force_Field>
OPLS_2005

> <r_lp_Energy>
11.9135

> <b_lp_Chiralities_Consistent>
1

> <s_lp_Variant>
AV-unprocessed.smi:485-2

> <Gold.Version>
5.8.1

> <Gold.Id.Protein>
6NUR|6NUR_protein|mol2

> <Gold.PLP.Fitness>
50.8431

> <Gold.PLP.PLP>
-46.1308

> <Gold.PLP.part.hbond>
-2.0000

> <Gold.PLP.part.metal>
0.0000

> <Gold.PLP.part.buried>
-0.0216

> <Gold.PLP.part.nonpolar>
-46.2394

> <Gold.PLP.part.repulsive>
1.6950

> <Gold.PLP.ligand.clash>
0.0000

> <Gold.PLP.ligand.torsion>
0.2510

> <Gold.PLP.Chemscore.Hbond>
1.7262

> <Gold.PLP.Chemscore.CHOScore>
0.0000

> <Gold.PLP.Chemscore.Metal>
0.0000

> <Gold.Chemscore.Hbonds>
donor molecule, donor type, donor heavy atom, donor atom, acceptor molecule, acceptor atom, score
      L1  H     1    21       P1  7949  0.66
      P1  H 10752 10763       L1     1  1.00

> <Gold.PLP.Chemscore.Internal.Correction>
0.0357

> <Gold.Rescore>
     Score         DG    S(hbond)    S(metal)    S(lipo)     H(rot)  DE(clash)    DE(int)     intcor
     17.89     -18.68       1.48        0.00     127.88       2.62       0.43       0.36       ----

> <Gold.Chemscore.Fitness>
17.8864

> <Gold.Chemscore.DG>
-18.6769

> <Gold.Chemscore.ZeroCoef>
-5.4800

> <Gold.Chemscore.Hbond>
1.4823

> <Gold.Chemscore.Metal>
0.0000

> <Gold.Chemscore.Lipo>
127.8753

> <Gold.Chemscore.Internal_Hbond>
0.0000

> <Gold.Chemscore.DEClash>
0.4325

> <Gold.Chemscore.DEInternal>
0.3580

> <Gold.Chemscore.Rot>
2.6232

> <Gold.Chemscore.Internal.Correction>
   9.000000E+99

> <Gold.Chemscore.Hbonds>
donor molecule, donor type, donor heavy atom, donor atom, acceptor molecule, acceptor atom, score
      L1  H     1    21       P1  7949  0.60
      P1  H 10752 10763       L1     1  0.94

> <Gold.Chemscore.Hbond.Weighted>
-4.9510

> <Gold.Chemscore.Metal.Weighted>
-0.0000

> <Gold.Chemscore.Lipo.Weighted>
-14.9614

> <Gold.Chemscore.Internal_Hbond.Weighted>
0.0000

> <Gold.Chemscore.DEClash.Weighted>
0.4325

> <Gold.Chemscore.DEInternal.Weighted>
0.3580

> <Gold.Chemscore.Rot.Weighted>
6.7154

> <Gold.Chemscore.Internal.Correction.Weighted>
   9.000000E+99

> <Gold.Protein.RotatedTorsions>
[ 6907 6896 6895 6894 ] final   23.72 input  -60.11 | X-H torsion
[ 7974 7965 7964 7962 ] final   -5.06 input  175.53 | X-H torsion
[ 8008 7997 7996 7995 ] final  -54.20 input   59.86 | X-H torsion
[ 10167 10162 10161 10158 ] final   -6.46 input  -65.29 | X-H torsion
[ 10718 10713 10712 10709 ] final -166.10 input   66.30 | X-H torsion
[ 10763 10752 10751 10750 ] final   25.89 input  -60.55 | X-H torsion
[ 11005 11000 10999 10996 ] final  -33.21 input  -57.11 | X-H torsion

> <Gold.Protein.ActiveResidues>
 VAL166  LYS551  ARG553  GLY616  TRP617  ASP618  TYR619  PRO620  LYS621  CYS622 
 ASP623  PHE694  ASN695  SER759  ASP760  ASP761  ALA762  ILE779  LEU786  VAL792 
 PHE793  MET794  SER795  GLU796  ALA797  LYS798  CYS799  TRP800  GLU811  SER814 

> <Gold.Protein.RotatedAtoms>
  151.9467  135.0188  160.0539 H   0  0  0  0  0  0  0  0  0  0  0  0  # atno 6907 bound_to 6896
  152.1989  133.4822  159.5056 H   0  0  0  0  0  0  0  0  0  0  0  0  # atno 6908 bound_to 6896
  150.6950  134.1533  159.4191 H   0  0  0  0  0  0  0  0  0  0  0  0  # atno 6909 bound_to 6896
  146.2360  140.1964  142.8333 H   0  0  0  0  0  0  0  0  0  0  0  0  # atno 7974 bound_to 7965
  154.4155  140.1182  156.5277 H   0  0  0  0  0  0  0  0  0  0  0  0  # atno 8008 bound_to 7997
  155.6637  140.3496  155.4773 H   0  0  0  0  0  0  0  0  0  0  0  0  # atno 8009 bound_to 7997
  155.9691  140.1138  157.0818 H   0  0  0  0  0  0  0  0  0  0  0  0  # atno 8010 bound_to 7997
  140.6998  143.6191  150.8630 H   0  0  0  0  0  0  0  0  0  0  0  0  # atno 10167 bound_to 10162
  156.6630  130.9053  151.3032 H   0  0  0  0  0  0  0  0  0  0  0  0  # atno 10718 bound_to 10713
  153.0660  135.6573  154.0353 H   0  0  0  0  0  0  0  0  0  0  0  0  # atno 10763 bound_to 10752
  154.0009  135.2937  155.3404 H   0  0  0  0  0  0  0  0  0  0  0  0  # atno 10764 bound_to 10752
  154.7018  135.5241  153.8607 H   0  0  0  0  0  0  0  0  0  0  0  0  # atno 10765 bound_to 10752
  140.9616  133.7161  156.1379 H   0  0  0  0  0  0  0  0  0  0  0  0  # atno 11005 bound_to 11000
  144.9817  140.8465  143.5393 LP  0  0  0  0  0  0  0  0  0  0  0  0  # atno 17320 bound_to 7965
  145.1958  139.2277  143.5218 LP  0  0  0  0  0  0  0  0  0  0  0  0  # atno 17321 bound_to 7965
  139.9912  143.5845  152.2909 LP  0  0  0  0  0  0  0  0  0  0  0  0  # atno 17342 bound_to 10162
  139.6501  144.7660  151.2166 LP  0  0  0  0  0  0  0  0  0  0  0  0  # atno 17343 bound_to 10162
  157.7103  130.9432  150.1067 LP  0  0  0  0  0  0  0  0  0  0  0  0  # atno 17370 bound_to 10713
  156.1996  130.3659  149.8805 LP  0  0  0  0  0  0  0  0  0  0  0  0  # atno 17371 bound_to 10713
  140.7459  134.4099  157.5548 LP  0  0  0  0  0  0  0  0  0  0  0  0  # atno 17394 bound_to 11000
  139.8880  134.8867  156.2497 LP  0  0  0  0  0  0  0  0  0  0  0  0  # atno 17395 bound_to 11000

$$$$
