AV-unprocessed.smi:2569|AV-procd|sdf|10104|dock8
  -GOLD-   2272014123D 1   1.00000     0.00000
 Structure written by MMmdl.
 40 42  0  0  0  0  0  0  0  0  2 V2000
  152.2547  144.0005  161.6236 C   0  0  0  0  0  0  0  0  0  0  0  0
  152.1131  143.1207  160.3930 C   0  0  0  0  0  0  0  0  0  0  0  0
  151.3141  143.5814  159.3227 C   0  0  0  0  0  0  0  0  0  0  0  0
  151.2061  142.7556  158.2100 C   0  0  0  0  0  0  0  0  0  0  0  0
  150.5045  142.9219  157.0142 N   0  3  0  0  0  0  0  0  0  0  0  0
  150.7005  141.8354  156.2175 C   0  0  0  0  0  0  0  0  0  0  0  0
  151.5189  140.9778  156.8857 N   0  0  0  0  0  0  0  0  0  0  0  0
  152.0340  139.6642  156.4726 C   0  0  0  0  0  0  0  0  0  0  0  0
  151.0225  138.8662  155.6279 C   0  0  2  0  0  0  0  0  0  0  0  0
  150.8854  139.4565  154.3488 O   0  0  0  0  0  0  0  0  0  0  0  0
  149.6458  138.7779  156.3142 C   0  0  0  0  0  0  0  0  0  0  0  0
  149.6660  137.9421  157.5035 N   0  0  0  0  0  0  0  0  0  0  0  0
  149.3043  138.4437  158.7099 N   0  0  0  0  0  0  0  0  0  0  0  0
  149.4214  137.4726  159.5692 N   0  0  0  0  0  0  0  0  0  0  0  0
  149.8589  136.3115  158.9594 N   0  0  0  0  0  0  0  0  0  0  0  0
  149.9940  136.6559  157.6855 C   0  0  0  0  0  0  0  0  0  0  0  0
  150.4483  135.7509  156.5881 C   0  0  0  0  0  0  0  0  0  0  0  0
  151.8595  141.5097  158.1358 C   0  0  0  0  0  0  0  0  0  0  0  0
  152.6489  141.0401  159.1836 C   0  0  0  0  0  0  0  0  0  0  0  0
  152.7714  141.8654  160.3244 C   0  0  0  0  0  0  0  0  0  0  0  0
  153.6263  141.3786  161.4823 C   0  0  0  0  0  0  0  0  0  0  0  0
  151.6613  144.9110  161.5335 H   0  0  0  0  0  0  0  0  0  0  0  0
  153.2953  144.2933  161.7658 H   0  0  0  0  0  0  0  0  0  0  0  0
  151.9180  143.4722  162.5156 H   0  0  0  0  0  0  0  0  0  0  0  0
  150.8092  144.5354  159.3681 H   0  0  0  0  0  0  0  0  0  0  0  0
  150.2807  141.6811  155.2339 H   0  0  0  0  0  0  0  0  0  0  0  0
  152.9383  139.8451  155.8903 H   0  0  0  0  0  0  0  0  0  0  0  0
  152.3477  139.1025  157.3526 H   0  0  0  0  0  0  0  0  0  0  0  0
  151.4105  137.8573  155.4814 H   0  0  0  0  0  0  0  0  0  0  0  0
  149.9671  139.4943  154.1300 H   0  0  0  0  0  0  0  0  0  0  0  0
  149.3090  139.7737  156.6063 H   0  0  0  0  0  0  0  0  0  0  0  0
  148.8969  138.3920  155.6221 H   0  0  0  0  0  0  0  0  0  0  0  0
  150.7038  134.7688  156.9865 H   0  0  0  0  0  0  0  0  0  0  0  0
  151.3292  136.1652  156.0979 H   0  0  0  0  0  0  0  0  0  0  0  0
  149.6562  135.6303  155.8490 H   0  0  0  0  0  0  0  0  0  0  0  0
  153.1489  140.0844  159.1369 H   0  0  0  0  0  0  0  0  0  0  0  0
  154.0690  140.4047  161.2709 H   0  0  0  0  0  0  0  0  0  0  0  0
  153.0252  141.2811  162.3866 H   0  0  0  0  0  0  0  0  0  0  0  0
  154.4393  142.0778  161.6795 H   0  0  0  0  0  0  0  0  0  0  0  0
  149.9321  143.7165  156.7588 H   0  0  0  0  0  0  0  0  0  0  0  0
  1  2  1  0  0  0  0
  1 22  1  0  0  0  0
  1 23  1  0  0  0  0
  1 24  1  0  0  0  0
  2 20  1  0  0  0  0
  2  3  2  0  0  0  0
  3  4  1  0  0  0  0
  3 25  1  0  0  0  0
  4 18  2  0  0  0  0
  4  5  1  0  0  0  0
  5  6  2  0  0  0  0
  5 40  1  0  0  0  0
  6  7  1  0  0  0  0
  6 26  1  0  0  0  0
  7  8  1  0  0  0  0
  7 18  1  0  0  0  0
  8  9  1  0  0  0  0
  8 27  1  0  0  0  0
  8 28  1  0  0  0  0
  9 10  1  0  0  0  0
  9 11  1  0  0  0  0
  9 29  1  0  0  0  0
 10 30  1  0  0  0  0
 11 12  1  0  0  0  0
 11 31  1  0  0  0  0
 11 32  1  0  0  0  0
 12 16  1  0  0  0  0
 12 13  1  0  0  0  0
 13 14  2  0  0  0  0
 14 15  1  0  0  0  0
 15 16  2  0  0  0  0
 16 17  1  0  0  0  0
 17 33  1  0  0  0  0
 17 34  1  0  0  0  0
 17 35  1  0  0  0  0
 18 19  1  0  0  0  0
 19 20  2  0  0  0  0
 19 36  1  0  0  0  0
 20 21  1  0  0  0  0
 21 37  1  0  0  0  0
 21 38  1  0  0  0  0
 21 39  1  0  0  0  0
M  CHG  1   5   1
M  END
> <s_m_source_file>
AV-unprocessed.smi

> <i_m_source_file_index>
2569

> <i_lp_mmshare_version>
43012

> <i_f3d_flags>
0

> <s_epik_input>
W0NIM11jKFtjSF0xKWMoW0NIM10pW2NIXWMoYzEyKW4oW2NIXW4yKVtDSDJdW0NASF0oW09IXSlbQ0gyXW4zbm5uYzNbQ0gzXQ==

> <s_epik_cmdline>
J2VwaWtfcHl0aG9uJywgJy1waCcsICc3LjAnLCAnLXRuJywgJzgnLCAnLW1hJywgJzIwMCcsICctbWV0YWxfYmluZGluZycsICctaW1hZScsICc8aW5maWxlLm1hZT4nLCAnLW9tYWUnLCAnPG91dGZpbGUubWFlPic=

> <r_lp_tautomer_probability>
1

> <r_epik_Ionization_Penalty>
1.13338

> <r_epik_Ionization_Penalty_Charging>
1.13335

> <r_epik_Ionization_Penalty_Neutral>
3.02334e-05

> <r_epik_State_Penalty>
1.19324

> <r_epik_Charging_Adjusted_Penalty>
2.3266

> <i_epik_Tot_Q>
1

> <i_epik_Tot_abs_Q>
1

> <r_epik_Metal_State_Penalty>
1.27602

> <b_epik_Metal_Only>
0

> <s_lp_Force_Field>
OPLS_2005

> <r_lp_Energy>
15.9129

> <b_lp_Chiralities_Consistent>
1

> <s_lp_Variant>
AV-unprocessed.smi:2569-3

> <Gold.Version>
5.8.1

> <Gold.Id.Protein>
6NUR|6NUR_protein|mol2

> <Gold.PLP.Fitness>
51.9875

> <Gold.PLP.PLP>
-40.7980

> <Gold.PLP.part.hbond>
-4.5154

> <Gold.PLP.part.metal>
0.0000

> <Gold.PLP.part.buried>
-6.5156

> <Gold.PLP.part.nonpolar>
-29.5929

> <Gold.PLP.part.repulsive>
0.0163

> <Gold.PLP.ligand.clash>
0.0000

> <Gold.PLP.ligand.torsion>
0.4563

> <Gold.PLP.Chemscore.Hbond>
4.0315

> <Gold.PLP.Chemscore.CHOScore>
0.0000

> <Gold.PLP.Chemscore.Metal>
0.0000

> <Gold.Chemscore.Hbonds>
donor molecule, donor type, donor heavy atom, donor atom, acceptor molecule, acceptor atom, score
      L1  H     5    40       P1  8028  2.00
      P1  H  6896  6907       L1    15  1.00
      P1  H  7989  7998       L1    10  1.00

> <Gold.PLP.Chemscore.Internal.Correction>
0.0077

> <Gold.Rescore>
     Score         DG    S(hbond)    S(metal)    S(lipo)     H(rot)  DE(clash)    DE(int)     intcor
     18.94     -20.39       2.90        0.00     101.18       2.59       0.02       1.42       ----

> <Gold.Chemscore.Fitness>
18.9410

> <Gold.Chemscore.DG>
-20.3890

> <Gold.Chemscore.ZeroCoef>
-5.4800

> <Gold.Chemscore.Hbond>
2.9010

> <Gold.Chemscore.Metal>
0.0000

> <Gold.Chemscore.Lipo>
101.1809

> <Gold.Chemscore.Internal_Hbond>
0.0000

> <Gold.Chemscore.DEClash>
0.0237

> <Gold.Chemscore.DEInternal>
1.4243

> <Gold.Chemscore.Rot>
2.5854

> <Gold.Chemscore.Internal.Correction>
   9.000000E+99

> <Gold.Chemscore.Hbonds>
donor molecule, donor type, donor heavy atom, donor atom, acceptor molecule, acceptor atom, score
      L1  H     5    40       P1  8028  0.99
      P1  H  6896  6907       L1    15  0.97
      P1  H  6931  6943       L1    14  0.01
      P1  H  7989  7998       L1    10  0.50

> <Gold.Chemscore.Hbond.Weighted>
-9.6895

> <Gold.Chemscore.Metal.Weighted>
-0.0000

> <Gold.Chemscore.Lipo.Weighted>
-11.8382

> <Gold.Chemscore.Internal_Hbond.Weighted>
0.0000

> <Gold.Chemscore.DEClash.Weighted>
0.0237

> <Gold.Chemscore.DEInternal.Weighted>
1.4243

> <Gold.Chemscore.Rot.Weighted>
6.6187

> <Gold.Chemscore.Internal.Correction.Weighted>
   9.000000E+99

> <Gold.Protein.RotatedTorsions>
[ 6907 6896 6895 6894 ] final  -55.27 input  -60.11 | X-H torsion
[ 7974 7965 7964 7962 ] final   23.25 input  175.53 | X-H torsion
[ 8008 7997 7996 7995 ] final -172.08 input   59.86 | X-H torsion
[ 10167 10162 10161 10158 ] final -133.74 input  -65.29 | X-H torsion
[ 10718 10713 10712 10709 ] final -147.04 input   66.30 | X-H torsion
[ 10763 10752 10751 10750 ] final  -26.88 input  -60.55 | X-H torsion
[ 11005 11000 10999 10996 ] final  -41.74 input  -57.11 | X-H torsion

> <Gold.Protein.ActiveResidues>
 VAL166  LYS551  ARG553  GLY616  TRP617  ASP618  TYR619  PRO620  LYS621  CYS622 
 ASP623  PHE694  ASN695  SER759  ASP760  ASP761  ALA762  ILE779  LEU786  VAL792 
 PHE793  MET794  SER795  GLU796  ALA797  LYS798  CYS799  TRP800  GLU811  SER814 

> <Gold.Protein.RotatedAtoms>
  150.8266  134.7500  159.6817 H   0  0  0  0  0  0  0  0  0  0  0  0  # atno 6907 bound_to 6896
  152.4376  134.5652  159.9915 H   0  0  0  0  0  0  0  0  0  0  0  0  # atno 6908 bound_to 6896
  151.5823  133.3339  159.3047 H   0  0  0  0  0  0  0  0  0  0  0  0  # atno 6909 bound_to 6896
  146.1993  139.7771  142.8774 H   0  0  0  0  0  0  0  0  0  0  0  0  # atno 7974 bound_to 7965
  155.9400  140.1107  157.1063 H   0  0  0  0  0  0  0  0  0  0  0  0  # atno 8008 bound_to 7997
  154.4087  140.1221  156.4980 H   0  0  0  0  0  0  0  0  0  0  0  0  # atno 8009 bound_to 7997
  155.6974  140.3472  155.4921 H   0  0  0  0  0  0  0  0  0  0  0  0  # atno 8010 bound_to 7997
  139.8952  143.6674  152.2605 H   0  0  0  0  0  0  0  0  0  0  0  0  # atno 10167 bound_to 10162
  156.4025  130.7941  151.2152 H   0  0  0  0  0  0  0  0  0  0  0  0  # atno 10718 bound_to 10713
  153.7231  135.6943  153.5008 H   0  0  0  0  0  0  0  0  0  0  0  0  # atno 10763 bound_to 10752
  153.2189  135.4376  155.0466 H   0  0  0  0  0  0  0  0  0  0  0  0  # atno 10764 bound_to 10752
  154.8278  135.3455  154.6764 H   0  0  0  0  0  0  0  0  0  0  0  0  # atno 10765 bound_to 10752
  141.0267  133.6838  156.2499 H   0  0  0  0  0  0  0  0  0  0  0  0  # atno 11005 bound_to 11000
  145.3539  141.0313  143.3323 LP  0  0  0  0  0  0  0  0  0  0  0  0  # atno 17320 bound_to 7965
  144.8647  139.5125  143.6795 LP  0  0  0  0  0  0  0  0  0  0  0  0  # atno 17321 bound_to 7965
  139.7074  144.7626  151.1170 LP  0  0  0  0  0  0  0  0  0  0  0  0  # atno 17342 bound_to 10162
  140.7718  143.5376  150.9350 LP  0  0  0  0  0  0  0  0  0  0  0  0  # atno 17343 bound_to 10162
  157.7504  131.0282  150.4041 LP  0  0  0  0  0  0  0  0  0  0  0  0  # atno 17370 bound_to 10713
  156.4323  130.3974  149.6752 LP  0  0  0  0  0  0  0  0  0  0  0  0  # atno 17371 bound_to 10713
  140.6479  134.5098  157.5575 LP  0  0  0  0  0  0  0  0  0  0  0  0  # atno 17394 bound_to 11000
  139.9180  134.8206  156.1301 LP  0  0  0  0  0  0  0  0  0  0  0  0  # atno 17395 bound_to 11000

$$$$
