AV-unprocessed.smi:2336|AV-procd|sdf|9331|dock1
  -GOLD-   2272012553D 1   1.00000     0.00000
 Structure written by MMmdl.
 49 50  0  0  0  0  0  0  0  0  1 V2000
  149.1966  141.5951  154.4586 C   0  0  0  0  0  0  0  0  0  0  0  0
  147.9172  141.0777  153.7751 C   0  0  0  0  0  0  0  0  0  0  0  0
  146.6935  141.9384  154.1431 C   0  0  0  0  0  0  0  0  0  0  0  0
  147.6880  139.5299  153.9379 C   0  0  2  0  0  0  0  0  0  0  0  0
  146.6079  138.9980  152.9425 C   0  0  0  0  0  0  0  0  0  0  0  0
  146.8522  137.6292  152.5038 N   0  0  0  0  0  0  0  0  0  0  0  0
  145.9096  136.7183  152.2245 C   0  0  0  0  0  0  0  0  0  0  0  0
  144.7028  136.9275  152.3453 O   0  0  0  0  0  0  0  0  0  0  0  0
  146.4643  135.5652  151.8138 N   0  0  0  0  0  0  0  0  0  0  0  0
  145.8302  134.3762  151.3600 C   0  0  0  0  0  0  0  0  0  0  0  0
  144.5868  134.3435  150.6827 C   0  0  0  0  0  0  0  0  0  0  0  0
  144.0789  133.0972  150.2640 C   0  0  0  0  0  0  0  0  0  0  0  0
  144.7186  131.9261  150.4673 N   0  0  0  0  0  0  0  0  0  0  0  0
  145.9085  131.9620  151.1033 C   0  0  0  0  0  0  0  0  0  0  0  0
  146.5050  133.1535  151.5624 C   0  0  0  0  0  0  0  0  0  0  0  0
  147.7061  133.1189  152.1889 F   0  0  0  0  0  0  0  0  0  0  0  0
  147.4381  139.1430  155.3533 N   0  0  0  0  0  0  0  0  0  0  0  0
  148.6652  139.1887  156.1733 C   0  0  0  0  0  0  0  0  0  0  0  0
  148.4054  138.8246  157.6459 C   0  0  0  0  0  0  0  0  0  0  0  0
  147.8505  137.4828  157.7697 N   0  0  0  0  0  0  0  0  0  0  0  0
  147.6146  137.1268  159.1604 C   0  0  0  0  0  0  0  0  0  0  0  0
  146.6248  137.4188  156.9835 C   0  0  0  0  0  0  0  0  0  0  0  0
  146.8777  137.7894  155.5099 C   0  0  0  0  0  0  0  0  0  0  0  0
  149.1235  141.5681  155.5454 H   0  0  0  0  0  0  0  0  0  0  0  0
  149.3966  142.6290  154.1759 H   0  0  0  0  0  0  0  0  0  0  0  0
  150.0643  141.0033  154.1660 H   0  0  0  0  0  0  0  0  0  0  0  0
  148.0643  141.3091  152.7258 H   0  0  0  0  0  0  0  0  0  0  0  0
  146.5270  142.0036  155.2163 H   0  0  0  0  0  0  0  0  0  0  0  0
  145.7846  141.5504  153.6828 H   0  0  0  0  0  0  0  0  0  0  0  0
  146.8247  142.9603  153.7866 H   0  0  0  0  0  0  0  0  0  0  0  0
  148.6188  139.0411  153.6459 H   0  0  0  0  0  0  0  0  0  0  0  0
  145.6300  138.9470  153.4192 H   0  0  0  0  0  0  0  0  0  0  0  0
  146.5038  139.6799  152.0969 H   0  0  0  0  0  0  0  0  0  0  0  0
  147.8181  137.3621  152.3830 H   0  0  0  0  0  0  0  0  0  0  0  0
  147.4723  135.5219  151.8522 H   0  0  0  0  0  0  0  0  0  0  0  0
  144.0235  135.2373  150.4644 H   0  0  0  0  0  0  0  0  0  0  0  0
  143.1341  133.0406  149.7440 H   0  0  0  0  0  0  0  0  0  0  0  0
  146.4022  131.0125  151.2481 H   0  0  0  0  0  0  0  0  0  0  0  0
  149.4127  138.5097  155.7599 H   0  0  0  0  0  0  0  0  0  0  0  0
  149.1198  140.1746  156.1752 H   0  0  0  0  0  0  0  0  0  0  0  0
  149.3412  138.8877  158.2022 H   0  0  0  0  0  0  0  0  0  0  0  0
  147.7280  139.5556  158.0907 H   0  0  0  0  0  0  0  0  0  0  0  0
  147.2165  136.1146  159.2371 H   0  0  0  0  0  0  0  0  0  0  0  0
  146.9025  137.8087  159.6272 H   0  0  0  0  0  0  0  0  0  0  0  0
  148.5431  137.1625  159.7310 H   0  0  0  0  0  0  0  0  0  0  0  0
  146.2078  136.4124  157.0349 H   0  0  0  0  0  0  0  0  0  0  0  0
  145.8737  138.0890  157.4050 H   0  0  0  0  0  0  0  0  0  0  0  0
  145.9133  137.7165  155.0095 H   0  0  0  0  0  0  0  0  0  0  0  0
  147.5369  137.0523  155.0486 H   0  0  0  0  0  0  0  0  0  0  0  0
  1  2  1  0  0  0  0
  1 24  1  0  0  0  0
  1 25  1  0  0  0  0
  1 26  1  0  0  0  0
  2  3  1  0  0  0  0
  2  4  1  0  0  0  0
  2 27  1  0  0  0  0
  3 28  1  0  0  0  0
  3 29  1  0  0  0  0
  3 30  1  0  0  0  0
  4  5  1  0  0  0  0
  4 17  1  0  0  0  0
  4 31  1  0  0  0  0
  5  6  1  0  0  0  0
  5 32  1  0  0  0  0
  5 33  1  0  0  0  0
  6  7  1  0  0  0  0
  6 34  1  0  0  0  0
  7  8  2  0  0  0  0
  7  9  1  0  0  0  0
  9 10  1  0  0  0  0
  9 35  1  0  0  0  0
 10 15  1  0  0  0  0
 10 11  2  0  0  0  0
 11 12  1  0  0  0  0
 11 36  1  0  0  0  0
 12 13  2  0  0  0  0
 12 37  1  0  0  0  0
 13 14  1  0  0  0  0
 14 15  2  0  0  0  0
 14 38  1  0  0  0  0
 15 16  1  0  0  0  0
 17 23  1  0  0  0  0
 17 18  1  0  0  0  0
 18 19  1  0  0  0  0
 18 39  1  0  0  0  0
 18 40  1  0  0  0  0
 19 20  1  0  0  0  0
 19 41  1  0  0  0  0
 19 42  1  0  0  0  0
 20 21  1  0  0  0  0
 20 22  1  0  0  0  0
 21 43  1  0  0  0  0
 21 44  1  0  0  0  0
 21 45  1  0  0  0  0
 22 23  1  0  0  0  0
 22 46  1  0  0  0  0
 22 47  1  0  0  0  0
 23 48  1  0  0  0  0
 23 49  1  0  0  0  0
M  END
> <s_m_source_file>
AV-unprocessed.smi

> <i_m_source_file_index>
2336

> <i_lp_mmshare_version>
43012

> <i_f3d_flags>
0

> <s_epik_input>
W0NIMl0xW0NIMl1OKFtDSDNdKVtDSDJdW0NIMl1OMVtDQEhdKFtDSF0oW0NIM10pW0NIM10pW0NIMl1bTkhdQyg9TylbTkhdYzJbY0hdW2NIXW5bY0hdYzJG

> <s_epik_cmdline>
J2VwaWtfcHl0aG9uJywgJy1waCcsICc3LjAnLCAnLXRuJywgJzgnLCAnLW1hJywgJzIwMCcsICctbWV0YWxfYmluZGluZycsICctaW1hZScsICc8aW5maWxlLm1hZT4nLCAnLW9tYWUnLCAnPG91dGZpbGUubWFlPic=

> <r_epik_Ionization_Penalty>
2.58102

> <r_epik_Ionization_Penalty_Charging>
0

> <r_epik_Ionization_Penalty_Neutral>
2.58102

> <r_epik_State_Penalty>
2.00874

> <r_epik_Charging_Adjusted_Penalty>
2.00874

> <i_epik_Tot_Q>
0

> <i_epik_Tot_abs_Q>
0

> <r_epik_Metal_State_Penalty>
2.00867

> <b_epik_Metal_Only>
0

> <s_lp_Force_Field>
OPLS_2005

> <r_lp_Energy>
52.971

> <b_lp_Chiralities_Consistent>
1

> <s_lp_Variant>
AV-unprocessed.smi:2336-5

> <Gold.Version>
5.8.1

> <Gold.Id.Protein>
6NUR|6NUR_protein|mol2

> <Gold.PLP.Fitness>
41.5827

> <Gold.PLP.PLP>
-32.9115

> <Gold.PLP.part.hbond>
-1.9864

> <Gold.PLP.part.metal>
0.0000

> <Gold.PLP.part.buried>
-2.9954

> <Gold.PLP.part.nonpolar>
-28.3041

> <Gold.PLP.part.repulsive>
0.9452

> <Gold.PLP.ligand.clash>
0.0000

> <Gold.PLP.ligand.torsion>
1.1072

> <Gold.PLP.Chemscore.Hbond>
1.9920

> <Gold.PLP.Chemscore.CHOScore>
1.4935

> <Gold.PLP.Chemscore.Metal>
0.0000

> <Gold.Chemscore.Hbonds>
donor molecule, donor type, donor heavy atom, donor atom, acceptor molecule, acceptor atom, score
      L1  H     6    34       P1  7948  0.99
      L1  H     9    35       P1  7948  1.00
      L1  C    12    37       P1 10186  0.97
      L1  C    14    38       P1 10747  0.32

> <Gold.PLP.Chemscore.Internal.Correction>
0.4291

> <Gold.Rescore>
     Score         DG    S(hbond)    S(metal)    S(lipo)     H(rot)  DE(clash)    DE(int)     intcor
     13.25     -16.24       1.94        0.00      72.24       1.63       0.00       2.98       ----

> <Gold.Chemscore.Fitness>
13.2542

> <Gold.Chemscore.DG>
-16.2439

> <Gold.Chemscore.ZeroCoef>
-5.4800

> <Gold.Chemscore.Hbond>
1.9398

> <Gold.Chemscore.Metal>
0.0000

> <Gold.Chemscore.Lipo>
72.2376

> <Gold.Chemscore.Internal_Hbond>
0.0000

> <Gold.Chemscore.DEClash>
0.0048

> <Gold.Chemscore.DEInternal>
2.9849

> <Gold.Chemscore.Rot>
1.6277

> <Gold.Chemscore.Internal.Correction>
   9.000000E+99

> <Gold.Chemscore.Hbonds>
donor molecule, donor type, donor heavy atom, donor atom, acceptor molecule, acceptor atom, score
      L1  H     6    34       P1  7948  0.93
      L1  H     9    35       P1  7948  0.95

> <Gold.Chemscore.Hbond.Weighted>
-6.4791

> <Gold.Chemscore.Metal.Weighted>
-0.0000

> <Gold.Chemscore.Lipo.Weighted>
-8.4518

> <Gold.Chemscore.Internal_Hbond.Weighted>
0.0000

> <Gold.Chemscore.DEClash.Weighted>
0.0048

> <Gold.Chemscore.DEInternal.Weighted>
2.9849

> <Gold.Chemscore.Rot.Weighted>
4.1670

> <Gold.Chemscore.Internal.Correction.Weighted>
   9.000000E+99

> <Gold.Protein.RotatedTorsions>
[ 6907 6896 6895 6894 ] final -158.38 input  -60.11 | X-H torsion
[ 7974 7965 7964 7962 ] final   17.28 input  175.53 | X-H torsion
[ 8008 7997 7996 7995 ] final   -1.98 input   59.86 | X-H torsion
[ 10167 10162 10161 10158 ] final -140.51 input  -65.29 | X-H torsion
[ 10718 10713 10712 10709 ] final -129.97 input   66.30 | X-H torsion
[ 10763 10752 10751 10750 ] final -107.91 input  -60.55 | X-H torsion
[ 11005 11000 10999 10996 ] final   12.53 input  -57.11 | X-H torsion

> <Gold.Protein.ActiveResidues>
 VAL166  LYS551  ARG553  GLY616  TRP617  ASP618  TYR619  PRO620  LYS621  CYS622 
 ASP623  PHE694  ASN695  SER759  ASP760  ASP761  ALA762  ILE779  LEU786  VAL792 
 PHE793  MET794  SER795  GLU796  ALA797  LYS798  CYS799  TRP800  GLU811  SER814 

> <Gold.Protein.RotatedAtoms>
  151.3173  133.4055  159.2651 H   0  0  0  0  0  0  0  0  0  0  0  0  # atno 6907 bound_to 6896
  151.0064  134.9363  159.7993 H   0  0  0  0  0  0  0  0  0  0  0  0  # atno 6908 bound_to 6896
  152.5289  134.3137  159.9175 H   0  0  0  0  0  0  0  0  0  0  0  0  # atno 6909 bound_to 6896
  146.2223  139.8625  142.8602 H   0  0  0  0  0  0  0  0  0  0  0  0  # atno 7974 bound_to 7965
  154.6408  140.2546  155.7324 H   0  0  0  0  0  0  0  0  0  0  0  0  # atno 8008 bound_to 7997
  156.2528  140.2888  156.0721 H   0  0  0  0  0  0  0  0  0  0  0  0  # atno 8009 bound_to 7997
  155.1599  140.0384  157.2830 H   0  0  0  0  0  0  0  0  0  0  0  0  # atno 8010 bound_to 7997
  139.8274  143.7492  152.2666 H   0  0  0  0  0  0  0  0  0  0  0  0  # atno 10167 bound_to 10162
  156.2098  130.6911  151.0636 H   0  0  0  0  0  0  0  0  0  0  0  0  # atno 10718 bound_to 10713
  154.8104  135.4657  154.0500 H   0  0  0  0  0  0  0  0  0  0  0  0  # atno 10763 bound_to 10752
  153.1936  135.6859  153.8327 H   0  0  0  0  0  0  0  0  0  0  0  0  # atno 10764 bound_to 10752
  153.7836  135.3253  155.3346 H   0  0  0  0  0  0  0  0  0  0  0  0  # atno 10765 bound_to 10752
  140.4910  134.0840  155.7771 H   0  0  0  0  0  0  0  0  0  0  0  0  # atno 11005 bound_to 11000
  145.2690  141.0102  143.3783 LP  0  0  0  0  0  0  0  0  0  0  0  0  # atno 17320 bound_to 7965
  144.9239  139.4379  143.6528 LP  0  0  0  0  0  0  0  0  0  0  0  0  # atno 17321 bound_to 7965
  139.7689  144.7483  151.0253 LP  0  0  0  0  0  0  0  0  0  0  0  0  # atno 17342 bound_to 10162
  140.7809  143.4667  151.0203 LP  0  0  0  0  0  0  0  0  0  0  0  0  # atno 17343 bound_to 10162
  157.7032  131.0767  150.6752 LP  0  0  0  0  0  0  0  0  0  0  0  0  # atno 17370 bound_to 10713
  156.6811  130.4567  149.5627 LP  0  0  0  0  0  0  0  0  0  0  0  0  # atno 17371 bound_to 10713
  141.1484  133.9013  157.2159 LP  0  0  0  0  0  0  0  0  0  0  0  0  # atno 17394 bound_to 11000
  139.9769  135.0111  156.9654 LP  0  0  0  0  0  0  0  0  0  0  0  0  # atno 17395 bound_to 11000

$$$$
