AV-unprocessed.smi:626|AV-procd|sdf|3112|dock6
  -GOLD-   22720 0 33D 1   1.00000     0.00000
 Structure written by MMmdl.
 34 36  0  0  0  0  0  0  0  0  1 V2000
  147.3860  139.1888  154.0986 C   0  0  0  0  0  0  0  0  0  0  0  0
  148.7226  138.8476  154.5604 N   0  0  0  0  0  0  0  0  0  0  0  0
  149.7475  139.7116  154.6095 C   0  0  0  0  0  0  0  0  0  0  0  0
  149.6565  140.8879  154.2571 O   0  0  0  0  0  0  0  0  0  0  0  0
  151.0783  139.1693  155.1361 C   0  0  0  0  0  0  0  0  0  0  0  0
  151.5008  139.9078  156.3659 C   0  0  0  0  0  0  0  0  0  0  0  0
  152.6410  139.6249  156.9849 N   0  0  0  0  0  0  0  0  0  0  0  0
  152.6627  140.5329  158.0531 O   0  0  0  0  0  0  0  0  0  0  0  0
  151.5070  141.2361  157.9700 C   0  0  0  0  0  0  0  0  0  0  0  0
  151.2869  142.3652  158.9304 C   0  0  1  0  0  0  0  0  0  0  0  0
  152.4358  142.5722  159.9395 C   0  0  0  0  0  0  0  0  0  0  0  0
  152.7229  144.0808  159.8169 C   0  0  2  0  0  0  0  0  0  0  0  0
  151.5307  144.8881  160.3674 C   0  0  0  0  0  0  0  0  0  0  0  0
  150.4566  144.7019  159.2762 C   0  0  0  0  0  0  0  0  0  0  0  0
  151.1537  143.7599  158.2759 C   0  0  1  0  0  0  0  0  0  0  0  0
  152.5823  144.2983  158.3156 C   0  0  0  0  0  0  0  0  0  0  0  0
  150.7684  140.9195  156.9078 N   0  0  0  0  0  0  0  0  0  0  0  0
  146.7634  138.2947  154.0682 H   0  0  0  0  0  0  0  0  0  0  0  0
  147.4148  139.6171  153.0958 H   0  0  0  0  0  0  0  0  0  0  0  0
  146.9183  139.9082  154.7717 H   0  0  0  0  0  0  0  0  0  0  0  0
  148.8773  137.8984  154.8688 H   0  0  0  0  0  0  0  0  0  0  0  0
  151.0015  138.1033  155.3559 H   0  0  0  0  0  0  0  0  0  0  0  0
  151.8402  139.2784  154.3631 H   0  0  0  0  0  0  0  0  0  0  0  0
  150.3676  142.1359  159.4718 H   0  0  0  0  0  0  0  0  0  0  0  0
  152.1630  142.2727  160.9520 H   0  0  0  0  0  0  0  0  0  0  0  0
  153.3207  142.0021  159.6519 H   0  0  0  0  0  0  0  0  0  0  0  0
  153.6847  144.3772  160.2366 H   0  0  0  0  0  0  0  0  0  0  0  0
  151.2024  144.5226  161.3411 H   0  0  0  0  0  0  0  0  0  0  0  0
  151.7885  145.9424  160.4746 H   0  0  0  0  0  0  0  0  0  0  0  0
  149.5272  144.2879  159.6689 H   0  0  0  0  0  0  0  0  0  0  0  0
  150.2211  145.6572  158.8055 H   0  0  0  0  0  0  0  0  0  0  0  0
  150.6780  143.7513  157.2944 H   0  0  0  0  0  0  0  0  0  0  0  0
  152.6591  145.3464  158.0206 H   0  0  0  0  0  0  0  0  0  0  0  0
  153.2890  143.7118  157.7267 H   0  0  0  0  0  0  0  0  0  0  0  0
  1  2  1  0  0  0  0
  1 18  1  0  0  0  0
  1 19  1  0  0  0  0
  1 20  1  0  0  0  0
  2  3  1  0  0  0  0
  2 21  1  0  0  0  0
  3  4  2  0  0  0  0
  3  5  1  0  0  0  0
  5  6  1  0  0  0  0
  5 22  1  0  0  0  0
  5 23  1  0  0  0  0
  6 17  1  0  0  0  0
  6  7  2  0  0  0  0
  7  8  1  0  0  0  0
  8  9  1  0  0  0  0
  9 10  1  0  0  0  0
  9 17  2  0  0  0  0
 10 15  1  0  0  0  0
 10 11  1  0  0  0  0
 10 24  1  0  0  0  0
 11 12  1  0  0  0  0
 11 25  1  0  0  0  0
 11 26  1  0  0  0  0
 12 16  1  0  0  0  0
 12 13  1  0  0  0  0
 12 27  1  0  0  0  0
 13 14  1  0  0  0  0
 13 28  1  0  0  0  0
 13 29  1  0  0  0  0
 14 15  1  0  0  0  0
 14 30  1  0  0  0  0
 14 31  1  0  0  0  0
 15 16  1  0  0  0  0
 15 32  1  0  0  0  0
 16 33  1  0  0  0  0
 16 34  1  0  0  0  0
M  END
> <s_m_source_file>
AV-unprocessed.smi

> <i_m_source_file_index>
626

> <i_lp_mmshare_version>
43012

> <i_f3d_flags>
0

> <s_epik_input>
W0NIM11bTkhdQyg9TylbQ0gyXWMxbm9jKG4xKVtDQEhdKFtDSDJdW0NAQEhdMjMpW0NAQEhdKFtDSDJdMylbQ0gyXVtDSDJdMg==

> <s_epik_cmdline>
J2VwaWtfcHl0aG9uJywgJy1waCcsICc3LjAnLCAnLXRuJywgJzgnLCAnLW1hJywgJzIwMCcsICctbWV0YWxfYmluZGluZycsICctaW1hZScsICc8aW5maWxlLm1hZT4nLCAnLW9tYWUnLCAnPG91dGZpbGUubWFlPic=

> <r_lp_tautomer_probability>
1

> <r_epik_Ionization_Penalty>
1.02916e-07

> <r_epik_Ionization_Penalty_Charging>
0

> <r_epik_Ionization_Penalty_Neutral>
1.02916e-07

> <r_epik_State_Penalty>
-0

> <r_epik_Charging_Adjusted_Penalty>
0

> <i_epik_Tot_Q>
0

> <i_epik_Tot_abs_Q>
0

> <r_epik_Metal_State_Penalty>
-0

> <b_epik_Metal_Only>
0

> <s_lp_Force_Field>
OPLS_2005

> <r_lp_Energy>
48.5493

> <b_lp_Chiralities_Consistent>
1

> <s_lp_Variant>
AV-unprocessed.smi:626-4

> <Gold.Version>
5.8.1

> <Gold.Id.Protein>
6NUR|6NUR_protein|mol2

> <Gold.PLP.Fitness>
42.2881

> <Gold.PLP.PLP>
-37.9684

> <Gold.PLP.part.hbond>
-3.7143

> <Gold.PLP.part.metal>
0.0000

> <Gold.PLP.part.buried>
-2.9247

> <Gold.PLP.part.nonpolar>
-31.9391

> <Gold.PLP.part.repulsive>
0.5382

> <Gold.PLP.ligand.clash>
0.0000

> <Gold.PLP.ligand.torsion>
0.0577

> <Gold.PLP.Chemscore.Hbond>
1.4495

> <Gold.PLP.Chemscore.CHOScore>
0.0000

> <Gold.PLP.Chemscore.Metal>
0.0000

> <Gold.Chemscore.Hbonds>
donor molecule, donor type, donor heavy atom, donor atom, acceptor molecule, acceptor atom, score
      P1  H  7989  7998       L1     4  0.31
      P1  H  7997  8010       L1     7  0.73

> <Gold.PLP.Chemscore.Internal.Correction>
0.0865

> <Gold.Rescore>
     Score         DG    S(hbond)    S(metal)    S(lipo)     H(rot)  DE(clash)    DE(int)     intcor
     13.76     -15.30       0.98        0.00      91.21       1.61       1.27       0.27       ----

> <Gold.Chemscore.Fitness>
13.7629

> <Gold.Chemscore.DG>
-15.3023

> <Gold.Chemscore.ZeroCoef>
-5.4800

> <Gold.Chemscore.Hbond>
0.9814

> <Gold.Chemscore.Metal>
0.0000

> <Gold.Chemscore.Lipo>
91.2053

> <Gold.Chemscore.Internal_Hbond>
0.0000

> <Gold.Chemscore.DEClash>
1.2743

> <Gold.Chemscore.DEInternal>
0.2650

> <Gold.Chemscore.Rot>
1.6119

> <Gold.Chemscore.Internal.Correction>
   9.000000E+99

> <Gold.Chemscore.Hbonds>
donor molecule, donor type, donor heavy atom, donor atom, acceptor molecule, acceptor atom, score
      P1  H  7989  7998       L1     4  0.03
      P1  H  7997  8010       L1     7  0.09
      P1  H  8011  8017       L1     4  0.03

> <Gold.Chemscore.Hbond.Weighted>
-3.2778

> <Gold.Chemscore.Metal.Weighted>
-0.0000

> <Gold.Chemscore.Lipo.Weighted>
-10.6710

> <Gold.Chemscore.Internal_Hbond.Weighted>
0.0000

> <Gold.Chemscore.DEClash.Weighted>
1.2743

> <Gold.Chemscore.DEInternal.Weighted>
0.2650

> <Gold.Chemscore.Rot.Weighted>
4.1266

> <Gold.Chemscore.Internal.Correction.Weighted>
   9.000000E+99

> <Gold.Protein.RotatedTorsions>
[ 6907 6896 6895 6894 ] final  127.83 input  -60.11 | X-H torsion
[ 7974 7965 7964 7962 ] final  106.21 input  175.53 | X-H torsion
[ 8008 7997 7996 7995 ] final   82.63 input   59.86 | X-H torsion
[ 10167 10162 10161 10158 ] final  178.96 input  -65.29 | X-H torsion
[ 10718 10713 10712 10709 ] final  -76.61 input   66.30 | X-H torsion
[ 10763 10752 10751 10750 ] final  149.03 input  -60.55 | X-H torsion
[ 11005 11000 10999 10996 ] final   27.75 input  -57.11 | X-H torsion

> <Gold.Protein.ActiveResidues>
 VAL166  LYS551  ARG553  GLY616  TRP617  ASP618  TYR619  PRO620  LYS621  CYS622 
 ASP623  PHE694  ASN695  SER759  ASP760  ASP761  ALA762  ILE779  LEU786  VAL792 
 PHE793  MET794  SER795  GLU796  ALA797  LYS798  CYS799  TRP800  GLU811  SER814 

> <Gold.Protein.RotatedAtoms>
  152.3776  133.6503  159.6135 H   0  0  0  0  0  0  0  0  0  0  0  0  # atno 6907 bound_to 6896
  150.7716  133.9167  159.3394 H   0  0  0  0  0  0  0  0  0  0  0  0  # atno 6908 bound_to 6896
  151.6978  135.0936  160.0296 H   0  0  0  0  0  0  0  0  0  0  0  0  # atno 6909 bound_to 6896
  145.3096  139.2544  143.3770 H   0  0  0  0  0  0  0  0  0  0  0  0  # atno 7974 bound_to 7965
  155.9132  140.3426  155.6115 H   0  0  0  0  0  0  0  0  0  0  0  0  # atno 8008 bound_to 7997
  155.7362  140.0802  157.2285 H   0  0  0  0  0  0  0  0  0  0  0  0  # atno 8009 bound_to 7997
  154.4059  140.1579  156.2552 H   0  0  0  0  0  0  0  0  0  0  0  0  # atno 8010 bound_to 7997
  139.5316  144.2618  152.0701 H   0  0  0  0  0  0  0  0  0  0  0  0  # atno 10167 bound_to 10162
  156.0170  130.4470  150.3219 H   0  0  0  0  0  0  0  0  0  0  0  0  # atno 10718 bound_to 10713
  154.0644  135.2871  155.3319 H   0  0  0  0  0  0  0  0  0  0  0  0  # atno 10763 bound_to 10752
  154.6787  135.5271  153.8237 H   0  0  0  0  0  0  0  0  0  0  0  0  # atno 10764 bound_to 10752
  153.0510  135.6576  154.0830 H   0  0  0  0  0  0  0  0  0  0  0  0  # atno 10765 bound_to 10752
  140.3230  134.2522  155.7714 H   0  0  0  0  0  0  0  0  0  0  0  0  # atno 11005 bound_to 11000
  146.3123  140.3628  142.8666 LP  0  0  0  0  0  0  0  0  0  0  0  0  # atno 17320 bound_to 7965
  144.9027  140.7662  143.5857 LP  0  0  0  0  0  0  0  0  0  0  0  0  # atno 17321 bound_to 7965
  140.2082  144.4589  150.6398 LP  0  0  0  0  0  0  0  0  0  0  0  0  # atno 17342 bound_to 10162
  140.6497  143.2222  151.6105 LP  0  0  0  0  0  0  0  0  0  0  0  0  # atno 17343 bound_to 10162
  157.1319  131.0274  151.2965 LP  0  0  0  0  0  0  0  0  0  0  0  0  # atno 17370 bound_to 10713
  157.4543  130.7616  149.7179 LP  0  0  0  0  0  0  0  0  0  0  0  0  # atno 17371 bound_to 10713
  141.2082  133.7784  157.0073 LP  0  0  0  0  0  0  0  0  0  0  0  0  # atno 17394 bound_to 11000
  140.0926  134.9583  157.1799 LP  0  0  0  0  0  0  0  0  0  0  0  0  # atno 17395 bound_to 11000

$$$$
