AV-unprocessed.smi:2761|AV-procd|sdf|10635|dock3
  -GOLD-   2272015 83D 1   1.00000     0.00000
 Structure written by MMmdl.
 26 27  0  0  0  0  0  0  0  0  2 V2000
  153.3290  141.1856  158.9208 O   0  0  0  0  0  0  0  0  0  0  0  0
  152.2408  141.6611  158.5893 C   0  0  0  0  0  0  0  0  0  0  0  0
  151.4574  141.1897  157.5954 N   0  0  0  0  0  0  0  0  0  0  0  0
  151.6987  140.1094  156.7408 C   0  0  0  0  0  0  0  0  0  0  0  0
  150.6024  139.8689  155.8378 C   0  0  0  0  0  0  0  0  0  0  0  0
  150.7278  138.8472  154.9622 C   0  0  0  0  0  0  0  0  0  0  0  0
  151.9337  138.0154  154.9313 C   0  0  0  0  0  0  0  0  0  0  0  0
  152.0047  137.0974  154.1173 O   0  0  0  0  0  0  0  0  0  0  0  0
  152.9369  138.3025  155.8206 N   0  5  0  0  0  0  0  0  0  0  0  0
  152.7873  139.4016  156.7536 N   0  0  0  0  0  0  0  0  0  0  0  0
  151.6724  142.8709  159.3459 C   0  0  1  0  0  0  0  0  0  0  0  0
  152.5976  143.3710  160.4802 C   0  0  0  0  0  0  0  0  0  0  0  0
  152.0130  144.5119  161.0951 O   0  0  0  0  0  0  0  0  0  0  0  0
  151.8271  145.5652  160.1601 C   0  0  0  0  0  0  0  0  0  0  0  0
  150.8973  145.0768  159.0378 C   0  0  0  0  0  0  0  0  0  0  0  0
  151.4775  143.9365  158.4189 O   0  0  0  0  0  0  0  0  0  0  0  0
  150.5917  141.6896  157.4577 H   0  0  0  0  0  0  0  0  0  0  0  0
  149.6986  140.4604  155.8314 H   0  0  0  0  0  0  0  0  0  0  0  0
  149.9244  138.6386  154.2713 H   0  0  0  0  0  0  0  0  0  0  0  0
  150.7078  142.5755  159.7626 H   0  0  0  0  0  0  0  0  0  0  0  0
  152.7261  142.6004  161.2410 H   0  0  0  0  0  0  0  0  0  0  0  0
  153.5909  143.6200  160.1021 H   0  0  0  0  0  0  0  0  0  0  0  0
  151.3877  146.4221  160.6706 H   0  0  0  0  0  0  0  0  0  0  0  0
  152.7885  145.8876  159.7574 H   0  0  0  0  0  0  0  0  0  0  0  0
  149.9090  144.8318  159.4293 H   0  0  0  0  0  0  0  0  0  0  0  0
  150.7629  145.8583  158.2898 H   0  0  0  0  0  0  0  0  0  0  0  0
  1  2  2  0  0  0  0
  2  3  1  0  0  0  0
  2 11  1  0  0  0  0
  3 17  1  0  0  0  0
  3  4  1  0  0  0  0
  4  5  1  0  0  0  0
  4 10  2  0  0  0  0
  5  6  2  0  0  0  0
  5 18  1  0  0  0  0
  6  7  1  0  0  0  0
  6 19  1  0  0  0  0
  7  8  2  0  0  0  0
  7  9  1  0  0  0  0
  9 10  1  0  0  0  0
 11 16  1  0  0  0  0
 11 12  1  0  0  0  0
 11 20  1  0  0  0  0
 12 13  1  0  0  0  0
 12 21  1  0  0  0  0
 12 22  1  0  0  0  0
 13 14  1  0  0  0  0
 14 15  1  0  0  0  0
 14 23  1  0  0  0  0
 14 24  1  0  0  0  0
 15 16  1  0  0  0  0
 15 25  1  0  0  0  0
 15 26  1  0  0  0  0
M  CHG  1   9  -1
M  END
> <s_m_source_file>
AV-unprocessed.smi

> <i_m_source_file_index>
2761

> <i_lp_mmshare_version>
43012

> <i_f3d_flags>
0

> <s_epik_input>
TzFbQ0gyXVtDSDJdT1tDSDJdW0NASF0xQyg9TylbTkhdYzJbY0hdW2NIXWMoW09IXSlubjI=

> <s_epik_cmdline>
J2VwaWtfcHl0aG9uJywgJy1waCcsICc3LjAnLCAnLXRuJywgJzgnLCAnLW1hJywgJzIwMCcsICctbWV0YWxfYmluZGluZycsICctaW1hZScsICc8aW5maWxlLm1hZT4nLCAnLW9tYWUnLCAnPG91dGZpbGUubWFlPic=

> <r_lp_tautomer_probability>
1

> <r_epik_Ionization_Penalty>
4.21844

> <r_epik_Ionization_Penalty_Charging>
0.119247

> <r_epik_Ionization_Penalty_Neutral>
4.0992

> <r_epik_State_Penalty>
4.09486

> <r_epik_Charging_Adjusted_Penalty>
4.2141

> <i_epik_Tot_Q>
-1

> <i_epik_Tot_abs_Q>
1

> <r_epik_Metal_State_Penalty>
0.651223

> <b_epik_Metal_Only>
1

> <s_lp_Force_Field>
OPLS_2005

> <r_lp_Energy>
28.3135

> <b_lp_Chiralities_Consistent>
1

> <s_lp_Variant>
AV-unprocessed.smi:2761-4

> <Gold.Version>
5.8.1

> <Gold.Id.Protein>
6NUR|6NUR_protein|mol2

> <Gold.PLP.Fitness>
37.2361

> <Gold.PLP.PLP>
-31.4069

> <Gold.PLP.part.hbond>
-2.3631

> <Gold.PLP.part.metal>
0.0000

> <Gold.PLP.part.buried>
-6.8648

> <Gold.PLP.part.nonpolar>
-25.0308

> <Gold.PLP.part.repulsive>
1.8301

> <Gold.PLP.ligand.clash>
0.0000

> <Gold.PLP.ligand.torsion>
0.0024

> <Gold.PLP.Chemscore.Hbond>
1.9440

> <Gold.PLP.Chemscore.CHOScore>
0.0000

> <Gold.PLP.Chemscore.Metal>
0.0000

> <Gold.Chemscore.Hbonds>
donor molecule, donor type, donor heavy atom, donor atom, acceptor molecule, acceptor atom, score
      P1  H  7997  8010       L1    10  0.95
      P1  H 10752 10764       L1     8  0.96

> <Gold.PLP.Chemscore.Internal.Correction>
0.0020

> <Gold.Rescore>
     Score         DG    S(hbond)    S(metal)    S(lipo)     H(rot)  DE(clash)    DE(int)     intcor
     11.57     -14.58       1.52        0.00      56.35       1.00       1.33       1.69       ----

> <Gold.Chemscore.Fitness>
11.5662

> <Gold.Chemscore.DG>
-14.5843

> <Gold.Chemscore.ZeroCoef>
-5.4800

> <Gold.Chemscore.Hbond>
1.5185

> <Gold.Chemscore.Metal>
0.0000

> <Gold.Chemscore.Lipo>
56.3467

> <Gold.Chemscore.Internal_Hbond>
0.0000

> <Gold.Chemscore.DEClash>
1.3326

> <Gold.Chemscore.DEInternal>
1.6855

> <Gold.Chemscore.Rot>
1.0000

> <Gold.Chemscore.Internal.Correction>
   9.000000E+99

> <Gold.Chemscore.Hbonds>
donor molecule, donor type, donor heavy atom, donor atom, acceptor molecule, acceptor atom, score
      P1  H  7997  8010       L1    10  0.21
      P1  H 10752 10764       L1     8  0.92

> <Gold.Chemscore.Hbond.Weighted>
-5.0717

> <Gold.Chemscore.Metal.Weighted>
-0.0000

> <Gold.Chemscore.Lipo.Weighted>
-6.5926

> <Gold.Chemscore.Internal_Hbond.Weighted>
0.0000

> <Gold.Chemscore.DEClash.Weighted>
1.3326

> <Gold.Chemscore.DEInternal.Weighted>
1.6855

> <Gold.Chemscore.Rot.Weighted>
2.5600

> <Gold.Chemscore.Internal.Correction.Weighted>
   9.000000E+99

> <Gold.Protein.RotatedTorsions>
[ 6907 6896 6895 6894 ] final  -11.62 input  -60.11 | X-H torsion
[ 7974 7965 7964 7962 ] final  -11.31 input  175.53 | X-H torsion
[ 8008 7997 7996 7995 ] final   57.36 input   59.86 | X-H torsion
[ 10167 10162 10161 10158 ] final -175.50 input  -65.29 | X-H torsion
[ 10718 10713 10712 10709 ] final  -62.60 input   66.30 | X-H torsion
[ 10763 10752 10751 10750 ] final  -96.35 input  -60.55 | X-H torsion
[ 11005 11000 10999 10996 ] final   37.79 input  -57.11 | X-H torsion

> <Gold.Protein.ActiveResidues>
 VAL166  LYS551  ARG553  GLY616  TRP617  ASP618  TYR619  PRO620  LYS621  CYS622 
 ASP623  PHE694  ASN695  SER759  ASP760  ASP761  ALA762  ILE779  LEU786  VAL792 
 PHE793  MET794  SER795  GLU796  ALA797  LYS798  CYS799  TRP800  GLU811  SER814 

> <Gold.Protein.RotatedAtoms>
  151.3834  135.0943  159.9502 H   0  0  0  0  0  0  0  0  0  0  0  0  # atno 6907 bound_to 6896
  152.5101  133.9050  159.7470 H   0  0  0  0  0  0  0  0  0  0  0  0  # atno 6908 bound_to 6896
  150.9488  133.6517  159.2805 H   0  0  0  0  0  0  0  0  0  0  0  0  # atno 6909 bound_to 6896
  146.2191  140.2893  142.8367 H   0  0  0  0  0  0  0  0  0  0  0  0  # atno 7974 bound_to 7965
  155.5324  140.3482  155.4429 H   0  0  0  0  0  0  0  0  0  0  0  0  # atno 8008 bound_to 7997
  156.0709  140.1363  156.9857 H   0  0  0  0  0  0  0  0  0  0  0  0  # atno 8009 bound_to 7997
  154.4527  140.0966  156.6642 H   0  0  0  0  0  0  0  0  0  0  0  0  # atno 8010 bound_to 7997
  139.5578  144.1946  152.1188 H   0  0  0  0  0  0  0  0  0  0  0  0  # atno 10167 bound_to 10162
  156.0844  130.4211  150.1158 H   0  0  0  0  0  0  0  0  0  0  0  0  # atno 10718 bound_to 10713
  154.7231  135.5087  153.8844 H   0  0  0  0  0  0  0  0  0  0  0  0  # atno 10763 bound_to 10752
  153.0880  135.6651  153.9918 H   0  0  0  0  0  0  0  0  0  0  0  0  # atno 10764 bound_to 10752
  153.9736  135.3036  155.3405 H   0  0  0  0  0  0  0  0  0  0  0  0  # atno 10765 bound_to 10752
  140.2190  134.3664  155.8013 H   0  0  0  0  0  0  0  0  0  0  0  0  # atno 11005 bound_to 11000
  144.9139  140.7789  143.5790 LP  0  0  0  0  0  0  0  0  0  0  0  0  # atno 17320 bound_to 7965
  145.2825  139.1913  143.4783 LP  0  0  0  0  0  0  0  0  0  0  0  0  # atno 17321 bound_to 7965
  140.1454  144.5164  150.6719 LP  0  0  0  0  0  0  0  0  0  0  0  0  # atno 17342 bound_to 10162
  140.6853  143.2347  151.5277 LP  0  0  0  0  0  0  0  0  0  0  0  0  # atno 17343 bound_to 10162
  156.9182  130.9674  151.3552 LP  0  0  0  0  0  0  0  0  0  0  0  0  # atno 17370 bound_to 10713
  157.5974  130.8487  149.8749 LP  0  0  0  0  0  0  0  0  0  0  0  0  # atno 17371 bound_to 10713
  141.2224  133.7183  156.8544 LP  0  0  0  0  0  0  0  0  0  0  0  0  # atno 17394 bound_to 11000
  140.1870  134.8993  157.3016 LP  0  0  0  0  0  0  0  0  0  0  0  0  # atno 17395 bound_to 11000

$$$$
