AV-unprocessed.smi:181|AV-procd|sdf|1453|dock2
  -GOLD-   2262019253D 1   1.00000     0.00000
 Structure written by MMmdl.
 50 53  0  0  0  0  0  0  0  0  1 V2000
  150.6743  142.4265  157.4152 C   0  0  0  0  0  0  0  0  0  0  0  0
  149.5495  141.4186  157.1504 C   0  0  0  0  0  0  0  0  0  0  0  0
  149.8197  140.6029  155.9672 N   0  0  0  0  0  0  0  0  0  0  0  0
  150.9635  139.8835  156.0336 C   0  0  0  0  0  0  0  0  0  0  0  0
  151.5966  139.5076  154.8930 N   0  0  0  0  0  0  0  0  0  0  0  0
  152.7293  138.8016  154.9618 C   0  0  0  0  0  0  0  0  0  0  0  0
  153.3874  138.3818  156.0453 N   0  0  0  0  0  0  0  0  0  0  0  0
  152.7565  138.7710  157.1907 C   0  0  0  0  0  0  0  0  0  0  0  0
  151.5509  139.5206  157.2732 C   0  0  0  0  0  0  0  0  0  0  0  0
  151.2070  139.7315  158.6020 N   0  0  0  0  0  0  0  0  0  0  0  0
  152.1599  139.1399  159.2703 C   0  0  0  0  0  0  0  0  0  0  0  0
  153.1333  138.5406  158.5020 N   0  0  0  0  0  0  0  0  0  0  0  0
  154.3005  137.8174  158.9818 C   0  0  0  0  0  0  0  0  0  0  0  0
  153.9788  136.7489  160.0557 C   0  0  0  0  0  0  0  0  0  0  0  0
  152.8393  136.0292  159.6165 O   0  0  0  0  0  0  0  0  0  0  0  0
  155.1533  135.7603  160.1980 C   0  0  0  0  0  0  0  0  0  0  0  0
  154.9516  134.7838  161.3702 C   0  0  0  0  0  0  0  0  0  0  0  0
  154.7380  135.5084  162.5754 O   0  0  0  0  0  0  0  0  0  0  0  0
  153.5560  136.2989  162.5394 C   0  0  0  0  0  0  0  0  0  0  0  0
  153.6648  137.3666  161.4364 C   0  0  0  0  0  0  0  0  0  0  0  0
  149.2971  141.0181  154.6548 C   0  0  2  0  0  0  0  0  0  0  0  0
  148.1833  142.0832  154.7280 C   0  0  0  0  0  0  0  0  0  0  0  0
  147.2969  141.7981  153.5068 C   0  0  0  0  0  0  0  0  0  0  0  0
  147.5760  140.4127  153.1769 N   0  0  0  0  0  0  0  0  0  0  0  0
  148.6512  139.9298  153.7990 C   0  0  0  0  0  0  0  0  0  0  0  0
  149.0861  138.7850  153.6916 O   0  0  0  0  0  0  0  0  0  0  0  0
  150.4478  143.0363  158.2899 H   0  0  0  0  0  0  0  0  0  0  0  0
  150.8041  143.0984  156.5662 H   0  0  0  0  0  0  0  0  0  0  0  0
  151.6267  141.9294  157.5979 H   0  0  0  0  0  0  0  0  0  0  0  0
  149.4293  140.7710  158.0188 H   0  0  0  0  0  0  0  0  0  0  0  0
  148.6074  141.9611  157.0467 H   0  0  0  0  0  0  0  0  0  0  0  0
  153.1721  138.5367  154.0132 H   0  0  0  0  0  0  0  0  0  0  0  0
  152.1828  139.1277  160.3506 H   0  0  0  0  0  0  0  0  0  0  0  0
  154.7942  137.3580  158.1241 H   0  0  0  0  0  0  0  0  0  0  0  0
  155.0070  138.5462  159.3812 H   0  0  0  0  0  0  0  0  0  0  0  0
  152.4950  136.4540  158.8459 H   0  0  0  0  0  0  0  0  0  0  0  0
  155.3026  135.2062  159.2703 H   0  0  0  0  0  0  0  0  0  0  0  0
  156.0748  136.3180  160.3709 H   0  0  0  0  0  0  0  0  0  0  0  0
  154.1136  134.1104  161.1833 H   0  0  0  0  0  0  0  0  0  0  0  0
  155.8367  134.1589  161.4898 H   0  0  0  0  0  0  0  0  0  0  0  0
  152.6834  135.6622  162.3860 H   0  0  0  0  0  0  0  0  0  0  0  0
  153.4275  136.7795  163.5093 H   0  0  0  0  0  0  0  0  0  0  0  0
  154.4594  138.0631  161.7070 H   0  0  0  0  0  0  0  0  0  0  0  0
  152.7441  137.9502  161.4019 H   0  0  0  0  0  0  0  0  0  0  0  0
  150.1213  141.4209  154.0655 H   0  0  0  0  0  0  0  0  0  0  0  0
  147.5735  141.9852  155.6262 H   0  0  0  0  0  0  0  0  0  0  0  0
  148.5829  143.0978  154.7189 H   0  0  0  0  0  0  0  0  0  0  0  0
  146.2389  141.9511  153.7214 H   0  0  0  0  0  0  0  0  0  0  0  0
  147.5737  142.4300  152.6621 H   0  0  0  0  0  0  0  0  0  0  0  0
  146.9935  139.8736  152.5528 H   0  0  0  0  0  0  0  0  0  0  0  0
  1  2  1  0  0  0  0
  1 27  1  0  0  0  0
  1 28  1  0  0  0  0
  1 29  1  0  0  0  0
  2  3  1  0  0  0  0
  2 30  1  0  0  0  0
  2 31  1  0  0  0  0
  3  4  1  0  0  0  0
  3 21  1  0  0  0  0
  4  9  1  0  0  0  0
  4  5  2  0  0  0  0
  5  6  1  0  0  0  0
  6  7  2  0  0  0  0
  6 32  1  0  0  0  0
  7  8  1  0  0  0  0
  8 12  1  0  0  0  0
  8  9  2  0  0  0  0
  9 10  1  0  0  0  0
 10 11  2  0  0  0  0
 11 12  1  0  0  0  0
 11 33  1  0  0  0  0
 12 13  1  0  0  0  0
 13 14  1  0  0  0  0
 13 34  1  0  0  0  0
 13 35  1  0  0  0  0
 14 20  1  0  0  0  0
 14 15  1  0  0  0  0
 14 16  1  0  0  0  0
 15 36  1  0  0  0  0
 16 17  1  0  0  0  0
 16 37  1  0  0  0  0
 16 38  1  0  0  0  0
 17 18  1  0  0  0  0
 17 39  1  0  0  0  0
 17 40  1  0  0  0  0
 18 19  1  0  0  0  0
 19 20  1  0  0  0  0
 19 41  1  0  0  0  0
 19 42  1  0  0  0  0
 20 43  1  0  0  0  0
 20 44  1  0  0  0  0
 21 25  1  0  0  0  0
 21 22  1  0  0  0  0
 21 45  1  0  0  0  0
 22 23  1  0  0  0  0
 22 46  1  0  0  0  0
 22 47  1  0  0  0  0
 23 24  1  0  0  0  0
 23 48  1  0  0  0  0
 23 49  1  0  0  0  0
 24 25  1  0  0  0  0
 24 50  1  0  0  0  0
 25 26  2  0  0  0  0
M  END
> <s_m_source_file>
AV-unprocessed.smi

> <i_m_source_file_index>
181

> <i_lp_mmshare_version>
43012

> <i_f3d_flags>
0

> <s_epik_input>
Tz1DMVtOSF1bQ0gyXVtDSDJdW0NASF0xTihbQ0gyXVtDSDNdKWMobltjSF1uMiljKGMyMyluW2NIXW4zW0NIMl1DNChbT0hdKVtDSDJdW0NIMl1PW0NIMl1bQ0gyXTQ=

> <s_epik_cmdline>
J2VwaWtfcHl0aG9uJywgJy1waCcsICc3LjAnLCAnLXRuJywgJzgnLCAnLW1hJywgJzIwMCcsICctbWV0YWxfYmluZGluZycsICctaW1hZScsICc8aW5maWxlLm1hZT4nLCAnLW9tYWUnLCAnPG91dGZpbGUubWFlPic=

> <r_lp_tautomer_probability>
1

> <r_epik_Ionization_Penalty>
0.000985257

> <r_epik_Ionization_Penalty_Charging>
0

> <r_epik_Ionization_Penalty_Neutral>
0.000985257

> <r_epik_State_Penalty>
0.000517047

> <r_epik_Charging_Adjusted_Penalty>
0.000517047

> <i_epik_Tot_Q>
0

> <i_epik_Tot_abs_Q>
0

> <r_epik_Metal_State_Penalty>
-0

> <b_epik_Metal_Only>
0

> <s_lp_Force_Field>
OPLS_2005

> <r_lp_Energy>
35.7055

> <b_lp_Chiralities_Consistent>
1

> <s_lp_Variant>
AV-unprocessed.smi:181-1

> <Gold.Version>
5.8.1

> <Gold.Id.Protein>
6NUR|6NUR_protein|mol2

> <Gold.PLP.Fitness>
42.9023

> <Gold.PLP.PLP>
-37.0681

> <Gold.PLP.part.hbond>
-4.0000

> <Gold.PLP.part.metal>
0.0000

> <Gold.PLP.part.buried>
-0.9136

> <Gold.PLP.part.nonpolar>
-32.8846

> <Gold.PLP.part.repulsive>
0.6754

> <Gold.PLP.ligand.clash>
0.0000

> <Gold.PLP.ligand.torsion>
0.9514

> <Gold.PLP.Chemscore.Hbond>
2.1579

> <Gold.PLP.Chemscore.CHOScore>
0.0000

> <Gold.PLP.Chemscore.Metal>
0.0000

> <Gold.Chemscore.Hbonds>
donor molecule, donor type, donor heavy atom, donor atom, acceptor molecule, acceptor atom, score
      P1  H  6896  6907       L1    15  0.50
      P1  H  7989  7998       L1     5  1.00
      P1  H  7997  8008       L1     7  0.15

> <Gold.PLP.Chemscore.Internal.Correction>
1.2632

> <Gold.Rescore>
     Score         DG    S(hbond)    S(metal)    S(lipo)     H(rot)  DE(clash)    DE(int)     intcor
      8.45     -12.81       1.58        0.00      72.01       2.49       1.98       2.38       ----

> <Gold.Chemscore.Fitness>
8.4518

> <Gold.Chemscore.DG>
-12.8101

> <Gold.Chemscore.ZeroCoef>
-5.4800

> <Gold.Chemscore.Hbond>
1.5805

> <Gold.Chemscore.Metal>
0.0000

> <Gold.Chemscore.Lipo>
72.0059

> <Gold.Chemscore.Internal_Hbond>
0.0000

> <Gold.Chemscore.DEClash>
1.9783

> <Gold.Chemscore.DEInternal>
2.3801

> <Gold.Chemscore.Rot>
2.4897

> <Gold.Chemscore.Internal.Correction>
   9.000000E+99

> <Gold.Chemscore.Hbonds>
donor molecule, donor type, donor heavy atom, donor atom, acceptor molecule, acceptor atom, score
      P1  H  6896  6907       L1    15  0.46
      P1  H  7989  7998       L1     5  0.73

> <Gold.Chemscore.Hbond.Weighted>
-5.2789

> <Gold.Chemscore.Metal.Weighted>
-0.0000

> <Gold.Chemscore.Lipo.Weighted>
-8.4247

> <Gold.Chemscore.Internal_Hbond.Weighted>
0.0000

> <Gold.Chemscore.DEClash.Weighted>
1.9783

> <Gold.Chemscore.DEInternal.Weighted>
2.3801

> <Gold.Chemscore.Rot.Weighted>
6.3735

> <Gold.Chemscore.Internal.Correction.Weighted>
   9.000000E+99

> <Gold.Protein.RotatedTorsions>
[ 6907 6896 6895 6894 ] final   40.92 input  -60.11 | X-H torsion
[ 7974 7965 7964 7962 ] final  160.84 input  175.53 | X-H torsion
[ 8008 7997 7996 7995 ] final  -24.97 input   59.86 | X-H torsion
[ 10167 10162 10161 10158 ] final   20.07 input  -65.29 | X-H torsion
[ 10718 10713 10712 10709 ] final   -6.29 input   66.30 | X-H torsion
[ 10763 10752 10751 10750 ] final -148.10 input  -60.55 | X-H torsion
[ 11005 11000 10999 10996 ] final  -88.16 input  -57.11 | X-H torsion

> <Gold.Protein.ActiveResidues>
 VAL166  LYS551  ARG553  GLY616  TRP617  ASP618  TYR619  PRO620  LYS621  CYS622 
 ASP623  PHE694  ASN695  SER759  ASP760  ASP761  ALA762  ILE779  LEU786  VAL792 
 PHE793  MET794  SER795  GLU796  ALA797  LYS798  CYS799  TRP800  GLU811  SER814 

> <Gold.Protein.RotatedAtoms>
  152.1887  134.8691  160.0519 H   0  0  0  0  0  0  0  0  0  0  0  0  # atno 6907 bound_to 6896
  151.9588  133.3684  159.4036 H   0  0  0  0  0  0  0  0  0  0  0  0  # atno 6908 bound_to 6896
  150.6931  134.4186  159.5238 H   0  0  0  0  0  0  0  0  0  0  0  0  # atno 6909 bound_to 6896
  144.7716  139.7814  143.6295 H   0  0  0  0  0  0  0  0  0  0  0  0  # atno 7974 bound_to 7965
  154.4500  140.1939  156.0547 H   0  0  0  0  0  0  0  0  0  0  0  0  # atno 8008 bound_to 7997
  156.0627  140.3294  155.7454 H   0  0  0  0  0  0  0  0  0  0  0  0  # atno 8009 bound_to 7997
  155.5386  140.0584  157.2865 H   0  0  0  0  0  0  0  0  0  0  0  0  # atno 8010 bound_to 7997
  140.5531  143.9473  150.6591 H   0  0  0  0  0  0  0  0  0  0  0  0  # atno 10167 bound_to 10162
  156.7341  130.5189  149.5839 H   0  0  0  0  0  0  0  0  0  0  0  0  # atno 10718 bound_to 10713
  154.8251  135.3343  154.6921 H   0  0  0  0  0  0  0  0  0  0  0  0  # atno 10763 bound_to 10752
  153.7548  135.6937  153.4942 H   0  0  0  0  0  0  0  0  0  0  0  0  # atno 10764 bound_to 10752
  153.2151  135.4468  155.0375 H   0  0  0  0  0  0  0  0  0  0  0  0  # atno 10765 bound_to 10752
  141.1606  133.7553  156.9410 H   0  0  0  0  0  0  0  0  0  0  0  0  # atno 11005 bound_to 11000
  146.1867  139.5085  142.9832 LP  0  0  0  0  0  0  0  0  0  0  0  0  # atno 17320 bound_to 7965
  145.6307  141.0304  143.1865 LP  0  0  0  0  0  0  0  0  0  0  0  0  # atno 17321 bound_to 7965
  140.2904  143.3328  152.1068 LP  0  0  0  0  0  0  0  0  0  0  0  0  # atno 17342 bound_to 10162
  139.5036  144.6759  151.6130 LP  0  0  0  0  0  0  0  0  0  0  0  0  # atno 17343 bound_to 10162
  156.1509  130.6309  151.0594 LP  0  0  0  0  0  0  0  0  0  0  0  0  # atno 17370 bound_to 10713
  157.6846  131.0828  150.7276 LP  0  0  0  0  0  0  0  0  0  0  0  0  # atno 17371 bound_to 10713
  140.1321  134.9349  157.2352 LP  0  0  0  0  0  0  0  0  0  0  0  0  # atno 17394 bound_to 11000
  140.2940  134.3208  155.7307 LP  0  0  0  0  0  0  0  0  0  0  0  0  # atno 17395 bound_to 11000

$$$$
