AV-unprocessed.smi:2025|AV-procd|sdf|8197|dock3
  -GOLD-   2272010453D 1   1.00000     0.00000
 Structure written by MMmdl.
 39 40  0  0  0  0  0  0  0  0  1 V2000
  151.2478  141.6072  157.1483 C   0  0  0  0  0  0  0  0  0  0  0  0
  151.9648  141.5876  158.5070 C   0  0  2  0  0  0  0  0  0  0  0  0
  151.7579  140.2786  159.1229 N   0  0  0  0  0  0  0  0  0  0  0  0
  152.4986  139.1825  158.8975 C   0  0  0  0  0  0  0  0  0  0  0  0
  153.4619  139.1613  158.1301 O   0  0  0  0  0  0  0  0  0  0  0  0
  152.0984  137.9276  159.6849 C   0  0  0  0  0  0  0  0  0  0  0  0
  153.1715  137.4314  160.5564 N   0  0  0  0  0  0  0  0  0  0  0  0
  153.6031  138.2061  161.6179 C   0  0  0  0  0  0  0  0  0  0  0  0
  154.5944  137.8346  162.4567 C   0  0  0  0  0  0  0  0  0  0  0  0
  155.2790  136.5595  162.2842 C   0  0  0  0  0  0  0  0  0  0  0  0
  156.1936  136.1765  163.0153 O   0  0  0  0  0  0  0  0  0  0  0  0
  154.8146  135.7833  161.1978 N   0  0  0  0  0  0  0  0  0  0  0  0
  155.4691  134.5084  160.9903 C   0  0  0  0  0  0  0  0  0  0  0  0
  153.7836  136.1820  160.3150 C   0  0  0  0  0  0  0  0  0  0  0  0
  153.4204  135.4851  159.3645 O   0  0  0  0  0  0  0  0  0  0  0  0
  151.4640  142.6995  159.4529 C   0  0  2  0  0  0  0  0  0  0  0  0
  151.9590  144.1034  159.1011 C   0  0  0  0  0  0  0  0  0  0  0  0
  151.8481  144.8125  160.4310 C   0  0  0  0  0  0  0  0  0  0  0  0
  152.2783  143.7193  161.4033 C   0  0  0  0  0  0  0  0  0  0  0  0
  151.9323  142.4836  160.7836 O   0  0  0  0  0  0  0  0  0  0  0  0
  151.4204  142.5453  156.6206 H   0  0  0  0  0  0  0  0  0  0  0  0
  150.1706  141.4837  157.2649 H   0  0  0  0  0  0  0  0  0  0  0  0
  151.6075  140.8039  156.5045 H   0  0  0  0  0  0  0  0  0  0  0  0
  153.0291  141.7409  158.3191 H   0  0  0  0  0  0  0  0  0  0  0  0
  150.9927  140.2026  159.7769 H   0  0  0  0  0  0  0  0  0  0  0  0
  151.2176  138.1693  160.2815 H   0  0  0  0  0  0  0  0  0  0  0  0
  151.7800  137.1429  158.9963 H   0  0  0  0  0  0  0  0  0  0  0  0
  153.1279  139.1621  161.7838 H   0  0  0  0  0  0  0  0  0  0  0  0
  154.8857  138.4899  163.2645 H   0  0  0  0  0  0  0  0  0  0  0  0
  154.9604  133.9214  160.2264 H   0  0  0  0  0  0  0  0  0  0  0  0
  155.4382  133.9639  161.9358 H   0  0  0  0  0  0  0  0  0  0  0  0
  156.4951  134.7222  160.6864 H   0  0  0  0  0  0  0  0  0  0  0  0
  150.3730  142.7049  159.4852 H   0  0  0  0  0  0  0  0  0  0  0  0
  153.0014  144.0755  158.7801 H   0  0  0  0  0  0  0  0  0  0  0  0
  151.3707  144.5789  158.3159 H   0  0  0  0  0  0  0  0  0  0  0  0
  152.4667  145.7081  160.4950 H   0  0  0  0  0  0  0  0  0  0  0  0
  150.8117  145.0967  160.6178 H   0  0  0  0  0  0  0  0  0  0  0  0
  153.3587  143.7407  161.5495 H   0  0  0  0  0  0  0  0  0  0  0  0
  151.8026  143.8222  162.3788 H   0  0  0  0  0  0  0  0  0  0  0  0
  1  2  1  0  0  0  0
  1 21  1  0  0  0  0
  1 22  1  0  0  0  0
  1 23  1  0  0  0  0
  2  3  1  0  0  0  0
  2 16  1  0  0  0  0
  2 24  1  0  0  0  0
  3  4  1  0  0  0  0
  3 25  1  0  0  0  0
  4  5  2  0  0  0  0
  4  6  1  0  0  0  0
  6  7  1  0  0  0  0
  6 26  1  0  0  0  0
  6 27  1  0  0  0  0
  7 14  1  0  0  0  0
  7  8  1  0  0  0  0
  8  9  2  0  0  0  0
  8 28  1  0  0  0  0
  9 10  1  0  0  0  0
  9 29  1  0  0  0  0
 10 11  2  0  0  0  0
 10 12  1  0  0  0  0
 12 13  1  0  0  0  0
 12 14  1  0  0  0  0
 13 30  1  0  0  0  0
 13 31  1  0  0  0  0
 13 32  1  0  0  0  0
 14 15  2  0  0  0  0
 16 20  1  0  0  0  0
 16 17  1  0  0  0  0
 16 33  1  0  0  0  0
 17 18  1  0  0  0  0
 17 34  1  0  0  0  0
 17 35  1  0  0  0  0
 18 19  1  0  0  0  0
 18 36  1  0  0  0  0
 18 37  1  0  0  0  0
 19 20  1  0  0  0  0
 19 38  1  0  0  0  0
 19 39  1  0  0  0  0
M  END
> <s_m_source_file>
AV-unprocessed.smi

> <i_m_source_file_index>
2025

> <i_lp_mmshare_version>
43012

> <i_f3d_flags>
0

> <s_epik_input>
TzFbQ0gyXVtDSDJdW0NIMl1bQ0BIXTFbQ0BIXShbQ0gzXSlbTkhdQyg9TylbQ0gyXW4yW2NIXVtjSF1jKD1PKW4oW0NIM10pYzI9Tw==

> <s_epik_cmdline>
J2VwaWtfcHl0aG9uJywgJy1waCcsICc3LjAnLCAnLXRuJywgJzgnLCAnLW1hJywgJzIwMCcsICctbWV0YWxfYmluZGluZycsICctaW1hZScsICc8aW5maWxlLm1hZT4nLCAnLW9tYWUnLCAnPG91dGZpbGUubWFlPic=

> <r_lp_tautomer_probability>
1

> <r_epik_Ionization_Penalty>
3.54787e-08

> <r_epik_Ionization_Penalty_Charging>
1.24654e-08

> <r_epik_Ionization_Penalty_Neutral>
2.30132e-08

> <r_epik_State_Penalty>
-0

> <r_epik_Charging_Adjusted_Penalty>
1.24654e-08

> <i_epik_Tot_Q>
0

> <i_epik_Tot_abs_Q>
0

> <r_epik_Metal_State_Penalty>
-0

> <b_epik_Metal_Only>
0

> <s_lp_Force_Field>
OPLS_2005

> <r_lp_Energy>
25.7594

> <b_lp_Chiralities_Consistent>
1

> <s_lp_Variant>
AV-unprocessed.smi:2025-1

> <Gold.Version>
5.8.1

> <Gold.Id.Protein>
6NUR|6NUR_protein|mol2

> <Gold.PLP.Fitness>
37.9566

> <Gold.PLP.PLP>
-33.1118

> <Gold.PLP.part.hbond>
-2.3805

> <Gold.PLP.part.metal>
0.0000

> <Gold.PLP.part.buried>
-4.9927

> <Gold.PLP.part.nonpolar>
-25.3066

> <Gold.PLP.part.repulsive>
0.1922

> <Gold.PLP.ligand.clash>
0.0000

> <Gold.PLP.ligand.torsion>
0.5873

> <Gold.PLP.Chemscore.Hbond>
2.0000

> <Gold.PLP.Chemscore.CHOScore>
0.0000

> <Gold.PLP.Chemscore.Metal>
0.0000

> <Gold.Chemscore.Hbonds>
donor molecule, donor type, donor heavy atom, donor atom, acceptor molecule, acceptor atom, score
      P1  H  6896  6908       L1    15  0.70
      P1  H  7997  8008       L1     5  1.00

> <Gold.PLP.Chemscore.Internal.Correction>
0.0195

> <Gold.Rescore>
     Score         DG    S(hbond)    S(metal)    S(lipo)     H(rot)  DE(clash)    DE(int)     intcor
     16.83     -17.24       1.98        0.00      84.03       1.82       0.01       0.39       ----

> <Gold.Chemscore.Fitness>
16.8342

> <Gold.Chemscore.DG>
-17.2423

> <Gold.Chemscore.ZeroCoef>
-5.4800

> <Gold.Chemscore.Hbond>
1.9752

> <Gold.Chemscore.Metal>
0.0000

> <Gold.Chemscore.Lipo>
84.0310

> <Gold.Chemscore.Internal_Hbond>
0.0000

> <Gold.Chemscore.DEClash>
0.0149

> <Gold.Chemscore.DEInternal>
0.3933

> <Gold.Chemscore.Rot>
1.8228

> <Gold.Chemscore.Internal.Correction>
   9.000000E+99

> <Gold.Chemscore.Hbonds>
donor molecule, donor type, donor heavy atom, donor atom, acceptor molecule, acceptor atom, score
      P1  H  6896  6908       L1    15  0.30
      P1  H  7997  8008       L1     5  0.94

> <Gold.Chemscore.Hbond.Weighted>
-6.5972

> <Gold.Chemscore.Metal.Weighted>
-0.0000

> <Gold.Chemscore.Lipo.Weighted>
-9.8316

> <Gold.Chemscore.Internal_Hbond.Weighted>
0.0000

> <Gold.Chemscore.DEClash.Weighted>
0.0149

> <Gold.Chemscore.DEInternal.Weighted>
0.3933

> <Gold.Chemscore.Rot.Weighted>
4.6665

> <Gold.Chemscore.Internal.Correction.Weighted>
   9.000000E+99

> <Gold.Protein.RotatedTorsions>
[ 6907 6896 6895 6894 ] final  -51.73 input  -60.11 | X-H torsion
[ 7974 7965 7964 7962 ] final -159.04 input  175.53 | X-H torsion
[ 8008 7997 7996 7995 ] final -109.29 input   59.86 | X-H torsion
[ 10167 10162 10161 10158 ] final  131.53 input  -65.29 | X-H torsion
[ 10718 10713 10712 10709 ] final  137.58 input   66.30 | X-H torsion
[ 10763 10752 10751 10750 ] final  -13.87 input  -60.55 | X-H torsion
[ 11005 11000 10999 10996 ] final   50.39 input  -57.11 | X-H torsion

> <Gold.Protein.ActiveResidues>
 VAL166  LYS551  ARG553  GLY616  TRP617  ASP618  TYR619  PRO620  LYS621  CYS622 
 ASP623  PHE694  ASN695  SER759  ASP760  ASP761  ALA762  ILE779  LEU786  VAL792 
 PHE793  MET794  SER795  GLU796  ALA797  LYS798  CYS799  TRP800  GLU811  SER814 

> <Gold.Protein.RotatedAtoms>
  150.8584  134.7929  159.7063 H   0  0  0  0  0  0  0  0  0  0  0  0  # atno 6907 bound_to 6896
  152.4629  134.5140  159.9772 H   0  0  0  0  0  0  0  0  0  0  0  0  # atno 6908 bound_to 6896
  151.5248  133.3421  159.2943 H   0  0  0  0  0  0  0  0  0  0  0  0  # atno 6909 bound_to 6896
  144.7481  140.3742  143.6069 H   0  0  0  0  0  0  0  0  0  0  0  0  # atno 7974 bound_to 7965
  154.9571  140.0400  157.2172 H   0  0  0  0  0  0  0  0  0  0  0  0  # atno 8008 bound_to 7997
  154.7924  140.2838  155.5959 H   0  0  0  0  0  0  0  0  0  0  0  0  # atno 8009 bound_to 7997
  156.2951  140.2571  156.2774 H   0  0  0  0  0  0  0  0  0  0  0  0  # atno 8010 bound_to 7997
  139.5380  144.6702  151.4721 H   0  0  0  0  0  0  0  0  0  0  0  0  # atno 10167 bound_to 10162
  157.4346  131.1052  151.0212 H   0  0  0  0  0  0  0  0  0  0  0  0  # atno 10718 bound_to 10713
  153.5198  135.7016  153.5737 H   0  0  0  0  0  0  0  0  0  0  0  0  # atno 10763 bound_to 10752
  153.3791  135.3925  155.1844 H   0  0  0  0  0  0  0  0  0  0  0  0  # atno 10764 bound_to 10752
  154.8695  135.3831  154.4685 H   0  0  0  0  0  0  0  0  0  0  0  0  # atno 10765 bound_to 10752
  140.1021  134.5067  155.8753 H   0  0  0  0  0  0  0  0  0  0  0  0  # atno 11005 bound_to 11000
  145.7045  139.1669  143.2574 LP  0  0  0  0  0  0  0  0  0  0  0  0  # atno 17320 bound_to 7965
  146.1391  140.7082  142.9375 LP  0  0  0  0  0  0  0  0  0  0  0  0  # atno 17321 bound_to 7965
  140.6596  143.8527  150.6873 LP  0  0  0  0  0  0  0  0  0  0  0  0  # atno 17342 bound_to 10162
  140.1917  143.4031  152.1858 LP  0  0  0  0  0  0  0  0  0  0  0  0  # atno 17343 bound_to 10162
  157.1097  130.6016  149.5479 LP  0  0  0  0  0  0  0  0  0  0  0  0  # atno 17370 bound_to 10713
  155.9925  130.4984  150.7345 LP  0  0  0  0  0  0  0  0  0  0  0  0  # atno 17371 bound_to 10713
  141.2108  133.6699  156.6539 LP  0  0  0  0  0  0  0  0  0  0  0  0  # atno 17394 bound_to 11000
  140.3206  134.8011  157.4249 LP  0  0  0  0  0  0  0  0  0  0  0  0  # atno 17395 bound_to 11000

$$$$
