AV-unprocessed.smi:686|AV-procd|sdf|3349|dock9
  -GOLD-   22720 0323D 1   1.00000     0.00000
 Structure written by MMmdl.
 40 41  0  0  0  0  0  0  0  0  3 V2000
  150.1523  134.7068  155.2200 C   0  0  0  0  0  0  0  0  0  0  0  0
  149.1854  133.5020  155.1166 C   0  0  2  0  0  0  0  0  0  0  0  0
  148.9439  133.1221  153.6503 C   0  0  0  0  0  0  0  0  0  0  0  0
  147.8265  133.9836  153.1946 N   0  3  1  0  0  0  0  0  0  0  0  0
  147.0513  133.4776  152.0259 C   0  0  0  0  0  0  0  0  0  0  0  0
  146.0631  134.5337  151.4939 C   0  0  0  0  0  0  0  0  0  0  0  0
  146.2805  132.1939  152.3875 C   0  0  0  0  0  0  0  0  0  0  0  0
  147.0204  134.3355  154.3928 C   0  0  0  0  0  0  0  0  0  0  0  0
  147.7425  133.7395  155.6093 C   0  0  2  0  0  0  0  0  0  0  0  0
  147.6475  134.6012  156.7831 N   0  5  0  0  0  0  0  0  0  0  0  0
  148.3838  134.2214  158.1849 S   0  0  0  0  0  0  0  0  0  0  0  0
  149.0044  132.8859  158.1880 O   0  0  0  0  0  0  0  0  0  0  0  0
  149.2220  135.3349  158.6541 O   0  0  0  0  0  0  0  0  0  0  0  0
  146.9630  134.1440  159.3688 C   0  0  0  0  0  0  0  0  0  0  0  0
  147.1482  135.1630  160.4574 C   0  0  0  0  0  0  0  0  0  0  0  0
  147.2089  134.9560  161.8635 C   0  0  0  0  0  0  0  0  0  0  0  0
  147.3904  136.2128  162.3637 C   0  0  0  0  0  0  0  0  0  0  0  0
  147.4475  137.1211  161.3575 O   0  0  0  0  0  0  0  0  0  0  0  0
  147.2953  136.4410  160.1439 N   0  0  0  0  0  0  0  0  0  0  0  0
  149.7749  135.5949  154.7096 H   0  0  0  0  0  0  0  0  0  0  0  0
  151.1146  134.4622  154.7696 H   0  0  0  0  0  0  0  0  0  0  0  0
  150.3567  134.9785  156.2571 H   0  0  0  0  0  0  0  0  0  0  0  0
  149.6337  132.6625  155.6492 H   0  0  0  0  0  0  0  0  0  0  0  0
  149.8320  133.2655  153.0334 H   0  0  0  0  0  0  0  0  0  0  0  0
  148.6638  132.0679  153.5669 H   0  0  0  0  0  0  0  0  0  0  0  0
  147.7573  133.2432  151.2276 H   0  0  0  0  0  0  0  0  0  0  0  0
  145.4681  134.1327  150.6724 H   0  0  0  0  0  0  0  0  0  0  0  0
  146.5730  135.4167  151.1085 H   0  0  0  0  0  0  0  0  0  0  0  0
  145.3722  134.8581  152.2728 H   0  0  0  0  0  0  0  0  0  0  0  0
  145.6996  131.8359  151.5370 H   0  0  0  0  0  0  0  0  0  0  0  0
  145.5858  132.3687  153.2098 H   0  0  0  0  0  0  0  0  0  0  0  0
  146.9440  131.3808  152.6809 H   0  0  0  0  0  0  0  0  0  0  0  0
  146.9555  135.4233  154.4474 H   0  0  0  0  0  0  0  0  0  0  0  0
  146.0027  133.9465  154.3409 H   0  0  0  0  0  0  0  0  0  0  0  0
  147.2965  132.7617  155.7967 H   0  0  0  0  0  0  0  0  0  0  0  0
  146.0446  134.3330  158.8135 H   0  0  0  0  0  0  0  0  0  0  0  0
  146.9008  133.1383  159.7834 H   0  0  0  0  0  0  0  0  0  0  0  0
  147.1241  134.0318  162.4155 H   0  0  0  0  0  0  0  0  0  0  0  0
  147.4945  136.6053  163.3645 H   0  0  0  0  0  0  0  0  0  0  0  0
  148.2593  134.8481  152.9029 H   0  0  0  0  0  0  0  0  0  0  0  0
  1  2  1  0  0  0  0
  1 20  1  0  0  0  0
  1 21  1  0  0  0  0
  1 22  1  0  0  0  0
  2  9  1  0  0  0  0
  2  3  1  0  0  0  0
  2 23  1  0  0  0  0
  3  4  1  0  0  0  0
  3 24  1  0  0  0  0
  3 25  1  0  0  0  0
  4  5  1  0  0  0  0
  4  8  1  0  0  0  0
  4 40  1  0  0  0  0
  5  6  1  0  0  0  0
  5  7  1  0  0  0  0
  5 26  1  0  0  0  0
  6 27  1  0  0  0  0
  6 28  1  0  0  0  0
  6 29  1  0  0  0  0
  7 30  1  0  0  0  0
  7 31  1  0  0  0  0
  7 32  1  0  0  0  0
  8  9  1  0  0  0  0
  8 33  1  0  0  0  0
  8 34  1  0  0  0  0
  9 10  1  0  0  0  0
  9 35  1  0  0  0  0
 10 11  1  0  0  0  0
 11 12  2  0  0  0  0
 11 13  2  0  0  0  0
 11 14  1  0  0  0  0
 14 15  1  0  0  0  0
 14 36  1  0  0  0  0
 14 37  1  0  0  0  0
 15 19  2  0  0  0  0
 15 16  1  0  0  0  0
 16 17  2  0  0  0  0
 16 38  1  0  0  0  0
 17 18  1  0  0  0  0
 17 39  1  0  0  0  0
 18 19  1  0  0  0  0
M  CHG  1   4   1
M  CHG  1  10  -1
M  END
> <s_m_source_file>
AV-unprocessed.smi

> <i_m_source_file_index>
686

> <i_lp_mmshare_version>
43012

> <i_f3d_flags>
0

> <s_epik_input>
W0NIM11bQ0BASF0xW0NIMl1OKFtDSF0oW0NIM10pW0NIM10pW0NIMl1bQ0BIXTFbTkhdUyg9TykoPU8pW0NIMl1jMltjSF1bY0hdb24y

> <s_epik_cmdline>
J2VwaWtfcHl0aG9uJywgJy1waCcsICc3LjAnLCAnLXRuJywgJzgnLCAnLW1hJywgJzIwMCcsICctbWV0YWxfYmluZGluZycsICctaW1hZScsICc8aW5maWxlLm1hZT4nLCAnLW9tYWUnLCAnPG91dGZpbGUubWFlPic=

> <r_epik_Ionization_Penalty>
3.62478

> <r_epik_Ionization_Penalty_Charging>
3.62478

> <r_epik_Ionization_Penalty_Neutral>
2.03645e-10

> <r_epik_State_Penalty>
3.6247

> <r_epik_Charging_Adjusted_Penalty>
7.24949

> <i_epik_Tot_Q>
0

> <i_epik_Tot_abs_Q>
2

> <r_epik_Metal_State_Penalty>
0.530836

> <b_epik_Metal_Only>
1

> <s_lp_Force_Field>
OPLS_2005

> <r_lp_Energy>
21.5589

> <b_lp_Chiralities_Consistent>
1

> <s_lp_Variant>
AV-unprocessed.smi:686-13

> <Gold.Version>
5.8.1

> <Gold.Id.Protein>
6NUR|6NUR_protein|mol2

> <Gold.PLP.Fitness>
45.3561

> <Gold.PLP.PLP>
-30.8011

> <Gold.PLP.part.hbond>
-5.0000

> <Gold.PLP.part.metal>
0.0000

> <Gold.PLP.part.buried>
-4.9161

> <Gold.PLP.part.nonpolar>
-22.0214

> <Gold.PLP.part.repulsive>
0.0000

> <Gold.PLP.ligand.clash>
0.0000

> <Gold.PLP.ligand.torsion>
0.5682

> <Gold.PLP.Chemscore.Hbond>
4.8880

> <Gold.PLP.Chemscore.CHOScore>
0.0000

> <Gold.PLP.Chemscore.Metal>
0.0000

> <Gold.Chemscore.Hbonds>
donor molecule, donor type, donor heavy atom, donor atom, acceptor molecule, acceptor atom, score
      L1  H     4    40       P1  7948  2.00
      P1  H  6896  6907       L1    13  1.00
      P1  H  6931  6943       L1    18  0.94
      P1  H  6934  6947       L1    18  0.94

> <Gold.PLP.Chemscore.Internal.Correction>
1.0274

> <Gold.Rescore>
     Score         DG    S(hbond)    S(metal)    S(lipo)     H(rot)  DE(clash)    DE(int)     intcor
     17.33     -18.44       2.90        0.00      63.28       1.61       0.00       1.11       ----

> <Gold.Chemscore.Fitness>
17.3251

> <Gold.Chemscore.DG>
-18.4400

> <Gold.Chemscore.ZeroCoef>
-5.4800

> <Gold.Chemscore.Hbond>
2.9015

> <Gold.Chemscore.Metal>
0.0000

> <Gold.Chemscore.Lipo>
63.2755

> <Gold.Chemscore.Internal_Hbond>
0.0000

> <Gold.Chemscore.DEClash>
0.0000

> <Gold.Chemscore.DEInternal>
1.1149

> <Gold.Chemscore.Rot>
1.6149

> <Gold.Chemscore.Internal.Correction>
   9.000000E+99

> <Gold.Chemscore.Hbonds>
donor molecule, donor type, donor heavy atom, donor atom, acceptor molecule, acceptor atom, score
      L1  H     4    40       P1  7948  0.74
      P1  H  6896  6907       L1    13  0.65
      P1  H  6931  6943       L1    18  0.30
      P1  H  6934  6947       L1    18  0.50

> <Gold.Chemscore.Hbond.Weighted>
-9.6909

> <Gold.Chemscore.Metal.Weighted>
-0.0000

> <Gold.Chemscore.Lipo.Weighted>
-7.4032

> <Gold.Chemscore.Internal_Hbond.Weighted>
0.0000

> <Gold.Chemscore.DEClash.Weighted>
0.0000

> <Gold.Chemscore.DEInternal.Weighted>
1.1149

> <Gold.Chemscore.Rot.Weighted>
4.1341

> <Gold.Chemscore.Internal.Correction.Weighted>
   9.000000E+99

> <Gold.Protein.RotatedTorsions>
[ 6907 6896 6895 6894 ] final  -67.50 input  -60.11 | X-H torsion
[ 7974 7965 7964 7962 ] final  -35.88 input  175.53 | X-H torsion
[ 8008 7997 7996 7995 ] final   26.59 input   59.86 | X-H torsion
[ 10167 10162 10161 10158 ] final   82.66 input  -65.29 | X-H torsion
[ 10718 10713 10712 10709 ] final   17.41 input   66.30 | X-H torsion
[ 10763 10752 10751 10750 ] final  -28.83 input  -60.55 | X-H torsion
[ 11005 11000 10999 10996 ] final  -67.32 input  -57.11 | X-H torsion

> <Gold.Protein.ActiveResidues>
 VAL166  LYS551  ARG553  GLY616  TRP617  ASP618  TYR619  PRO620  LYS621  CYS622 
 ASP623  PHE694  ASN695  SER759  ASP760  ASP761  ALA762  ILE779  LEU786  VAL792 
 PHE793  MET794  SER795  GLU796  ALA797  LYS798  CYS799  TRP800  GLU811  SER814 

> <Gold.Protein.RotatedAtoms>
  150.7406  134.5872  159.5968 H   0  0  0  0  0  0  0  0  0  0  0  0  # atno 6907 bound_to 6896
  152.3270  134.7305  160.0308 H   0  0  0  0  0  0  0  0  0  0  0  0  # atno 6908 bound_to 6896
  151.7801  133.3313  159.3506 H   0  0  0  0  0  0  0  0  0  0  0  0  # atno 6909 bound_to 6896
  146.0709  140.6212  142.8953 H   0  0  0  0  0  0  0  0  0  0  0  0  # atno 7974 bound_to 7965
  155.0296  140.3157  155.4763 H   0  0  0  0  0  0  0  0  0  0  0  0  # atno 8008 bound_to 7997
  156.2876  140.2182  156.5360 H   0  0  0  0  0  0  0  0  0  0  0  0  # atno 8009 bound_to 7997
  154.7381  140.0476  157.0775 H   0  0  0  0  0  0  0  0  0  0  0  0  # atno 8010 bound_to 7997
  139.9265  144.6179  150.8387 H   0  0  0  0  0  0  0  0  0  0  0  0  # atno 10167 bound_to 10162
  157.0817  130.6390  149.5828 H   0  0  0  0  0  0  0  0  0  0  0  0  # atno 10718 bound_to 10713
  153.7548  135.6923  153.4938 H   0  0  0  0  0  0  0  0  0  0  0  0  # atno 10763 bound_to 10752
  153.1979  135.4447  155.0229 H   0  0  0  0  0  0  0  0  0  0  0  0  # atno 10764 bound_to 10752
  154.8174  135.3405  154.7066 H   0  0  0  0  0  0  0  0  0  0  0  0  # atno 10765 bound_to 10752
  141.1505  133.6717  156.6275 H   0  0  0  0  0  0  0  0  0  0  0  0  # atno 11005 bound_to 11000
  144.7231  140.4438  143.6993 LP  0  0  0  0  0  0  0  0  0  0  0  0  # atno 17320 bound_to 7965
  145.6393  139.1547  143.2925 LP  0  0  0  0  0  0  0  0  0  0  0  0  # atno 17321 bound_to 7965
  140.7648  143.3260  151.2515 LP  0  0  0  0  0  0  0  0  0  0  0  0  # atno 17342 bound_to 10162
  139.6818  143.9842  152.2812 LP  0  0  0  0  0  0  0  0  0  0  0  0  # atno 17343 bound_to 10162
  155.9922  130.4979  150.7329 LP  0  0  0  0  0  0  0  0  0  0  0  0  # atno 17370 bound_to 10713
  157.4794  131.0901  151.0553 LP  0  0  0  0  0  0  0  0  0  0  0  0  # atno 17371 bound_to 10713
  140.3492  134.7783  157.4455 LP  0  0  0  0  0  0  0  0  0  0  0  0  # atno 17394 bound_to 11000
  140.0874  134.5647  155.8478 LP  0  0  0  0  0  0  0  0  0  0  0  0  # atno 17395 bound_to 11000

$$$$
