AV-unprocessed.smi:99|AV-procd|sdf|878|dock2
  -GOLD-   2262017353D 1   1.00000     0.00000
 Structure written by MMmdl.
 53 56  0  0  0  0  0  0  0  0  1 V2000
  147.2656  135.0201  158.2536 O   0  0  0  0  0  0  0  0  0  0  0  0
  147.6946  134.3464  159.1927 C   0  0  0  0  0  0  0  0  0  0  0  0
  148.2516  133.1288  159.0428 O   0  0  0  0  0  0  0  0  0  0  0  0
  148.2501  132.4990  157.7725 C   0  0  0  0  0  0  0  0  0  0  0  0
  148.9349  133.4179  156.7561 C   0  0  1  0  0  0  0  0  0  0  0  0
  150.2595  133.7268  157.1858 O   0  0  0  0  0  0  0  0  0  0  0  0
  151.1012  133.9113  156.0820 C   0  0  1  0  0  0  0  0  0  0  0  0
  152.2827  132.9734  156.1953 N   0  0  0  0  0  0  0  0  0  0  0  0
  152.3252  131.7621  155.5161 C   0  0  0  0  0  0  0  0  0  0  0  0
  153.3784  130.9136  155.5851 C   0  0  0  0  0  0  0  0  0  0  0  0
  154.5475  131.2480  156.3918 C   0  0  0  0  0  0  0  0  0  0  0  0
  155.5462  130.5430  156.5187 O   0  0  0  0  0  0  0  0  0  0  0  0
  154.4683  132.4814  157.0445 N   0  0  0  0  0  0  0  0  0  0  0  0
  153.3908  133.3659  156.9779 C   0  0  0  0  0  0  0  0  0  0  0  0
  153.4360  134.4384  157.5790 O   0  0  0  0  0  0  0  0  0  0  0  0
  150.2938  133.5893  154.8159 C   0  0  2  0  0  0  0  0  0  0  0  0
  149.8293  134.7835  154.2131 O   0  0  0  0  0  0  0  0  0  0  0  0
  149.1630  132.7568  155.4023 C   0  0  2  0  0  0  0  0  0  0  0  0
  148.0073  132.7128  154.5731 O   0  0  0  0  0  0  0  0  0  0  0  0
  147.7933  131.6642  153.7491 C   0  0  0  0  0  0  0  0  0  0  0  0
  148.2999  130.5527  153.9132 O   0  0  0  0  0  0  0  0  0  0  0  0
  146.8860  131.9941  152.6129 C   0  0  0  0  0  0  0  0  0  0  0  0
  146.8300  133.3244  152.1359 C   0  0  0  0  0  0  0  0  0  0  0  0
  145.9804  133.6679  151.0663 C   0  0  0  0  0  0  0  0  0  0  0  0
  145.1764  132.6850  150.4607 C   0  0  0  0  0  0  0  0  0  0  0  0
  145.2237  131.3577  150.9255 C   0  0  0  0  0  0  0  0  0  0  0  0
  146.0729  131.0122  151.9950 C   0  0  0  0  0  0  0  0  0  0  0  0
  147.6503  134.7934  160.6151 C   0  0  0  0  0  0  0  0  0  0  0  0
  147.4726  136.1664  160.9055 C   0  0  0  0  0  0  0  0  0  0  0  0
  147.4221  136.6171  162.2390 C   0  0  0  0  0  0  0  0  0  0  0  0
  147.5486  135.7003  163.2986 C   0  0  0  0  0  0  0  0  0  0  0  0
  147.7267  134.3320  163.0233 C   0  0  0  0  0  0  0  0  0  0  0  0
  147.7777  133.8793  161.6903 C   0  0  0  0  0  0  0  0  0  0  0  0
  155.2596  132.7583  157.6071 H   0  0  0  0  0  0  0  0  0  0  0  0
  148.7578  131.5347  157.8204 H   0  0  0  0  0  0  0  0  0  0  0  0
  147.2187  132.3143  157.4689 H   0  0  0  0  0  0  0  0  0  0  0  0
  148.3747  134.3456  156.6268 H   0  0  0  0  0  0  0  0  0  0  0  0
  151.5104  134.9234  156.1112 H   0  0  0  0  0  0  0  0  0  0  0  0
  151.4932  131.4654  154.8951 H   0  0  0  0  0  0  0  0  0  0  0  0
  153.3571  129.9823  155.0377 H   0  0  0  0  0  0  0  0  0  0  0  0
  150.8881  133.0334  154.0894 H   0  0  0  0  0  0  0  0  0  0  0  0
  150.2073  135.5181  154.6721 H   0  0  0  0  0  0  0  0  0  0  0  0
  149.5283  131.7443  155.5842 H   0  0  0  0  0  0  0  0  0  0  0  0
  147.4372  134.0969  152.5857 H   0  0  0  0  0  0  0  0  0  0  0  0
  145.9458  134.6874  150.7110 H   0  0  0  0  0  0  0  0  0  0  0  0
  144.5245  132.9489  149.6410 H   0  0  0  0  0  0  0  0  0  0  0  0
  144.6069  130.6024  150.4613 H   0  0  0  0  0  0  0  0  0  0  0  0
  146.0847  129.9842  152.3269 H   0  0  0  0  0  0  0  0  0  0  0  0
  147.3726  136.8891  160.1087 H   0  0  0  0  0  0  0  0  0  0  0  0
  147.2848  137.6676  162.4485 H   0  0  0  0  0  0  0  0  0  0  0  0
  147.5086  136.0460  164.3209 H   0  0  0  0  0  0  0  0  0  0  0  0
  147.8234  133.6269  163.8357 H   0  0  0  0  0  0  0  0  0  0  0  0
  147.9137  132.8222  161.5147 H   0  0  0  0  0  0  0  0  0  0  0  0
  1  2  2  0  0  0  0
  2  3  1  0  0  0  0
  2 28  1  0  0  0  0
  3  4  1  0  0  0  0
  4  5  1  0  0  0  0
  4 35  1  0  0  0  0
  4 36  1  0  0  0  0
  5 18  1  0  0  0  0
  5  6  1  0  0  0  0
  5 37  1  0  0  0  0
  6  7  1  0  0  0  0
  7  8  1  0  0  0  0
  7 16  1  0  0  0  0
  7 38  1  0  0  0  0
  8 14  1  0  0  0  0
  8  9  1  0  0  0  0
  9 10  2  0  0  0  0
  9 39  1  0  0  0  0
 10 11  1  0  0  0  0
 10 40  1  0  0  0  0
 11 12  2  0  0  0  0
 11 13  1  0  0  0  0
 13 34  1  0  0  0  0
 13 14  1  0  0  0  0
 14 15  2  0  0  0  0
 16 17  1  0  0  0  0
 16 18  1  0  0  0  0
 16 41  1  0  0  0  0
 17 42  1  0  0  0  0
 18 19  1  0  0  0  0
 18 43  1  0  0  0  0
 19 20  1  0  0  0  0
 20 21  2  0  0  0  0
 20 22  1  0  0  0  0
 22 27  1  0  0  0  0
 22 23  2  0  0  0  0
 23 24  1  0  0  0  0
 23 44  1  0  0  0  0
 24 25  2  0  0  0  0
 24 45  1  0  0  0  0
 25 26  1  0  0  0  0
 25 46  1  0  0  0  0
 26 27  2  0  0  0  0
 26 47  1  0  0  0  0
 27 48  1  0  0  0  0
 28 33  1  0  0  0  0
 28 29  2  0  0  0  0
 29 30  1  0  0  0  0
 29 49  1  0  0  0  0
 30 31  2  0  0  0  0
 30 50  1  0  0  0  0
 31 32  1  0  0  0  0
 31 51  1  0  0  0  0
 32 33  2  0  0  0  0
 32 52  1  0  0  0  0
 33 53  1  0  0  0  0
M  END
> <s_m_source_file>
AV-unprocessed.smi

> <i_m_source_file_index>
99

> <i_lp_mmshare_version>
43012

> <i_f3d_flags>
0

> <s_epik_input>
W2NIXTFbY0hdW2NIXVtjSF1bY0hdYzFDKD1PKU9bQ0gyXVtDQEBIXTJPW0NAQEhdKG4zW2NIXVtjSF1jKD1PKVtuSF1jMz1PKVtDQEBIXShbT0hdKVtDQEhdMk9DKD1PKWM0W2NIXVtjSF1bY0hdW2NIXVtjSF00

> <s_epik_cmdline>
J2VwaWtfcHl0aG9uJywgJy1waCcsICc3LjAnLCAnLXRuJywgJzgnLCAnLW1hJywgJzIwMCcsICctbWV0YWxfYmluZGluZycsICctaW1hZScsICc8aW5maWxlLm1hZT4nLCAnLW9tYWUnLCAnPG91dGZpbGUubWFlPic=

> <r_lp_tautomer_probability>
1

> <r_epik_Ionization_Penalty>
0.00454555

> <r_epik_Ionization_Penalty_Charging>
0.0045191

> <r_epik_Ionization_Penalty_Neutral>
2.64449e-05

> <r_epik_State_Penalty>
-0

> <r_epik_Charging_Adjusted_Penalty>
0.0045191

> <i_epik_Tot_Q>
0

> <i_epik_Tot_abs_Q>
0

> <r_epik_Metal_State_Penalty>
1.27877

> <b_epik_Metal_Only>
0

> <s_epik_Chemistry_Notes>
This compound has an ester and may undergo hydrolysis at high or low pH. This compound contains an acetal/aminal-like group ( X-CH(R)-Y where X, Y are N, S, or O) that may be acid/base labile, releasing an aldehyde.

> <s_lp_Force_Field>
OPLS_2005

> <r_lp_Energy>
38.7636

> <b_lp_Chiralities_Consistent>
1

> <s_lp_Variant>
AV-unprocessed.smi:99-14

> <Gold.Version>
5.8.1

> <Gold.Id.Protein>
6NUR|6NUR_protein|mol2

> <Gold.PLP.Fitness>
48.4727

> <Gold.PLP.PLP>
-46.8773

> <Gold.PLP.part.hbond>
-2.0417

> <Gold.PLP.part.metal>
0.0000

> <Gold.PLP.part.buried>
-4.3259

> <Gold.PLP.part.nonpolar>
-40.3659

> <Gold.PLP.part.repulsive>
0.1197

> <Gold.PLP.ligand.clash>
0.0000

> <Gold.PLP.ligand.torsion>
1.9778

> <Gold.PLP.Chemscore.Hbond>
1.7433

> <Gold.PLP.Chemscore.CHOScore>
0.0000

> <Gold.PLP.Chemscore.Metal>
0.0000

> <Gold.Chemscore.Hbonds>
donor molecule, donor type, donor heavy atom, donor atom, acceptor molecule, acceptor atom, score
      P1  H  6896  6908       L1    15  0.09
      P1  H  6896  6909       L1     6  0.67

> <Gold.PLP.Chemscore.Internal.Correction>
0.3212

> <Gold.Rescore>
     Score         DG    S(hbond)    S(metal)    S(lipo)     H(rot)  DE(clash)    DE(int)     intcor
     13.84     -16.95       1.58        0.00     122.62       3.19       0.10       3.01       ----

> <Gold.Chemscore.Fitness>
13.8408

> <Gold.Chemscore.DG>
-16.9458

> <Gold.Chemscore.ZeroCoef>
-5.4800

> <Gold.Chemscore.Hbond>
1.5827

> <Gold.Chemscore.Metal>
0.0000

> <Gold.Chemscore.Lipo>
122.6204

> <Gold.Chemscore.Internal_Hbond>
0.0000

> <Gold.Chemscore.DEClash>
0.0982

> <Gold.Chemscore.DEInternal>
3.0068

> <Gold.Chemscore.Rot>
3.1903

> <Gold.Chemscore.Internal.Correction>
   9.000000E+99

> <Gold.Chemscore.Hbonds>
donor molecule, donor type, donor heavy atom, donor atom, acceptor molecule, acceptor atom, score
      P1  H  6896  6908       L1    15  0.02
      P1  H  6896  6909       L1     6  0.64

> <Gold.Chemscore.Hbond.Weighted>
-5.2863

> <Gold.Chemscore.Metal.Weighted>
-0.0000

> <Gold.Chemscore.Lipo.Weighted>
-14.3466

> <Gold.Chemscore.Internal_Hbond.Weighted>
0.0000

> <Gold.Chemscore.DEClash.Weighted>
0.0982

> <Gold.Chemscore.DEInternal.Weighted>
3.0068

> <Gold.Chemscore.Rot.Weighted>
8.1671

> <Gold.Chemscore.Internal.Correction.Weighted>
   9.000000E+99

> <Gold.Protein.RotatedTorsions>
[ 6907 6896 6895 6894 ] final   -0.01 input  -60.11 | X-H torsion
[ 7974 7965 7964 7962 ] final  -86.90 input  175.53 | X-H torsion
[ 8008 7997 7996 7995 ] final  103.47 input   59.86 | X-H torsion
[ 10167 10162 10161 10158 ] final   25.97 input  -65.29 | X-H torsion
[ 10718 10713 10712 10709 ] final -177.09 input   66.30 | X-H torsion
[ 10763 10752 10751 10750 ] final   41.33 input  -60.55 | X-H torsion
[ 11005 11000 10999 10996 ] final  109.00 input  -57.11 | X-H torsion

> <Gold.Protein.ActiveResidues>
 VAL166  LYS551  ARG553  GLY616  TRP617  ASP618  TYR619  PRO620  LYS621  CYS622 
 ASP623  PHE694  ASN695  SER759  ASP760  ASP761  ALA762  ILE779  LEU786  VAL792 
 PHE793  MET794  SER795  GLU796  ALA797  LYS798  CYS799  TRP800  GLU811  SER814 

> <Gold.Protein.RotatedAtoms>
  151.5691  135.1063  159.9990 H   0  0  0  0  0  0  0  0  0  0  0  0  # atno 6907 bound_to 6896
  152.4409  133.7443  159.6669 H   0  0  0  0  0  0  0  0  0  0  0  0  # atno 6908 bound_to 6896
  150.8315  133.8015  159.3120 H   0  0  0  0  0  0  0  0  0  0  0  0  # atno 6909 bound_to 6896
  145.4738  140.9559  143.1902 H   0  0  0  0  0  0  0  0  0  0  0  0  # atno 7974 bound_to 7965
  156.1487  140.3164  155.8612 H   0  0  0  0  0  0  0  0  0  0  0  0  # atno 8008 bound_to 7997
  155.4014  140.0500  157.3053 H   0  0  0  0  0  0  0  0  0  0  0  0  # atno 8009 bound_to 7997
  154.5039  140.2139  155.9303 H   0  0  0  0  0  0  0  0  0  0  0  0  # atno 8010 bound_to 7997
  140.5062  144.0235  150.6353 H   0  0  0  0  0  0  0  0  0  0  0  0  # atno 10167 bound_to 10162
  156.8244  130.9631  151.3110 H   0  0  0  0  0  0  0  0  0  0  0  0  # atno 10718 bound_to 10713
  152.9911  135.6165  154.2770 H   0  0  0  0  0  0  0  0  0  0  0  0  # atno 10763 bound_to 10752
  154.2501  135.2785  155.2821 H   0  0  0  0  0  0  0  0  0  0  0  0  # atno 10764 bound_to 10752
  154.5295  135.5792  153.6805 H   0  0  0  0  0  0  0  0  0  0  0  0  # atno 10765 bound_to 10752
  139.8854  134.9446  156.6059 H   0  0  0  0  0  0  0  0  0  0  0  0  # atno 11005 bound_to 11000
  144.7929  139.6291  143.7105 LP  0  0  0  0  0  0  0  0  0  0  0  0  # atno 17320 bound_to 7965
  146.2381  139.5946  142.9510 LP  0  0  0  0  0  0  0  0  0  0  0  0  # atno 17321 bound_to 7965
  140.3545  143.2944  152.0451 LP  0  0  0  0  0  0  0  0  0  0  0  0  # atno 17342 bound_to 10162
  139.4884  144.6349  151.6995 LP  0  0  0  0  0  0  0  0  0  0  0  0  # atno 17343 bound_to 10162
  157.6440  130.8829  149.9502 LP  0  0  0  0  0  0  0  0  0  0  0  0  # atno 17370 bound_to 10713
  156.0970  130.3658  150.0288 LP  0  0  0  0  0  0  0  0  0  0  0  0  # atno 17371 bound_to 10713
  140.7848  133.8630  155.8597 LP  0  0  0  0  0  0  0  0  0  0  0  0  # atno 17394 bound_to 11000
  140.9729  134.1508  157.4561 LP  0  0  0  0  0  0  0  0  0  0  0  0  # atno 17395 bound_to 11000

$$$$
