AV-unprocessed.smi:2652|AV-procd|sdf|10294|dock4
  -GOLD-   2272014303D 1   1.00000     0.00000
 Structure written by MMmdl.
 37 38  0  0  0  0  0  0  0  0  2 V2000
  152.1378  143.4545  161.2583 C   0  0  0  0  0  0  0  0  0  0  0  0
  153.1111  142.3071  161.0472 C   0  0  0  0  0  0  0  0  0  0  0  0
  153.9763  141.8457  161.9563 C   0  0  0  0  0  0  0  0  0  0  0  0
  154.9110  140.4906  161.3729 S   0  0  0  0  0  0  0  0  0  0  0  0
  154.0543  140.5689  159.7914 C   0  0  0  0  0  0  0  0  0  0  0  0
  154.2935  139.7953  158.8657 O   0  0  0  0  0  0  0  0  0  0  0  0
  153.1337  141.6164  159.8269 N   0  0  0  0  0  0  0  0  0  0  0  0
  152.2780  141.9615  158.6836 C   0  0  0  0  0  0  0  0  0  0  0  0
  151.4012  140.7977  158.2008 C   0  0  0  0  0  0  0  0  0  0  0  0
  150.7219  140.1562  159.0024 O   0  0  0  0  0  0  0  0  0  0  0  0
  151.4485  140.5704  156.8748 N   0  0  0  0  0  0  0  0  0  0  0  0
  150.7709  139.5857  156.0144 C   0  0  0  0  0  0  0  0  0  0  0  0
  151.8967  138.9665  155.1461 C   0  0  0  0  0  0  0  0  0  0  0  0
  152.6402  139.7439  154.5066 O   0  0  0  0  0  0  0  0  0  0  0  0
  151.9746  137.7183  155.0936 O   0  5  0  0  0  0  0  0  0  0  0  0
  149.9758  138.4803  156.7818 C   0  0  0  0  0  0  0  0  0  0  0  0
  149.1417  137.5741  155.8551 C   0  0  0  0  0  0  0  0  0  0  0  0
  148.1714  138.4002  154.9990 C   0  0  0  0  0  0  0  0  0  0  0  0
  148.9173  139.4830  154.2064 C   0  0  0  0  0  0  0  0  0  0  0  0
  149.7576  140.3781  155.1384 C   0  0  0  0  0  0  0  0  0  0  0  0
  151.9927  143.6349  162.3238 H   0  0  0  0  0  0  0  0  0  0  0  0
  151.1586  143.2418  160.8293 H   0  0  0  0  0  0  0  0  0  0  0  0
  152.5273  144.3686  160.8098 H   0  0  0  0  0  0  0  0  0  0  0  0
  154.1150  142.2236  162.9586 H   0  0  0  0  0  0  0  0  0  0  0  0
  151.6458  142.8173  158.9214 H   0  0  0  0  0  0  0  0  0  0  0  0
  152.9009  142.2882  157.8492 H   0  0  0  0  0  0  0  0  0  0  0  0
  152.0748  141.1761  156.3649 H   0  0  0  0  0  0  0  0  0  0  0  0
  150.6394  137.8619  157.3882 H   0  0  0  0  0  0  0  0  0  0  0  0
  149.2824  138.9514  157.4796 H   0  0  0  0  0  0  0  0  0  0  0  0
  149.7962  136.9879  155.2096 H   0  0  0  0  0  0  0  0  0  0  0  0
  148.5819  136.8545  156.4528 H   0  0  0  0  0  0  0  0  0  0  0  0
  147.6263  137.7472  154.3171 H   0  0  0  0  0  0  0  0  0  0  0  0
  147.4258  138.8685  155.6428 H   0  0  0  0  0  0  0  0  0  0  0  0
  149.5559  139.0148  153.4565 H   0  0  0  0  0  0  0  0  0  0  0  0
  148.2020  140.0943  153.6559 H   0  0  0  0  0  0  0  0  0  0  0  0
  149.0781  140.9268  155.7924 H   0  0  0  0  0  0  0  0  0  0  0  0
  150.2632  141.1431  154.5471 H   0  0  0  0  0  0  0  0  0  0  0  0
  1  2  1  0  0  0  0
  1 21  1  0  0  0  0
  1 22  1  0  0  0  0
  1 23  1  0  0  0  0
  2  7  1  0  0  0  0
  2  3  2  0  0  0  0
  3  4  1  0  0  0  0
  3 24  1  0  0  0  0
  4  5  1  0  0  0  0
  5  6  2  0  0  0  0
  5  7  1  0  0  0  0
  7  8  1  0  0  0  0
  8  9  1  0  0  0  0
  8 25  1  0  0  0  0
  8 26  1  0  0  0  0
  9 10  2  0  0  0  0
  9 11  1  0  0  0  0
 11 12  1  0  0  0  0
 11 27  1  0  0  0  0
 12 20  1  0  0  0  0
 12 13  1  0  0  0  0
 12 16  1  0  0  0  0
 13 14  2  0  0  0  0
 13 15  1  0  0  0  0
 16 17  1  0  0  0  0
 16 28  1  0  0  0  0
 16 29  1  0  0  0  0
 17 18  1  0  0  0  0
 17 30  1  0  0  0  0
 17 31  1  0  0  0  0
 18 19  1  0  0  0  0
 18 32  1  0  0  0  0
 18 33  1  0  0  0  0
 19 20  1  0  0  0  0
 19 34  1  0  0  0  0
 19 35  1  0  0  0  0
 20 36  1  0  0  0  0
 20 37  1  0  0  0  0
M  CHG  1  15  -1
M  END
> <s_m_source_file>
AV-unprocessed.smi

> <i_m_source_file_index>
2652

> <i_lp_mmshare_version>
43012

> <i_f3d_flags>
0

> <s_epik_input>
W0NIM11jMVtjSF1zYyg9TyluMVtDSDJdQyg9TylbTkhdQzIoQyg9TylbT0hdKVtDSDJdW0NIMl1bQ0gyXVtDSDJdW0NIMl0y

> <s_epik_cmdline>
J2VwaWtfcHl0aG9uJywgJy1waCcsICc3LjAnLCAnLXRuJywgJzgnLCAnLW1hJywgJzIwMCcsICctbWV0YWxfYmluZGluZycsICctaW1hZScsICc8aW5maWxlLm1hZT4nLCAnLW9tYWUnLCAnPG91dGZpbGUubWFlPic=

> <r_epik_Ionization_Penalty>
0.000325241

> <r_epik_Ionization_Penalty_Charging>
0.000325125

> <r_epik_Ionization_Penalty_Neutral>
1.16183e-07

> <r_epik_State_Penalty>
0.000195685

> <r_epik_Charging_Adjusted_Penalty>
0.00052081

> <i_epik_Tot_Q>
-1

> <i_epik_Tot_abs_Q>
1

> <r_epik_Metal_State_Penalty>
-0

> <b_epik_Metal_Only>
0

> <s_lp_Force_Field>
OPLS_2005

> <r_lp_Energy>
9.07631

> <b_lp_Chiralities_Consistent>
1

> <s_lp_Variant>
AV-unprocessed.smi:2652-1

> <Gold.Version>
5.8.1

> <Gold.Id.Protein>
6NUR|6NUR_protein|mol2

> <Gold.PLP.Fitness>
50.7827

> <Gold.PLP.PLP>
-38.3113

> <Gold.PLP.part.hbond>
-4.0000

> <Gold.PLP.part.metal>
0.0000

> <Gold.PLP.part.buried>
-2.1064

> <Gold.PLP.part.nonpolar>
-32.8156

> <Gold.PLP.part.repulsive>
0.1753

> <Gold.PLP.ligand.clash>
0.0000

> <Gold.PLP.ligand.torsion>
0.3209

> <Gold.PLP.Chemscore.Hbond>
4.3538

> <Gold.PLP.Chemscore.CHOScore>
0.0000

> <Gold.PLP.Chemscore.Metal>
0.0000

> <Gold.Chemscore.Hbonds>
donor molecule, donor type, donor heavy atom, donor atom, acceptor molecule, acceptor atom, score
      P1  H  7989  7998       L1    14  0.48
      P1  H  7997  8008       L1    14  0.49
      P1  H  7997  8010       L1     6  1.00
      P1  H 10752 10765       L1    15  0.17

> <Gold.PLP.Chemscore.Internal.Correction>
0.0518

> <Gold.Rescore>
     Score         DG    S(hbond)    S(metal)    S(lipo)     H(rot)  DE(clash)    DE(int)     intcor
     15.54     -18.44       2.71        0.00      78.51       2.05       0.03       2.88       ----

> <Gold.Chemscore.Fitness>
15.5373

> <Gold.Chemscore.DG>
-18.4440

> <Gold.Chemscore.ZeroCoef>
-5.4800

> <Gold.Chemscore.Hbond>
2.7063

> <Gold.Chemscore.Metal>
0.0000

> <Gold.Chemscore.Lipo>
78.5096

> <Gold.Chemscore.Internal_Hbond>
0.0000

> <Gold.Chemscore.DEClash>
0.0251

> <Gold.Chemscore.DEInternal>
2.8816

> <Gold.Chemscore.Rot>
2.0550

> <Gold.Chemscore.Internal.Correction>
   9.000000E+99

> <Gold.Chemscore.Hbonds>
donor molecule, donor type, donor heavy atom, donor atom, acceptor molecule, acceptor atom, score
      P1  H  7989  7998       L1    14  0.39
      P1  H  7997  8008       L1    14  0.20
      P1  H  7997  8010       L1     6  0.97
      P1  H 10752 10765       L1    15  0.11

> <Gold.Chemscore.Hbond.Weighted>
-9.0391

> <Gold.Chemscore.Metal.Weighted>
-0.0000

> <Gold.Chemscore.Lipo.Weighted>
-9.1856

> <Gold.Chemscore.Internal_Hbond.Weighted>
0.0000

> <Gold.Chemscore.DEClash.Weighted>
0.0251

> <Gold.Chemscore.DEInternal.Weighted>
2.8816

> <Gold.Chemscore.Rot.Weighted>
5.2607

> <Gold.Chemscore.Internal.Correction.Weighted>
   9.000000E+99

> <Gold.Protein.RotatedTorsions>
[ 6907 6896 6895 6894 ] final  -24.76 input  -60.11 | X-H torsion
[ 7974 7965 7964 7962 ] final -132.94 input  175.53 | X-H torsion
[ 8008 7997 7996 7995 ] final   -2.46 input   59.86 | X-H torsion
[ 10167 10162 10161 10158 ] final   35.83 input  -65.29 | X-H torsion
[ 10718 10713 10712 10709 ] final   40.25 input   66.30 | X-H torsion
[ 10763 10752 10751 10750 ] final -172.39 input  -60.55 | X-H torsion
[ 11005 11000 10999 10996 ] final  126.62 input  -57.11 | X-H torsion

> <Gold.Protein.ActiveResidues>
 VAL166  LYS551  ARG553  GLY616  TRP617  ASP618  TYR619  PRO620  LYS621  CYS622 
 ASP623  PHE694  ASN695  SER759  ASP760  ASP761  ALA762  ILE779  LEU786  VAL792 
 PHE793  MET794  SER795  GLU796  ALA797  LYS798  CYS799  TRP800  GLU811  SER814 

> <Gold.Protein.RotatedAtoms>
  151.1849  135.0377  159.8807 H   0  0  0  0  0  0  0  0  0  0  0  0  # atno 6907 bound_to 6896
  152.5443  134.1021  159.8332 H   0  0  0  0  0  0  0  0  0  0  0  0  # atno 6908 bound_to 6896
  151.1142  133.5104  159.2636 H   0  0  0  0  0  0  0  0  0  0  0  0  # atno 6909 bound_to 6896
  144.9239  140.7047  143.4948 H   0  0  0  0  0  0  0  0  0  0  0  0  # atno 7974 bound_to 7965
  154.6355  140.2534  155.7383 H   0  0  0  0  0  0  0  0  0  0  0  0  # atno 8008 bound_to 7997
  156.2502  140.2898  156.0646 H   0  0  0  0  0  0  0  0  0  0  0  0  # atno 8009 bound_to 7997
  155.1677  140.0386  157.2846 H   0  0  0  0  0  0  0  0  0  0  0  0  # atno 8010 bound_to 7997
  140.4185  144.1493  150.6145 H   0  0  0  0  0  0  0  0  0  0  0  0  # atno 10167 bound_to 10162
  157.3800  130.7748  149.7185 H   0  0  0  0  0  0  0  0  0  0  0  0  # atno 10718 bound_to 10713
  154.6199  135.2874  155.0338 H   0  0  0  0  0  0  0  0  0  0  0  0  # atno 10763 bound_to 10752
  154.1537  135.6499  153.4973 H   0  0  0  0  0  0  0  0  0  0  0  0  # atno 10764 bound_to 10752
  153.0231  135.5361  154.6984 H   0  0  0  0  0  0  0  0  0  0  0  0  # atno 10765 bound_to 10752
  139.9465  134.9629  156.8734 H   0  0  0  0  0  0  0  0  0  0  0  0  # atno 11005 bound_to 11000
  145.3252  139.1776  143.4566 LP  0  0  0  0  0  0  0  0  0  0  0  0  # atno 17320 bound_to 7965
  146.3217  140.3274  142.8638 LP  0  0  0  0  0  0  0  0  0  0  0  0  # atno 17321 bound_to 7965
  140.4560  143.2467  151.9284 LP  0  0  0  0  0  0  0  0  0  0  0  0  # atno 17342 bound_to 10162
  139.4782  144.5515  151.8378 LP  0  0  0  0  0  0  0  0  0  0  0  0  # atno 17343 bound_to 10162
  155.9774  130.4064  150.3717 LP  0  0  0  0  0  0  0  0  0  0  0  0  # atno 17370 bound_to 10713
  157.1820  131.0394  151.2744 LP  0  0  0  0  0  0  0  0  0  0  0  0  # atno 17371 bound_to 10713
  140.5821  134.0342  155.7468 LP  0  0  0  0  0  0  0  0  0  0  0  0  # atno 17394 bound_to 11000
  141.1117  133.9605  157.2897 LP  0  0  0  0  0  0  0  0  0  0  0  0  # atno 17395 bound_to 11000

$$$$
