AV-unprocessed.smi:1301|AV-procd|sdf|5422|dock6
  -GOLD-   22720 4583D 1   1.00000     0.00000
 Structure written by MMmdl.
 45 46  0  0  0  0  0  0  0  0  2 V2000
  153.5609  138.5372  157.5935 C   0  0  0  0  0  0  0  0  0  0  0  0
  152.7963  138.1874  156.3627 C   0  0  0  0  0  0  0  0  0  0  0  0
  151.5321  138.4857  155.9375 C   0  0  0  0  0  0  0  0  0  0  0  0
  151.4542  137.8298  154.6803 C   0  0  0  0  0  0  0  0  0  0  0  0
  150.2742  137.8954  153.8960 N   0  0  0  0  0  0  0  0  0  0  0  0
  149.3105  138.8311  153.9465 C   0  0  0  0  0  0  0  0  0  0  0  0
  149.3021  139.8009  154.7048 O   0  0  0  0  0  0  0  0  0  0  0  0
  148.3389  138.5818  153.0557 N   0  0  0  0  0  0  0  0  0  0  0  0
  147.1639  139.4246  152.8337 C   0  0  2  0  0  0  0  0  0  0  0  0
  146.1395  139.2998  153.9791 C   0  0  0  0  0  0  0  0  0  0  0  0
  145.4229  137.9384  153.9682 C   0  0  0  0  0  0  0  0  0  0  0  0
  144.7737  137.6870  152.6563 N   0  3  2  0  0  0  0  0  0  0  0  0
  143.9362  136.4596  152.6659 C   0  0  0  0  0  0  0  0  0  0  0  0
  142.7791  136.5242  153.6868 C   0  0  0  0  0  0  0  0  0  0  0  0
  141.9314  135.2407  153.6770 C   0  0  0  0  0  0  0  0  0  0  0  0
  141.8940  137.7514  153.4224 C   0  0  0  0  0  0  0  0  0  0  0  0
  145.7624  137.7205  151.5463 C   0  0  0  0  0  0  0  0  0  0  0  0
  146.4931  139.0749  151.4940 C   0  0  0  0  0  0  0  0  0  0  0  0
  152.5699  137.1899  154.3656 N   0  0  0  0  0  0  0  0  0  0  0  0
  153.4353  137.4146  155.4427 O   0  0  0  0  0  0  0  0  0  0  0  0
  153.2532  139.5096  157.9779 H   0  0  0  0  0  0  0  0  0  0  0  0
  154.6311  138.5788  157.3900 H   0  0  0  0  0  0  0  0  0  0  0  0
  153.3936  137.7955  158.3742 H   0  0  0  0  0  0  0  0  0  0  0  0
  150.7863  139.0770  156.4476 H   0  0  0  0  0  0  0  0  0  0  0  0
  150.1573  137.1558  153.2195 H   0  0  0  0  0  0  0  0  0  0  0  0
  148.4314  137.7638  152.4715 H   0  0  0  0  0  0  0  0  0  0  0  0
  147.5034  140.4605  152.7785 H   0  0  0  0  0  0  0  0  0  0  0  0
  146.6177  139.4637  154.9454 H   0  0  0  0  0  0  0  0  0  0  0  0
  145.3955  140.0908  153.8768 H   0  0  0  0  0  0  0  0  0  0  0  0
  146.1259  137.1340  154.1910 H   0  0  0  0  0  0  0  0  0  0  0  0
  144.6719  137.9299  154.7593 H   0  0  0  0  0  0  0  0  0  0  0  0
  143.5541  136.2777  151.6600 H   0  0  0  0  0  0  0  0  0  0  0  0
  144.5569  135.5969  152.9132 H   0  0  0  0  0  0  0  0  0  0  0  0
  143.1901  136.6456  154.6886 H   0  0  0  0  0  0  0  0  0  0  0  0
  141.4976  135.0590  152.6932 H   0  0  0  0  0  0  0  0  0  0  0  0
  141.1118  135.3071  154.3930 H   0  0  0  0  0  0  0  0  0  0  0  0
  142.5248  134.3668  153.9467 H   0  0  0  0  0  0  0  0  0  0  0  0
  141.4312  137.7029  152.4360 H   0  0  0  0  0  0  0  0  0  0  0  0
  142.4735  138.6737  153.4733 H   0  0  0  0  0  0  0  0  0  0  0  0
  141.0947  137.8265  154.1604 H   0  0  0  0  0  0  0  0  0  0  0  0
  146.4797  136.9080  151.6708 H   0  0  0  0  0  0  0  0  0  0  0  0
  145.2671  137.5550  150.5904 H   0  0  0  0  0  0  0  0  0  0  0  0
  145.7731  139.8548  151.2418 H   0  0  0  0  0  0  0  0  0  0  0  0
  147.2304  139.0741  150.6901 H   0  0  0  0  0  0  0  0  0  0  0  0
  144.1385  138.4585  152.5087 H   0  0  0  0  0  0  0  0  0  0  0  0
  1  2  1  0  0  0  0
  1 21  1  0  0  0  0
  1 22  1  0  0  0  0
  1 23  1  0  0  0  0
  2 20  1  0  0  0  0
  2  3  2  0  0  0  0
  3  4  1  0  0  0  0
  3 24  1  0  0  0  0
  4  5  1  0  0  0  0
  4 19  2  0  0  0  0
  5  6  1  0  0  0  0
  5 25  1  0  0  0  0
  6  7  2  0  0  0  0
  6  8  1  0  0  0  0
  8  9  1  0  0  0  0
  8 26  1  0  0  0  0
  9 18  1  0  0  0  0
  9 10  1  0  0  0  0
  9 27  1  0  0  0  0
 10 11  1  0  0  0  0
 10 28  1  0  0  0  0
 10 29  1  0  0  0  0
 11 12  1  0  0  0  0
 11 30  1  0  0  0  0
 11 31  1  0  0  0  0
 12 13  1  0  0  0  0
 12 17  1  0  0  0  0
 12 45  1  0  0  0  0
 13 14  1  0  0  0  0
 13 32  1  0  0  0  0
 13 33  1  0  0  0  0
 14 15  1  0  0  0  0
 14 16  1  0  0  0  0
 14 34  1  0  0  0  0
 15 35  1  0  0  0  0
 15 36  1  0  0  0  0
 15 37  1  0  0  0  0
 16 38  1  0  0  0  0
 16 39  1  0  0  0  0
 16 40  1  0  0  0  0
 17 18  1  0  0  0  0
 17 41  1  0  0  0  0
 17 42  1  0  0  0  0
 18 43  1  0  0  0  0
 18 44  1  0  0  0  0
 19 20  1  0  0  0  0
M  CHG  1  12   1
M  END
> <s_m_source_file>
AV-unprocessed.smi

> <i_m_source_file_index>
1301

> <i_lp_mmshare_version>
43012

> <i_f3d_flags>
0

> <s_epik_input>
W0NIM11jMVtjSF1jKG5vMSlbTkhdQyg9TylbTkhdW0NIXTJbQ0gyXVtDSDJdTihbQ0gyXVtDSDJdMilbQ0gyXVtDSF0oW0NIM10pW0NIM10=

> <s_epik_cmdline>
J2VwaWtfcHl0aG9uJywgJy1waCcsICc3LjAnLCAnLXRuJywgJzgnLCAnLW1hJywgJzIwMCcsICctbWV0YWxfYmluZGluZycsICctaW1hZScsICc8aW5maWxlLm1hZT4nLCAnLW9tYWUnLCAnPG91dGZpbGUubWFlPic=

> <r_epik_Ionization_Penalty>
0.0020743

> <r_epik_Ionization_Penalty_Charging>
0.0020412

> <r_epik_Ionization_Penalty_Neutral>
3.31029e-05

> <r_epik_State_Penalty>
0.00139626

> <r_epik_Charging_Adjusted_Penalty>
0.00343746

> <i_epik_Tot_Q>
1

> <i_epik_Tot_abs_Q>
1

> <r_epik_Metal_State_Penalty>
0.0141509

> <b_epik_Metal_Only>
0

> <s_lp_Force_Field>
OPLS_2005

> <r_lp_Energy>
16.729

> <b_lp_Chiralities_Consistent>
1

> <s_lp_Variant>
AV-unprocessed.smi:1301-2

> <Gold.Version>
5.8.1

> <Gold.Id.Protein>
6NUR|6NUR_protein|mol2

> <Gold.PLP.Fitness>
42.8642

> <Gold.PLP.PLP>
-30.1391

> <Gold.PLP.part.hbond>
-6.4596

> <Gold.PLP.part.metal>
0.0000

> <Gold.PLP.part.buried>
1.9574

> <Gold.PLP.part.nonpolar>
-27.0079

> <Gold.PLP.part.repulsive>
0.2994

> <Gold.PLP.ligand.clash>
0.0000

> <Gold.PLP.ligand.torsion>
0.3243

> <Gold.PLP.Chemscore.Hbond>
4.4443

> <Gold.PLP.Chemscore.CHOScore>
0.0000

> <Gold.PLP.Chemscore.Metal>
0.0000

> <Gold.Chemscore.Hbonds>
donor molecule, donor type, donor heavy atom, donor atom, acceptor molecule, acceptor atom, score
      L1  H     5    25       P1  7948  0.74
      L1  H     8    26       P1  7948  1.00
      L1  H    12    45       P1 10175  1.95
      P1  H 10752 10764       L1    19  0.47

> <Gold.PLP.Chemscore.Internal.Correction>
0.0408

> <Gold.Rescore>
     Score         DG    S(hbond)    S(metal)    S(lipo)     H(rot)  DE(clash)    DE(int)     intcor
     14.98     -16.65       2.37        0.00      58.97       1.43       0.07       1.60       ----

> <Gold.Chemscore.Fitness>
14.9817

> <Gold.Chemscore.DG>
-16.6502

> <Gold.Chemscore.ZeroCoef>
-5.4800

> <Gold.Chemscore.Hbond>
2.3744

> <Gold.Chemscore.Metal>
0.0000

> <Gold.Chemscore.Lipo>
58.9744

> <Gold.Chemscore.Internal_Hbond>
0.0000

> <Gold.Chemscore.DEClash>
0.0703

> <Gold.Chemscore.DEInternal>
1.5982

> <Gold.Chemscore.Rot>
1.4298

> <Gold.Chemscore.Internal.Correction>
   9.000000E+99

> <Gold.Chemscore.Hbonds>
donor molecule, donor type, donor heavy atom, donor atom, acceptor molecule, acceptor atom, score
      L1  H     5    25       P1  7948  0.09
      L1  H     8    26       P1  7948  1.00
      L1  H    12    45       P1 10175  0.90
      P1  H 10752 10764       L1    19  0.06

> <Gold.Chemscore.Hbond.Weighted>
-7.9306

> <Gold.Chemscore.Metal.Weighted>
-0.0000

> <Gold.Chemscore.Lipo.Weighted>
-6.9000

> <Gold.Chemscore.Internal_Hbond.Weighted>
0.0000

> <Gold.Chemscore.DEClash.Weighted>
0.0703

> <Gold.Chemscore.DEInternal.Weighted>
1.5982

> <Gold.Chemscore.Rot.Weighted>
3.6604

> <Gold.Chemscore.Internal.Correction.Weighted>
   9.000000E+99

> <Gold.Protein.RotatedTorsions>
[ 6907 6896 6895 6894 ] final   56.74 input  -60.11 | X-H torsion
[ 7974 7965 7964 7962 ] final -147.12 input  175.53 | X-H torsion
[ 8008 7997 7996 7995 ] final  -62.60 input   59.86 | X-H torsion
[ 10167 10162 10161 10158 ] final  -37.03 input  -65.29 | X-H torsion
[ 10718 10713 10712 10709 ] final  -85.78 input   66.30 | X-H torsion
[ 10763 10752 10751 10750 ] final  -86.79 input  -60.55 | X-H torsion
[ 11005 11000 10999 10996 ] final  -95.29 input  -57.11 | X-H torsion

> <Gold.Protein.ActiveResidues>
 VAL166  LYS551  ARG553  GLY616  TRP617  ASP618  TYR619  PRO620  LYS621  CYS622 
 ASP623  PHE694  ASN695  SER759  ASP760  ASP761  ALA762  ILE779  LEU786  VAL792 
 PHE793  MET794  SER795  GLU796  ALA797  LYS798  CYS799  TRP800  GLU811  SER814 

> <Gold.Protein.RotatedAtoms>
  152.3665  134.6796  160.0189 H   0  0  0  0  0  0  0  0  0  0  0  0  # atno 6907 bound_to 6896
  151.7103  133.3307  159.3297 H   0  0  0  0  0  0  0  0  0  0  0  0  # atno 6908 bound_to 6896
  150.7642  134.6473  159.6313 H   0  0  0  0  0  0  0  0  0  0  0  0  # atno 6909 bound_to 6896
  144.8114  140.5367  143.5640 H   0  0  0  0  0  0  0  0  0  0  0  0  # atno 7974 bound_to 7965
  154.4509  140.0992  156.6613 H   0  0  0  0  0  0  0  0  0  0  0  0  # atno 8008 bound_to 7997
  155.5290  140.3481  155.4404 H   0  0  0  0  0  0  0  0  0  0  0  0  # atno 8009 bound_to 7997
  156.0678  140.1342  156.9854 H   0  0  0  0  0  0  0  0  0  0  0  0  # atno 8010 bound_to 7997
  140.7128  143.3369  151.2443 H   0  0  0  0  0  0  0  0  0  0  0  0  # atno 10167 bound_to 10162
  155.9994  130.4742  150.4614 H   0  0  0  0  0  0  0  0  0  0  0  0  # atno 10718 bound_to 10713
  154.6264  135.5436  153.7632 H   0  0  0  0  0  0  0  0  0  0  0  0  # atno 10763 bound_to 10752
  153.0263  135.6425  154.1365 H   0  0  0  0  0  0  0  0  0  0  0  0  # atno 10764 bound_to 10752
  154.1298  135.2915  155.3168 H   0  0  0  0  0  0  0  0  0  0  0  0  # atno 10765 bound_to 10752
  141.1446  133.8016  157.0415 H   0  0  0  0  0  0  0  0  0  0  0  0  # atno 11005 bound_to 11000
  145.5316  139.1475  143.3497 LP  0  0  0  0  0  0  0  0  0  0  0  0  # atno 17320 bound_to 7965
  146.2413  140.5456  142.8933 LP  0  0  0  0  0  0  0  0  0  0  0  0  # atno 17321 bound_to 7965
  139.6866  143.9763  152.2837 LP  0  0  0  0  0  0  0  0  0  0  0  0  # atno 17342 bound_to 10162
  139.9411  144.6681  150.8266 LP  0  0  0  0  0  0  0  0  0  0  0  0  # atno 17343 bound_to 10162
  157.2638  131.0572  151.2303 LP  0  0  0  0  0  0  0  0  0  0  0  0  # atno 17370 bound_to 10713
  157.3408  130.7032  149.6380 LP  0  0  0  0  0  0  0  0  0  0  0  0  # atno 17371 bound_to 10713
  140.0689  134.9713  157.1434 LP  0  0  0  0  0  0  0  0  0  0  0  0  # atno 17394 bound_to 11000
  140.3739  134.2361  155.7176 LP  0  0  0  0  0  0  0  0  0  0  0  0  # atno 17395 bound_to 11000

$$$$
