AV-unprocessed.smi:244|AV-procd|sdf|1867|dock4
  -GOLD-   2262020503D 1   1.00000     0.00000
 Structure written by MMmdl.
 57 61  0  0  0  0  0  0  0  0  2 V2000
  147.9031  130.8967  154.4177 C   0  0  0  0  0  0  0  0  0  0  0  0
  146.8474  131.1813  153.4227 N   0  3  2  0  0  0  0  0  0  0  0  0
  146.4234  129.9676  152.6820 C   0  0  0  0  0  0  0  0  0  0  0  0
  145.2179  130.2742  151.7805 C   0  0  0  0  0  0  0  0  0  0  0  0
  145.5244  131.4457  150.8219 C   0  0  1  0  0  0  0  0  0  0  0  0
  144.4113  131.7838  149.9915 O   0  0  0  0  0  0  0  0  0  0  0  0
  143.3206  132.3980  150.6754 C   0  0  0  0  0  0  0  0  0  0  0  0
  143.8034  133.6495  151.4223 C   0  0  0  0  0  0  0  0  0  0  0  0
  144.9150  133.3143  152.3045 N   0  0  0  0  0  0  0  0  0  0  0  0
  145.2442  134.3322  153.1287 C   0  0  0  0  0  0  0  0  0  0  0  0
  145.3335  134.0458  154.4503 N   0  0  0  0  0  0  0  0  0  0  0  0
  145.6729  135.0045  155.3174 C   0  0  0  0  0  0  0  0  0  0  0  0
  145.9626  136.2847  155.0753 N   0  0  0  0  0  0  0  0  0  0  0  0
  145.8795  136.5715  153.7442 C   0  0  0  0  0  0  0  0  0  0  0  0
  145.5285  135.6618  152.7084 C   0  0  0  0  0  0  0  0  0  0  0  0
  145.5513  136.3087  151.4791 N   0  0  0  0  0  0  0  0  0  0  0  0
  145.8862  137.5356  151.7729 C   0  0  0  0  0  0  0  0  0  0  0  0
  146.1148  137.7780  153.1090 N   0  0  0  0  0  0  0  0  0  0  0  0
  146.5076  139.0425  153.7120 C   0  0  0  0  0  0  0  0  0  0  0  0
  148.0193  139.1450  154.0353 C   0  0  0  0  0  0  0  0  0  0  0  0
  148.7376  138.6225  152.9309 O   0  0  0  0  0  0  0  0  0  0  0  0
  148.4793  140.6009  154.2694 C   0  0  0  0  0  0  0  0  0  0  0  0
  149.9221  140.6750  154.8003 C   0  0  0  0  0  0  0  0  0  0  0  0
  150.0521  139.8898  155.9789 O   0  0  0  0  0  0  0  0  0  0  0  0
  149.8095  138.5076  155.7472 C   0  0  0  0  0  0  0  0  0  0  0  0
  148.3578  138.3004  155.2802 C   0  0  0  0  0  0  0  0  0  0  0  0
  146.0318  132.6885  151.5902 C   0  0  1  0  0  0  0  0  0  0  0  0
  147.2184  132.2851  152.5023 C   0  0  0  0  0  0  0  0  0  0  0  0
  148.8156  130.5488  153.9318 H   0  0  0  0  0  0  0  0  0  0  0  0
  147.5740  130.1296  155.1194 H   0  0  0  0  0  0  0  0  0  0  0  0
  148.1399  131.7920  154.9936 H   0  0  0  0  0  0  0  0  0  0  0  0
  147.2562  129.5902  152.0864 H   0  0  0  0  0  0  0  0  0  0  0  0
  146.1568  129.1807  153.3888 H   0  0  0  0  0  0  0  0  0  0  0  0
  144.9443  129.3872  151.2088 H   0  0  0  0  0  0  0  0  0  0  0  0
  144.3661  130.5038  152.4199 H   0  0  0  0  0  0  0  0  0  0  0  0
  146.3171  131.1181  150.1481 H   0  0  0  0  0  0  0  0  0  0  0  0
  142.5614  132.6734  149.9432 H   0  0  0  0  0  0  0  0  0  0  0  0
  142.8447  131.6953  151.3588 H   0  0  0  0  0  0  0  0  0  0  0  0
  144.1171  134.4041  150.7000 H   0  0  0  0  0  0  0  0  0  0  0  0
  142.9825  134.0784  151.9987 H   0  0  0  0  0  0  0  0  0  0  0  0
  145.7225  134.7034  156.3537 H   0  0  0  0  0  0  0  0  0  0  0  0
  145.9865  138.3011  151.0168 H   0  0  0  0  0  0  0  0  0  0  0  0
  146.2170  139.8427  153.0298 H   0  0  0  0  0  0  0  0  0  0  0  0
  145.9161  139.1886  154.6171 H   0  0  0  0  0  0  0  0  0  0  0  0
  149.1272  139.3420  152.4579 H   0  0  0  0  0  0  0  0  0  0  0  0
  148.3983  141.1875  153.3537 H   0  0  0  0  0  0  0  0  0  0  0  0
  147.8172  141.0737  154.9961 H   0  0  0  0  0  0  0  0  0  0  0  0
  150.6362  140.3406  154.0463 H   0  0  0  0  0  0  0  0  0  0  0  0
  150.1774  141.7077  155.0381 H   0  0  0  0  0  0  0  0  0  0  0  0
  150.5193  138.1182  155.0158 H   0  0  0  0  0  0  0  0  0  0  0  0
  149.9829  137.9621  156.6750 H   0  0  0  0  0  0  0  0  0  0  0  0
  147.6920  138.5815  156.0973 H   0  0  0  0  0  0  0  0  0  0  0  0
  148.1735  137.2427  155.0875 H   0  0  0  0  0  0  0  0  0  0  0  0
  146.3971  133.4123  150.8601 H   0  0  0  0  0  0  0  0  0  0  0  0
  147.5843  133.1409  153.0710 H   0  0  0  0  0  0  0  0  0  0  0  0
  148.0574  131.9603  151.8846 H   0  0  0  0  0  0  0  0  0  0  0  0
  146.0431  131.5005  153.9447 H   0  0  0  0  0  0  0  0  0  0  0  0
  1  2  1  0  0  0  0
  1 29  1  0  0  0  0
  1 30  1  0  0  0  0
  1 31  1  0  0  0  0
  2 28  1  0  0  0  0
  2  3  1  0  0  0  0
  2 57  1  0  0  0  0
  3  4  1  0  0  0  0
  3 32  1  0  0  0  0
  3 33  1  0  0  0  0
  4  5  1  0  0  0  0
  4 34  1  0  0  0  0
  4 35  1  0  0  0  0
  5 27  1  0  0  0  0
  5  6  1  0  0  0  0
  5 36  1  0  0  0  0
  6  7  1  0  0  0  0
  7  8  1  0  0  0  0
  7 37  1  0  0  0  0
  7 38  1  0  0  0  0
  8  9  1  0  0  0  0
  8 39  1  0  0  0  0
  8 40  1  0  0  0  0
  9 10  1  0  0  0  0
  9 27  1  0  0  0  0
 10 15  1  0  0  0  0
 10 11  2  0  0  0  0
 11 12  1  0  0  0  0
 12 13  2  0  0  0  0
 12 41  1  0  0  0  0
 13 14  1  0  0  0  0
 14 18  1  0  0  0  0
 14 15  2  0  0  0  0
 15 16  1  0  0  0  0
 16 17  2  0  0  0  0
 17 18  1  0  0  0  0
 17 42  1  0  0  0  0
 18 19  1  0  0  0  0
 19 20  1  0  0  0  0
 19 43  1  0  0  0  0
 19 44  1  0  0  0  0
 20 26  1  0  0  0  0
 20 21  1  0  0  0  0
 20 22  1  0  0  0  0
 21 45  1  0  0  0  0
 22 23  1  0  0  0  0
 22 46  1  0  0  0  0
 22 47  1  0  0  0  0
 23 24  1  0  0  0  0
 23 48  1  0  0  0  0
 23 49  1  0  0  0  0
 24 25  1  0  0  0  0
 25 26  1  0  0  0  0
 25 50  1  0  0  0  0
 25 51  1  0  0  0  0
 26 52  1  0  0  0  0
 26 53  1  0  0  0  0
 27 28  1  0  0  0  0
 27 54  1  0  0  0  0
 28 55  1  0  0  0  0
 28 56  1  0  0  0  0
M  CHG  1   2   1
M  END
> <s_m_source_file>
AV-unprocessed.smi

> <i_m_source_file_index>
244

> <i_lp_mmshare_version>
43012

> <i_f3d_flags>
0

> <s_epik_input>
W0NIMl0xW0NIMl1OKFtDSDNdKVtDSDJdW0NAQEhdKFtDQEhdMTIpTihbQ0gyXVtDSDJdTzIpYyhuW2NIXW4zKWMoYzM0KW5bY0hdbjRbQ0gyXUM1KFtPSF0pW0NIMl1bQ0gyXU9bQ0gyXVtDSDJdNQ==

> <s_epik_cmdline>
J2VwaWtfcHl0aG9uJywgJy1waCcsICc3LjAnLCAnLXRuJywgJzgnLCAnLW1hJywgJzIwMCcsICctbWV0YWxfYmluZGluZycsICctaW1hZScsICc8aW5maWxlLm1hZT4nLCAnLW9tYWUnLCAnPG91dGZpbGUubWFlPic=

> <r_lp_tautomer_probability>
1

> <r_epik_Ionization_Penalty>
0.0136215

> <r_epik_Ionization_Penalty_Charging>
0.0131385

> <r_epik_Ionization_Penalty_Neutral>
0.000483022

> <r_epik_State_Penalty>
0.0104001

> <r_epik_Charging_Adjusted_Penalty>
0.0235387

> <i_epik_Tot_Q>
1

> <i_epik_Tot_abs_Q>
1

> <r_epik_Metal_State_Penalty>
0.0104469

> <b_epik_Metal_Only>
0

> <s_lp_Force_Field>
OPLS_2005

> <r_lp_Energy>
48.7962

> <b_lp_Chiralities_Consistent>
1

> <s_lp_Variant>
AV-unprocessed.smi:244-4

> <Gold.Version>
5.8.1

> <Gold.Id.Protein>
6NUR|6NUR_protein|mol2

> <Gold.PLP.Fitness>
39.1847

> <Gold.PLP.PLP>
-35.7189

> <Gold.PLP.part.hbond>
-2.2494

> <Gold.PLP.part.metal>
0.0000

> <Gold.PLP.part.buried>
-3.4758

> <Gold.PLP.part.nonpolar>
-31.3416

> <Gold.PLP.part.repulsive>
0.5799

> <Gold.PLP.ligand.clash>
0.0000

> <Gold.PLP.ligand.torsion>
0.8046

> <Gold.PLP.Chemscore.Hbond>
1.0221

> <Gold.PLP.Chemscore.CHOScore>
0.6241

> <Gold.PLP.Chemscore.Metal>
0.0000

> <Gold.Chemscore.Hbonds>
donor molecule, donor type, donor heavy atom, donor atom, acceptor molecule, acceptor atom, score
      L1  H    21    45       P1  7957  1.00
      P1  H 10785 10796       L1     6  0.07
      L1  C    17    42       P1 10171  0.62

> <Gold.PLP.Chemscore.Internal.Correction>
0.1366

> <Gold.Rescore>
     Score         DG    S(hbond)    S(metal)    S(lipo)     H(rot)  DE(clash)    DE(int)     intcor
     13.28     -14.69       1.19        0.00      90.51       2.09       0.58       0.82       ----

> <Gold.Chemscore.Fitness>
13.2849

> <Gold.Chemscore.DG>
-14.6886

> <Gold.Chemscore.ZeroCoef>
-5.4800

> <Gold.Chemscore.Hbond>
1.1891

> <Gold.Chemscore.Metal>
0.0000

> <Gold.Chemscore.Lipo>
90.5142

> <Gold.Chemscore.Internal_Hbond>
0.0000

> <Gold.Chemscore.DEClash>
0.5787

> <Gold.Chemscore.DEInternal>
0.8250

> <Gold.Chemscore.Rot>
2.0911

> <Gold.Chemscore.Internal.Correction>
   9.000000E+99

> <Gold.Chemscore.Hbonds>
donor molecule, donor type, donor heavy atom, donor atom, acceptor molecule, acceptor atom, score
      L1  H    21    45       P1  7957  0.91
      P1  H 10785 10796       L1     6  0.02

> <Gold.Chemscore.Hbond.Weighted>
-3.9715

> <Gold.Chemscore.Metal.Weighted>
-0.0000

> <Gold.Chemscore.Lipo.Weighted>
-10.5902

> <Gold.Chemscore.Internal_Hbond.Weighted>
0.0000

> <Gold.Chemscore.DEClash.Weighted>
0.5787

> <Gold.Chemscore.DEInternal.Weighted>
0.8250

> <Gold.Chemscore.Rot.Weighted>
5.3531

> <Gold.Chemscore.Internal.Correction.Weighted>
   9.000000E+99

> <Gold.Protein.RotatedTorsions>
[ 6907 6896 6895 6894 ] final -110.15 input  -60.11 | X-H torsion
[ 7974 7965 7964 7962 ] final -141.62 input  175.53 | X-H torsion
[ 8008 7997 7996 7995 ] final  -16.90 input   59.86 | X-H torsion
[ 10167 10162 10161 10158 ] final -117.04 input  -65.29 | X-H torsion
[ 10718 10713 10712 10709 ] final  161.95 input   66.30 | X-H torsion
[ 10763 10752 10751 10750 ] final  -78.18 input  -60.55 | X-H torsion
[ 11005 11000 10999 10996 ] final  137.82 input  -57.11 | X-H torsion

> <Gold.Protein.ActiveResidues>
 VAL166  LYS551  ARG553  GLY616  TRP617  ASP618  TYR619  PRO620  LYS621  CYS622 
 ASP623  PHE694  ASN695  SER759  ASP760  ASP761  ALA762  ILE779  LEU786  VAL792 
 PHE793  MET794  SER795  GLU796  ALA797  LYS798  CYS799  TRP800  GLU811  SER814 

> <Gold.Protein.RotatedAtoms>
  150.7606  133.9424  159.3460 H   0  0  0  0  0  0  0  0  0  0  0  0  # atno 6907 bound_to 6896
  151.7334  135.0868  160.0313 H   0  0  0  0  0  0  0  0  0  0  0  0  # atno 6908 bound_to 6896
  152.3575  133.6218  159.6026 H   0  0  0  0  0  0  0  0  0  0  0  0  # atno 6909 bound_to 6896
  144.8505  140.6058  143.5393 H   0  0  0  0  0  0  0  0  0  0  0  0  # atno 7974 bound_to 7965
  154.5018  140.2157  155.9330 H   0  0  0  0  0  0  0  0  0  0  0  0  # atno 8008 bound_to 7997
  156.1444  140.3173  155.8513 H   0  0  0  0  0  0  0  0  0  0  0  0  # atno 8009 bound_to 7997
  155.4059  140.0487  157.3025 H   0  0  0  0  0  0  0  0  0  0  0  0  # atno 8010 bound_to 7997
  140.0727  143.4862  152.1971 H   0  0  0  0  0  0  0  0  0  0  0  0  # atno 10167 bound_to 10162
  157.1293  131.0512  151.2379 H   0  0  0  0  0  0  0  0  0  0  0  0  # atno 10718 bound_to 10713
  154.5226  135.5738  153.6693 H   0  0  0  0  0  0  0  0  0  0  0  0  # atno 10763 bound_to 10752
  152.9920  135.6185  154.2735 H   0  0  0  0  0  0  0  0  0  0  0  0  # atno 10764 bound_to 10752
  154.2656  135.2855  155.2739 H   0  0  0  0  0  0  0  0  0  0  0  0  # atno 10765 bound_to 10752
  140.0141  134.9426  157.0338 H   0  0  0  0  0  0  0  0  0  0  0  0  # atno 11005 bound_to 11000
  145.4509  139.1524  143.3919 LP  0  0  0  0  0  0  0  0  0  0  0  0  # atno 17320 bound_to 7965
  146.2781  140.4634  142.8787 LP  0  0  0  0  0  0  0  0  0  0  0  0  # atno 17321 bound_to 7965
  139.5826  144.7517  151.3600 LP  0  0  0  0  0  0  0  0  0  0  0  0  # atno 17342 bound_to 10162
  140.7118  143.7372  150.7580 LP  0  0  0  0  0  0  0  0  0  0  0  0  # atno 17343 bound_to 10162
  157.4406  130.7542  149.7066 LP  0  0  0  0  0  0  0  0  0  0  0  0  # atno 17370 bound_to 10713
  155.9811  130.4022  150.3489 LP  0  0  0  0  0  0  0  0  0  0  0  0  # atno 17371 bound_to 10713
  140.4503  134.1589  155.7181 LP  0  0  0  0  0  0  0  0  0  0  0  0  # atno 17394 bound_to 11000
  141.1731  133.8569  157.1509 LP  0  0  0  0  0  0  0  0  0  0  0  0  # atno 17395 bound_to 11000

$$$$
