AV-unprocessed.smi:1080|AV-procd|sdf|4707|dock5
  -GOLD-   22720 3233D 1   1.00000     0.00000
 Structure written by MMmdl.
 48 50  0  0  0  0  0  0  0  0  1 V2000
  151.3716  136.1182  155.6779 O   0  0  0  0  0  0  0  0  0  0  0  0
  150.5111  136.0287  154.8023 C   0  0  0  0  0  0  0  0  0  0  0  0
  149.9072  134.8901  154.4181 N   0  0  0  0  0  0  0  0  0  0  0  0
  150.0567  133.5781  154.9451 C   0  0  0  0  0  0  0  0  0  0  0  0
  149.4519  132.5162  154.2411 C   0  0  0  0  0  0  0  0  0  0  0  0
  149.5683  131.2082  154.7524 C   0  0  0  0  0  0  0  0  0  0  0  0
  150.2249  130.9135  155.8940 N   0  0  0  0  0  0  0  0  0  0  0  0
  150.7915  131.9324  156.5740 C   0  0  0  0  0  0  0  0  0  0  0  0
  150.7353  133.2756  156.1506 C   0  0  0  0  0  0  0  0  0  0  0  0
  150.0658  137.0728  154.0878 N   0  0  0  0  0  0  0  0  0  0  0  0
  150.4928  138.4615  154.2375 C   0  0  2  0  0  0  0  0  0  0  0  0
  152.0138  138.5103  154.4653 C   0  0  0  0  0  0  0  0  0  0  0  0
  152.5096  139.9404  154.7628 C   0  0  0  0  0  0  0  0  0  0  0  0
  151.7301  140.6680  155.8886 C   0  0  2  0  0  0  0  0  0  0  0  0
  152.1185  140.2086  157.3165 C   0  0  0  0  0  0  0  0  0  0  0  0
  152.8008  139.1917  157.4455 O   0  0  0  0  0  0  0  0  0  0  0  0
  151.7353  140.9438  158.3922 N   0  0  0  0  0  0  0  0  0  0  0  0
  152.2285  140.6642  159.7472 C   0  0  0  0  0  0  0  0  0  0  0  0
  153.3495  141.6617  160.0858 C   0  0  0  0  0  0  0  0  0  0  0  0
  152.7274  143.3732  160.0858 S   0  0  0  0  0  0  0  0  0  0  0  0
  151.8608  143.3861  158.4848 C   0  0  0  0  0  0  0  0  0  0  0  0
  150.9286  142.1703  158.3578 C   0  0  0  0  0  0  0  0  0  0  0  0
  150.2082  140.5600  155.6395 C   0  0  0  0  0  0  0  0  0  0  0  0
  149.7391  139.1131  155.4101 C   0  0  0  0  0  0  0  0  0  0  0  0
  149.2859  134.9663  153.6263 H   0  0  0  0  0  0  0  0  0  0  0  0
  148.9112  132.6946  153.3232 H   0  0  0  0  0  0  0  0  0  0  0  0
  149.1188  130.3762  154.2308 H   0  0  0  0  0  0  0  0  0  0  0  0
  151.3013  131.6707  157.4894 H   0  0  0  0  0  0  0  0  0  0  0  0
  151.1971  134.0366  156.7597 H   0  0  0  0  0  0  0  0  0  0  0  0
  149.3627  136.8954  153.3854 H   0  0  0  0  0  0  0  0  0  0  0  0
  150.2686  139.0297  153.3328 H   0  0  0  0  0  0  0  0  0  0  0  0
  152.2860  137.8394  155.2795 H   0  0  0  0  0  0  0  0  0  0  0  0
  152.5295  138.1275  153.5840 H   0  0  0  0  0  0  0  0  0  0  0  0
  153.5748  139.9164  154.9964 H   0  0  0  0  0  0  0  0  0  0  0  0
  152.4242  140.5297  153.8489 H   0  0  0  0  0  0  0  0  0  0  0  0
  152.0216  141.7125  155.7902 H   0  0  0  0  0  0  0  0  0  0  0  0
  151.4170  140.7503  160.4711 H   0  0  0  0  0  0  0  0  0  0  0  0
  152.5987  139.6435  159.8528 H   0  0  0  0  0  0  0  0  0  0  0  0
  153.7711  141.4428  161.0668 H   0  0  0  0  0  0  0  0  0  0  0  0
  154.1622  141.5788  159.3632 H   0  0  0  0  0  0  0  0  0  0  0  0
  151.2921  144.3125  158.4028 H   0  0  0  0  0  0  0  0  0  0  0  0
  152.5974  143.3902  157.6806 H   0  0  0  0  0  0  0  0  0  0  0  0
  150.3135  142.2508  157.4632 H   0  0  0  0  0  0  0  0  0  0  0  0
  150.2129  142.1670  159.1811 H   0  0  0  0  0  0  0  0  0  0  0  0
  149.6517  140.9910  156.4723 H   0  0  0  0  0  0  0  0  0  0  0  0
  149.9477  141.1607  154.7672 H   0  0  0  0  0  0  0  0  0  0  0  0
  148.6670  139.1070  155.2095 H   0  0  0  0  0  0  0  0  0  0  0  0
  149.8836  138.5288  156.3198 H   0  0  0  0  0  0  0  0  0  0  0  0
  1  2  2  0  0  0  0
  2  3  1  0  0  0  0
  2 10  1  0  0  0  0
  3  4  1  0  0  0  0
  3 25  1  0  0  0  0
  4  9  1  0  0  0  0
  4  5  2  0  0  0  0
  5  6  1  0  0  0  0
  5 26  1  0  0  0  0
  6  7  2  0  0  0  0
  6 27  1  0  0  0  0
  7  8  1  0  0  0  0
  8  9  2  0  0  0  0
  8 28  1  0  0  0  0
  9 29  1  0  0  0  0
 10 11  1  0  0  0  0
 10 30  1  0  0  0  0
 11 24  1  0  0  0  0
 11 12  1  0  0  0  0
 11 31  1  0  0  0  0
 12 13  1  0  0  0  0
 12 32  1  0  0  0  0
 12 33  1  0  0  0  0
 13 14  1  0  0  0  0
 13 34  1  0  0  0  0
 13 35  1  0  0  0  0
 14 15  1  0  0  0  0
 14 23  1  0  0  0  0
 14 36  1  0  0  0  0
 15 16  2  0  0  0  0
 15 17  1  0  0  0  0
 17 22  1  0  0  0  0
 17 18  1  0  0  0  0
 18 19  1  0  0  0  0
 18 37  1  0  0  0  0
 18 38  1  0  0  0  0
 19 20  1  0  0  0  0
 19 39  1  0  0  0  0
 19 40  1  0  0  0  0
 20 21  1  0  0  0  0
 21 22  1  0  0  0  0
 21 41  1  0  0  0  0
 21 42  1  0  0  0  0
 22 43  1  0  0  0  0
 22 44  1  0  0  0  0
 23 24  1  0  0  0  0
 23 45  1  0  0  0  0
 23 46  1  0  0  0  0
 24 47  1  0  0  0  0
 24 48  1  0  0  0  0
M  END
> <s_m_source_file>
AV-unprocessed.smi

> <i_m_source_file_index>
1080

> <i_lp_mmshare_version>
43012

> <i_f3d_flags>
0

> <s_epik_input>
W2NIXTFbY0hdbltjSF1bY0hdYzFbTkhdQyg9TylbTkhdW0NAQEhdMltDSDJdW0NIMl1bQ0BIXShbQ0gyXVtDSDJdMilDKD1PKU4zW0NIMl1bQ0gyXVNbQ0gyXVtDSDJdMw==

> <s_epik_cmdline>
J2VwaWtfcHl0aG9uJywgJy1waCcsICc3LjAnLCAnLXRuJywgJzgnLCAnLW1hJywgJzIwMCcsICctbWV0YWxfYmluZGluZycsICctaW1hZScsICc8aW5maWxlLm1hZT4nLCAnLW9tYWUnLCAnPG91dGZpbGUubWFlPic=

> <r_epik_Ionization_Penalty>
0.118325

> <r_epik_Ionization_Penalty_Charging>
0

> <r_epik_Ionization_Penalty_Neutral>
0.118325

> <r_epik_State_Penalty>
0.107868

> <r_epik_Charging_Adjusted_Penalty>
0.107868

> <i_epik_Tot_Q>
0

> <i_epik_Tot_abs_Q>
0

> <r_epik_Metal_State_Penalty>
0.0897632

> <b_epik_Metal_Only>
0

> <s_lp_Force_Field>
OPLS_2005

> <r_lp_Energy>
32.5604

> <b_lp_Chiralities_Consistent>
1

> <s_lp_Variant>
AV-unprocessed.smi:1080-2

> <Gold.Version>
5.8.1

> <Gold.Id.Protein>
6NUR|6NUR_protein|mol2

> <Gold.PLP.Fitness>
52.5659

> <Gold.PLP.PLP>
-43.5974

> <Gold.PLP.part.hbond>
-5.0000

> <Gold.PLP.part.metal>
0.0000

> <Gold.PLP.part.buried>
0.4657

> <Gold.PLP.part.nonpolar>
-37.9089

> <Gold.PLP.part.repulsive>
0.1630

> <Gold.PLP.ligand.clash>
0.0000

> <Gold.PLP.ligand.torsion>
0.5307

> <Gold.PLP.Chemscore.Hbond>
3.3192

> <Gold.PLP.Chemscore.CHOScore>
0.0000

> <Gold.PLP.Chemscore.Metal>
0.0000

> <Gold.Chemscore.Hbonds>
donor molecule, donor type, donor heavy atom, donor atom, acceptor molecule, acceptor atom, score
      L1  H     3    25       P1  7948  0.46
      L1  H    10    30       P1  7948  0.94
      P1  H  7997  8008       L1    16  0.85
      P1  H 10752 10765       L1     1  1.00

> <Gold.PLP.Chemscore.Internal.Correction>
0.0724

> <Gold.Rescore>
     Score         DG    S(hbond)    S(metal)    S(lipo)     H(rot)  DE(clash)    DE(int)     intcor
     18.83     -23.86       2.46        0.00     114.01       1.23       1.95       3.08       ----

> <Gold.Chemscore.Fitness>
18.8289

> <Gold.Chemscore.DG>
-23.8597

> <Gold.Chemscore.ZeroCoef>
-5.4800

> <Gold.Chemscore.Hbond>
2.4551

> <Gold.Chemscore.Metal>
0.0000

> <Gold.Chemscore.Lipo>
114.0127

> <Gold.Chemscore.Internal_Hbond>
0.0000

> <Gold.Chemscore.DEClash>
1.9475

> <Gold.Chemscore.DEInternal>
3.0832

> <Gold.Chemscore.Rot>
1.2344

> <Gold.Chemscore.Internal.Correction>
   9.000000E+99

> <Gold.Chemscore.Hbonds>
donor molecule, donor type, donor heavy atom, donor atom, acceptor molecule, acceptor atom, score
      L1  H     3    25       P1  7948  0.08
      L1  H    10    30       P1  7948  0.84
      P1  H  7997  8008       L1    16  0.14
      P1  H 10752 10765       L1     1  0.73

> <Gold.Chemscore.Hbond.Weighted>
-8.2002

> <Gold.Chemscore.Metal.Weighted>
-0.0000

> <Gold.Chemscore.Lipo.Weighted>
-13.3395

> <Gold.Chemscore.Internal_Hbond.Weighted>
0.0000

> <Gold.Chemscore.DEClash.Weighted>
1.9475

> <Gold.Chemscore.DEInternal.Weighted>
3.0832

> <Gold.Chemscore.Rot.Weighted>
3.1600

> <Gold.Chemscore.Internal.Correction.Weighted>
   9.000000E+99

> <Gold.Protein.RotatedTorsions>
[ 6907 6896 6895 6894 ] final  -21.56 input  -60.11 | X-H torsion
[ 7974 7965 7964 7962 ] final  136.53 input  175.53 | X-H torsion
[ 8008 7997 7996 7995 ] final  -86.20 input   59.86 | X-H torsion
[ 10167 10162 10161 10158 ] final -126.03 input  -65.29 | X-H torsion
[ 10718 10713 10712 10709 ] final   31.63 input   66.30 | X-H torsion
[ 10763 10752 10751 10750 ] final -153.38 input  -60.55 | X-H torsion
[ 11005 11000 10999 10996 ] final   80.03 input  -57.11 | X-H torsion

> <Gold.Protein.ActiveResidues>
 VAL166  LYS551  ARG553  GLY616  TRP617  ASP618  TYR619  PRO620  LYS621  CYS622 
 ASP623  PHE694  ASN695  SER759  ASP760  ASP761  ALA762  ILE779  LEU786  VAL792 
 PHE793  MET794  SER795  GLU796  ALA797  LYS798  CYS799  TRP800  GLU811  SER814 

> <Gold.Protein.RotatedAtoms>
  151.2315  135.0556  159.8989 H   0  0  0  0  0  0  0  0  0  0  0  0  # atno 6907 bound_to 6896
  152.5404  134.0532  159.8129 H   0  0  0  0  0  0  0  0  0  0  0  0  # atno 6908 bound_to 6896
  151.0713  133.5416  159.2658 H   0  0  0  0  0  0  0  0  0  0  0  0  # atno 6909 bound_to 6896
  144.9556  139.4769  143.5505 H   0  0  0  0  0  0  0  0  0  0  0  0  # atno 7974 bound_to 7965
  154.6492  140.0581  156.9936 H   0  0  0  0  0  0  0  0  0  0  0  0  # atno 8008 bound_to 7997
  155.1397  140.3264  155.4436 H   0  0  0  0  0  0  0  0  0  0  0  0  # atno 8009 bound_to 7997
  156.2568  140.1966  156.6513 H   0  0  0  0  0  0  0  0  0  0  0  0  # atno 8010 bound_to 7997
  139.9758  143.5796  152.2396 H   0  0  0  0  0  0  0  0  0  0  0  0  # atno 10167 bound_to 10162
  157.2750  130.7226  149.6525 H   0  0  0  0  0  0  0  0  0  0  0  0  # atno 10718 bound_to 10713
  154.7931  135.3214  154.7729 H   0  0  0  0  0  0  0  0  0  0  0  0  # atno 10763 bound_to 10752
  153.8414  135.6870  153.4807 H   0  0  0  0  0  0  0  0  0  0  0  0  # atno 10764 bound_to 10752
  153.1611  135.4660  154.9714 H   0  0  0  0  0  0  0  0  0  0  0  0  # atno 10765 bound_to 10752
  139.9150  134.7889  156.1856 H   0  0  0  0  0  0  0  0  0  0  0  0  # atno 11005 bound_to 11000
  146.3336  139.8671  142.8846 LP  0  0  0  0  0  0  0  0  0  0  0  0  # atno 17320 bound_to 7965
  145.2778  141.0129  143.3735 LP  0  0  0  0  0  0  0  0  0  0  0  0  # atno 17321 bound_to 7965
  139.6447  144.7657  151.2268 LP  0  0  0  0  0  0  0  0  0  0  0  0  # atno 17342 bound_to 10162
  140.7506  143.6259  150.8469 LP  0  0  0  0  0  0  0  0  0  0  0  0  # atno 17343 bound_to 10162
  155.9663  130.4356  150.5097 LP  0  0  0  0  0  0  0  0  0  0  0  0  # atno 17370 bound_to 10713
  157.3030  131.0649  151.2055 LP  0  0  0  0  0  0  0  0  0  0  0  0  # atno 17371 bound_to 10713
  141.0615  133.6839  156.1962 LP  0  0  0  0  0  0  0  0  0  0  0  0  # atno 17394 bound_to 11000
  140.6653  134.4925  157.5585 LP  0  0  0  0  0  0  0  0  0  0  0  0  # atno 17395 bound_to 11000

$$$$
