AV-unprocessed.smi:829|AV-procd|sdf|3868|dock4
  -GOLD-   22720 1323D 1   1.00000     0.00000
 Structure written by MMmdl.
 50 52  0  0  0  0  0  0  0  0  3 V2000
  145.3234  128.8405  151.4003 O   0  0  0  0  0  0  0  0  0  0  0  0
  146.3279  129.4287  151.0008 C   0  0  0  0  0  0  0  0  0  0  0  0
  146.3701  130.7116  150.6011 N   0  0  0  0  0  0  0  0  0  0  0  0
  145.3071  131.6537  150.5404 C   0  0  0  0  0  0  0  0  0  0  0  0
  145.2888  132.5495  149.4481 C   0  0  0  0  0  0  0  0  0  0  0  0
  144.2605  133.5092  149.3524 C   0  0  0  0  0  0  0  0  0  0  0  0
  143.3089  133.5726  150.3081 N   0  3  0  0  0  0  0  0  0  0  0  0
  143.2930  132.7489  151.3779 C   0  0  0  0  0  0  0  0  0  0  0  0
  144.2952  131.7687  151.5276 C   0  0  0  0  0  0  0  0  0  0  0  0
  147.5302  128.8444  150.8930 N   0  0  0  0  0  0  0  0  0  0  0  0
  147.8135  127.4463  151.2050 C   0  0  2  0  0  0  0  0  0  0  0  0
  148.7715  127.3294  152.4047 C   0  0  0  0  0  0  0  0  0  0  0  0
  149.1498  125.8627  152.6738 C   0  0  0  0  0  0  0  0  0  0  0  0
  149.7375  125.2279  151.4657 N   0  3  1  0  0  0  0  0  0  0  0  0
  150.2455  123.8548  151.7206 C   0  0  0  0  0  0  0  0  0  0  0  0
  151.5125  123.5491  150.8993 C   0  0  0  0  0  0  0  0  0  0  0  0
  152.8319  123.9702  151.5537 C   0  0  0  0  0  0  0  0  0  0  0  0
  153.8424  124.0362  150.4043 C   0  0  0  0  0  0  0  0  0  0  0  0
  153.0225  124.2617  149.1254 C   0  0  0  0  0  0  0  0  0  0  0  0
  151.5522  124.2862  149.5576 C   0  0  0  0  0  0  0  0  0  0  0  0
  148.8091  125.2975  150.3070 C   0  0  0  0  0  0  0  0  0  0  0  0
  148.4356  126.7530  149.9828 C   0  0  0  0  0  0  0  0  0  0  0  0
  147.2519  131.0297  150.2263 H   0  0  0  0  0  0  0  0  0  0  0  0
  146.0512  132.5004  148.6838 H   0  0  0  0  0  0  0  0  0  0  0  0
  144.1728  134.2238  148.5470 H   0  0  0  0  0  0  0  0  0  0  0  0
  142.4875  132.9010  152.0816 H   0  0  0  0  0  0  0  0  0  0  0  0
  144.2735  131.1346  152.4006 H   0  0  0  0  0  0  0  0  0  0  0  0
  148.3020  129.4004  150.5540 H   0  0  0  0  0  0  0  0  0  0  0  0
  146.8778  126.9374  151.4456 H   0  0  0  0  0  0  0  0  0  0  0  0
  149.6770  127.9080  152.2146 H   0  0  0  0  0  0  0  0  0  0  0  0
  148.3136  127.7574  153.2974 H   0  0  0  0  0  0  0  0  0  0  0  0
  149.8677  125.8259  153.4942 H   0  0  0  0  0  0  0  0  0  0  0  0
  148.2715  125.2988  152.9928 H   0  0  0  0  0  0  0  0  0  0  0  0
  150.5037  123.7513  152.7756 H   0  0  0  0  0  0  0  0  0  0  0  0
  149.4676  123.1120  151.5363 H   0  0  0  0  0  0  0  0  0  0  0  0
  151.5541  122.4780  150.6932 H   0  0  0  0  0  0  0  0  0  0  0  0
  152.7274  124.9605  151.9991 H   0  0  0  0  0  0  0  0  0  0  0  0
  153.1495  123.2838  152.3391 H   0  0  0  0  0  0  0  0  0  0  0  0
  154.5788  124.8246  150.5639 H   0  0  0  0  0  0  0  0  0  0  0  0
  154.3860  123.0937  150.3296 H   0  0  0  0  0  0  0  0  0  0  0  0
  153.3020  125.1870  148.6207 H   0  0  0  0  0  0  0  0  0  0  0  0
  153.1977  123.4436  148.4258 H   0  0  0  0  0  0  0  0  0  0  0  0
  150.8938  123.8361  148.8140 H   0  0  0  0  0  0  0  0  0  0  0  0
  151.2341  125.3211  149.6937 H   0  0  0  0  0  0  0  0  0  0  0  0
  149.2667  124.8415  149.4299 H   0  0  0  0  0  0  0  0  0  0  0  0
  147.9086  124.7212  150.5259 H   0  0  0  0  0  0  0  0  0  0  0  0
  147.7384  126.7754  149.1442 H   0  0  0  0  0  0  0  0  0  0  0  0
  149.3274  127.2924  149.6595 H   0  0  0  0  0  0  0  0  0  0  0  0
  150.5461  125.7841  151.2270 H   0  0  0  0  0  0  0  0  0  0  0  0
  142.5740  134.2751  150.2210 H   0  0  0  0  0  0  0  0  0  0  0  0
  1  2  2  0  0  0  0
  2  3  1  0  0  0  0
  2 10  1  0  0  0  0
  3  4  1  0  0  0  0
  3 23  1  0  0  0  0
  4  9  1  0  0  0  0
  4  5  2  0  0  0  0
  5  6  1  0  0  0  0
  5 24  1  0  0  0  0
  6  7  2  0  0  0  0
  6 25  1  0  0  0  0
  7  8  1  0  0  0  0
  7 50  1  0  0  0  0
  8  9  2  0  0  0  0
  8 26  1  0  0  0  0
  9 27  1  0  0  0  0
 10 11  1  0  0  0  0
 10 28  1  0  0  0  0
 11 22  1  0  0  0  0
 11 12  1  0  0  0  0
 11 29  1  0  0  0  0
 12 13  1  0  0  0  0
 12 30  1  0  0  0  0
 12 31  1  0  0  0  0
 13 14  1  0  0  0  0
 13 32  1  0  0  0  0
 13 33  1  0  0  0  0
 14 15  1  0  0  0  0
 14 21  1  0  0  0  0
 14 49  1  0  0  0  0
 15 16  1  0  0  0  0
 15 34  1  0  0  0  0
 15 35  1  0  0  0  0
 16 20  1  0  0  0  0
 16 17  1  0  0  0  0
 16 36  1  0  0  0  0
 17 18  1  0  0  0  0
 17 37  1  0  0  0  0
 17 38  1  0  0  0  0
 18 19  1  0  0  0  0
 18 39  1  0  0  0  0
 18 40  1  0  0  0  0
 19 20  1  0  0  0  0
 19 41  1  0  0  0  0
 19 42  1  0  0  0  0
 20 43  1  0  0  0  0
 20 44  1  0  0  0  0
 21 22  1  0  0  0  0
 21 45  1  0  0  0  0
 21 46  1  0  0  0  0
 22 47  1  0  0  0  0
 22 48  1  0  0  0  0
M  CHG  1   7   1
M  CHG  1  14   1
M  END
> <s_m_source_file>
AV-unprocessed.smi

> <i_m_source_file_index>
829

> <i_lp_mmshare_version>
43012

> <i_f3d_flags>
0

> <s_epik_input>
W2NIXTFbY0hdbltjSF1bY0hdYzFbTkhdQyg9TylbTkhdW0NIXTJbQ0gyXVtDSDJdTihbQ0gyXVtDSDJdMilbQ0gyXVtDSF0zW0NIMl1bQ0gyXVtDSDJdW0NIMl0z

> <s_epik_cmdline>
J2VwaWtfcHl0aG9uJywgJy1waCcsICc3LjAnLCAnLXRuJywgJzgnLCAnLW1hJywgJzIwMCcsICctbWV0YWxfYmluZGluZycsICctaW1hZScsICc8aW5maWxlLm1hZT4nLCAnLW9tYWUnLCAnPG91dGZpbGUubWFlPic=

> <r_epik_Ionization_Penalty>
1.10644

> <r_epik_Ionization_Penalty_Charging>
1.10642

> <r_epik_Ionization_Penalty_Neutral>
1.84455e-05

> <r_epik_State_Penalty>
1.14949

> <r_epik_Charging_Adjusted_Penalty>
2.25592

> <i_epik_Tot_Q>
2

> <i_epik_Tot_abs_Q>
2

> <r_epik_Metal_State_Penalty>
1.23448

> <b_epik_Metal_Only>
0

> <s_lp_Force_Field>
OPLS_2005

> <r_lp_Energy>
49.76

> <b_lp_Chiralities_Consistent>
1

> <s_lp_Variant>
AV-unprocessed.smi:829-3

> <Gold.Version>
5.8.1

> <Gold.Id.Protein>
6NUR|6NUR_protein|mol2

> <Gold.PLP.Fitness>
50.9367

> <Gold.PLP.PLP>
-38.3186

> <Gold.PLP.part.hbond>
-3.6741

> <Gold.PLP.part.metal>
0.0000

> <Gold.PLP.part.buried>
-3.4712

> <Gold.PLP.part.nonpolar>
-32.4696

> <Gold.PLP.part.repulsive>
0.3648

> <Gold.PLP.ligand.clash>
0.0000

> <Gold.PLP.ligand.torsion>
1.0529

> <Gold.PLP.Chemscore.Hbond>
4.8960

> <Gold.PLP.Chemscore.CHOScore>
0.0000

> <Gold.PLP.Chemscore.Metal>
0.0000

> <Gold.Chemscore.Hbonds>
donor molecule, donor type, donor heavy atom, donor atom, acceptor molecule, acceptor atom, score
      L1  H     3    23       P1 10747  0.93
      L1  H     7    50       P1 10186  1.60
      L1  H    10    28       P1 10747  0.85

> <Gold.PLP.Chemscore.Internal.Correction>
0.0358

> <Gold.Rescore>
     Score         DG    S(hbond)    S(metal)    S(lipo)     H(rot)  DE(clash)    DE(int)     intcor
     20.18     -22.94       3.06        0.00      91.81       1.37       0.16       2.60       ----

> <Gold.Chemscore.Fitness>
20.1821

> <Gold.Chemscore.DG>
-22.9439

> <Gold.Chemscore.ZeroCoef>
-5.4800

> <Gold.Chemscore.Hbond>
3.0631

> <Gold.Chemscore.Metal>
0.0000

> <Gold.Chemscore.Lipo>
91.8132

> <Gold.Chemscore.Internal_Hbond>
0.0000

> <Gold.Chemscore.DEClash>
0.1570

> <Gold.Chemscore.DEInternal>
2.6048

> <Gold.Chemscore.Rot>
1.3707

> <Gold.Chemscore.Internal.Correction>
   9.000000E+99

> <Gold.Chemscore.Hbonds>
donor molecule, donor type, donor heavy atom, donor atom, acceptor molecule, acceptor atom, score
      L1  H     3    23       P1 10747  0.90
      L1  H     7    50       P1 10186  0.68
      L1  H    10    28       P1 10747  0.14
      L1  H    14    49       P1 10737  0.04

> <Gold.Chemscore.Hbond.Weighted>
-10.2307

> <Gold.Chemscore.Metal.Weighted>
-0.0000

> <Gold.Chemscore.Lipo.Weighted>
-10.7421

> <Gold.Chemscore.Internal_Hbond.Weighted>
0.0000

> <Gold.Chemscore.DEClash.Weighted>
0.1570

> <Gold.Chemscore.DEInternal.Weighted>
2.6048

> <Gold.Chemscore.Rot.Weighted>
3.5089

> <Gold.Chemscore.Internal.Correction.Weighted>
   9.000000E+99

> <Gold.Protein.RotatedTorsions>
[ 6907 6896 6895 6894 ] final  -96.37 input  -60.11 | X-H torsion
[ 7974 7965 7964 7962 ] final -155.55 input  175.53 | X-H torsion
[ 8008 7997 7996 7995 ] final   24.91 input   59.86 | X-H torsion
[ 10167 10162 10161 10158 ] final -100.15 input  -65.29 | X-H torsion
[ 10718 10713 10712 10709 ] final -126.35 input   66.30 | X-H torsion
[ 10763 10752 10751 10750 ] final   65.01 input  -60.55 | X-H torsion
[ 11005 11000 10999 10996 ] final  -70.46 input  -57.11 | X-H torsion

> <Gold.Protein.ActiveResidues>
 VAL166  LYS551  ARG553  GLY616  TRP617  ASP618  TYR619  PRO620  LYS621  CYS622 
 ASP623  PHE694  ASN695  SER759  ASP760  ASP761  ALA762  ILE779  LEU786  VAL792 
 PHE793  MET794  SER795  GLU796  ALA797  LYS798  CYS799  TRP800  GLU811  SER814 

> <Gold.Protein.RotatedAtoms>
  150.6987  134.1514  159.4141 H   0  0  0  0  0  0  0  0  0  0  0  0  # atno 6907 bound_to 6896
  151.9497  135.0173  160.0550 H   0  0  0  0  0  0  0  0  0  0  0  0  # atno 6908 bound_to 6896
  152.2022  133.4814  159.5101 H   0  0  0  0  0  0  0  0  0  0  0  0  # atno 6909 bound_to 6896
  144.7635  140.4234  143.5959 H   0  0  0  0  0  0  0  0  0  0  0  0  # atno 7974 bound_to 7965
  155.0035  140.3128  155.4858 H   0  0  0  0  0  0  0  0  0  0  0  0  # atno 8008 bound_to 7997
  156.2921  140.2227  156.5087 H   0  0  0  0  0  0  0  0  0  0  0  0  # atno 8009 bound_to 7997
  154.7597  140.0460  157.0951 H   0  0  0  0  0  0  0  0  0  0  0  0  # atno 8010 bound_to 7997
  140.2550  143.3446  152.0679 H   0  0  0  0  0  0  0  0  0  0  0  0  # atno 10167 bound_to 10162
  156.1757  130.6698  151.0239 H   0  0  0  0  0  0  0  0  0  0  0  0  # atno 10718 bound_to 10713
  153.0078  135.5372  154.6599 H   0  0  0  0  0  0  0  0  0  0  0  0  # atno 10763 bound_to 10752
  154.5810  135.2850  155.0734 H   0  0  0  0  0  0  0  0  0  0  0  0  # atno 10764 bound_to 10752
  154.1863  135.6507  153.5100 H   0  0  0  0  0  0  0  0  0  0  0  0  # atno 10765 bound_to 10752
  141.1574  133.6790  156.6755 H   0  0  0  0  0  0  0  0  0  0  0  0  # atno 11005 bound_to 11000
  145.6544  139.1570  143.2844 LP  0  0  0  0  0  0  0  0  0  0  0  0  # atno 17320 bound_to 7965
  146.1720  140.6630  142.9228 LP  0  0  0  0  0  0  0  0  0  0  0  0  # atno 17321 bound_to 7965
  139.5034  144.6755  151.6138 LP  0  0  0  0  0  0  0  0  0  0  0  0  # atno 17342 bound_to 10162
  140.6011  143.9608  150.6387 LP  0  0  0  0  0  0  0  0  0  0  0  0  # atno 17343 bound_to 10162
  157.6834  131.0832  150.7309 LP  0  0  0  0  0  0  0  0  0  0  0  0  # atno 17370 bound_to 10713
  156.7367  130.4726  149.5487 LP  0  0  0  0  0  0  0  0  0  0  0  0  # atno 17371 bound_to 10713
  140.3142  134.8061  157.4200 LP  0  0  0  0  0  0  0  0  0  0  0  0  # atno 17394 bound_to 11000
  140.1152  134.5292  155.8231 LP  0  0  0  0  0  0  0  0  0  0  0  0  # atno 17395 bound_to 11000

$$$$
