AV-unprocessed.smi:110|AV-procd|sdf|1070|dock3
  -GOLD-   2262018153D 1   1.00000     0.00000
 Structure written by MMmdl.
 46 50  0  0  0  0  0  0  0  0  1 V2000
  147.6650  136.0329  154.2576 O   0  0  0  0  0  0  0  0  0  0  0  0
  147.2385  137.3048  154.6973 C   0  0  0  0  0  0  0  0  0  0  0  0
  148.1852  138.3936  154.1623 C   0  0  2  0  0  0  0  0  0  0  0  0
  149.4453  138.3360  154.8130 O   0  0  0  0  0  0  0  0  0  0  0  0
  150.1099  139.5386  154.5991 C   0  0  2  0  0  0  0  0  0  0  0  0
  150.9635  139.8165  155.7929 N   0  0  0  0  0  0  0  0  0  0  0  0
  152.0590  139.1054  156.2256 C   0  0  0  0  0  0  0  0  0  0  0  0
  152.6340  139.5670  157.3026 N   0  0  0  0  0  0  0  0  0  0  0  0
  151.8721  140.6768  157.6517 C   0  0  0  0  0  0  0  0  0  0  0  0
  151.9343  141.6415  158.7000 C   0  0  0  0  0  0  0  0  0  0  0  0
  152.8659  141.6215  159.6884 N   0  0  0  0  0  0  0  0  0  0  0  0
  153.7632  140.4616  159.8086 C   0  0  0  0  0  0  0  0  0  0  0  0
  154.3122  140.4326  161.2459 C   0  0  0  0  0  0  0  0  0  0  0  0
  153.7395  141.6975  161.7932 C   0  0  0  0  0  0  0  0  0  0  0  0
  153.9589  142.2445  163.0694 C   0  0  0  0  0  0  0  0  0  0  0  0
  153.3300  143.4669  163.3863 C   0  0  0  0  0  0  0  0  0  0  0  0
  152.5103  144.1150  162.4340 C   0  0  0  0  0  0  0  0  0  0  0  0
  152.3050  143.5466  161.1574 C   0  0  0  0  0  0  0  0  0  0  0  0
  152.9238  142.3155  160.8494 C   0  0  0  0  0  0  0  0  0  0  0  0
  150.9828  142.6109  158.7077 N   0  0  0  0  0  0  0  0  0  0  0  0
  150.0428  142.6455  157.7603 C   0  0  0  0  0  0  0  0  0  0  0  0
  149.8701  141.8195  156.7284 N   0  0  0  0  0  0  0  0  0  0  0  0
  150.8175  140.8391  156.7078 C   0  0  0  0  0  0  0  0  0  0  0  0
  149.0462  140.6339  154.4005 C   0  0  1  0  0  0  0  0  0  0  0  0
  149.2066  141.2762  153.1512 O   0  0  0  0  0  0  0  0  0  0  0  0
  147.7368  139.8450  154.3979 C   0  0  2  0  0  0  0  0  0  0  0  0
  147.0671  139.9909  155.6364 O   0  0  0  0  0  0  0  0  0  0  0  0
  148.3447  138.2592  153.0904 H   0  0  0  0  0  0  0  0  0  0  0  0
  150.8057  139.4451  153.7638 H   0  0  0  0  0  0  0  0  0  0  0  0
  149.0839  141.3778  155.1984 H   0  0  0  0  0  0  0  0  0  0  0  0
  147.0491  140.1757  153.6180 H   0  0  0  0  0  0  0  0  0  0  0  0
  148.1556  136.1400  153.4572 H   0  0  0  0  0  0  0  0  0  0  0  0
  146.2304  137.4596  154.3118 H   0  0  0  0  0  0  0  0  0  0  0  0
  147.1801  137.3288  155.7861 H   0  0  0  0  0  0  0  0  0  0  0  0
  152.4253  138.2292  155.7107 H   0  0  0  0  0  0  0  0  0  0  0  0
  153.2397  139.5340  159.5735 H   0  0  0  0  0  0  0  0  0  0  0  0
  154.5847  140.5708  159.1001 H   0  0  0  0  0  0  0  0  0  0  0  0
  153.9431  139.5741  161.8076 H   0  0  0  0  0  0  0  0  0  0  0  0
  155.4021  140.4454  161.2743 H   0  0  0  0  0  0  0  0  0  0  0  0
  154.5937  141.7453  163.7866 H   0  0  0  0  0  0  0  0  0  0  0  0
  153.4807  143.9125  164.3585 H   0  0  0  0  0  0  0  0  0  0  0  0
  152.0409  145.0554  162.6823 H   0  0  0  0  0  0  0  0  0  0  0  0
  151.6896  144.0617  160.4353 H   0  0  0  0  0  0  0  0  0  0  0  0
  149.3256  143.4490  157.8411 H   0  0  0  0  0  0  0  0  0  0  0  0
  149.0541  140.6423  152.4672 H   0  0  0  0  0  0  0  0  0  0  0  0
  146.9658  139.1365  156.0268 H   0  0  0  0  0  0  0  0  0  0  0  0
  1  2  1  0  0  0  0
  1 32  1  0  0  0  0
  2  3  1  0  0  0  0
  2 33  1  0  0  0  0
  2 34  1  0  0  0  0
  3 28  1  0  0  0  0
  3 26  1  0  0  0  0
  3  4  1  0  0  0  0
  4  5  1  0  0  0  0
  5 29  1  0  0  0  0
  5  6  1  0  0  0  0
  5 24  1  0  0  0  0
  6 23  1  0  0  0  0
  6  7  1  0  0  0  0
  7  8  2  0  0  0  0
  7 35  1  0  0  0  0
  8  9  1  0  0  0  0
  9 23  2  0  0  0  0
  9 10  1  0  0  0  0
 10 11  1  0  0  0  0
 10 20  2  0  0  0  0
 11 19  1  0  0  0  0
 11 12  1  0  0  0  0
 12 13  1  0  0  0  0
 12 36  1  0  0  0  0
 12 37  1  0  0  0  0
 13 14  1  0  0  0  0
 13 38  1  0  0  0  0
 13 39  1  0  0  0  0
 14 19  2  0  0  0  0
 14 15  1  0  0  0  0
 15 16  2  0  0  0  0
 15 40  1  0  0  0  0
 16 17  1  0  0  0  0
 16 41  1  0  0  0  0
 17 18  2  0  0  0  0
 17 42  1  0  0  0  0
 18 19  1  0  0  0  0
 18 43  1  0  0  0  0
 20 21  1  0  0  0  0
 21 22  2  0  0  0  0
 21 44  1  0  0  0  0
 22 23  1  0  0  0  0
 24 30  1  0  0  0  0
 24 25  1  0  0  0  0
 24 26  1  0  0  0  0
 25 45  1  0  0  0  0
 26 31  1  0  0  0  0
 26 27  1  0  0  0  0
 27 46  1  0  0  0  0
M  END
> <s_m_source_file>
AV-unprocessed.smi

> <i_m_source_file_index>
110

> <i_lp_mmshare_version>
43012

> <i_f3d_flags>
0

> <s_epik_input>
W09IXVtDSDJdW0NASF0xT1tDQEhdKFtDQEhdKFtPSF0pW0NAQEhdMVtPSF0pbihbY0hdbjIpYyhjMjMpbltjSF1uYzNOKFtDSDJdW0NIMl00KWMoYzQ1KVtjSF1bY0hdW2NIXVtjSF01

> <s_epik_cmdline>
J2VwaWtfcHl0aG9uJywgJy1waCcsICc3LjAnLCAnLXRuJywgJzgnLCAnLW1hJywgJzIwMCcsICctbWV0YWxfYmluZGluZycsICctaW1hZScsICc8aW5maWxlLm1hZT4nLCAnLW9tYWUnLCAnPG91dGZpbGUubWFlPic=

> <r_lp_tautomer_probability>
1

> <r_epik_Ionization_Penalty>
0.00068475

> <r_epik_Ionization_Penalty_Charging>
0

> <r_epik_Ionization_Penalty_Neutral>
0.00068475

> <r_epik_State_Penalty>
0.000417442

> <r_epik_Charging_Adjusted_Penalty>
0.000417442

> <i_epik_Tot_Q>
0

> <i_epik_Tot_abs_Q>
0

> <r_epik_Metal_State_Penalty>
-0

> <b_epik_Metal_Only>
0

> <s_epik_Chemistry_Notes>
This compound contains an acetal/aminal-like group ( X-CH(R)-Y where X, Y are N, S, or O) that may be acid/base labile, releasing an aldehyde.

> <s_lp_Force_Field>
OPLS_2005

> <r_lp_Energy>
57.5739

> <b_lp_Chiralities_Consistent>
1

> <s_lp_Variant>
AV-unprocessed.smi:110-8

> <Gold.Version>
5.8.1

> <Gold.Id.Protein>
6NUR|6NUR_protein|mol2

> <Gold.PLP.Fitness>
64.8525

> <Gold.PLP.PLP>
-51.7382

> <Gold.PLP.part.hbond>
-4.2799

> <Gold.PLP.part.metal>
0.0000

> <Gold.PLP.part.buried>
-2.0788

> <Gold.PLP.part.nonpolar>
-45.4183

> <Gold.PLP.part.repulsive>
0.3124

> <Gold.PLP.ligand.clash>
0.3900

> <Gold.PLP.ligand.torsion>
0.1590

> <Gold.PLP.Chemscore.Hbond>
3.8710

> <Gold.PLP.Chemscore.CHOScore>
0.6992

> <Gold.PLP.Chemscore.Metal>
0.0000

> <Gold.Chemscore.Hbonds>
donor molecule, donor type, donor heavy atom, donor atom, acceptor molecule, acceptor atom, score
      L1  H     1    32       P1  7948  1.00
      L1  H    25    45       P1  7957  0.90
      P1  H  7997  8010       L1     8  1.00
      P1  H  8011  8017       L1    25  0.98
      L1  C    21    44       P1  8028  0.69
      L1  C    21    44       P1  8029  0.01

> <Gold.PLP.Chemscore.Internal.Correction>
0.1116

> <Gold.Rescore>
     Score         DG    S(hbond)    S(metal)    S(lipo)     H(rot)  DE(clash)    DE(int)     intcor
     14.57     -18.91       2.76        0.00     109.90       3.38       0.24       4.11       ----

> <Gold.Chemscore.Fitness>
14.5651

> <Gold.Chemscore.DG>
-18.9074

> <Gold.Chemscore.ZeroCoef>
-5.4800

> <Gold.Chemscore.Hbond>
2.7640

> <Gold.Chemscore.Metal>
0.0000

> <Gold.Chemscore.Lipo>
109.8958

> <Gold.Chemscore.Internal_Hbond>
0.0000

> <Gold.Chemscore.DEClash>
0.2359

> <Gold.Chemscore.DEInternal>
4.1064

> <Gold.Chemscore.Rot>
3.3837

> <Gold.Chemscore.Internal.Correction>
   9.000000E+99

> <Gold.Chemscore.Hbonds>
donor molecule, donor type, donor heavy atom, donor atom, acceptor molecule, acceptor atom, score
      L1  H     1    32       P1  7948  1.00
      L1  H    25    45       P1  7957  0.82
      P1  H  7997  8010       L1     8  0.37
      P1  H  8011  8017       L1    25  0.23

> <Gold.Chemscore.Hbond.Weighted>
-9.2318

> <Gold.Chemscore.Metal.Weighted>
-0.0000

> <Gold.Chemscore.Lipo.Weighted>
-12.8578

> <Gold.Chemscore.Internal_Hbond.Weighted>
0.0000

> <Gold.Chemscore.DEClash.Weighted>
0.2359

> <Gold.Chemscore.DEInternal.Weighted>
4.1064

> <Gold.Chemscore.Rot.Weighted>
8.6622

> <Gold.Chemscore.Internal.Correction.Weighted>
   9.000000E+99

> <Gold.Protein.RotatedTorsions>
[ 6907 6896 6895 6894 ] final  -19.53 input  -60.11 | X-H torsion
[ 7974 7965 7964 7962 ] final -103.68 input  175.53 | X-H torsion
[ 8008 7997 7996 7995 ] final   55.41 input   59.86 | X-H torsion
[ 10167 10162 10161 10158 ] final  -61.84 input  -65.29 | X-H torsion
[ 10718 10713 10712 10709 ] final  140.91 input   66.30 | X-H torsion
[ 10763 10752 10751 10750 ] final  -45.96 input  -60.55 | X-H torsion
[ 11005 11000 10999 10996 ] final  105.26 input  -57.11 | X-H torsion

> <Gold.Protein.ActiveResidues>
 VAL166  LYS551  ARG553  GLY616  TRP617  ASP618  TYR619  PRO620  LYS621  CYS622 
 ASP623  PHE694  ASN695  SER759  ASP760  ASP761  ALA762  ILE779  LEU786  VAL792 
 PHE793  MET794  SER795  GLU796  ALA797  LYS798  CYS799  TRP800  GLU811  SER814 

> <Gold.Protein.RotatedAtoms>
  151.2618  135.0656  159.9100 H   0  0  0  0  0  0  0  0  0  0  0  0  # atno 6907 bound_to 6896
  152.5365  134.0223  159.7997 H   0  0  0  0  0  0  0  0  0  0  0  0  # atno 6908 bound_to 6896
  151.0447  133.5626  159.2679 H   0  0  0  0  0  0  0  0  0  0  0  0  # atno 6909 bound_to 6896
  145.2528  140.9244  143.3085 H   0  0  0  0  0  0  0  0  0  0  0  0  # atno 7974 bound_to 7965
  155.5007  140.3474  155.4370 H   0  0  0  0  0  0  0  0  0  0  0  0  # atno 8008 bound_to 7997
  156.0916  140.1412  156.9613 H   0  0  0  0  0  0  0  0  0  0  0  0  # atno 8009 bound_to 7997
  154.4638  140.0925  156.6942 H   0  0  0  0  0  0  0  0  0  0  0  0  # atno 8010 bound_to 7997
  140.5979  143.2355  151.5995 H   0  0  0  0  0  0  0  0  0  0  0  0  # atno 10167 bound_to 10162
  157.3979  131.1013  151.0581 H   0  0  0  0  0  0  0  0  0  0  0  0  # atno 10718 bound_to 10713
  154.0372  135.6649  153.4786 H   0  0  0  0  0  0  0  0  0  0  0  0  # atno 10763 bound_to 10752
  153.0516  135.5081  154.7877 H   0  0  0  0  0  0  0  0  0  0  0  0  # atno 10764 bound_to 10752
  154.6841  135.3050  154.9537 H   0  0  0  0  0  0  0  0  0  0  0  0  # atno 10765 bound_to 10752
  139.8800  134.9329  156.5487 H   0  0  0  0  0  0  0  0  0  0  0  0  # atno 11005 bound_to 11000
  144.9487  139.4107  143.6413 LP  0  0  0  0  0  0  0  0  0  0  0  0  # atno 17320 bound_to 7965
  146.3297  139.8484  142.8877 LP  0  0  0  0  0  0  0  0  0  0  0  0  # atno 17321 bound_to 7965
  139.5270  144.3028  152.1059 LP  0  0  0  0  0  0  0  0  0  0  0  0  # atno 17342 bound_to 10162
  140.2203  144.4472  150.6345 LP  0  0  0  0  0  0  0  0  0  0  0  0  # atno 17343 bound_to 10162
  157.1590  130.6217  149.5605 LP  0  0  0  0  0  0  0  0  0  0  0  0  # atno 17370 bound_to 10713
  155.9815  130.4823  150.6833 LP  0  0  0  0  0  0  0  0  0  0  0  0  # atno 17371 bound_to 10713
  140.8256  133.8319  155.8936 LP  0  0  0  0  0  0  0  0  0  0  0  0  # atno 17394 bound_to 11000
  140.9377  134.1941  157.4820 LP  0  0  0  0  0  0  0  0  0  0  0  0  # atno 17395 bound_to 11000

$$$$
