AV-unprocessed.smi:1616|AV-procd|sdf|6483|dock9
  -GOLD-   22720 7143D 1   1.00000     0.00000
 Structure written by MMmdl.
 38 39  0  0  0  0  0  0  0  0  1 V2000
  152.2762  143.9536  161.5119 C   0  0  0  0  0  0  0  0  0  0  0  0
  152.3564  142.9045  160.4359 C   0  0  0  0  0  0  0  0  0  0  0  0
  151.6254  143.0918  159.3867 N   0  0  0  0  0  0  0  0  0  0  0  0
  151.6193  142.1865  158.3430 N   0  0  0  0  0  0  0  0  0  0  0  0
  150.7149  142.5466  157.2411 C   0  0  0  0  0  0  0  0  0  0  0  0
  149.4459  141.6833  157.1911 C   0  0  0  0  0  0  0  0  0  0  0  0
  149.4166  140.5747  157.7273 O   0  0  0  0  0  0  0  0  0  0  0  0
  148.3936  142.2224  156.5563 N   0  0  0  0  0  0  0  0  0  0  0  0
  147.0904  141.5886  156.3811 C   0  0  1  0  0  0  0  0  0  0  0  0
  146.0533  142.2738  157.2850 C   0  0  0  0  0  0  0  0  0  0  0  0
  146.6345  141.5937  154.9342 C   0  0  0  0  0  0  0  0  0  0  0  0
  147.6240  141.7587  153.8055 C   0  0  0  0  0  0  0  0  0  0  0  0
  146.6413  142.8646  154.1194 C   0  0  0  0  0  0  0  0  0  0  0  0
  152.3627  141.0432  158.3026 C   0  0  0  0  0  0  0  0  0  0  0  0
  152.3297  140.2653  157.3477 O   0  0  0  0  0  0  0  0  0  0  0  0
  153.1900  140.8386  159.4936 C   0  0  0  0  0  0  0  0  0  0  0  0
  153.9805  139.6502  159.4940 C   0  0  0  0  0  0  0  0  0  0  0  0
  154.6059  138.6760  159.4859 N   0  0  0  0  0  0  0  0  0  0  0  0
  153.2021  141.7186  160.5259 C   0  0  0  0  0  0  0  0  0  0  0  0
  154.0418  141.5517  161.7852 C   0  0  0  0  0  0  0  0  0  0  0  0
  153.2454  144.4301  161.6605 H   0  0  0  0  0  0  0  0  0  0  0  0
  151.9661  143.5132  162.4597 H   0  0  0  0  0  0  0  0  0  0  0  0
  151.5585  144.7370  161.2636 H   0  0  0  0  0  0  0  0  0  0  0  0
  150.4080  143.5902  157.3303 H   0  0  0  0  0  0  0  0  0  0  0  0
  151.2437  142.4784  156.2884 H   0  0  0  0  0  0  0  0  0  0  0  0
  148.5078  143.1401  156.1512 H   0  0  0  0  0  0  0  0  0  0  0  0
  147.1676  140.5445  156.6904 H   0  0  0  0  0  0  0  0  0  0  0  0
  145.0776  141.7956  157.1934 H   0  0  0  0  0  0  0  0  0  0  0  0
  145.9333  143.3260  157.0245 H   0  0  0  0  0  0  0  0  0  0  0  0
  146.3445  142.2214  158.3346 H   0  0  0  0  0  0  0  0  0  0  0  0
  145.8110  140.9097  154.7365 H   0  0  0  0  0  0  0  0  0  0  0  0
  148.6674  141.9265  154.0649 H   0  0  0  0  0  0  0  0  0  0  0  0
  147.4558  141.1779  152.9010 H   0  0  0  0  0  0  0  0  0  0  0  0
  145.8180  143.0198  153.4251 H   0  0  0  0  0  0  0  0  0  0  0  0
  147.0321  143.7660  154.5878 H   0  0  0  0  0  0  0  0  0  0  0  0
  154.6866  140.6746  161.7381 H   0  0  0  0  0  0  0  0  0  0  0  0
  153.3993  141.4416  162.6591 H   0  0  0  0  0  0  0  0  0  0  0  0
  154.6846  142.4192  161.9374 H   0  0  0  0  0  0  0  0  0  0  0  0
  1  2  1  0  0  0  0
  1 21  1  0  0  0  0
  1 22  1  0  0  0  0
  1 23  1  0  0  0  0
  2 19  1  0  0  0  0
  2  3  2  0  0  0  0
  3  4  1  0  0  0  0
  4  5  1  0  0  0  0
  4 14  1  0  0  0  0
  5  6  1  0  0  0  0
  5 24  1  0  0  0  0
  5 25  1  0  0  0  0
  6  7  2  0  0  0  0
  6  8  1  0  0  0  0
  8  9  1  0  0  0  0
  8 26  1  0  0  0  0
  9 10  1  0  0  0  0
  9 11  1  0  0  0  0
  9 27  1  0  0  0  0
 10 28  1  0  0  0  0
 10 29  1  0  0  0  0
 10 30  1  0  0  0  0
 11 13  1  0  0  0  0
 11 12  1  0  0  0  0
 11 31  1  0  0  0  0
 12 13  1  0  0  0  0
 12 32  1  0  0  0  0
 12 33  1  0  0  0  0
 13 34  1  0  0  0  0
 13 35  1  0  0  0  0
 14 15  2  0  0  0  0
 14 16  1  0  0  0  0
 16 17  1  0  0  0  0
 16 19  2  0  0  0  0
 17 18  3  0  0  0  0
 19 20  1  0  0  0  0
 20 36  1  0  0  0  0
 20 37  1  0  0  0  0
 20 38  1  0  0  0  0
M  END
> <s_m_source_file>
AV-unprocessed.smi

> <i_m_source_file_index>
1616

> <i_lp_mmshare_version>
43012

> <i_f3d_flags>
0

> <s_epik_input>
TiNDYyhjMVtDSDNdKWMoPU8pbihuYzFbQ0gzXSlbQ0gyXUMoPU8pW05IXVtDQEhdKFtDSDNdKVtDSF0yW0NIMl1bQ0gyXTI=

> <s_epik_cmdline>
J2VwaWtfcHl0aG9uJywgJy1waCcsICc3LjAnLCAnLXRuJywgJzgnLCAnLW1hJywgJzIwMCcsICctbWV0YWxfYmluZGluZycsICctaW1hZScsICc8aW5maWxlLm1hZT4nLCAnLW9tYWUnLCAnPG91dGZpbGUubWFlPic=

> <r_lp_tautomer_probability>
1

> <r_epik_Ionization_Penalty>
1.93246e-08

> <r_epik_Ionization_Penalty_Charging>
2.27031e-11

> <r_epik_Ionization_Penalty_Neutral>
1.93019e-08

> <r_epik_State_Penalty>
-0

> <r_epik_Charging_Adjusted_Penalty>
2.27031e-11

> <i_epik_Tot_Q>
0

> <i_epik_Tot_abs_Q>
0

> <r_epik_Metal_State_Penalty>
-0

> <b_epik_Metal_Only>
0

> <s_lp_Force_Field>
OPLS_2005

> <r_lp_Energy>
27.6916

> <b_lp_Chiralities_Consistent>
1

> <s_lp_Variant>
AV-unprocessed.smi:1616-2

> <Gold.Version>
5.8.1

> <Gold.Id.Protein>
6NUR|6NUR_protein|mol2

> <Gold.PLP.Fitness>
44.1952

> <Gold.PLP.PLP>
-39.5026

> <Gold.PLP.part.hbond>
-2.0000

> <Gold.PLP.part.metal>
0.0000

> <Gold.PLP.part.buried>
-4.6733

> <Gold.PLP.part.nonpolar>
-32.1547

> <Gold.PLP.part.repulsive>
0.0083

> <Gold.PLP.ligand.clash>
0.0000

> <Gold.PLP.ligand.torsion>
1.1535

> <Gold.PLP.Chemscore.Hbond>
1.9750

> <Gold.PLP.Chemscore.CHOScore>
0.0000

> <Gold.PLP.Chemscore.Metal>
0.0000

> <Gold.Chemscore.Hbonds>
donor molecule, donor type, donor heavy atom, donor atom, acceptor molecule, acceptor atom, score
      L1  H     8    26       P1  8028  1.00
      P1  H  7997  8008       L1    15  0.63

> <Gold.PLP.Chemscore.Internal.Correction>
1.0746

> <Gold.Rescore>
     Score         DG    S(hbond)    S(metal)    S(lipo)     H(rot)  DE(clash)    DE(int)     intcor
     15.81     -17.19       1.78        0.00      86.04       1.68       0.31       1.07       ----

> <Gold.Chemscore.Fitness>
15.8074

> <Gold.Chemscore.DG>
-17.1942

> <Gold.Chemscore.ZeroCoef>
-5.4800

> <Gold.Chemscore.Hbond>
1.7816

> <Gold.Chemscore.Metal>
0.0000

> <Gold.Chemscore.Lipo>
86.0414

> <Gold.Chemscore.Internal_Hbond>
0.0000

> <Gold.Chemscore.DEClash>
0.3139

> <Gold.Chemscore.DEInternal>
1.0729

> <Gold.Chemscore.Rot>
1.6809

> <Gold.Chemscore.Internal.Correction>
   9.000000E+99

> <Gold.Chemscore.Hbonds>
donor molecule, donor type, donor heavy atom, donor atom, acceptor molecule, acceptor atom, score
      L1  H     8    26       P1  8028  0.93
      P1  H  7997  8008       L1    15  0.24

> <Gold.Chemscore.Hbond.Weighted>
-5.9504

> <Gold.Chemscore.Metal.Weighted>
-0.0000

> <Gold.Chemscore.Lipo.Weighted>
-10.0668

> <Gold.Chemscore.Internal_Hbond.Weighted>
0.0000

> <Gold.Chemscore.DEClash.Weighted>
0.3139

> <Gold.Chemscore.DEInternal.Weighted>
1.0729

> <Gold.Chemscore.Rot.Weighted>
4.3030

> <Gold.Chemscore.Internal.Correction.Weighted>
   9.000000E+99

> <Gold.Protein.RotatedTorsions>
[ 6907 6896 6895 6894 ] final  129.92 input  -60.11 | X-H torsion
[ 7974 7965 7964 7962 ] final  123.43 input  175.53 | X-H torsion
[ 8008 7997 7996 7995 ] final  -68.17 input   59.86 | X-H torsion
[ 10167 10162 10161 10158 ] final   35.39 input  -65.29 | X-H torsion
[ 10718 10713 10712 10709 ] final   50.06 input   66.30 | X-H torsion
[ 10763 10752 10751 10750 ] final  142.17 input  -60.55 | X-H torsion
[ 11005 11000 10999 10996 ] final -111.45 input  -57.11 | X-H torsion

> <Gold.Protein.ActiveResidues>
 VAL166  LYS551  ARG553  GLY616  TRP617  ASP618  TYR619  PRO620  LYS621  CYS622 
 ASP623  PHE694  ASN695  SER759  ASP760  ASP761  ALA762  ILE779  LEU786  VAL792 
 PHE793  MET794  SER795  GLU796  ALA797  LYS798  CYS799  TRP800  GLU811  SER814 

> <Gold.Protein.RotatedAtoms>
  152.3577  133.6258  159.5991 H   0  0  0  0  0  0  0  0  0  0  0  0  # atno 6907 bound_to 6896
  150.7580  133.9473  159.3483 H   0  0  0  0  0  0  0  0  0  0  0  0  # atno 6908 bound_to 6896
  151.7316  135.0874  160.0352 H   0  0  0  0  0  0  0  0  0  0  0  0  # atno 6909 bound_to 6896
  145.0960  139.3552  143.4836 H   0  0  0  0  0  0  0  0  0  0  0  0  # atno 7974 bound_to 7965
  154.4849  140.0878  156.7464 H   0  0  0  0  0  0  0  0  0  0  0  0  # atno 8008 bound_to 7997
  155.4375  140.3452  155.4268 H   0  0  0  0  0  0  0  0  0  0  0  0  # atno 8009 bound_to 7997
  156.1247  140.1484  156.9142 H   0  0  0  0  0  0  0  0  0  0  0  0  # atno 8010 bound_to 7997
  140.4226  144.1438  150.6149 H   0  0  0  0  0  0  0  0  0  0  0  0  # atno 10167 bound_to 10162
  157.4848  130.8338  149.8134 H   0  0  0  0  0  0  0  0  0  0  0  0  # atno 10718 bound_to 10713
  153.9514  135.2969  155.3438 H   0  0  0  0  0  0  0  0  0  0  0  0  # atno 10763 bound_to 10752
  154.7424  135.5018  153.9148 H   0  0  0  0  0  0  0  0  0  0  0  0  # atno 10764 bound_to 10752
  153.0992  135.6729  153.9814 H   0  0  0  0  0  0  0  0  0  0  0  0  # atno 10765 bound_to 10752
  141.0733  133.9343  157.2441 H   0  0  0  0  0  0  0  0  0  0  0  0  # atno 11005 bound_to 11000
  146.3530  140.0816  142.8617 LP  0  0  0  0  0  0  0  0  0  0  0  0  # atno 17320 bound_to 7965
  145.1010  140.9346  143.4712 LP  0  0  0  0  0  0  0  0  0  0  0  0  # atno 17321 bound_to 7965
  140.4517  143.2484  151.9339 LP  0  0  0  0  0  0  0  0  0  0  0  0  # atno 17342 bound_to 10162
  139.4783  144.5556  151.8319 LP  0  0  0  0  0  0  0  0  0  0  0  0  # atno 17343 bound_to 10162
  156.0141  130.3821  150.2169 LP  0  0  0  0  0  0  0  0  0  0  0  0  # atno 17370 bound_to 10713
  157.0356  131.0020  151.3299 LP  0  0  0  0  0  0  0  0  0  0  0  0  # atno 17371 bound_to 10713
  139.9546  135.0168  156.9091 LP  0  0  0  0  0  0  0  0  0  0  0  0  # atno 17394 bound_to 11000
  140.5627  134.0519  155.7404 LP  0  0  0  0  0  0  0  0  0  0  0  0  # atno 17395 bound_to 11000

$$$$
