AV-unprocessed.smi:2251|AV-procd|sdf|9101|dock9
  -GOLD-   2272012303D 1   1.00000     0.00000
 Structure written by MMmdl.
 44 45  0  0  0  0  0  0  0  0  1 V2000
  147.6410  134.5497  162.1710 C   0  0  0  0  0  0  0  0  0  0  0  0
  147.8194  135.6422  161.1225 C   0  0  0  0  0  0  0  0  0  0  0  0
  147.5847  136.8164  161.4070 O   0  0  0  0  0  0  0  0  0  0  0  0
  148.2382  135.2413  159.9122 N   0  0  0  0  0  0  0  0  0  0  0  0
  148.4892  136.1224  158.7741 C   0  0  0  0  0  0  0  0  0  0  0  0
  149.6648  137.0799  159.0049 C   0  0  0  0  0  0  0  0  0  0  0  0
  150.6305  136.7423  159.6913 O   0  0  0  0  0  0  0  0  0  0  0  0
  149.5768  138.2734  158.4025 N   0  0  0  0  0  0  0  0  0  0  0  0
  150.5891  139.3212  158.4913 C   0  0  0  0  0  0  0  0  0  0  0  0
  150.4923  140.3403  157.3199 C   0  0  0  0  0  0  0  0  0  0  0  0
  150.8585  139.6137  156.0060 C   0  0  0  0  0  0  0  0  0  0  0  0
  152.1713  139.1202  155.8116 C   0  0  0  0  0  0  0  0  0  0  0  0
  152.4873  138.4477  154.6150 C   0  0  0  0  0  0  0  0  0  0  0  0
  151.5965  138.2376  153.6253 N   0  0  0  0  0  0  0  0  0  0  0  0
  150.3422  138.6986  153.8060 C   0  0  0  0  0  0  0  0  0  0  0  0
  149.9243  139.3827  154.9648 C   0  0  0  0  0  0  0  0  0  0  0  0
  149.0601  140.9590  157.2582 C   0  0  0  0  0  0  0  0  0  0  0  0
  148.7069  141.8634  158.4529 C   0  0  0  0  0  0  0  0  0  0  0  0
  149.7348  142.9882  158.6186 C   0  0  0  0  0  0  0  0  0  0  0  0
  151.1532  142.4194  158.7369 C   0  0  0  0  0  0  0  0  0  0  0  0
  151.4980  141.5070  157.5448 C   0  0  0  0  0  0  0  0  0  0  0  0
  146.9895  133.7602  161.7956 H   0  0  0  0  0  0  0  0  0  0  0  0
  147.1967  134.9541  163.0811 H   0  0  0  0  0  0  0  0  0  0  0  0
  148.6053  134.1102  162.4282 H   0  0  0  0  0  0  0  0  0  0  0  0
  148.4129  134.2567  159.7721 H   0  0  0  0  0  0  0  0  0  0  0  0
  148.7136  135.5042  157.9049 H   0  0  0  0  0  0  0  0  0  0  0  0
  147.5873  136.6876  158.5319 H   0  0  0  0  0  0  0  0  0  0  0  0
  148.7562  138.4724  157.8487 H   0  0  0  0  0  0  0  0  0  0  0  0
  150.4948  139.8124  159.4590 H   0  0  0  0  0  0  0  0  0  0  0  0
  151.5721  138.8481  158.4942 H   0  0  0  0  0  0  0  0  0  0  0  0
  152.9340  139.2431  156.5656 H   0  0  0  0  0  0  0  0  0  0  0  0
  153.4838  138.0649  154.4512 H   0  0  0  0  0  0  0  0  0  0  0  0
  149.6452  138.5136  153.0022 H   0  0  0  0  0  0  0  0  0  0  0  0
  148.8976  139.7078  155.0241 H   0  0  0  0  0  0  0  0  0  0  0  0
  148.9722  141.5725  156.3604 H   0  0  0  0  0  0  0  0  0  0  0  0
  148.3025  140.1795  157.1705 H   0  0  0  0  0  0  0  0  0  0  0  0
  147.7169  142.2951  158.3032 H   0  0  0  0  0  0  0  0  0  0  0  0
  148.6417  141.2780  159.3699 H   0  0  0  0  0  0  0  0  0  0  0  0
  149.6815  143.6611  157.7617 H   0  0  0  0  0  0  0  0  0  0  0  0
  149.4968  143.5865  159.4985 H   0  0  0  0  0  0  0  0  0  0  0  0
  151.8711  143.2385  158.7899 H   0  0  0  0  0  0  0  0  0  0  0  0
  151.2548  141.8710  159.6732 H   0  0  0  0  0  0  0  0  0  0  0  0
  152.5096  141.1267  157.6848 H   0  0  0  0  0  0  0  0  0  0  0  0
  151.5335  142.1229  156.6447 H   0  0  0  0  0  0  0  0  0  0  0  0
  1  2  1  0  0  0  0
  1 22  1  0  0  0  0
  1 23  1  0  0  0  0
  1 24  1  0  0  0  0
  2  3  2  0  0  0  0
  2  4  1  0  0  0  0
  4  5  1  0  0  0  0
  4 25  1  0  0  0  0
  5  6  1  0  0  0  0
  5 26  1  0  0  0  0
  5 27  1  0  0  0  0
  6  7  2  0  0  0  0
  6  8  1  0  0  0  0
  8  9  1  0  0  0  0
  8 28  1  0  0  0  0
  9 10  1  0  0  0  0
  9 29  1  0  0  0  0
  9 30  1  0  0  0  0
 10 21  1  0  0  0  0
 10 11  1  0  0  0  0
 10 17  1  0  0  0  0
 11 16  1  0  0  0  0
 11 12  2  0  0  0  0
 12 13  1  0  0  0  0
 12 31  1  0  0  0  0
 13 14  2  0  0  0  0
 13 32  1  0  0  0  0
 14 15  1  0  0  0  0
 15 16  2  0  0  0  0
 15 33  1  0  0  0  0
 16 34  1  0  0  0  0
 17 18  1  0  0  0  0
 17 35  1  0  0  0  0
 17 36  1  0  0  0  0
 18 19  1  0  0  0  0
 18 37  1  0  0  0  0
 18 38  1  0  0  0  0
 19 20  1  0  0  0  0
 19 39  1  0  0  0  0
 19 40  1  0  0  0  0
 20 21  1  0  0  0  0
 20 41  1  0  0  0  0
 20 42  1  0  0  0  0
 21 43  1  0  0  0  0
 21 44  1  0  0  0  0
M  END
> <s_m_source_file>
AV-unprocessed.smi

> <i_m_source_file_index>
2251

> <i_lp_mmshare_version>
43012

> <i_f3d_flags>
0

> <s_epik_input>
W0NIM11DKD1PKVtOSF1bQ0gyXUMoPU8pW05IXVtDSDJdQzEoW0NIMl1bQ0gyXVtDSDJdW0NIMl1bQ0gyXTEpYzJbY0hdW2NIXW5bY0hdW2NIXTI=

> <s_epik_cmdline>
J2VwaWtfcHl0aG9uJywgJy1waCcsICc3LjAnLCAnLXRuJywgJzgnLCAnLW1hJywgJzIwMCcsICctbWV0YWxfYmluZGluZycsICctaW1hZScsICc8aW5maWxlLm1hZT4nLCAnLW9tYWUnLCAnPG91dGZpbGUubWFlPic=

> <r_epik_Ionization_Penalty>
0.0619926

> <r_epik_Ionization_Penalty_Charging>
0

> <r_epik_Ionization_Penalty_Neutral>
0.0619926

> <r_epik_State_Penalty>
0.0538453

> <r_epik_Charging_Adjusted_Penalty>
0.0538453

> <i_epik_Tot_Q>
0

> <i_epik_Tot_abs_Q>
0

> <r_epik_Metal_State_Penalty>
0.048714

> <b_epik_Metal_Only>
0

> <s_lp_Force_Field>
OPLS_2005

> <r_lp_Energy>
14.8117

> <b_lp_Chiralities_Consistent>
1

> <s_lp_Variant>
AV-unprocessed.smi:2251-1

> <Gold.Version>
5.8.1

> <Gold.Id.Protein>
6NUR|6NUR_protein|mol2

> <Gold.PLP.Fitness>
45.1500

> <Gold.PLP.PLP>
-32.8729

> <Gold.PLP.part.hbond>
-3.4466

> <Gold.PLP.part.metal>
0.0000

> <Gold.PLP.part.buried>
-2.5832

> <Gold.PLP.part.nonpolar>
-27.5872

> <Gold.PLP.part.repulsive>
0.5211

> <Gold.PLP.ligand.clash>
0.0000

> <Gold.PLP.ligand.torsion>
0.6996

> <Gold.PLP.Chemscore.Hbond>
2.8240

> <Gold.PLP.Chemscore.CHOScore>
1.7195

> <Gold.PLP.Chemscore.Metal>
0.0000

> <Gold.Chemscore.Hbonds>
donor molecule, donor type, donor heavy atom, donor atom, acceptor molecule, acceptor atom, score
      P1  H  6896  6909       L1     7  1.00
      P1  H  6931  6943       L1     3  0.83
      P1  H  6934  6947       L1     3  0.33
      L1  C    15    33       P1  7948  0.82
      L1  C    15    33       P1  7957  0.77

> <Gold.PLP.Chemscore.Internal.Correction>
0.0459

> <Gold.Rescore>
     Score         DG    S(hbond)    S(metal)    S(lipo)     H(rot)  DE(clash)    DE(int)     intcor
     18.68     -19.65       2.74        0.00      87.10       2.02       0.23       0.74       ----

> <Gold.Chemscore.Fitness>
18.6838

> <Gold.Chemscore.DG>
-19.6531

> <Gold.Chemscore.ZeroCoef>
-5.4800

> <Gold.Chemscore.Hbond>
2.7374

> <Gold.Chemscore.Metal>
0.0000

> <Gold.Chemscore.Lipo>
87.1033

> <Gold.Chemscore.Internal_Hbond>
0.0000

> <Gold.Chemscore.DEClash>
0.2254

> <Gold.Chemscore.DEInternal>
0.7440

> <Gold.Chemscore.Rot>
2.0160

> <Gold.Chemscore.Internal.Correction>
   9.000000E+99

> <Gold.Chemscore.Hbonds>
donor molecule, donor type, donor heavy atom, donor atom, acceptor molecule, acceptor atom, score
      P1  H  6896  6909       L1     7  0.98
      P1  H  6931  6943       L1     3  0.81
      P1  H  6934  6947       L1     3  0.31

> <Gold.Chemscore.Hbond.Weighted>
-9.1431

> <Gold.Chemscore.Metal.Weighted>
-0.0000

> <Gold.Chemscore.Lipo.Weighted>
-10.1911

> <Gold.Chemscore.Internal_Hbond.Weighted>
0.0000

> <Gold.Chemscore.DEClash.Weighted>
0.2254

> <Gold.Chemscore.DEInternal.Weighted>
0.7440

> <Gold.Chemscore.Rot.Weighted>
5.1610

> <Gold.Chemscore.Internal.Correction.Weighted>
   9.000000E+99

> <Gold.Protein.RotatedTorsions>
[ 6907 6896 6895 6894 ] final   86.70 input  -60.11 | X-H torsion
[ 7974 7965 7964 7962 ] final -148.67 input  175.53 | X-H torsion
[ 8008 7997 7996 7995 ] final   78.88 input   59.86 | X-H torsion
[ 10167 10162 10161 10158 ] final    0.59 input  -65.29 | X-H torsion
[ 10718 10713 10712 10709 ] final -119.21 input   66.30 | X-H torsion
[ 10763 10752 10751 10750 ] final  144.13 input  -60.55 | X-H torsion
[ 11005 11000 10999 10996 ] final   96.23 input  -57.11 | X-H torsion

> <Gold.Protein.ActiveResidues>
 VAL166  LYS551  ARG553  GLY616  TRP617  ASP618  TYR619  PRO620  LYS621  CYS622 
 ASP623  PHE694  ASN695  SER759  ASP760  ASP761  ALA762  ILE779  LEU786  VAL792 
 PHE793  MET794  SER795  GLU796  ALA797  LYS798  CYS799  TRP800  GLU811  SER814 

> <Gold.Protein.RotatedAtoms>
  152.5399  134.2390  159.8854 H   0  0  0  0  0  0  0  0  0  0  0  0  # atno 6907 bound_to 6896
  151.2359  133.4419  159.2613 H   0  0  0  0  0  0  0  0  0  0  0  0  # atno 6908 bound_to 6896
  151.0672  134.9789  159.8346 H   0  0  0  0  0  0  0  0  0  0  0  0  # atno 6909 bound_to 6896
  144.8015  140.5166  143.5704 H   0  0  0  0  0  0  0  0  0  0  0  0  # atno 7974 bound_to 7965
  155.8619  140.3453  155.5762 H   0  0  0  0  0  0  0  0  0  0  0  0  # atno 8008 bound_to 7997
  155.7924  140.0873  157.2021 H   0  0  0  0  0  0  0  0  0  0  0  0  # atno 8009 bound_to 7997
  154.4012  140.1481  156.3165 H   0  0  0  0  0  0  0  0  0  0  0  0  # atno 8010 bound_to 7997
  140.6722  143.7018  150.7946 H   0  0  0  0  0  0  0  0  0  0  0  0  # atno 10167 bound_to 10162
  156.1164  130.6289  150.9388 H   0  0  0  0  0  0  0  0  0  0  0  0  # atno 10718 bound_to 10713
  153.9839  135.2938  155.3418 H   0  0  0  0  0  0  0  0  0  0  0  0  # atno 10763 bound_to 10752
  154.7253  135.5091  153.8880 H   0  0  0  0  0  0  0  0  0  0  0  0  # atno 10764 bound_to 10752
  153.0841  135.6688  154.0099 H   0  0  0  0  0  0  0  0  0  0  0  0  # atno 10765 bound_to 10752
  139.8783  134.8940  156.4127 H   0  0  0  0  0  0  0  0  0  0  0  0  # atno 11005 bound_to 11000
  145.5542  139.1477  143.3377 LP  0  0  0  0  0  0  0  0  0  0  0  0  # atno 17320 bound_to 7965
  146.2297  140.5679  142.8981 LP  0  0  0  0  0  0  0  0  0  0  0  0  # atno 17321 bound_to 7965
  140.0705  143.5066  152.2582 LP  0  0  0  0  0  0  0  0  0  0  0  0  # atno 17342 bound_to 10162
  139.5995  144.7578  151.3205 LP  0  0  0  0  0  0  0  0  0  0  0  0  # atno 17343 bound_to 10162
  157.6347  131.0917  150.8372 LP  0  0  0  0  0  0  0  0  0  0  0  0  # atno 17370 bound_to 10713
  156.8475  130.5069  149.5315 LP  0  0  0  0  0  0  0  0  0  0  0  0  # atno 17371 bound_to 10713
  140.9189  133.7659  155.9882 LP  0  0  0  0  0  0  0  0  0  0  0  0  # atno 17394 bound_to 11000
  140.8462  134.3008  157.5294 LP  0  0  0  0  0  0  0  0  0  0  0  0  # atno 17395 bound_to 11000

$$$$
