AV-unprocessed.smi:2977|AV-procd|sdf|11367|dock5
  -GOLD-   2272016283D 1   1.00000     0.00000
 Structure written by MMmdl.
 38 39  0  0  0  0  0  0  0  0  1 V2000
  149.8807  137.4571  159.6664 O   0  0  0  0  0  0  0  0  0  0  0  0
  149.3932  137.7973  158.5883 C   0  0  0  0  0  0  0  0  0  0  0  0
  148.2094  137.0208  157.9991 C   0  0  0  0  0  0  0  0  0  0  0  0
  147.8923  135.8235  158.7891 N   0  0  0  0  0  0  0  0  0  0  0  0
  147.9653  134.6373  158.0800 N   0  0  0  0  0  0  0  0  0  0  0  0
  147.7391  133.5226  158.6853 C   0  0  0  0  0  0  0  0  0  0  0  0
  147.4019  133.4632  160.0909 C   0  0  0  0  0  0  0  0  0  0  0  0
  147.1112  131.9377  160.8491 Cl  0  0  0  0  0  0  0  0  0  0  0  0
  147.3205  134.6331  160.7731 C   0  0  0  0  0  0  0  0  0  0  0  0
  146.9162  134.6442  162.4555 Cl  0  0  0  0  0  0  0  0  0  0  0  0
  147.5692  135.9230  160.1150 C   0  0  0  0  0  0  0  0  0  0  0  0
  147.4959  137.0065  160.6956 O   0  0  0  0  0  0  0  0  0  0  0  0
  149.8535  138.8265  157.8616 N   0  0  0  0  0  0  0  0  0  0  0  0
  150.9648  139.6969  158.2355 C   0  0  0  0  0  0  0  0  0  0  0  0
  150.8054  141.1498  157.7387 C   0  0  0  0  0  0  0  0  0  0  0  0
  151.3900  142.1995  158.6729 C   0  0  0  0  0  0  0  0  0  0  0  0
  151.9742  141.8679  159.8411 C   0  0  0  0  0  0  0  0  0  0  0  0
  152.5632  142.8720  160.8158 C   0  0  0  0  0  0  0  0  0  0  0  0
  152.1180  144.3123  160.5126 C   0  0  0  0  0  0  0  0  0  0  0  0
  152.1792  144.6051  159.0083 C   0  0  0  0  0  0  0  0  0  0  0  0
  151.2749  143.6474  158.2113 C   0  0  0  0  0  0  0  0  0  0  0  0
  147.3330  137.6663  157.9130 H   0  0  0  0  0  0  0  0  0  0  0  0
  148.4646  136.7411  156.9755 H   0  0  0  0  0  0  0  0  0  0  0  0
  147.7899  132.5634  158.1699 H   0  0  0  0  0  0  0  0  0  0  0  0
  149.3907  139.0316  156.9877 H   0  0  0  0  0  0  0  0  0  0  0  0
  151.0951  139.6823  159.3184 H   0  0  0  0  0  0  0  0  0  0  0  0
  151.8731  139.2660  157.8140 H   0  0  0  0  0  0  0  0  0  0  0  0
  151.2726  141.2474  156.7581 H   0  0  0  0  0  0  0  0  0  0  0  0
  149.7484  141.3695  157.5855 H   0  0  0  0  0  0  0  0  0  0  0  0
  152.0510  140.8293  160.1279 H   0  0  0  0  0  0  0  0  0  0  0  0
  152.2744  142.5997  161.8306 H   0  0  0  0  0  0  0  0  0  0  0  0
  153.6493  142.7941  160.7640 H   0  0  0  0  0  0  0  0  0  0  0  0
  151.0962  144.4613  160.8635 H   0  0  0  0  0  0  0  0  0  0  0  0
  152.7391  145.0182  161.0643 H   0  0  0  0  0  0  0  0  0  0  0  0
  151.8921  145.6382  158.8108 H   0  0  0  0  0  0  0  0  0  0  0  0
  153.2098  144.5009  158.6662 H   0  0  0  0  0  0  0  0  0  0  0  0
  151.5205  143.7130  157.1509 H   0  0  0  0  0  0  0  0  0  0  0  0
  150.2334  143.9534  158.3142 H   0  0  0  0  0  0  0  0  0  0  0  0
  1  2  2  0  0  0  0
  2  3  1  0  0  0  0
  2 13  1  0  0  0  0
  3  4  1  0  0  0  0
  3 22  1  0  0  0  0
  3 23  1  0  0  0  0
  4 11  1  0  0  0  0
  4  5  1  0  0  0  0
  5  6  2  0  0  0  0
  6  7  1  0  0  0  0
  6 24  1  0  0  0  0
  7  8  1  0  0  0  0
  7  9  2  0  0  0  0
  9 10  1  0  0  0  0
  9 11  1  0  0  0  0
 11 12  2  0  0  0  0
 13 14  1  0  0  0  0
 13 25  1  0  0  0  0
 14 15  1  0  0  0  0
 14 26  1  0  0  0  0
 14 27  1  0  0  0  0
 15 16  1  0  0  0  0
 15 28  1  0  0  0  0
 15 29  1  0  0  0  0
 16 21  1  0  0  0  0
 16 17  2  0  0  0  0
 17 18  1  0  0  0  0
 17 30  1  0  0  0  0
 18 19  1  0  0  0  0
 18 31  1  0  0  0  0
 18 32  1  0  0  0  0
 19 20  1  0  0  0  0
 19 33  1  0  0  0  0
 19 34  1  0  0  0  0
 20 21  1  0  0  0  0
 20 35  1  0  0  0  0
 20 36  1  0  0  0  0
 21 37  1  0  0  0  0
 21 38  1  0  0  0  0
M  END
> <s_m_source_file>
AV-unprocessed.smi

> <i_m_source_file_index>
2977

> <i_lp_mmshare_version>
43012

> <i_f3d_flags>
0

> <s_epik_input>
Tz1jMWMoQ2wpYyhDbClbY0hdbm4xW0NIMl1DKD1PKVtOSF1bQ0gyXVtDSDJdQzI9W0NIXVtDSDJdW0NIMl1bQ0gyXVtDSDJdMg==

> <s_epik_cmdline>
J2VwaWtfcHl0aG9uJywgJy1waCcsICc3LjAnLCAnLXRuJywgJzgnLCAnLW1hJywgJzIwMCcsICctbWV0YWxfYmluZGluZycsICctaW1hZScsICc8aW5maWxlLm1hZT4nLCAnLW9tYWUnLCAnPG91dGZpbGUubWFlPic=

> <r_lp_tautomer_probability>
1

> <r_epik_Ionization_Penalty>
1.81325e-08

> <r_epik_Ionization_Penalty_Charging>
2.89782e-11

> <r_epik_Ionization_Penalty_Neutral>
1.81035e-08

> <r_epik_State_Penalty>
-0

> <r_epik_Charging_Adjusted_Penalty>
2.89782e-11

> <i_epik_Tot_Q>
0

> <i_epik_Tot_abs_Q>
0

> <r_epik_Metal_State_Penalty>
-0

> <b_epik_Metal_Only>
0

> <s_lp_Force_Field>
OPLS_2005

> <r_lp_Energy>
20.3958

> <b_lp_Chiralities_Consistent>
1

> <s_lp_Variant>
AV-unprocessed.smi:2977-1

> <Gold.Version>
5.8.1

> <Gold.Id.Protein>
6NUR|6NUR_protein|mol2

> <Gold.PLP.Fitness>
49.5188

> <Gold.PLP.PLP>
-45.2252

> <Gold.PLP.part.hbond>
-3.0000

> <Gold.PLP.part.metal>
0.0000

> <Gold.PLP.part.buried>
-5.3159

> <Gold.PLP.part.nonpolar>
-37.3709

> <Gold.PLP.part.repulsive>
0.0701

> <Gold.PLP.ligand.clash>
0.0000

> <Gold.PLP.ligand.torsion>
0.4533

> <Gold.PLP.Chemscore.Hbond>
1.7120

> <Gold.PLP.Chemscore.CHOScore>
0.0000

> <Gold.PLP.Chemscore.Metal>
0.0000

> <Gold.Chemscore.Hbonds>
donor molecule, donor type, donor heavy atom, donor atom, acceptor molecule, acceptor atom, score
      P1  H  6931  6943       L1    12  0.25
      P1  H  6934  6947       L1    12  0.94

> <Gold.PLP.Chemscore.Internal.Correction>
0.0642

> <Gold.Rescore>
     Score         DG    S(hbond)    S(metal)    S(lipo)     H(rot)  DE(clash)    DE(int)     intcor
     17.05     -20.17       1.78        0.00     116.10       1.89       0.07       3.04       ----

> <Gold.Chemscore.Fitness>
17.0523

> <Gold.Chemscore.DG>
-20.1703

> <Gold.Chemscore.ZeroCoef>
-5.4800

> <Gold.Chemscore.Hbond>
1.7812

> <Gold.Chemscore.Metal>
0.0000

> <Gold.Chemscore.Lipo>
116.0991

> <Gold.Chemscore.Internal_Hbond>
0.0000

> <Gold.Chemscore.DEClash>
0.0736

> <Gold.Chemscore.DEInternal>
3.0443

> <Gold.Chemscore.Rot>
1.8916

> <Gold.Chemscore.Internal.Correction>
   9.000000E+99

> <Gold.Chemscore.Hbonds>
donor molecule, donor type, donor heavy atom, donor atom, acceptor molecule, acceptor atom, score
      P1  H  6931  6943       L1    12  0.25
      P1  H  6934  6947       L1    12  0.87

> <Gold.Chemscore.Hbond.Weighted>
-5.9492

> <Gold.Chemscore.Metal.Weighted>
-0.0000

> <Gold.Chemscore.Lipo.Weighted>
-13.5836

> <Gold.Chemscore.Internal_Hbond.Weighted>
0.0000

> <Gold.Chemscore.DEClash.Weighted>
0.0736

> <Gold.Chemscore.DEInternal.Weighted>
3.0443

> <Gold.Chemscore.Rot.Weighted>
4.8425

> <Gold.Chemscore.Internal.Correction.Weighted>
   9.000000E+99

> <Gold.Protein.RotatedTorsions>
[ 6907 6896 6895 6894 ] final  -31.90 input  -60.11 | X-H torsion
[ 7974 7965 7964 7962 ] final   -3.69 input  175.53 | X-H torsion
[ 8008 7997 7996 7995 ] final -102.44 input   59.86 | X-H torsion
[ 10167 10162 10161 10158 ] final   67.25 input  -65.29 | X-H torsion
[ 10718 10713 10712 10709 ] final  -83.67 input   66.30 | X-H torsion
[ 10763 10752 10751 10750 ] final   68.08 input  -60.55 | X-H torsion
[ 11005 11000 10999 10996 ] final  149.72 input  -57.11 | X-H torsion

> <Gold.Protein.ActiveResidues>
 VAL166  LYS551  ARG553  GLY616  TRP617  ASP618  TYR619  PRO620  LYS621  CYS622 
 ASP623  PHE694  ASN695  SER759  ASP760  ASP761  ALA762  ILE779  LEU786  VAL792 
 PHE793  MET794  SER795  GLU796  ALA797  LYS798  CYS799  TRP800  GLU811  SER814 

> <Gold.Protein.RotatedAtoms>
  151.0859  134.9887  159.8378 H   0  0  0  0  0  0  0  0  0  0  0  0  # atno 6907 bound_to 6896
  152.5424  134.2124  159.8765 H   0  0  0  0  0  0  0  0  0  0  0  0  # atno 6908 bound_to 6896
  151.2157  133.4487  159.2633 H   0  0  0  0  0  0  0  0  0  0  0  0  # atno 6909 bound_to 6896
  146.2385  140.1759  142.8332 H   0  0  0  0  0  0  0  0  0  0  0  0  # atno 7974 bound_to 7965
  154.8567  140.0428  157.1639 H   0  0  0  0  0  0  0  0  0  0  0  0  # atno 8008 bound_to 7997
  154.8884  140.2983  155.5364 H   0  0  0  0  0  0  0  0  0  0  0  0  # atno 8009 bound_to 7997
  156.2997  140.2398  156.3897 H   0  0  0  0  0  0  0  0  0  0  0  0  # atno 8010 bound_to 7997
  140.0916  144.4983  150.7095 H   0  0  0  0  0  0  0  0  0  0  0  0  # atno 10167 bound_to 10162
  156.0015  130.4673  150.4293 H   0  0  0  0  0  0  0  0  0  0  0  0  # atno 10718 bound_to 10713
  153.0217  135.5260  154.7079 H   0  0  0  0  0  0  0  0  0  0  0  0  # atno 10763 bound_to 10752
  154.6170  135.2884  155.0371 H   0  0  0  0  0  0  0  0  0  0  0  0  # atno 10764 bound_to 10752
  154.1372  135.6584  153.4987 H   0  0  0  0  0  0  0  0  0  0  0  0  # atno 10765 bound_to 10752
  140.1069  134.8948  157.1879 H   0  0  0  0  0  0  0  0  0  0  0  0  # atno 11005 bound_to 11000
  144.9973  140.8601  143.5303 LP  0  0  0  0  0  0  0  0  0  0  0  0  # atno 17320 bound_to 7965
  145.1773  139.2371  143.5310 LP  0  0  0  0  0  0  0  0  0  0  0  0  # atno 17321 bound_to 7965
  140.7026  143.2445  151.4821 LP  0  0  0  0  0  0  0  0  0  0  0  0  # atno 17342 bound_to 10162
  139.5722  144.1903  152.1852 LP  0  0  0  0  0  0  0  0  0  0  0  0  # atno 17343 bound_to 10162
  157.2343  131.0511  151.2474 LP  0  0  0  0  0  0  0  0  0  0  0  0  # atno 17370 bound_to 10713
  157.3681  130.7166  149.6546 LP  0  0  0  0  0  0  0  0  0  0  0  0  # atno 17371 bound_to 10713
  140.3144  134.2988  155.7260 LP  0  0  0  0  0  0  0  0  0  0  0  0  # atno 17394 bound_to 11000
  141.2120  133.7670  156.9822 LP  0  0  0  0  0  0  0  0  0  0  0  0  # atno 17395 bound_to 11000

$$$$
