AV-unprocessed.smi:3350|AV-procd|sdf|12946|dock8
  -GOLD-   2272019383D 1   1.00000     0.00000
 Structure written by MMmdl.
 41 42  0  0  0  0  0  0  0  0  1 V2000
  151.6870  135.5591  155.6912 C   0  0  0  0  0  0  0  0  0  0  0  0
  150.5594  136.3794  155.0505 C   0  0  1  0  0  0  0  0  0  0  0  0
  151.1155  137.6081  154.2983 C   0  0  0  0  0  0  0  0  0  0  0  0
  150.1547  138.6936  154.2066 N   0  0  0  0  0  0  0  0  0  0  0  0
  148.8594  138.6538  153.7337 C   0  0  0  0  0  0  0  0  0  0  0  0
  148.3395  139.9089  153.8681 C   0  0  0  0  0  0  0  0  0  0  0  0
  149.4084  140.6582  154.4348 C   0  0  0  0  0  0  0  0  0  0  0  0
  150.4949  139.9292  154.6323 N   0  0  0  0  0  0  0  0  0  0  0  0
  149.7998  135.5180  154.1446 N   0  0  0  0  0  0  0  0  0  0  0  0
  149.2243  134.3532  154.4769 C   0  0  0  0  0  0  0  0  0  0  0  0
  149.3076  133.8313  155.5886 O   0  0  0  0  0  0  0  0  0  0  0  0
  148.5209  133.8404  153.4585 N   0  0  0  0  0  0  0  0  0  0  0  0
  147.7308  132.6128  153.5152 C   0  0  1  0  0  0  0  0  0  0  0  0
  146.6268  132.7485  154.5782 C   0  0  0  0  0  0  0  0  0  0  0  0
  147.1486  132.3033  152.1232 C   0  0  1  0  0  0  0  0  0  0  0  0
  146.2495  131.0675  152.0642 C   0  0  0  0  0  0  0  0  0  0  0  0
  145.3682  131.3296  150.8538 C   0  0  0  0  0  0  0  0  0  0  0  0
  145.5135  132.8340  150.6046 C   0  0  0  0  0  0  0  0  0  0  0  0
  146.2608  133.3292  151.7074 O   0  0  0  0  0  0  0  0  0  0  0  0
  152.2579  136.1636  156.3967 H   0  0  0  0  0  0  0  0  0  0  0  0
  152.3809  135.1803  154.9401 H   0  0  0  0  0  0  0  0  0  0  0  0
  151.2887  134.7044  156.2392 H   0  0  0  0  0  0  0  0  0  0  0  0
  149.9148  136.7261  155.8604 H   0  0  0  0  0  0  0  0  0  0  0  0
  152.0054  137.9869  154.8032 H   0  0  0  0  0  0  0  0  0  0  0  0
  151.4262  137.3313  153.2898 H   0  0  0  0  0  0  0  0  0  0  0  0
  148.4179  137.7436  153.3551 H   0  0  0  0  0  0  0  0  0  0  0  0
  147.3463  140.2408  153.6045 H   0  0  0  0  0  0  0  0  0  0  0  0
  149.4267  141.7032  154.7064 H   0  0  0  0  0  0  0  0  0  0  0  0
  149.6709  135.8562  153.2024 H   0  0  0  0  0  0  0  0  0  0  0  0
  148.5127  134.3449  152.5843 H   0  0  0  0  0  0  0  0  0  0  0  0
  148.3857  131.7864  153.7981 H   0  0  0  0  0  0  0  0  0  0  0  0
  146.0349  131.8357  154.6491 H   0  0  0  0  0  0  0  0  0  0  0  0
  145.9466  133.5676  154.3421 H   0  0  0  0  0  0  0  0  0  0  0  0
  147.0474  132.9399  155.5660 H   0  0  0  0  0  0  0  0  0  0  0  0
  147.9499  132.2108  151.3870 H   0  0  0  0  0  0  0  0  0  0  0  0
  146.8122  130.1369  151.9846 H   0  0  0  0  0  0  0  0  0  0  0  0
  145.6306  131.0107  152.9608 H   0  0  0  0  0  0  0  0  0  0  0  0
  145.7104  130.7652  149.9856 H   0  0  0  0  0  0  0  0  0  0  0  0
  144.3337  131.0469  151.0522 H   0  0  0  0  0  0  0  0  0  0  0  0
  146.0679  133.0180  149.6836 H   0  0  0  0  0  0  0  0  0  0  0  0
  144.5510  133.3402  150.5289 H   0  0  0  0  0  0  0  0  0  0  0  0
  1  2  1  0  0  0  0
  1 20  1  0  0  0  0
  1 21  1  0  0  0  0
  1 22  1  0  0  0  0
  2  3  1  0  0  0  0
  2  9  1  0  0  0  0
  2 23  1  0  0  0  0
  3  4  1  0  0  0  0
  3 24  1  0  0  0  0
  3 25  1  0  0  0  0
  4  8  1  0  0  0  0
  4  5  1  0  0  0  0
  5  6  2  0  0  0  0
  5 26  1  0  0  0  0
  6  7  1  0  0  0  0
  6 27  1  0  0  0  0
  7  8  2  0  0  0  0
  7 28  1  0  0  0  0
  9 10  1  0  0  0  0
  9 29  1  0  0  0  0
 10 11  2  0  0  0  0
 10 12  1  0  0  0  0
 12 13  1  0  0  0  0
 12 30  1  0  0  0  0
 13 14  1  0  0  0  0
 13 15  1  0  0  0  0
 13 31  1  0  0  0  0
 14 32  1  0  0  0  0
 14 33  1  0  0  0  0
 14 34  1  0  0  0  0
 15 19  1  0  0  0  0
 15 16  1  0  0  0  0
 15 35  1  0  0  0  0
 16 17  1  0  0  0  0
 16 36  1  0  0  0  0
 16 37  1  0  0  0  0
 17 18  1  0  0  0  0
 17 38  1  0  0  0  0
 17 39  1  0  0  0  0
 18 19  1  0  0  0  0
 18 40  1  0  0  0  0
 18 41  1  0  0  0  0
M  END
> <s_m_source_file>
AV-unprocessed.smi

> <i_m_source_file_index>
3350

> <i_lp_mmshare_version>
43012

> <i_f3d_flags>
0

> <s_epik_input>
bjFbY0hdW2NIXVtjSF1uMVtDSDJdW0NAQEhdKFtDSDNdKVtOSF1DKD1PKVtOSF1bQ0BIXShbQ0gzXSlbQ0BASF0yW0NIMl1bQ0gyXVtDSDJdTzI=

> <s_epik_cmdline>
J2VwaWtfcHl0aG9uJywgJy1waCcsICc3LjAnLCAnLXRuJywgJzgnLCAnLW1hJywgJzIwMCcsICctbWV0YWxfYmluZGluZycsICctaW1hZScsICc8aW5maWxlLm1hZT4nLCAnLW9tYWUnLCAnPG91dGZpbGUubWFlPic=

> <r_lp_tautomer_probability>
1

> <r_epik_Ionization_Penalty>
6.42349e-05

> <r_epik_Ionization_Penalty_Charging>
0

> <r_epik_Ionization_Penalty_Neutral>
6.42349e-05

> <r_epik_State_Penalty>
-0

> <r_epik_Charging_Adjusted_Penalty>
0

> <i_epik_Tot_Q>
0

> <i_epik_Tot_abs_Q>
0

> <r_epik_Metal_State_Penalty>
-0

> <b_epik_Metal_Only>
0

> <s_lp_Force_Field>
OPLS_2005

> <r_lp_Energy>
15.5841

> <b_lp_Chiralities_Consistent>
1

> <s_lp_Variant>
AV-unprocessed.smi:3350-8

> <Gold.Version>
5.8.1

> <Gold.Id.Protein>
6NUR|6NUR_protein|mol2

> <Gold.PLP.Fitness>
43.0354

> <Gold.PLP.PLP>
-30.3173

> <Gold.PLP.part.hbond>
-3.0000

> <Gold.PLP.part.metal>
0.0000

> <Gold.PLP.part.buried>
-0.2652

> <Gold.PLP.part.nonpolar>
-26.4445

> <Gold.PLP.part.repulsive>
0.3002

> <Gold.PLP.ligand.clash>
0.0000

> <Gold.PLP.ligand.torsion>
0.3598

> <Gold.PLP.Chemscore.Hbond>
2.9920

> <Gold.PLP.Chemscore.CHOScore>
1.4729

> <Gold.PLP.Chemscore.Metal>
0.0000

> <Gold.Chemscore.Hbonds>
donor molecule, donor type, donor heavy atom, donor atom, acceptor molecule, acceptor atom, score
      L1  H     9    29       P1  7948  0.59
      L1  H    12    30       P1  7948  0.52
      P1  H  7989  7998       L1     8  0.85
      L1  C     5    26       P1  7948  1.00

> <Gold.PLP.Chemscore.Internal.Correction>
0.0429

> <Gold.Rescore>
     Score         DG    S(hbond)    S(metal)    S(lipo)     H(rot)  DE(clash)    DE(int)     intcor
     14.46     -16.42       2.20        0.00      70.55       1.82       0.02       1.94       ----

> <Gold.Chemscore.Fitness>
14.4607

> <Gold.Chemscore.DG>
-16.4203

> <Gold.Chemscore.ZeroCoef>
-5.4800

> <Gold.Chemscore.Hbond>
2.1990

> <Gold.Chemscore.Metal>
0.0000

> <Gold.Chemscore.Lipo>
70.5458

> <Gold.Chemscore.Internal_Hbond>
0.0000

> <Gold.Chemscore.DEClash>
0.0239

> <Gold.Chemscore.DEInternal>
1.9357

> <Gold.Chemscore.Rot>
1.8197

> <Gold.Chemscore.Internal.Correction>
   9.000000E+99

> <Gold.Chemscore.Hbonds>
donor molecule, donor type, donor heavy atom, donor atom, acceptor molecule, acceptor atom, score
      L1  H     9    29       P1  7948  0.04
      L1  H    12    30       P1  7948  0.04
      P1  H  7989  7998       L1     8  0.13

> <Gold.Chemscore.Hbond.Weighted>
-7.3448

> <Gold.Chemscore.Metal.Weighted>
-0.0000

> <Gold.Chemscore.Lipo.Weighted>
-8.2539

> <Gold.Chemscore.Internal_Hbond.Weighted>
0.0000

> <Gold.Chemscore.DEClash.Weighted>
0.0239

> <Gold.Chemscore.DEInternal.Weighted>
1.9357

> <Gold.Chemscore.Rot.Weighted>
4.6583

> <Gold.Chemscore.Internal.Correction.Weighted>
   9.000000E+99

> <Gold.Protein.RotatedTorsions>
[ 6907 6896 6895 6894 ] final   -3.35 input  -60.11 | X-H torsion
[ 7974 7965 7964 7962 ] final -161.69 input  175.53 | X-H torsion
[ 8008 7997 7996 7995 ] final   10.73 input   59.86 | X-H torsion
[ 10167 10162 10161 10158 ] final  -48.79 input  -65.29 | X-H torsion
[ 10718 10713 10712 10709 ] final -142.64 input   66.30 | X-H torsion
[ 10763 10752 10751 10750 ] final   91.79 input  -60.55 | X-H torsion
[ 11005 11000 10999 10996 ] final -104.31 input  -57.11 | X-H torsion

> <Gold.Protein.ActiveResidues>
 VAL166  LYS551  ARG553  GLY616  TRP617  ASP618  TYR619  PRO620  LYS621  CYS622 
 ASP623  PHE694  ASN695  SER759  ASP760  ASP761  ALA762  ILE779  LEU786  VAL792 
 PHE793  MET794  SER795  GLU796  ALA797  LYS798  CYS799  TRP800  GLU811  SER814 

> <Gold.Protein.RotatedAtoms>
  151.5151  135.1066  159.9863 H   0  0  0  0  0  0  0  0  0  0  0  0  # atno 6907 bound_to 6896
  152.4645  133.7888  159.6901 H   0  0  0  0  0  0  0  0  0  0  0  0  # atno 6908 bound_to 6896
  150.8622  133.7563  159.3014 H   0  0  0  0  0  0  0  0  0  0  0  0  # atno 6909 bound_to 6896
  144.7382  140.3360  143.6144 H   0  0  0  0  0  0  0  0  0  0  0  0  # atno 7974 bound_to 7965
  154.7973  140.2846  155.5947 H   0  0  0  0  0  0  0  0  0  0  0  0  # atno 8008 bound_to 7997
  156.2972  140.2593  156.2763 H   0  0  0  0  0  0  0  0  0  0  0  0  # atno 8009 bound_to 7997
  154.9599  140.0378  157.2174 H   0  0  0  0  0  0  0  0  0  0  0  0  # atno 8010 bound_to 7997
  140.6715  143.2725  151.4122 H   0  0  0  0  0  0  0  0  0  0  0  0  # atno 10167 bound_to 10162
  156.3484  130.7675  151.1823 H   0  0  0  0  0  0  0  0  0  0  0  0  # atno 10718 bound_to 10713
  153.2121  135.4384  155.0392 H   0  0  0  0  0  0  0  0  0  0  0  0  # atno 10763 bound_to 10752
  154.8206  135.3335  154.7053 H   0  0  0  0  0  0  0  0  0  0  0  0  # atno 10764 bound_to 10752
  153.7490  135.6999  153.5005 H   0  0  0  0  0  0  0  0  0  0  0  0  # atno 10765 bound_to 10752
  141.1106  133.8713  157.1595 H   0  0  0  0  0  0  0  0  0  0  0  0  # atno 11005 bound_to 11000
  145.7423  139.1768  143.2369 LP  0  0  0  0  0  0  0  0  0  0  0  0  # atno 17320 bound_to 7965
  146.1125  140.7411  142.9496 LP  0  0  0  0  0  0  0  0  0  0  0  0  # atno 17321 bound_to 7965
  139.5985  144.1345  152.2171 LP  0  0  0  0  0  0  0  0  0  0  0  0  # atno 17342 bound_to 10162
  140.0722  144.5770  150.7183 LP  0  0  0  0  0  0  0  0  0  0  0  0  # atno 17343 bound_to 10162
  157.7457  131.0434  150.4744 LP  0  0  0  0  0  0  0  0  0  0  0  0  # atno 17370 bound_to 10713
  156.4936  130.4101  149.6393 LP  0  0  0  0  0  0  0  0  0  0  0  0  # atno 17371 bound_to 10713
  139.9998  135.0032  157.0164 LP  0  0  0  0  0  0  0  0  0  0  0  0  # atno 17394 bound_to 11000
  140.4785  134.1313  155.7213 LP  0  0  0  0  0  0  0  0  0  0  0  0  # atno 17395 bound_to 11000

$$$$
