AV-unprocessed.smi:104|AV-procd|sdf|995|dock4
  -GOLD-   2262017573D 1   1.00000     0.00000
 Structure written by MMmdl.
 47 49  0  0  0  0  0  0  0  0  1 V2000
  150.4383  133.9629  155.4033 C   0  0  0  0  0  0  0  0  0  0  0  0
  150.3317  135.4724  155.2319 C   0  0  0  0  0  0  0  0  0  0  0  0
  151.3332  136.1887  155.2182 O   0  0  0  0  0  0  0  0  0  0  0  0
  149.0600  135.8843  155.1056 O   0  0  0  0  0  0  0  0  0  0  0  0
  148.7686  137.2693  155.0006 C   0  0  0  0  0  0  0  0  0  0  0  0
  149.2691  137.9907  156.2590 C   0  0  2  0  0  0  0  0  0  0  0  0
  148.8638  137.2379  157.4065 O   0  0  0  0  0  0  0  0  0  0  0  0
  148.0306  138.0071  158.2144 C   0  0  2  0  0  0  0  0  0  0  0  0
  146.9569  137.1456  158.7932 N   0  0  0  0  0  0  0  0  0  0  0  0
  145.9714  136.4433  158.1384 C   0  0  0  0  0  0  0  0  0  0  0  0
  145.8137  136.4468  156.2404 Br  0  0  0  0  0  0  0  0  0  0  0  0
  145.1460  135.7499  158.8714 N   0  0  0  0  0  0  0  0  0  0  0  0
  145.6111  135.9841  160.1597 C   0  0  0  0  0  0  0  0  0  0  0  0
  145.2049  135.5520  161.4476 C   0  0  0  0  0  0  0  0  0  0  0  0
  144.1578  134.7406  161.6506 N   0  0  0  0  0  0  0  0  0  0  0  0
  145.9072  135.9763  162.5243 N   0  0  0  0  0  0  0  0  0  0  0  0
  146.9578  136.7844  162.3497 C   0  0  0  0  0  0  0  0  0  0  0  0
  147.4551  137.2721  161.2104 N   0  0  0  0  0  0  0  0  0  0  0  0
  146.7452  136.8479  160.1246 C   0  0  0  0  0  0  0  0  0  0  0  0
  147.4341  139.0792  157.3194 C   0  0  1  0  0  0  0  0  0  0  0  0
  146.9926  140.1948  158.0818 O   0  0  0  0  0  0  0  0  0  0  0  0
  146.6210  141.3255  157.4623 C   0  0  0  0  0  0  0  0  0  0  0  0
  146.2156  142.4177  158.4428 C   0  0  0  0  0  0  0  0  0  0  0  0
  146.5995  141.5113  156.2457 O   0  0  0  0  0  0  0  0  0  0  0  0
  148.6191  139.3766  156.4152 C   0  0  1  0  0  0  0  0  0  0  0  0
  149.5270  140.2709  157.0540 O   0  0  0  0  0  0  0  0  0  0  0  0
  150.4909  140.8820  156.3444 C   0  0  0  0  0  0  0  0  0  0  0  0
  150.9594  142.1754  156.9969 C   0  0  0  0  0  0  0  0  0  0  0  0
  150.9770  140.4817  155.2866 O   0  0  0  0  0  0  0  0  0  0  0  0
  149.7493  133.4525  154.7298 H   0  0  0  0  0  0  0  0  0  0  0  0
  150.1954  133.6812  156.4281 H   0  0  0  0  0  0  0  0  0  0  0  0
  151.4505  133.6238  155.1817 H   0  0  0  0  0  0  0  0  0  0  0  0
  149.2729  137.6621  154.1172 H   0  0  0  0  0  0  0  0  0  0  0  0
  147.7014  137.4500  154.8676 H   0  0  0  0  0  0  0  0  0  0  0  0
  150.3568  138.0668  156.2267 H   0  0  0  0  0  0  0  0  0  0  0  0
  148.5973  138.4026  159.0578 H   0  0  0  0  0  0  0  0  0  0  0  0
  143.6181  134.4088  160.8640 H   0  0  0  0  0  0  0  0  0  0  0  0
  143.9091  134.4640  162.5894 H   0  0  0  0  0  0  0  0  0  0  0  0
  147.4740  137.0836  163.2502 H   0  0  0  0  0  0  0  0  0  0  0  0
  146.6212  138.6326  156.7439 H   0  0  0  0  0  0  0  0  0  0  0  0
  145.5778  142.0086  159.2269 H   0  0  0  0  0  0  0  0  0  0  0  0
  145.6672  143.2078  157.9294 H   0  0  0  0  0  0  0  0  0  0  0  0
  147.0998  142.8550  158.9070 H   0  0  0  0  0  0  0  0  0  0  0  0
  148.2821  139.7903  155.4633 H   0  0  0  0  0  0  0  0  0  0  0  0
  150.1044  142.7954  157.2677 H   0  0  0  0  0  0  0  0  0  0  0  0
  151.5931  142.7412  156.3137 H   0  0  0  0  0  0  0  0  0  0  0  0
  151.5307  141.9577  157.8994 H   0  0  0  0  0  0  0  0  0  0  0  0
  1  2  1  0  0  0  0
  1 30  1  0  0  0  0
  1 31  1  0  0  0  0
  1 32  1  0  0  0  0
  2  3  2  0  0  0  0
  2  4  1  0  0  0  0
  4  5  1  0  0  0  0
  5  6  1  0  0  0  0
  5 33  1  0  0  0  0
  5 34  1  0  0  0  0
  6 25  1  0  0  0  0
  6  7  1  0  0  0  0
  6 35  1  0  0  0  0
  7  8  1  0  0  0  0
  8  9  1  0  0  0  0
  8 20  1  0  0  0  0
  8 36  1  0  0  0  0
  9 19  1  0  0  0  0
  9 10  1  0  0  0  0
 10 11  1  0  0  0  0
 10 12  2  0  0  0  0
 12 13  1  0  0  0  0
 13 19  2  0  0  0  0
 13 14  1  0  0  0  0
 14 15  1  0  0  0  0
 14 16  2  0  0  0  0
 15 37  1  0  0  0  0
 15 38  1  0  0  0  0
 16 17  1  0  0  0  0
 17 18  2  0  0  0  0
 17 39  1  0  0  0  0
 18 19  1  0  0  0  0
 20 21  1  0  0  0  0
 20 25  1  0  0  0  0
 20 40  1  0  0  0  0
 21 22  1  0  0  0  0
 22 23  1  0  0  0  0
 22 24  2  0  0  0  0
 23 41  1  0  0  0  0
 23 42  1  0  0  0  0
 23 43  1  0  0  0  0
 25 26  1  0  0  0  0
 25 44  1  0  0  0  0
 26 27  1  0  0  0  0
 27 28  1  0  0  0  0
 27 29  2  0  0  0  0
 28 45  1  0  0  0  0
 28 46  1  0  0  0  0
 28 47  1  0  0  0  0
M  END
> <s_m_source_file>
AV-unprocessed.smi

> <i_m_source_file_index>
104

> <i_lp_mmshare_version>
43012

> <i_f3d_flags>
0

> <s_epik_input>
W0NIM11DKD1PKU9bQ0gyXVtDQEBIXTFPW0NASF0oW0NAQEhdKE9DKD1PKVtDSDNdKVtDQEhdMU9DKD1PKVtDSDNdKW4oYyhCciluMiljKGMyMyluW2NIXW5jM1tOSDJd

> <s_epik_cmdline>
J2VwaWtfcHl0aG9uJywgJy1waCcsICc3LjAnLCAnLXRuJywgJzgnLCAnLW1hJywgJzIwMCcsICctbWV0YWxfYmluZGluZycsICctaW1hZScsICc8aW5maWxlLm1hZT4nLCAnLW9tYWUnLCAnPG91dGZpbGUubWFlPic=

> <r_lp_tautomer_probability>
1

> <r_epik_Ionization_Penalty>
7.36622e-05

> <r_epik_Ionization_Penalty_Charging>
0

> <r_epik_Ionization_Penalty_Neutral>
7.36622e-05

> <r_epik_State_Penalty>
-0

> <r_epik_Charging_Adjusted_Penalty>
0

> <i_epik_Tot_Q>
0

> <i_epik_Tot_abs_Q>
0

> <r_epik_Metal_State_Penalty>
-0

> <b_epik_Metal_Only>
0

> <s_epik_Chemistry_Notes>
This compound has an ester and may undergo hydrolysis at high or low pH. This compound contains an acetal/aminal-like group ( X-CH(R)-Y where X, Y are N, S, or O) that may be acid/base labile, releasing an aldehyde.

> <s_lp_Force_Field>
OPLS_2005

> <r_lp_Energy>
18.6996

> <b_lp_Chiralities_Consistent>
1

> <s_lp_Variant>
AV-unprocessed.smi:104-3

> <Gold.Version>
5.8.1

> <Gold.Id.Protein>
6NUR|6NUR_protein|mol2

> <Gold.PLP.Fitness>
34.6471

> <Gold.PLP.PLP>
-24.9592

> <Gold.PLP.part.hbond>
-5.0000

> <Gold.PLP.part.metal>
0.0000

> <Gold.PLP.part.buried>
-5.7367

> <Gold.PLP.part.nonpolar>
-14.5556

> <Gold.PLP.part.repulsive>
0.3897

> <Gold.PLP.ligand.clash>
0.0000

> <Gold.PLP.ligand.torsion>
0.7049

> <Gold.PLP.Chemscore.Hbond>
3.6560

> <Gold.PLP.Chemscore.CHOScore>
0.0000

> <Gold.PLP.Chemscore.Metal>
0.0000

> <Gold.Chemscore.Hbonds>
donor molecule, donor type, donor heavy atom, donor atom, acceptor molecule, acceptor atom, score
      P1  H  6931  6943       L1    18  0.85
      P1  H  6934  6947       L1    18  0.77
      P1  H  7989  7998       L1    29  0.98
      P1  H 10752 10764       L1     3  1.00

> <Gold.PLP.Chemscore.Internal.Correction>
0.1297

> <Gold.Rescore>
     Score         DG    S(hbond)    S(metal)    S(lipo)     H(rot)  DE(clash)    DE(int)     intcor
      5.64      -6.34       2.84        0.00      20.61       4.31       0.02       0.67       ----

> <Gold.Chemscore.Fitness>
5.6438

> <Gold.Chemscore.DG>
-6.3388

> <Gold.Chemscore.ZeroCoef>
-5.4800

> <Gold.Chemscore.Hbond>
2.8364

> <Gold.Chemscore.Metal>
0.0000

> <Gold.Chemscore.Lipo>
20.6083

> <Gold.Chemscore.Internal_Hbond>
0.0000

> <Gold.Chemscore.DEClash>
0.0247

> <Gold.Chemscore.DEInternal>
0.6703

> <Gold.Chemscore.Rot>
4.3070

> <Gold.Chemscore.Internal.Correction>
   9.000000E+99

> <Gold.Chemscore.Hbonds>
donor molecule, donor type, donor heavy atom, donor atom, acceptor molecule, acceptor atom, score
      P1  H  6931  6943       L1    18  0.21
      P1  H  6934  6947       L1    18  0.10
      P1  H  7989  7998       L1    29  0.93
      P1  H 10752 10764       L1     3  0.99

> <Gold.Chemscore.Hbond.Weighted>
-9.4735

> <Gold.Chemscore.Metal.Weighted>
-0.0000

> <Gold.Chemscore.Lipo.Weighted>
-2.4112

> <Gold.Chemscore.Internal_Hbond.Weighted>
0.0000

> <Gold.Chemscore.DEClash.Weighted>
0.0247

> <Gold.Chemscore.DEInternal.Weighted>
0.6703

> <Gold.Chemscore.Rot.Weighted>
11.0259

> <Gold.Chemscore.Internal.Correction.Weighted>
   9.000000E+99

> <Gold.Protein.RotatedTorsions>
[ 6907 6896 6895 6894 ] final   31.02 input  -60.11 | X-H torsion
[ 7974 7965 7964 7962 ] final  -98.25 input  175.53 | X-H torsion
[ 8008 7997 7996 7995 ] final  -44.26 input   59.86 | X-H torsion
[ 10167 10162 10161 10158 ] final  100.68 input  -65.29 | X-H torsion
[ 10718 10713 10712 10709 ] final -127.76 input   66.30 | X-H torsion
[ 10763 10752 10751 10750 ] final  -57.31 input  -60.55 | X-H torsion
[ 11005 11000 10999 10996 ] final -151.52 input  -57.11 | X-H torsion

> <Gold.Protein.ActiveResidues>
 VAL166  LYS551  ARG553  GLY616  TRP617  ASP618  TYR619  PRO620  LYS621  CYS622 
 ASP623  PHE694  ASN695  SER759  ASP760  ASP761  ALA762  ILE779  LEU786  VAL792 
 PHE793  MET794  SER795  GLU796  ALA797  LYS798  CYS799  TRP800  GLU811  SER814 

> <Gold.Protein.RotatedAtoms>
  152.0544  134.9634  160.0574 H   0  0  0  0  0  0  0  0  0  0  0  0  # atno 6907 bound_to 6896
  152.1022  133.4251  159.4600 H   0  0  0  0  0  0  0  0  0  0  0  0  # atno 6908 bound_to 6896
  150.6840  134.2666  159.4614 H   0  0  0  0  0  0  0  0  0  0  0  0  # atno 6909 bound_to 6896
  145.3230  140.9426  143.2705 H   0  0  0  0  0  0  0  0  0  0  0  0  # atno 7974 bound_to 7965
  154.3997  140.1427  156.3654 H   0  0  0  0  0  0  0  0  0  0  0  0  # atno 8008 bound_to 7997
  155.8142  140.3471  155.5455 H   0  0  0  0  0  0  0  0  0  0  0  0  # atno 8009 bound_to 7997
  155.8354  140.0918  157.1757 H   0  0  0  0  0  0  0  0  0  0  0  0  # atno 8010 bound_to 7997
  139.7505  144.6985  151.0439 H   0  0  0  0  0  0  0  0  0  0  0  0  # atno 10167 bound_to 10162
  156.1887  130.6781  151.0397 H   0  0  0  0  0  0  0  0  0  0  0  0  # atno 10718 bound_to 10713
  154.2203  135.6379  153.5143 H   0  0  0  0  0  0  0  0  0  0  0  0  # atno 10763 bound_to 10752
  152.9970  135.5495  154.6121 H   0  0  0  0  0  0  0  0  0  0  0  0  # atno 10764 bound_to 10752
  154.5579  135.2906  155.0921 H   0  0  0  0  0  0  0  0  0  0  0  0  # atno 10765 bound_to 10752
  140.7287  134.3646  157.5170 H   0  0  0  0  0  0  0  0  0  0  0  0  # atno 11005 bound_to 11000
  144.8924  139.4757  143.6671 LP  0  0  0  0  0  0  0  0  0  0  0  0  # atno 17320 bound_to 7965
  146.3075  139.7630  142.9045 LP  0  0  0  0  0  0  0  0  0  0  0  0  # atno 17321 bound_to 7965
  140.7797  143.4814  151.0013 LP  0  0  0  0  0  0  0  0  0  0  0  0  # atno 17342 bound_to 10162
  139.8502  143.7448  152.3178 LP  0  0  0  0  0  0  0  0  0  0  0  0  # atno 17343 bound_to 10162
  157.6915  131.0808  150.7093 LP  0  0  0  0  0  0  0  0  0  0  0  0  # atno 17370 bound_to 10713
  156.7149  130.4663  149.5537 LP  0  0  0  0  0  0  0  0  0  0  0  0  # atno 17371 bound_to 10713
  139.8831  134.9004  156.2787 LP  0  0  0  0  0  0  0  0  0  0  0  0  # atno 17394 bound_to 11000
  140.9940  133.7191  156.0857 LP  0  0  0  0  0  0  0  0  0  0  0  0  # atno 17395 bound_to 11000

$$$$
