AV-unprocessed.smi:1668|AV-procd|sdf|6681|dock8
  -GOLD-   22720 7403D 1   1.00000     0.00000
 Structure written by MMmdl.
 44 46  0  0  0  0  0  0  0  0  1 V2000
  145.1155  143.5764  155.2446 C   0  0  0  0  0  0  0  0  0  0  0  0
  145.2314  142.2869  154.6611 O   0  0  0  0  0  0  0  0  0  0  0  0
  146.4818  141.7098  154.6070 C   0  0  0  0  0  0  0  0  0  0  0  0
  146.8947  140.7956  153.6097 C   0  0  0  0  0  0  0  0  0  0  0  0
  148.1964  140.2623  153.6266 C   0  0  0  0  0  0  0  0  0  0  0  0
  149.1181  140.6267  154.6386 C   0  0  0  0  0  0  0  0  0  0  0  0
  150.4115  140.1485  154.6875 O   0  0  0  0  0  0  0  0  0  0  0  0
  150.6740  138.8561  154.1620 C   0  0  0  0  0  0  0  0  0  0  0  0
  148.7056  141.5360  155.6440 C   0  0  0  0  0  0  0  0  0  0  0  0
  149.6774  141.9933  156.7328 C   0  0  2  0  0  0  0  0  0  0  0  0
  150.6803  142.8585  156.2388 O   0  0  0  0  0  0  0  0  0  0  0  0
  150.3712  140.8103  157.4451 C   0  0  0  0  0  0  0  0  0  0  0  0
  151.4776  141.2462  158.2983 N   0  0  0  0  0  0  0  0  0  0  0  0
  152.7039  140.6759  158.3677 C   0  0  0  0  0  0  0  0  0  0  0  0
  153.0681  139.6713  157.7566 O   0  0  0  0  0  0  0  0  0  0  0  0
  153.4690  141.4245  159.1955 N   0  0  0  0  0  0  0  0  0  0  0  0
  154.8726  141.2064  159.5226 C   0  0  0  0  0  0  0  0  0  0  0  0
  152.7180  142.5129  159.6571 C   0  0  0  0  0  0  0  0  0  0  0  0
  153.0647  143.5797  160.5037 C   0  0  0  0  0  0  0  0  0  0  0  0
  152.0658  144.5462  160.7669 C   0  0  0  0  0  0  0  0  0  0  0  0
  150.7734  144.4307  160.1927 C   0  0  0  0  0  0  0  0  0  0  0  0
  150.4516  143.3456  159.3448 C   0  0  0  0  0  0  0  0  0  0  0  0
  151.4621  142.3991  159.0992 C   0  0  0  0  0  0  0  0  0  0  0  0
  147.3971  142.0675  155.6147 C   0  0  0  0  0  0  0  0  0  0  0  0
  144.0729  143.8925  155.2143 H   0  0  0  0  0  0  0  0  0  0  0  0
  145.7003  144.3160  154.6961 H   0  0  0  0  0  0  0  0  0  0  0  0
  145.4276  143.5708  156.2899 H   0  0  0  0  0  0  0  0  0  0  0  0
  146.2317  140.4884  152.8155 H   0  0  0  0  0  0  0  0  0  0  0  0
  148.4650  139.5703  152.8434 H   0  0  0  0  0  0  0  0  0  0  0  0
  151.7491  138.6775  154.1752 H   0  0  0  0  0  0  0  0  0  0  0  0
  150.3407  138.7723  153.1264 H   0  0  0  0  0  0  0  0  0  0  0  0
  150.2018  138.0767  154.7611 H   0  0  0  0  0  0  0  0  0  0  0  0
  149.1338  142.5788  157.4745 H   0  0  0  0  0  0  0  0  0  0  0  0
  150.2714  143.6670  155.9703 H   0  0  0  0  0  0  0  0  0  0  0  0
  149.6480  140.2525  158.0406 H   0  0  0  0  0  0  0  0  0  0  0  0
  150.7542  140.1046  156.7059 H   0  0  0  0  0  0  0  0  0  0  0  0
  155.0493  141.3754  160.5852 H   0  0  0  0  0  0  0  0  0  0  0  0
  155.4996  141.8955  158.9564 H   0  0  0  0  0  0  0  0  0  0  0  0
  155.1897  140.1888  159.2904 H   0  0  0  0  0  0  0  0  0  0  0  0
  154.0519  143.6634  160.9332 H   0  0  0  0  0  0  0  0  0  0  0  0
  152.2906  145.3833  161.4112 H   0  0  0  0  0  0  0  0  0  0  0  0
  150.0264  145.1819  160.4033 H   0  0  0  0  0  0  0  0  0  0  0  0
  149.4714  143.2587  158.9003 H   0  0  0  0  0  0  0  0  0  0  0  0
  147.0882  142.7759  156.3696 H   0  0  0  0  0  0  0  0  0  0  0  0
  1  2  1  0  0  0  0
  1 25  1  0  0  0  0
  1 26  1  0  0  0  0
  1 27  1  0  0  0  0
  2  3  1  0  0  0  0
  3 24  1  0  0  0  0
  3  4  2  0  0  0  0
  4  5  1  0  0  0  0
  4 28  1  0  0  0  0
  5  6  2  0  0  0  0
  5 29  1  0  0  0  0
  6  7  1  0  0  0  0
  6  9  1  0  0  0  0
  7  8  1  0  0  0  0
  8 30  1  0  0  0  0
  8 31  1  0  0  0  0
  8 32  1  0  0  0  0
  9 10  1  0  0  0  0
  9 24  2  0  0  0  0
 10 11  1  0  0  0  0
 10 12  1  0  0  0  0
 10 33  1  0  0  0  0
 11 34  1  0  0  0  0
 12 13  1  0  0  0  0
 12 35  1  0  0  0  0
 12 36  1  0  0  0  0
 13 23  1  0  0  0  0
 13 14  1  0  0  0  0
 14 15  2  0  0  0  0
 14 16  1  0  0  0  0
 16 17  1  0  0  0  0
 16 18  1  0  0  0  0
 17 37  1  0  0  0  0
 17 38  1  0  0  0  0
 17 39  1  0  0  0  0
 18 23  2  0  0  0  0
 18 19  1  0  0  0  0
 19 20  2  0  0  0  0
 19 40  1  0  0  0  0
 20 21  1  0  0  0  0
 20 41  1  0  0  0  0
 21 22  2  0  0  0  0
 21 42  1  0  0  0  0
 22 23  1  0  0  0  0
 22 43  1  0  0  0  0
 24 44  1  0  0  0  0
M  END
> <s_m_source_file>
AV-unprocessed.smi

> <i_m_source_file_index>
1668

> <i_lp_mmshare_version>
43012

> <i_f3d_flags>
0

> <s_epik_input>
W0NIM11PYzFbY0hdW2NIXWMoT1tDSDNdKWMoW2NIXTEpW0NASF0oW09IXSlbQ0gyXW4oYyg9TyluMltDSDNdKWMoYzIzKVtjSF1bY0hdW2NIXVtjSF0z

> <s_epik_cmdline>
J2VwaWtfcHl0aG9uJywgJy1waCcsICc3LjAnLCAnLXRuJywgJzgnLCAnLW1hJywgJzIwMCcsICctbWV0YWxfYmluZGluZycsICctaW1hZScsICc8aW5maWxlLm1hZT4nLCAnLW9tYWUnLCAnPG91dGZpbGUubWFlPic=

> <r_lp_tautomer_probability>
1

> <r_epik_Ionization_Penalty>
1.34538e-06

> <r_epik_Ionization_Penalty_Charging>
1.76928e-09

> <r_epik_Ionization_Penalty_Neutral>
1.34362e-06

> <r_epik_State_Penalty>
-0

> <r_epik_Charging_Adjusted_Penalty>
1.76928e-09

> <i_epik_Tot_Q>
0

> <i_epik_Tot_abs_Q>
0

> <r_epik_Metal_State_Penalty>
-0

> <b_epik_Metal_Only>
0

> <s_lp_Force_Field>
OPLS_2005

> <r_lp_Energy>
46.5536

> <b_lp_Chiralities_Consistent>
1

> <s_lp_Variant>
AV-unprocessed.smi:1668-1

> <Gold.Version>
5.8.1

> <Gold.Id.Protein>
6NUR|6NUR_protein|mol2

> <Gold.PLP.Fitness>
52.2815

> <Gold.PLP.PLP>
-45.9810

> <Gold.PLP.part.hbond>
-3.0000

> <Gold.PLP.part.metal>
0.0000

> <Gold.PLP.part.buried>
0.6707

> <Gold.PLP.part.nonpolar>
-44.4689

> <Gold.PLP.part.repulsive>
0.9893

> <Gold.PLP.ligand.clash>
0.0000

> <Gold.PLP.ligand.torsion>
1.3024

> <Gold.PLP.Chemscore.Hbond>
2.9440

> <Gold.PLP.Chemscore.CHOScore>
0.0000

> <Gold.PLP.Chemscore.Metal>
0.0000

> <Gold.Chemscore.Hbonds>
donor molecule, donor type, donor heavy atom, donor atom, acceptor molecule, acceptor atom, score
      L1  H    11    34       P1  8028  1.00
      P1  H  7989  7998       L1     7  0.50
      P1  H  7997  8009       L1    15  1.00

> <Gold.PLP.Chemscore.Internal.Correction>
0.0732

> <Gold.Rescore>
     Score         DG    S(hbond)    S(metal)    S(lipo)     H(rot)  DE(clash)    DE(int)     intcor
     15.19     -20.75       1.66        0.00     132.10       2.24       3.19       2.36       ----

> <Gold.Chemscore.Fitness>
15.1897

> <Gold.Chemscore.DG>
-20.7460

> <Gold.Chemscore.ZeroCoef>
-5.4800

> <Gold.Chemscore.Hbond>
1.6637

> <Gold.Chemscore.Metal>
0.0000

> <Gold.Chemscore.Lipo>
132.1010

> <Gold.Chemscore.Internal_Hbond>
0.0000

> <Gold.Chemscore.DEClash>
3.1939

> <Gold.Chemscore.DEInternal>
2.3623

> <Gold.Chemscore.Rot>
2.2448

> <Gold.Chemscore.Internal.Correction>
   9.000000E+99

> <Gold.Chemscore.Hbonds>
donor molecule, donor type, donor heavy atom, donor atom, acceptor molecule, acceptor atom, score
      L1  H    11    34       P1  8028  0.98
      P1  H  7989  7998       L1     7  0.02
      P1  H  7997  8009       L1    15  0.65

> <Gold.Chemscore.Hbond.Weighted>
-5.5569

> <Gold.Chemscore.Metal.Weighted>
-0.0000

> <Gold.Chemscore.Lipo.Weighted>
-15.4558

> <Gold.Chemscore.Internal_Hbond.Weighted>
0.0000

> <Gold.Chemscore.DEClash.Weighted>
3.1939

> <Gold.Chemscore.DEInternal.Weighted>
2.3623

> <Gold.Chemscore.Rot.Weighted>
5.7467

> <Gold.Chemscore.Internal.Correction.Weighted>
   9.000000E+99

> <Gold.Protein.RotatedTorsions>
[ 6907 6896 6895 6894 ] final  144.52 input  -60.11 | X-H torsion
[ 7974 7965 7964 7962 ] final   47.92 input  175.53 | X-H torsion
[ 8008 7997 7996 7995 ] final  159.45 input   59.86 | X-H torsion
[ 10167 10162 10161 10158 ] final -140.20 input  -65.29 | X-H torsion
[ 10718 10713 10712 10709 ] final -142.56 input   66.30 | X-H torsion
[ 10763 10752 10751 10750 ] final  115.74 input  -60.55 | X-H torsion
[ 11005 11000 10999 10996 ] final   69.15 input  -57.11 | X-H torsion

> <Gold.Protein.ActiveResidues>
 VAL166  LYS551  ARG553  GLY616  TRP617  ASP618  TYR619  PRO620  LYS621  CYS622 
 ASP623  PHE694  ASN695  SER759  ASP760  ASP761  ALA762  ILE779  LEU786  VAL792 
 PHE793  MET794  SER795  GLU796  ALA797  LYS798  CYS799  TRP800  GLU811  SER814 

> <Gold.Protein.RotatedAtoms>
  152.1926  133.4784  159.5015 H   0  0  0  0  0  0  0  0  0  0  0  0  # atno 6907 bound_to 6896
  150.6954  134.1693  159.4215 H   0  0  0  0  0  0  0  0  0  0  0  0  # atno 6908 bound_to 6896
  151.9608  135.0124  160.0598 H   0  0  0  0  0  0  0  0  0  0  0  0  # atno 6909 bound_to 6896
  146.0252  139.4698  142.9872 H   0  0  0  0  0  0  0  0  0  0  0  0  # atno 7974 bound_to 7965
  156.2238  140.1831  156.7413 H   0  0  0  0  0  0  0  0  0  0  0  0  # atno 8008 bound_to 7997
  154.5907  140.0651  156.9263 H   0  0  0  0  0  0  0  0  0  0  0  0  # atno 8009 bound_to 7997
  155.2341  140.3317  155.4302 H   0  0  0  0  0  0  0  0  0  0  0  0  # atno 8010 bound_to 7997
  139.8305  143.7454  152.2666 H   0  0  0  0  0  0  0  0  0  0  0  0  # atno 10167 bound_to 10162
  156.3474  130.7670  151.1816 H   0  0  0  0  0  0  0  0  0  0  0  0  # atno 10718 bound_to 10713
  153.5267  135.3586  155.2657 H   0  0  0  0  0  0  0  0  0  0  0  0  # atno 10763 bound_to 10752
  154.8730  135.4058  154.3198 H   0  0  0  0  0  0  0  0  0  0  0  0  # atno 10764 bound_to 10752
  153.3878  135.7070  153.6584 H   0  0  0  0  0  0  0  0  0  0  0  0  # atno 10765 bound_to 10752
  139.9670  134.6964  156.0525 H   0  0  0  0  0  0  0  0  0  0  0  0  # atno 11005 bound_to 11000
  145.7129  141.0100  143.1444 LP  0  0  0  0  0  0  0  0  0  0  0  0  # atno 17320 bound_to 7965
  144.7007  139.8778  143.7445 LP  0  0  0  0  0  0  0  0  0  0  0  0  # atno 17321 bound_to 7965
  139.7660  144.7492  151.0294 LP  0  0  0  0  0  0  0  0  0  0  0  0  # atno 17342 bound_to 10162
  140.7807  143.4698  151.0162 LP  0  0  0  0  0  0  0  0  0  0  0  0  # atno 17343 bound_to 10162
  157.7456  131.0437  150.4758 LP  0  0  0  0  0  0  0  0  0  0  0  0  # atno 17370 bound_to 10713
  156.4948  130.4103  149.6386 LP  0  0  0  0  0  0  0  0  0  0  0  0  # atno 17371 bound_to 10713
  141.1350  133.6577  156.3567 LP  0  0  0  0  0  0  0  0  0  0  0  0  # atno 17394 bound_to 11000
  140.5375  134.6152  157.5369 LP  0  0  0  0  0  0  0  0  0  0  0  0  # atno 17395 bound_to 11000

$$$$
