AV-unprocessed.smi:246|AV-procd|sdf|1882|dock6
  -GOLD-   2262020533D 1   1.00000     0.00000
 Structure written by MMmdl.
 57 60  0  0  0  0  0  0  0  0  1 V2000
  153.2354  142.1527  160.3301 C   0  0  0  0  0  0  0  0  0  0  0  0
  152.4104  143.3109  159.7520 C   0  0  0  0  0  0  0  0  0  0  0  0
  152.0538  143.0740  158.3978 O   0  0  0  0  0  0  0  0  0  0  0  0
  151.3160  141.8789  158.1870 C   0  0  0  0  0  0  0  0  0  0  0  0
  151.1876  141.6415  156.6797 C   0  0  0  0  0  0  0  0  0  0  0  0
  150.7064  140.3223  156.4694 O   0  0  0  0  0  0  0  0  0  0  0  0
  150.5899  139.9536  155.1013 C   0  0  1  0  0  0  0  0  0  0  0  0
  151.6050  138.8454  154.8131 C   0  0  0  0  0  0  0  0  0  0  0  0
  150.8827  137.5546  155.2054 C   0  0  0  0  0  0  0  0  0  0  0  0
  149.4649  137.8571  155.0906 N   0  0  0  0  0  0  0  0  0  0  0  0
  148.5282  136.9075  154.8381 C   0  0  0  0  0  0  0  0  0  0  0  0
  148.7515  135.6417  155.2812 N   0  0  0  0  0  0  0  0  0  0  0  0
  147.8561  134.6759  155.0578 C   0  0  0  0  0  0  0  0  0  0  0  0
  146.6903  134.7525  154.4150 N   0  0  0  0  0  0  0  0  0  0  0  0
  146.4636  136.0152  153.9540 C   0  0  0  0  0  0  0  0  0  0  0  0
  147.3189  137.1427  154.1193 C   0  0  0  0  0  0  0  0  0  0  0  0
  146.7505  138.2520  153.5014 N   0  0  0  0  0  0  0  0  0  0  0  0
  145.6293  137.8079  153.0044 C   0  0  0  0  0  0  0  0  0  0  0  0
  145.3824  136.4725  153.2221 N   0  0  0  0  0  0  0  0  0  0  0  0
  144.2266  135.7183  152.7718 C   0  0  0  0  0  0  0  0  0  0  0  0
  144.3900  134.1910  152.9336 C   0  0  1  0  0  0  0  0  0  0  0  0
  143.1005  133.6603  153.1666 O   0  0  0  0  0  0  0  0  0  0  0  0
  145.0205  133.4746  151.7169 C   0  0  2  0  0  0  0  0  0  0  0  0
  144.1339  133.4587  150.4682 C   0  0  0  0  0  0  0  0  0  0  0  0
  144.6634  132.2566  149.7219 C   0  0  0  0  0  0  0  0  0  0  0  0
  144.9336  131.2846  150.8637 C   0  0  0  0  0  0  0  0  0  0  0  0
  145.2505  132.0925  151.9929 O   0  0  0  0  0  0  0  0  0  0  0  0
  149.2437  139.2708  154.8204 C   0  0  0  0  0  0  0  0  0  0  0  0
  150.7611  140.8170  154.4563 H   0  0  0  0  0  0  0  0  0  0  0  0
  153.5863  142.3935  161.3336 H   0  0  0  0  0  0  0  0  0  0  0  0
  154.1103  141.9506  159.7116 H   0  0  0  0  0  0  0  0  0  0  0  0
  152.6539  141.2340  160.3999 H   0  0  0  0  0  0  0  0  0  0  0  0
  151.5279  143.5102  160.3619 H   0  0  0  0  0  0  0  0  0  0  0  0
  153.0152  144.2177  159.7767 H   0  0  0  0  0  0  0  0  0  0  0  0
  151.7884  141.0195  158.6631 H   0  0  0  0  0  0  0  0  0  0  0  0
  150.3229  141.9912  158.6243 H   0  0  0  0  0  0  0  0  0  0  0  0
  150.4881  142.3623  156.2565 H   0  0  0  0  0  0  0  0  0  0  0  0
  152.1509  141.7934  156.1904 H   0  0  0  0  0  0  0  0  0  0  0  0
  151.8186  138.8244  153.7438 H   0  0  0  0  0  0  0  0  0  0  0  0
  152.5516  138.9808  155.3371 H   0  0  0  0  0  0  0  0  0  0  0  0
  151.1842  136.7283  154.5609 H   0  0  0  0  0  0  0  0  0  0  0  0
  151.1031  137.2868  156.2392 H   0  0  0  0  0  0  0  0  0  0  0  0
  148.1113  133.7019  155.4485 H   0  0  0  0  0  0  0  0  0  0  0  0
  144.9535  138.4445  152.4519 H   0  0  0  0  0  0  0  0  0  0  0  0
  143.3578  136.0660  153.3324 H   0  0  0  0  0  0  0  0  0  0  0  0
  144.0414  135.9667  151.7257 H   0  0  0  0  0  0  0  0  0  0  0  0
  144.9914  133.9826  153.8190 H   0  0  0  0  0  0  0  0  0  0  0  0
  143.1924  132.7597  153.4375 H   0  0  0  0  0  0  0  0  0  0  0  0
  145.9803  133.9298  151.4665 H   0  0  0  0  0  0  0  0  0  0  0  0
  143.0891  133.2965  150.7386 H   0  0  0  0  0  0  0  0  0  0  0  0
  144.1982  134.3803  149.8887 H   0  0  0  0  0  0  0  0  0  0  0  0
  143.9642  131.8644  148.9830 H   0  0  0  0  0  0  0  0  0  0  0  0
  145.5946  132.5109  149.2137 H   0  0  0  0  0  0  0  0  0  0  0  0
  144.0379  130.7065  151.0942 H   0  0  0  0  0  0  0  0  0  0  0  0
  145.7385  130.5861  150.6345 H   0  0  0  0  0  0  0  0  0  0  0  0
  148.4296  139.6709  155.4244 H   0  0  0  0  0  0  0  0  0  0  0  0
  148.9773  139.3932  153.7697 H   0  0  0  0  0  0  0  0  0  0  0  0
  1  2  1  0  0  0  0
  1 30  1  0  0  0  0
  1 31  1  0  0  0  0
  1 32  1  0  0  0  0
  2  3  1  0  0  0  0
  2 33  1  0  0  0  0
  2 34  1  0  0  0  0
  3  4  1  0  0  0  0
  4  5  1  0  0  0  0
  4 35  1  0  0  0  0
  4 36  1  0  0  0  0
  5  6  1  0  0  0  0
  5 37  1  0  0  0  0
  5 38  1  0  0  0  0
  6  7  1  0  0  0  0
  7 29  1  0  0  0  0
  7 28  1  0  0  0  0
  7  8  1  0  0  0  0
  8  9  1  0  0  0  0
  8 39  1  0  0  0  0
  8 40  1  0  0  0  0
  9 10  1  0  0  0  0
  9 41  1  0  0  0  0
  9 42  1  0  0  0  0
 10 11  1  0  0  0  0
 10 28  1  0  0  0  0
 11 16  1  0  0  0  0
 11 12  2  0  0  0  0
 12 13  1  0  0  0  0
 13 14  2  0  0  0  0
 13 43  1  0  0  0  0
 14 15  1  0  0  0  0
 15 19  1  0  0  0  0
 15 16  2  0  0  0  0
 16 17  1  0  0  0  0
 17 18  2  0  0  0  0
 18 19  1  0  0  0  0
 18 44  1  0  0  0  0
 19 20  1  0  0  0  0
 20 21  1  0  0  0  0
 20 45  1  0  0  0  0
 20 46  1  0  0  0  0
 21 22  1  0  0  0  0
 21 23  1  0  0  0  0
 21 47  1  0  0  0  0
 22 48  1  0  0  0  0
 23 27  1  0  0  0  0
 23 24  1  0  0  0  0
 23 49  1  0  0  0  0
 24 25  1  0  0  0  0
 24 50  1  0  0  0  0
 24 51  1  0  0  0  0
 25 26  1  0  0  0  0
 25 52  1  0  0  0  0
 25 53  1  0  0  0  0
 26 27  1  0  0  0  0
 26 54  1  0  0  0  0
 26 55  1  0  0  0  0
 28 56  1  0  0  0  0
 28 57  1  0  0  0  0
M  END
> <s_m_source_file>
AV-unprocessed.smi

> <i_m_source_file_index>
246

> <i_lp_mmshare_version>
43012

> <i_f3d_flags>
0

> <s_epik_input>
W0NIM11bQ0gyXU9bQ0gyXVtDSDJdT1tDQEhdMVtDSDJdW0NIMl1OKFtDSDJdMSljKG5bY0hdbjIpYyhjMjMpbltjSF1uM1tDSDJdW0NASF0oW09IXSlbQ0BASF00W0NIMl1bQ0gyXVtDSDJdTzQ=

> <s_epik_cmdline>
J2VwaWtfcHl0aG9uJywgJy1waCcsICc3LjAnLCAnLXRuJywgJzgnLCAnLW1hJywgJzIwMCcsICctbWV0YWxfYmluZGluZycsICctaW1hZScsICc8aW5maWxlLm1hZT4nLCAnLW9tYWUnLCAnPG91dGZpbGUubWFlPic=

> <r_lp_tautomer_probability>
1

> <r_epik_Ionization_Penalty>
0.0024631

> <r_epik_Ionization_Penalty_Charging>
0

> <r_epik_Ionization_Penalty_Neutral>
0.0024631

> <r_epik_State_Penalty>
0.00162428

> <r_epik_Charging_Adjusted_Penalty>
0.00162428

> <i_epik_Tot_Q>
0

> <i_epik_Tot_abs_Q>
0

> <r_epik_Metal_State_Penalty>
-0

> <b_epik_Metal_Only>
0

> <s_lp_Force_Field>
OPLS_2005

> <r_lp_Energy>
52.0053

> <b_lp_Chiralities_Consistent>
1

> <s_lp_Variant>
AV-unprocessed.smi:246-3

> <Gold.Version>
5.8.1

> <Gold.Id.Protein>
6NUR|6NUR_protein|mol2

> <Gold.PLP.Fitness>
46.1793

> <Gold.PLP.PLP>
-39.8811

> <Gold.PLP.part.hbond>
-1.0000

> <Gold.PLP.part.metal>
0.0000

> <Gold.PLP.part.buried>
-4.1722

> <Gold.PLP.part.nonpolar>
-35.9087

> <Gold.PLP.part.repulsive>
0.6360

> <Gold.PLP.ligand.clash>
0.0000

> <Gold.PLP.ligand.torsion>
1.5173

> <Gold.PLP.Chemscore.Hbond>
1.0000

> <Gold.PLP.Chemscore.CHOScore>
1.9471

> <Gold.PLP.Chemscore.Metal>
0.0000

> <Gold.Chemscore.Hbonds>
donor molecule, donor type, donor heavy atom, donor atom, acceptor molecule, acceptor atom, score
      L1  H    22    48       P1 10957  0.75
      L1  C    18    44       P1 10171  0.20
      L1  C    18    44       P1 10175  1.00

> <Gold.PLP.Chemscore.Internal.Correction>
0.4916

> <Gold.Rescore>
     Score         DG    S(hbond)    S(metal)    S(lipo)     H(rot)  DE(clash)    DE(int)     intcor
      9.04     -12.83       0.99        0.00     102.50       3.10       0.08       3.71       ----

> <Gold.Chemscore.Fitness>
9.0360

> <Gold.Chemscore.DG>
-12.8339

> <Gold.Chemscore.ZeroCoef>
-5.4800

> <Gold.Chemscore.Hbond>
0.9891

> <Gold.Chemscore.Metal>
0.0000

> <Gold.Chemscore.Lipo>
102.5021

> <Gold.Chemscore.Internal_Hbond>
0.0000

> <Gold.Chemscore.DEClash>
0.0840

> <Gold.Chemscore.DEInternal>
3.7138

> <Gold.Chemscore.Rot>
3.1026

> <Gold.Chemscore.Internal.Correction>
   9.000000E+99

> <Gold.Chemscore.Hbonds>
donor molecule, donor type, donor heavy atom, donor atom, acceptor molecule, acceptor atom, score
      L1  H    22    48       P1 10957  0.49

> <Gold.Chemscore.Hbond.Weighted>
-3.3037

> <Gold.Chemscore.Metal.Weighted>
-0.0000

> <Gold.Chemscore.Lipo.Weighted>
-11.9927

> <Gold.Chemscore.Internal_Hbond.Weighted>
0.0000

> <Gold.Chemscore.DEClash.Weighted>
0.0840

> <Gold.Chemscore.DEInternal.Weighted>
3.7138

> <Gold.Chemscore.Rot.Weighted>
7.9426

> <Gold.Chemscore.Internal.Correction.Weighted>
   9.000000E+99

> <Gold.Protein.RotatedTorsions>
[ 6907 6896 6895 6894 ] final  -96.58 input  -60.11 | X-H torsion
[ 7974 7965 7964 7962 ] final  -33.30 input  175.53 | X-H torsion
[ 8008 7997 7996 7995 ] final  -33.49 input   59.86 | X-H torsion
[ 10167 10162 10161 10158 ] final   61.12 input  -65.29 | X-H torsion
[ 10718 10713 10712 10709 ] final  162.44 input   66.30 | X-H torsion
[ 10763 10752 10751 10750 ] final  -15.46 input  -60.55 | X-H torsion
[ 11005 11000 10999 10996 ] final -109.01 input  -57.11 | X-H torsion

> <Gold.Protein.ActiveResidues>
 VAL166  LYS551  ARG553  GLY616  TRP617  ASP618  TYR619  PRO620  LYS621  CYS622 
 ASP623  PHE694  ASN695  SER759  ASP760  ASP761  ALA762  ILE779  LEU786  VAL792 
 PHE793  MET794  SER795  GLU796  ALA797  LYS798  CYS799  TRP800  GLU811  SER814 

> <Gold.Protein.RotatedAtoms>
  150.6992  134.1482  159.4130 H   0  0  0  0  0  0  0  0  0  0  0  0  # atno 6907 bound_to 6896
  151.9465  135.0187  160.0548 H   0  0  0  0  0  0  0  0  0  0  0  0  # atno 6908 bound_to 6896
  152.2048  133.4832  159.5115 H   0  0  0  0  0  0  0  0  0  0  0  0  # atno 6909 bound_to 6896
  146.0922  140.5899  142.8859 H   0  0  0  0  0  0  0  0  0  0  0  0  # atno 7974 bound_to 7965
  154.4147  140.1709  156.1897 H   0  0  0  0  0  0  0  0  0  0  0  0  # atno 8008 bound_to 7997
  155.9614  140.3393  155.6470 H   0  0  0  0  0  0  0  0  0  0  0  0  # atno 8009 bound_to 7997
  155.6744  140.0715  157.2499 H   0  0  0  0  0  0  0  0  0  0  0  0  # atno 8010 bound_to 7997
  140.1582  144.4396  150.6723 H   0  0  0  0  0  0  0  0  0  0  0  0  # atno 10167 bound_to 10162
  157.1225  131.0496  151.2408 H   0  0  0  0  0  0  0  0  0  0  0  0  # atno 10718 bound_to 10713
  153.5437  135.7013  153.5624 H   0  0  0  0  0  0  0  0  0  0  0  0  # atno 10763 bound_to 10752
  153.3578  135.3978  155.1695 H   0  0  0  0  0  0  0  0  0  0  0  0  # atno 10764 bound_to 10752
  154.8670  135.3781  154.4944 H   0  0  0  0  0  0  0  0  0  0  0  0  # atno 10765 bound_to 10752
  141.0871  133.9120  157.2161 H   0  0  0  0  0  0  0  0  0  0  0  0  # atno 11005 bound_to 11000
  144.7368  140.4831  143.6898 LP  0  0  0  0  0  0  0  0  0  0  0  0  # atno 17320 bound_to 7965
  145.6018  139.1504  143.3125 LP  0  0  0  0  0  0  0  0  0  0  0  0  # atno 17321 bound_to 7965
  140.6659  143.2268  151.5743 LP  0  0  0  0  0  0  0  0  0  0  0  0  # atno 17342 bound_to 10162
  139.5393  144.2692  152.1318 LP  0  0  0  0  0  0  0  0  0  0  0  0  # atno 17343 bound_to 10162
  157.4464  130.7573  149.7113 LP  0  0  0  0  0  0  0  0  0  0  0  0  # atno 17370 bound_to 10713
  155.9825  130.4009  150.3411 LP  0  0  0  0  0  0  0  0  0  0  0  0  # atno 17371 bound_to 10713
  139.9691  135.0133  156.9464 LP  0  0  0  0  0  0  0  0  0  0  0  0  # atno 17394 bound_to 11000
  140.5338  134.0787  155.7323 LP  0  0  0  0  0  0  0  0  0  0  0  0  # atno 17395 bound_to 11000

$$$$
