AV-unprocessed.smi:184|AV-procd|sdf|1464|dock6
  -GOLD-   2262019273D 1   1.00000     0.00000
 Structure written by MMmdl.
 54 58  0  0  0  0  0  0  0  0  1 V2000
  146.6581  129.4323  152.9815 O   0  0  0  0  0  0  0  0  0  0  0  0
  146.6797  130.5952  152.5855 C   0  0  0  0  0  0  0  0  0  0  0  0
  146.9746  131.7294  153.5839 C   0  0  0  0  0  0  0  0  0  0  0  0
  147.0602  133.0655  152.9708 N   0  0  0  0  0  0  0  0  0  0  0  0
  147.3834  134.1173  153.7675 C   0  0  0  0  0  0  0  0  0  0  0  0
  146.5847  135.2174  153.7791 N   0  0  0  0  0  0  0  0  0  0  0  0
  146.8920  136.2691  154.5434 C   0  0  0  0  0  0  0  0  0  0  0  0
  147.9304  136.4274  155.3655 N   0  0  0  0  0  0  0  0  0  0  0  0
  148.7267  135.3207  155.3751 C   0  0  0  0  0  0  0  0  0  0  0  0
  148.5298  134.1337  154.6132 C   0  0  0  0  0  0  0  0  0  0  0  0
  149.5404  133.2214  154.8955 N   0  0  0  0  0  0  0  0  0  0  0  0
  150.2991  133.8394  155.7581 C   0  0  0  0  0  0  0  0  0  0  0  0
  149.8782  135.1013  156.1109 N   0  0  0  0  0  0  0  0  0  0  0  0
  150.5264  136.0027  157.0512 C   0  0  0  0  0  0  0  0  0  0  0  0
  151.3437  137.1355  156.3811 C   0  0  0  0  0  0  0  0  0  0  0  0
  152.7178  136.8523  156.5788 O   0  0  0  0  0  0  0  0  0  0  0  0
  151.0832  137.2430  154.8623 C   0  0  0  0  0  0  0  0  0  0  0  0
  151.7287  138.4989  154.2501 C   0  0  0  0  0  0  0  0  0  0  0  0
  151.2883  139.6621  154.9396 O   0  0  0  0  0  0  0  0  0  0  0  0
  151.6779  139.6700  156.3073 C   0  0  0  0  0  0  0  0  0  0  0  0
  151.0241  138.4893  157.0465 C   0  0  0  0  0  0  0  0  0  0  0  0
  146.2242  133.3390  151.8003 C   0  0  2  0  0  0  0  0  0  0  0  0
  144.7267  133.4269  152.1828 C   0  0  0  0  0  0  0  0  0  0  0  0
  143.8335  133.5953  150.9455 C   0  0  0  0  0  0  0  0  0  0  0  0
  144.0698  132.4597  149.9393 C   0  0  0  0  0  0  0  0  0  0  0  0
  145.5482  132.3943  149.5239 C   0  0  0  0  0  0  0  0  0  0  0  0
  146.4917  132.2514  150.7343 C   0  0  2  0  0  0  0  0  0  0  0  0
  146.4335  130.9040  151.3007 N   0  0  0  0  0  0  0  0  0  0  0  0
  146.1864  131.7148  154.3380 H   0  0  0  0  0  0  0  0  0  0  0  0
  147.9131  131.5056  154.0929 H   0  0  0  0  0  0  0  0  0  0  0  0
  146.2080  137.1030  154.4879 H   0  0  0  0  0  0  0  0  0  0  0  0
  151.1872  133.3844  156.1721 H   0  0  0  0  0  0  0  0  0  0  0  0
  149.7512  136.4311  157.6877 H   0  0  0  0  0  0  0  0  0  0  0  0
  151.1647  135.4118  157.7099 H   0  0  0  0  0  0  0  0  0  0  0  0
  153.1071  137.5676  157.0580 H   0  0  0  0  0  0  0  0  0  0  0  0
  151.4475  136.3571  154.3410 H   0  0  0  0  0  0  0  0  0  0  0  0
  150.0079  137.2839  154.6843 H   0  0  0  0  0  0  0  0  0  0  0  0
  152.8174  138.4354  154.2797 H   0  0  0  0  0  0  0  0  0  0  0  0
  151.4477  138.5872  153.2006 H   0  0  0  0  0  0  0  0  0  0  0  0
  152.7651  139.6335  156.3889 H   0  0  0  0  0  0  0  0  0  0  0  0
  151.3604  140.6113  156.7559 H   0  0  0  0  0  0  0  0  0  0  0  0
  149.9441  138.6432  157.0498 H   0  0  0  0  0  0  0  0  0  0  0  0
  151.3338  138.4850  158.0926 H   0  0  0  0  0  0  0  0  0  0  0  0
  146.4942  134.2934  151.3513 H   0  0  0  0  0  0  0  0  0  0  0  0
  144.4152  132.5308  152.7204 H   0  0  0  0  0  0  0  0  0  0  0  0
  144.5662  134.2616  152.8659 H   0  0  0  0  0  0  0  0  0  0  0  0
  142.7853  133.6151  151.2450 H   0  0  0  0  0  0  0  0  0  0  0  0
  144.0390  134.5558  150.4716 H   0  0  0  0  0  0  0  0  0  0  0  0
  143.7645  131.5087  150.3773 H   0  0  0  0  0  0  0  0  0  0  0  0
  143.4445  132.6093  149.0588 H   0  0  0  0  0  0  0  0  0  0  0  0
  145.7046  131.5731  148.8234 H   0  0  0  0  0  0  0  0  0  0  0  0
  145.8032  133.3059  148.9818 H   0  0  0  0  0  0  0  0  0  0  0  0
  147.5145  132.3740  150.3747 H   0  0  0  0  0  0  0  0  0  0  0  0
  146.2245  130.1483  150.6646 H   0  0  0  0  0  0  0  0  0  0  0  0
  1  2  2  0  0  0  0
  2 28  1  0  0  0  0
  2  3  1  0  0  0  0
  3  4  1  0  0  0  0
  3 29  1  0  0  0  0
  3 30  1  0  0  0  0
  4  5  1  0  0  0  0
  4 22  1  0  0  0  0
  5 10  1  0  0  0  0
  5  6  2  0  0  0  0
  6  7  1  0  0  0  0
  7  8  2  0  0  0  0
  7 31  1  0  0  0  0
  8  9  1  0  0  0  0
  9 13  1  0  0  0  0
  9 10  2  0  0  0  0
 10 11  1  0  0  0  0
 11 12  2  0  0  0  0
 12 13  1  0  0  0  0
 12 32  1  0  0  0  0
 13 14  1  0  0  0  0
 14 15  1  0  0  0  0
 14 33  1  0  0  0  0
 14 34  1  0  0  0  0
 15 21  1  0  0  0  0
 15 16  1  0  0  0  0
 15 17  1  0  0  0  0
 16 35  1  0  0  0  0
 17 18  1  0  0  0  0
 17 36  1  0  0  0  0
 17 37  1  0  0  0  0
 18 19  1  0  0  0  0
 18 38  1  0  0  0  0
 18 39  1  0  0  0  0
 19 20  1  0  0  0  0
 20 21  1  0  0  0  0
 20 40  1  0  0  0  0
 20 41  1  0  0  0  0
 21 42  1  0  0  0  0
 21 43  1  0  0  0  0
 22 27  1  0  0  0  0
 22 23  1  0  0  0  0
 22 44  1  0  0  0  0
 23 24  1  0  0  0  0
 23 45  1  0  0  0  0
 23 46  1  0  0  0  0
 24 25  1  0  0  0  0
 24 47  1  0  0  0  0
 24 48  1  0  0  0  0
 25 26  1  0  0  0  0
 25 49  1  0  0  0  0
 25 50  1  0  0  0  0
 26 27  1  0  0  0  0
 26 51  1  0  0  0  0
 26 52  1  0  0  0  0
 27 28  1  0  0  0  0
 27 53  1  0  0  0  0
 28 54  1  0  0  0  0
M  END
> <s_m_source_file>
AV-unprocessed.smi

> <i_m_source_file_index>
184

> <i_lp_mmshare_version>
43012

> <i_f3d_flags>
0

> <s_epik_input>
W0NIMl0xW0NIMl1bQ0gyXVtDSDJdW0NASF0oW0NASF0xMilbTkhdQyg9TylbQ0gyXU4yYyhuW2NIXW4zKWMoYzM0KW5bY0hdbjRbQ0gyXUM1KFtPSF0pW0NIMl1bQ0gyXU9bQ0gyXVtDSDJdNQ==

> <s_epik_cmdline>
J2VwaWtfcHl0aG9uJywgJy1waCcsICc3LjAnLCAnLXRuJywgJzgnLCAnLW1hJywgJzIwMCcsICctbWV0YWxfYmluZGluZycsICctaW1hZScsICc8aW5maWxlLm1hZT4nLCAnLW9tYWUnLCAnPG91dGZpbGUubWFlPic=

> <r_lp_tautomer_probability>
1

> <r_epik_Ionization_Penalty>
0.000822761

> <r_epik_Ionization_Penalty_Charging>
0

> <r_epik_Ionization_Penalty_Neutral>
0.000822761

> <r_epik_State_Penalty>
0.000403048

> <r_epik_Charging_Adjusted_Penalty>
0.000403048

> <i_epik_Tot_Q>
0

> <i_epik_Tot_abs_Q>
0

> <r_epik_Metal_State_Penalty>
-0

> <b_epik_Metal_Only>
0

> <s_lp_Force_Field>
OPLS_2005

> <r_lp_Energy>
36.9453

> <b_lp_Chiralities_Consistent>
1

> <s_lp_Variant>
AV-unprocessed.smi:184-4

> <Gold.Version>
5.8.1

> <Gold.Id.Protein>
6NUR|6NUR_protein|mol2

> <Gold.PLP.Fitness>
41.6916

> <Gold.PLP.PLP>
-39.5171

> <Gold.PLP.part.hbond>
-3.0000

> <Gold.PLP.part.metal>
0.0000

> <Gold.PLP.part.buried>
-4.6897

> <Gold.PLP.part.nonpolar>
-31.9200

> <Gold.PLP.part.repulsive>
0.4421

> <Gold.PLP.ligand.clash>
0.0000

> <Gold.PLP.ligand.torsion>
1.8503

> <Gold.PLP.Chemscore.Hbond>
1.8960

> <Gold.PLP.Chemscore.CHOScore>
0.0000

> <Gold.PLP.Chemscore.Metal>
0.0000

> <Gold.Chemscore.Hbonds>
donor molecule, donor type, donor heavy atom, donor atom, acceptor molecule, acceptor atom, score
      P1  H  7989  7998       L1    19  0.75
      P1  H 10752 10764       L1    16  0.92

> <Gold.PLP.Chemscore.Internal.Correction>
0.1871

> <Gold.Rescore>
     Score         DG    S(hbond)    S(metal)    S(lipo)     H(rot)  DE(clash)    DE(int)     intcor
     10.80     -14.07       0.91        0.00      87.39       1.83       0.00       3.27       ----

> <Gold.Chemscore.Fitness>
10.8018

> <Gold.Chemscore.DG>
-14.0742

> <Gold.Chemscore.ZeroCoef>
-5.4800

> <Gold.Chemscore.Hbond>
0.9110

> <Gold.Chemscore.Metal>
0.0000

> <Gold.Chemscore.Lipo>
87.3910

> <Gold.Chemscore.Internal_Hbond>
0.0000

> <Gold.Chemscore.DEClash>
0.0000

> <Gold.Chemscore.DEInternal>
3.2724

> <Gold.Chemscore.Rot>
1.8255

> <Gold.Chemscore.Internal.Correction>
   9.000000E+99

> <Gold.Chemscore.Hbonds>
donor molecule, donor type, donor heavy atom, donor atom, acceptor molecule, acceptor atom, score
      P1  H  7989  7998       L1    19  0.09
      P1  H 10752 10764       L1    16  0.59

> <Gold.Chemscore.Hbond.Weighted>
-3.0427

> <Gold.Chemscore.Metal.Weighted>
-0.0000

> <Gold.Chemscore.Lipo.Weighted>
-10.2247

> <Gold.Chemscore.Internal_Hbond.Weighted>
0.0000

> <Gold.Chemscore.DEClash.Weighted>
0.0000

> <Gold.Chemscore.DEInternal.Weighted>
3.2724

> <Gold.Chemscore.Rot.Weighted>
4.6732

> <Gold.Chemscore.Internal.Correction.Weighted>
   9.000000E+99

> <Gold.Protein.RotatedTorsions>
[ 6907 6896 6895 6894 ] final   71.88 input  -60.11 | X-H torsion
[ 7974 7965 7964 7962 ] final -161.94 input  175.53 | X-H torsion
[ 8008 7997 7996 7995 ] final  -11.93 input   59.86 | X-H torsion
[ 10167 10162 10161 10158 ] final  173.90 input  -65.29 | X-H torsion
[ 10718 10713 10712 10709 ] final    4.91 input   66.30 | X-H torsion
[ 10763 10752 10751 10750 ] final  -17.26 input  -60.55 | X-H torsion
[ 11005 11000 10999 10996 ] final  161.40 input  -57.11 | X-H torsion

> <Gold.Protein.ActiveResidues>
 VAL166  LYS551  ARG553  GLY616  TRP617  ASP618  TYR619  PRO620  LYS621  CYS622 
 ASP623  PHE694  ASN695  SER759  ASP760  ASP761  ALA762  ILE779  LEU786  VAL792 
 PHE793  MET794  SER795  GLU796  ALA797  LYS798  CYS799  TRP800  GLU811  SER814 

> <Gold.Protein.RotatedAtoms>
  152.4836  134.4654  159.9618 H   0  0  0  0  0  0  0  0  0  0  0  0  # atno 6907 bound_to 6896
  151.4655  133.3576  159.2823 H   0  0  0  0  0  0  0  0  0  0  0  0  # atno 6908 bound_to 6896
  150.8928  134.8358  159.7366 H   0  0  0  0  0  0  0  0  0  0  0  0  # atno 6909 bound_to 6896
  144.7374  140.3324  143.6150 H   0  0  0  0  0  0  0  0  0  0  0  0  # atno 7974 bound_to 7965
  154.5421  140.2289  155.8623 H   0  0  0  0  0  0  0  0  0  0  0  0  # atno 8008 bound_to 7997
  156.1868  140.3087  155.9217 H   0  0  0  0  0  0  0  0  0  0  0  0  # atno 8009 bound_to 7997
  155.3236  140.0442  157.3031 H   0  0  0  0  0  0  0  0  0  0  0  0  # atno 8010 bound_to 7997
  139.5124  144.3208  152.0204 H   0  0  0  0  0  0  0  0  0  0  0  0  # atno 10167 bound_to 10162
  156.8996  130.5717  149.5648 H   0  0  0  0  0  0  0  0  0  0  0  0  # atno 10718 bound_to 10713
  153.5711  135.7007  153.5504 H   0  0  0  0  0  0  0  0  0  0  0  0  # atno 10763 bound_to 10752
  153.3343  135.4038  155.1521 H   0  0  0  0  0  0  0  0  0  0  0  0  # atno 10764 bound_to 10752
  154.8633  135.3726  154.5234 H   0  0  0  0  0  0  0  0  0  0  0  0  # atno 10765 bound_to 10752
  140.2154  134.8236  157.3165 H   0  0  0  0  0  0  0  0  0  0  0  0  # atno 11005 bound_to 11000
  145.7458  139.1778  143.2350 LP  0  0  0  0  0  0  0  0  0  0  0  0  # atno 17320 bound_to 7965
  146.1099  140.7441  142.9508 LP  0  0  0  0  0  0  0  0  0  0  0  0  # atno 17321 bound_to 7965
  140.2650  144.4026  150.6172 LP  0  0  0  0  0  0  0  0  0  0  0  0  # atno 17342 bound_to 10162
  140.6130  143.2170  151.6848 LP  0  0  0  0  0  0  0  0  0  0  0  0  # atno 17343 bound_to 10162
  156.0588  130.5645  150.9149 LP  0  0  0  0  0  0  0  0  0  0  0  0  # atno 17370 bound_to 10713
  157.6034  131.0940  150.8921 LP  0  0  0  0  0  0  0  0  0  0  0  0  # atno 17371 bound_to 10713
  140.1906  134.4376  155.7718 LP  0  0  0  0  0  0  0  0  0  0  0  0  # atno 17394 bound_to 11000
  141.2225  133.7025  156.8021 LP  0  0  0  0  0  0  0  0  0  0  0  0  # atno 17395 bound_to 11000

$$$$
