AV-unprocessed.smi:1709|AV-procd|sdf|6895|dock4
  -GOLD-   22720 8103D 1   1.00000     0.00000
 Structure written by MMmdl.
 43 45  0  0  0  0  0  0  0  0  2 V2000
  150.8422  137.5993  154.2405 C   0  0  0  0  0  0  0  0  0  0  0  0
  150.3017  138.9392  154.7141 C   0  0  0  0  0  0  0  0  0  0  0  0
  151.0961  139.7392  155.5628 C   0  0  0  0  0  0  0  0  0  0  0  0
  150.5976  140.9766  156.0036 C   0  0  0  0  0  0  0  0  0  0  0  0
  149.3167  141.3628  155.5758 C   0  0  0  0  0  0  0  0  0  0  0  0
  148.5508  140.6039  154.7655 N   0  0  0  0  0  0  0  0  0  0  0  0
  149.0178  139.4073  154.3238 C   0  0  0  0  0  0  0  0  0  0  0  0
  148.2677  138.5350  153.4752 N   0  0  0  0  0  0  0  0  0  0  0  0
  146.9446  138.4529  153.2203 C   0  0  0  0  0  0  0  0  0  0  0  0
  146.1448  139.2161  153.7587 O   0  0  0  0  0  0  0  0  0  0  0  0
  146.5659  137.4989  152.3538 N   0  0  0  0  0  0  0  0  0  0  0  0
  145.1996  137.2431  151.9042 C   0  0  2  0  0  0  0  0  0  0  0  0
  144.1828  137.2435  153.0623 C   0  0  0  0  0  0  0  0  0  0  0  0
  143.2585  136.0569  152.7715 C   0  0  0  0  0  0  0  0  0  0  0  0
  144.1523  135.0967  152.1141 N   0  3  1  0  0  0  0  0  0  0  0  0
  143.5571  133.9143  151.4590 C   0  0  0  0  0  0  0  0  0  0  0  0
  144.6994  132.9787  151.0082 C   0  0  0  0  0  0  0  0  0  0  0  0
  145.7567  133.7156  150.1554 C   0  0  0  0  0  0  0  0  0  0  0  0
  146.2443  135.0104  150.8403 C   0  0  0  0  0  0  0  0  0  0  0  0
  145.0229  135.8707  151.2128 C   0  0  2  0  0  0  0  0  0  0  0  0
  151.8545  137.4271  154.6073 H   0  0  0  0  0  0  0  0  0  0  0  0
  150.8709  137.5610  153.1512 H   0  0  0  0  0  0  0  0  0  0  0  0
  150.2120  136.7854  154.6001 H   0  0  0  0  0  0  0  0  0  0  0  0
  152.0769  139.4109  155.8748 H   0  0  0  0  0  0  0  0  0  0  0  0
  151.1816  141.6119  156.6531 H   0  0  0  0  0  0  0  0  0  0  0  0
  148.8942  142.3050  155.8917 H   0  0  0  0  0  0  0  0  0  0  0  0
  148.8220  137.8208  153.0254 H   0  0  0  0  0  0  0  0  0  0  0  0
  147.2923  136.9161  151.9613 H   0  0  0  0  0  0  0  0  0  0  0  0
  144.9053  138.0231  151.1992 H   0  0  0  0  0  0  0  0  0  0  0  0
  144.6916  137.0761  154.0131 H   0  0  0  0  0  0  0  0  0  0  0  0
  143.6380  138.1846  153.1432 H   0  0  0  0  0  0  0  0  0  0  0  0
  142.8069  135.6431  153.6737 H   0  0  0  0  0  0  0  0  0  0  0  0
  142.4614  136.3488  152.0858 H   0  0  0  0  0  0  0  0  0  0  0  0
  142.9006  133.3963  152.1588 H   0  0  0  0  0  0  0  0  0  0  0  0
  142.9470  134.2227  150.6087 H   0  0  0  0  0  0  0  0  0  0  0  0
  145.1855  132.5595  151.8902 H   0  0  0  0  0  0  0  0  0  0  0  0
  144.2936  132.1331  150.4521 H   0  0  0  0  0  0  0  0  0  0  0  0
  146.6019  133.0566  149.9557 H   0  0  0  0  0  0  0  0  0  0  0  0
  145.3250  133.9631  149.1849 H   0  0  0  0  0  0  0  0  0  0  0  0
  146.8246  134.7661  151.7312 H   0  0  0  0  0  0  0  0  0  0  0  0
  146.9071  135.5555  150.1679 H   0  0  0  0  0  0  0  0  0  0  0  0
  144.4582  136.0615  150.2974 H   0  0  0  0  0  0  0  0  0  0  0  0
  144.7531  134.7458  152.8462 H   0  0  0  0  0  0  0  0  0  0  0  0
  1  2  1  0  0  0  0
  1 21  1  0  0  0  0
  1 22  1  0  0  0  0
  1 23  1  0  0  0  0
  2  7  1  0  0  0  0
  2  3  2  0  0  0  0
  3  4  1  0  0  0  0
  3 24  1  0  0  0  0
  4  5  2  0  0  0  0
  4 25  1  0  0  0  0
  5  6  1  0  0  0  0
  5 26  1  0  0  0  0
  6  7  2  0  0  0  0
  7  8  1  0  0  0  0
  8  9  1  0  0  0  0
  8 27  1  0  0  0  0
  9 10  2  0  0  0  0
  9 11  1  0  0  0  0
 11 12  1  0  0  0  0
 11 28  1  0  0  0  0
 12 20  1  0  0  0  0
 12 13  1  0  0  0  0
 12 29  1  0  0  0  0
 13 14  1  0  0  0  0
 13 30  1  0  0  0  0
 13 31  1  0  0  0  0
 14 15  1  0  0  0  0
 14 32  1  0  0  0  0
 14 33  1  0  0  0  0
 15 20  1  0  0  0  0
 15 16  1  0  0  0  0
 15 43  1  0  0  0  0
 16 17  1  0  0  0  0
 16 34  1  0  0  0  0
 16 35  1  0  0  0  0
 17 18  1  0  0  0  0
 17 36  1  0  0  0  0
 17 37  1  0  0  0  0
 18 19  1  0  0  0  0
 18 38  1  0  0  0  0
 18 39  1  0  0  0  0
 19 20  1  0  0  0  0
 19 40  1  0  0  0  0
 19 41  1  0  0  0  0
 20 42  1  0  0  0  0
M  CHG  1  15   1
M  END
> <s_m_source_file>
AV-unprocessed.smi

> <i_m_source_file_index>
1709

> <i_lp_mmshare_version>
43012

> <i_f3d_flags>
0

> <s_epik_input>
W0NIM11jMVtjSF1bY0hdW2NIXW5jMVtOSF1DKD1PKVtOSF1bQ0BIXShbQ0gyXVtDSDJdMilbQ0BASF0oTjIzKVtDSDJdW0NIMl1bQ0gyXVtDSDJdMw==

> <s_epik_cmdline>
J2VwaWtfcHl0aG9uJywgJy1waCcsICc3LjAnLCAnLXRuJywgJzgnLCAnLW1hJywgJzIwMCcsICctbWV0YWxfYmluZGluZycsICctaW1hZScsICc8aW5maWxlLm1hZT4nLCAnLW9tYWUnLCAnPG91dGZpbGUubWFlPic=

> <r_epik_Ionization_Penalty>
0.00101524

> <r_epik_Ionization_Penalty_Charging>
0.000974069

> <r_epik_Ionization_Penalty_Neutral>
4.11757e-05

> <r_epik_State_Penalty>
0.000633842

> <r_epik_Charging_Adjusted_Penalty>
0.00160791

> <i_epik_Tot_Q>
1

> <i_epik_Tot_abs_Q>
1

> <r_epik_Metal_State_Penalty>
-0

> <b_epik_Metal_Only>
0

> <s_lp_Force_Field>
OPLS_2005

> <r_lp_Energy>
46.0593

> <b_lp_Chiralities_Consistent>
1

> <s_lp_Variant>
AV-unprocessed.smi:1709-5

> <Gold.Version>
5.8.1

> <Gold.Id.Protein>
6NUR|6NUR_protein|mol2

> <Gold.PLP.Fitness>
42.9598

> <Gold.PLP.PLP>
-34.7122

> <Gold.PLP.part.hbond>
-2.9557

> <Gold.PLP.part.metal>
0.0000

> <Gold.PLP.part.buried>
-0.5908

> <Gold.PLP.part.nonpolar>
-32.9675

> <Gold.PLP.part.repulsive>
1.6536

> <Gold.PLP.ligand.clash>
0.0000

> <Gold.PLP.ligand.torsion>
0.2804

> <Gold.PLP.Chemscore.Hbond>
1.9360

> <Gold.PLP.Chemscore.CHOScore>
1.0000

> <Gold.PLP.Chemscore.Metal>
0.0000

> <Gold.Chemscore.Hbonds>
donor molecule, donor type, donor heavy atom, donor atom, acceptor molecule, acceptor atom, score
      L1  H     8    27       P1  7948  1.00
      L1  H    11    28       P1  7948  1.00
      L1  C     5    26       P1  8028  1.00

> <Gold.PLP.Chemscore.Internal.Correction>
0.0006

> <Gold.Rescore>
     Score         DG    S(hbond)    S(metal)    S(lipo)     H(rot)  DE(clash)    DE(int)     intcor
     14.95     -18.51       1.92        0.00      78.51       1.00       0.61       2.95       ----

> <Gold.Chemscore.Fitness>
14.9483

> <Gold.Chemscore.DG>
-18.5080

> <Gold.Chemscore.ZeroCoef>
-5.4800

> <Gold.Chemscore.Hbond>
1.9169

> <Gold.Chemscore.Metal>
0.0000

> <Gold.Chemscore.Lipo>
78.5096

> <Gold.Chemscore.Internal_Hbond>
0.0000

> <Gold.Chemscore.DEClash>
0.6125

> <Gold.Chemscore.DEInternal>
2.9472

> <Gold.Chemscore.Rot>
1.0000

> <Gold.Chemscore.Internal.Correction>
   9.000000E+99

> <Gold.Chemscore.Hbonds>
donor molecule, donor type, donor heavy atom, donor atom, acceptor molecule, acceptor atom, score
      L1  H     8    27       P1  7948  0.94
      L1  H    11    28       P1  7948  0.99

> <Gold.Chemscore.Hbond.Weighted>
-6.4024

> <Gold.Chemscore.Metal.Weighted>
-0.0000

> <Gold.Chemscore.Lipo.Weighted>
-9.1856

> <Gold.Chemscore.Internal_Hbond.Weighted>
0.0000

> <Gold.Chemscore.DEClash.Weighted>
0.6125

> <Gold.Chemscore.DEInternal.Weighted>
2.9472

> <Gold.Chemscore.Rot.Weighted>
2.5600

> <Gold.Chemscore.Internal.Correction.Weighted>
   9.000000E+99

> <Gold.Protein.RotatedTorsions>
[ 6907 6896 6895 6894 ] final   -7.12 input  -60.11 | X-H torsion
[ 7974 7965 7964 7962 ] final  103.83 input  175.53 | X-H torsion
[ 8008 7997 7996 7995 ] final  -79.40 input   59.86 | X-H torsion
[ 10167 10162 10161 10158 ] final  -50.91 input  -65.29 | X-H torsion
[ 10718 10713 10712 10709 ] final  -45.01 input   66.30 | X-H torsion
[ 10763 10752 10751 10750 ] final -164.16 input  -60.55 | X-H torsion
[ 11005 11000 10999 10996 ] final  -29.51 input  -57.11 | X-H torsion

> <Gold.Protein.ActiveResidues>
 VAL166  LYS551  ARG553  GLY616  TRP617  ASP618  TYR619  PRO620  LYS621  CYS622 
 ASP623  PHE694  ASN695  SER759  ASP760  ASP761  ALA762  ILE779  LEU786  VAL792 
 PHE793  MET794  SER795  GLU796  ALA797  LYS798  CYS799  TRP800  GLU811  SER814 

> <Gold.Protein.RotatedAtoms>
  151.4547  135.1033  159.9707 H   0  0  0  0  0  0  0  0  0  0  0  0  # atno 6907 bound_to 6896
  152.4875  133.8408  159.7162 H   0  0  0  0  0  0  0  0  0  0  0  0  # atno 6908 bound_to 6896
  150.8998  133.7074  159.2909 H   0  0  0  0  0  0  0  0  0  0  0  0  # atno 6909 bound_to 6896
  145.3407  139.2463  143.3611 H   0  0  0  0  0  0  0  0  0  0  0  0  # atno 7974 bound_to 7965
  154.5782  140.0679  156.9065 H   0  0  0  0  0  0  0  0  0  0  0  0  # atno 8008 bound_to 7997
  155.2511  140.3351  155.4264 H   0  0  0  0  0  0  0  0  0  0  0  0  # atno 8009 bound_to 7997
  156.2169  140.1782  156.7552 H   0  0  0  0  0  0  0  0  0  0  0  0  # atno 8010 bound_to 7997
  140.6614  143.2639  151.4428 H   0  0  0  0  0  0  0  0  0  0  0  0  # atno 10167 bound_to 10162
  156.2327  130.4174  149.8855 H   0  0  0  0  0  0  0  0  0  0  0  0  # atno 10718 bound_to 10713
  154.7055  135.2996  154.9277 H   0  0  0  0  0  0  0  0  0  0  0  0  # atno 10763 bound_to 10752
  154.0196  135.6684  153.4775 H   0  0  0  0  0  0  0  0  0  0  0  0  # atno 10764 bound_to 10752
  153.0713  135.5059  154.8223 H   0  0  0  0  0  0  0  0  0  0  0  0  # atno 10765 bound_to 10752
  140.9302  133.7343  156.0926 H   0  0  0  0  0  0  0  0  0  0  0  0  # atno 11005 bound_to 11000
  146.3008  140.4004  142.8704 LP  0  0  0  0  0  0  0  0  0  0  0  0  # atno 17320 bound_to 7965
  144.8792  140.7378  143.5997 LP  0  0  0  0  0  0  0  0  0  0  0  0  # atno 17321 bound_to 7965
  139.5849  144.1626  152.2016 LP  0  0  0  0  0  0  0  0  0  0  0  0  # atno 17342 bound_to 10162
  140.0963  144.5578  150.7020 LP  0  0  0  0  0  0  0  0  0  0  0  0  # atno 17343 bound_to 10162
  156.6464  130.8725  151.3523 LP  0  0  0  0  0  0  0  0  0  0  0  0  # atno 17370 bound_to 10713
  157.7140  130.9475  150.1190 LP  0  0  0  0  0  0  0  0  0  0  0  0  # atno 17371 bound_to 10713
  140.7872  134.3659  157.5473 LP  0  0  0  0  0  0  0  0  0  0  0  0  # atno 17394 bound_to 11000
  139.8795  134.9118  156.3045 LP  0  0  0  0  0  0  0  0  0  0  0  0  # atno 17395 bound_to 11000

$$$$
