AV-unprocessed.smi:120|AV-procd|sdf|1137|dock3
  -GOLD-   2262018263D 1   1.00000     0.00000
 Structure written by MMmdl.
 45 48  0  0  0  0  0  0  0  0  1 V2000
  154.2835  140.2949  160.5264 C   0  0  0  0  0  0  0  0  0  0  0  0
  153.9862  141.6547  160.8090 O   0  0  0  0  0  0  0  0  0  0  0  0
  153.1031  142.3135  159.9802 C   0  0  0  0  0  0  0  0  0  0  0  0
  152.8257  143.6605  160.2825 C   0  0  0  0  0  0  0  0  0  0  0  0
  151.9406  144.4041  159.4826 C   0  0  0  0  0  0  0  0  0  0  0  0
  151.3230  143.8041  158.3704 C   0  0  0  0  0  0  0  0  0  0  0  0
  151.5760  142.4527  158.0406 C   0  0  0  0  0  0  0  0  0  0  0  0
  150.9266  141.8181  156.8729 C   0  0  0  0  0  0  0  0  0  0  0  0
  151.5574  140.9267  156.1188 N   0  0  0  0  0  0  0  0  0  0  0  0
  150.5884  140.5870  155.1624 O   0  0  0  0  0  0  0  0  0  0  0  0
  149.4894  141.3242  155.4631 C   0  0  0  0  0  0  0  0  0  0  0  0
  148.2691  141.1747  154.6046 C   0  0  0  0  0  0  0  0  0  0  0  0
  147.1005  141.7544  155.2483 N   0  0  0  0  0  0  0  0  0  0  0  0
  146.3886  142.7498  154.5353 C   0  0  0  0  0  0  0  0  0  0  0  0
  146.7515  143.1442  153.4258 O   0  0  0  0  0  0  0  0  0  0  0  0
  145.1958  143.2449  155.2137 C   0  0  0  0  0  0  0  0  0  0  0  0
  144.4414  144.1894  154.6267 F   0  0  0  0  0  0  0  0  0  0  0  0
  144.8296  142.7635  156.4212 C   0  0  0  0  0  0  0  0  0  0  0  0
  145.5446  141.7864  157.0938 N   0  0  0  0  0  0  0  0  0  0  0  0
  145.0846  141.2544  158.4333 C   0  0  2  0  0  0  0  0  0  0  0  0
  143.6602  141.7363  158.7327 C   0  0  0  0  0  0  0  0  0  0  0  0
  143.9194  142.9796  159.5549 C   0  0  0  0  0  0  0  0  0  0  0  0
  145.1696  142.5789  160.3291 C   0  0  0  0  0  0  0  0  0  0  0  0
  145.9189  141.7571  159.4374 O   0  0  0  0  0  0  0  0  0  0  0  0
  146.7073  141.2407  156.5073 C   0  0  0  0  0  0  0  0  0  0  0  0
  147.3345  140.3403  157.0702 O   0  0  0  0  0  0  0  0  0  0  0  0
  149.6468  142.1176  156.5224 N   0  0  0  0  0  0  0  0  0  0  0  0
  152.4699  141.7209  158.8587 C   0  0  0  0  0  0  0  0  0  0  0  0
  155.0035  139.9249  161.2562 H   0  0  0  0  0  0  0  0  0  0  0  0
  154.7296  140.1815  159.5373 H   0  0  0  0  0  0  0  0  0  0  0  0
  153.3930  139.6686  160.5954 H   0  0  0  0  0  0  0  0  0  0  0  0
  153.2974  144.1283  161.1342 H   0  0  0  0  0  0  0  0  0  0  0  0
  151.7345  145.4369  159.7225 H   0  0  0  0  0  0  0  0  0  0  0  0
  150.6443  144.3943  157.7723 H   0  0  0  0  0  0  0  0  0  0  0  0
  148.4188  141.6483  153.6339 H   0  0  0  0  0  0  0  0  0  0  0  0
  148.0562  140.1237  154.4011 H   0  0  0  0  0  0  0  0  0  0  0  0
  143.9310  143.1634  156.8670 H   0  0  0  0  0  0  0  0  0  0  0  0
  145.1852  140.1691  158.3810 H   0  0  0  0  0  0  0  0  0  0  0  0
  143.0793  141.9139  157.8267 H   0  0  0  0  0  0  0  0  0  0  0  0
  143.1554  140.9790  159.3339 H   0  0  0  0  0  0  0  0  0  0  0  0
  144.1327  143.8265  158.9015 H   0  0  0  0  0  0  0  0  0  0  0  0
  143.0842  143.2478  160.2024 H   0  0  0  0  0  0  0  0  0  0  0  0
  145.7497  143.4385  160.6655 H   0  0  0  0  0  0  0  0  0  0  0  0
  144.8990  141.9873  161.2047 H   0  0  0  0  0  0  0  0  0  0  0  0
  152.6676  140.6907  158.6054 H   0  0  0  0  0  0  0  0  0  0  0  0
  1  2  1  0  0  0  0
  1 29  1  0  0  0  0
  1 30  1  0  0  0  0
  1 31  1  0  0  0  0
  2  3  1  0  0  0  0
  3 28  1  0  0  0  0
  3  4  2  0  0  0  0
  4  5  1  0  0  0  0
  4 32  1  0  0  0  0
  5  6  2  0  0  0  0
  5 33  1  0  0  0  0
  6  7  1  0  0  0  0
  6 34  1  0  0  0  0
  7  8  1  0  0  0  0
  7 28  2  0  0  0  0
  8 27  1  0  0  0  0
  8  9  2  0  0  0  0
  9 10  1  0  0  0  0
 10 11  1  0  0  0  0
 11 12  1  0  0  0  0
 11 27  2  0  0  0  0
 12 13  1  0  0  0  0
 12 35  1  0  0  0  0
 12 36  1  0  0  0  0
 13 25  1  0  0  0  0
 13 14  1  0  0  0  0
 14 15  2  0  0  0  0
 14 16  1  0  0  0  0
 16 17  1  0  0  0  0
 16 18  2  0  0  0  0
 18 19  1  0  0  0  0
 18 37  1  0  0  0  0
 19 20  1  0  0  0  0
 19 25  1  0  0  0  0
 20 24  1  0  0  0  0
 20 21  1  0  0  0  0
 20 38  1  0  0  0  0
 21 22  1  0  0  0  0
 21 39  1  0  0  0  0
 21 40  1  0  0  0  0
 22 23  1  0  0  0  0
 22 41  1  0  0  0  0
 22 42  1  0  0  0  0
 23 24  1  0  0  0  0
 23 43  1  0  0  0  0
 23 44  1  0  0  0  0
 25 26  2  0  0  0  0
 28 45  1  0  0  0  0
M  END
> <s_m_source_file>
AV-unprocessed.smi

> <i_m_source_file_index>
120

> <i_lp_mmshare_version>
43012

> <i_f3d_flags>
0

> <s_epik_input>
W0NIM11PYzFbY0hdW2NIXVtjSF1jKFtjSF0xKS1jMm5vYyhuMilbQ0gyXW4zYyg9TyljKEYpW2NIXW4oYzM9TylbQ0BASF00W0NIMl1bQ0gyXVtDSDJdTzQ=

> <s_epik_cmdline>
J2VwaWtfcHl0aG9uJywgJy1waCcsICc3LjAnLCAnLXRuJywgJzgnLCAnLW1hJywgJzIwMCcsICctbWV0YWxfYmluZGluZycsICctaW1hZScsICc8aW5maWxlLm1hZT4nLCAnLW9tYWUnLCAnPG91dGZpbGUubWFlPic=

> <r_lp_tautomer_probability>
1

> <r_epik_Ionization_Penalty>
4.93314e-09

> <r_epik_Ionization_Penalty_Charging>
4.92654e-09

> <r_epik_Ionization_Penalty_Neutral>
6.60436e-12

> <r_epik_State_Penalty>
-0

> <r_epik_Charging_Adjusted_Penalty>
4.92654e-09

> <i_epik_Tot_Q>
0

> <i_epik_Tot_abs_Q>
0

> <r_epik_Metal_State_Penalty>
-0

> <b_epik_Metal_Only>
0

> <s_epik_Chemistry_Notes>
This compound contains an acetal/aminal-like group ( X-CH(R)-Y where X, Y are N, S, or O) that may be acid/base labile, releasing an aldehyde.

> <s_lp_Force_Field>
OPLS_2005

> <r_lp_Energy>
37.1389

> <b_lp_Chiralities_Consistent>
1

> <s_lp_Variant>
AV-unprocessed.smi:120-1

> <Gold.Version>
5.8.1

> <Gold.Id.Protein>
6NUR|6NUR_protein|mol2

> <Gold.PLP.Fitness>
46.7298

> <Gold.PLP.PLP>
-42.6180

> <Gold.PLP.part.hbond>
-3.0000

> <Gold.PLP.part.metal>
0.0000

> <Gold.PLP.part.buried>
-4.8325

> <Gold.PLP.part.nonpolar>
-37.0128

> <Gold.PLP.part.repulsive>
2.1866

> <Gold.PLP.ligand.clash>
0.0000

> <Gold.PLP.ligand.torsion>
1.0130

> <Gold.PLP.Chemscore.Hbond>
2.0166

> <Gold.PLP.Chemscore.CHOScore>
0.0000

> <Gold.PLP.Chemscore.Metal>
0.0000

> <Gold.Chemscore.Hbonds>
donor molecule, donor type, donor heavy atom, donor atom, acceptor molecule, acceptor atom, score
      P1  H  6934  6946       L1    24  0.90
      P1  H  7989  7998       L1    10  0.96

> <Gold.PLP.Chemscore.Internal.Correction>
0.0882

> <Gold.Rescore>
     Score         DG    S(hbond)    S(metal)    S(lipo)     H(rot)  DE(clash)    DE(int)     intcor
     11.60     -13.84       0.98        0.00      87.11       1.99       0.00       2.24       ----

> <Gold.Chemscore.Fitness>
11.6009

> <Gold.Chemscore.DG>
-13.8405

> <Gold.Chemscore.ZeroCoef>
-5.4800

> <Gold.Chemscore.Hbond>
0.9754

> <Gold.Chemscore.Metal>
0.0000

> <Gold.Chemscore.Lipo>
87.1093

> <Gold.Chemscore.Internal_Hbond>
0.0000

> <Gold.Chemscore.DEClash>
0.0000

> <Gold.Chemscore.DEInternal>
2.2396

> <Gold.Chemscore.Rot>
1.9879

> <Gold.Chemscore.Internal.Correction>
   9.000000E+99

> <Gold.Chemscore.Hbonds>
donor molecule, donor type, donor heavy atom, donor atom, acceptor molecule, acceptor atom, score
      P1  H  6934  6946       L1    24  0.17
      P1  H  7989  7998       L1    10  0.23
      P1  H  8022  8030       L1    15  0.01

> <Gold.Chemscore.Hbond.Weighted>
-3.2577

> <Gold.Chemscore.Metal.Weighted>
-0.0000

> <Gold.Chemscore.Lipo.Weighted>
-10.1918

> <Gold.Chemscore.Internal_Hbond.Weighted>
0.0000

> <Gold.Chemscore.DEClash.Weighted>
0.0000

> <Gold.Chemscore.DEInternal.Weighted>
2.2396

> <Gold.Chemscore.Rot.Weighted>
5.0890

> <Gold.Chemscore.Internal.Correction.Weighted>
   9.000000E+99

> <Gold.Protein.RotatedTorsions>
[ 6907 6896 6895 6894 ] final   75.39 input  -60.11 | X-H torsion
[ 7974 7965 7964 7962 ] final  -16.04 input  175.53 | X-H torsion
[ 8008 7997 7996 7995 ] final   99.36 input   59.86 | X-H torsion
[ 10167 10162 10161 10158 ] final   12.74 input  -65.29 | X-H torsion
[ 10718 10713 10712 10709 ] final  -53.88 input   66.30 | X-H torsion
[ 10763 10752 10751 10750 ] final   57.35 input  -60.55 | X-H torsion
[ 11005 11000 10999 10996 ] final -109.32 input  -57.11 | X-H torsion

> <Gold.Protein.ActiveResidues>
 VAL166  LYS551  ARG553  GLY616  TRP617  ASP618  TYR619  PRO620  LYS621  CYS622 
 ASP623  PHE694  ASN695  SER759  ASP760  ASP761  ALA762  ILE779  LEU786  VAL792 
 PHE793  MET794  SER795  GLU796  ALA797  LYS798  CYS799  TRP800  GLU811  SER814 

> <Gold.Protein.RotatedAtoms>
  152.5023  134.4128  159.9454 H   0  0  0  0  0  0  0  0  0  0  0  0  # atno 6907 bound_to 6896
  151.4097  133.3725  159.2750 H   0  0  0  0  0  0  0  0  0  0  0  0  # atno 6908 bound_to 6896
  150.9301  134.8738  159.7605 H   0  0  0  0  0  0  0  0  0  0  0  0  # atno 6909 bound_to 6896
  146.2005  140.3579  142.8425 H   0  0  0  0  0  0  0  0  0  0  0  0  # atno 7974 bound_to 7965
  156.1097  140.3230  155.8055 H   0  0  0  0  0  0  0  0  0  0  0  0  # atno 8008 bound_to 7997
  155.4694  140.0545  157.2998 H   0  0  0  0  0  0  0  0  0  0  0  0  # atno 8009 bound_to 7997
  154.4751  140.2029  155.9911 H   0  0  0  0  0  0  0  0  0  0  0  0  # atno 8010 bound_to 7997
  140.6048  143.8530  150.7002 H   0  0  0  0  0  0  0  0  0  0  0  0  # atno 10167 bound_to 10162
  156.1498  130.4151  149.9964 H   0  0  0  0  0  0  0  0  0  0  0  0  # atno 10718 bound_to 10713
  152.9848  135.5644  154.5377 H   0  0  0  0  0  0  0  0  0  0  0  0  # atno 10763 bound_to 10752
  154.4837  135.2790  155.1552 H   0  0  0  0  0  0  0  0  0  0  0  0  # atno 10764 bound_to 10752
  154.3050  135.6300  153.5494 H   0  0  0  0  0  0  0  0  0  0  0  0  # atno 10765 bound_to 10752
  141.0854  133.9148  157.2197 H   0  0  0  0  0  0  0  0  0  0  0  0  # atno 11005 bound_to 11000
  144.8674  140.7224  143.6069 LP  0  0  0  0  0  0  0  0  0  0  0  0  # atno 17320 bound_to 7965
  145.3499  139.1709  143.4440 LP  0  0  0  0  0  0  0  0  0  0  0  0  # atno 17321 bound_to 7965
  140.2085  143.3902  152.1737 LP  0  0  0  0  0  0  0  0  0  0  0  0  # atno 17342 bound_to 10162
  139.5317  144.7166  151.5033 LP  0  0  0  0  0  0  0  0  0  0  0  0  # atno 17343 bound_to 10162
  156.7826  130.9226  151.3646 LP  0  0  0  0  0  0  0  0  0  0  0  0  # atno 17370 bound_to 10713
  157.6647  130.8997  149.9906 LP  0  0  0  0  0  0  0  0  0  0  0  0  # atno 17371 bound_to 10713
  139.9672  135.0139  156.9417 LP  0  0  0  0  0  0  0  0  0  0  0  0  # atno 17394 bound_to 11000
  140.5375  134.0753  155.7332 LP  0  0  0  0  0  0  0  0  0  0  0  0  # atno 17395 bound_to 11000

$$$$
