AV-unprocessed.smi:17|AV-procd|sdf|102|dock8
  -GOLD-   2262015253D 1   1.00000     0.00000
 Structure written by MMmdl.
 57 59  0  0  0  0  0  0  0  0  1 V2000
  148.2216  135.0554  160.0962 C   0  0  0  0  0  0  0  0  0  0  0  0
  148.9499  133.9310  159.3461 C   0  0  0  0  0  0  0  0  0  0  0  0
  148.8815  134.0931  157.8908 N   0  0  0  0  0  0  0  0  0  0  0  0
  149.3018  135.2688  157.3491 C   0  0  0  0  0  0  0  0  0  0  0  0
  148.9864  135.5230  156.0514 N   0  0  0  0  0  0  0  0  0  0  0  0
  149.3639  136.6640  155.4695 C   0  0  0  0  0  0  0  0  0  0  0  0
  150.0633  137.6725  155.9898 N   0  0  0  0  0  0  0  0  0  0  0  0
  150.4020  137.4211  157.2859 C   0  0  0  0  0  0  0  0  0  0  0  0
  150.0676  136.2573  158.0375 C   0  0  0  0  0  0  0  0  0  0  0  0
  150.6102  136.3583  159.3148 N   0  0  0  0  0  0  0  0  0  0  0  0
  151.2127  137.5151  159.3222 C   0  0  0  0  0  0  0  0  0  0  0  0
  151.1443  138.2163  158.1414 N   0  0  0  0  0  0  0  0  0  0  0  0
  151.7344  139.5166  157.8741 C   0  0  0  0  0  0  0  0  0  0  0  0
  152.4672  140.1148  159.1004 C   0  0  1  0  0  0  0  0  0  0  0  0
  153.7951  139.3842  159.4175 C   0  0  0  0  0  0  0  0  0  0  0  0
  154.7155  139.5001  158.3518 O   0  0  0  0  0  0  0  0  0  0  0  0
  152.6601  141.6465  158.9625 C   0  0  1  0  0  0  0  0  0  0  0  0
  151.3822  142.4343  158.7337 C   0  0  0  0  0  0  0  0  0  0  0  0
  151.8129  143.8487  159.1019 C   0  0  0  0  0  0  0  0  0  0  0  0
  152.7511  143.6933  160.1597 O   0  0  0  0  0  0  0  0  0  0  0  0
  153.1973  142.3416  160.2192 C   0  0  0  0  0  0  0  0  0  0  0  0
  148.2712  133.0668  157.0379 C   0  0  2  0  0  0  0  0  0  0  0  0
  146.8051  132.8147  157.4279 C   0  0  0  0  0  0  0  0  0  0  0  0
  149.0837  131.7539  157.0091 C   0  0  0  0  0  0  0  0  0  0  0  0
  150.6616  131.8909  156.0492 S   0  0  0  0  0  0  0  0  0  0  0  0
  150.0865  132.4893  154.4062 C   0  0  0  0  0  0  0  0  0  0  0  0
  151.4664  132.9638  156.6524 O   0  0  0  0  0  0  0  0  0  0  0  0
  151.2432  130.5512  155.8734 O   0  0  0  0  0  0  0  0  0  0  0  0
  148.2674  134.8920  161.1729 H   0  0  0  0  0  0  0  0  0  0  0  0
  147.1702  135.1057  159.8136 H   0  0  0  0  0  0  0  0  0  0  0  0
  148.6700  136.0278  159.8913 H   0  0  0  0  0  0  0  0  0  0  0  0
  149.9880  133.8749  159.6743 H   0  0  0  0  0  0  0  0  0  0  0  0
  148.5022  132.9789  159.6280 H   0  0  0  0  0  0  0  0  0  0  0  0
  149.0626  136.7861  154.4396 H   0  0  0  0  0  0  0  0  0  0  0  0
  151.7351  137.8875  160.1912 H   0  0  0  0  0  0  0  0  0  0  0  0
  152.4193  139.4254  157.0303 H   0  0  0  0  0  0  0  0  0  0  0  0
  150.9317  140.1773  157.5464 H   0  0  0  0  0  0  0  0  0  0  0  0
  151.8180  139.9518  159.9621 H   0  0  0  0  0  0  0  0  0  0  0  0
  154.2546  139.7886  160.3190 H   0  0  0  0  0  0  0  0  0  0  0  0
  153.6241  138.3268  159.6192 H   0  0  0  0  0  0  0  0  0  0  0  0
  155.4155  138.8802  158.4892 H   0  0  0  0  0  0  0  0  0  0  0  0
  153.3398  141.8561  158.1346 H   0  0  0  0  0  0  0  0  0  0  0  0
  151.0099  142.3675  157.7109 H   0  0  0  0  0  0  0  0  0  0  0  0
  150.5955  142.0942  159.4087 H   0  0  0  0  0  0  0  0  0  0  0  0
  152.3151  144.3242  158.2583 H   0  0  0  0  0  0  0  0  0  0  0  0
  150.9745  144.4798  159.3975 H   0  0  0  0  0  0  0  0  0  0  0  0
  152.7840  141.8881  161.1212 H   0  0  0  0  0  0  0  0  0  0  0  0
  154.2844  142.2923  160.2864 H   0  0  0  0  0  0  0  0  0  0  0  0
  148.2587  133.4184  156.0081 H   0  0  0  0  0  0  0  0  0  0  0  0
  146.3284  132.1259  156.7303 H   0  0  0  0  0  0  0  0  0  0  0  0
  146.2297  133.7406  157.4171 H   0  0  0  0  0  0  0  0  0  0  0  0
  146.7225  132.3827  158.4255 H   0  0  0  0  0  0  0  0  0  0  0  0
  149.3054  131.3692  158.0039 H   0  0  0  0  0  0  0  0  0  0  0  0
  148.4924  130.9875  156.5077 H   0  0  0  0  0  0  0  0  0  0  0  0
  150.9520  132.6998  153.7785 H   0  0  0  0  0  0  0  0  0  0  0  0
  149.5027  133.4009  154.5311 H   0  0  0  0  0  0  0  0  0  0  0  0
  149.4775  131.7294  153.9219 H   0  0  0  0  0  0  0  0  0  0  0  0
  1  2  1  0  0  0  0
  1 29  1  0  0  0  0
  1 30  1  0  0  0  0
  1 31  1  0  0  0  0
  2  3  1  0  0  0  0
  2 32  1  0  0  0  0
  2 33  1  0  0  0  0
  3  4  1  0  0  0  0
  3 22  1  0  0  0  0
  4  9  1  0  0  0  0
  4  5  2  0  0  0  0
  5  6  1  0  0  0  0
  6  7  2  0  0  0  0
  6 34  1  0  0  0  0
  7  8  1  0  0  0  0
  8 12  1  0  0  0  0
  8  9  2  0  0  0  0
  9 10  1  0  0  0  0
 10 11  2  0  0  0  0
 11 12  1  0  0  0  0
 11 35  1  0  0  0  0
 12 13  1  0  0  0  0
 13 14  1  0  0  0  0
 13 36  1  0  0  0  0
 13 37  1  0  0  0  0
 14 15  1  0  0  0  0
 14 17  1  0  0  0  0
 14 38  1  0  0  0  0
 15 16  1  0  0  0  0
 15 39  1  0  0  0  0
 15 40  1  0  0  0  0
 16 41  1  0  0  0  0
 17 21  1  0  0  0  0
 17 18  1  0  0  0  0
 17 42  1  0  0  0  0
 18 19  1  0  0  0  0
 18 43  1  0  0  0  0
 18 44  1  0  0  0  0
 19 20  1  0  0  0  0
 19 45  1  0  0  0  0
 19 46  1  0  0  0  0
 20 21  1  0  0  0  0
 21 47  1  0  0  0  0
 21 48  1  0  0  0  0
 22 23  1  0  0  0  0
 22 24  1  0  0  0  0
 22 49  1  0  0  0  0
 23 50  1  0  0  0  0
 23 51  1  0  0  0  0
 23 52  1  0  0  0  0
 24 25  1  0  0  0  0
 24 53  1  0  0  0  0
 24 54  1  0  0  0  0
 25 26  1  0  0  0  0
 25 27  2  0  0  0  0
 25 28  2  0  0  0  0
 26 55  1  0  0  0  0
 26 56  1  0  0  0  0
 26 57  1  0  0  0  0
M  END
> <s_m_source_file>
AV-unprocessed.smi

> <i_m_source_file_index>
17

> <i_lp_mmshare_version>
43012

> <i_f3d_flags>
0

> <s_epik_input>
W0NIM11TKD1PKSg9TylbQ0gyXVtDQEBIXShbQ0gzXSlOKFtDSDJdW0NIM10pYyhuW2NIXW4xKWMoYzEyKW5bY0hdbjJbQ0gyXVtDQEhdKFtDSDJdW09IXSlbQ0BASF0zW0NIMl1bQ0gyXU9bQ0gyXTM=

> <s_epik_cmdline>
J2VwaWtfcHl0aG9uJywgJy1waCcsICc3LjAnLCAnLXRuJywgJzgnLCAnLW1hJywgJzIwMCcsICctbWV0YWxfYmluZGluZycsICctaW1hZScsICc8aW5maWxlLm1hZT4nLCAnLW9tYWUnLCAnPG91dGZpbGUubWFlPic=

> <r_lp_tautomer_probability>
1

> <r_epik_Ionization_Penalty>
0.00119955

> <r_epik_Ionization_Penalty_Charging>
0

> <r_epik_Ionization_Penalty_Neutral>
0.00119955

> <r_epik_State_Penalty>
0.000665399

> <r_epik_Charging_Adjusted_Penalty>
0.000665399

> <i_epik_Tot_Q>
0

> <i_epik_Tot_abs_Q>
0

> <r_epik_Metal_State_Penalty>
-0

> <b_epik_Metal_Only>
0

> <s_lp_Force_Field>
OPLS_2005

> <r_lp_Energy>
33.4806

> <b_lp_Chiralities_Consistent>
1

> <s_lp_Variant>
AV-unprocessed.smi:17-4

> <Gold.Version>
5.8.1

> <Gold.Id.Protein>
6NUR|6NUR_protein|mol2

> <Gold.PLP.Fitness>
44.7769

> <Gold.PLP.PLP>
-33.0563

> <Gold.PLP.part.hbond>
-3.0000

> <Gold.PLP.part.metal>
0.0000

> <Gold.PLP.part.buried>
-5.6682

> <Gold.PLP.part.nonpolar>
-25.2681

> <Gold.PLP.part.repulsive>
0.0847

> <Gold.PLP.ligand.clash>
0.0000

> <Gold.PLP.ligand.torsion>
0.4507

> <Gold.PLP.Chemscore.Hbond>
2.9920

> <Gold.PLP.Chemscore.CHOScore>
1.0000

> <Gold.PLP.Chemscore.Metal>
0.0000

> <Gold.Chemscore.Hbonds>
donor molecule, donor type, donor heavy atom, donor atom, acceptor molecule, acceptor atom, score
      P1  H  6896  6907       L1    10  0.86
      P1  H  7997  8008       L1    16  0.18
      L1  C     6    34       P1  7948  0.77

> <Gold.PLP.Chemscore.Internal.Correction>
0.6459

> <Gold.Rescore>
     Score         DG    S(hbond)    S(metal)    S(lipo)     H(rot)  DE(clash)    DE(int)     intcor
     12.72     -14.71       2.71        0.00      78.37       3.51       0.00       1.99       ----

> <Gold.Chemscore.Fitness>
12.7206

> <Gold.Chemscore.DG>
-14.7146

> <Gold.Chemscore.ZeroCoef>
-5.4800

> <Gold.Chemscore.Hbond>
2.7065

> <Gold.Chemscore.Metal>
0.0000

> <Gold.Chemscore.Lipo>
78.3740

> <Gold.Chemscore.Internal_Hbond>
0.0000

> <Gold.Chemscore.DEClash>
0.0044

> <Gold.Chemscore.DEInternal>
1.9896

> <Gold.Chemscore.Rot>
3.5059

> <Gold.Chemscore.Internal.Correction>
   9.000000E+99

> <Gold.Chemscore.Hbonds>
donor molecule, donor type, donor heavy atom, donor atom, acceptor molecule, acceptor atom, score
      P1  H  6896  6907       L1    10  0.66
      P1  H  7997  8008       L1    16  0.03

> <Gold.Chemscore.Hbond.Weighted>
-9.0398

> <Gold.Chemscore.Metal.Weighted>
-0.0000

> <Gold.Chemscore.Lipo.Weighted>
-9.1698

> <Gold.Chemscore.Internal_Hbond.Weighted>
0.0000

> <Gold.Chemscore.DEClash.Weighted>
0.0044

> <Gold.Chemscore.DEInternal.Weighted>
1.9896

> <Gold.Chemscore.Rot.Weighted>
8.9750

> <Gold.Chemscore.Internal.Correction.Weighted>
   9.000000E+99

> <Gold.Protein.RotatedTorsions>
[ 6907 6896 6895 6894 ] final  -32.75 input  -60.11 | X-H torsion
[ 7974 7965 7964 7962 ] final  136.19 input  175.53 | X-H torsion
[ 8008 7997 7996 7995 ] final -124.34 input   59.86 | X-H torsion
[ 10167 10162 10161 10158 ] final   98.39 input  -65.29 | X-H torsion
[ 10718 10713 10712 10709 ] final   78.20 input   66.30 | X-H torsion
[ 10763 10752 10751 10750 ] final  -59.20 input  -60.55 | X-H torsion
[ 11005 11000 10999 10996 ] final -138.69 input  -57.11 | X-H torsion

> <Gold.Protein.ActiveResidues>
 VAL166  LYS551  ARG553  GLY616  TRP617  ASP618  TYR619  PRO620  LYS621  CYS622 
 ASP623  PHE694  ASN695  SER759  ASP760  ASP761  ALA762  ILE779  LEU786  VAL792 
 PHE793  MET794  SER795  GLU796  ALA797  LYS798  CYS799  TRP800  GLU811  SER814 

> <Gold.Protein.RotatedAtoms>
  151.0747  134.9820  159.8325 H   0  0  0  0  0  0  0  0  0  0  0  0  # atno 6907 bound_to 6896
  152.5412  134.2256  159.8815 H   0  0  0  0  0  0  0  0  0  0  0  0  # atno 6908 bound_to 6896
  151.2283  133.4421  159.2636 H   0  0  0  0  0  0  0  0  0  0  0  0  # atno 6909 bound_to 6896
  144.9589  139.4733  143.5489 H   0  0  0  0  0  0  0  0  0  0  0  0  # atno 7974 bound_to 7965
  155.1953  140.0414  157.2908 H   0  0  0  0  0  0  0  0  0  0  0  0  # atno 8008 bound_to 7997
  154.6111  140.2477  155.7640 H   0  0  0  0  0  0  0  0  0  0  0  0  # atno 8009 bound_to 7997
  156.2379  140.2914  156.0373 H   0  0  0  0  0  0  0  0  0  0  0  0  # atno 8010 bound_to 7997
  139.7713  144.6921  151.0151 H   0  0  0  0  0  0  0  0  0  0  0  0  # atno 10167 bound_to 10162
  157.6737  130.9857  150.1751 H   0  0  0  0  0  0  0  0  0  0  0  0  # atno 10718 bound_to 10713
  154.2500  135.6328  153.5237 H   0  0  0  0  0  0  0  0  0  0  0  0  # atno 10763 bound_to 10752
  152.9914  135.5562  154.5818 H   0  0  0  0  0  0  0  0  0  0  0  0  # atno 10764 bound_to 10752
  154.5343  135.2890  155.1127 H   0  0  0  0  0  0  0  0  0  0  0  0  # atno 10765 bound_to 10752
  140.8592  134.2190  157.4717 H   0  0  0  0  0  0  0  0  0  0  0  0  # atno 11005 bound_to 11000
  146.3346  139.8725  142.8837 LP  0  0  0  0  0  0  0  0  0  0  0  0  # atno 17320 bound_to 7965
  145.2730  141.0114  143.3761 LP  0  0  0  0  0  0  0  0  0  0  0  0  # atno 17321 bound_to 7965
  140.7814  143.4585  151.0311 LP  0  0  0  0  0  0  0  0  0  0  0  0  # atno 17342 bound_to 10162
  139.8268  143.7744  152.3179 LP  0  0  0  0  0  0  0  0  0  0  0  0  # atno 17343 bound_to 10162
  156.2497  130.3699  149.8246 LP  0  0  0  0  0  0  0  0  0  0  0  0  # atno 17370 bound_to 10713
  156.6023  130.8552  151.3434 LP  0  0  0  0  0  0  0  0  0  0  0  0  # atno 17371 bound_to 10713
  139.8706  134.9721  156.4761 LP  0  0  0  0  0  0  0  0  0  0  0  0  # atno 17394 bound_to 11000
  140.8703  133.7994  155.9357 LP  0  0  0  0  0  0  0  0  0  0  0  0  # atno 17395 bound_to 11000

$$$$
