AV-unprocessed.smi:1965|AV-procd|sdf|7937|dock10
  -GOLD-   2272010103D 1   1.00000     0.00000
 Structure written by MMmdl.
 37 39  0  0  0  0  0  0  0  0  2 V2000
  150.9016  140.8998  155.4595 O   0  0  0  0  0  0  0  0  0  0  0  0
  150.1711  141.8826  155.5718 C   0  0  0  0  0  0  0  0  0  0  0  0
  148.9556  141.9174  154.9849 N   0  0  0  0  0  0  0  0  0  0  0  0
  148.2654  140.9654  154.1785 C   0  0  0  0  0  0  0  0  0  0  0  0
  147.1466  141.2059  153.4826 N   0  0  0  0  0  0  0  0  0  0  0  0
  146.7002  140.0762  152.7921 C   0  0  0  0  0  0  0  0  0  0  0  0
  147.4946  138.9726  152.9758 C   0  0  0  0  0  0  0  0  0  0  0  0
  148.8422  139.3114  154.0281 S   0  0  0  0  0  0  0  0  0  0  0  0
  150.5241  142.9698  156.2765 N   0  0  0  0  0  0  0  0  0  0  0  0
  151.7784  143.1432  157.0014 C   0  0  1  0  0  0  0  0  0  0  0  0
  151.9540  144.5672  157.5583 C   0  0  0  0  0  0  0  0  0  0  0  0
  152.6204  144.3880  158.9367 C   0  0  0  0  0  0  0  0  0  0  0  0
  152.8859  142.9419  159.0573 N   0  3  1  0  0  0  0  0  0  0  0  0
  153.0054  142.3904  160.4246 C   0  0  0  0  0  0  0  0  0  0  0  0
  153.3649  140.8935  160.3392 C   0  0  0  0  0  0  0  0  0  0  0  0
  152.3756  140.1180  159.4458 C   0  0  0  0  0  0  0  0  0  0  0  0
  152.2218  140.7926  158.0690 C   0  0  0  0  0  0  0  0  0  0  0  0
  151.8480  142.2728  158.2587 C   0  0  2  0  0  0  0  0  0  0  0  0
  148.4513  142.7806  155.1263 H   0  0  0  0  0  0  0  0  0  0  0  0
  145.8049  140.1462  152.1920 H   0  0  0  0  0  0  0  0  0  0  0  0
  147.3691  137.9848  152.5579 H   0  0  0  0  0  0  0  0  0  0  0  0
  149.8641  143.7340  156.3152 H   0  0  0  0  0  0  0  0  0  0  0  0
  152.6303  142.9201  156.3553 H   0  0  0  0  0  0  0  0  0  0  0  0
  152.5624  145.1769  156.8894 H   0  0  0  0  0  0  0  0  0  0  0  0
  150.9936  145.0713  157.6768 H   0  0  0  0  0  0  0  0  0  0  0  0
  153.5440  144.9597  159.0306 H   0  0  0  0  0  0  0  0  0  0  0  0
  151.9396  144.7117  159.7256 H   0  0  0  0  0  0  0  0  0  0  0  0
  153.7769  142.9323  160.9724 H   0  0  0  0  0  0  0  0  0  0  0  0
  152.0673  142.5283  160.9646 H   0  0  0  0  0  0  0  0  0  0  0  0
  154.3723  140.7875  159.9340 H   0  0  0  0  0  0  0  0  0  0  0  0
  153.3883  140.4568  161.3380 H   0  0  0  0  0  0  0  0  0  0  0  0
  152.7080  139.0866  159.3238 H   0  0  0  0  0  0  0  0  0  0  0  0
  151.4031  140.0729  159.9374 H   0  0  0  0  0  0  0  0  0  0  0  0
  153.1526  140.7079  157.5066 H   0  0  0  0  0  0  0  0  0  0  0  0
  151.4563  140.2777  157.4884 H   0  0  0  0  0  0  0  0  0  0  0  0
  150.8983  142.3418  158.7949 H   0  0  0  0  0  0  0  0  0  0  0  0
  153.7622  142.7705  158.5852 H   0  0  0  0  0  0  0  0  0  0  0  0
  1  2  2  0  0  0  0
  2  3  1  0  0  0  0
  2  9  1  0  0  0  0
  3  4  1  0  0  0  0
  3 19  1  0  0  0  0
  4  8  1  0  0  0  0
  4  5  2  0  0  0  0
  5  6  1  0  0  0  0
  6  7  2  0  0  0  0
  6 20  1  0  0  0  0
  7  8  1  0  0  0  0
  7 21  1  0  0  0  0
  9 10  1  0  0  0  0
  9 22  1  0  0  0  0
 10 18  1  0  0  0  0
 10 11  1  0  0  0  0
 10 23  1  0  0  0  0
 11 12  1  0  0  0  0
 11 24  1  0  0  0  0
 11 25  1  0  0  0  0
 12 13  1  0  0  0  0
 12 26  1  0  0  0  0
 12 27  1  0  0  0  0
 13 18  1  0  0  0  0
 13 14  1  0  0  0  0
 13 37  1  0  0  0  0
 14 15  1  0  0  0  0
 14 28  1  0  0  0  0
 14 29  1  0  0  0  0
 15 16  1  0  0  0  0
 15 30  1  0  0  0  0
 15 31  1  0  0  0  0
 16 17  1  0  0  0  0
 16 32  1  0  0  0  0
 16 33  1  0  0  0  0
 17 18  1  0  0  0  0
 17 34  1  0  0  0  0
 17 35  1  0  0  0  0
 18 36  1  0  0  0  0
M  CHG  1  13   1
M  END
> <s_m_source_file>
AV-unprocessed.smi

> <i_m_source_file_index>
1965

> <i_lp_mmshare_version>
43012

> <i_f3d_flags>
0

> <s_epik_input>
czFbY0hdW2NIXW5jMVtOSF1DKD1PKVtOSF1bQ0BIXShbQ0gyXVtDSDJdMilbQ0BASF0oTjIzKVtDSDJdW0NIMl1bQ0gyXVtDSDJdMw==

> <s_epik_cmdline>
J2VwaWtfcHl0aG9uJywgJy1waCcsICc3LjAnLCAnLXRuJywgJzgnLCAnLW1hJywgJzIwMCcsICctbWV0YWxfYmluZGluZycsICctaW1hZScsICc8aW5maWxlLm1hZT4nLCAnLW9tYWUnLCAnPG91dGZpbGUubWFlPic=

> <r_lp_tautomer_probability>
1

> <r_epik_Ionization_Penalty>
0.00125962

> <r_epik_Ionization_Penalty_Charging>
0.00107044

> <r_epik_Ionization_Penalty_Neutral>
0.000189176

> <r_epik_State_Penalty>
-0

> <r_epik_Charging_Adjusted_Penalty>
0.00107044

> <i_epik_Tot_Q>
1

> <i_epik_Tot_abs_Q>
1

> <r_epik_Metal_State_Penalty>
0.0179285

> <b_epik_Metal_Only>
0

> <s_lp_Force_Field>
OPLS_2005

> <r_lp_Energy>
35.2761

> <b_lp_Chiralities_Consistent>
1

> <s_lp_Variant>
AV-unprocessed.smi:1965-6

> <Gold.Version>
5.8.1

> <Gold.Id.Protein>
6NUR|6NUR_protein|mol2

> <Gold.PLP.Fitness>
47.5029

> <Gold.PLP.PLP>
-34.9101

> <Gold.PLP.part.hbond>
-2.7881

> <Gold.PLP.part.metal>
0.0000

> <Gold.PLP.part.buried>
-1.7377

> <Gold.PLP.part.nonpolar>
-29.6272

> <Gold.PLP.part.repulsive>
0.5611

> <Gold.PLP.ligand.clash>
0.0000

> <Gold.PLP.ligand.torsion>
0.1150

> <Gold.PLP.Chemscore.Hbond>
2.2711

> <Gold.PLP.Chemscore.CHOScore>
2.0000

> <Gold.PLP.Chemscore.Metal>
0.0000

> <Gold.Chemscore.Hbonds>
donor molecule, donor type, donor heavy atom, donor atom, acceptor molecule, acceptor atom, score
      L1  H     3    19       P1  8028  0.75
      L1  H     9    22       P1  8028  0.99
      P1  H  7989  7998       L1     1  0.66
      L1  C     6    20       P1 10175  1.00
      L1  C     7    21       P1  7948  1.00

> <Gold.PLP.Chemscore.Internal.Correction>
0.0093

> <Gold.Rescore>
     Score         DG    S(hbond)    S(metal)    S(lipo)     H(rot)  DE(clash)    DE(int)     intcor
     16.48     -21.67       1.78        0.00     109.40       1.00       3.09       2.11       ----

> <Gold.Chemscore.Fitness>
16.4783

> <Gold.Chemscore.DG>
-21.6748

> <Gold.Chemscore.ZeroCoef>
-5.4800

> <Gold.Chemscore.Hbond>
1.7829

> <Gold.Chemscore.Metal>
0.0000

> <Gold.Chemscore.Lipo>
109.3995

> <Gold.Chemscore.Internal_Hbond>
0.0000

> <Gold.Chemscore.DEClash>
3.0876

> <Gold.Chemscore.DEInternal>
2.1088

> <Gold.Chemscore.Rot>
1.0000

> <Gold.Chemscore.Internal.Correction>
   9.000000E+99

> <Gold.Chemscore.Hbonds>
donor molecule, donor type, donor heavy atom, donor atom, acceptor molecule, acceptor atom, score
      L1  H     3    19       P1  8028  0.69
      L1  H     9    22       P1  8028  0.90
      P1  H  7989  7998       L1     1  0.38

> <Gold.Chemscore.Hbond.Weighted>
-5.9550

> <Gold.Chemscore.Metal.Weighted>
-0.0000

> <Gold.Chemscore.Lipo.Weighted>
-12.7997

> <Gold.Chemscore.Internal_Hbond.Weighted>
0.0000

> <Gold.Chemscore.DEClash.Weighted>
3.0876

> <Gold.Chemscore.DEInternal.Weighted>
2.1088

> <Gold.Chemscore.Rot.Weighted>
2.5600

> <Gold.Chemscore.Internal.Correction.Weighted>
   9.000000E+99

> <Gold.Protein.RotatedTorsions>
[ 6907 6896 6895 6894 ] final -154.72 input  -60.11 | X-H torsion
[ 7974 7965 7964 7962 ] final -102.59 input  175.53 | X-H torsion
[ 8008 7997 7996 7995 ] final -116.84 input   59.86 | X-H torsion
[ 10167 10162 10161 10158 ] final   28.84 input  -65.29 | X-H torsion
[ 10718 10713 10712 10709 ] final  -50.85 input   66.30 | X-H torsion
[ 10763 10752 10751 10750 ] final -100.12 input  -60.55 | X-H torsion
[ 11005 11000 10999 10996 ] final  108.84 input  -57.11 | X-H torsion

> <Gold.Protein.ActiveResidues>
 VAL166  LYS551  ARG553  GLY616  TRP617  ASP618  TYR619  PRO620  LYS621  CYS622 
 ASP623  PHE694  ASN695  SER759  ASP760  ASP761  ALA762  ILE779  LEU786  VAL792 
 PHE793  MET794  SER795  GLU796  ALA797  LYS798  CYS799  TRP800  GLU811  SER814 

> <Gold.Protein.RotatedAtoms>
  151.2617  133.4299  159.2616 H   0  0  0  0  0  0  0  0  0  0  0  0  # atno 6907 bound_to 6896
  151.0525  134.9682  159.8229 H   0  0  0  0  0  0  0  0  0  0  0  0  # atno 6908 bound_to 6896
  152.5385  134.2571  159.8973 H   0  0  0  0  0  0  0  0  0  0  0  0  # atno 6909 bound_to 6896
  145.2668  140.9286  143.3009 H   0  0  0  0  0  0  0  0  0  0  0  0  # atno 7974 bound_to 7965
  155.0742  140.0393  157.2618 H   0  0  0  0  0  0  0  0  0  0  0  0  # atno 8008 bound_to 7997
  154.6958  140.2663  155.6743 H   0  0  0  0  0  0  0  0  0  0  0  0  # atno 8009 bound_to 7997
  156.2744  140.2750  156.1552 H   0  0  0  0  0  0  0  0  0  0  0  0  # atno 8010 bound_to 7997
  140.4818  144.0604  150.6267 H   0  0  0  0  0  0  0  0  0  0  0  0  # atno 10167 bound_to 10162
  156.1763  130.4150  149.9572 H   0  0  0  0  0  0  0  0  0  0  0  0  # atno 10718 bound_to 10713
  154.7554  135.4947  153.9364 H   0  0  0  0  0  0  0  0  0  0  0  0  # atno 10763 bound_to 10752
  153.1189  135.6727  153.9377 H   0  0  0  0  0  0  0  0  0  0  0  0  # atno 10764 bound_to 10752
  153.9115  135.3098  155.3427 H   0  0  0  0  0  0  0  0  0  0  0  0  # atno 10765 bound_to 10752
  139.8851  134.9442  156.6034 H   0  0  0  0  0  0  0  0  0  0  0  0  # atno 11005 bound_to 11000
  144.9370  139.4232  143.6467 LP  0  0  0  0  0  0  0  0  0  0  0  0  # atno 17320 bound_to 7965
  146.3259  139.8310  142.8908 LP  0  0  0  0  0  0  0  0  0  0  0  0  # atno 17321 bound_to 7965
  140.3849  143.2783  152.0128 LP  0  0  0  0  0  0  0  0  0  0  0  0  # atno 17342 bound_to 10162
  139.4835  144.6125  151.7407 LP  0  0  0  0  0  0  0  0  0  0  0  0  # atno 17343 bound_to 10162
  156.7357  130.9060  151.3629 LP  0  0  0  0  0  0  0  0  0  0  0  0  # atno 17370 bound_to 10713
  157.6838  130.9165  150.0333 LP  0  0  0  0  0  0  0  0  0  0  0  0  # atno 17371 bound_to 10713
  140.7867  133.8616  155.8612 LP  0  0  0  0  0  0  0  0  0  0  0  0  # atno 17394 bound_to 11000
  140.9713  134.1527  157.4573 LP  0  0  0  0  0  0  0  0  0  0  0  0  # atno 17395 bound_to 11000

$$$$
