AV-unprocessed.smi:1041|AV-procd|sdf|4528|dock4
  -GOLD-   22720 2543D 1   1.00000     0.00000
 Structure written by MMmdl.
 53 54  0  0  0  0  0  0  0  0  2 V2000
  144.2507  132.5462  150.9125 C   0  0  0  0  0  0  0  0  0  0  0  0
  144.8281  133.7189  150.3645 O   0  0  0  0  0  0  0  0  0  0  0  0
  145.6497  134.4052  151.2942 C   0  0  0  0  0  0  0  0  0  0  0  0
  146.7916  133.4754  151.7343 C   0  0  0  0  0  0  0  0  0  0  0  0
  147.5236  133.9871  152.9214 N   0  3  2  0  0  0  0  0  0  0  0  0
  148.6044  133.0634  153.3521 C   0  0  0  0  0  0  0  0  0  0  0  0
  149.4375  133.6681  154.4947 C   0  0  0  0  0  0  0  0  0  0  0  0
  148.5506  134.0516  155.6963 C   0  0  1  0  0  0  0  0  0  0  0  0
  149.3498  134.6994  156.8426 C   0  0  0  0  0  0  0  0  0  0  0  0
  150.3204  135.6556  156.3298 N   0  0  0  0  0  0  0  0  0  0  0  0
  151.0349  136.5049  157.0810 C   0  0  0  0  0  0  0  0  0  0  0  0
  150.9791  136.5371  158.3097 O   0  0  0  0  0  0  0  0  0  0  0  0
  151.9483  137.4694  156.3235 C   0  0  0  0  0  0  0  0  0  0  0  0
  151.7596  138.9467  156.6654 C   0  0  0  0  0  0  0  0  0  0  0  0
  152.0719  139.4716  157.8864 C   0  0  0  0  0  0  0  0  0  0  0  0
  152.6442  138.6373  159.0192 C   0  0  0  0  0  0  0  0  0  0  0  0
  151.8821  140.8309  158.1719 N   0  0  0  0  0  0  0  0  0  0  0  0
  151.4015  141.5989  157.2504 C   0  0  0  0  0  0  0  0  0  0  0  0
  151.1526  143.0814  157.4309 C   0  0  0  0  0  0  0  0  0  0  0  0
  151.0594  141.1261  155.9847 N   0  0  0  0  0  0  0  0  0  0  0  0
  151.1994  139.8308  155.6246 C   0  0  0  0  0  0  0  0  0  0  0  0
  150.8571  139.4571  154.5038 O   0  0  0  0  0  0  0  0  0  0  0  0
  147.4252  134.9796  155.2089 C   0  0  0  0  0  0  0  0  0  0  0  0
  146.6311  134.3439  154.0560 C   0  0  0  0  0  0  0  0  0  0  0  0
  150.6841  141.7723  155.3059 H   0  0  0  0  0  0  0  0  0  0  0  0
  143.6331  132.0551  150.1606 H   0  0  0  0  0  0  0  0  0  0  0  0
  143.6158  132.7819  151.7677 H   0  0  0  0  0  0  0  0  0  0  0  0
  145.0180  131.8392  151.2306 H   0  0  0  0  0  0  0  0  0  0  0  0
  146.0276  135.3328  150.8645 H   0  0  0  0  0  0  0  0  0  0  0  0
  145.0552  134.6801  152.1668 H   0  0  0  0  0  0  0  0  0  0  0  0
  146.4090  132.4756  151.9442 H   0  0  0  0  0  0  0  0  0  0  0  0
  147.4799  133.3689  150.8945 H   0  0  0  0  0  0  0  0  0  0  0  0
  148.1691  132.1134  153.6661 H   0  0  0  0  0  0  0  0  0  0  0  0
  149.2623  132.8477  152.5092 H   0  0  0  0  0  0  0  0  0  0  0  0
  150.2013  132.9507  154.7969 H   0  0  0  0  0  0  0  0  0  0  0  0
  149.9702  134.5484  154.1319 H   0  0  0  0  0  0  0  0  0  0  0  0
  148.0899  133.1407  156.0825 H   0  0  0  0  0  0  0  0  0  0  0  0
  148.6698  135.1964  157.5369 H   0  0  0  0  0  0  0  0  0  0  0  0
  149.8823  133.9349  157.4100 H   0  0  0  0  0  0  0  0  0  0  0  0
  150.4418  135.6940  155.3277 H   0  0  0  0  0  0  0  0  0  0  0  0
  152.9840  137.1891  156.5176 H   0  0  0  0  0  0  0  0  0  0  0  0
  151.8163  137.3053  155.2534 H   0  0  0  0  0  0  0  0  0  0  0  0
  153.6240  138.2448  158.7467 H   0  0  0  0  0  0  0  0  0  0  0  0
  151.9868  137.7997  159.2534 H   0  0  0  0  0  0  0  0  0  0  0  0
  152.7636  139.2301  159.9268 H   0  0  0  0  0  0  0  0  0  0  0  0
  150.4203  143.2451  158.2217 H   0  0  0  0  0  0  0  0  0  0  0  0
  150.7769  143.5416  156.5160 H   0  0  0  0  0  0  0  0  0  0  0  0
  152.0780  143.5854  157.7106 H   0  0  0  0  0  0  0  0  0  0  0  0
  146.7488  135.2085  156.0332 H   0  0  0  0  0  0  0  0  0  0  0  0
  147.8450  135.9317  154.8808 H   0  0  0  0  0  0  0  0  0  0  0  0
  145.8642  135.0463  153.7323 H   0  0  0  0  0  0  0  0  0  0  0  0
  146.1119  133.4508  154.4077 H   0  0  0  0  0  0  0  0  0  0  0  0
  147.9823  134.8376  152.6262 H   0  0  0  0  0  0  0  0  0  0  0  0
  1  2  1  0  0  0  0
  1 26  1  0  0  0  0
  1 27  1  0  0  0  0
  1 28  1  0  0  0  0
  2  3  1  0  0  0  0
  3  4  1  0  0  0  0
  3 29  1  0  0  0  0
  3 30  1  0  0  0  0
  4  5  1  0  0  0  0
  4 31  1  0  0  0  0
  4 32  1  0  0  0  0
  5 24  1  0  0  0  0
  5  6  1  0  0  0  0
  5 53  1  0  0  0  0
  6  7  1  0  0  0  0
  6 33  1  0  0  0  0
  6 34  1  0  0  0  0
  7  8  1  0  0  0  0
  7 35  1  0  0  0  0
  7 36  1  0  0  0  0
  8  9  1  0  0  0  0
  8 23  1  0  0  0  0
  8 37  1  0  0  0  0
  9 10  1  0  0  0  0
  9 38  1  0  0  0  0
  9 39  1  0  0  0  0
 10 11  1  0  0  0  0
 10 40  1  0  0  0  0
 11 12  2  0  0  0  0
 11 13  1  0  0  0  0
 13 14  1  0  0  0  0
 13 41  1  0  0  0  0
 13 42  1  0  0  0  0
 14 21  1  0  0  0  0
 14 15  2  0  0  0  0
 15 16  1  0  0  0  0
 15 17  1  0  0  0  0
 16 43  1  0  0  0  0
 16 44  1  0  0  0  0
 16 45  1  0  0  0  0
 17 18  2  0  0  0  0
 18 19  1  0  0  0  0
 18 20  1  0  0  0  0
 19 46  1  0  0  0  0
 19 47  1  0  0  0  0
 19 48  1  0  0  0  0
 20 25  1  0  0  0  0
 20 21  1  0  0  0  0
 21 22  2  0  0  0  0
 23 24  1  0  0  0  0
 23 49  1  0  0  0  0
 23 50  1  0  0  0  0
 24 51  1  0  0  0  0
 24 52  1  0  0  0  0
M  CHG  1   5   1
M  END
> <s_m_source_file>
AV-unprocessed.smi

> <i_m_source_file_index>
1041

> <i_lp_mmshare_version>
43012

> <i_f3d_flags>
0

> <s_epik_input>
W0NIM11PW0NIMl1bQ0gyXU4xW0NIMl1bQ0gyXVtDSF0oW0NIMl1bQ0gyXTEpW0NIMl1bTkhdQyg9TylbQ0gyXWMyYyhbQ0gzXSluYyhbQ0gzXSlbbkhdYzI9Tw==

> <s_epik_cmdline>
J2VwaWtfcHl0aG9uJywgJy1waCcsICc3LjAnLCAnLXRuJywgJzgnLCAnLW1hJywgJzIwMCcsICctbWV0YWxfYmluZGluZycsICctaW1hZScsICc8aW5maWxlLm1hZT4nLCAnLW9tYWUnLCAnPG91dGZpbGUubWFlPic=

> <r_lp_tautomer_probability>
0.839158

> <r_epik_Ionization_Penalty>
0.00964357

> <r_epik_Ionization_Penalty_Charging>
0.00961423

> <r_epik_Ionization_Penalty_Neutral>
2.93415e-05

> <r_epik_State_Penalty>
0.0972512

> <r_epik_Charging_Adjusted_Penalty>
0.106865

> <i_epik_Tot_Q>
1

> <i_epik_Tot_abs_Q>
1

> <r_epik_Metal_State_Penalty>
0.270886

> <b_epik_Metal_Only>
0

> <s_lp_Force_Field>
OPLS_2005

> <r_lp_Energy>
21.4676

> <b_lp_Chiralities_Consistent>
1

> <s_lp_Variant>
AV-unprocessed.smi:1041-1

> <Gold.Version>
5.8.1

> <Gold.Id.Protein>
6NUR|6NUR_protein|mol2

> <Gold.PLP.Fitness>
44.0433

> <Gold.PLP.PLP>
-33.5335

> <Gold.PLP.part.hbond>
-3.0000

> <Gold.PLP.part.metal>
0.0000

> <Gold.PLP.part.buried>
-7.5271

> <Gold.PLP.part.nonpolar>
-24.3110

> <Gold.PLP.part.repulsive>
1.0782

> <Gold.PLP.ligand.clash>
0.0000

> <Gold.PLP.ligand.torsion>
0.3649

> <Gold.PLP.Chemscore.Hbond>
3.6978

> <Gold.PLP.Chemscore.CHOScore>
0.0000

> <Gold.PLP.Chemscore.Metal>
0.0000

> <Gold.Chemscore.Hbonds>
donor molecule, donor type, donor heavy atom, donor atom, acceptor molecule, acceptor atom, score
      L1  H     5    53       P1  7948  2.00
      P1  H  6896  6908       L1    12  0.60
      P1  H  7989  7998       L1    22  0.95

> <Gold.PLP.Chemscore.Internal.Correction>
0.1461

> <Gold.Rescore>
     Score         DG    S(hbond)    S(metal)    S(lipo)     H(rot)  DE(clash)    DE(int)     intcor
     14.57     -16.64       2.70        0.00      71.51       2.43       0.03       2.03       ----

> <Gold.Chemscore.Fitness>
14.5721

> <Gold.Chemscore.DG>
-16.6359

> <Gold.Chemscore.ZeroCoef>
-5.4800

> <Gold.Chemscore.Hbond>
2.6971

> <Gold.Chemscore.Metal>
0.0000

> <Gold.Chemscore.Lipo>
71.5068

> <Gold.Chemscore.Internal_Hbond>
0.0000

> <Gold.Chemscore.DEClash>
0.0350

> <Gold.Chemscore.DEInternal>
2.0288

> <Gold.Chemscore.Rot>
2.4291

> <Gold.Chemscore.Internal.Correction>
   9.000000E+99

> <Gold.Chemscore.Hbonds>
donor molecule, donor type, donor heavy atom, donor atom, acceptor molecule, acceptor atom, score
      L1  H     5    53       P1  7948  0.82
      P1  H  6896  6908       L1    12  0.58
      P1  H  7989  7998       L1    22  0.22

> <Gold.Chemscore.Hbond.Weighted>
-9.0082

> <Gold.Chemscore.Metal.Weighted>
-0.0000

> <Gold.Chemscore.Lipo.Weighted>
-8.3663

> <Gold.Chemscore.Internal_Hbond.Weighted>
0.0000

> <Gold.Chemscore.DEClash.Weighted>
0.0350

> <Gold.Chemscore.DEInternal.Weighted>
2.0288

> <Gold.Chemscore.Rot.Weighted>
6.2186

> <Gold.Chemscore.Internal.Correction.Weighted>
   9.000000E+99

> <Gold.Protein.RotatedTorsions>
[ 6907 6896 6895 6894 ] final -146.80 input  -60.11 | X-H torsion
[ 7974 7965 7964 7962 ] final  -38.71 input  175.53 | X-H torsion
[ 8008 7997 7996 7995 ] final   77.01 input   59.86 | X-H torsion
[ 10167 10162 10161 10158 ] final  -45.84 input  -65.29 | X-H torsion
[ 10718 10713 10712 10709 ] final   50.85 input   66.30 | X-H torsion
[ 10763 10752 10751 10750 ] final  145.13 input  -60.55 | X-H torsion
[ 11005 11000 10999 10996 ] final  104.38 input  -57.11 | X-H torsion

> <Gold.Protein.ActiveResidues>
 VAL166  LYS551  ARG553  GLY616  TRP617  ASP618  TYR619  PRO620  LYS621  CYS622 
 ASP623  PHE694  ASN695  SER759  ASP760  ASP761  ALA762  ILE779  LEU786  VAL792 
 PHE793  MET794  SER795  GLU796  ALA797  LYS798  CYS799  TRP800  GLU811  SER814 

> <Gold.Protein.RotatedAtoms>
  151.1467  133.4935  159.2595 H   0  0  0  0  0  0  0  0  0  0  0  0  # atno 6907 bound_to 6896
  151.1597  135.0267  159.8715 H   0  0  0  0  0  0  0  0  0  0  0  0  # atno 6908 bound_to 6896
  152.5463  134.1342  159.8505 H   0  0  0  0  0  0  0  0  0  0  0  0  # atno 6909 bound_to 6896
  146.0462  140.6543  142.9063 H   0  0  0  0  0  0  0  0  0  0  0  0  # atno 7974 bound_to 7965
  155.8356  140.3464  155.5599 H   0  0  0  0  0  0  0  0  0  0  0  0  # atno 8008 bound_to 7997
  155.8196  140.0911  157.1876 H   0  0  0  0  0  0  0  0  0  0  0  0  # atno 8009 bound_to 7997
  154.4004  140.1432  156.3471 H   0  0  0  0  0  0  0  0  0  0  0  0  # atno 8010 bound_to 7997
  140.6842  143.2860  151.3697 H   0  0  0  0  0  0  0  0  0  0  0  0  # atno 10167 bound_to 10162
  157.4924  130.8384  149.8218 H   0  0  0  0  0  0  0  0  0  0  0  0  # atno 10718 bound_to 10713
  154.0004  135.2924  155.3403 H   0  0  0  0  0  0  0  0  0  0  0  0  # atno 10763 bound_to 10752
  154.7163  135.5128  153.8746 H   0  0  0  0  0  0  0  0  0  0  0  0  # atno 10764 bound_to 10752
  153.0769  135.6666  154.0246 H   0  0  0  0  0  0  0  0  0  0  0  0  # atno 10765 bound_to 10752
  139.8791  134.9298  156.5353 H   0  0  0  0  0  0  0  0  0  0  0  0  # atno 11005 bound_to 11000
  144.7099  140.3998  143.7089 LP  0  0  0  0  0  0  0  0  0  0  0  0  # atno 17320 bound_to 7965
  145.6801  139.1617  143.2705 LP  0  0  0  0  0  0  0  0  0  0  0  0  # atno 17321 bound_to 7965
  139.6187  144.0951  152.2370 LP  0  0  0  0  0  0  0  0  0  0  0  0  # atno 17342 bound_to 10162
  140.0388  144.6023  150.7427 LP  0  0  0  0  0  0  0  0  0  0  0  0  # atno 17343 bound_to 10162
  156.0181  130.3806  150.2047 LP  0  0  0  0  0  0  0  0  0  0  0  0  # atno 17370 bound_to 10713
  157.0236  130.9986  151.3332 LP  0  0  0  0  0  0  0  0  0  0  0  0  # atno 17371 bound_to 10713
  140.8350  133.8249  155.9020 LP  0  0  0  0  0  0  0  0  0  0  0  0  # atno 17394 bound_to 11000
  140.9292  134.2044  157.4875 LP  0  0  0  0  0  0  0  0  0  0  0  0  # atno 17395 bound_to 11000

$$$$
