AV-unprocessed.smi:2809|AV-procd|sdf|10825|dock4
  -GOLD-   2272015263D 1   1.00000     0.00000
 Structure written by MMmdl.
 44 45  0  0  0  0  0  0  0  0  1 V2000
  151.5738  145.2147  159.3786 C   0  0  0  0  0  0  0  0  0  0  0  0
  152.3611  143.9517  159.7450 C   0  0  0  0  0  0  0  0  0  0  0  0
  152.1188  142.8193  158.7653 C   0  0  0  0  0  0  0  0  0  0  0  0
  152.7101  141.5576  158.9754 C   0  0  0  0  0  0  0  0  0  0  0  0
  152.4789  140.5087  158.0650 C   0  0  0  0  0  0  0  0  0  0  0  0
  151.6558  140.6994  156.9365 C   0  0  0  0  0  0  0  0  0  0  0  0
  151.4815  139.6179  156.1003 O   0  0  0  0  0  0  0  0  0  0  0  0
  150.7388  139.8039  154.9025 C   0  0  0  0  0  0  0  0  0  0  0  0
  150.2747  138.4314  154.3915 C   0  0  2  0  0  0  0  0  0  0  0  0
  149.3927  138.6651  153.3117 O   0  0  0  0  0  0  0  0  0  0  0  0
  149.5279  137.6281  155.4805 C   0  0  0  0  0  0  0  0  0  0  0  0
  150.1020  136.2865  155.6748 N   0  0  0  0  0  0  0  0  0  0  0  0
  151.3398  136.2287  156.3352 C   0  0  0  0  0  0  0  0  0  0  0  0
  151.9396  135.1048  156.5562 N   0  0  0  0  0  0  0  0  0  0  0  0
  151.3541  133.9073  156.1355 C   0  0  0  0  0  0  0  0  0  0  0  0
  152.1441  132.6475  156.4423 C   0  0  0  0  0  0  0  0  0  0  0  0
  150.1528  133.8942  155.4957 C   0  0  0  0  0  0  0  0  0  0  0  0
  149.4647  132.6208  155.0195 C   0  0  0  0  0  0  0  0  0  0  0  0
  149.4567  135.1656  155.2394 C   0  0  0  0  0  0  0  0  0  0  0  0
  148.3635  135.2274  154.6733 O   0  0  0  0  0  0  0  0  0  0  0  0
  151.0644  141.9713  156.7298 C   0  0  0  0  0  0  0  0  0  0  0  0
  151.2962  143.0214  157.6392 C   0  0  0  0  0  0  0  0  0  0  0  0
  151.7653  146.0130  160.0958 H   0  0  0  0  0  0  0  0  0  0  0  0
  150.5006  145.0222  159.3727 H   0  0  0  0  0  0  0  0  0  0  0  0
  151.8543  145.5814  158.3908 H   0  0  0  0  0  0  0  0  0  0  0  0
  153.4281  144.1758  159.7734 H   0  0  0  0  0  0  0  0  0  0  0  0
  152.0895  143.6258  160.7499 H   0  0  0  0  0  0  0  0  0  0  0  0
  153.3415  141.3892  159.8355 H   0  0  0  0  0  0  0  0  0  0  0  0
  152.9372  139.5453  158.2358 H   0  0  0  0  0  0  0  0  0  0  0  0
  149.8767  140.4502  155.0763 H   0  0  0  0  0  0  0  0  0  0  0  0
  151.3760  140.2801  154.1549 H   0  0  0  0  0  0  0  0  0  0  0  0
  151.1415  137.8841  154.0191 H   0  0  0  0  0  0  0  0  0  0  0  0
  149.2681  137.8535  152.8440 H   0  0  0  0  0  0  0  0  0  0  0  0
  149.5874  138.1594  156.4322 H   0  0  0  0  0  0  0  0  0  0  0  0
  148.4576  137.5951  155.2655 H   0  0  0  0  0  0  0  0  0  0  0  0
  151.7519  137.1898  156.6474 H   0  0  0  0  0  0  0  0  0  0  0  0
  152.4140  132.1328  155.5198 H   0  0  0  0  0  0  0  0  0  0  0  0
  151.5573  131.9689  157.0616 H   0  0  0  0  0  0  0  0  0  0  0  0
  153.0654  132.8768  156.9792 H   0  0  0  0  0  0  0  0  0  0  0  0
  148.5029  132.5048  155.5201 H   0  0  0  0  0  0  0  0  0  0  0  0
  150.0459  131.7205  155.2117 H   0  0  0  0  0  0  0  0  0  0  0  0
  149.2836  132.6691  153.9453 H   0  0  0  0  0  0  0  0  0  0  0  0
  150.4287  142.1679  155.8802 H   0  0  0  0  0  0  0  0  0  0  0  0
  150.8373  143.9846  157.4703 H   0  0  0  0  0  0  0  0  0  0  0  0
  1  2  1  0  0  0  0
  1 23  1  0  0  0  0
  1 24  1  0  0  0  0
  1 25  1  0  0  0  0
  2  3  1  0  0  0  0
  2 26  1  0  0  0  0
  2 27  1  0  0  0  0
  3 22  1  0  0  0  0
  3  4  2  0  0  0  0
  4  5  1  0  0  0  0
  4 28  1  0  0  0  0
  5  6  2  0  0  0  0
  5 29  1  0  0  0  0
  6  7  1  0  0  0  0
  6 21  1  0  0  0  0
  7  8  1  0  0  0  0
  8  9  1  0  0  0  0
  8 30  1  0  0  0  0
  8 31  1  0  0  0  0
  9 10  1  0  0  0  0
  9 11  1  0  0  0  0
  9 32  1  0  0  0  0
 10 33  1  0  0  0  0
 11 12  1  0  0  0  0
 11 34  1  0  0  0  0
 11 35  1  0  0  0  0
 12 19  1  0  0  0  0
 12 13  1  0  0  0  0
 13 14  2  0  0  0  0
 13 36  1  0  0  0  0
 14 15  1  0  0  0  0
 15 16  1  0  0  0  0
 15 17  2  0  0  0  0
 16 37  1  0  0  0  0
 16 38  1  0  0  0  0
 16 39  1  0  0  0  0
 17 18  1  0  0  0  0
 17 19  1  0  0  0  0
 18 40  1  0  0  0  0
 18 41  1  0  0  0  0
 18 42  1  0  0  0  0
 19 20  2  0  0  0  0
 21 22  2  0  0  0  0
 21 43  1  0  0  0  0
 22 44  1  0  0  0  0
M  END
> <s_m_source_file>
AV-unprocessed.smi

> <i_m_source_file_index>
2809

> <i_lp_mmshare_version>
43012

> <i_f3d_flags>
0

> <s_epik_input>
W0NIM11bQ0gyXWMxW2NIXVtjSF1jKFtjSF1bY0hdMSlPW0NIMl1bQ0BIXShbT0hdKVtDSDJdbjJbY0hdbmMoW0NIM10pYyhbQ0gzXSljMj1P

> <s_epik_cmdline>
J2VwaWtfcHl0aG9uJywgJy1waCcsICc3LjAnLCAnLXRuJywgJzgnLCAnLW1hJywgJzIwMCcsICctbWV0YWxfYmluZGluZycsICctaW1hZScsICc8aW5maWxlLm1hZT4nLCAnLW9tYWUnLCAnPG91dGZpbGUubWFlPic=

> <r_lp_tautomer_probability>
1

> <r_epik_Ionization_Penalty>
3.74127e-05

> <r_epik_Ionization_Penalty_Charging>
8.43242e-08

> <r_epik_Ionization_Penalty_Neutral>
3.73284e-05

> <r_epik_State_Penalty>
-0

> <r_epik_Charging_Adjusted_Penalty>
8.43242e-08

> <i_epik_Tot_Q>
0

> <i_epik_Tot_abs_Q>
0

> <r_epik_Metal_State_Penalty>
-0

> <b_epik_Metal_Only>
0

> <s_lp_Force_Field>
OPLS_2005

> <r_lp_Energy>
22.1893

> <b_lp_Chiralities_Consistent>
1

> <s_lp_Variant>
AV-unprocessed.smi:2809-1

> <Gold.Version>
5.8.1

> <Gold.Id.Protein>
6NUR|6NUR_protein|mol2

> <Gold.PLP.Fitness>
44.6090

> <Gold.PLP.PLP>
-41.4065

> <Gold.PLP.part.hbond>
-3.0000

> <Gold.PLP.part.metal>
0.0000

> <Gold.PLP.part.buried>
-4.8342

> <Gold.PLP.part.nonpolar>
-32.5253

> <Gold.PLP.part.repulsive>
0.5205

> <Gold.PLP.ligand.clash>
0.0000

> <Gold.PLP.ligand.torsion>
1.0235

> <Gold.PLP.Chemscore.Hbond>
1.7000

> <Gold.PLP.Chemscore.CHOScore>
0.0000

> <Gold.PLP.Chemscore.Metal>
0.0000

> <Gold.Chemscore.Hbonds>
donor molecule, donor type, donor heavy atom, donor atom, acceptor molecule, acceptor atom, score
      L1  H    10    33       P1  7948  1.00
      P1  H 10752 10763       L1    14  0.65

> <Gold.PLP.Chemscore.Internal.Correction>
0.1495

> <Gold.Rescore>
     Score         DG    S(hbond)    S(metal)    S(lipo)     H(rot)  DE(clash)    DE(int)     intcor
     14.49     -15.58       0.99        0.00     112.08       2.47       0.01       1.08       ----

> <Gold.Chemscore.Fitness>
14.4862

> <Gold.Chemscore.DG>
-15.5797

> <Gold.Chemscore.ZeroCoef>
-5.4800

> <Gold.Chemscore.Hbond>
0.9877

> <Gold.Chemscore.Metal>
0.0000

> <Gold.Chemscore.Lipo>
112.0772

> <Gold.Chemscore.Internal_Hbond>
0.0000

> <Gold.Chemscore.DEClash>
0.0099

> <Gold.Chemscore.DEInternal>
1.0837

> <Gold.Chemscore.Rot>
2.4657

> <Gold.Chemscore.Internal.Correction>
   9.000000E+99

> <Gold.Chemscore.Hbonds>
donor molecule, donor type, donor heavy atom, donor atom, acceptor molecule, acceptor atom, score
      L1  H    10    33       P1  7948  0.96
      P1  H 10752 10763       L1    14  0.02

> <Gold.Chemscore.Hbond.Weighted>
-3.2988

> <Gold.Chemscore.Metal.Weighted>
-0.0000

> <Gold.Chemscore.Lipo.Weighted>
-13.1130

> <Gold.Chemscore.Internal_Hbond.Weighted>
0.0000

> <Gold.Chemscore.DEClash.Weighted>
0.0099

> <Gold.Chemscore.DEInternal.Weighted>
1.0837

> <Gold.Chemscore.Rot.Weighted>
6.3121

> <Gold.Chemscore.Internal.Correction.Weighted>
   9.000000E+99

> <Gold.Protein.RotatedTorsions>
[ 6907 6896 6895 6894 ] final  174.94 input  -60.11 | X-H torsion
[ 7974 7965 7964 7962 ] final -119.13 input  175.53 | X-H torsion
[ 8008 7997 7996 7995 ] final   45.77 input   59.86 | X-H torsion
[ 10167 10162 10161 10158 ] final   90.17 input  -65.29 | X-H torsion
[ 10718 10713 10712 10709 ] final  -10.04 input   66.30 | X-H torsion
[ 10763 10752 10751 10750 ] final   97.16 input  -60.55 | X-H torsion
[ 11005 11000 10999 10996 ] final  -27.08 input  -57.11 | X-H torsion

> <Gold.Protein.ActiveResidues>
 VAL166  LYS551  ARG553  GLY616  TRP617  ASP618  TYR619  PRO620  LYS621  CYS622 
 ASP623  PHE694  ASN695  SER759  ASP760  ASP761  ALA762  ILE779  LEU786  VAL792 
 PHE793  MET794  SER795  GLU796  ALA797  LYS798  CYS799  TRP800  GLU811  SER814 

> <Gold.Protein.RotatedAtoms>
  151.7443  133.3323  159.3373 H   0  0  0  0  0  0  0  0  0  0  0  0  # atno 6907 bound_to 6896
  150.7561  134.6250  159.6165 H   0  0  0  0  0  0  0  0  0  0  0  0  # atno 6908 bound_to 6896
  152.3510  134.7007  160.0288 H   0  0  0  0  0  0  0  0  0  0  0  0  # atno 6909 bound_to 6896
  145.0660  140.8324  143.4124 H   0  0  0  0  0  0  0  0  0  0  0  0  # atno 7974 bound_to 7965
  155.3414  140.3408  155.4239 H   0  0  0  0  0  0  0  0  0  0  0  0  # atno 8008 bound_to 7997
  156.1811  140.1664  156.8308 H   0  0  0  0  0  0  0  0  0  0  0  0  # atno 8009 bound_to 7997
  154.5335  140.0740  156.8369 H   0  0  0  0  0  0  0  0  0  0  0  0  # atno 8010 bound_to 7997
  139.8500  144.6598  150.9181 H   0  0  0  0  0  0  0  0  0  0  0  0  # atno 10167 bound_to 10162
  156.6792  130.5032  149.5976 H   0  0  0  0  0  0  0  0  0  0  0  0  # atno 10718 bound_to 10713
  153.2735  135.4193  155.1011 H   0  0  0  0  0  0  0  0  0  0  0  0  # atno 10763 bound_to 10752
  154.8464  135.3478  154.6210 H   0  0  0  0  0  0  0  0  0  0  0  0  # atno 10764 bound_to 10752
  153.6631  135.7047  153.5228 H   0  0  0  0  0  0  0  0  0  0  0  0  # atno 10765 bound_to 10752
  140.9087  133.7475  156.0641 H   0  0  0  0  0  0  0  0  0  0  0  0  # atno 11005 bound_to 11000
  145.1351  139.2607  143.5519 LP  0  0  0  0  0  0  0  0  0  0  0  0  # atno 17320 bound_to 7965
  146.3526  140.1013  142.8608 LP  0  0  0  0  0  0  0  0  0  0  0  0  # atno 17321 bound_to 7965
  140.7788  143.3836  151.1433 LP  0  0  0  0  0  0  0  0  0  0  0  0  # atno 17342 bound_to 10162
  139.7475  143.8830  152.3067 LP  0  0  0  0  0  0  0  0  0  0  0  0  # atno 17343 bound_to 10162
  156.1880  130.6542  151.1029 LP  0  0  0  0  0  0  0  0  0  0  0  0  # atno 17370 bound_to 10713
  157.7050  131.0760  150.6698 LP  0  0  0  0  0  0  0  0  0  0  0  0  # atno 17371 bound_to 10713
  140.8138  134.3368  157.5403 LP  0  0  0  0  0  0  0  0  0  0  0  0  # atno 17394 bound_to 11000
  139.8753  134.9270  156.3413 LP  0  0  0  0  0  0  0  0  0  0  0  0  # atno 17395 bound_to 11000

$$$$
