AV-unprocessed.smi:1929|AV-procd|sdf|7799|dock1
  -GOLD-   22720 9543D 1   1.00000     0.00000
 Structure written by MMmdl.
 42 43  0  0  0  0  0  0  0  0  1 V2000
  150.1565  142.7388  158.5890 C   0  0  0  0  0  0  0  0  0  0  0  0
  149.2824  142.6365  157.4307 N   0  0  0  0  0  0  0  0  0  0  0  0
  148.3952  141.6491  157.2405 C   0  0  0  0  0  0  0  0  0  0  0  0
  148.2345  140.7224  158.0347 O   0  0  0  0  0  0  0  0  0  0  0  0
  147.5509  141.7190  155.9624 C   0  0  0  0  0  0  0  0  0  0  0  0
  147.5924  140.4935  155.1319 N   0  0  0  0  0  0  0  0  0  0  0  0
  146.8480  140.7265  153.8901 C   0  0  0  0  0  0  0  0  0  0  0  0
  146.9814  139.5213  152.9429 C   0  0  0  0  0  0  0  0  0  0  0  0
  146.4716  138.2364  153.6096 C   0  0  0  0  0  0  0  0  0  0  0  0
  146.7116  137.0925  152.7348 N   0  0  0  0  0  0  0  0  0  0  0  0
  145.8026  136.1602  152.4145 C   0  0  0  0  0  0  0  0  0  0  0  0
  144.6471  136.1675  152.8382 O   0  0  0  0  0  0  0  0  0  0  0  0
  146.3298  135.2289  151.6004 N   0  0  0  0  0  0  0  0  0  0  0  0
  145.7028  134.0904  151.0243 C   0  0  0  0  0  0  0  0  0  0  0  0
  146.5326  133.0392  150.5817 C   0  0  0  0  0  0  0  0  0  0  0  0
  145.9381  131.9062  149.9915 C   0  0  0  0  0  0  0  0  0  0  0  0
  144.6065  131.7737  149.8163 N   0  0  0  0  0  0  0  0  0  0  0  0
  143.8143  132.7863  150.2277 C   0  0  0  0  0  0  0  0  0  0  0  0
  144.3061  133.9620  150.8300 C   0  0  0  0  0  0  0  0  0  0  0  0
  147.1877  138.0575  154.9582 C   0  0  0  0  0  0  0  0  0  0  0  0
  147.0567  139.3170  155.8329 C   0  0  0  0  0  0  0  0  0  0  0  0
  150.7725  143.6345  158.5115 H   0  0  0  0  0  0  0  0  0  0  0  0
  150.8178  141.8740  158.6542 H   0  0  0  0  0  0  0  0  0  0  0  0
  149.5749  142.8035  159.5094 H   0  0  0  0  0  0  0  0  0  0  0  0
  149.3521  143.3624  156.7323 H   0  0  0  0  0  0  0  0  0  0  0  0
  146.5155  141.9565  156.2156 H   0  0  0  0  0  0  0  0  0  0  0  0
  147.9264  142.5621  155.3808 H   0  0  0  0  0  0  0  0  0  0  0  0
  145.7962  140.9218  154.1073 H   0  0  0  0  0  0  0  0  0  0  0  0
  147.2373  141.6124  153.3865 H   0  0  0  0  0  0  0  0  0  0  0  0
  146.4247  139.7115  152.0247 H   0  0  0  0  0  0  0  0  0  0  0  0
  148.0267  139.4037  152.6526 H   0  0  0  0  0  0  0  0  0  0  0  0
  145.3987  138.3412  153.7835 H   0  0  0  0  0  0  0  0  0  0  0  0
  147.6399  137.0048  152.3482 H   0  0  0  0  0  0  0  0  0  0  0  0
  147.3162  135.3199  151.4069 H   0  0  0  0  0  0  0  0  0  0  0  0
  147.6056  133.0928  150.6950 H   0  0  0  0  0  0  0  0  0  0  0  0
  146.5501  131.0847  149.6491 H   0  0  0  0  0  0  0  0  0  0  0  0
  142.7540  132.6596  150.0663 H   0  0  0  0  0  0  0  0  0  0  0  0
  143.6095  134.7351  151.1147 H   0  0  0  0  0  0  0  0  0  0  0  0
  146.7770  137.1988  155.4906 H   0  0  0  0  0  0  0  0  0  0  0  0
  148.2445  137.8411  154.7929 H   0  0  0  0  0  0  0  0  0  0  0  0
  147.5971  139.1367  156.7621 H   0  0  0  0  0  0  0  0  0  0  0  0
  146.0125  139.4834  156.1028 H   0  0  0  0  0  0  0  0  0  0  0  0
  1  2  1  0  0  0  0
  1 22  1  0  0  0  0
  1 23  1  0  0  0  0
  1 24  1  0  0  0  0
  2  3  1  0  0  0  0
  2 25  1  0  0  0  0
  3  4  2  0  0  0  0
  3  5  1  0  0  0  0
  5  6  1  0  0  0  0
  5 26  1  0  0  0  0
  5 27  1  0  0  0  0
  6 21  1  0  0  0  0
  6  7  1  0  0  0  0
  7  8  1  0  0  0  0
  7 28  1  0  0  0  0
  7 29  1  0  0  0  0
  8  9  1  0  0  0  0
  8 30  1  0  0  0  0
  8 31  1  0  0  0  0
  9 10  1  0  0  0  0
  9 20  1  0  0  0  0
  9 32  1  0  0  0  0
 10 11  1  0  0  0  0
 10 33  1  0  0  0  0
 11 12  2  0  0  0  0
 11 13  1  0  0  0  0
 13 14  1  0  0  0  0
 13 34  1  0  0  0  0
 14 19  1  0  0  0  0
 14 15  2  0  0  0  0
 15 16  1  0  0  0  0
 15 35  1  0  0  0  0
 16 17  2  0  0  0  0
 16 36  1  0  0  0  0
 17 18  1  0  0  0  0
 18 19  2  0  0  0  0
 18 37  1  0  0  0  0
 19 38  1  0  0  0  0
 20 21  1  0  0  0  0
 20 39  1  0  0  0  0
 20 40  1  0  0  0  0
 21 41  1  0  0  0  0
 21 42  1  0  0  0  0
M  END
> <s_m_source_file>
AV-unprocessed.smi

> <i_m_source_file_index>
1929

> <i_lp_mmshare_version>
43012

> <i_f3d_flags>
0

> <s_epik_input>
W0NIM11bTkhdQyg9TylbQ0gyXU4xW0NIMl1bQ0gyXVtDSF0oW0NIMl1bQ0gyXTEpW05IXUMoPU8pW05IXWMyW2NIXVtjSF1uW2NIXVtjSF0y

> <s_epik_cmdline>
J2VwaWtfcHl0aG9uJywgJy1waCcsICc3LjAnLCAnLXRuJywgJzgnLCAnLW1hJywgJzIwMCcsICctbWV0YWxfYmluZGluZycsICctaW1hZScsICc8aW5maWxlLm1hZT4nLCAnLW9tYWUnLCAnPG91dGZpbGUubWFlPic=

> <r_epik_Ionization_Penalty>
0.286942

> <r_epik_Ionization_Penalty_Charging>
0

> <r_epik_Ionization_Penalty_Neutral>
0.286942

> <r_epik_State_Penalty>
0.264061

> <r_epik_Charging_Adjusted_Penalty>
0.264061

> <i_epik_Tot_Q>
0

> <i_epik_Tot_abs_Q>
0

> <r_epik_Metal_State_Penalty>
0.245324

> <b_epik_Metal_Only>
0

> <s_lp_Force_Field>
OPLS_2005

> <r_lp_Energy>
20.0656

> <b_lp_Chiralities_Consistent>
1

> <s_lp_Variant>
AV-unprocessed.smi:1929-1

> <Gold.Version>
5.8.1

> <Gold.Id.Protein>
6NUR|6NUR_protein|mol2

> <Gold.PLP.Fitness>
43.6516

> <Gold.PLP.PLP>
-29.6146

> <Gold.PLP.part.hbond>
-4.3451

> <Gold.PLP.part.metal>
0.0000

> <Gold.PLP.part.buried>
-3.7656

> <Gold.PLP.part.nonpolar>
-21.8459

> <Gold.PLP.part.repulsive>
0.4850

> <Gold.PLP.ligand.clash>
0.0000

> <Gold.PLP.ligand.torsion>
0.2723

> <Gold.PLP.Chemscore.Hbond>
3.0086

> <Gold.PLP.Chemscore.CHOScore>
1.8440

> <Gold.PLP.Chemscore.Metal>
0.0000

> <Gold.Chemscore.Hbonds>
donor molecule, donor type, donor heavy atom, donor atom, acceptor molecule, acceptor atom, score
      L1  H     2    25       P1  8028  1.00
      L1  H    10    33       P1  7948  1.00
      L1  H    13    34       P1  7948  0.96
      P1  H 10785 10796       L1    17  0.04
      L1  C    16    36       P1 10747  0.87
      L1  C    18    37       P1 10186  0.98

> <Gold.PLP.Chemscore.Internal.Correction>
0.0238

> <Gold.Rescore>
     Score         DG    S(hbond)    S(metal)    S(lipo)     H(rot)  DE(clash)    DE(int)     intcor
     16.66     -19.48       2.91        0.00      73.06       1.66       0.16       2.66       ----

> <Gold.Chemscore.Fitness>
16.6560

> <Gold.Chemscore.DG>
-19.4760

> <Gold.Chemscore.ZeroCoef>
-5.4800

> <Gold.Chemscore.Hbond>
2.9052

> <Gold.Chemscore.Metal>
0.0000

> <Gold.Chemscore.Lipo>
73.0611

> <Gold.Chemscore.Internal_Hbond>
0.0000

> <Gold.Chemscore.DEClash>
0.1621

> <Gold.Chemscore.DEInternal>
2.6579

> <Gold.Chemscore.Rot>
1.6623

> <Gold.Chemscore.Internal.Correction>
   9.000000E+99

> <Gold.Chemscore.Hbonds>
donor molecule, donor type, donor heavy atom, donor atom, acceptor molecule, acceptor atom, score
      L1  H     2    25       P1  8028  0.98
      L1  H    10    33       P1  7948  0.97
      L1  H    13    34       P1  7948  0.79
      P1  H 10785 10796       L1    17  0.04

> <Gold.Chemscore.Hbond.Weighted>
-9.7033

> <Gold.Chemscore.Metal.Weighted>
-0.0000

> <Gold.Chemscore.Lipo.Weighted>
-8.5482

> <Gold.Chemscore.Internal_Hbond.Weighted>
0.0000

> <Gold.Chemscore.DEClash.Weighted>
0.1621

> <Gold.Chemscore.DEInternal.Weighted>
2.6579

> <Gold.Chemscore.Rot.Weighted>
4.2554

> <Gold.Chemscore.Internal.Correction.Weighted>
   9.000000E+99

> <Gold.Protein.RotatedTorsions>
[ 6907 6896 6895 6894 ] final -160.64 input  -60.11 | X-H torsion
[ 7974 7965 7964 7962 ] final   47.38 input  175.53 | X-H torsion
[ 8008 7997 7996 7995 ] final -161.39 input   59.86 | X-H torsion
[ 10167 10162 10161 10158 ] final    5.51 input  -65.29 | X-H torsion
[ 10718 10713 10712 10709 ] final   42.71 input   66.30 | X-H torsion
[ 10763 10752 10751 10750 ] final   77.93 input  -60.55 | X-H torsion
[ 11005 11000 10999 10996 ] final   47.56 input  -57.11 | X-H torsion

> <Gold.Protein.ActiveResidues>
 VAL166  LYS551  ARG553  GLY616  TRP617  ASP618  TYR619  PRO620  LYS621  CYS622 
 ASP623  PHE694  ASN695  SER759  ASP760  ASP761  ALA762  ILE779  LEU786  VAL792 
 PHE793  MET794  SER795  GLU796  ALA797  LYS798  CYS799  TRP800  GLU811  SER814 

> <Gold.Protein.RotatedAtoms>
  151.3522  133.3921  159.2681 H   0  0  0  0  0  0  0  0  0  0  0  0  # atno 6907 bound_to 6896
  150.9792  134.9151  159.7844 H   0  0  0  0  0  0  0  0  0  0  0  0  # atno 6908 bound_to 6896
  152.5211  134.3485  159.9295 H   0  0  0  0  0  0  0  0  0  0  0  0  # atno 6909 bound_to 6896
  146.0303  139.4755  142.9842 H   0  0  0  0  0  0  0  0  0  0  0  0  # atno 7974 bound_to 7965
  155.7915  140.0879  157.2006 H   0  0  0  0  0  0  0  0  0  0  0  0  # atno 8008 bound_to 7997
  154.3985  140.1489  156.3227 H   0  0  0  0  0  0  0  0  0  0  0  0  # atno 8009 bound_to 7997
  155.8553  140.3432  155.5723 H   0  0  0  0  0  0  0  0  0  0  0  0  # atno 8010 bound_to 7997
  140.6478  143.7619  150.7527 H   0  0  0  0  0  0  0  0  0  0  0  0  # atno 10167 bound_to 10162
  157.4079  130.7897  149.7404 H   0  0  0  0  0  0  0  0  0  0  0  0  # atno 10718 bound_to 10713
  153.0836  135.4896  154.8551 H   0  0  0  0  0  0  0  0  0  0  0  0  # atno 10763 bound_to 10752
  154.7182  135.3034  154.9093 H   0  0  0  0  0  0  0  0  0  0  0  0  # atno 10764 bound_to 10752
  153.9765  135.6795  153.4801 H   0  0  0  0  0  0  0  0  0  0  0  0  # atno 10765 bound_to 10752
  140.1269  134.4757  155.8552 H   0  0  0  0  0  0  0  0  0  0  0  0  # atno 11005 bound_to 11000
  145.7052  141.0123  143.1483 LP  0  0  0  0  0  0  0  0  0  0  0  0  # atno 17320 bound_to 7965
  144.7027  139.8691  143.7439 LP  0  0  0  0  0  0  0  0  0  0  0  0  # atno 17321 bound_to 7965
  140.1263  143.4566  152.2282 LP  0  0  0  0  0  0  0  0  0  0  0  0  # atno 17342 bound_to 10162
  139.5690  144.7452  151.3942 LP  0  0  0  0  0  0  0  0  0  0  0  0  # atno 17343 bound_to 10162
  155.9842  130.3994  150.3325 LP  0  0  0  0  0  0  0  0  0  0  0  0  # atno 17370 bound_to 10713
  157.1460  131.0309  151.2906 LP  0  0  0  0  0  0  0  0  0  0  0  0  # atno 17371 bound_to 10713
  141.2163  133.6781  156.6995 LP  0  0  0  0  0  0  0  0  0  0  0  0  # atno 17394 bound_to 11000
  140.2893  134.8254  157.4002 LP  0  0  0  0  0  0  0  0  0  0  0  0  # atno 17395 bound_to 11000

$$$$
