AV-unprocessed.smi:476|AV-procd|sdf|2669|dock8
  -GOLD-   2262023 83D 1   1.00000     0.00000
 Structure written by MMmdl.
 39 40  0  0  0  0  0  0  0  0  1 V2000
  151.9893  144.1644  161.2900 C   0  0  0  0  0  0  0  0  0  0  0  0
  152.8297  142.9005  161.2433 C   0  0  0  0  0  0  0  0  0  0  0  0
  153.3253  142.2561  162.3051 C   0  0  0  0  0  0  0  0  0  0  0  0
  154.2071  140.8127  161.8690 S   0  0  0  0  0  0  0  0  0  0  0  0
  153.8654  141.1197  160.1287 C   0  0  0  0  0  0  0  0  0  0  0  0
  154.2581  140.3768  159.2305 O   0  0  0  0  0  0  0  0  0  0  0  0
  153.1199  142.2930  160.0137 N   0  0  0  0  0  0  0  0  0  0  0  0
  152.6946  142.8333  158.7159 C   0  0  0  0  0  0  0  0  0  0  0  0
  151.2026  142.6104  158.4407 C   0  0  0  0  0  0  0  0  0  0  0  0
  150.3593  142.8352  159.3099 O   0  0  0  0  0  0  0  0  0  0  0  0
  150.8925  142.1708  157.2121 N   0  0  0  0  0  0  0  0  0  0  0  0
  149.5480  141.8356  156.7524 C   0  0  0  0  0  0  0  0  0  0  0  0
  149.5234  141.3516  155.2876 C   0  0  0  0  0  0  0  0  0  0  0  0
  150.1875  139.9985  155.0761 C   0  0  0  0  0  0  0  0  0  0  0  0
  149.4923  138.9192  154.6665 C   0  0  0  0  0  0  0  0  0  0  0  0
  150.0959  137.5398  154.4728 C   0  0  0  0  0  0  0  0  0  0  0  0
  151.4814  137.4121  155.1269 C   0  0  0  0  0  0  0  0  0  0  0  0
  152.3434  138.6486  154.8423 C   0  0  0  0  0  0  0  0  0  0  0  0
  151.6803  139.9308  155.3767 C   0  0  0  0  0  0  0  0  0  0  0  0
  151.6118  144.3322  162.2990 H   0  0  0  0  0  0  0  0  0  0  0  0
  151.1275  144.0962  160.6259 H   0  0  0  0  0  0  0  0  0  0  0  0
  152.5884  145.0291  161.0041 H   0  0  0  0  0  0  0  0  0  0  0  0
  153.2110  142.5443  163.3398 H   0  0  0  0  0  0  0  0  0  0  0  0
  152.9208  143.8952  158.6265 H   0  0  0  0  0  0  0  0  0  0  0  0
  153.2752  142.3497  157.9278 H   0  0  0  0  0  0  0  0  0  0  0  0
  151.6472  142.0208  156.5579 H   0  0  0  0  0  0  0  0  0  0  0  0
  149.1038  141.0843  157.4071 H   0  0  0  0  0  0  0  0  0  0  0  0
  148.9328  142.7299  156.8535 H   0  0  0  0  0  0  0  0  0  0  0  0
  148.4884  141.2962  154.9474 H   0  0  0  0  0  0  0  0  0  0  0  0
  150.0091  142.0873  154.6462 H   0  0  0  0  0  0  0  0  0  0  0  0
  148.4365  139.0078  154.4548 H   0  0  0  0  0  0  0  0  0  0  0  0
  149.4211  136.7902  154.8865 H   0  0  0  0  0  0  0  0  0  0  0  0
  150.1644  137.3489  153.4015 H   0  0  0  0  0  0  0  0  0  0  0  0
  151.3652  137.2974  156.2055 H   0  0  0  0  0  0  0  0  0  0  0  0
  151.9797  136.5097  154.7718 H   0  0  0  0  0  0  0  0  0  0  0  0
  153.3338  138.5310  155.2830 H   0  0  0  0  0  0  0  0  0  0  0  0
  152.4936  138.7390  153.7657 H   0  0  0  0  0  0  0  0  0  0  0  0
  152.1784  140.8029  154.9521 H   0  0  0  0  0  0  0  0  0  0  0  0
  151.8106  139.9881  156.4579 H   0  0  0  0  0  0  0  0  0  0  0  0
  1  2  1  0  0  0  0
  1 20  1  0  0  0  0
  1 21  1  0  0  0  0
  1 22  1  0  0  0  0
  2  7  1  0  0  0  0
  2  3  2  0  0  0  0
  3  4  1  0  0  0  0
  3 23  1  0  0  0  0
  4  5  1  0  0  0  0
  5  6  2  0  0  0  0
  5  7  1  0  0  0  0
  7  8  1  0  0  0  0
  8  9  1  0  0  0  0
  8 24  1  0  0  0  0
  8 25  1  0  0  0  0
  9 10  2  0  0  0  0
  9 11  1  0  0  0  0
 11 12  1  0  0  0  0
 11 26  1  0  0  0  0
 12 13  1  0  0  0  0
 12 27  1  0  0  0  0
 12 28  1  0  0  0  0
 13 14  1  0  0  0  0
 13 29  1  0  0  0  0
 13 30  1  0  0  0  0
 14 19  1  0  0  0  0
 14 15  2  0  0  0  0
 15 16  1  0  0  0  0
 15 31  1  0  0  0  0
 16 17  1  0  0  0  0
 16 32  1  0  0  0  0
 16 33  1  0  0  0  0
 17 18  1  0  0  0  0
 17 34  1  0  0  0  0
 17 35  1  0  0  0  0
 18 19  1  0  0  0  0
 18 36  1  0  0  0  0
 18 37  1  0  0  0  0
 19 38  1  0  0  0  0
 19 39  1  0  0  0  0
M  END
> <s_m_source_file>
AV-unprocessed.smi

> <i_m_source_file_index>
476

> <i_lp_mmshare_version>
43012

> <i_f3d_flags>
0

> <s_epik_input>
W0NIM11jMVtjSF1zYyg9TyluMVtDSDJdQyg9TylbTkhdW0NIMl1bQ0gyXUMyPVtDSF1bQ0gyXVtDSDJdW0NIMl1bQ0gyXTI=

> <s_epik_cmdline>
J2VwaWtfcHl0aG9uJywgJy1waCcsICc3LjAnLCAnLXRuJywgJzgnLCAnLW1hJywgJzIwMCcsICctbWV0YWxfYmluZGluZycsICctaW1hZScsICc8aW5maWxlLm1hZT4nLCAnLW9tYWUnLCAnPG91dGZpbGUubWFlPic=

> <r_lp_tautomer_probability>
1

> <r_epik_Ionization_Penalty>
1.31088e-06

> <r_epik_Ionization_Penalty_Charging>
1.18065e-06

> <r_epik_Ionization_Penalty_Neutral>
1.30231e-07

> <r_epik_State_Penalty>
-0

> <r_epik_Charging_Adjusted_Penalty>
1.18065e-06

> <i_epik_Tot_Q>
0

> <i_epik_Tot_abs_Q>
0

> <r_epik_Metal_State_Penalty>
-0

> <b_epik_Metal_Only>
0

> <s_lp_Force_Field>
OPLS_2005

> <r_lp_Energy>
10.5339

> <b_lp_Chiralities_Consistent>
1

> <s_lp_Variant>
AV-unprocessed.smi:476-1

> <Gold.Version>
5.8.1

> <Gold.Id.Protein>
6NUR|6NUR_protein|mol2

> <Gold.PLP.Fitness>
48.1657

> <Gold.PLP.PLP>
-46.4492

> <Gold.PLP.part.hbond>
-2.0000

> <Gold.PLP.part.metal>
0.0000

> <Gold.PLP.part.buried>
0.8936

> <Gold.PLP.part.nonpolar>
-44.2464

> <Gold.PLP.part.repulsive>
0.0906

> <Gold.PLP.ligand.clash>
0.0000

> <Gold.PLP.ligand.torsion>
0.4049

> <Gold.PLP.Chemscore.Hbond>
0.8320

> <Gold.PLP.Chemscore.CHOScore>
0.0000

> <Gold.PLP.Chemscore.Metal>
0.0000

> <Gold.Chemscore.Hbonds>
donor molecule, donor type, donor heavy atom, donor atom, acceptor molecule, acceptor atom, score
      P1  H  7997  8008       L1     6  0.73

> <Gold.PLP.Chemscore.Internal.Correction>
0.0304

> <Gold.Rescore>
     Score         DG    S(hbond)    S(metal)    S(lipo)     H(rot)  DE(clash)    DE(int)     intcor
     15.26     -16.43       0.89        0.00     105.98       1.72       0.01       1.16       ----

> <Gold.Chemscore.Fitness>
15.2595

> <Gold.Chemscore.DG>
-16.4287

> <Gold.Chemscore.ZeroCoef>
-5.4800

> <Gold.Chemscore.Hbond>
0.8851

> <Gold.Chemscore.Metal>
0.0000

> <Gold.Chemscore.Lipo>
105.9802

> <Gold.Chemscore.Internal_Hbond>
0.0000

> <Gold.Chemscore.DEClash>
0.0057

> <Gold.Chemscore.DEInternal>
1.1635

> <Gold.Chemscore.Rot>
1.7215

> <Gold.Chemscore.Internal.Correction>
   9.000000E+99

> <Gold.Chemscore.Hbonds>
donor molecule, donor type, donor heavy atom, donor atom, acceptor molecule, acceptor atom, score
      P1  H  7997  8008       L1     6  0.70

> <Gold.Chemscore.Hbond.Weighted>
-2.9561

> <Gold.Chemscore.Metal.Weighted>
-0.0000

> <Gold.Chemscore.Lipo.Weighted>
-12.3997

> <Gold.Chemscore.Internal_Hbond.Weighted>
0.0000

> <Gold.Chemscore.DEClash.Weighted>
0.0057

> <Gold.Chemscore.DEInternal.Weighted>
1.1635

> <Gold.Chemscore.Rot.Weighted>
4.4070

> <Gold.Chemscore.Internal.Correction.Weighted>
   9.000000E+99

> <Gold.Protein.RotatedTorsions>
[ 6907 6896 6895 6894 ] final   -3.06 input  -60.11 | X-H torsion
[ 7974 7965 7964 7962 ] final  -78.35 input  175.53 | X-H torsion
[ 8008 7997 7996 7995 ] final -115.55 input   59.86 | X-H torsion
[ 10167 10162 10161 10158 ] final    2.00 input  -65.29 | X-H torsion
[ 10718 10713 10712 10709 ] final   74.50 input   66.30 | X-H torsion
[ 10763 10752 10751 10750 ] final  -22.99 input  -60.55 | X-H torsion
[ 11005 11000 10999 10996 ] final  113.33 input  -57.11 | X-H torsion

> <Gold.Protein.ActiveResidues>
 VAL166  LYS551  ARG553  GLY616  TRP617  ASP618  TYR619  PRO620  LYS621  CYS622 
 ASP623  PHE694  ASN695  SER759  ASP760  ASP761  ALA762  ILE779  LEU786  VAL792 
 PHE793  MET794  SER795  GLU796  ALA797  LYS798  CYS799  TRP800  GLU811  SER814 

> <Gold.Protein.RotatedAtoms>
  151.5199  135.1067  159.9875 H   0  0  0  0  0  0  0  0  0  0  0  0  # atno 6907 bound_to 6896
  152.4625  133.7848  159.6881 H   0  0  0  0  0  0  0  0  0  0  0  0  # atno 6908 bound_to 6896
  150.8593  133.7603  159.3023 H   0  0  0  0  0  0  0  0  0  0  0  0  # atno 6909 bound_to 6896
  145.5876  140.9436  143.1310 H   0  0  0  0  0  0  0  0  0  0  0  0  # atno 7974 bound_to 7965
  155.0538  140.0393  157.2553 H   0  0  0  0  0  0  0  0  0  0  0  0  # atno 8008 bound_to 7997
  154.7115  140.2694  155.6600 H   0  0  0  0  0  0  0  0  0  0  0  0  # atno 8009 bound_to 7997
  156.2791  140.2720  156.1759 H   0  0  0  0  0  0  0  0  0  0  0  0  # atno 8010 bound_to 7997
  140.6656  143.7189  150.7820 H   0  0  0  0  0  0  0  0  0  0  0  0  # atno 10167 bound_to 10162
  157.6595  130.9681  150.1220 H   0  0  0  0  0  0  0  0  0  0  0  0  # atno 10718 bound_to 10713
  153.6607  135.6976  153.5178 H   0  0  0  0  0  0  0  0  0  0  0  0  # atno 10763 bound_to 10752
  153.2634  135.4237  155.0916 H   0  0  0  0  0  0  0  0  0  0  0  0  # atno 10764 bound_to 10752
  154.8452  135.3560  154.6152 H   0  0  0  0  0  0  0  0  0  0  0  0  # atno 10765 bound_to 10752
  139.8950  134.9547  156.6722 H   0  0  0  0  0  0  0  0  0  0  0  0  # atno 11005 bound_to 11000
  144.7366  139.7569  143.7327 LP  0  0  0  0  0  0  0  0  0  0  0  0  # atno 17320 bound_to 7965
  146.1670  139.4806  142.9951 LP  0  0  0  0  0  0  0  0  0  0  0  0  # atno 17321 bound_to 7965
  140.0865  143.4918  152.2502 LP  0  0  0  0  0  0  0  0  0  0  0  0  # atno 17342 bound_to 10162
  139.5904  144.7547  151.3416 LP  0  0  0  0  0  0  0  0  0  0  0  0  # atno 17343 bound_to 10162
  156.2089  130.3665  149.8695 LP  0  0  0  0  0  0  0  0  0  0  0  0  # atno 17370 bound_to 10713
  156.6579  130.8770  151.3542 LP  0  0  0  0  0  0  0  0  0  0  0  0  # atno 17371 bound_to 10713
  140.7365  133.9014  155.8247 LP  0  0  0  0  0  0  0  0  0  0  0  0  # atno 17394 bound_to 11000
  141.0112  134.1018  157.4219 LP  0  0  0  0  0  0  0  0  0  0  0  0  # atno 17395 bound_to 11000

$$$$
