AV-unprocessed.smi:1307|AV-procd|sdf|5437|dock7
  -GOLD-   22720 5 03D 1   1.00000     0.00000
 Structure written by MMmdl.
 41 41  0  0  0  0  0  0  0  0  1 V2000
  146.8382  138.6597  152.0964 C   0  0  0  0  0  0  0  0  0  0  0  0
  146.9182  138.6539  153.6365 C   0  0  0  0  0  0  0  0  0  0  0  0
  148.3778  138.8720  154.0743 C   0  0  0  0  0  0  0  0  0  0  0  0
  146.3019  137.3717  154.2572 C   0  0  1  0  0  0  0  0  0  0  0  0
  144.7848  137.2490  154.0184 C   0  0  0  0  0  0  0  0  0  0  0  0
  146.9626  136.1878  153.7132 N   0  0  0  0  0  0  0  0  0  0  0  0
  146.6736  134.9101  154.0149 C   0  0  0  0  0  0  0  0  0  0  0  0
  145.7663  134.5940  154.7830 O   0  0  0  0  0  0  0  0  0  0  0  0
  147.5253  133.8023  153.3651 C   0  0  0  0  0  0  0  0  0  0  0  0
  146.7526  132.7309  152.6820 N   0  0  0  0  0  0  0  0  0  0  0  0
  147.0089  131.3569  152.9865 C   0  0  0  0  0  0  0  0  0  0  0  0
  148.0642  131.0023  154.0440 C   0  0  0  0  0  0  0  0  0  0  0  0
  148.1868  129.6808  154.1779 F   0  0  0  0  0  0  0  0  0  0  0  0
  149.2630  131.4681  153.6925 F   0  0  0  0  0  0  0  0  0  0  0  0
  147.7430  131.4767  155.2475 F   0  0  0  0  0  0  0  0  0  0  0  0
  146.3039  130.3919  152.3679 C   0  0  0  0  0  0  0  0  0  0  0  0
  145.2978  130.7371  151.4021 C   0  0  0  0  0  0  0  0  0  0  0  0
  145.0419  132.0309  151.1032 C   0  0  0  0  0  0  0  0  0  0  0  0
  144.0058  132.4363  150.1258 C   0  0  0  0  0  0  0  0  0  0  0  0
  143.2738  133.4914  150.5052 N   0  0  0  0  0  0  0  0  0  0  0  0
  143.7679  131.9124  149.0378 O   0  0  0  0  0  0  0  0  0  0  0  0
  145.8030  133.1224  151.7637 C   0  0  0  0  0  0  0  0  0  0  0  0
  145.6188  134.3224  151.5387 O   0  0  0  0  0  0  0  0  0  0  0  0
  147.3444  137.7923  151.6716 H   0  0  0  0  0  0  0  0  0  0  0  0
  147.3078  139.5521  151.6820 H   0  0  0  0  0  0  0  0  0  0  0  0
  145.8083  138.6524  151.7397 H   0  0  0  0  0  0  0  0  0  0  0  0
  146.3417  139.5103  153.9897 H   0  0  0  0  0  0  0  0  0  0  0  0
  149.0043  138.0221  153.8017 H   0  0  0  0  0  0  0  0  0  0  0  0
  148.4625  139.0204  155.1504 H   0  0  0  0  0  0  0  0  0  0  0  0
  148.8005  139.7587  153.6010 H   0  0  0  0  0  0  0  0  0  0  0  0
  146.4783  137.4030  155.3342 H   0  0  0  0  0  0  0  0  0  0  0  0
  144.2322  138.0494  154.5091 H   0  0  0  0  0  0  0  0  0  0  0  0
  144.3971  136.3109  154.4169 H   0  0  0  0  0  0  0  0  0  0  0  0
  144.5468  137.2789  152.9547 H   0  0  0  0  0  0  0  0  0  0  0  0
  147.7228  136.3559  153.0707 H   0  0  0  0  0  0  0  0  0  0  0  0
  148.2095  134.2803  152.6616 H   0  0  0  0  0  0  0  0  0  0  0  0
  148.2031  133.4170  154.1205 H   0  0  0  0  0  0  0  0  0  0  0  0
  146.4748  129.3486  152.5883 H   0  0  0  0  0  0  0  0  0  0  0  0
  144.7597  129.9229  150.9395 H   0  0  0  0  0  0  0  0  0  0  0  0
  142.5422  133.8428  149.9052 H   0  0  0  0  0  0  0  0  0  0  0  0
  143.4586  133.9328  151.3947 H   0  0  0  0  0  0  0  0  0  0  0  0
  1  2  1  0  0  0  0
  1 24  1  0  0  0  0
  1 25  1  0  0  0  0
  1 26  1  0  0  0  0
  2  3  1  0  0  0  0
  2  4  1  0  0  0  0
  2 27  1  0  0  0  0
  3 28  1  0  0  0  0
  3 29  1  0  0  0  0
  3 30  1  0  0  0  0
  4  5  1  0  0  0  0
  4  6  1  0  0  0  0
  4 31  1  0  0  0  0
  5 32  1  0  0  0  0
  5 33  1  0  0  0  0
  5 34  1  0  0  0  0
  6  7  1  0  0  0  0
  6 35  1  0  0  0  0
  7  8  2  0  0  0  0
  7  9  1  0  0  0  0
  9 10  1  0  0  0  0
  9 36  1  0  0  0  0
  9 37  1  0  0  0  0
 10 22  1  0  0  0  0
 10 11  1  0  0  0  0
 11 12  1  0  0  0  0
 11 16  2  0  0  0  0
 12 13  1  0  0  0  0
 12 14  1  0  0  0  0
 12 15  1  0  0  0  0
 16 17  1  0  0  0  0
 16 38  1  0  0  0  0
 17 18  2  0  0  0  0
 17 39  1  0  0  0  0
 18 19  1  0  0  0  0
 18 22  1  0  0  0  0
 19 20  1  0  0  0  0
 19 21  2  0  0  0  0
 20 40  1  0  0  0  0
 20 41  1  0  0  0  0
 22 23  2  0  0  0  0
M  END
> <s_m_source_file>
AV-unprocessed.smi

> <i_m_source_file_index>
1307

> <i_lp_mmshare_version>
43012

> <i_f3d_flags>
0

> <s_epik_input>
W0NIM11bQ0hdKFtDSDNdKVtDQEhdKFtDSDNdKVtOSF1DKD1PKVtDSDJdbjFjKEMoRikoRilGKVtjSF1bY0hdYyhjMT1PKUMoPU8pW05IMl0=

> <s_epik_cmdline>
J2VwaWtfcHl0aG9uJywgJy1waCcsICc3LjAnLCAnLXRuJywgJzgnLCAnLW1hJywgJzIwMCcsICctbWV0YWxfYmluZGluZycsICctaW1hZScsICc8aW5maWxlLm1hZT4nLCAnLW9tYWUnLCAnPG91dGZpbGUubWFlPic=

> <r_lp_tautomer_probability>
1

> <r_epik_Ionization_Penalty>
2.05992e-06

> <r_epik_Ionization_Penalty_Charging>
8.21357e-10

> <r_epik_Ionization_Penalty_Neutral>
2.0591e-06

> <r_epik_State_Penalty>
-0

> <r_epik_Charging_Adjusted_Penalty>
8.21357e-10

> <i_epik_Tot_Q>
0

> <i_epik_Tot_abs_Q>
0

> <r_epik_Metal_State_Penalty>
-0

> <b_epik_Metal_Only>
0

> <s_lp_Force_Field>
OPLS_2005

> <r_lp_Energy>
26.9387

> <b_lp_Chiralities_Consistent>
1

> <s_lp_Variant>
AV-unprocessed.smi:1307-2

> <Gold.Version>
5.8.1

> <Gold.Id.Protein>
6NUR|6NUR_protein|mol2

> <Gold.PLP.Fitness>
41.7365

> <Gold.PLP.PLP>
-35.2105

> <Gold.PLP.part.hbond>
-2.9757

> <Gold.PLP.part.metal>
0.0000

> <Gold.PLP.part.buried>
-4.0923

> <Gold.PLP.part.nonpolar>
-28.8980

> <Gold.PLP.part.repulsive>
0.4695

> <Gold.PLP.ligand.clash>
3.9215

> <Gold.PLP.ligand.torsion>
0.8685

> <Gold.PLP.Chemscore.Hbond>
2.7280

> <Gold.PLP.Chemscore.CHOScore>
0.0000

> <Gold.PLP.Chemscore.Metal>
0.0000

> <Gold.Chemscore.Hbonds>
donor molecule, donor type, donor heavy atom, donor atom, acceptor molecule, acceptor atom, score
      L1  H     6    35       P1  7948  1.00
      L1  H    20    40       P1 10186  1.00
      P1  H 10785 10796       L1    21  0.77

> <Gold.PLP.Chemscore.Internal.Correction>
4.0005

> <Gold.Rescore>
     Score         DG    S(hbond)    S(metal)    S(lipo)     H(rot)  DE(clash)    DE(int)     intcor
     12.06     -17.53       2.91        0.00      63.09       1.97       0.08       5.40       ----

> <Gold.Chemscore.Fitness>
12.0596

> <Gold.Chemscore.DG>
-17.5332

> <Gold.Chemscore.ZeroCoef>
-5.4800

> <Gold.Chemscore.Hbond>
2.9105

> <Gold.Chemscore.Metal>
0.0000

> <Gold.Chemscore.Lipo>
63.0858

> <Gold.Chemscore.Internal_Hbond>
0.0000

> <Gold.Chemscore.DEClash>
0.0773

> <Gold.Chemscore.DEInternal>
5.3963

> <Gold.Chemscore.Rot>
1.9723

> <Gold.Chemscore.Internal.Correction>
   9.000000E+99

> <Gold.Chemscore.Hbonds>
donor molecule, donor type, donor heavy atom, donor atom, acceptor molecule, acceptor atom, score
      L1  H     6    35       P1  7948  1.00
      L1  H    20    40       P1 10186  0.98
      P1  H 10785 10796       L1    21  0.76

> <Gold.Chemscore.Hbond.Weighted>
-9.7212

> <Gold.Chemscore.Metal.Weighted>
-0.0000

> <Gold.Chemscore.Lipo.Weighted>
-7.3810

> <Gold.Chemscore.Internal_Hbond.Weighted>
0.0000

> <Gold.Chemscore.DEClash.Weighted>
0.0773

> <Gold.Chemscore.DEInternal.Weighted>
5.3963

> <Gold.Chemscore.Rot.Weighted>
5.0490

> <Gold.Chemscore.Internal.Correction.Weighted>
   9.000000E+99

> <Gold.Protein.RotatedTorsions>
[ 6907 6896 6895 6894 ] final   33.92 input  -60.11 | X-H torsion
[ 7974 7965 7964 7962 ] final   21.61 input  175.53 | X-H torsion
[ 8008 7997 7996 7995 ] final  -25.46 input   59.86 | X-H torsion
[ 10167 10162 10161 10158 ] final   42.52 input  -65.29 | X-H torsion
[ 10718 10713 10712 10709 ] final  -28.61 input   66.30 | X-H torsion
[ 10763 10752 10751 10750 ] final   41.19 input  -60.55 | X-H torsion
[ 11005 11000 10999 10996 ] final  -86.66 input  -57.11 | X-H torsion

> <Gold.Protein.ActiveResidues>
 VAL166  LYS551  ARG553  GLY616  TRP617  ASP618  TYR619  PRO620  LYS621  CYS622 
 ASP623  PHE694  ASN695  SER759  ASP760  ASP761  ALA762  ILE779  LEU786  VAL792 
 PHE793  MET794  SER795  GLU796  ALA797  LYS798  CYS799  TRP800  GLU811  SER814 

> <Gold.Protein.RotatedAtoms>
  152.0952  134.9379  160.0570 H   0  0  0  0  0  0  0  0  0  0  0  0  # atno 6907 bound_to 6896
  152.0615  133.4059  159.4428 H   0  0  0  0  0  0  0  0  0  0  0  0  # atno 6908 bound_to 6896
  150.6838  134.3115  159.4792 H   0  0  0  0  0  0  0  0  0  0  0  0  # atno 6909 bound_to 6896
  146.2064  139.8003  142.8722 H   0  0  0  0  0  0  0  0  0  0  0  0  # atno 7974 bound_to 7965
  154.4474  140.1926  156.0624 H   0  0  0  0  0  0  0  0  0  0  0  0  # atno 8008 bound_to 7997
  156.0573  140.3301  155.7393 H   0  0  0  0  0  0  0  0  0  0  0  0  # atno 8009 bound_to 7997
  155.5466  140.0591  157.2850 H   0  0  0  0  0  0  0  0  0  0  0  0  # atno 8010 bound_to 7997
  140.3536  144.2319  150.6143 H   0  0  0  0  0  0  0  0  0  0  0  0  # atno 10167 bound_to 10162
  156.4230  130.4430  149.7170 H   0  0  0  0  0  0  0  0  0  0  0  0  # atno 10718 bound_to 10713
  152.9915  135.6169  154.2747 H   0  0  0  0  0  0  0  0  0  0  0  0  # atno 10763 bound_to 10752
  154.2479  135.2786  155.2830 H   0  0  0  0  0  0  0  0  0  0  0  0  # atno 10764 bound_to 10752
  154.5313  135.5787  153.6819 H   0  0  0  0  0  0  0  0  0  0  0  0  # atno 10765 bound_to 10752
  141.1627  133.7467  156.9194 H   0  0  0  0  0  0  0  0  0  0  0  0  # atno 11005 bound_to 11000
  145.3304  141.0265  143.3450 LP  0  0  0  0  0  0  0  0  0  0  0  0  # atno 17320 bound_to 7965
  144.8803  139.4913  143.6726 LP  0  0  0  0  0  0  0  0  0  0  0  0  # atno 17321 bound_to 7965
  140.5195  143.2269  151.8410 LP  0  0  0  0  0  0  0  0  0  0  0  0  # atno 17342 bound_to 10162
  139.4823  144.4853  151.9254 LP  0  0  0  0  0  0  0  0  0  0  0  0  # atno 17343 bound_to 10162
  156.4104  130.7719  151.2732 LP  0  0  0  0  0  0  0  0  0  0  0  0  # atno 17370 bound_to 10713
  157.7508  131.0213  150.3745 LP  0  0  0  0  0  0  0  0  0  0  0  0  # atno 17371 bound_to 10713
  140.1462  134.9261  157.2532 LP  0  0  0  0  0  0  0  0  0  0  0  0  # atno 17394 bound_to 11000
  140.2777  134.3386  155.7353 LP  0  0  0  0  0  0  0  0  0  0  0  0  # atno 17395 bound_to 11000

$$$$
