AV-unprocessed.smi:1601|AV-procd|sdf|6438|dock9
  -GOLD-   22720 7 83D 1   1.00000     0.00000
 Structure written by MMmdl.
 42 43  0  0  0  0  0  0  0  0  2 V2000
  144.3285  135.9585  154.0054 C   0  0  0  0  0  0  0  0  0  0  0  0
  145.7436  136.1580  153.4079 C   0  0  1  0  0  0  0  0  0  0  0  0
  146.7610  136.5353  154.5171 C   0  0  0  0  0  0  0  0  0  0  0  0
  147.7174  137.5555  154.0934 N   0  0  0  0  0  0  0  0  0  0  0  0
  147.7229  138.8374  154.4944 C   0  0  0  0  0  0  0  0  0  0  0  0
  146.8920  139.3018  155.2758 O   0  0  0  0  0  0  0  0  0  0  0  0
  148.8355  139.7239  153.9128 C   0  0  1  0  0  0  0  0  0  0  0  0
  148.6823  141.2059  154.3010 C   0  0  0  0  0  0  0  0  0  0  0  0
  150.1465  139.2179  154.2975 N   0  0  0  0  0  0  0  0  0  0  0  0
  150.6912  137.9658  154.0856 C   0  0  0  0  0  0  0  0  0  0  0  0
  151.9389  137.9631  154.6395 C   0  0  0  0  0  0  0  0  0  0  0  0
  152.0710  139.2723  155.1800 C   0  0  0  0  0  0  0  0  0  0  0  0
  150.9982  140.0191  154.9751 N   0  0  0  0  0  0  0  0  0  0  0  0
  146.2352  134.9664  152.6389 N   0  3  0  0  0  0  0  0  0  0  0  0
  146.6095  133.7802  153.4591 C   0  0  0  0  0  0  0  0  0  0  0  0
  147.1256  132.6312  152.5755 C   0  0  0  0  0  0  0  0  0  0  0  0
  146.1463  132.2888  151.6068 O   0  0  0  0  0  0  0  0  0  0  0  0
  145.8677  133.3808  150.7439 C   0  0  0  0  0  0  0  0  0  0  0  0
  145.2940  134.5482  151.5634 C   0  0  0  0  0  0  0  0  0  0  0  0
  143.9947  136.8340  154.5609 H   0  0  0  0  0  0  0  0  0  0  0  0
  144.3006  135.1083  154.6877 H   0  0  0  0  0  0  0  0  0  0  0  0
  143.5736  135.8059  153.2343 H   0  0  0  0  0  0  0  0  0  0  0  0
  145.6706  136.9939  152.7102 H   0  0  0  0  0  0  0  0  0  0  0  0
  146.2294  136.8461  155.4180 H   0  0  0  0  0  0  0  0  0  0  0  0
  147.3615  135.6761  154.8090 H   0  0  0  0  0  0  0  0  0  0  0  0
  148.4411  137.2631  153.4522 H   0  0  0  0  0  0  0  0  0  0  0  0
  148.7554  139.6648  152.8254 H   0  0  0  0  0  0  0  0  0  0  0  0
  147.7102  141.5956  153.9973 H   0  0  0  0  0  0  0  0  0  0  0  0
  149.4443  141.8145  153.8132 H   0  0  0  0  0  0  0  0  0  0  0  0
  148.7811  141.3557  155.3768 H   0  0  0  0  0  0  0  0  0  0  0  0
  150.1503  137.1900  153.5637 H   0  0  0  0  0  0  0  0  0  0  0  0
  152.6477  137.1489  154.6591 H   0  0  0  0  0  0  0  0  0  0  0  0
  152.9080  139.6990  155.7127 H   0  0  0  0  0  0  0  0  0  0  0  0
  147.4044  134.0278  154.1620 H   0  0  0  0  0  0  0  0  0  0  0  0
  145.7471  133.4484  154.0396 H   0  0  0  0  0  0  0  0  0  0  0  0
  148.0603  132.9071  152.0843 H   0  0  0  0  0  0  0  0  0  0  0  0
  147.3371  131.7543  153.1877 H   0  0  0  0  0  0  0  0  0  0  0  0
  146.7697  133.6827  150.2091 H   0  0  0  0  0  0  0  0  0  0  0  0
  145.1455  133.0595  149.9933 H   0  0  0  0  0  0  0  0  0  0  0  0
  144.3419  134.2524  152.0073 H   0  0  0  0  0  0  0  0  0  0  0  0
  145.0818  135.3696  150.8819 H   0  0  0  0  0  0  0  0  0  0  0  0
  147.0876  135.2604  152.1832 H   0  0  0  0  0  0  0  0  0  0  0  0
  1  2  1  0  0  0  0
  1 20  1  0  0  0  0
  1 21  1  0  0  0  0
  1 22  1  0  0  0  0
  2  3  1  0  0  0  0
  2 14  1  0  0  0  0
  2 23  1  0  0  0  0
  3  4  1  0  0  0  0
  3 24  1  0  0  0  0
  3 25  1  0  0  0  0
  4  5  1  0  0  0  0
  4 26  1  0  0  0  0
  5  6  2  0  0  0  0
  5  7  1  0  0  0  0
  7  8  1  0  0  0  0
  7  9  1  0  0  0  0
  7 27  1  0  0  0  0
  8 28  1  0  0  0  0
  8 29  1  0  0  0  0
  8 30  1  0  0  0  0
  9 13  1  0  0  0  0
  9 10  1  0  0  0  0
 10 11  2  0  0  0  0
 10 31  1  0  0  0  0
 11 12  1  0  0  0  0
 11 32  1  0  0  0  0
 12 13  2  0  0  0  0
 12 33  1  0  0  0  0
 14 19  1  0  0  0  0
 14 15  1  0  0  0  0
 14 42  1  0  0  0  0
 15 16  1  0  0  0  0
 15 34  1  0  0  0  0
 15 35  1  0  0  0  0
 16 17  1  0  0  0  0
 16 36  1  0  0  0  0
 16 37  1  0  0  0  0
 17 18  1  0  0  0  0
 18 19  1  0  0  0  0
 18 38  1  0  0  0  0
 18 39  1  0  0  0  0
 19 40  1  0  0  0  0
 19 41  1  0  0  0  0
M  CHG  1  14   1
M  END
> <s_m_source_file>
AV-unprocessed.smi

> <i_m_source_file_index>
1601

> <i_lp_mmshare_version>
43012

> <i_f3d_flags>
0

> <s_epik_input>
W0NIMl0xW0NIMl1PW0NIMl1bQ0gyXU4xW0NASF0oW0NIM10pW0NIMl1bTkhdQyg9TylbQ0BIXShbQ0gzXSluMltjSF1bY0hdW2NIXW4y

> <s_epik_cmdline>
J2VwaWtfcHl0aG9uJywgJy1waCcsICc3LjAnLCAnLXRuJywgJzgnLCAnLW1hJywgJzIwMCcsICctbWV0YWxfYmluZGluZycsICctaW1hZScsICc8aW5maWxlLm1hZT4nLCAnLW9tYWUnLCAnPG91dGZpbGUubWFlPic=

> <r_lp_tautomer_probability>
1

> <r_epik_Ionization_Penalty>
0.732551

> <r_epik_Ionization_Penalty_Charging>
0.732531

> <r_epik_Ionization_Penalty_Neutral>
2.04647e-05

> <r_epik_State_Penalty>
0.757939

> <r_epik_Charging_Adjusted_Penalty>
1.49047

> <i_epik_Tot_Q>
1

> <i_epik_Tot_abs_Q>
1

> <r_epik_Metal_State_Penalty>
0.757952

> <b_epik_Metal_Only>
0

> <s_lp_Force_Field>
OPLS_2005

> <r_lp_Energy>
25.2472

> <b_lp_Chiralities_Consistent>
1

> <s_lp_Variant>
AV-unprocessed.smi:1601-8

> <Gold.Version>
5.8.1

> <Gold.Id.Protein>
6NUR|6NUR_protein|mol2

> <Gold.PLP.Fitness>
42.5651

> <Gold.PLP.PLP>
-30.7212

> <Gold.PLP.part.hbond>
-3.0000

> <Gold.PLP.part.metal>
0.0000

> <Gold.PLP.part.buried>
-0.9828

> <Gold.PLP.part.nonpolar>
-27.0552

> <Gold.PLP.part.repulsive>
0.2088

> <Gold.PLP.ligand.clash>
0.0000

> <Gold.PLP.ligand.torsion>
0.6908

> <Gold.PLP.Chemscore.Hbond>
3.2690

> <Gold.PLP.Chemscore.CHOScore>
1.0995

> <Gold.PLP.Chemscore.Metal>
0.0000

> <Gold.Chemscore.Hbonds>
donor molecule, donor type, donor heavy atom, donor atom, acceptor molecule, acceptor atom, score
      L1  H     4    26       P1  7948  0.99
      L1  H    14    42       P1  7948  1.66
      P1  H  7989  7998       L1    13  0.60
      L1  C    10    31       P1  7948  0.96
      L1  C    10    31       P1  7949  0.10

> <Gold.PLP.Chemscore.Internal.Correction>
0.1200

> <Gold.Rescore>
     Score         DG    S(hbond)    S(metal)    S(lipo)     H(rot)  DE(clash)    DE(int)     intcor
     13.86     -14.90       1.87        0.00      68.00       1.86       0.13       0.91       ----

> <Gold.Chemscore.Fitness>
13.8553

> <Gold.Chemscore.DG>
-14.8974

> <Gold.Chemscore.ZeroCoef>
-5.4800

> <Gold.Chemscore.Hbond>
1.8656

> <Gold.Chemscore.Metal>
0.0000

> <Gold.Chemscore.Lipo>
67.9991

> <Gold.Chemscore.Internal_Hbond>
0.0000

> <Gold.Chemscore.DEClash>
0.1289

> <Gold.Chemscore.DEInternal>
0.9132

> <Gold.Chemscore.Rot>
1.8631

> <Gold.Chemscore.Internal.Correction>
   9.000000E+99

> <Gold.Chemscore.Hbonds>
donor molecule, donor type, donor heavy atom, donor atom, acceptor molecule, acceptor atom, score
      L1  H     4    26       P1  7948  0.92
      L1  H    14    42       P1  7948  0.82
      P1  H  7989  7998       L1    13  0.01

> <Gold.Chemscore.Hbond.Weighted>
-6.2312

> <Gold.Chemscore.Metal.Weighted>
-0.0000

> <Gold.Chemscore.Lipo.Weighted>
-7.9559

> <Gold.Chemscore.Internal_Hbond.Weighted>
0.0000

> <Gold.Chemscore.DEClash.Weighted>
0.1289

> <Gold.Chemscore.DEInternal.Weighted>
0.9132

> <Gold.Chemscore.Rot.Weighted>
4.7697

> <Gold.Chemscore.Internal.Correction.Weighted>
   9.000000E+99

> <Gold.Protein.RotatedTorsions>
[ 6907 6896 6895 6894 ] final  156.16 input  -60.11 | X-H torsion
[ 7974 7965 7964 7962 ] final -136.13 input  175.53 | X-H torsion
[ 8008 7997 7996 7995 ] final  -81.83 input   59.86 | X-H torsion
[ 10167 10162 10161 10158 ] final  141.38 input  -65.29 | X-H torsion
[ 10718 10713 10712 10709 ] final -161.72 input   66.30 | X-H torsion
[ 10763 10752 10751 10750 ] final  141.56 input  -60.55 | X-H torsion
[ 11005 11000 10999 10996 ] final   21.88 input  -57.11 | X-H torsion

> <Gold.Protein.ActiveResidues>
 VAL166  LYS551  ARG553  GLY616  TRP617  ASP618  TYR619  PRO620  LYS621  CYS622 
 ASP623  PHE694  ASN695  SER759  ASP760  ASP761  ALA762  ILE779  LEU786  VAL792 
 PHE793  MET794  SER795  GLU796  ALA797  LYS798  CYS799  TRP800  GLU811  SER814 

> <Gold.Protein.RotatedAtoms>
  152.0337  133.3948  159.4307 H   0  0  0  0  0  0  0  0  0  0  0  0  # atno 6907 bound_to 6896
  150.6880  134.3492  159.4911 H   0  0  0  0  0  0  0  0  0  0  0  0  # atno 6908 bound_to 6896
  152.1281  134.9155  160.0610 H   0  0  0  0  0  0  0  0  0  0  0  0  # atno 6909 bound_to 6896
  144.8953  140.6698  143.5119 H   0  0  0  0  0  0  0  0  0  0  0  0  # atno 7974 bound_to 7965
  154.6023  140.0642  156.9385 H   0  0  0  0  0  0  0  0  0  0  0  0  # atno 8008 bound_to 7997
  155.2111  140.3322  155.4310 H   0  0  0  0  0  0  0  0  0  0  0  0  # atno 8009 bound_to 7997
  156.2326  140.1848  156.7187 H   0  0  0  0  0  0  0  0  0  0  0  0  # atno 8010 bound_to 7997
  139.5022  144.6175  151.6130 H   0  0  0  0  0  0  0  0  0  0  0  0  # atno 10167 bound_to 10162
  156.6002  130.8807  151.2912 H   0  0  0  0  0  0  0  0  0  0  0  0  # atno 10718 bound_to 10713
  153.9412  135.2980  155.3442 H   0  0  0  0  0  0  0  0  0  0  0  0  # atno 10763 bound_to 10752
  154.7476  135.4995  153.9234 H   0  0  0  0  0  0  0  0  0  0  0  0  # atno 10764 bound_to 10752
  153.1041  135.6742  153.9725 H   0  0  0  0  0  0  0  0  0  0  0  0  # atno 10765 bound_to 10752
  140.3867  134.1862  155.7663 H   0  0  0  0  0  0  0  0  0  0  0  0  # atno 11005 bound_to 11000
  145.3710  139.1658  143.4332 LP  0  0  0  0  0  0  0  0  0  0  0  0  # atno 17320 bound_to 7965
  146.3078  140.3782  142.8681 LP  0  0  0  0  0  0  0  0  0  0  0  0  # atno 17321 bound_to 7965
  140.5867  143.9851  150.6300 LP  0  0  0  0  0  0  0  0  0  0  0  0  # atno 17342 bound_to 10162
  140.3018  143.3255  152.0964 LP  0  0  0  0  0  0  0  0  0  0  0  0  # atno 17343 bound_to 10162
  157.7281  130.9653  150.1729 LP  0  0  0  0  0  0  0  0  0  0  0  0  # atno 17370 bound_to 10713
  156.2475  130.3697  149.8268 LP  0  0  0  0  0  0  0  0  0  0  0  0  # atno 17371 bound_to 10713
  141.1905  133.8216  157.0917 LP  0  0  0  0  0  0  0  0  0  0  0  0  # atno 17394 bound_to 11000
  140.0437  134.9841  157.1009 LP  0  0  0  0  0  0  0  0  0  0  0  0  # atno 17395 bound_to 11000

$$$$
