AV-unprocessed.smi:3063|AV-procd|sdf|11685|dock3
  -GOLD-   2272017 93D 1   1.00000     0.00000
 Structure written by MMmdl.
 44 45  0  0  0  0  0  0  0  0  1 V2000
  150.6734  141.7673  155.8813 C   0  0  0  0  0  0  0  0  0  0  0  0
  149.9689  140.7209  155.0152 C   0  0  0  0  0  0  0  0  0  0  0  0
  150.6615  139.8754  154.4484 O   0  0  0  0  0  0  0  0  0  0  0  0
  148.6210  140.7677  154.8841 N   0  0  0  0  0  0  0  0  0  0  0  0
  147.8046  141.7219  155.6494 C   0  0  0  0  0  0  0  0  0  0  0  0
  147.3779  141.1293  157.0088 C   0  0  0  0  0  0  0  0  0  0  0  0
  146.5636  139.8241  156.8787 C   0  0  0  0  0  0  0  0  0  0  0  0
  147.3622  138.7473  156.2611 N   0  0  0  0  0  0  0  0  0  0  0  0
  148.1963  137.9114  156.9338 C   0  0  0  0  0  0  0  0  0  0  0  0
  148.7205  136.9215  156.4220 O   0  0  0  0  0  0  0  0  0  0  0  0
  148.4001  138.2404  158.2215 N   0  0  0  0  0  0  0  0  0  0  0  0
  149.1754  137.4715  159.1935 C   0  0  2  0  0  0  0  0  0  0  0  0
  150.6082  137.2977  158.6656 C   0  0  0  0  0  0  0  0  0  0  0  0
  148.4841  136.1339  159.5499 C   0  0  0  0  0  0  0  0  0  0  0  0
  147.9229  136.1035  160.8898 N   0  0  0  0  0  0  0  0  0  0  0  0
  147.5906  135.0013  161.6462 C   0  0  0  0  0  0  0  0  0  0  0  0
  147.0981  135.4542  162.8358 C   0  0  0  0  0  0  0  0  0  0  0  0
  147.1630  136.8698  162.7086 C   0  0  0  0  0  0  0  0  0  0  0  0
  147.6525  137.2558  161.5411 N   0  0  0  0  0  0  0  0  0  0  0  0
  147.2033  138.6674  154.7974 C   0  0  0  0  0  0  0  0  0  0  0  0
  147.8381  139.8573  154.0303 C   0  0  0  0  0  0  0  0  0  0  0  0
  150.3642  142.7759  155.6064 H   0  0  0  0  0  0  0  0  0  0  0  0
  151.7546  141.7069  155.7514 H   0  0  0  0  0  0  0  0  0  0  0  0
  150.4532  141.6043  156.9365 H   0  0  0  0  0  0  0  0  0  0  0  0
  148.3423  142.6580  155.8074 H   0  0  0  0  0  0  0  0  0  0  0  0
  146.9159  142.0024  155.0829 H   0  0  0  0  0  0  0  0  0  0  0  0
  148.2575  140.9584  157.6302 H   0  0  0  0  0  0  0  0  0  0  0  0
  146.7775  141.8683  157.5401 H   0  0  0  0  0  0  0  0  0  0  0  0
  146.1763  139.5241  157.8532 H   0  0  0  0  0  0  0  0  0  0  0  0
  145.6730  140.0191  156.2798 H   0  0  0  0  0  0  0  0  0  0  0  0
  147.9455  139.0733  158.5667 H   0  0  0  0  0  0  0  0  0  0  0  0
  149.2423  138.0608  160.1097 H   0  0  0  0  0  0  0  0  0  0  0  0
  151.2114  136.7089  159.3572 H   0  0  0  0  0  0  0  0  0  0  0  0
  151.0986  138.2637  158.5430 H   0  0  0  0  0  0  0  0  0  0  0  0
  150.6253  136.7964  157.6974 H   0  0  0  0  0  0  0  0  0  0  0  0
  147.6833  135.9325  158.8368 H   0  0  0  0  0  0  0  0  0  0  0  0
  149.1850  135.3037  159.4543 H   0  0  0  0  0  0  0  0  0  0  0  0
  147.7349  133.9994  161.2744 H   0  0  0  0  0  0  0  0  0  0  0  0
  146.7437  134.8640  163.6677 H   0  0  0  0  0  0  0  0  0  0  0  0
  146.8692  137.6231  163.4244 H   0  0  0  0  0  0  0  0  0  0  0  0
  147.6144  137.7387  154.3991 H   0  0  0  0  0  0  0  0  0  0  0  0
  146.1404  138.6094  154.5593 H   0  0  0  0  0  0  0  0  0  0  0  0
  147.0403  140.4265  153.5518 H   0  0  0  0  0  0  0  0  0  0  0  0
  148.4220  139.4835  153.1894 H   0  0  0  0  0  0  0  0  0  0  0  0
  1  2  1  0  0  0  0
  1 22  1  0  0  0  0
  1 23  1  0  0  0  0
  1 24  1  0  0  0  0
  2  3  2  0  0  0  0
  2  4  1  0  0  0  0
  4 21  1  0  0  0  0
  4  5  1  0  0  0  0
  5  6  1  0  0  0  0
  5 25  1  0  0  0  0
  5 26  1  0  0  0  0
  6  7  1  0  0  0  0
  6 27  1  0  0  0  0
  6 28  1  0  0  0  0
  7  8  1  0  0  0  0
  7 29  1  0  0  0  0
  7 30  1  0  0  0  0
  8  9  1  0  0  0  0
  8 20  1  0  0  0  0
  9 10  2  0  0  0  0
  9 11  1  0  0  0  0
 11 12  1  0  0  0  0
 11 31  1  0  0  0  0
 12 13  1  0  0  0  0
 12 14  1  0  0  0  0
 12 32  1  0  0  0  0
 13 33  1  0  0  0  0
 13 34  1  0  0  0  0
 13 35  1  0  0  0  0
 14 15  1  0  0  0  0
 14 36  1  0  0  0  0
 14 37  1  0  0  0  0
 15 19  1  0  0  0  0
 15 16  1  0  0  0  0
 16 17  2  0  0  0  0
 16 38  1  0  0  0  0
 17 18  1  0  0  0  0
 17 39  1  0  0  0  0
 18 19  2  0  0  0  0
 18 40  1  0  0  0  0
 20 21  1  0  0  0  0
 20 41  1  0  0  0  0
 20 42  1  0  0  0  0
 21 43  1  0  0  0  0
 21 44  1  0  0  0  0
M  END
> <s_m_source_file>
AV-unprocessed.smi

> <i_m_source_file_index>
3063

> <i_lp_mmshare_version>
43012

> <i_f3d_flags>
0

> <s_epik_input>
W0NIM11DKD1PKU4xW0NIMl1bQ0gyXVtDSDJdTihbQ0gyXVtDSDJdMSlDKD1PKVtOSF1bQ0BIXShbQ0gzXSlbQ0gyXW4yW2NIXVtjSF1bY0hdbjI=

> <s_epik_cmdline>
J2VwaWtfcHl0aG9uJywgJy1waCcsICc3LjAnLCAnLXRuJywgJzgnLCAnLW1hJywgJzIwMCcsICctbWV0YWxfYmluZGluZycsICctaW1hZScsICc8aW5maWxlLm1hZT4nLCAnLW9tYWUnLCAnPG91dGZpbGUubWFlPic=

> <r_lp_tautomer_probability>
1

> <r_epik_Ionization_Penalty>
6.19559e-05

> <r_epik_Ionization_Penalty_Charging>
0

> <r_epik_Ionization_Penalty_Neutral>
6.19559e-05

> <r_epik_State_Penalty>
-0

> <r_epik_Charging_Adjusted_Penalty>
0

> <i_epik_Tot_Q>
0

> <i_epik_Tot_abs_Q>
0

> <r_epik_Metal_State_Penalty>
-0

> <b_epik_Metal_Only>
0

> <s_lp_Force_Field>
OPLS_2005

> <r_lp_Energy>
38.8795

> <b_lp_Chiralities_Consistent>
1

> <s_lp_Variant>
AV-unprocessed.smi:3063-1

> <Gold.Version>
5.8.1

> <Gold.Id.Protein>
6NUR|6NUR_protein|mol2

> <Gold.PLP.Fitness>
39.7761

> <Gold.PLP.PLP>
-33.5215

> <Gold.PLP.part.hbond>
-3.0000

> <Gold.PLP.part.metal>
0.0000

> <Gold.PLP.part.buried>
-3.8872

> <Gold.PLP.part.nonpolar>
-26.2995

> <Gold.PLP.part.repulsive>
0.2617

> <Gold.PLP.ligand.clash>
0.0000

> <Gold.PLP.ligand.torsion>
1.0758

> <Gold.PLP.Chemscore.Hbond>
2.7840

> <Gold.PLP.Chemscore.CHOScore>
0.0000

> <Gold.PLP.Chemscore.Metal>
0.0000

> <Gold.Chemscore.Hbonds>
donor molecule, donor type, donor heavy atom, donor atom, acceptor molecule, acceptor atom, score
      P1  H  6931  6943       L1    19  0.96
      P1  H  6934  6947       L1    19  0.77
      P1  H  7989  7998       L1     3  1.00

> <Gold.PLP.Chemscore.Internal.Correction>
0.0543

> <Gold.Rescore>
     Score         DG    S(hbond)    S(metal)    S(lipo)     H(rot)  DE(clash)    DE(int)     intcor
     15.18     -16.95       2.47        0.00      58.89       1.44       0.04       1.73       ----

> <Gold.Chemscore.Fitness>
15.1822

> <Gold.Chemscore.DG>
-16.9503

> <Gold.Chemscore.ZeroCoef>
-5.4800

> <Gold.Chemscore.Hbond>
2.4725

> <Gold.Chemscore.Metal>
0.0000

> <Gold.Chemscore.Lipo>
58.8925

> <Gold.Chemscore.Internal_Hbond>
0.0000

> <Gold.Chemscore.DEClash>
0.0376

> <Gold.Chemscore.DEInternal>
1.7304

> <Gold.Chemscore.Rot>
1.4368

> <Gold.Chemscore.Internal.Correction>
   9.000000E+99

> <Gold.Chemscore.Hbonds>
donor molecule, donor type, donor heavy atom, donor atom, acceptor molecule, acceptor atom, score
      P1  H  6931  6943       L1    19  0.47
      P1  H  6934  6947       L1    19  0.71
      P1  H  7989  7998       L1     3  0.26

> <Gold.Chemscore.Hbond.Weighted>
-8.2581

> <Gold.Chemscore.Metal.Weighted>
-0.0000

> <Gold.Chemscore.Lipo.Weighted>
-6.8904

> <Gold.Chemscore.Internal_Hbond.Weighted>
0.0000

> <Gold.Chemscore.DEClash.Weighted>
0.0376

> <Gold.Chemscore.DEInternal.Weighted>
1.7304

> <Gold.Chemscore.Rot.Weighted>
3.6782

> <Gold.Chemscore.Internal.Correction.Weighted>
   9.000000E+99

> <Gold.Protein.RotatedTorsions>
[ 6907 6896 6895 6894 ] final   28.71 input  -60.11 | X-H torsion
[ 7974 7965 7964 7962 ] final  113.96 input  175.53 | X-H torsion
[ 8008 7997 7996 7995 ] final   21.79 input   59.86 | X-H torsion
[ 10167 10162 10161 10158 ] final  115.12 input  -65.29 | X-H torsion
[ 10718 10713 10712 10709 ] final   -5.17 input   66.30 | X-H torsion
[ 10763 10752 10751 10750 ] final  136.74 input  -60.55 | X-H torsion
[ 11005 11000 10999 10996 ] final  -50.54 input  -57.11 | X-H torsion

> <Gold.Protein.ActiveResidues>
 VAL166  LYS551  ARG553  GLY616  TRP617  ASP618  TYR619  PRO620  LYS621  CYS622 
 ASP623  PHE694  ASN695  SER759  ASP760  ASP761  ALA762  ILE779  LEU786  VAL792 
 PHE793  MET794  SER795  GLU796  ALA797  LYS798  CYS799  TRP800  GLU811  SER814 

> <Gold.Protein.RotatedAtoms>
  152.0210  134.9823  160.0570 H   0  0  0  0  0  0  0  0  0  0  0  0  # atno 6907 bound_to 6896
  152.1337  133.4418  159.4741 H   0  0  0  0  0  0  0  0  0  0  0  0  # atno 6908 bound_to 6896
  150.6858  134.2308  159.4477 H   0  0  0  0  0  0  0  0  0  0  0  0  # atno 6909 bound_to 6896
  145.2104  139.2909  143.4271 H   0  0  0  0  0  0  0  0  0  0  0  0  # atno 7974 bound_to 7965
  154.9560  140.3072  155.5053 H   0  0  0  0  0  0  0  0  0  0  0  0  # atno 8008 bound_to 7997
  156.2982  140.2310  156.4579 H   0  0  0  0  0  0  0  0  0  0  0  0  # atno 8009 bound_to 7997
  154.8010  140.0434  157.1261 H   0  0  0  0  0  0  0  0  0  0  0  0  # atno 8010 bound_to 7997
  139.6340  144.7118  151.2373 H   0  0  0  0  0  0  0  0  0  0  0  0  # atno 10167 bound_to 10162
  156.7505  130.5238  149.5805 H   0  0  0  0  0  0  0  0  0  0  0  0  # atno 10718 bound_to 10713
  153.8616  135.3067  155.3438 H   0  0  0  0  0  0  0  0  0  0  0  0  # atno 10763 bound_to 10752
  154.7846  135.4816  153.9921 H   0  0  0  0  0  0  0  0  0  0  0  0  # atno 10764 bound_to 10752
  153.1458  135.6833  153.9051 H   0  0  0  0  0  0  0  0  0  0  0  0  # atno 10765 bound_to 10752
  141.0821  133.6651  156.3745 H   0  0  0  0  0  0  0  0  0  0  0  0  # atno 11005 bound_to 11000
  146.3399  140.2378  142.8595 LP  0  0  0  0  0  0  0  0  0  0  0  0  # atno 17320 bound_to 7965
  144.9861  140.8504  143.5368 LP  0  0  0  0  0  0  0  0  0  0  0  0  # atno 17321 bound_to 7965
  140.7455  143.6429  150.8318 LP  0  0  0  0  0  0  0  0  0  0  0  0  # atno 17342 bound_to 10162
  140.0058  143.5695  152.2858 LP  0  0  0  0  0  0  0  0  0  0  0  0  # atno 17343 bound_to 10162
  156.1404  130.6241  151.0460 LP  0  0  0  0  0  0  0  0  0  0  0  0  # atno 17370 bound_to 10713
  157.6779  131.0845  150.7446 LP  0  0  0  0  0  0  0  0  0  0  0  0  # atno 17371 bound_to 10713
  140.5445  134.6088  157.5389 LP  0  0  0  0  0  0  0  0  0  0  0  0  # atno 17394 bound_to 11000
  139.9636  134.7411  156.0185 LP  0  0  0  0  0  0  0  0  0  0  0  0  # atno 17395 bound_to 11000

$$$$
