AV-unprocessed.smi:1962|AV-procd|sdf|7925|dock6
  -GOLD-   2272010 93D 1   1.00000     0.00000
 Structure written by MMmdl.
 35 36  0  0  0  0  0  0  0  0  2 V2000
  152.7510  138.7340  155.0224 C   0  0  0  0  0  0  0  0  0  0  0  0
  151.5833  139.7272  155.1014 C   0  0  1  0  0  0  0  0  0  0  0  0
  150.4248  139.3069  154.1584 C   0  0  0  0  0  0  0  0  0  0  0  0
  149.2490  140.1725  154.2189 N   0  0  0  0  0  0  0  0  0  0  0  0
  147.9354  139.8345  154.4873 C   0  0  0  0  0  0  0  0  0  0  0  0
  147.1986  140.9832  154.4461 C   0  0  0  0  0  0  0  0  0  0  0  0
  148.1602  141.9901  154.1551 C   0  0  0  0  0  0  0  0  0  0  0  0
  149.3850  141.5067  154.0334 N   0  0  0  0  0  0  0  0  0  0  0  0
  151.1123  139.7879  156.4901 N   0  5  0  0  0  0  0  0  0  0  0  0
  151.0204  140.9238  157.2474 C   0  0  0  0  0  0  0  0  0  0  0  0
  150.2709  141.8842  157.0321 O   0  0  0  0  0  0  0  0  0  0  0  0
  151.8873  141.0528  158.4563 C   0  0  0  0  0  0  0  0  0  0  0  0
  151.8216  142.1263  159.1808 N   0  0  0  0  0  0  0  0  0  0  0  0
  152.5852  142.2981  160.3166 N   0  0  0  0  0  0  0  0  0  0  0  0
  152.1956  143.4344  161.1486 C   0  0  0  0  0  0  0  0  0  0  0  0
  153.6383  141.5175  160.6630 C   0  0  0  0  0  0  0  0  0  0  0  0
  154.2938  141.6697  161.6941 O   0  0  0  0  0  0  0  0  0  0  0  0
  154.0233  140.4143  159.6743 C   0  0  0  0  0  0  0  0  0  0  0  0
  152.8168  139.9188  158.8532 C   0  0  0  0  0  0  0  0  0  0  0  0
  153.1439  138.6736  154.0075 H   0  0  0  0  0  0  0  0  0  0  0  0
  152.4431  137.7305  155.3188 H   0  0  0  0  0  0  0  0  0  0  0  0
  153.5718  139.0378  155.6731 H   0  0  0  0  0  0  0  0  0  0  0  0
  151.9638  140.6906  154.7581 H   0  0  0  0  0  0  0  0  0  0  0  0
  150.7768  139.3113  153.1263 H   0  0  0  0  0  0  0  0  0  0  0  0
  150.1202  138.2801  154.3692 H   0  0  0  0  0  0  0  0  0  0  0  0
  147.6385  138.8130  154.6744 H   0  0  0  0  0  0  0  0  0  0  0  0
  146.1352  141.0875  154.6008 H   0  0  0  0  0  0  0  0  0  0  0  0
  148.0069  143.0522  154.0351 H   0  0  0  0  0  0  0  0  0  0  0  0
  151.8636  143.0934  162.1299 H   0  0  0  0  0  0  0  0  0  0  0  0
  151.3798  144.0061  160.7033 H   0  0  0  0  0  0  0  0  0  0  0  0
  153.0351  144.1168  161.2888 H   0  0  0  0  0  0  0  0  0  0  0  0
  154.7781  140.8257  159.0030 H   0  0  0  0  0  0  0  0  0  0  0  0
  154.4910  139.5820  160.2015 H   0  0  0  0  0  0  0  0  0  0  0  0
  152.2555  139.1785  159.4243 H   0  0  0  0  0  0  0  0  0  0  0  0
  153.1993  139.4030  157.9720 H   0  0  0  0  0  0  0  0  0  0  0  0
  1  2  1  0  0  0  0
  1 20  1  0  0  0  0
  1 21  1  0  0  0  0
  1 22  1  0  0  0  0
  2  3  1  0  0  0  0
  2  9  1  0  0  0  0
  2 23  1  0  0  0  0
  3  4  1  0  0  0  0
  3 24  1  0  0  0  0
  3 25  1  0  0  0  0
  4  8  1  0  0  0  0
  4  5  1  0  0  0  0
  5  6  2  0  0  0  0
  5 26  1  0  0  0  0
  6  7  1  0  0  0  0
  6 27  1  0  0  0  0
  7  8  2  0  0  0  0
  7 28  1  0  0  0  0
  9 10  1  0  0  0  0
 10 11  2  0  0  0  0
 10 12  1  0  0  0  0
 12 19  1  0  0  0  0
 12 13  2  0  0  0  0
 13 14  1  0  0  0  0
 14 15  1  0  0  0  0
 14 16  1  0  0  0  0
 15 29  1  0  0  0  0
 15 30  1  0  0  0  0
 15 31  1  0  0  0  0
 16 17  2  0  0  0  0
 16 18  1  0  0  0  0
 18 19  1  0  0  0  0
 18 32  1  0  0  0  0
 18 33  1  0  0  0  0
 19 34  1  0  0  0  0
 19 35  1  0  0  0  0
M  CHG  1   9  -1
M  END
> <s_m_source_file>
AV-unprocessed.smi

> <i_m_source_file_index>
1962

> <i_lp_mmshare_version>
43012

> <i_f3d_flags>
0

> <s_epik_input>
bjFbY0hdW2NIXVtjSF1uMVtDSDJdW0NAQEhdKFtDSDNdKVtOSF1DKD1PKUMyPU5OKFtDSDNdKUMoPU8pW0NIMl1bQ0gyXTI=

> <s_epik_cmdline>
J2VwaWtfcHl0aG9uJywgJy1waCcsICc3LjAnLCAnLXRuJywgJzgnLCAnLW1hJywgJzIwMCcsICctbWV0YWxfYmluZGluZycsICctaW1hZScsICc8aW5maWxlLm1hZT4nLCAnLW9tYWUnLCAnPG91dGZpbGUubWFlPic=

> <r_lp_tautomer_probability>
1

> <r_epik_Ionization_Penalty>
5.21086

> <r_epik_Ionization_Penalty_Charging>
5.21084

> <r_epik_Ionization_Penalty_Neutral>
2.41961e-05

> <r_epik_State_Penalty>
5.21075

> <r_epik_Charging_Adjusted_Penalty>
10.4216

> <i_epik_Tot_Q>
-1

> <i_epik_Tot_abs_Q>
1

> <r_epik_Metal_State_Penalty>
1.27477

> <b_epik_Metal_Only>
1

> <s_epik_Chemistry_Notes>
This compound has an imine and may undergo hydrolysis.

> <s_lp_Force_Field>
OPLS_2005

> <r_lp_Energy>
25.3594

> <b_lp_Chiralities_Consistent>
1

> <s_lp_Variant>
AV-unprocessed.smi:1962-4

> <Gold.Version>
5.8.1

> <Gold.Id.Protein>
6NUR|6NUR_protein|mol2

> <Gold.PLP.Fitness>
42.6795

> <Gold.PLP.PLP>
-39.7812

> <Gold.PLP.part.hbond>
-3.0000

> <Gold.PLP.part.metal>
0.0000

> <Gold.PLP.part.buried>
-0.9408

> <Gold.PLP.part.nonpolar>
-34.2910

> <Gold.PLP.part.repulsive>
0.2793

> <Gold.PLP.ligand.clash>
0.0000

> <Gold.PLP.ligand.torsion>
0.6743

> <Gold.PLP.Chemscore.Hbond>
0.5239

> <Gold.PLP.Chemscore.CHOScore>
0.8817

> <Gold.PLP.Chemscore.Metal>
0.0000

> <Gold.Chemscore.Hbonds>
donor molecule, donor type, donor heavy atom, donor atom, acceptor molecule, acceptor atom, score
      P1  H  7989  7998       L1     8  0.01
      P1  H  8011  8017       L1     8  0.54
      L1  C     7    28       P1  8028  0.88

> <Gold.PLP.Chemscore.Internal.Correction>
0.0300

> <Gold.Rescore>
     Score         DG    S(hbond)    S(metal)    S(lipo)     H(rot)  DE(clash)    DE(int)     intcor
      9.49     -10.21       0.02        0.00      72.47       1.50       0.05       0.68       ----

> <Gold.Chemscore.Fitness>
9.4871

> <Gold.Chemscore.DG>
-10.2091

> <Gold.Chemscore.ZeroCoef>
-5.4800

> <Gold.Chemscore.Hbond>
0.0242

> <Gold.Chemscore.Metal>
0.0000

> <Gold.Chemscore.Lipo>
72.4715

> <Gold.Chemscore.Internal_Hbond>
0.0000

> <Gold.Chemscore.DEClash>
0.0460

> <Gold.Chemscore.DEInternal>
0.6759

> <Gold.Chemscore.Rot>
1.4964

> <Gold.Chemscore.Internal.Correction>
   9.000000E+99

> <Gold.Chemscore.Hbonds>
donor molecule, donor type, donor heavy atom, donor atom, acceptor molecule, acceptor atom, score
      P1  H  8011  8017       L1     8  0.08

> <Gold.Chemscore.Hbond.Weighted>
-0.0808

> <Gold.Chemscore.Metal.Weighted>
-0.0000

> <Gold.Chemscore.Lipo.Weighted>
-8.4792

> <Gold.Chemscore.Internal_Hbond.Weighted>
0.0000

> <Gold.Chemscore.DEClash.Weighted>
0.0460

> <Gold.Chemscore.DEInternal.Weighted>
0.6759

> <Gold.Chemscore.Rot.Weighted>
3.8309

> <Gold.Chemscore.Internal.Correction.Weighted>
   9.000000E+99

> <Gold.Protein.RotatedTorsions>
[ 6907 6896 6895 6894 ] final -176.45 input  -60.11 | X-H torsion
[ 7974 7965 7964 7962 ] final -127.83 input  175.53 | X-H torsion
[ 8008 7997 7996 7995 ] final   36.64 input   59.86 | X-H torsion
[ 10167 10162 10161 10158 ] final -136.66 input  -65.29 | X-H torsion
[ 10718 10713 10712 10709 ] final -156.96 input   66.30 | X-H torsion
[ 10763 10752 10751 10750 ] final  -63.53 input  -60.55 | X-H torsion
[ 11005 11000 10999 10996 ] final -113.25 input  -57.11 | X-H torsion

> <Gold.Protein.ActiveResidues>
 VAL166  LYS551  ARG553  GLY616  TRP617  ASP618  TYR619  PRO620  LYS621  CYS622 
 ASP623  PHE694  ASN695  SER759  ASP760  ASP761  ALA762  ILE779  LEU786  VAL792 
 PHE793  MET794  SER795  GLU796  ALA797  LYS798  CYS799  TRP800  GLU811  SER814 

> <Gold.Protein.RotatedAtoms>
  151.6050  133.3352  159.3055 H   0  0  0  0  0  0  0  0  0  0  0  0  # atno 6907 bound_to 6896
  150.8187  134.7387  159.6764 H   0  0  0  0  0  0  0  0  0  0  0  0  # atno 6908 bound_to 6896
  152.4282  134.5834  160.0005 H   0  0  0  0  0  0  0  0  0  0  0  0  # atno 6909 bound_to 6896
  144.9732  140.7566  143.4658 H   0  0  0  0  0  0  0  0  0  0  0  0  # atno 7974 bound_to 7965
  155.1907  140.3307  155.4359 H   0  0  0  0  0  0  0  0  0  0  0  0  # atno 8008 bound_to 7997
  156.2443  140.1911  156.6950 H   0  0  0  0  0  0  0  0  0  0  0  0  # atno 8009 bound_to 7997
  154.6208  140.0596  156.9598 H   0  0  0  0  0  0  0  0  0  0  0  0  # atno 8010 bound_to 7997
  139.8656  143.7022  152.2645 H   0  0  0  0  0  0  0  0  0  0  0  0  # atno 10167 bound_to 10162
  156.5337  130.8532  151.2725 H   0  0  0  0  0  0  0  0  0  0  0  0  # atno 10718 bound_to 10713
  154.3164  135.6205  153.5488 H   0  0  0  0  0  0  0  0  0  0  0  0  # atno 10763 bound_to 10752
  152.9824  135.5713  154.5119 H   0  0  0  0  0  0  0  0  0  0  0  0  # atno 10764 bound_to 10752
  154.4779  135.2862  155.1570 H   0  0  0  0  0  0  0  0  0  0  0  0  # atno 10765 bound_to 10752
  141.0626  133.9511  157.2639 H   0  0  0  0  0  0  0  0  0  0  0  0  # atno 11005 bound_to 11000
  145.2529  139.2024  143.4933 LP  0  0  0  0  0  0  0  0  0  0  0  0  # atno 17320 bound_to 7965
  146.3388  140.2445  142.8596 LP  0  0  0  0  0  0  0  0  0  0  0  0  # atno 17321 bound_to 7965
  139.7332  144.7577  151.0768 LP  0  0  0  0  0  0  0  0  0  0  0  0  # atno 17342 bound_to 10162
  140.7768  143.5062  150.9709 LP  0  0  0  0  0  0  0  0  0  0  0  0  # atno 17343 bound_to 10162
  157.7417  130.9876  150.2466 LP  0  0  0  0  0  0  0  0  0  0  0  0  # atno 17370 bound_to 10713
  156.3036  130.3762  149.7727 LP  0  0  0  0  0  0  0  0  0  0  0  0  # atno 17371 bound_to 10713
  139.9446  135.0186  156.8814 LP  0  0  0  0  0  0  0  0  0  0  0  0  # atno 17394 bound_to 11000
  140.5838  134.0327  155.7474 LP  0  0  0  0  0  0  0  0  0  0  0  0  # atno 17395 bound_to 11000

$$$$
