AV-unprocessed.smi:157|AV-procd|sdf|1294|dock6
  -GOLD-   2262018573D 1   1.00000     0.00000
 Structure written by MMmdl.
 35 37  0  0  0  0  0  0  0  0  1 V2000
  152.0736  141.1208  159.4046 O   0  0  0  0  0  0  0  0  0  0  0  0
  151.8923  139.7224  159.4889 C   0  0  0  0  0  0  0  0  0  0  0  0
  153.0328  138.9767  158.7651 C   0  0  2  0  0  0  0  0  0  0  0  0
  152.9691  139.3451  157.3856 O   0  0  0  0  0  0  0  0  0  0  0  0
  152.5972  138.2519  156.5986 C   0  0  2  0  0  0  0  0  0  0  0  0
  151.5180  138.6774  155.6532 N   0  0  0  0  0  0  0  0  0  0  0  0
  151.2165  138.1093  154.4777 C   0  0  0  0  0  0  0  0  0  0  0  0
  150.2148  138.6827  153.8322 N   0  0  0  0  0  0  0  0  0  0  0  0
  149.8352  139.7337  154.6653 C   0  0  0  0  0  0  0  0  0  0  0  0
  150.6386  139.7542  155.7964 C   0  0  0  0  0  0  0  0  0  0  0  0
  150.7392  140.5337  156.9331 N   0  0  0  0  0  0  0  0  0  0  0  0
  150.1938  141.7089  156.9142 C   0  0  0  0  0  0  0  0  0  0  0  0
  149.4116  142.3175  155.9430 N   0  0  0  0  0  0  0  0  0  0  0  0
  148.2784  141.6657  155.3090 C   0  0  0  0  0  0  0  0  0  0  0  0
  148.6805  140.6096  154.2721 C   0  0  1  0  0  0  0  0  0  0  0  0
  149.0407  141.2541  153.0674 O   0  0  0  0  0  0  0  0  0  0  0  0
  152.0766  137.1757  157.5445 C   0  0  0  0  0  0  0  0  0  0  0  0
  152.9372  137.4397  158.7589 C   0  0  2  0  0  0  0  0  0  0  0  0
  152.3768  136.8731  159.9259 O   0  0  0  0  0  0  0  0  0  0  0  0
  153.9933  139.3015  159.1675 H   0  0  0  0  0  0  0  0  0  0  0  0
  153.4375  137.9322  155.9813 H   0  0  0  0  0  0  0  0  0  0  0  0
  147.8082  139.9936  154.0515 H   0  0  0  0  0  0  0  0  0  0  0  0
  153.9290  137.0148  158.5984 H   0  0  0  0  0  0  0  0  0  0  0  0
  152.8692  141.2920  158.9242 H   0  0  0  0  0  0  0  0  0  0  0  0
  151.8085  139.4156  160.5317 H   0  0  0  0  0  0  0  0  0  0  0  0
  150.9393  139.4896  159.0128 H   0  0  0  0  0  0  0  0  0  0  0  0
  151.7418  137.2514  154.0847 H   0  0  0  0  0  0  0  0  0  0  0  0
  150.3360  142.3596  157.7781 H   0  0  0  0  0  0  0  0  0  0  0  0
  149.2788  143.3174  155.9900 H   0  0  0  0  0  0  0  0  0  0  0  0
  147.7015  141.1809  156.0980 H   0  0  0  0  0  0  0  0  0  0  0  0
  147.6193  142.4130  154.8664 H   0  0  0  0  0  0  0  0  0  0  0  0
  149.3046  140.5919  152.4466 H   0  0  0  0  0  0  0  0  0  0  0  0
  151.0213  137.3504  157.7614 H   0  0  0  0  0  0  0  0  0  0  0  0
  152.1980  136.1792  157.1186 H   0  0  0  0  0  0  0  0  0  0  0  0
  151.6370  137.3996  160.1884 H   0  0  0  0  0  0  0  0  0  0  0  0
  1  2  1  0  0  0  0
  1 24  1  0  0  0  0
  2  3  1  0  0  0  0
  2 25  1  0  0  0  0
  2 26  1  0  0  0  0
  3 20  1  0  0  0  0
  3 18  1  0  0  0  0
  3  4  1  0  0  0  0
  4  5  1  0  0  0  0
  5 21  1  0  0  0  0
  5  6  1  0  0  0  0
  5 17  1  0  0  0  0
  6 10  1  0  0  0  0
  6  7  1  0  0  0  0
  7  8  2  0  0  0  0
  7 27  1  0  0  0  0
  8  9  1  0  0  0  0
  9 15  1  0  0  0  0
  9 10  2  0  0  0  0
 10 11  1  0  0  0  0
 11 12  2  0  0  0  0
 12 13  1  0  0  0  0
 12 28  1  0  0  0  0
 13 14  1  0  0  0  0
 13 29  1  0  0  0  0
 14 15  1  0  0  0  0
 14 30  1  0  0  0  0
 14 31  1  0  0  0  0
 15 22  1  0  0  0  0
 15 16  1  0  0  0  0
 16 32  1  0  0  0  0
 17 18  1  0  0  0  0
 17 33  1  0  0  0  0
 17 34  1  0  0  0  0
 18 23  1  0  0  0  0
 18 19  1  0  0  0  0
 19 35  1  0  0  0  0
M  END
> <s_m_source_file>
AV-unprocessed.smi

> <i_m_source_file_index>
157

> <i_lp_mmshare_version>
43012

> <i_f3d_flags>
0

> <s_epik_input>
W09IXVtDSDJdW0NASF0xT1tDQEhdKFtDSDJdW0NAQEhdMVtPSF0pbihbY0hdbjIpYyhjMjMpTj1bQ0hdW05IXVtDSDJdW0NASF0zW09IXQ==

> <s_epik_cmdline>
J2VwaWtfcHl0aG9uJywgJy1waCcsICc3LjAnLCAnLXRuJywgJzgnLCAnLW1hJywgJzIwMCcsICctbWV0YWxfYmluZGluZycsICctaW1hZScsICc8aW5maWxlLm1hZT4nLCAnLW9tYWUnLCAnPG91dGZpbGUubWFlPic=

> <r_lp_tautomer_probability>
1

> <r_epik_Ionization_Penalty>
0.0357149

> <r_epik_Ionization_Penalty_Charging>
0.0355056

> <r_epik_Ionization_Penalty_Neutral>
0.000209255

> <r_epik_State_Penalty>
0.0296046

> <r_epik_Charging_Adjusted_Penalty>
0.0651102

> <i_epik_Tot_Q>
0

> <i_epik_Tot_abs_Q>
0

> <r_epik_Metal_State_Penalty>
3.03559e-05

> <b_epik_Metal_Only>
0

> <s_epik_Chemistry_Notes>
This compound has an imine and may undergo hydrolysis. This compound contains an acetal/aminal-like group ( X-CH(R)-Y where X, Y are N, S, or O) that may be acid/base labile, releasing an aldehyde.

> <s_lp_Force_Field>
OPLS_2005

> <r_lp_Energy>
46.7001

> <b_lp_Chiralities_Consistent>
1

> <s_lp_Variant>
AV-unprocessed.smi:157-4

> <Gold.Version>
5.8.1

> <Gold.Id.Protein>
6NUR|6NUR_protein|mol2

> <Gold.PLP.Fitness>
41.2109

> <Gold.PLP.PLP>
-27.3640

> <Gold.PLP.part.hbond>
-5.0191

> <Gold.PLP.part.metal>
0.0000

> <Gold.PLP.part.buried>
-3.7895

> <Gold.PLP.part.nonpolar>
-20.5799

> <Gold.PLP.part.repulsive>
0.9497

> <Gold.PLP.ligand.clash>
0.0000

> <Gold.PLP.ligand.torsion>
0.7002

> <Gold.PLP.Chemscore.Hbond>
4.6825

> <Gold.PLP.Chemscore.CHOScore>
0.3956

> <Gold.PLP.Chemscore.Metal>
0.0000

> <Gold.Chemscore.Hbonds>
donor molecule, donor type, donor heavy atom, donor atom, acceptor molecule, acceptor atom, score
      L1  H    13    29       P1  8028  0.91
      L1  H    16    32       P1  7957  0.75
      P1  H  6896  6909       L1    19  1.00
      P1  H  7997  8009       L1     4  1.00
      P1  H  8011  8017       L1    16  0.70

> <Gold.PLP.Chemscore.Internal.Correction>
0.0131

> <Gold.Rescore>
     Score         DG    S(hbond)    S(metal)    S(lipo)     H(rot)  DE(clash)    DE(int)     intcor
      9.01     -12.79       3.65        0.00      37.90       3.64       0.03       3.75       ----

> <Gold.Chemscore.Fitness>
9.0091

> <Gold.Chemscore.DG>
-12.7876

> <Gold.Chemscore.ZeroCoef>
-5.4800

> <Gold.Chemscore.Hbond>
3.6473

> <Gold.Chemscore.Metal>
0.0000

> <Gold.Chemscore.Lipo>
37.8994

> <Gold.Chemscore.Internal_Hbond>
0.0000

> <Gold.Chemscore.DEClash>
0.0318

> <Gold.Chemscore.DEInternal>
3.7467

> <Gold.Chemscore.Rot>
3.6362

> <Gold.Chemscore.Internal.Correction>
   9.000000E+99

> <Gold.Chemscore.Hbonds>
donor molecule, donor type, donor heavy atom, donor atom, acceptor molecule, acceptor atom, score
      L1  H    13    29       P1  8028  0.87
      L1  H    16    32       P1  7957  0.72
      P1  H  6896  6909       L1    19  0.60
      P1  H  7997  8009       L1     4  0.67
      P1  H  8011  8017       L1    16  0.07

> <Gold.Chemscore.Hbond.Weighted>
-12.1821

> <Gold.Chemscore.Metal.Weighted>
-0.0000

> <Gold.Chemscore.Lipo.Weighted>
-4.4342

> <Gold.Chemscore.Internal_Hbond.Weighted>
0.0000

> <Gold.Chemscore.DEClash.Weighted>
0.0318

> <Gold.Chemscore.DEInternal.Weighted>
3.7467

> <Gold.Chemscore.Rot.Weighted>
9.3087

> <Gold.Chemscore.Internal.Correction.Weighted>
   9.000000E+99

> <Gold.Protein.RotatedTorsions>
[ 6907 6896 6895 6894 ] final  136.69 input  -60.11 | X-H torsion
[ 7974 7965 7964 7962 ] final -124.70 input  175.53 | X-H torsion
[ 8008 7997 7996 7995 ] final  169.68 input   59.86 | X-H torsion
[ 10167 10162 10161 10158 ] final  -69.91 input  -65.29 | X-H torsion
[ 10718 10713 10712 10709 ] final  149.61 input   66.30 | X-H torsion
[ 10763 10752 10751 10750 ] final -168.96 input  -60.55 | X-H torsion
[ 11005 11000 10999 10996 ] final  -31.62 input  -57.11 | X-H torsion

> <Gold.Protein.ActiveResidues>
 VAL166  LYS551  ARG553  GLY616  TRP617  ASP618  TYR619  PRO620  LYS621  CYS622 
 ASP623  PHE694  ASN695  SER759  ASP760  ASP761  ALA762  ILE779  LEU786  VAL792 
 PHE793  MET794  SER795  GLU796  ALA797  LYS798  CYS799  TRP800  GLU811  SER814 

> <Gold.Protein.RotatedAtoms>
  152.2865  133.5520  159.5530 H   0  0  0  0  0  0  0  0  0  0  0  0  # atno 6907 bound_to 6896
  150.7217  134.0489  159.3800 H   0  0  0  0  0  0  0  0  0  0  0  0  # atno 6908 bound_to 6896
  151.8397  135.0594  160.0497 H   0  0  0  0  0  0  0  0  0  0  0  0  # atno 6909 bound_to 6896
  145.0053  140.7857  143.4471 H   0  0  0  0  0  0  0  0  0  0  0  0  # atno 7974 bound_to 7965
  156.1435  140.1558  156.8883 H   0  0  0  0  0  0  0  0  0  0  0  0  # atno 8008 bound_to 7997
  154.5008  140.0826  156.7832 H   0  0  0  0  0  0  0  0  0  0  0  0  # atno 8009 bound_to 7997
  155.4032  140.3415  155.4260 H   0  0  0  0  0  0  0  0  0  0  0  0  # atno 8010 bound_to 7997
  140.5394  143.2316  151.7117 H   0  0  0  0  0  0  0  0  0  0  0  0  # atno 10167 bound_to 10162
  157.2940  131.0858  151.1441 H   0  0  0  0  0  0  0  0  0  0  0  0  # atno 10718 bound_to 10713
  154.6573  135.2920  154.9911 H   0  0  0  0  0  0  0  0  0  0  0  0  # atno 10763 bound_to 10752
  154.0983  135.6580  153.4868 H   0  0  0  0  0  0  0  0  0  0  0  0  # atno 10764 bound_to 10752
  153.0410  135.5236  154.7508 H   0  0  0  0  0  0  0  0  0  0  0  0  # atno 10765 bound_to 10752
  140.9483  133.7236  156.1181 H   0  0  0  0  0  0  0  0  0  0  0  0  # atno 11005 bound_to 11000
  145.2097  139.2211  143.5149 LP  0  0  0  0  0  0  0  0  0  0  0  0  # atno 17320 bound_to 7965
  146.3460  140.1932  142.8589 LP  0  0  0  0  0  0  0  0  0  0  0  0  # atno 17321 bound_to 7965
  139.4983  144.3992  152.0199 LP  0  0  0  0  0  0  0  0  0  0  0  0  # atno 17342 bound_to 10162
  140.3100  144.3549  150.6036 LP  0  0  0  0  0  0  0  0  0  0  0  0  # atno 17343 bound_to 10162
  157.2826  130.6757  149.6073 LP  0  0  0  0  0  0  0  0  0  0  0  0  # atno 17370 bound_to 10713
  155.9668  130.4445  150.5464 LP  0  0  0  0  0  0  0  0  0  0  0  0  # atno 17371 bound_to 10713
  140.7638  134.3910  157.5521 LP  0  0  0  0  0  0  0  0  0  0  0  0  # atno 17394 bound_to 11000
  139.8840  134.8978  156.2731 LP  0  0  0  0  0  0  0  0  0  0  0  0  # atno 17395 bound_to 11000

$$$$
