AV-unprocessed.smi:2625|AV-procd|sdf|10235|dock3
  -GOLD-   2272014243D 1   1.00000     0.00000
 Structure written by MMmdl.
 24 24  0  0  0  0  0  0  0  0  1 V2000
  153.1720  139.5902  159.1574 C   0  0  0  0  0  0  0  0  0  0  0  0
  153.1227  139.5538  157.7424 O   0  0  0  0  0  0  0  0  0  0  0  0
  151.8225  139.2772  157.2489 C   0  0  0  0  0  0  0  0  0  0  0  0
  151.7921  139.4529  155.7217 C   0  0  0  0  0  0  0  0  0  0  0  0
  150.5778  140.0864  155.2476 N   0  0  0  0  0  0  0  0  0  0  0  0
  149.6988  139.4827  154.3447 C   0  0  0  0  0  0  0  0  0  0  0  0
  149.9847  138.2159  153.8669 N   0  0  0  0  0  0  0  0  0  0  0  0
  148.5647  140.1038  153.9322 C   0  0  0  0  0  0  0  0  0  0  0  0
  148.2049  141.4316  154.4163 C   0  0  0  0  0  0  0  0  0  0  0  0
  147.2006  142.0586  154.0863 O   0  0  0  0  0  0  0  0  0  0  0  0
  149.1088  141.9806  155.3255 N   0  0  0  0  0  0  0  0  0  0  0  0
  150.2780  141.3687  155.7731 C   0  0  0  0  0  0  0  0  0  0  0  0
  150.9884  141.9531  156.5919 O   0  0  0  0  0  0  0  0  0  0  0  0
  148.8956  142.8957  155.6947 H   0  0  0  0  0  0  0  0  0  0  0  0
  154.1907  139.8016  159.4825 H   0  0  0  0  0  0  0  0  0  0  0  0
  152.8730  138.6334  159.5875 H   0  0  0  0  0  0  0  0  0  0  0  0
  152.5233  140.3720  159.5541 H   0  0  0  0  0  0  0  0  0  0  0  0
  151.5536  138.2500  157.4983 H   0  0  0  0  0  0  0  0  0  0  0  0
  151.0867  139.9287  157.7230 H   0  0  0  0  0  0  0  0  0  0  0  0
  152.6531  140.0119  155.3520 H   0  0  0  0  0  0  0  0  0  0  0  0
  151.8446  138.4874  155.2186 H   0  0  0  0  0  0  0  0  0  0  0  0
  150.8128  137.7127  154.1523 H   0  0  0  0  0  0  0  0  0  0  0  0
  149.3801  137.7457  153.2089 H   0  0  0  0  0  0  0  0  0  0  0  0
  147.9028  139.6135  153.2318 H   0  0  0  0  0  0  0  0  0  0  0  0
  1  2  1  0  0  0  0
  1 15  1  0  0  0  0
  1 16  1  0  0  0  0
  1 17  1  0  0  0  0
  2  3  1  0  0  0  0
  3  4  1  0  0  0  0
  3 18  1  0  0  0  0
  3 19  1  0  0  0  0
  4  5  1  0  0  0  0
  4 20  1  0  0  0  0
  4 21  1  0  0  0  0
  5 12  1  0  0  0  0
  5  6  1  0  0  0  0
  6  7  1  0  0  0  0
  6  8  2  0  0  0  0
  7 22  1  0  0  0  0
  7 23  1  0  0  0  0
  8  9  1  0  0  0  0
  8 24  1  0  0  0  0
  9 10  2  0  0  0  0
  9 11  1  0  0  0  0
 11 14  1  0  0  0  0
 11 12  1  0  0  0  0
 12 13  2  0  0  0  0
M  END
> <s_m_source_file>
AV-unprocessed.smi

> <i_m_source_file_index>
2625

> <i_lp_mmshare_version>
43012

> <i_f3d_flags>
0

> <s_epik_input>
W0NIM11PW0NIMl1bQ0gyXW4xYyhbTkgyXSlbY0hdYyg9TylbbkhdYzE9Tw==

> <s_epik_cmdline>
J2VwaWtfcHl0aG9uJywgJy1waCcsICc3LjAnLCAnLXRuJywgJzgnLCAnLW1hJywgJzIwMCcsICctbWV0YWxfYmluZGluZycsICctaW1hZScsICc8aW5maWxlLm1hZT4nLCAnLW9tYWUnLCAnPG91dGZpbGUubWFlPic=

> <r_lp_tautomer_probability>
1

> <r_epik_Ionization_Penalty>
6.81436e-06

> <r_epik_Ionization_Penalty_Charging>
1.95411e-06

> <r_epik_Ionization_Penalty_Neutral>
4.86025e-06

> <r_epik_State_Penalty>
-0

> <r_epik_Charging_Adjusted_Penalty>
1.95411e-06

> <i_epik_Tot_Q>
0

> <i_epik_Tot_abs_Q>
0

> <r_epik_Metal_State_Penalty>
-0

> <b_epik_Metal_Only>
0

> <s_epik_Chemistry_Notes>
This compound has an imine and may undergo hydrolysis.

> <s_lp_Force_Field>
OPLS_2005

> <r_lp_Energy>
12.62

> <b_lp_Chiralities_Consistent>
1

> <s_lp_Variant>
AV-unprocessed.smi:2625-1

> <Gold.Version>
5.8.1

> <Gold.Id.Protein>
6NUR|6NUR_protein|mol2

> <Gold.PLP.Fitness>
31.3174

> <Gold.PLP.PLP>
-22.9412

> <Gold.PLP.part.hbond>
-3.2057

> <Gold.PLP.part.metal>
0.0000

> <Gold.PLP.part.buried>
-1.6799

> <Gold.PLP.part.nonpolar>
-18.6124

> <Gold.PLP.part.repulsive>
0.4518

> <Gold.PLP.ligand.clash>
0.0000

> <Gold.PLP.ligand.torsion>
0.2998

> <Gold.PLP.Chemscore.Hbond>
2.9913

> <Gold.PLP.Chemscore.CHOScore>
0.0000

> <Gold.PLP.Chemscore.Metal>
0.0000

> <Gold.Chemscore.Hbonds>
donor molecule, donor type, donor heavy atom, donor atom, acceptor molecule, acceptor atom, score
      L1  H     7    23       P1  7948  0.98
      L1  H    11    14       P1  8028  1.00
      P1  H  7997  8010       L1     2  1.00

> <Gold.PLP.Chemscore.Internal.Correction>
0.0021

> <Gold.Rescore>
     Score         DG    S(hbond)    S(metal)    S(lipo)     H(rot)  DE(clash)    DE(int)     intcor
     11.53     -13.33       2.90        0.00      24.75       1.84       0.20       1.59       ----

> <Gold.Chemscore.Fitness>
11.5330

> <Gold.Chemscore.DG>
-13.3304

> <Gold.Chemscore.ZeroCoef>
-5.4800

> <Gold.Chemscore.Hbond>
2.8959

> <Gold.Chemscore.Metal>
0.0000

> <Gold.Chemscore.Lipo>
24.7503

> <Gold.Chemscore.Internal_Hbond>
0.0000

> <Gold.Chemscore.DEClash>
0.2047

> <Gold.Chemscore.DEInternal>
1.5926

> <Gold.Chemscore.Rot>
1.8428

> <Gold.Chemscore.Internal.Correction>
   9.000000E+99

> <Gold.Chemscore.Hbonds>
donor molecule, donor type, donor heavy atom, donor atom, acceptor molecule, acceptor atom, score
      L1  H     7    23       P1  7948  0.85
      L1  H    11    14       P1  8028  0.98
      P1  H  7997  8010       L1     2  0.98

> <Gold.Chemscore.Hbond.Weighted>
-9.6722

> <Gold.Chemscore.Metal.Weighted>
-0.0000

> <Gold.Chemscore.Lipo.Weighted>
-2.8958

> <Gold.Chemscore.Internal_Hbond.Weighted>
0.0000

> <Gold.Chemscore.DEClash.Weighted>
0.2047

> <Gold.Chemscore.DEInternal.Weighted>
1.5926

> <Gold.Chemscore.Rot.Weighted>
4.7177

> <Gold.Chemscore.Internal.Correction.Weighted>
   9.000000E+99

> <Gold.Protein.RotatedTorsions>
[ 6907 6896 6895 6894 ] final  -45.37 input  -60.11 | X-H torsion
[ 7974 7965 7964 7962 ] final   50.46 input  175.53 | X-H torsion
[ 8008 7997 7996 7995 ] final   48.45 input   59.86 | X-H torsion
[ 10167 10162 10161 10158 ] final -175.23 input  -65.29 | X-H torsion
[ 10718 10713 10712 10709 ] final  -29.64 input   66.30 | X-H torsion
[ 10763 10752 10751 10750 ] final  -29.57 input  -60.55 | X-H torsion
[ 11005 11000 10999 10996 ] final  -71.31 input  -57.11 | X-H torsion

> <Gold.Protein.ActiveResidues>
 VAL166  LYS551  ARG553  GLY616  TRP617  ASP618  TYR619  PRO620  LYS621  CYS622 
 ASP623  PHE694  ASN695  SER759  ASP760  ASP761  ALA762  ILE779  LEU786  VAL792 
 PHE793  MET794  SER795  GLU796  ALA797  LYS798  CYS799  TRP800  GLU811  SER814 

> <Gold.Protein.RotatedAtoms>
  150.9227  134.8644  159.7498 H   0  0  0  0  0  0  0  0  0  0  0  0  # atno 6907 bound_to 6896
  152.5000  134.4195  159.9486 H   0  0  0  0  0  0  0  0  0  0  0  0  # atno 6908 bound_to 6896
  151.4228  133.3653  159.2793 H   0  0  0  0  0  0  0  0  0  0  0  0  # atno 6909 bound_to 6896
  146.0010  139.4439  143.0015 H   0  0  0  0  0  0  0  0  0  0  0  0  # atno 7974 bound_to 7965
  155.3858  140.3431  155.4249 H   0  0  0  0  0  0  0  0  0  0  0  0  # atno 8008 bound_to 7997
  156.1585  140.1593  156.8685 H   0  0  0  0  0  0  0  0  0  0  0  0  # atno 8009 bound_to 7997
  154.5117  140.0788  156.7984 H   0  0  0  0  0  0  0  0  0  0  0  0  # atno 8010 bound_to 7997
  139.5592  144.1912  152.1210 H   0  0  0  0  0  0  0  0  0  0  0  0  # atno 10167 bound_to 10162
  156.4099  130.4406  149.7260 H   0  0  0  0  0  0  0  0  0  0  0  0  # atno 10718 bound_to 10713
  153.7668  135.6915  153.4914 H   0  0  0  0  0  0  0  0  0  0  0  0  # atno 10763 bound_to 10752
  153.1901  135.4474  155.0137 H   0  0  0  0  0  0  0  0  0  0  0  0  # atno 10764 bound_to 10752
  154.8132  135.3387  154.7180 H   0  0  0  0  0  0  0  0  0  0  0  0  # atno 10765 bound_to 10752
  141.1590  133.6814  156.6886 H   0  0  0  0  0  0  0  0  0  0  0  0  # atno 11005 bound_to 11000
  145.7488  140.9980  143.1261 LP  0  0  0  0  0  0  0  0  0  0  0  0  # atno 17320 bound_to 7965
  144.6919  139.9189  143.7467 LP  0  0  0  0  0  0  0  0  0  0  0  0  # atno 17321 bound_to 7965
  140.1422  144.5191  150.6737 LP  0  0  0  0  0  0  0  0  0  0  0  0  # atno 17342 bound_to 10162
  140.6869  143.2355  151.5235 LP  0  0  0  0  0  0  0  0  0  0  0  0  # atno 17343 bound_to 10162
  156.4242  130.7783  151.2802 LP  0  0  0  0  0  0  0  0  0  0  0  0  # atno 17370 bound_to 10713
  157.7506  131.0173  150.3582 LP  0  0  0  0  0  0  0  0  0  0  0  0  # atno 17371 bound_to 10713
  140.3047  134.8135  157.4127 LP  0  0  0  0  0  0  0  0  0  0  0  0  # atno 17394 bound_to 11000
  140.1230  134.5194  155.8167 LP  0  0  0  0  0  0  0  0  0  0  0  0  # atno 17395 bound_to 11000

$$$$
