AV-unprocessed.smi:652|AV-procd|sdf|3199|dock4
  -GOLD-   22720 0133D 1   1.00000     0.00000
 Structure written by MMmdl.
 49 50  0  0  0  0  0  0  0  0  3 V2000
  149.8948  133.7724  155.1204 C   0  0  0  0  0  0  0  0  0  0  0  0
  148.4185  133.8950  154.7195 C   0  0  0  0  0  0  0  0  0  0  0  0
  148.1282  133.1623  153.3999 C   0  0  0  0  0  0  0  0  0  0  0  0
  148.0612  135.3067  154.6100 N   0  0  0  0  0  0  0  0  0  0  0  0
  147.1865  135.9516  155.3981 C   0  0  0  0  0  0  0  0  0  0  0  0
  146.5822  135.4068  156.3222 O   0  0  0  0  0  0  0  0  0  0  0  0
  146.9660  137.4363  155.0880 C   0  0  0  0  0  0  0  0  0  0  0  0
  148.1721  138.3190  155.4720 C   0  0  0  0  0  0  0  0  0  0  0  0
  147.7862  139.7353  155.7128 N   0  3  2  0  0  0  0  0  0  0  0  0
  147.4079  140.4637  154.4767 C   0  0  0  0  0  0  0  0  0  0  0  0
  148.6523  140.8642  153.6639 C   0  0  0  0  0  0  0  0  0  0  0  0
  149.5110  141.6607  154.4717 O   0  0  0  0  0  0  0  0  0  0  0  0
  149.9707  140.9705  155.6297 C   0  0  1  0  0  0  0  0  0  0  0  0
  150.9729  141.8701  156.3743 C   0  0  0  0  0  0  0  0  0  0  0  0
  150.3590  143.0879  156.8861 N   0  0  0  0  0  0  0  0  0  0  0  0
  150.9547  143.7957  157.9386 C   0  0  0  0  0  0  0  0  0  0  0  0
  152.1582  143.4101  158.5736 C   0  0  0  0  0  0  0  0  0  0  0  0
  152.6482  144.2144  159.6167 C   0  0  0  0  0  0  0  0  0  0  0  0
  151.9047  145.3565  159.9633 C   0  0  0  0  0  0  0  0  0  0  0  0
  150.7556  145.7077  159.3441 N   0  0  0  0  0  0  0  0  0  0  0  0
  150.3129  144.9181  158.3500 N   0  3  0  0  0  0  0  0  0  0  0  0
  148.7681  140.5279  156.4980 C   0  0  0  0  0  0  0  0  0  0  0  0
  150.1822  132.7272  155.2383 H   0  0  0  0  0  0  0  0  0  0  0  0
  150.0887  134.2751  156.0687 H   0  0  0  0  0  0  0  0  0  0  0  0
  150.5496  134.2139  154.3679 H   0  0  0  0  0  0  0  0  0  0  0  0
  147.8209  133.4375  155.5104 H   0  0  0  0  0  0  0  0  0  0  0  0
  148.3894  132.1062  153.4737 H   0  0  0  0  0  0  0  0  0  0  0  0
  148.7002  133.5885  152.5750 H   0  0  0  0  0  0  0  0  0  0  0  0
  147.0713  133.2190  153.1377 H   0  0  0  0  0  0  0  0  0  0  0  0
  148.5158  135.8317  153.8768 H   0  0  0  0  0  0  0  0  0  0  0  0
  146.7606  137.5324  154.0210 H   0  0  0  0  0  0  0  0  0  0  0  0
  146.0687  137.7665  155.6113 H   0  0  0  0  0  0  0  0  0  0  0  0
  148.6918  137.9064  156.3369 H   0  0  0  0  0  0  0  0  0  0  0  0
  148.8876  138.2959  154.6483 H   0  0  0  0  0  0  0  0  0  0  0  0
  146.7238  139.8682  153.8706 H   0  0  0  0  0  0  0  0  0  0  0  0
  146.8585  141.3623  154.7605 H   0  0  0  0  0  0  0  0  0  0  0  0
  149.1852  139.9868  153.2946 H   0  0  0  0  0  0  0  0  0  0  0  0
  148.3566  141.4446  152.7900 H   0  0  0  0  0  0  0  0  0  0  0  0
  150.5213  140.0875  155.3028 H   0  0  0  0  0  0  0  0  0  0  0  0
  151.4119  141.3166  157.2053 H   0  0  0  0  0  0  0  0  0  0  0  0
  151.7883  142.1382  155.7012 H   0  0  0  0  0  0  0  0  0  0  0  0
  149.6319  143.5285  156.3407 H   0  0  0  0  0  0  0  0  0  0  0  0
  152.7014  142.5240  158.2805 H   0  0  0  0  0  0  0  0  0  0  0  0
  153.5625  143.9650  160.1350 H   0  0  0  0  0  0  0  0  0  0  0  0
  152.2388  146.0066  160.7587 H   0  0  0  0  0  0  0  0  0  0  0  0
  148.2456  141.4060  156.8793 H   0  0  0  0  0  0  0  0  0  0  0  0
  149.1084  139.9777  157.3742 H   0  0  0  0  0  0  0  0  0  0  0  0
  146.9437  139.6846  156.2682 H   0  0  0  0  0  0  0  0  0  0  0  0
  149.4467  145.1786  157.8777 H   0  0  0  0  0  0  0  0  0  0  0  0
  1  2  1  0  0  0  0
  1 23  1  0  0  0  0
  1 24  1  0  0  0  0
  1 25  1  0  0  0  0
  2  3  1  0  0  0  0
  2  4  1  0  0  0  0
  2 26  1  0  0  0  0
  3 27  1  0  0  0  0
  3 28  1  0  0  0  0
  3 29  1  0  0  0  0
  4  5  1  0  0  0  0
  4 30  1  0  0  0  0
  5  6  2  0  0  0  0
  5  7  1  0  0  0  0
  7  8  1  0  0  0  0
  7 31  1  0  0  0  0
  7 32  1  0  0  0  0
  8  9  1  0  0  0  0
  8 33  1  0  0  0  0
  8 34  1  0  0  0  0
  9 22  1  0  0  0  0
  9 10  1  0  0  0  0
  9 48  1  0  0  0  0
 10 11  1  0  0  0  0
 10 35  1  0  0  0  0
 10 36  1  0  0  0  0
 11 12  1  0  0  0  0
 11 37  1  0  0  0  0
 11 38  1  0  0  0  0
 12 13  1  0  0  0  0
 13 14  1  0  0  0  0
 13 22  1  0  0  0  0
 13 39  1  0  0  0  0
 14 15  1  0  0  0  0
 14 40  1  0  0  0  0
 14 41  1  0  0  0  0
 15 16  1  0  0  0  0
 15 42  1  0  0  0  0
 16 21  1  0  0  0  0
 16 17  2  0  0  0  0
 17 18  1  0  0  0  0
 17 43  1  0  0  0  0
 18 19  2  0  0  0  0
 18 44  1  0  0  0  0
 19 20  1  0  0  0  0
 19 45  1  0  0  0  0
 20 21  2  0  0  0  0
 21 49  1  0  0  0  0
 22 46  1  0  0  0  0
 22 47  1  0  0  0  0
M  CHG  1   9   1
M  CHG  1  21   1
M  END
> <s_m_source_file>
AV-unprocessed.smi

> <i_m_source_file_index>
652

> <i_lp_mmshare_version>
43012

> <i_f3d_flags>
0

> <s_epik_input>
W0NIM11bQ0hdKFtDSDNdKVtOSF1DKD1PKVtDSDJdW0NIMl1OMVtDSDJdW0NIMl1PW0NASF0oW0NIMl0xKVtDSDJdW05IXWMyW2NIXVtjSF1bY0hdbm4y

> <s_epik_cmdline>
J2VwaWtfcHl0aG9uJywgJy1waCcsICc3LjAnLCAnLXRuJywgJzgnLCAnLW1hJywgJzIwMCcsICctbWV0YWxfYmluZGluZycsICctaW1hZScsICc8aW5maWxlLm1hZT4nLCAnLW9tYWUnLCAnPG91dGZpbGUubWFlPic=

> <r_lp_tautomer_probability>
0.966961

> <r_epik_Ionization_Penalty>
2.79885

> <r_epik_Ionization_Penalty_Charging>
2.79884

> <r_epik_Ionization_Penalty_Neutral>
3.2567e-06

> <r_epik_State_Penalty>
2.43203

> <r_epik_Charging_Adjusted_Penalty>
5.23087

> <i_epik_Tot_Q>
2

> <i_epik_Tot_abs_Q>
2

> <r_epik_Metal_State_Penalty>
2.43963

> <b_epik_Metal_Only>
0

> <s_lp_Force_Field>
OPLS_2005

> <r_lp_Energy>
35.8493

> <b_lp_Chiralities_Consistent>
1

> <s_lp_Variant>
AV-unprocessed.smi:652-8

> <Gold.Version>
5.8.1

> <Gold.Id.Protein>
6NUR|6NUR_protein|mol2

> <Gold.PLP.Fitness>
50.0179

> <Gold.PLP.PLP>
-36.0071

> <Gold.PLP.part.hbond>
-6.9384

> <Gold.PLP.part.metal>
0.0000

> <Gold.PLP.part.buried>
-1.0698

> <Gold.PLP.part.nonpolar>
-28.4862

> <Gold.PLP.part.repulsive>
0.5801

> <Gold.PLP.ligand.clash>
0.0000

> <Gold.PLP.ligand.torsion>
0.5418

> <Gold.PLP.Chemscore.Hbond>
5.0000

> <Gold.PLP.Chemscore.CHOScore>
0.0000

> <Gold.PLP.Chemscore.Metal>
0.0000

> <Gold.Chemscore.Hbonds>
donor molecule, donor type, donor heavy atom, donor atom, acceptor molecule, acceptor atom, score
      L1  H     4    30       P1  7948  0.86
      L1  H    15    42       P1  8028  2.00
      L1  H    21    49       P1  8029  1.60

> <Gold.PLP.Chemscore.Internal.Correction>
0.0945

> <Gold.Rescore>
     Score         DG    S(hbond)    S(metal)    S(lipo)     H(rot)  DE(clash)    DE(int)     intcor
     17.02     -17.63       2.55        0.00      82.07       2.33       0.06       0.55       ----

> <Gold.Chemscore.Fitness>
17.0188

> <Gold.Chemscore.DG>
-17.6292

> <Gold.Chemscore.ZeroCoef>
-5.4800

> <Gold.Chemscore.Hbond>
2.5505

> <Gold.Chemscore.Metal>
0.0000

> <Gold.Chemscore.Lipo>
82.0666

> <Gold.Chemscore.Internal_Hbond>
0.0000

> <Gold.Chemscore.DEClash>
0.0573

> <Gold.Chemscore.DEInternal>
0.5531

> <Gold.Chemscore.Rot>
2.3326

> <Gold.Chemscore.Internal.Correction>
   9.000000E+99

> <Gold.Chemscore.Hbonds>
donor molecule, donor type, donor heavy atom, donor atom, acceptor molecule, acceptor atom, score
      L1  H     4    30       P1  7948  0.81
      L1  H    15    42       P1  8028  0.94
      L1  H    21    49       P1  8029  0.12

> <Gold.Chemscore.Hbond.Weighted>
-8.5187

> <Gold.Chemscore.Metal.Weighted>
-0.0000

> <Gold.Chemscore.Lipo.Weighted>
-9.6018

> <Gold.Chemscore.Internal_Hbond.Weighted>
0.0000

> <Gold.Chemscore.DEClash.Weighted>
0.0573

> <Gold.Chemscore.DEInternal.Weighted>
0.5531

> <Gold.Chemscore.Rot.Weighted>
5.9714

> <Gold.Chemscore.Internal.Correction.Weighted>
   9.000000E+99

> <Gold.Protein.RotatedTorsions>
[ 6907 6896 6895 6894 ] final   93.47 input  -60.11 | X-H torsion
[ 7974 7965 7964 7962 ] final   15.81 input  175.53 | X-H torsion
[ 8008 7997 7996 7995 ] final  -28.80 input   59.86 | X-H torsion
[ 10167 10162 10161 10158 ] final -124.68 input  -65.29 | X-H torsion
[ 10718 10713 10712 10709 ] final  127.53 input   66.30 | X-H torsion
[ 10763 10752 10751 10750 ] final  108.20 input  -60.55 | X-H torsion
[ 11005 11000 10999 10996 ] final   91.91 input  -57.11 | X-H torsion

> <Gold.Protein.ActiveResidues>
 VAL166  LYS551  ARG553  GLY616  TRP617  ASP618  TYR619  PRO620  LYS621  CYS622 
 ASP623  PHE694  ASN695  SER759  ASP760  ASP761  ALA762  ILE779  LEU786  VAL792 
 PHE793  MET794  SER795  GLU796  ALA797  LYS798  CYS799  TRP800  GLU811  SER814 

> <Gold.Protein.RotatedAtoms>
  152.5452  134.1343  159.8451 H   0  0  0  0  0  0  0  0  0  0  0  0  # atno 6907 bound_to 6896
  151.1385  133.4980  159.2605 H   0  0  0  0  0  0  0  0  0  0  0  0  # atno 6908 bound_to 6896
  151.1598  135.0278  159.8760 H   0  0  0  0  0  0  0  0  0  0  0  0  # atno 6909 bound_to 6896
  146.2268  139.8840  142.8566 H   0  0  0  0  0  0  0  0  0  0  0  0  # atno 7974 bound_to 7965
  154.4316  140.1835  156.1148 H   0  0  0  0  0  0  0  0  0  0  0  0  # atno 8008 bound_to 7997
  156.0190  140.3343  155.6993 H   0  0  0  0  0  0  0  0  0  0  0  0  # atno 8009 bound_to 7997
  155.6004  140.0640  157.2725 H   0  0  0  0  0  0  0  0  0  0  0  0  # atno 8010 bound_to 7997
  139.9902  143.5648  152.2344 H   0  0  0  0  0  0  0  0  0  0  0  0  # atno 10167 bound_to 10162
  157.5324  131.1098  150.8988 H   0  0  0  0  0  0  0  0  0  0  0  0  # atno 10718 bound_to 10713
  153.4174  135.3819  155.2089 H   0  0  0  0  0  0  0  0  0  0  0  0  # atno 10763 bound_to 10752
  154.8742  135.3809  154.4426 H   0  0  0  0  0  0  0  0  0  0  0  0  # atno 10764 bound_to 10752
  153.4942  135.7088  153.5930 H   0  0  0  0  0  0  0  0  0  0  0  0  # atno 10765 bound_to 10752
  139.8831  134.8702  156.3496 H   0  0  0  0  0  0  0  0  0  0  0  0  # atno 11005 bound_to 11000
  145.2484  141.0035  143.3895 LP  0  0  0  0  0  0  0  0  0  0  0  0  # atno 17320 bound_to 7965
  144.9395  139.4205  143.6456 LP  0  0  0  0  0  0  0  0  0  0  0  0  # atno 17321 bound_to 7965
  139.6345  144.7648  151.2466 LP  0  0  0  0  0  0  0  0  0  0  0  0  # atno 17342 bound_to 10162
  140.7457  143.6422  150.8325 LP  0  0  0  0  0  0  0  0  0  0  0  0  # atno 17343 bound_to 10162
  156.9565  130.5439  149.5284 LP  0  0  0  0  0  0  0  0  0  0  0  0  # atno 17370 bound_to 10713
  156.0433  130.5512  150.8821 LP  0  0  0  0  0  0  0  0  0  0  0  0  # atno 17371 bound_to 10713
  140.9603  133.7393  156.0392 LP  0  0  0  0  0  0  0  0  0  0  0  0  # atno 17394 bound_to 11000
  140.7998  134.3522  157.5442 LP  0  0  0  0  0  0  0  0  0  0  0  0  # atno 17395 bound_to 11000

$$$$
