AV-unprocessed.smi:1140|AV-procd|sdf|4871|dock1
  -GOLD-   22720 3443D 1   1.00000     0.00000
 Structure written by MMmdl.
 48 50  0  0  0  0  0  0  0  0  1 V2000
  144.8202  135.4156  150.6665 C   0  0  0  0  0  0  0  0  0  0  0  0
  145.0657  134.5144  151.8790 C   0  0  0  0  0  0  0  0  0  0  0  0
  146.0638  135.1139  152.6997 O   0  0  0  0  0  0  0  0  0  0  0  0
  146.0593  134.8434  154.0551 C   0  0  0  0  0  0  0  0  0  0  0  0
  145.1451  133.9628  154.5347 N   0  0  0  0  0  0  0  0  0  0  0  0
  145.1421  133.6946  155.8565 C   0  0  0  0  0  0  0  0  0  0  0  0
  146.0453  134.2787  156.7629 C   0  0  0  0  0  0  0  0  0  0  0  0
  146.9945  135.1918  156.2684 C   0  0  0  0  0  0  0  0  0  0  0  0
  147.0011  135.4951  154.8851 C   0  0  0  0  0  0  0  0  0  0  0  0
  147.9321  136.3839  154.2806 N   0  0  0  0  0  0  0  0  0  0  0  0
  148.6667  137.3470  154.8624 C   0  0  0  0  0  0  0  0  0  0  0  0
  148.6001  137.6739  156.0473 O   0  0  0  0  0  0  0  0  0  0  0  0
  149.4837  137.9354  153.9772 N   0  0  0  0  0  0  0  0  0  0  0  0
  150.4096  139.0232  154.2786 C   0  0  0  0  0  0  0  0  0  0  0  0
  151.7181  138.4435  154.8569 C   0  0  0  0  0  0  0  0  0  0  0  0
  152.6502  139.5602  155.3609 C   0  0  0  0  0  0  0  0  0  0  0  0
  151.9306  140.3708  156.3511 N   0  0  0  0  0  0  0  0  0  0  0  0
  152.2040  140.3090  157.6786 C   0  0  0  0  0  0  0  0  0  0  0  0
  153.0876  139.5816  158.1347 O   0  0  0  0  0  0  0  0  0  0  0  0
  151.3967  141.1884  158.5825 C   0  0  0  0  0  0  0  0  0  0  0  0
  151.3458  142.6753  158.2801 C   0  0  0  0  0  0  0  0  0  0  0  0
  152.1605  142.1730  159.4430 C   0  0  0  0  0  0  0  0  0  0  0  0
  150.7969  141.0774  155.7375 C   0  0  0  0  0  0  0  0  0  0  0  0
  149.7688  140.0395  155.2528 C   0  0  0  0  0  0  0  0  0  0  0  0
  144.0552  134.9925  150.0152 H   0  0  0  0  0  0  0  0  0  0  0  0
  145.7298  135.5383  150.0782 H   0  0  0  0  0  0  0  0  0  0  0  0
  144.4848  136.4055  150.9766 H   0  0  0  0  0  0  0  0  0  0  0  0
  144.1357  134.3928  152.4367 H   0  0  0  0  0  0  0  0  0  0  0  0
  145.3904  133.5282  151.5433 H   0  0  0  0  0  0  0  0  0  0  0  0
  144.4020  132.9879  156.2017 H   0  0  0  0  0  0  0  0  0  0  0  0
  146.0150  134.0278  157.8129 H   0  0  0  0  0  0  0  0  0  0  0  0
  147.7056  135.6259  156.9540 H   0  0  0  0  0  0  0  0  0  0  0  0
  148.0166  136.3027  153.2778 H   0  0  0  0  0  0  0  0  0  0  0  0
  149.4643  137.6078  153.0225 H   0  0  0  0  0  0  0  0  0  0  0  0
  150.6586  139.5425  153.3510 H   0  0  0  0  0  0  0  0  0  0  0  0
  151.4917  137.7683  155.6840 H   0  0  0  0  0  0  0  0  0  0  0  0
  152.2292  137.8461  154.1012 H   0  0  0  0  0  0  0  0  0  0  0  0
  153.5698  139.1270  155.7566 H   0  0  0  0  0  0  0  0  0  0  0  0
  152.9591  140.1952  154.5292 H   0  0  0  0  0  0  0  0  0  0  0  0
  150.4804  140.7592  158.9842 H   0  0  0  0  0  0  0  0  0  0  0  0
  151.8943  143.0628  157.4236 H   0  0  0  0  0  0  0  0  0  0  0  0
  150.4123  143.1907  158.4970 H   0  0  0  0  0  0  0  0  0  0  0  0
  151.7825  142.3453  160.4485 H   0  0  0  0  0  0  0  0  0  0  0  0
  153.2445  142.2045  159.3461 H   0  0  0  0  0  0  0  0  0  0  0  0
  150.3061  141.7898  156.3983 H   0  0  0  0  0  0  0  0  0  0  0  0
  151.1562  141.6672  154.8929 H   0  0  0  0  0  0  0  0  0  0  0  0
  148.9318  140.5479  154.7730 H   0  0  0  0  0  0  0  0  0  0  0  0
  149.3566  139.5150  156.1164 H   0  0  0  0  0  0  0  0  0  0  0  0
  1  2  1  0  0  0  0
  1 25  1  0  0  0  0
  1 26  1  0  0  0  0
  1 27  1  0  0  0  0
  2  3  1  0  0  0  0
  2 28  1  0  0  0  0
  2 29  1  0  0  0  0
  3  4  1  0  0  0  0
  4  9  1  0  0  0  0
  4  5  2  0  0  0  0
  5  6  1  0  0  0  0
  6  7  2  0  0  0  0
  6 30  1  0  0  0  0
  7  8  1  0  0  0  0
  7 31  1  0  0  0  0
  8  9  2  0  0  0  0
  8 32  1  0  0  0  0
  9 10  1  0  0  0  0
 10 11  1  0  0  0  0
 10 33  1  0  0  0  0
 11 12  2  0  0  0  0
 11 13  1  0  0  0  0
 13 14  1  0  0  0  0
 13 34  1  0  0  0  0
 14 24  1  0  0  0  0
 14 15  1  0  0  0  0
 14 35  1  0  0  0  0
 15 16  1  0  0  0  0
 15 36  1  0  0  0  0
 15 37  1  0  0  0  0
 16 17  1  0  0  0  0
 16 38  1  0  0  0  0
 16 39  1  0  0  0  0
 17 18  1  0  0  0  0
 17 23  1  0  0  0  0
 18 19  2  0  0  0  0
 18 20  1  0  0  0  0
 20 22  1  0  0  0  0
 20 21  1  0  0  0  0
 20 40  1  0  0  0  0
 21 22  1  0  0  0  0
 21 41  1  0  0  0  0
 21 42  1  0  0  0  0
 22 43  1  0  0  0  0
 22 44  1  0  0  0  0
 23 24  1  0  0  0  0
 23 45  1  0  0  0  0
 23 46  1  0  0  0  0
 24 47  1  0  0  0  0
 24 48  1  0  0  0  0
M  END
> <s_m_source_file>
AV-unprocessed.smi

> <i_m_source_file_index>
1140

> <i_lp_mmshare_version>
43012

> <i_f3d_flags>
0

> <s_epik_input>
W0NIM11bQ0gyXU9jMW5bY0hdW2NIXVtjSF1jMVtOSF1DKD1PKVtOSF1bQ0hdMltDSDJdW0NIMl1OKFtDSDJdW0NIMl0yKUMoPU8pW0NIXTNbQ0gyXVtDSDJdMw==

> <s_epik_cmdline>
J2VwaWtfcHl0aG9uJywgJy1waCcsICc3LjAnLCAnLXRuJywgJzgnLCAnLW1hJywgJzIwMCcsICctbWV0YWxfYmluZGluZycsICctaW1hZScsICc8aW5maWxlLm1hZT4nLCAnLW9tYWUnLCAnPG91dGZpbGUubWFlPic=

> <r_lp_tautomer_probability>
1

> <r_epik_Ionization_Penalty>
0.00011541

> <r_epik_Ionization_Penalty_Charging>
0

> <r_epik_Ionization_Penalty_Neutral>
0.00011541

> <r_epik_State_Penalty>
-0

> <r_epik_Charging_Adjusted_Penalty>
0

> <i_epik_Tot_Q>
0

> <i_epik_Tot_abs_Q>
0

> <r_epik_Metal_State_Penalty>
-0

> <b_epik_Metal_Only>
0

> <s_lp_Force_Field>
OPLS_2005

> <r_lp_Energy>
31.5236

> <b_lp_Chiralities_Consistent>
1

> <s_lp_Variant>
AV-unprocessed.smi:1140-1

> <Gold.Version>
5.8.1

> <Gold.Id.Protein>
6NUR|6NUR_protein|mol2

> <Gold.PLP.Fitness>
41.5672

> <Gold.PLP.PLP>
-30.8894

> <Gold.PLP.part.hbond>
-3.0000

> <Gold.PLP.part.metal>
0.0000

> <Gold.PLP.part.buried>
-1.0138

> <Gold.PLP.part.nonpolar>
-26.8856

> <Gold.PLP.part.repulsive>
0.2494

> <Gold.PLP.ligand.clash>
0.0000

> <Gold.PLP.ligand.torsion>
0.6201

> <Gold.PLP.Chemscore.Hbond>
2.9600

> <Gold.PLP.Chemscore.CHOScore>
0.9498

> <Gold.PLP.Chemscore.Metal>
0.0000

> <Gold.Chemscore.Hbonds>
donor molecule, donor type, donor heavy atom, donor atom, acceptor molecule, acceptor atom, score
      L1  H    10    33       P1  7948  1.00
      L1  H    13    34       P1  7948  0.94
      P1  H  7997  8009       L1    19  0.95
      L1  C     6    30       P1 10957  0.96

> <Gold.PLP.Chemscore.Internal.Correction>
0.1885

> <Gold.Rescore>
     Score         DG    S(hbond)    S(metal)    S(lipo)     H(rot)  DE(clash)    DE(int)     intcor
     15.80     -19.39       2.75        0.00      74.68       1.56       0.31       3.27       ----

> <Gold.Chemscore.Fitness>
15.7999

> <Gold.Chemscore.DG>
-19.3869

> <Gold.Chemscore.ZeroCoef>
-5.4800

> <Gold.Chemscore.Hbond>
2.7463

> <Gold.Chemscore.Metal>
0.0000

> <Gold.Chemscore.Lipo>
74.6843

> <Gold.Chemscore.Internal_Hbond>
0.0000

> <Gold.Chemscore.DEClash>
0.3146

> <Gold.Chemscore.DEInternal>
3.2724

> <Gold.Chemscore.Rot>
1.5640

> <Gold.Chemscore.Internal.Correction>
   9.000000E+99

> <Gold.Chemscore.Hbonds>
donor molecule, donor type, donor heavy atom, donor atom, acceptor molecule, acceptor atom, score
      L1  H    10    33       P1  7948  0.95
      L1  H    13    34       P1  7948  0.81
      P1  H  7997  8009       L1    19  0.21

> <Gold.Chemscore.Hbond.Weighted>
-9.1726

> <Gold.Chemscore.Metal.Weighted>
-0.0000

> <Gold.Chemscore.Lipo.Weighted>
-8.7381

> <Gold.Chemscore.Internal_Hbond.Weighted>
0.0000

> <Gold.Chemscore.DEClash.Weighted>
0.3146

> <Gold.Chemscore.DEInternal.Weighted>
3.2724

> <Gold.Chemscore.Rot.Weighted>
4.0038

> <Gold.Chemscore.Internal.Correction.Weighted>
   9.000000E+99

> <Gold.Protein.RotatedTorsions>
[ 6907 6896 6895 6894 ] final  -12.01 input  -60.11 | X-H torsion
[ 7974 7965 7964 7962 ] final -143.09 input  175.53 | X-H torsion
[ 8008 7997 7996 7995 ] final  161.57 input   59.86 | X-H torsion
[ 10167 10162 10161 10158 ] final -149.70 input  -65.29 | X-H torsion
[ 10718 10713 10712 10709 ] final  178.40 input   66.30 | X-H torsion
[ 10763 10752 10751 10750 ] final  -36.03 input  -60.55 | X-H torsion
[ 11005 11000 10999 10996 ] final -159.21 input  -57.11 | X-H torsion

> <Gold.Protein.ActiveResidues>
 VAL166  LYS551  ARG553  GLY616  TRP617  ASP618  TYR619  PRO620  LYS621  CYS622 
 ASP623  PHE694  ASN695  SER759  ASP760  ASP761  ALA762  ILE779  LEU786  VAL792 
 PHE793  MET794  SER795  GLU796  ALA797  LYS798  CYS799  TRP800  GLU811  SER814 

> <Gold.Protein.RotatedAtoms>
  151.3772  135.0933  159.9484 H   0  0  0  0  0  0  0  0  0  0  0  0  # atno 6907 bound_to 6896
  152.5118  133.9107  159.7497 H   0  0  0  0  0  0  0  0  0  0  0  0  # atno 6908 bound_to 6896
  150.9533  133.6470  159.2797 H   0  0  0  0  0  0  0  0  0  0  0  0  # atno 6909 bound_to 6896
  144.8395  140.5878  143.5462 H   0  0  0  0  0  0  0  0  0  0  0  0  # atno 7974 bound_to 7965
  156.2094  140.1773  156.7729 H   0  0  0  0  0  0  0  0  0  0  0  0  # atno 8008 bound_to 7997
  154.5700  140.0684  156.8980 H   0  0  0  0  0  0  0  0  0  0  0  0  # atno 8009 bound_to 7997
  155.2690  140.3341  155.4269 H   0  0  0  0  0  0  0  0  0  0  0  0  # atno 8010 bound_to 7997
  139.7420  143.8648  152.2564 H   0  0  0  0  0  0  0  0  0  0  0  0  # atno 10167 bound_to 10162
  156.8911  130.9848  151.3049 H   0  0  0  0  0  0  0  0  0  0  0  0  # atno 10718 bound_to 10713
  153.8730  135.6829  153.4773 H   0  0  0  0  0  0  0  0  0  0  0  0  # atno 10763 bound_to 10752
  153.1276  135.4712  154.9295 H   0  0  0  0  0  0  0  0  0  0  0  0  # atno 10764 bound_to 10752
  154.7705  135.3237  154.8150 H   0  0  0  0  0  0  0  0  0  0  0  0  # atno 10765 bound_to 10752
  140.6451  134.4510  157.5234 H   0  0  0  0  0  0  0  0  0  0  0  0  # atno 11005 bound_to 11000
  145.4724  139.1502  143.3807 LP  0  0  0  0  0  0  0  0  0  0  0  0  # atno 17320 bound_to 7965
  146.2689  140.4857  142.8822 LP  0  0  0  0  0  0  0  0  0  0  0  0  # atno 17321 bound_to 7965
  139.8601  144.7121  150.9109 LP  0  0  0  0  0  0  0  0  0  0  0  0  # atno 17342 bound_to 10162
  140.7787  143.3824  151.1452 LP  0  0  0  0  0  0  0  0  0  0  0  0  # atno 17343 bound_to 10162
  157.6083  130.8564  149.8910 LP  0  0  0  0  0  0  0  0  0  0  0  0  # atno 17370 bound_to 10713
  156.0628  130.3697  150.0943 LP  0  0  0  0  0  0  0  0  0  0  0  0  # atno 17371 bound_to 10713
  139.9066  134.8436  156.1684 LP  0  0  0  0  0  0  0  0  0  0  0  0  # atno 17394 bound_to 11000
  141.0578  133.6856  156.1894 LP  0  0  0  0  0  0  0  0  0  0  0  0  # atno 17395 bound_to 11000

$$$$
