AV-unprocessed.smi:1288|AV-procd|sdf|5381|dock3
  -GOLD-   22720 4523D 1   1.00000     0.00000
 Structure written by MMmdl.
 42 44  0  0  0  0  0  0  0  0  1 V2000
  145.9383  140.5336  157.4509 C   0  0  0  0  0  0  0  0  0  0  0  0
  145.8212  141.5986  156.4071 C   0  0  0  0  0  0  0  0  0  0  0  0
  144.9116  142.5704  156.4815 N   0  0  0  0  0  0  0  0  0  0  0  0
  145.1545  143.3009  155.3343 C   0  0  0  0  0  0  0  0  0  0  0  0
  144.5225  144.4617  154.8339 C   0  0  0  0  0  0  0  0  0  0  0  0
  144.9497  145.0406  153.6210 C   0  0  0  0  0  0  0  0  0  0  0  0
  146.0120  144.4680  152.8918 C   0  0  0  0  0  0  0  0  0  0  0  0
  146.6560  143.3116  153.3726 C   0  0  0  0  0  0  0  0  0  0  0  0
  146.2261  142.7378  154.5842 C   0  0  0  0  0  0  0  0  0  0  0  0
  146.6341  141.6305  155.3224 N   0  0  0  0  0  0  0  0  0  0  0  0
  147.7089  140.7075  154.9817 C   0  0  0  0  0  0  0  0  0  0  0  0
  149.0505  141.4215  154.7184 C   0  0  2  0  0  0  0  0  0  0  0  0
  149.4922  141.1065  153.4122 O   0  0  0  0  0  0  0  0  0  0  0  0
  150.1349  140.9878  155.7175 C   0  0  0  0  0  0  0  0  0  0  0  0
  150.1394  141.8822  156.8184 O   0  0  0  0  0  0  0  0  0  0  0  0
  151.1956  141.6273  157.7289 C   0  0  0  0  0  0  0  0  0  0  0  0
  151.3303  142.7437  158.7458 C   0  0  0  0  0  0  0  0  0  0  0  0
  150.9392  144.0568  158.4085 C   0  0  0  0  0  0  0  0  0  0  0  0
  151.0636  145.0971  159.3500 C   0  0  0  0  0  0  0  0  0  0  0  0
  151.5782  144.8283  160.6330 C   0  0  0  0  0  0  0  0  0  0  0  0
  151.9669  143.5184  160.9743 C   0  0  0  0  0  0  0  0  0  0  0  0
  151.8431  142.4767  160.0340 C   0  0  0  0  0  0  0  0  0  0  0  0
  152.2182  141.2200  160.3737 F   0  0  0  0  0  0  0  0  0  0  0  0
  145.2109  140.6969  158.2467 H   0  0  0  0  0  0  0  0  0  0  0  0
  146.9345  140.5403  157.8925 H   0  0  0  0  0  0  0  0  0  0  0  0
  145.7513  139.5530  157.0130 H   0  0  0  0  0  0  0  0  0  0  0  0
  143.7078  144.9079  155.3850 H   0  0  0  0  0  0  0  0  0  0  0  0
  144.4601  145.9283  153.2484 H   0  0  0  0  0  0  0  0  0  0  0  0
  146.3328  144.9174  151.9634 H   0  0  0  0  0  0  0  0  0  0  0  0
  147.4718  142.8731  152.8176 H   0  0  0  0  0  0  0  0  0  0  0  0
  147.8164  139.9841  155.7903 H   0  0  0  0  0  0  0  0  0  0  0  0
  147.4084  140.1331  154.1044 H   0  0  0  0  0  0  0  0  0  0  0  0
  148.9035  142.4996  154.7889 H   0  0  0  0  0  0  0  0  0  0  0  0
  148.8086  140.6229  152.9738 H   0  0  0  0  0  0  0  0  0  0  0  0
  149.9080  139.9888  156.0936 H   0  0  0  0  0  0  0  0  0  0  0  0
  151.1147  140.9371  155.2388 H   0  0  0  0  0  0  0  0  0  0  0  0
  151.0199  140.6871  158.2540 H   0  0  0  0  0  0  0  0  0  0  0  0
  152.1354  141.5161  157.1855 H   0  0  0  0  0  0  0  0  0  0  0  0
  150.5414  144.2704  157.4271 H   0  0  0  0  0  0  0  0  0  0  0  0
  150.7637  146.1009  159.0875 H   0  0  0  0  0  0  0  0  0  0  0  0
  151.6733  145.6259  161.3550 H   0  0  0  0  0  0  0  0  0  0  0  0
  152.3601  143.3118  161.9586 H   0  0  0  0  0  0  0  0  0  0  0  0
  1  2  1  0  0  0  0
  1 24  1  0  0  0  0
  1 25  1  0  0  0  0
  1 26  1  0  0  0  0
  2 10  1  0  0  0  0
  2  3  2  0  0  0  0
  3  4  1  0  0  0  0
  4  9  2  0  0  0  0
  4  5  1  0  0  0  0
  5  6  2  0  0  0  0
  5 27  1  0  0  0  0
  6  7  1  0  0  0  0
  6 28  1  0  0  0  0
  7  8  2  0  0  0  0
  7 29  1  0  0  0  0
  8  9  1  0  0  0  0
  8 30  1  0  0  0  0
  9 10  1  0  0  0  0
 10 11  1  0  0  0  0
 11 12  1  0  0  0  0
 11 31  1  0  0  0  0
 11 32  1  0  0  0  0
 12 13  1  0  0  0  0
 12 14  1  0  0  0  0
 12 33  1  0  0  0  0
 13 34  1  0  0  0  0
 14 15  1  0  0  0  0
 14 35  1  0  0  0  0
 14 36  1  0  0  0  0
 15 16  1  0  0  0  0
 16 17  1  0  0  0  0
 16 37  1  0  0  0  0
 16 38  1  0  0  0  0
 17 22  1  0  0  0  0
 17 18  2  0  0  0  0
 18 19  1  0  0  0  0
 18 39  1  0  0  0  0
 19 20  2  0  0  0  0
 19 40  1  0  0  0  0
 20 21  1  0  0  0  0
 20 41  1  0  0  0  0
 21 22  2  0  0  0  0
 21 42  1  0  0  0  0
 22 23  1  0  0  0  0
M  END
> <s_m_source_file>
AV-unprocessed.smi

> <i_m_source_file_index>
1288

> <i_lp_mmshare_version>
43012

> <i_f3d_flags>
0

> <s_epik_input>
W2NIXTFbY0hdW2NIXVtjSF1jKGMxMiluKGMobjIpW0NIM10pW0NIMl1bQ0BIXShbT0hdKVtDSDJdT1tDSDJdYzNbY0hdW2NIXVtjSF1bY0hdYzNG

> <s_epik_cmdline>
J2VwaWtfcHl0aG9uJywgJy1waCcsICc3LjAnLCAnLXRuJywgJzgnLCAnLW1hJywgJzIwMCcsICctbWV0YWxfYmluZGluZycsICctaW1hZScsICc8aW5maWxlLm1hZT4nLCAnLW9tYWUnLCAnPG91dGZpbGUubWFlPic=

> <r_epik_Ionization_Penalty>
0.132603

> <r_epik_Ionization_Penalty_Charging>
0

> <r_epik_Ionization_Penalty_Neutral>
0.132603

> <r_epik_State_Penalty>
0.121982

> <r_epik_Charging_Adjusted_Penalty>
0.121982

> <i_epik_Tot_Q>
0

> <i_epik_Tot_abs_Q>
0

> <r_epik_Metal_State_Penalty>
0.000135431

> <b_epik_Metal_Only>
0

> <s_lp_Force_Field>
OPLS_2005

> <r_lp_Energy>
16.1737

> <b_lp_Chiralities_Consistent>
1

> <s_lp_Variant>
AV-unprocessed.smi:1288-1

> <Gold.Version>
5.8.1

> <Gold.Id.Protein>
6NUR|6NUR_protein|mol2

> <Gold.PLP.Fitness>
52.9492

> <Gold.PLP.PLP>
-52.5641

> <Gold.PLP.part.hbond>
-2.7241

> <Gold.PLP.part.metal>
0.0000

> <Gold.PLP.part.buried>
-7.2127

> <Gold.PLP.part.nonpolar>
-41.4920

> <Gold.PLP.part.repulsive>
0.1285

> <Gold.PLP.ligand.clash>
0.0000

> <Gold.PLP.ligand.torsion>
1.6239

> <Gold.PLP.Chemscore.Hbond>
1.1617

> <Gold.PLP.Chemscore.CHOScore>
0.0000

> <Gold.PLP.Chemscore.Metal>
0.0000

> <Gold.Chemscore.Hbonds>
donor molecule, donor type, donor heavy atom, donor atom, acceptor molecule, acceptor atom, score
      L1  H    13    34       P1  7957  0.10
      P1  H  7989  7998       L1    13  0.15
      P1  H  8011  8017       L1    13  1.00

> <Gold.PLP.Chemscore.Internal.Correction>
0.1477

> <Gold.Rescore>
     Score         DG    S(hbond)    S(metal)    S(lipo)     H(rot)  DE(clash)    DE(int)     intcor
     15.83     -18.58       1.07        0.00     131.57       2.29       1.46       1.30       ----

> <Gold.Chemscore.Fitness>
15.8258

> <Gold.Chemscore.DG>
-18.5845

> <Gold.Chemscore.ZeroCoef>
-5.4800

> <Gold.Chemscore.Hbond>
1.0670

> <Gold.Chemscore.Metal>
0.0000

> <Gold.Chemscore.Lipo>
131.5711

> <Gold.Chemscore.Internal_Hbond>
0.0000

> <Gold.Chemscore.DEClash>
1.4613

> <Gold.Chemscore.DEInternal>
1.2973

> <Gold.Chemscore.Rot>
2.2863

> <Gold.Chemscore.Internal.Correction>
   9.000000E+99

> <Gold.Chemscore.Hbonds>
donor molecule, donor type, donor heavy atom, donor atom, acceptor molecule, acceptor atom, score
      L1  H    13    34       P1  7957  0.12
      P1  H  7989  7998       L1    13  0.10
      P1  H  8011  8017       L1    13  0.37

> <Gold.Chemscore.Hbond.Weighted>
-3.5636

> <Gold.Chemscore.Metal.Weighted>
-0.0000

> <Gold.Chemscore.Lipo.Weighted>
-15.3938

> <Gold.Chemscore.Internal_Hbond.Weighted>
0.0000

> <Gold.Chemscore.DEClash.Weighted>
1.4613

> <Gold.Chemscore.DEInternal.Weighted>
1.2973

> <Gold.Chemscore.Rot.Weighted>
5.8530

> <Gold.Chemscore.Internal.Correction.Weighted>
   9.000000E+99

> <Gold.Protein.RotatedTorsions>
[ 6907 6896 6895 6894 ] final   35.26 input  -60.11 | X-H torsion
[ 7974 7965 7964 7962 ] final -122.85 input  175.53 | X-H torsion
[ 8008 7997 7996 7995 ] final  -58.21 input   59.86 | X-H torsion
[ 10167 10162 10161 10158 ] final -156.73 input  -65.29 | X-H torsion
[ 10718 10713 10712 10709 ] final   84.01 input   66.30 | X-H torsion
[ 10763 10752 10751 10750 ] final -131.52 input  -60.55 | X-H torsion
[ 11005 11000 10999 10996 ] final  -29.60 input  -57.11 | X-H torsion

> <Gold.Protein.ActiveResidues>
 VAL166  LYS551  ARG553  GLY616  TRP617  ASP618  TYR619  PRO620  LYS621  CYS622 
 ASP623  PHE694  ASN695  SER759  ASP760  ASP761  ALA762  ILE779  LEU786  VAL792 
 PHE793  MET794  SER795  GLU796  ALA797  LYS798  CYS799  TRP800  GLU811  SER814 

> <Gold.Protein.RotatedAtoms>
  152.1137  134.9256  160.0565 H   0  0  0  0  0  0  0  0  0  0  0  0  # atno 6907 bound_to 6896
  152.0423  133.3978  159.4350 H   0  0  0  0  0  0  0  0  0  0  0  0  # atno 6908 bound_to 6896
  150.6845  134.3321  159.4875 H   0  0  0  0  0  0  0  0  0  0  0  0  # atno 6909 bound_to 6896
  145.0250  140.8020  143.4358 H   0  0  0  0  0  0  0  0  0  0  0  0  # atno 7974 bound_to 7965
  154.4299  140.1089  156.5921 H   0  0  0  0  0  0  0  0  0  0  0  0  # atno 8008 bound_to 7997
  155.6000  140.3493  155.4572 H   0  0  0  0  0  0  0  0  0  0  0  0  # atno 8009 bound_to 7997
  156.0180  140.1233  157.0376 H   0  0  0  0  0  0  0  0  0  0  0  0  # atno 8010 bound_to 7997
  139.6827  143.9554  152.2345 H   0  0  0  0  0  0  0  0  0  0  0  0  # atno 10167 bound_to 10162
  157.6890  131.0115  150.2609 H   0  0  0  0  0  0  0  0  0  0  0  0  # atno 10718 bound_to 10713
  154.8750  135.3827  154.4260 H   0  0  0  0  0  0  0  0  0  0  0  0  # atno 10763 bound_to 10752
  153.4959  135.7030  153.5863 H   0  0  0  0  0  0  0  0  0  0  0  0  # atno 10764 bound_to 10752
  153.4217  135.3900  155.2082 H   0  0  0  0  0  0  0  0  0  0  0  0  # atno 10765 bound_to 10752
  140.9310  133.7338  156.0937 H   0  0  0  0  0  0  0  0  0  0  0  0  # atno 11005 bound_to 11000
  145.1846  139.2333  143.5275 LP  0  0  0  0  0  0  0  0  0  0  0  0  # atno 17320 bound_to 7965
  146.3491  140.1627  142.8590 LP  0  0  0  0  0  0  0  0  0  0  0  0  # atno 17321 bound_to 7965
  139.9348  144.6718  150.8326 LP  0  0  0  0  0  0  0  0  0  0  0  0  # atno 17342 bound_to 10162
  140.7657  143.3284  151.2465 LP  0  0  0  0  0  0  0  0  0  0  0  0  # atno 17343 bound_to 10162
  156.3189  130.3783  149.7593 LP  0  0  0  0  0  0  0  0  0  0  0  0  # atno 17370 bound_to 10713
  156.5170  130.8197  151.3190 LP  0  0  0  0  0  0  0  0  0  0  0  0  # atno 17371 bound_to 10713
  140.7862  134.3669  157.5476 LP  0  0  0  0  0  0  0  0  0  0  0  0  # atno 17394 bound_to 11000
  139.8796  134.9112  156.3032 LP  0  0  0  0  0  0  0  0  0  0  0  0  # atno 17395 bound_to 11000

$$$$
