AV-unprocessed.smi:2226|AV-procd|sdf|9016|dock5
  -GOLD-   2272012223D 1   1.00000     0.00000
 Structure written by MMmdl.
 40 42  0  0  0  0  0  0  0  0  2 V2000
  145.7349  136.5137  150.4930 C   0  0  0  0  0  0  0  0  0  0  0  0
  146.1908  135.5249  151.4988 N   0  3  1  0  0  0  0  0  0  0  0  0
  145.4833  135.5880  152.8009 C   0  0  1  0  0  0  0  0  0  0  0  0
  144.0211  135.0895  152.6731 C   0  0  0  0  0  0  0  0  0  0  0  0
  143.8855  133.7095  152.0023 C   0  0  0  0  0  0  0  0  0  0  0  0
  144.8250  133.5474  150.7923 C   0  0  0  0  0  0  0  0  0  0  0  0
  146.2465  134.1237  151.0156 C   0  0  2  0  0  0  0  0  0  0  0  0
  147.1376  133.3007  151.9743 C   0  0  0  0  0  0  0  0  0  0  0  0
  146.7493  133.4148  153.4685 C   0  0  1  0  0  0  0  0  0  0  0  0
  147.8879  133.0065  154.2900 N   0  0  0  0  0  0  0  0  0  0  0  0
  148.5580  131.8463  154.2127 C   0  0  0  0  0  0  0  0  0  0  0  0
  148.2554  130.9718  153.3948 O   0  0  0  0  0  0  0  0  0  0  0  0
  149.5741  131.8291  155.1576 N   0  0  0  0  0  0  0  0  0  0  0  0
  150.4848  130.9047  155.1210 C   0  0  0  0  0  0  0  0  0  0  0  0
  150.7054  129.8203  154.2758 N   0  0  0  0  0  0  0  0  0  0  0  0
  151.8276  129.1678  154.7035 C   0  0  0  0  0  0  0  0  0  0  0  0
  152.2957  129.8092  155.7698 C   0  0  0  0  0  0  0  0  0  0  0  0
  151.4951  130.8759  156.0490 O   0  0  0  0  0  0  0  0  0  0  0  0
  146.3297  134.8513  153.8643 C   0  0  0  0  0  0  0  0  0  0  0  0
  144.7021  136.3482  150.1877 H   0  0  0  0  0  0  0  0  0  0  0  0
  146.3619  136.4653  149.6024 H   0  0  0  0  0  0  0  0  0  0  0  0
  145.8104  137.5248  150.8939 H   0  0  0  0  0  0  0  0  0  0  0  0
  145.4432  136.6341  153.1085 H   0  0  0  0  0  0  0  0  0  0  0  0
  143.5430  135.0715  153.6530 H   0  0  0  0  0  0  0  0  0  0  0  0
  143.4530  135.8135  152.0882 H   0  0  0  0  0  0  0  0  0  0  0  0
  144.0598  132.9178  152.7259 H   0  0  0  0  0  0  0  0  0  0  0  0
  142.8534  133.5612  151.6827 H   0  0  0  0  0  0  0  0  0  0  0  0
  144.8856  132.4954  150.5113 H   0  0  0  0  0  0  0  0  0  0  0  0
  144.3730  134.0488  149.9362 H   0  0  0  0  0  0  0  0  0  0  0  0
  146.7515  134.1241  150.0485 H   0  0  0  0  0  0  0  0  0  0  0  0
  147.1544  132.2530  151.6715 H   0  0  0  0  0  0  0  0  0  0  0  0
  148.1618  133.6578  151.8522 H   0  0  0  0  0  0  0  0  0  0  0  0
  145.9145  132.7465  153.6600 H   0  0  0  0  0  0  0  0  0  0  0  0
  148.1992  133.6683  154.9864 H   0  0  0  0  0  0  0  0  0  0  0  0
  150.1609  129.5283  153.4767 H   0  0  0  0  0  0  0  0  0  0  0  0
  152.1811  128.2893  154.1842 H   0  0  0  0  0  0  0  0  0  0  0  0
  153.1474  129.6406  156.4119 H   0  0  0  0  0  0  0  0  0  0  0  0
  147.2311  135.4444  154.0297 H   0  0  0  0  0  0  0  0  0  0  0  0
  145.8080  134.8375  154.8221 H   0  0  0  0  0  0  0  0  0  0  0  0
  147.1472  135.7838  151.6952 H   0  0  0  0  0  0  0  0  0  0  0  0
  1  2  1  0  0  0  0
  1 20  1  0  0  0  0
  1 21  1  0  0  0  0
  1 22  1  0  0  0  0
  2  7  1  0  0  0  0
  2  3  1  0  0  0  0
  2 40  1  0  0  0  0
  3 19  1  0  0  0  0
  3  4  1  0  0  0  0
  3 23  1  0  0  0  0
  4  5  1  0  0  0  0
  4 24  1  0  0  0  0
  4 25  1  0  0  0  0
  5  6  1  0  0  0  0
  5 26  1  0  0  0  0
  5 27  1  0  0  0  0
  6  7  1  0  0  0  0
  6 28  1  0  0  0  0
  6 29  1  0  0  0  0
  7  8  1  0  0  0  0
  7 30  1  0  0  0  0
  8  9  1  0  0  0  0
  8 31  1  0  0  0  0
  8 32  1  0  0  0  0
  9 10  1  0  0  0  0
  9 19  1  0  0  0  0
  9 33  1  0  0  0  0
 10 34  1  0  0  0  0
 10 11  1  0  0  0  0
 11 13  1  0  0  0  0
 11 12  2  0  0  0  0
 13 14  2  0  0  0  0
 14 18  1  0  0  0  0
 14 15  1  0  0  0  0
 15 35  1  0  0  0  0
 15 16  1  0  0  0  0
 16 36  1  0  0  0  0
 16 17  2  0  0  0  0
 17 37  1  0  0  0  0
 17 18  1  0  0  0  0
 19 38  1  0  0  0  0
 19 39  1  0  0  0  0
M  CHG  1   2   1
M  END
> <s_m_source_file>
AV-unprocessed.smi

> <i_m_source_file_index>
2226

> <i_lp_mmshare_version>
43012

> <i_f3d_flags>
0

> <s_epik_input>
W0NIMl0xW0NIMl1bQ0gyXVtDQEhdKE4oW0NIM10pW0NIXTEyKVtDSDJdW0NASF0oW0NIMl0yKVtOSF1DKD1PKVtOSF1jM25bY0hdW2NIXW8z

> <s_epik_cmdline>
J2VwaWtfcHl0aG9uJywgJy1waCcsICc3LjAnLCAnLXRuJywgJzgnLCAnLW1hJywgJzIwMCcsICctbWV0YWxfYmluZGluZycsICctaW1hZScsICc8aW5maWxlLm1hZT4nLCAnLW9tYWUnLCAnPG91dGZpbGUubWFlPic=

> <r_lp_tautomer_probability>
0.107061

> <r_epik_Ionization_Penalty>
1.08307

> <r_epik_Ionization_Penalty_Charging>
1.08272

> <r_epik_Ionization_Penalty_Neutral>
0.000345913

> <r_epik_State_Penalty>
2.5744

> <r_epik_Charging_Adjusted_Penalty>
3.65713

> <i_epik_Tot_Q>
1

> <i_epik_Tot_abs_Q>
1

> <r_epik_Metal_State_Penalty>
3.72133

> <b_epik_Metal_Only>
0

> <s_lp_Force_Field>
OPLS_2005

> <r_lp_Energy>
58.4837

> <b_lp_Chiralities_Consistent>
1

> <s_lp_Variant>
AV-unprocessed.smi:2226-16

> <Gold.Version>
5.8.1

> <Gold.Id.Protein>
6NUR|6NUR_protein|mol2

> <Gold.PLP.Fitness>
34.0086

> <Gold.PLP.PLP>
-25.1208

> <Gold.PLP.part.hbond>
-1.0000

> <Gold.PLP.part.metal>
0.0000

> <Gold.PLP.part.buried>
-2.5287

> <Gold.PLP.part.nonpolar>
-22.4768

> <Gold.PLP.part.repulsive>
0.2236

> <Gold.PLP.ligand.clash>
0.0000

> <Gold.PLP.ligand.torsion>
0.0455

> <Gold.PLP.Chemscore.Hbond>
2.0000

> <Gold.PLP.Chemscore.CHOScore>
0.9911

> <Gold.PLP.Chemscore.Metal>
0.0000

> <Gold.Chemscore.Hbonds>
donor molecule, donor type, donor heavy atom, donor atom, acceptor molecule, acceptor atom, score
      L1  H     2    40       P1  7948  2.00
      L1  C    16    36       P1 10737  0.99

> <Gold.PLP.Chemscore.Internal.Correction>
0.0054

> <Gold.Rescore>
     Score         DG    S(hbond)    S(metal)    S(lipo)     H(rot)  DE(clash)    DE(int)     intcor
     11.45     -12.81       1.00        0.00      56.07       1.00       0.03       1.33       ----

> <Gold.Chemscore.Fitness>
11.4509

> <Gold.Chemscore.DG>
-12.8116

> <Gold.Chemscore.ZeroCoef>
-5.4800

> <Gold.Chemscore.Hbond>
0.9975

> <Gold.Chemscore.Metal>
0.0000

> <Gold.Chemscore.Lipo>
56.0664

> <Gold.Chemscore.Internal_Hbond>
0.0000

> <Gold.Chemscore.DEClash>
0.0310

> <Gold.Chemscore.DEInternal>
1.3296

> <Gold.Chemscore.Rot>
1.0000

> <Gold.Chemscore.Internal.Correction>
   9.000000E+99

> <Gold.Chemscore.Hbonds>
donor molecule, donor type, donor heavy atom, donor atom, acceptor molecule, acceptor atom, score
      L1  H     2    40       P1  7948  1.00

> <Gold.Chemscore.Hbond.Weighted>
-3.3318

> <Gold.Chemscore.Metal.Weighted>
-0.0000

> <Gold.Chemscore.Lipo.Weighted>
-6.5598

> <Gold.Chemscore.Internal_Hbond.Weighted>
0.0000

> <Gold.Chemscore.DEClash.Weighted>
0.0310

> <Gold.Chemscore.DEInternal.Weighted>
1.3296

> <Gold.Chemscore.Rot.Weighted>
2.5600

> <Gold.Chemscore.Internal.Correction.Weighted>
   9.000000E+99

> <Gold.Protein.RotatedTorsions>
[ 6907 6896 6895 6894 ] final   69.22 input  -60.11 | X-H torsion
[ 7974 7965 7964 7962 ] final -101.41 input  175.53 | X-H torsion
[ 8008 7997 7996 7995 ] final  -42.51 input   59.86 | X-H torsion
[ 10167 10162 10161 10158 ] final  -96.13 input  -65.29 | X-H torsion
[ 10718 10713 10712 10709 ] final  158.03 input   66.30 | X-H torsion
[ 10763 10752 10751 10750 ] final  100.08 input  -60.55 | X-H torsion
[ 11005 11000 10999 10996 ] final  -22.88 input  -57.11 | X-H torsion

> <Gold.Protein.ActiveResidues>
 VAL166  LYS551  ARG553  GLY616  TRP617  ASP618  TYR619  PRO620  LYS621  CYS622 
 ASP623  PHE694  ASN695  SER759  ASP760  ASP761  ALA762  ILE779  LEU786  VAL792 
 PHE793  MET794  SER795  GLU796  ALA797  LYS798  CYS799  TRP800  GLU811  SER814 

> <Gold.Protein.RotatedAtoms>
  152.4672  134.5047  159.9735 H   0  0  0  0  0  0  0  0  0  0  0  0  # atno 6907 bound_to 6896
  151.5082  133.3484  159.2888 H   0  0  0  0  0  0  0  0  0  0  0  0  # atno 6908 bound_to 6896
  150.8663  134.8055  159.7183 H   0  0  0  0  0  0  0  0  0  0  0  0  # atno 6909 bound_to 6896
  145.2820  140.9329  143.2926 H   0  0  0  0  0  0  0  0  0  0  0  0  # atno 7974 bound_to 7965
  154.3999  140.1471  156.3367 H   0  0  0  0  0  0  0  0  0  0  0  0  # atno 8008 bound_to 7997
  155.8394  140.3462  155.5601 H   0  0  0  0  0  0  0  0  0  0  0  0  # atno 8009 bound_to 7997
  155.8103  140.0883  157.1898 H   0  0  0  0  0  0  0  0  0  0  0  0  # atno 8010 bound_to 7997
  140.2970  143.3186  152.0287 H   0  0  0  0  0  0  0  0  0  0  0  0  # atno 10167 bound_to 10162
  157.1834  131.0638  151.2119 H   0  0  0  0  0  0  0  0  0  0  0  0  # atno 10718 bound_to 10713
  153.3095  135.4091  155.1323 H   0  0  0  0  0  0  0  0  0  0  0  0  # atno 10763 bound_to 10752
  154.8572  135.3561  154.5743 H   0  0  0  0  0  0  0  0  0  0  0  0  # atno 10764 bound_to 10752
  153.6171  135.7066  153.5383 H   0  0  0  0  0  0  0  0  0  0  0  0  # atno 10765 bound_to 10752
  140.8699  133.7728  156.0174 H   0  0  0  0  0  0  0  0  0  0  0  0  # atno 11005 bound_to 11000
  144.9245  139.4372  143.6525 LP  0  0  0  0  0  0  0  0  0  0  0  0  # atno 17320 bound_to 7965
  146.3213  139.8123  142.8943 LP  0  0  0  0  0  0  0  0  0  0  0  0  # atno 17321 bound_to 7965
  139.4924  144.6484  151.6730 LP  0  0  0  0  0  0  0  0  0  0  0  0  # atno 17342 bound_to 10162
  140.5684  144.0151  150.6204 LP  0  0  0  0  0  0  0  0  0  0  0  0  # atno 17343 bound_to 10162
  157.3931  130.7292  149.6712 LP  0  0  0  0  0  0  0  0  0  0  0  0  # atno 17370 bound_to 10713
  155.9721  130.4141  150.4115 LP  0  0  0  0  0  0  0  0  0  0  0  0  # atno 17371 bound_to 10713
  140.8586  134.2868  157.5244 LP  0  0  0  0  0  0  0  0  0  0  0  0  # atno 17394 bound_to 11000
  139.8711  134.9506  156.4059 LP  0  0  0  0  0  0  0  0  0  0  0  0  # atno 17395 bound_to 11000

$$$$
