AV-unprocessed.smi:2426|AV-procd|sdf|9576|dock5
  -GOLD-   2272013213D 1   1.00000     0.00000
 Structure written by MMmdl.
 36 37  0  0  0  0  0  0  0  0  1 V2000
  146.2364  142.5038  154.6968 C   0  0  0  0  0  0  0  0  0  0  0  0
  146.5771  141.1387  154.4839 O   0  0  0  0  0  0  0  0  0  0  0  0
  147.9060  140.7786  154.5666 C   0  0  0  0  0  0  0  0  0  0  0  0
  148.7667  141.5037  155.4160 C   0  0  0  0  0  0  0  0  0  0  0  0
  150.1203  141.1023  155.4715 C   0  0  0  0  0  0  0  0  0  0  0  0
  150.9523  141.8579  156.3393 N   0  0  0  0  0  0  0  0  0  0  0  0
  150.6493  142.3610  157.5489 C   0  0  0  0  0  0  0  0  0  0  0  0
  149.5651  142.2388  158.1198 O   0  0  0  0  0  0  0  0  0  0  0  0
  151.6900  143.0272  158.0702 N   0  0  0  0  0  0  0  0  0  0  0  0
  151.7066  143.6928  159.3698 C   0  0  2  0  0  0  0  0  0  0  0  0
  151.7073  145.2189  159.1849 C   0  0  0  0  0  0  0  0  0  0  0  0
  152.9193  143.2095  160.1633 C   0  0  0  0  0  0  0  0  0  0  0  0
  153.2014  141.7046  160.2944 C   0  0  0  0  0  0  0  0  0  0  0  0
  153.7326  141.9741  161.7050 C   0  0  0  0  0  0  0  0  0  0  0  0
  152.9070  143.2636  161.6989 C   0  0  0  0  0  0  0  0  0  0  0  0
  150.5462  140.0544  154.7236 N   0  0  0  0  0  0  0  0  0  0  0  0
  149.6530  139.4335  153.9512 C   0  0  0  0  0  0  0  0  0  0  0  0
  148.3598  139.7355  153.8306 N   0  0  0  0  0  0  0  0  0  0  0  0
  145.1581  142.6266  154.5981 H   0  0  0  0  0  0  0  0  0  0  0  0
  146.7117  143.1534  153.9605 H   0  0  0  0  0  0  0  0  0  0  0  0
  146.5166  142.8327  155.6985 H   0  0  0  0  0  0  0  0  0  0  0  0
  148.3975  142.3344  155.9995 H   0  0  0  0  0  0  0  0  0  0  0  0
  151.8853  142.0372  155.9994 H   0  0  0  0  0  0  0  0  0  0  0  0
  152.5403  143.0775  157.5285 H   0  0  0  0  0  0  0  0  0  0  0  0
  150.8022  143.4186  159.9163 H   0  0  0  0  0  0  0  0  0  0  0  0
  151.7050  145.7310  160.1472 H   0  0  0  0  0  0  0  0  0  0  0  0
  150.8255  145.5520  158.6368 H   0  0  0  0  0  0  0  0  0  0  0  0
  152.5875  145.5509  158.6335 H   0  0  0  0  0  0  0  0  0  0  0  0
  153.8295  143.7018  159.8128 H   0  0  0  0  0  0  0  0  0  0  0  0
  152.2924  141.1009  160.2956 H   0  0  0  0  0  0  0  0  0  0  0  0
  153.9409  141.3160  159.5936 H   0  0  0  0  0  0  0  0  0  0  0  0
  153.4324  141.2415  162.4548 H   0  0  0  0  0  0  0  0  0  0  0  0
  154.8078  142.1598  161.7248 H   0  0  0  0  0  0  0  0  0  0  0  0
  153.4096  144.1307  162.1282 H   0  0  0  0  0  0  0  0  0  0  0  0
  151.9097  143.1268  162.1204 H   0  0  0  0  0  0  0  0  0  0  0  0
  150.0144  138.6025  153.3639 H   0  0  0  0  0  0  0  0  0  0  0  0
  1  2  1  0  0  0  0
  1 19  1  0  0  0  0
  1 20  1  0  0  0  0
  1 21  1  0  0  0  0
  2  3  1  0  0  0  0
  3 18  1  0  0  0  0
  3  4  2  0  0  0  0
  4  5  1  0  0  0  0
  4 22  1  0  0  0  0
  5  6  1  0  0  0  0
  5 16  2  0  0  0  0
  6  7  1  0  0  0  0
  6 23  1  0  0  0  0
  7  8  2  0  0  0  0
  7  9  1  0  0  0  0
  9 10  1  0  0  0  0
  9 24  1  0  0  0  0
 10 11  1  0  0  0  0
 10 12  1  0  0  0  0
 10 25  1  0  0  0  0
 11 26  1  0  0  0  0
 11 27  1  0  0  0  0
 11 28  1  0  0  0  0
 12 15  1  0  0  0  0
 12 13  1  0  0  0  0
 12 29  1  0  0  0  0
 13 14  1  0  0  0  0
 13 30  1  0  0  0  0
 13 31  1  0  0  0  0
 14 15  1  0  0  0  0
 14 32  1  0  0  0  0
 14 33  1  0  0  0  0
 15 34  1  0  0  0  0
 15 35  1  0  0  0  0
 16 17  1  0  0  0  0
 17 18  2  0  0  0  0
 17 36  1  0  0  0  0
M  END
> <s_m_source_file>
AV-unprocessed.smi

> <i_m_source_file_index>
2426

> <i_lp_mmshare_version>
43012

> <i_f3d_flags>
0

> <s_epik_input>
W0NIM11PYzFbY0hdYyhuW2NIXW4xKVtOSF1DKD1PKVtOSF1bQ0BIXShbQ0gzXSlbQ0hdMltDSDJdW0NIMl1bQ0gyXTI=

> <s_epik_cmdline>
J2VwaWtfcHl0aG9uJywgJy1waCcsICc3LjAnLCAnLXRuJywgJzgnLCAnLW1hJywgJzIwMCcsICctbWV0YWxfYmluZGluZycsICctaW1hZScsICc8aW5maWxlLm1hZT4nLCAnLW9tYWUnLCAnPG91dGZpbGUubWFlPic=

> <r_lp_tautomer_probability>
1

> <r_epik_Ionization_Penalty>
2.84534e-05

> <r_epik_Ionization_Penalty_Charging>
0

> <r_epik_Ionization_Penalty_Neutral>
2.84534e-05

> <r_epik_State_Penalty>
-0

> <r_epik_Charging_Adjusted_Penalty>
0

> <i_epik_Tot_Q>
0

> <i_epik_Tot_abs_Q>
0

> <r_epik_Metal_State_Penalty>
-0

> <b_epik_Metal_Only>
0

> <s_lp_Force_Field>
OPLS_2005

> <r_lp_Energy>
12.1235

> <b_lp_Chiralities_Consistent>
1

> <s_lp_Variant>
AV-unprocessed.smi:2426-1

> <Gold.Version>
5.8.1

> <Gold.Id.Protein>
6NUR|6NUR_protein|mol2

> <Gold.PLP.Fitness>
40.4604

> <Gold.PLP.PLP>
-39.1098

> <Gold.PLP.part.hbond>
-1.0000

> <Gold.PLP.part.metal>
0.0000

> <Gold.PLP.part.buried>
-4.3814

> <Gold.PLP.part.nonpolar>
-35.2689

> <Gold.PLP.part.repulsive>
1.8558

> <Gold.PLP.ligand.clash>
0.0000

> <Gold.PLP.ligand.torsion>
1.0509

> <Gold.PLP.Chemscore.Hbond>
1.0000

> <Gold.PLP.Chemscore.CHOScore>
0.1002

> <Gold.PLP.Chemscore.Metal>
0.0000

> <Gold.Chemscore.Hbonds>
donor molecule, donor type, donor heavy atom, donor atom, acceptor molecule, acceptor atom, score
      P1  H  7989  7998       L1    16  1.00
      L1  C    17    36       P1  7957  0.14

> <Gold.PLP.Chemscore.Internal.Correction>
0.1519

> <Gold.Rescore>
     Score         DG    S(hbond)    S(metal)    S(lipo)     H(rot)  DE(clash)    DE(int)     intcor
      8.53     -11.02       0.05        0.00      80.74       1.60       0.08       2.42       ----

> <Gold.Chemscore.Fitness>
8.5266

> <Gold.Chemscore.DG>
-11.0175

> <Gold.Chemscore.ZeroCoef>
-5.4800

> <Gold.Chemscore.Hbond>
0.0537

> <Gold.Chemscore.Metal>
0.0000

> <Gold.Chemscore.Lipo>
80.7423

> <Gold.Chemscore.Internal_Hbond>
0.0000

> <Gold.Chemscore.DEClash>
0.0756

> <Gold.Chemscore.DEInternal>
2.4153

> <Gold.Chemscore.Rot>
1.5971

> <Gold.Chemscore.Internal.Correction>
   9.000000E+99

> <Gold.Chemscore.Hbonds>
donor molecule, donor type, donor heavy atom, donor atom, acceptor molecule, acceptor atom, score
      P1  H  7989  7998       L1    16  0.12

> <Gold.Chemscore.Hbond.Weighted>
-0.1792

> <Gold.Chemscore.Metal.Weighted>
-0.0000

> <Gold.Chemscore.Lipo.Weighted>
-9.4469

> <Gold.Chemscore.Internal_Hbond.Weighted>
0.0000

> <Gold.Chemscore.DEClash.Weighted>
0.0756

> <Gold.Chemscore.DEInternal.Weighted>
2.4153

> <Gold.Chemscore.Rot.Weighted>
4.0886

> <Gold.Chemscore.Internal.Correction.Weighted>
   9.000000E+99

> <Gold.Protein.RotatedTorsions>
[ 6907 6896 6895 6894 ] final  -26.05 input  -60.11 | X-H torsion
[ 7974 7965 7964 7962 ] final   -2.47 input  175.53 | X-H torsion
[ 8008 7997 7996 7995 ] final   31.46 input   59.86 | X-H torsion
[ 10167 10162 10161 10158 ] final  114.82 input  -65.29 | X-H torsion
[ 10718 10713 10712 10709 ] final -113.48 input   66.30 | X-H torsion
[ 10763 10752 10751 10750 ] final -147.02 input  -60.55 | X-H torsion
[ 11005 11000 10999 10996 ] final   85.11 input  -57.11 | X-H torsion

> <Gold.Protein.ActiveResidues>
 VAL166  LYS551  ARG553  GLY616  TRP617  ASP618  TYR619  PRO620  LYS621  CYS622 
 ASP623  PHE694  ASN695  SER759  ASP760  ASP761  ALA762  ILE779  LEU786  VAL792 
 PHE793  MET794  SER795  GLU796  ALA797  LYS798  CYS799  TRP800  GLU811  SER814 

> <Gold.Protein.RotatedAtoms>
  151.1664  135.0298  159.8732 H   0  0  0  0  0  0  0  0  0  0  0  0  # atno 6907 bound_to 6896
  152.5450  134.1220  159.8413 H   0  0  0  0  0  0  0  0  0  0  0  0  # atno 6908 bound_to 6896
  151.1321  133.4983  159.2631 H   0  0  0  0  0  0  0  0  0  0  0  0  # atno 6909 bound_to 6896
  146.2404  140.1576  142.8333 H   0  0  0  0  0  0  0  0  0  0  0  0  # atno 7974 bound_to 7965
  155.1068  140.3235  155.4532 H   0  0  0  0  0  0  0  0  0  0  0  0  # atno 8008 bound_to 7997
  156.2702  140.2051  156.6140 H   0  0  0  0  0  0  0  0  0  0  0  0  # atno 8009 bound_to 7997
  154.6787  140.0528  157.0230 H   0  0  0  0  0  0  0  0  0  0  0  0  # atno 8010 bound_to 7997
  139.6361  144.7120  151.2331 H   0  0  0  0  0  0  0  0  0  0  0  0  # atno 10167 bound_to 10162
  156.0769  130.5975  150.8648 H   0  0  0  0  0  0  0  0  0  0  0  0  # atno 10718 bound_to 10713
  154.8307  135.3371  154.6753 H   0  0  0  0  0  0  0  0  0  0  0  0  # atno 10763 bound_to 10752
  153.7373  135.6948  153.4979 H   0  0  0  0  0  0  0  0  0  0  0  0  # atno 10764 bound_to 10752
  153.2269  135.4429  155.0503 H   0  0  0  0  0  0  0  0  0  0  0  0  # atno 10765 bound_to 10752
  139.8981  134.8264  156.2537 H   0  0  0  0  0  0  0  0  0  0  0  0  # atno 11005 bound_to 11000
  145.0116  140.8719  143.5221 LP  0  0  0  0  0  0  0  0  0  0  0  0  # atno 17320 bound_to 7965
  145.1610  139.2458  143.5391 LP  0  0  0  0  0  0  0  0  0  0  0  0  # atno 17321 bound_to 7965
  140.7466  143.6393  150.8350 LP  0  0  0  0  0  0  0  0  0  0  0  0  # atno 17342 bound_to 10162
  140.0024  143.5729  152.2870 LP  0  0  0  0  0  0  0  0  0  0  0  0  # atno 17343 bound_to 10162
  157.5869  131.0945  150.9182 LP  0  0  0  0  0  0  0  0  0  0  0  0  # atno 17370 bound_to 10713
  156.9366  130.5369  149.5279 LP  0  0  0  0  0  0  0  0  0  0  0  0  # atno 17371 bound_to 10713
  141.0207  133.7043  156.1263 LP  0  0  0  0  0  0  0  0  0  0  0  0  # atno 17394 bound_to 11000
  140.7238  134.4330  157.5572 LP  0  0  0  0  0  0  0  0  0  0  0  0  # atno 17395 bound_to 11000

$$$$
