AV-unprocessed.smi:2202|AV-procd|sdf|8934|dock3
  -GOLD-   2272012153D 1   1.00000     0.00000
 Structure written by MMmdl.
 43 45  0  0  0  0  0  0  0  0  2 V2000
  148.3425  140.4790  154.7226 O   0  0  0  0  0  0  0  0  0  0  0  0
  148.7667  139.4158  154.2664 C   0  0  0  0  0  0  0  0  0  0  0  0
  150.1168  138.8406  154.7180 C   0  0  0  0  0  0  0  0  0  0  0  0
  150.6715  139.5113  155.9007 N   0  0  0  0  0  0  0  0  0  0  0  0
  151.0935  138.8709  157.0088 C   0  0  0  0  0  0  0  0  0  0  0  0
  151.1613  137.6550  157.1855 O   0  0  0  0  0  0  0  0  0  0  0  0
  151.4195  139.9008  158.0799 C   0  0  1  0  0  0  0  0  0  0  0  0
  152.5634  139.7193  159.0850 C   0  0  0  0  0  0  0  0  0  0  0  0
  152.7607  141.0471  159.8243 C   0  0  0  0  0  0  0  0  0  0  0  0
  152.2496  142.2286  159.3989 C   0  0  0  0  0  0  0  0  0  0  0  0
  151.4460  142.3909  158.1043 C   0  0  0  0  0  0  0  0  0  0  0  0
  151.6720  141.1408  157.2456 C   0  0  2  0  0  0  0  0  0  0  0  0
  150.8583  140.8428  155.9954 C   0  0  0  0  0  0  0  0  0  0  0  0
  150.5079  141.7019  155.1870 O   0  0  0  0  0  0  0  0  0  0  0  0
  148.0987  138.6934  153.3545 N   0  0  0  0  0  0  0  0  0  0  0  0
  146.8018  139.0530  152.7934 C   0  0  0  0  0  0  0  0  0  0  0  0
  146.4723  138.2139  151.5471 C   0  0  0  0  0  0  0  0  0  0  0  0
  145.3545  137.2226  151.8036 C   0  0  0  0  0  0  0  0  0  0  0  0
  145.4367  135.8730  151.3974 C   0  0  0  0  0  0  0  0  0  0  0  0
  144.3553  135.0070  151.6632 C   0  0  0  0  0  0  0  0  0  0  0  0
  143.2163  135.5083  152.3271 C   0  0  0  0  0  0  0  0  0  0  0  0
  143.1869  136.8651  152.7086 C   0  0  0  0  0  0  0  0  0  0  0  0
  144.2427  137.6630  152.4364 N   0  3  0  0  0  0  0  0  0  0  0  0
  149.9991  137.7749  154.9235 H   0  0  0  0  0  0  0  0  0  0  0  0
  150.8179  138.9068  153.8840 H   0  0  0  0  0  0  0  0  0  0  0  0
  150.4955  140.0281  158.6493 H   0  0  0  0  0  0  0  0  0  0  0  0
  152.3138  138.9383  159.8037 H   0  0  0  0  0  0  0  0  0  0  0  0
  153.4924  139.4306  158.5922 H   0  0  0  0  0  0  0  0  0  0  0  0
  153.3400  141.0126  160.7353 H   0  0  0  0  0  0  0  0  0  0  0  0
  152.4083  143.1217  159.9850 H   0  0  0  0  0  0  0  0  0  0  0  0
  150.3912  142.5332  158.3412 H   0  0  0  0  0  0  0  0  0  0  0  0
  151.7889  143.2797  157.5739 H   0  0  0  0  0  0  0  0  0  0  0  0
  152.7138  141.1506  156.9156 H   0  0  0  0  0  0  0  0  0  0  0  0
  148.5186  137.8349  153.0277 H   0  0  0  0  0  0  0  0  0  0  0  0
  146.0254  138.9375  153.5521 H   0  0  0  0  0  0  0  0  0  0  0  0
  146.8255  140.1114  152.5325 H   0  0  0  0  0  0  0  0  0  0  0  0
  146.1893  138.8679  150.7209 H   0  0  0  0  0  0  0  0  0  0  0  0
  147.3539  137.6637  151.2146 H   0  0  0  0  0  0  0  0  0  0  0  0
  146.3155  135.5046  150.8880 H   0  0  0  0  0  0  0  0  0  0  0  0
  144.3986  133.9707  151.3611 H   0  0  0  0  0  0  0  0  0  0  0  0
  142.3774  134.8615  152.5399 H   0  0  0  0  0  0  0  0  0  0  0  0
  142.3576  137.3330  153.2188 H   0  0  0  0  0  0  0  0  0  0  0  0
  144.2005  138.6419  152.7214 H   0  0  0  0  0  0  0  0  0  0  0  0
  1  2  2  0  0  0  0
  2  3  1  0  0  0  0
  2 15  1  0  0  0  0
  3  4  1  0  0  0  0
  3 24  1  0  0  0  0
  3 25  1  0  0  0  0
  4 13  1  0  0  0  0
  4  5  1  0  0  0  0
  5  6  2  0  0  0  0
  5  7  1  0  0  0  0
  7 12  1  0  0  0  0
  7  8  1  0  0  0  0
  7 26  1  0  0  0  0
  8  9  1  0  0  0  0
  8 27  1  0  0  0  0
  8 28  1  0  0  0  0
  9 10  2  0  0  0  0
  9 29  1  0  0  0  0
 10 11  1  0  0  0  0
 10 30  1  0  0  0  0
 11 12  1  0  0  0  0
 11 31  1  0  0  0  0
 11 32  1  0  0  0  0
 12 13  1  0  0  0  0
 12 33  1  0  0  0  0
 13 14  2  0  0  0  0
 15 16  1  0  0  0  0
 15 34  1  0  0  0  0
 16 17  1  0  0  0  0
 16 35  1  0  0  0  0
 16 36  1  0  0  0  0
 17 18  1  0  0  0  0
 17 37  1  0  0  0  0
 17 38  1  0  0  0  0
 18 23  1  0  0  0  0
 18 19  2  0  0  0  0
 19 20  1  0  0  0  0
 19 39  1  0  0  0  0
 20 21  2  0  0  0  0
 20 40  1  0  0  0  0
 21 22  1  0  0  0  0
 21 41  1  0  0  0  0
 22 23  2  0  0  0  0
 22 42  1  0  0  0  0
 23 43  1  0  0  0  0
M  CHG  1  23   1
M  END
> <s_m_source_file>
AV-unprocessed.smi

> <i_m_source_file_index>
2202

> <i_lp_mmshare_version>
43012

> <i_f3d_flags>
0

> <s_epik_input>
W0NIMl0xW0NIXT1bQ0hdW0NIMl1bQ0BIXShbQ0BIXTEyKUMoPU8pTihDMj1PKVtDSDJdQyg9TylbTkhdW0NIMl1bQ0gyXWMzW2NIXVtjSF1bY0hdW2NIXW4z

> <s_epik_cmdline>
J2VwaWtfcHl0aG9uJywgJy1waCcsICc3LjAnLCAnLXRuJywgJzgnLCAnLW1hJywgJzIwMCcsICctbWV0YWxfYmluZGluZycsICctaW1hZScsICc8aW5maWxlLm1hZT4nLCAnLW9tYWUnLCAnPG91dGZpbGUubWFlPic=

> <r_lp_tautomer_probability>
1

> <r_epik_Ionization_Penalty>
1.90039

> <r_epik_Ionization_Penalty_Charging>
1.90039

> <r_epik_Ionization_Penalty_Neutral>
1.50224e-07

> <r_epik_State_Penalty>
2.02162

> <r_epik_Charging_Adjusted_Penalty>
3.922

> <i_epik_Tot_Q>
1

> <i_epik_Tot_abs_Q>
1

> <r_epik_Metal_State_Penalty>
2.04542

> <b_epik_Metal_Only>
0

> <s_lp_Force_Field>
OPLS_2005

> <r_lp_Energy>
26.7025

> <b_lp_Chiralities_Consistent>
1

> <s_lp_Variant>
AV-unprocessed.smi:2202-6

> <Gold.Version>
5.8.1

> <Gold.Id.Protein>
6NUR|6NUR_protein|mol2

> <Gold.PLP.Fitness>
49.0784

> <Gold.PLP.PLP>
-41.6151

> <Gold.PLP.part.hbond>
-5.0000

> <Gold.PLP.part.metal>
0.0000

> <Gold.PLP.part.buried>
1.6311

> <Gold.PLP.part.nonpolar>
-39.6405

> <Gold.PLP.part.repulsive>
0.3108

> <Gold.PLP.ligand.clash>
0.0000

> <Gold.PLP.ligand.torsion>
0.7713

> <Gold.PLP.Chemscore.Hbond>
2.9844

> <Gold.PLP.Chemscore.CHOScore>
0.0000

> <Gold.PLP.Chemscore.Metal>
0.0000

> <Gold.Chemscore.Hbonds>
donor molecule, donor type, donor heavy atom, donor atom, acceptor molecule, acceptor atom, score
      L1  H    15    34       P1  7948  1.00
      L1  H    23    43       P1 10175  2.00
      P1  H  7989  7998       L1    14  0.20

> <Gold.PLP.Chemscore.Internal.Correction>
0.0525

> <Gold.Rescore>
     Score         DG    S(hbond)    S(metal)    S(lipo)     H(rot)  DE(clash)    DE(int)     intcor
     11.74     -17.19       1.74        0.00      93.41       1.96       2.15       3.30       ----

> <Gold.Chemscore.Fitness>
11.7372

> <Gold.Chemscore.DG>
-17.1915

> <Gold.Chemscore.ZeroCoef>
-5.4800

> <Gold.Chemscore.Hbond>
1.7385

> <Gold.Chemscore.Metal>
0.0000

> <Gold.Chemscore.Lipo>
93.4091

> <Gold.Chemscore.Internal_Hbond>
0.0000

> <Gold.Chemscore.DEClash>
2.1499

> <Gold.Chemscore.DEInternal>
3.3044

> <Gold.Chemscore.Rot>
1.9625

> <Gold.Chemscore.Internal.Correction>
   9.000000E+99

> <Gold.Chemscore.Hbonds>
donor molecule, donor type, donor heavy atom, donor atom, acceptor molecule, acceptor atom, score
      L1  H    15    34       P1  7948  0.95
      L1  H    23    43       P1 10175  0.96
      P1  H  7989  7998       L1    14  0.04

> <Gold.Chemscore.Hbond.Weighted>
-5.8066

> <Gold.Chemscore.Metal.Weighted>
-0.0000

> <Gold.Chemscore.Lipo.Weighted>
-10.9289

> <Gold.Chemscore.Internal_Hbond.Weighted>
0.0000

> <Gold.Chemscore.DEClash.Weighted>
2.1499

> <Gold.Chemscore.DEInternal.Weighted>
3.3044

> <Gold.Chemscore.Rot.Weighted>
5.0240

> <Gold.Chemscore.Internal.Correction.Weighted>
   9.000000E+99

> <Gold.Protein.RotatedTorsions>
[ 6907 6896 6895 6894 ] final  155.13 input  -60.11 | X-H torsion
[ 7974 7965 7964 7962 ] final -171.95 input  175.53 | X-H torsion
[ 8008 7997 7996 7995 ] final  168.48 input   59.86 | X-H torsion
[ 10167 10162 10161 10158 ] final  114.72 input  -65.29 | X-H torsion
[ 10718 10713 10712 10709 ] final -163.00 input   66.30 | X-H torsion
[ 10763 10752 10751 10750 ] final  -24.11 input  -60.55 | X-H torsion
[ 11005 11000 10999 10996 ] final -166.73 input  -57.11 | X-H torsion

> <Gold.Protein.ActiveResidues>
 VAL166  LYS551  ARG553  GLY616  TRP617  ASP618  TYR619  PRO620  LYS621  CYS622 
 ASP623  PHE694  ASN695  SER759  ASP760  ASP761  ALA762  ILE779  LEU786  VAL792 
 PHE793  MET794  SER795  GLU796  ALA797  LYS798  CYS799  TRP800  GLU811  SER814 

> <Gold.Protein.RotatedAtoms>
  152.0485  133.4008  159.4366 H   0  0  0  0  0  0  0  0  0  0  0  0  # atno 6907 bound_to 6896
  150.6871  134.3335  159.4846 H   0  0  0  0  0  0  0  0  0  0  0  0  # atno 6908 bound_to 6896
  152.1142  134.9252  160.0616 H   0  0  0  0  0  0  0  0  0  0  0  0  # atno 6909 bound_to 6896
  144.7151  140.1846  143.6355 H   0  0  0  0  0  0  0  0  0  0  0  0  # atno 7974 bound_to 7965
  156.1543  140.1589  156.8718 H   0  0  0  0  0  0  0  0  0  0  0  0  # atno 8008 bound_to 7997
  154.5100  140.0803  156.8008 H   0  0  0  0  0  0  0  0  0  0  0  0  # atno 8009 bound_to 7997
  155.3834  140.3406  155.4250 H   0  0  0  0  0  0  0  0  0  0  0  0  # atno 8010 bound_to 7997
  139.6368  144.7120  151.2318 H   0  0  0  0  0  0  0  0  0  0  0  0  # atno 10167 bound_to 10162
  156.6184  130.8880  151.2952 H   0  0  0  0  0  0  0  0  0  0  0  0  # atno 10718 bound_to 10713
  153.6785  135.6968  153.5125 H   0  0  0  0  0  0  0  0  0  0  0  0  # atno 10763 bound_to 10752
  153.2503  135.4277  155.0789 H   0  0  0  0  0  0  0  0  0  0  0  0  # atno 10764 bound_to 10752
  154.8407  135.3529  154.6329 H   0  0  0  0  0  0  0  0  0  0  0  0  # atno 10765 bound_to 10752
  140.5612  134.5331  157.5143 H   0  0  0  0  0  0  0  0  0  0  0  0  # atno 11005 bound_to 11000
  145.8825  139.2330  143.1597 LP  0  0  0  0  0  0  0  0  0  0  0  0  # atno 17320 bound_to 7965
  145.9981  140.8544  143.0032 LP  0  0  0  0  0  0  0  0  0  0  0  0  # atno 17321 bound_to 7965
  140.7469  143.6382  150.8359 LP  0  0  0  0  0  0  0  0  0  0  0  0  # atno 17342 bound_to 10162
  140.0014  143.5740  152.2874 LP  0  0  0  0  0  0  0  0  0  0  0  0  # atno 17343 bound_to 10162
  157.7234  130.9590  150.1534 LP  0  0  0  0  0  0  0  0  0  0  0  0  # atno 17370 bound_to 10713
  156.2332  130.3684  149.8421 LP  0  0  0  0  0  0  0  0  0  0  0  0  # atno 17371 bound_to 10713
  139.9407  134.7793  156.0687 LP  0  0  0  0  0  0  0  0  0  0  0  0  # atno 17394 bound_to 11000
  141.1113  133.6642  156.2985 LP  0  0  0  0  0  0  0  0  0  0  0  0  # atno 17395 bound_to 11000

$$$$
