AV-unprocessed.smi:1184|AV-procd|sdf|4972|dock6
  -GOLD-   22720 3563D 1   1.00000     0.00000
 Structure written by MMmdl.
 43 44  0  0  0  0  0  0  0  0  2 V2000
  143.7350  132.1321  149.3430 C   0  0  0  0  0  0  0  0  0  0  0  0
  143.6821  132.5260  150.8264 C   0  0  0  0  0  0  0  0  0  0  0  0
  143.6397  133.9950  151.0147 N   0  3  2  0  0  0  0  0  0  0  0  0
  144.4510  134.7659  150.0426 C   0  0  0  0  0  0  0  0  0  0  0  0
  145.1732  135.8662  150.8350 C   0  0  0  0  0  0  0  0  0  0  0  0
  144.4456  135.9160  152.1775 C   0  0  2  0  0  0  0  0  0  0  0  0
  145.2790  136.5052  153.3329 C   0  0  0  0  0  0  0  0  0  0  0  0
  146.6198  135.9308  153.3429 N   0  0  0  0  0  0  0  0  0  0  0  0
  147.0802  135.0630  154.2575 C   0  0  0  0  0  0  0  0  0  0  0  0
  146.3659  134.5051  155.0901 O   0  0  0  0  0  0  0  0  0  0  0  0
  148.5928  134.8591  154.2913 C   0  0  0  0  0  0  0  0  0  0  0  0
  148.8745  133.3895  154.1006 C   0  0  0  0  0  0  0  0  0  0  0  0
  148.2288  132.4796  153.2148 C   0  0  0  0  0  0  0  0  0  0  0  0
  147.0940  132.7438  152.2671 C   0  0  0  0  0  0  0  0  0  0  0  0
  148.7586  131.2696  153.2772 N   0  0  0  0  0  0  0  0  0  0  0  0
  149.7839  131.3478  154.2243 O   0  0  0  0  0  0  0  0  0  0  0  0
  149.8321  132.6176  154.7006 C   0  0  0  0  0  0  0  0  0  0  0  0
  150.8856  132.9096  155.7149 C   0  0  0  0  0  0  0  0  0  0  0  0
  144.0154  134.4599  152.3639 C   0  0  0  0  0  0  0  0  0  0  0  0
  143.8386  131.0521  149.2354 H   0  0  0  0  0  0  0  0  0  0  0  0
  144.5834  132.5976  148.8401 H   0  0  0  0  0  0  0  0  0  0  0  0
  142.8281  132.4265  148.8141 H   0  0  0  0  0  0  0  0  0  0  0  0
  142.8208  132.0634  151.3104 H   0  0  0  0  0  0  0  0  0  0  0  0
  144.5704  132.1370  151.3255 H   0  0  0  0  0  0  0  0  0  0  0  0
  145.1734  134.1356  149.5215 H   0  0  0  0  0  0  0  0  0  0  0  0
  143.7850  135.1941  149.2930 H   0  0  0  0  0  0  0  0  0  0  0  0
  146.2152  135.5797  150.9845 H   0  0  0  0  0  0  0  0  0  0  0  0
  145.1658  136.8276  150.3204 H   0  0  0  0  0  0  0  0  0  0  0  0
  143.5442  136.5188  152.0531 H   0  0  0  0  0  0  0  0  0  0  0  0
  145.3186  137.5937  153.2645 H   0  0  0  0  0  0  0  0  0  0  0  0
  144.8017  136.2758  154.2860 H   0  0  0  0  0  0  0  0  0  0  0  0
  147.2833  136.3187  152.6878 H   0  0  0  0  0  0  0  0  0  0  0  0
  149.0553  135.4604  153.5078 H   0  0  0  0  0  0  0  0  0  0  0  0
  148.9904  135.2293  155.2369 H   0  0  0  0  0  0  0  0  0  0  0  0
  147.2426  133.6802  151.7295 H   0  0  0  0  0  0  0  0  0  0  0  0
  146.1482  132.8153  152.8040 H   0  0  0  0  0  0  0  0  0  0  0  0
  146.9954  131.9515  151.5242 H   0  0  0  0  0  0  0  0  0  0  0  0
  150.5790  133.7233  156.3722 H   0  0  0  0  0  0  0  0  0  0  0  0
  151.8160  133.2017  155.2281 H   0  0  0  0  0  0  0  0  0  0  0  0
  151.0860  132.0346  156.3335 H   0  0  0  0  0  0  0  0  0  0  0  0
  143.1841  134.3568  153.0617 H   0  0  0  0  0  0  0  0  0  0  0  0
  144.8516  133.8679  152.7405 H   0  0  0  0  0  0  0  0  0  0  0  0
  142.6840  134.2882  150.8695 H   0  0  0  0  0  0  0  0  0  0  0  0
  1  2  1  0  0  0  0
  1 20  1  0  0  0  0
  1 21  1  0  0  0  0
  1 22  1  0  0  0  0
  2  3  1  0  0  0  0
  2 23  1  0  0  0  0
  2 24  1  0  0  0  0
  3 19  1  0  0  0  0
  3  4  1  0  0  0  0
  3 43  1  0  0  0  0
  4  5  1  0  0  0  0
  4 25  1  0  0  0  0
  4 26  1  0  0  0  0
  5  6  1  0  0  0  0
  5 27  1  0  0  0  0
  5 28  1  0  0  0  0
  6  7  1  0  0  0  0
  6 19  1  0  0  0  0
  6 29  1  0  0  0  0
  7  8  1  0  0  0  0
  7 30  1  0  0  0  0
  7 31  1  0  0  0  0
  8  9  1  0  0  0  0
  8 32  1  0  0  0  0
  9 10  2  0  0  0  0
  9 11  1  0  0  0  0
 11 12  1  0  0  0  0
 11 33  1  0  0  0  0
 11 34  1  0  0  0  0
 12 17  2  0  0  0  0
 12 13  1  0  0  0  0
 13 14  1  0  0  0  0
 13 15  2  0  0  0  0
 14 35  1  0  0  0  0
 14 36  1  0  0  0  0
 14 37  1  0  0  0  0
 15 16  1  0  0  0  0
 16 17  1  0  0  0  0
 17 18  1  0  0  0  0
 18 38  1  0  0  0  0
 18 39  1  0  0  0  0
 18 40  1  0  0  0  0
 19 41  1  0  0  0  0
 19 42  1  0  0  0  0
M  CHG  1   3   1
M  END
> <s_m_source_file>
AV-unprocessed.smi

> <i_m_source_file_index>
1184

> <i_lp_mmshare_version>
43012

> <i_f3d_flags>
0

> <s_epik_input>
W0NIM11bQ0gyXU4xW0NIMl1bQ0gyXVtDQEhdKFtDSDJdMSlbQ0gyXVtOSF1DKD1PKVtDSDJdYzJjKFtDSDNdKW5vYzJbQ0gzXQ==

> <s_epik_cmdline>
J2VwaWtfcHl0aG9uJywgJy1waCcsICc3LjAnLCAnLXRuJywgJzgnLCAnLW1hJywgJzIwMCcsICctbWV0YWxfYmluZGluZycsICctaW1hZScsICc8aW5maWxlLm1hZT4nLCAnLW9tYWUnLCAnPG91dGZpbGUubWFlPic=

> <r_epik_Ionization_Penalty>
0.000590726

> <r_epik_Ionization_Penalty_Charging>
0.000590692

> <r_epik_Ionization_Penalty_Neutral>
3.44741e-08

> <r_epik_State_Penalty>
0.000371644

> <r_epik_Charging_Adjusted_Penalty>
0.000962336

> <i_epik_Tot_Q>
1

> <i_epik_Tot_abs_Q>
1

> <r_epik_Metal_State_Penalty>
-0

> <b_epik_Metal_Only>
0

> <s_lp_Force_Field>
OPLS_2005

> <r_lp_Energy>
20.136

> <b_lp_Chiralities_Consistent>
1

> <s_lp_Variant>
AV-unprocessed.smi:1184-4

> <Gold.Version>
5.8.1

> <Gold.Id.Protein>
6NUR|6NUR_protein|mol2

> <Gold.PLP.Fitness>
37.5685

> <Gold.PLP.PLP>
-29.8144

> <Gold.PLP.part.hbond>
-2.0000

> <Gold.PLP.part.metal>
0.0000

> <Gold.PLP.part.buried>
0.9650

> <Gold.PLP.part.nonpolar>
-29.6282

> <Gold.PLP.part.repulsive>
1.1242

> <Gold.PLP.ligand.clash>
0.0000

> <Gold.PLP.ligand.torsion>
0.6468

> <Gold.PLP.Chemscore.Hbond>
3.0000

> <Gold.PLP.Chemscore.CHOScore>
0.0000

> <Gold.PLP.Chemscore.Metal>
0.0000

> <Gold.Chemscore.Hbonds>
donor molecule, donor type, donor heavy atom, donor atom, acceptor molecule, acceptor atom, score
      L1  H     3    43       P1 10186  1.49
      L1  H     8    32       P1  7948  0.99

> <Gold.PLP.Chemscore.Internal.Correction>
0.0476

> <Gold.Rescore>
     Score         DG    S(hbond)    S(metal)    S(lipo)     H(rot)  DE(clash)    DE(int)     intcor
     13.61     -16.08       1.65        0.00      79.90       1.67       1.87       0.60       ----

> <Gold.Chemscore.Fitness>
13.6098

> <Gold.Chemscore.DG>
-16.0800

> <Gold.Chemscore.ZeroCoef>
-5.4800

> <Gold.Chemscore.Hbond>
1.6536

> <Gold.Chemscore.Metal>
0.0000

> <Gold.Chemscore.Lipo>
79.8975

> <Gold.Chemscore.Internal_Hbond>
0.0000

> <Gold.Chemscore.DEClash>
1.8740

> <Gold.Chemscore.DEInternal>
0.5962

> <Gold.Chemscore.Rot>
1.6684

> <Gold.Chemscore.Internal.Correction>
   9.000000E+99

> <Gold.Chemscore.Hbonds>
donor molecule, donor type, donor heavy atom, donor atom, acceptor molecule, acceptor atom, score
      L1  H     3    43       P1 10186  0.24
      L1  H     8    32       P1  7948  0.93

> <Gold.Chemscore.Hbond.Weighted>
-5.5232

> <Gold.Chemscore.Metal.Weighted>
-0.0000

> <Gold.Chemscore.Lipo.Weighted>
-9.3480

> <Gold.Chemscore.Internal_Hbond.Weighted>
0.0000

> <Gold.Chemscore.DEClash.Weighted>
1.8740

> <Gold.Chemscore.DEInternal.Weighted>
0.5962

> <Gold.Chemscore.Rot.Weighted>
4.2712

> <Gold.Chemscore.Internal.Correction.Weighted>
   9.000000E+99

> <Gold.Protein.RotatedTorsions>
[ 6907 6896 6895 6894 ] final  -87.42 input  -60.11 | X-H torsion
[ 7974 7965 7964 7962 ] final  -27.58 input  175.53 | X-H torsion
[ 8008 7997 7996 7995 ] final  -80.80 input   59.86 | X-H torsion
[ 10167 10162 10161 10158 ] final  -51.99 input  -65.29 | X-H torsion
[ 10718 10713 10712 10709 ] final -178.29 input   66.30 | X-H torsion
[ 10763 10752 10751 10750 ] final  166.90 input  -60.55 | X-H torsion
[ 11005 11000 10999 10996 ] final  179.11 input  -57.11 | X-H torsion

> <Gold.Protein.ActiveResidues>
 VAL166  LYS551  ARG553  GLY616  TRP617  ASP618  TYR619  PRO620  LYS621  CYS622 
 ASP623  PHE694  ASN695  SER759  ASP760  ASP761  ALA762  ILE779  LEU786  VAL792 
 PHE793  MET794  SER795  GLU796  ALA797  LYS798  CYS799  TRP800  GLU811  SER814 

> <Gold.Protein.RotatedAtoms>
  150.6866  134.2898  159.4661 H   0  0  0  0  0  0  0  0  0  0  0  0  # atno 6907 bound_to 6896
  152.0804  134.9472  160.0583 H   0  0  0  0  0  0  0  0  0  0  0  0  # atno 6908 bound_to 6896
  152.0827  133.4126  159.4545 H   0  0  0  0  0  0  0  0  0  0  0  0  # atno 6909 bound_to 6896
  146.1348  140.5170  142.8678 H   0  0  0  0  0  0  0  0  0  0  0  0  # atno 7974 bound_to 7965
  154.5919  140.0657  156.9250 H   0  0  0  0  0  0  0  0  0  0  0  0  # atno 8008 bound_to 7997
  155.2280  140.3335  155.4288 H   0  0  0  0  0  0  0  0  0  0  0  0  # atno 8009 bound_to 7997
  156.2261  140.1820  156.7342 H   0  0  0  0  0  0  0  0  0  0  0  0  # atno 8010 bound_to 7997
  140.6560  143.2599  151.4583 H   0  0  0  0  0  0  0  0  0  0  0  0  # atno 10167 bound_to 10162
  156.8422  130.9690  151.3099 H   0  0  0  0  0  0  0  0  0  0  0  0  # atno 10718 bound_to 10713
  154.3458  135.2753  155.2398 H   0  0  0  0  0  0  0  0  0  0  0  0  # atno 10763 bound_to 10752
  154.4649  135.5898  153.6284 H   0  0  0  0  0  0  0  0  0  0  0  0  # atno 10764 bound_to 10752
  152.9854  135.6074  154.3664 H   0  0  0  0  0  0  0  0  0  0  0  0  # atno 10765 bound_to 10752
  140.4026  134.6764  157.4570 H   0  0  0  0  0  0  0  0  0  0  0  0  # atno 11005 bound_to 11000
  144.7728  140.5674  143.6658 LP  0  0  0  0  0  0  0  0  0  0  0  0  # atno 17320 bound_to 7965
  145.5181  139.1477  143.3567 LP  0  0  0  0  0  0  0  0  0  0  0  0  # atno 17321 bound_to 7965
  139.5783  144.1768  152.1933 LP  0  0  0  0  0  0  0  0  0  0  0  0  # atno 17342 bound_to 10162
  140.1085  144.5477  150.6941 LP  0  0  0  0  0  0  0  0  0  0  0  0  # atno 17343 bound_to 10162
  157.6349  130.8759  149.9342 LP  0  0  0  0  0  0  0  0  0  0  0  0  # atno 17370 bound_to 10713
  156.0874  130.3666  150.0460 LP  0  0  0  0  0  0  0  0  0  0  0  0  # atno 17371 bound_to 10713
  140.0325  134.6385  155.9087 LP  0  0  0  0  0  0  0  0  0  0  0  0  # atno 17394 bound_to 11000
  141.1851  133.6554  156.5185 LP  0  0  0  0  0  0  0  0  0  0  0  0  # atno 17395 bound_to 11000

$$$$
