AV-unprocessed.smi:528|AV-procd|sdf|2838|dock4
  -GOLD-   2262023323D 1   1.00000     0.00000
 Structure written by MMmdl.
 45 47  0  0  0  0  0  0  0  0  1 V2000
  152.1120  138.9236  155.5721 C   0  0  0  0  0  0  0  0  0  0  0  0
  150.8593  139.7207  155.9749 C   0  0  1  0  0  0  0  0  0  0  0  0
  151.2603  140.9662  156.6249 N   0  0  0  0  0  0  0  0  0  0  0  0
  150.8844  141.3639  157.8499 C   0  0  0  0  0  0  0  0  0  0  0  0
  150.1637  140.6903  158.5879 O   0  0  0  0  0  0  0  0  0  0  0  0
  151.4259  142.7273  158.3031 C   0  0  0  0  0  0  0  0  0  0  0  0
  152.0551  142.6979  159.6342 N   0  0  0  0  0  0  0  0  0  0  0  0
  152.8973  141.6057  159.9211 C   0  0  0  0  0  0  0  0  0  0  0  0
  153.5438  141.4665  161.0944 C   0  0  0  0  0  0  0  0  0  0  0  0
  154.4007  140.2463  161.3937 C   0  0  0  0  0  0  0  0  0  0  0  0
  155.4863  140.2187  160.6203 F   0  0  0  0  0  0  0  0  0  0  0  0
  154.7937  140.2354  162.6679 F   0  0  0  0  0  0  0  0  0  0  0  0
  153.7009  139.1357  161.1666 F   0  0  0  0  0  0  0  0  0  0  0  0
  153.3065  142.4958  162.0876 C   0  0  0  0  0  0  0  0  0  0  0  0
  152.4947  143.5409  161.8338 C   0  0  0  0  0  0  0  0  0  0  0  0
  151.8133  143.6877  160.5455 C   0  0  0  0  0  0  0  0  0  0  0  0
  151.0713  144.6396  160.3007 O   0  0  0  0  0  0  0  0  0  0  0  0
  149.9551  140.0344  154.7597 C   0  0  1  0  0  0  0  0  0  0  0  0
  149.0572  138.8645  154.2976 C   0  0  0  0  0  0  0  0  0  0  0  0
  147.6655  139.5159  154.1920 C   0  0  1  0  0  0  0  0  0  0  0  0
  147.1126  139.7517  155.6093 C   0  0  0  0  0  0  0  0  0  0  0  0
  147.9732  140.9230  156.1165 C   0  0  0  0  0  0  0  0  0  0  0  0
  148.9288  141.1832  154.9336 C   0  0  2  0  0  0  0  0  0  0  0  0
  148.0034  140.9340  153.7468 C   0  0  0  0  0  0  0  0  0  0  0  0
  151.8463  137.9748  155.1063 H   0  0  0  0  0  0  0  0  0  0  0  0
  152.7299  138.6950  156.4409 H   0  0  0  0  0  0  0  0  0  0  0  0
  152.7272  139.4802  154.8643 H   0  0  0  0  0  0  0  0  0  0  0  0
  150.2932  139.1136  156.6826 H   0  0  0  0  0  0  0  0  0  0  0  0
  151.8576  141.5821  156.0924 H   0  0  0  0  0  0  0  0  0  0  0  0
  152.1357  143.0771  157.5521 H   0  0  0  0  0  0  0  0  0  0  0  0
  150.6151  143.4583  158.2901 H   0  0  0  0  0  0  0  0  0  0  0  0
  152.9780  140.8794  159.1254 H   0  0  0  0  0  0  0  0  0  0  0  0
  153.7904  142.4303  163.0510 H   0  0  0  0  0  0  0  0  0  0  0  0
  152.3424  144.2901  162.5969 H   0  0  0  0  0  0  0  0  0  0  0  0
  150.6052  140.3090  153.9267 H   0  0  0  0  0  0  0  0  0  0  0  0
  149.3889  138.4882  153.3292 H   0  0  0  0  0  0  0  0  0  0  0  0
  149.0554  138.0251  154.9942 H   0  0  0  0  0  0  0  0  0  0  0  0
  146.9785  138.9769  153.5391 H   0  0  0  0  0  0  0  0  0  0  0  0
  146.0603  140.0366  155.5750 H   0  0  0  0  0  0  0  0  0  0  0  0
  147.1995  138.8669  156.2409 H   0  0  0  0  0  0  0  0  0  0  0  0
  147.3480  141.7981  156.2987 H   0  0  0  0  0  0  0  0  0  0  0  0
  148.4887  140.6973  157.0493 H   0  0  0  0  0  0  0  0  0  0  0  0
  149.3812  142.1752  154.9507 H   0  0  0  0  0  0  0  0  0  0  0  0
  148.5114  140.9755  152.7816 H   0  0  0  0  0  0  0  0  0  0  0  0
  147.1379  141.5986  153.7243 H   0  0  0  0  0  0  0  0  0  0  0  0
  1  2  1  0  0  0  0
  1 25  1  0  0  0  0
  1 26  1  0  0  0  0
  1 27  1  0  0  0  0
  2  3  1  0  0  0  0
  2 18  1  0  0  0  0
  2 28  1  0  0  0  0
  3  4  1  0  0  0  0
  3 29  1  0  0  0  0
  4  5  2  0  0  0  0
  4  6  1  0  0  0  0
  6  7  1  0  0  0  0
  6 30  1  0  0  0  0
  6 31  1  0  0  0  0
  7 16  1  0  0  0  0
  7  8  1  0  0  0  0
  8  9  2  0  0  0  0
  8 32  1  0  0  0  0
  9 10  1  0  0  0  0
  9 14  1  0  0  0  0
 10 11  1  0  0  0  0
 10 12  1  0  0  0  0
 10 13  1  0  0  0  0
 14 15  2  0  0  0  0
 14 33  1  0  0  0  0
 15 16  1  0  0  0  0
 15 34  1  0  0  0  0
 16 17  2  0  0  0  0
 18 23  1  0  0  0  0
 18 19  1  0  0  0  0
 18 35  1  0  0  0  0
 19 20  1  0  0  0  0
 19 36  1  0  0  0  0
 19 37  1  0  0  0  0
 20 24  1  0  0  0  0
 20 21  1  0  0  0  0
 20 38  1  0  0  0  0
 21 22  1  0  0  0  0
 21 39  1  0  0  0  0
 21 40  1  0  0  0  0
 22 23  1  0  0  0  0
 22 41  1  0  0  0  0
 22 42  1  0  0  0  0
 23 24  1  0  0  0  0
 23 43  1  0  0  0  0
 24 44  1  0  0  0  0
 24 45  1  0  0  0  0
M  END
> <s_m_source_file>
AV-unprocessed.smi

> <i_m_source_file_index>
528

> <i_lp_mmshare_version>
43012

> <i_f3d_flags>
0

> <s_epik_input>
W0NIMl0xW0NIMl1bQ0BASF0oW0NIMl0yKVtDQEBIXShbQ0gyXVtDQEhdMTIpW0NASF0oW0NIM10pW05IXUMoPU8pW0NIMl1uM1tjSF1jKEMoRikoRilGKVtjSF1bY0hdYzM9Tw==

> <s_epik_cmdline>
J2VwaWtfcHl0aG9uJywgJy1waCcsICc3LjAnLCAnLXRuJywgJzgnLCAnLW1hJywgJzIwMCcsICctbWV0YWxfYmluZGluZycsICctaW1hZScsICc8aW5maWxlLm1hZT4nLCAnLW9tYWUnLCAnPG91dGZpbGUubWFlPic=

> <r_lp_tautomer_probability>
1

> <r_epik_Ionization_Penalty>
4.09479e-08

> <r_epik_Ionization_Penalty_Charging>
1.9321e-08

> <r_epik_Ionization_Penalty_Neutral>
2.16269e-08

> <r_epik_State_Penalty>
-0

> <r_epik_Charging_Adjusted_Penalty>
1.9321e-08

> <i_epik_Tot_Q>
0

> <i_epik_Tot_abs_Q>
0

> <r_epik_Metal_State_Penalty>
-0

> <b_epik_Metal_Only>
0

> <s_lp_Force_Field>
OPLS_2005

> <r_lp_Energy>
62.533

> <b_lp_Chiralities_Consistent>
1

> <s_lp_Variant>
AV-unprocessed.smi:528-8

> <Gold.Version>
5.8.1

> <Gold.Id.Protein>
6NUR|6NUR_protein|mol2

> <Gold.PLP.Fitness>
49.6094

> <Gold.PLP.PLP>
-51.2268

> <Gold.PLP.part.hbond>
0.0000

> <Gold.PLP.part.metal>
0.0000

> <Gold.PLP.part.buried>
-2.6289

> <Gold.PLP.part.nonpolar>
-48.8028

> <Gold.PLP.part.repulsive>
0.2713

> <Gold.PLP.ligand.clash>
0.0000

> <Gold.PLP.ligand.torsion>
0.8402

> <Gold.PLP.Chemscore.Hbond>
0.0000

> <Gold.PLP.Chemscore.CHOScore>
0.0000

> <Gold.PLP.Chemscore.Metal>
0.0000

> <Gold.PLP.Chemscore.Internal.Correction>
0.0630

> <Gold.Rescore>
     Score         DG    S(hbond)    S(metal)    S(lipo)     H(rot)  DE(clash)    DE(int)     intcor
     13.40     -14.05       0.00        0.00     110.69       1.71       0.07       0.58       ----

> <Gold.Chemscore.Fitness>
13.4000

> <Gold.Chemscore.DG>
-14.0468

> <Gold.Chemscore.ZeroCoef>
-5.4800

> <Gold.Chemscore.Hbond>
0.0000

> <Gold.Chemscore.Metal>
0.0000

> <Gold.Chemscore.Lipo>
110.6904

> <Gold.Chemscore.Internal_Hbond>
0.0000

> <Gold.Chemscore.DEClash>
0.0707

> <Gold.Chemscore.DEInternal>
0.5761

> <Gold.Chemscore.Rot>
1.7125

> <Gold.Chemscore.Internal.Correction>
   9.000000E+99

> <Gold.Chemscore.Hbond.Weighted>
-0.0000

> <Gold.Chemscore.Metal.Weighted>
-0.0000

> <Gold.Chemscore.Lipo.Weighted>
-12.9508

> <Gold.Chemscore.Internal_Hbond.Weighted>
0.0000

> <Gold.Chemscore.DEClash.Weighted>
0.0707

> <Gold.Chemscore.DEInternal.Weighted>
0.5761

> <Gold.Chemscore.Rot.Weighted>
4.3840

> <Gold.Chemscore.Internal.Correction.Weighted>
   9.000000E+99

> <Gold.Protein.RotatedTorsions>
[ 6907 6896 6895 6894 ] final   88.28 input  -60.11 | X-H torsion
[ 7974 7965 7964 7962 ] final   25.17 input  175.53 | X-H torsion
[ 8008 7997 7996 7995 ] final  -12.09 input   59.86 | X-H torsion
[ 10167 10162 10161 10158 ] final   45.50 input  -65.29 | X-H torsion
[ 10718 10713 10712 10709 ] final   99.50 input   66.30 | X-H torsion
[ 10763 10752 10751 10750 ] final -128.79 input  -60.55 | X-H torsion
[ 11005 11000 10999 10996 ] final   55.58 input  -57.11 | X-H torsion

> <Gold.Protein.ActiveResidues>
 VAL166  LYS551  ARG553  GLY616  TRP617  ASP618  TYR619  PRO620  LYS621  CYS622 
 ASP623  PHE694  ASN695  SER759  ASP760  ASP761  ALA762  ILE779  LEU786  VAL792 
 PHE793  MET794  SER795  GLU796  ALA797  LYS798  CYS799  TRP800  GLU811  SER814 

> <Gold.Protein.RotatedAtoms>
  152.5423  134.2145  159.8762 H   0  0  0  0  0  0  0  0  0  0  0  0  # atno 6907 bound_to 6896
  151.2126  133.4540  159.2606 H   0  0  0  0  0  0  0  0  0  0  0  0  # atno 6908 bound_to 6896
  151.0882  134.9913  159.8445 H   0  0  0  0  0  0  0  0  0  0  0  0  # atno 6909 bound_to 6896
  146.1902  139.7503  142.8837 H   0  0  0  0  0  0  0  0  0  0  0  0  # atno 7974 bound_to 7965
  154.5408  140.2285  155.8645 H   0  0  0  0  0  0  0  0  0  0  0  0  # atno 8008 bound_to 7997
  156.1856  140.3089  155.9194 H   0  0  0  0  0  0  0  0  0  0  0  0  # atno 8009 bound_to 7997
  155.3262  140.0443  157.3031 H   0  0  0  0  0  0  0  0  0  0  0  0  # atno 8010 bound_to 7997
  140.3235  144.2676  150.6179 H   0  0  0  0  0  0  0  0  0  0  0  0  # atno 10167 bound_to 10162
  157.6874  131.0671  150.4958 H   0  0  0  0  0  0  0  0  0  0  0  0  # atno 10718 bound_to 10713
  154.8757  135.3917  154.3814 H   0  0  0  0  0  0  0  0  0  0  0  0  # atno 10763 bound_to 10752
  153.4561  135.7028  153.6084 H   0  0  0  0  0  0  0  0  0  0  0  0  # atno 10764 bound_to 10752
  153.4603  135.3813  155.2303 H   0  0  0  0  0  0  0  0  0  0  0  0  # atno 10765 bound_to 10752
  140.0596  134.5621  155.9167 H   0  0  0  0  0  0  0  0  0  0  0  0  # atno 11005 bound_to 11000
  145.3817  141.0359  143.3174 LP  0  0  0  0  0  0  0  0  0  0  0  0  # atno 17320 bound_to 7965
  144.8471  139.5379  143.6873 LP  0  0  0  0  0  0  0  0  0  0  0  0  # atno 17321 bound_to 7965
  140.5462  143.2214  151.8003 LP  0  0  0  0  0  0  0  0  0  0  0  0  # atno 17342 bound_to 10162
  139.4870  144.4536  151.9625 LP  0  0  0  0  0  0  0  0  0  0  0  0  # atno 17343 bound_to 10162
  156.5282  130.4178  149.6215 LP  0  0  0  0  0  0  0  0  0  0  0  0  # atno 17370 bound_to 10713
  156.3092  130.7220  151.2109 LP  0  0  0  0  0  0  0  0  0  0  0  0  # atno 17371 bound_to 10713
  141.1967  133.6593  156.5706 LP  0  0  0  0  0  0  0  0  0  0  0  0  # atno 17394 bound_to 11000
  140.3791  134.7539  157.4649 LP  0  0  0  0  0  0  0  0  0  0  0  0  # atno 17395 bound_to 11000

$$$$
