AV-unprocessed.smi:561|AV-procd|sdf|2942|dock3
  -GOLD-   2262023443D 1   1.00000     0.00000
 Structure written by MMmdl.
 35 36  0  0  0  0  0  0  0  0  2 V2000
  151.2301  137.4899  154.5639 C   0  0  0  0  0  0  0  0  0  0  0  0
  150.3308  138.6911  154.8876 C   0  0  2  0  0  0  0  0  0  0  0  0
  149.4020  139.0326  153.6940 C   0  0  0  0  0  0  0  0  0  0  0  0
  148.4497  140.1057  153.9606 N   0  0  0  0  0  0  0  0  0  0  0  0
  148.7391  141.3951  154.3956 C   0  0  0  0  0  0  0  0  0  0  0  0
  147.5375  142.0579  154.4985 C   0  0  0  0  0  0  0  0  0  0  0  0
  146.4999  141.2101  154.1194 N   0  0  0  0  0  0  0  0  0  0  0  0
  147.1155  140.0751  153.8131 C   0  0  0  0  0  0  0  0  0  0  0  0
  151.1840  139.8414  155.2094 N   0  5  0  0  0  0  0  0  0  0  0  0
  152.0162  139.9338  156.2915 C   0  0  0  0  0  0  0  0  0  0  0  0
  152.9116  139.1351  156.5927 O   0  0  0  0  0  0  0  0  0  0  0  0
  151.8466  141.0805  157.2324 C   0  0  0  0  0  0  0  0  0  0  0  0
  152.4999  141.0934  158.3524 N   0  0  0  0  0  0  0  0  0  0  0  0
  152.4089  142.1389  159.2475 N   0  0  0  0  0  0  0  0  0  0  0  0
  153.4049  142.1175  160.3167 C   0  0  0  0  0  0  0  0  0  0  0  0
  151.4736  143.1189  159.1963 C   0  0  0  0  0  0  0  0  0  0  0  0
  151.4228  144.0592  159.9896 O   0  0  0  0  0  0  0  0  0  0  0  0
  150.4184  142.9976  158.0944 C   0  0  0  0  0  0  0  0  0  0  0  0
  150.9476  142.2456  156.8573 C   0  0  0  0  0  0  0  0  0  0  0  0
  150.6335  136.6054  154.3392 H   0  0  0  0  0  0  0  0  0  0  0  0
  151.8760  137.2431  155.4072 H   0  0  0  0  0  0  0  0  0  0  0  0
  151.8676  137.6882  153.7015 H   0  0  0  0  0  0  0  0  0  0  0  0
  149.7026  138.3987  155.7304 H   0  0  0  0  0  0  0  0  0  0  0  0
  149.9924  139.3043  152.8176 H   0  0  0  0  0  0  0  0  0  0  0  0
  148.8291  138.1483  153.4122 H   0  0  0  0  0  0  0  0  0  0  0  0
  149.7494  141.7174  154.6003 H   0  0  0  0  0  0  0  0  0  0  0  0
  147.3423  143.0734  154.8097 H   0  0  0  0  0  0  0  0  0  0  0  0
  146.5840  139.1977  153.4749 H   0  0  0  0  0  0  0  0  0  0  0  0
  152.9202  142.0780  161.2931 H   0  0  0  0  0  0  0  0  0  0  0  0
  154.0268  143.0128  160.2793 H   0  0  0  0  0  0  0  0  0  0  0  0
  154.0664  141.2526  160.2428 H   0  0  0  0  0  0  0  0  0  0  0  0
  149.5687  142.4581  158.5144 H   0  0  0  0  0  0  0  0  0  0  0  0
  150.0547  143.9857  157.8110 H   0  0  0  0  0  0  0  0  0  0  0  0
  151.4990  142.9301  156.2119 H   0  0  0  0  0  0  0  0  0  0  0  0
  150.0890  141.9015  156.2800 H   0  0  0  0  0  0  0  0  0  0  0  0
  1  2  1  0  0  0  0
  1 20  1  0  0  0  0
  1 21  1  0  0  0  0
  1 22  1  0  0  0  0
  2  3  1  0  0  0  0
  2  9  1  0  0  0  0
  2 23  1  0  0  0  0
  3  4  1  0  0  0  0
  3 24  1  0  0  0  0
  3 25  1  0  0  0  0
  4  8  1  0  0  0  0
  4  5  1  0  0  0  0
  5  6  2  0  0  0  0
  5 26  1  0  0  0  0
  6  7  1  0  0  0  0
  6 27  1  0  0  0  0
  7  8  2  0  0  0  0
  8 28  1  0  0  0  0
  9 10  1  0  0  0  0
 10 11  2  0  0  0  0
 10 12  1  0  0  0  0
 12 19  1  0  0  0  0
 12 13  2  0  0  0  0
 13 14  1  0  0  0  0
 14 15  1  0  0  0  0
 14 16  1  0  0  0  0
 15 29  1  0  0  0  0
 15 30  1  0  0  0  0
 15 31  1  0  0  0  0
 16 17  2  0  0  0  0
 16 18  1  0  0  0  0
 18 19  1  0  0  0  0
 18 32  1  0  0  0  0
 18 33  1  0  0  0  0
 19 34  1  0  0  0  0
 19 35  1  0  0  0  0
M  CHG  1   9  -1
M  END
> <s_m_source_file>
AV-unprocessed.smi

> <i_m_source_file_index>
561

> <i_lp_mmshare_version>
43012

> <i_f3d_flags>
0

> <s_epik_input>
W2NIXTFuW2NIXVtjSF1uMVtDSDJdW0NAQEhdKFtDSDNdKVtOSF1DKD1PKUMyPU5OKFtDSDNdKUMoPU8pW0NIMl1bQ0gyXTI=

> <s_epik_cmdline>
J2VwaWtfcHl0aG9uJywgJy1waCcsICc3LjAnLCAnLXRuJywgJzgnLCAnLW1hJywgJzIwMCcsICctbWV0YWxfYmluZGluZycsICctaW1hZScsICc8aW5maWxlLm1hZT4nLCAnLW9tYWUnLCAnPG91dGZpbGUubWFlPic=

> <r_lp_tautomer_probability>
1

> <r_epik_Ionization_Penalty>
6.06239

> <r_epik_Ionization_Penalty_Charging>
6.06239

> <r_epik_Ionization_Penalty_Neutral>
3.91387e-09

> <r_epik_State_Penalty>
5.76729

> <r_epik_Charging_Adjusted_Penalty>
11.8297

> <i_epik_Tot_Q>
-1

> <i_epik_Tot_abs_Q>
1

> <r_epik_Metal_State_Penalty>
2.02369

> <b_epik_Metal_Only>
1

> <s_epik_Chemistry_Notes>
This compound has an imine and may undergo hydrolysis.

> <s_lp_Force_Field>
OPLS_2005

> <r_lp_Energy>
24.7282

> <b_lp_Chiralities_Consistent>
1

> <s_lp_Variant>
AV-unprocessed.smi:561-7

> <Gold.Version>
5.8.1

> <Gold.Id.Protein>
6NUR|6NUR_protein|mol2

> <Gold.PLP.Fitness>
42.6299

> <Gold.PLP.PLP>
-34.8737

> <Gold.PLP.part.hbond>
-2.0000

> <Gold.PLP.part.metal>
0.0000

> <Gold.PLP.part.buried>
-0.3475

> <Gold.PLP.part.nonpolar>
-32.9459

> <Gold.PLP.part.repulsive>
0.2649

> <Gold.PLP.ligand.clash>
0.0000

> <Gold.PLP.ligand.torsion>
0.6335

> <Gold.PLP.Chemscore.Hbond>
2.0000

> <Gold.PLP.Chemscore.CHOScore>
0.9986

> <Gold.PLP.Chemscore.Metal>
0.0000

> <Gold.Chemscore.Hbonds>
donor molecule, donor type, donor heavy atom, donor atom, acceptor molecule, acceptor atom, score
      P1  H  7989  7998       L1     9  0.98
      P1  H  7997  8010       L1    11  1.00
      L1  C     6    27       P1  8028  1.00

> <Gold.PLP.Chemscore.Internal.Correction>
0.0274

> <Gold.Rescore>
     Score         DG    S(hbond)    S(metal)    S(lipo)     H(rot)  DE(clash)    DE(int)     intcor
     13.08     -14.49       1.61        0.00      67.82       1.68       0.67       0.74       ----

> <Gold.Chemscore.Fitness>
13.0823

> <Gold.Chemscore.DG>
-14.4930

> <Gold.Chemscore.ZeroCoef>
-5.4800

> <Gold.Chemscore.Hbond>
1.6101

> <Gold.Chemscore.Metal>
0.0000

> <Gold.Chemscore.Lipo>
67.8200

> <Gold.Chemscore.Internal_Hbond>
0.0000

> <Gold.Chemscore.DEClash>
0.6737

> <Gold.Chemscore.DEInternal>
0.7370

> <Gold.Chemscore.Rot>
1.6796

> <Gold.Chemscore.Internal.Correction>
   9.000000E+99

> <Gold.Chemscore.Hbonds>
donor molecule, donor type, donor heavy atom, donor atom, acceptor molecule, acceptor atom, score
      P1  H  7989  7998       L1     9  0.66
      P1  H  7997  8010       L1    11  0.40

> <Gold.Chemscore.Hbond.Weighted>
-5.3778

> <Gold.Chemscore.Metal.Weighted>
-0.0000

> <Gold.Chemscore.Lipo.Weighted>
-7.9349

> <Gold.Chemscore.Internal_Hbond.Weighted>
0.0000

> <Gold.Chemscore.DEClash.Weighted>
0.6737

> <Gold.Chemscore.DEInternal.Weighted>
0.7370

> <Gold.Chemscore.Rot.Weighted>
4.2997

> <Gold.Chemscore.Internal.Correction.Weighted>
   9.000000E+99

> <Gold.Protein.RotatedTorsions>
[ 6907 6896 6895 6894 ] final   10.95 input  -60.11 | X-H torsion
[ 7974 7965 7964 7962 ] final   88.13 input  175.53 | X-H torsion
[ 8008 7997 7996 7995 ] final   69.17 input   59.86 | X-H torsion
[ 10167 10162 10161 10158 ] final  118.46 input  -65.29 | X-H torsion
[ 10718 10713 10712 10709 ] final  -38.33 input   66.30 | X-H torsion
[ 10763 10752 10751 10750 ] final -161.34 input  -60.55 | X-H torsion
[ 11005 11000 10999 10996 ] final   70.01 input  -57.11 | X-H torsion

> <Gold.Protein.ActiveResidues>
 VAL166  LYS551  ARG553  GLY616  TRP617  ASP618  TYR619  PRO620  LYS621  CYS622 
 ASP623  PHE694  ASN695  SER759  ASP760  ASP761  ALA762  ILE779  LEU786  VAL792 
 PHE793  MET794  SER795  GLU796  ALA797  LYS798  CYS799  TRP800  GLU811  SER814 

> <Gold.Protein.RotatedAtoms>
  151.7465  135.0842  160.0323 H   0  0  0  0  0  0  0  0  0  0  0  0  # atno 6907 bound_to 6896
  152.3445  133.6101  159.5908 H   0  0  0  0  0  0  0  0  0  0  0  0  # atno 6908 bound_to 6896
  150.7500  133.9587  159.3550 H   0  0  0  0  0  0  0  0  0  0  0  0  # atno 6909 bound_to 6896
  145.5498  139.2294  143.2519 H   0  0  0  0  0  0  0  0  0  0  0  0  # atno 7974 bound_to 7965
  155.7195  140.3493  155.5009 H   0  0  0  0  0  0  0  0  0  0  0  0  # atno 8008 bound_to 7997
  155.9283  140.1079  157.1174 H   0  0  0  0  0  0  0  0  0  0  0  0  # atno 8009 bound_to 7997
  154.4081  140.1236  156.4755 H   0  0  0  0  0  0  0  0  0  0  0  0  # atno 8010 bound_to 7997
  139.6110  144.7081  151.2844 H   0  0  0  0  0  0  0  0  0  0  0  0  # atno 10167 bound_to 10162
  156.3050  130.4245  149.8106 H   0  0  0  0  0  0  0  0  0  0  0  0  # atno 10718 bound_to 10713
  154.7312  135.3047  154.8888 H   0  0  0  0  0  0  0  0  0  0  0  0  # atno 10763 bound_to 10752
  153.9730  135.6739  153.4752 H   0  0  0  0  0  0  0  0  0  0  0  0  # atno 10764 bound_to 10752
  153.0920  135.4954  154.8629 H   0  0  0  0  0  0  0  0  0  0  0  0  # atno 10765 bound_to 10752
  139.9622  134.7042  156.0622 H   0  0  0  0  0  0  0  0  0  0  0  0  # atno 11005 bound_to 11000
  146.1925  140.6320  142.9139 LP  0  0  0  0  0  0  0  0  0  0  0  0  # atno 17320 bound_to 7965
  144.7535  140.5250  143.6785 LP  0  0  0  0  0  0  0  0  0  0  0  0  # atno 17321 bound_to 7965
  140.7319  143.6839  150.7978 LP  0  0  0  0  0  0  0  0  0  0  0  0  # atno 17342 bound_to 10162
  140.0433  143.5323  152.2707 LP  0  0  0  0  0  0  0  0  0  0  0  0  # atno 17343 bound_to 10162
  156.5470  130.8325  151.3287 LP  0  0  0  0  0  0  0  0  0  0  0  0  # atno 17370 bound_to 10713
  157.7377  130.9801  150.2210 LP  0  0  0  0  0  0  0  0  0  0  0  0  # atno 17371 bound_to 10713
  141.1299  133.6589  156.3437 LP  0  0  0  0  0  0  0  0  0  0  0  0  # atno 17394 bound_to 11000
  140.5476  134.6059  157.5398 LP  0  0  0  0  0  0  0  0  0  0  0  0  # atno 17395 bound_to 11000

$$$$
