AV-unprocessed.smi:1734|AV-procd|sdf|6983|dock2
  -GOLD-   22720 8193D 1   1.00000     0.00000
 Structure written by MMmdl.
 50 52  0  0  0  0  0  0  0  0  1 V2000
  147.0153  132.3566  153.0834 C   0  0  0  0  0  0  0  0  0  0  0  0
  145.8977  132.6388  152.0925 C   0  0  0  0  0  0  0  0  0  0  0  0
  145.1715  131.5593  151.5456 C   0  0  0  0  0  0  0  0  0  0  0  0
  144.1385  131.8217  150.6300 C   0  0  0  0  0  0  0  0  0  0  0  0
  143.8735  133.1611  150.2975 C   0  0  0  0  0  0  0  0  0  0  0  0
  144.5629  134.1984  150.8144 N   0  0  0  0  0  0  0  0  0  0  0  0
  145.5637  133.9629  151.6999 C   0  0  0  0  0  0  0  0  0  0  0  0
  146.3357  135.0076  152.2827 N   0  0  0  0  0  0  0  0  0  0  0  0
  146.0283  135.7896  153.3326 C   0  0  0  0  0  0  0  0  0  0  0  0
  145.0013  135.7057  154.0070 O   0  0  0  0  0  0  0  0  0  0  0  0
  146.9902  136.6971  153.5551 N   0  0  0  0  0  0  0  0  0  0  0  0
  146.9626  137.7353  154.5824 C   0  0  0  0  0  0  0  0  0  0  0  0
  148.1375  138.7392  154.4253 C   0  0  1  0  0  0  0  0  0  0  0  0
  147.7044  140.2203  154.6544 C   0  0  1  0  0  0  0  0  0  0  0  0
  148.6495  141.3325  154.1903 C   0  0  0  0  0  0  0  0  0  0  0  0
  147.7297  142.3356  153.4921 C   0  0  0  0  0  0  0  0  0  0  0  0
  146.4369  142.0392  153.9969 O   0  0  0  0  0  0  0  0  0  0  0  0
  146.3445  140.6264  154.0714 C   0  0  0  0  0  0  0  0  0  0  0  0
  149.3862  138.3459  155.1080 N   0  0  0  0  0  0  0  0  0  0  0  0
  149.4734  136.9421  155.5058 C   0  0  0  0  0  0  0  0  0  0  0  0
  150.7616  136.6531  156.2965 C   0  0  0  0  0  0  0  0  0  0  0  0
  151.8984  137.0569  155.5400 O   0  0  0  0  0  0  0  0  0  0  0  0
  151.8646  138.4376  155.1949 C   0  0  0  0  0  0  0  0  0  0  0  0
  150.5939  138.7279  154.3796 C   0  0  0  0  0  0  0  0  0  0  0  0
  147.1318  131.2862  153.2564 H   0  0  0  0  0  0  0  0  0  0  0  0
  146.8031  132.8300  154.0424 H   0  0  0  0  0  0  0  0  0  0  0  0
  147.9643  132.7405  152.7082 H   0  0  0  0  0  0  0  0  0  0  0  0
  145.4010  130.5407  151.8222 H   0  0  0  0  0  0  0  0  0  0  0  0
  143.5640  131.0176  150.1942 H   0  0  0  0  0  0  0  0  0  0  0  0
  143.0881  133.4072  149.5981 H   0  0  0  0  0  0  0  0  0  0  0  0
  147.2187  135.1935  151.8313 H   0  0  0  0  0  0  0  0  0  0  0  0
  147.7986  136.6853  152.9504 H   0  0  0  0  0  0  0  0  0  0  0  0
  146.0062  138.2589  154.5898 H   0  0  0  0  0  0  0  0  0  0  0  0
  147.0245  137.2166  155.5378 H   0  0  0  0  0  0  0  0  0  0  0  0
  148.3805  138.7156  153.3618 H   0  0  0  0  0  0  0  0  0  0  0  0
  147.6066  140.3556  155.7329 H   0  0  0  0  0  0  0  0  0  0  0  0
  149.1237  141.7983  155.0549 H   0  0  0  0  0  0  0  0  0  0  0  0
  149.4502  140.9980  153.5329 H   0  0  0  0  0  0  0  0  0  0  0  0
  148.0097  143.3706  153.6897 H   0  0  0  0  0  0  0  0  0  0  0  0
  147.7389  142.1804  152.4121 H   0  0  0  0  0  0  0  0  0  0  0  0
  146.1838  140.2366  153.0657 H   0  0  0  0  0  0  0  0  0  0  0  0
  145.5089  140.3112  154.6966 H   0  0  0  0  0  0  0  0  0  0  0  0
  148.6295  136.6724  156.1361 H   0  0  0  0  0  0  0  0  0  0  0  0
  149.4389  136.2980  154.6270 H   0  0  0  0  0  0  0  0  0  0  0  0
  150.7500  137.1779  157.2530 H   0  0  0  0  0  0  0  0  0  0  0  0
  150.8394  135.5885  156.5174 H   0  0  0  0  0  0  0  0  0  0  0  0
  151.8937  139.0490  156.0981 H   0  0  0  0  0  0  0  0  0  0  0  0
  152.7533  138.6818  154.6128 H   0  0  0  0  0  0  0  0  0  0  0  0
  150.6575  138.1833  153.4379 H   0  0  0  0  0  0  0  0  0  0  0  0
  150.5600  139.7888  154.1303 H   0  0  0  0  0  0  0  0  0  0  0  0
  1  2  1  0  0  0  0
  1 25  1  0  0  0  0
  1 26  1  0  0  0  0
  1 27  1  0  0  0  0
  2  7  1  0  0  0  0
  2  3  2  0  0  0  0
  3  4  1  0  0  0  0
  3 28  1  0  0  0  0
  4  5  2  0  0  0  0
  4 29  1  0  0  0  0
  5  6  1  0  0  0  0
  5 30  1  0  0  0  0
  6  7  2  0  0  0  0
  7  8  1  0  0  0  0
  8  9  1  0  0  0  0
  8 31  1  0  0  0  0
  9 10  2  0  0  0  0
  9 11  1  0  0  0  0
 11 12  1  0  0  0  0
 11 32  1  0  0  0  0
 12 13  1  0  0  0  0
 12 33  1  0  0  0  0
 12 34  1  0  0  0  0
 13 14  1  0  0  0  0
 13 19  1  0  0  0  0
 13 35  1  0  0  0  0
 14 18  1  0  0  0  0
 14 15  1  0  0  0  0
 14 36  1  0  0  0  0
 15 16  1  0  0  0  0
 15 37  1  0  0  0  0
 15 38  1  0  0  0  0
 16 17  1  0  0  0  0
 16 39  1  0  0  0  0
 16 40  1  0  0  0  0
 17 18  1  0  0  0  0
 18 41  1  0  0  0  0
 18 42  1  0  0  0  0
 19 24  1  0  0  0  0
 19 20  1  0  0  0  0
 20 21  1  0  0  0  0
 20 43  1  0  0  0  0
 20 44  1  0  0  0  0
 21 22  1  0  0  0  0
 21 45  1  0  0  0  0
 21 46  1  0  0  0  0
 22 23  1  0  0  0  0
 23 24  1  0  0  0  0
 23 47  1  0  0  0  0
 23 48  1  0  0  0  0
 24 49  1  0  0  0  0
 24 50  1  0  0  0  0
M  END
> <s_m_source_file>
AV-unprocessed.smi

> <i_m_source_file_index>
1734

> <i_lp_mmshare_version>
43012

> <i_f3d_flags>
0

> <s_epik_input>
W0NIM11jMVtjSF1bY0hdW2NIXW5jMVtOSF1DKD1PKVtOSF1bQ0gyXVtDQEhdKFtDQEBIXTJbQ0gyXVtDSDJdT1tDSDJdMilOM1tDSDJdW0NIMl1PW0NIMl1bQ0gyXTM=

> <s_epik_cmdline>
J2VwaWtfcHl0aG9uJywgJy1waCcsICc3LjAnLCAnLXRuJywgJzgnLCAnLW1hJywgJzIwMCcsICctbWV0YWxfYmluZGluZycsICctaW1hZScsICc8aW5maWxlLm1hZT4nLCAnLW9tYWUnLCAnPG91dGZpbGUubWFlPic=

> <r_epik_Ionization_Penalty>
0.125073

> <r_epik_Ionization_Penalty_Charging>
0

> <r_epik_Ionization_Penalty_Neutral>
0.125073

> <r_epik_State_Penalty>
0.114484

> <r_epik_Charging_Adjusted_Penalty>
0.114484

> <i_epik_Tot_Q>
0

> <i_epik_Tot_abs_Q>
0

> <r_epik_Metal_State_Penalty>
0.114483

> <b_epik_Metal_Only>
0

> <s_lp_Force_Field>
OPLS_2005

> <r_lp_Energy>
55.6911

> <b_lp_Chiralities_Consistent>
1

> <s_lp_Variant>
AV-unprocessed.smi:1734-4

> <Gold.Version>
5.8.1

> <Gold.Id.Protein>
6NUR|6NUR_protein|mol2

> <Gold.PLP.Fitness>
43.3946

> <Gold.PLP.PLP>
-36.3250

> <Gold.PLP.part.hbond>
-3.0000

> <Gold.PLP.part.metal>
0.0000

> <Gold.PLP.part.buried>
-7.4338

> <Gold.PLP.part.nonpolar>
-27.9004

> <Gold.PLP.part.repulsive>
0.5180

> <Gold.PLP.ligand.clash>
0.0000

> <Gold.PLP.ligand.torsion>
2.2415

> <Gold.PLP.Chemscore.Hbond>
2.6800

> <Gold.PLP.Chemscore.CHOScore>
1.0000

> <Gold.PLP.Chemscore.Metal>
0.0000

> <Gold.Chemscore.Hbonds>
donor molecule, donor type, donor heavy atom, donor atom, acceptor molecule, acceptor atom, score
      L1  H     8    31       P1  7948  0.98
      L1  H    11    32       P1  7948  1.00
      P1  H 10752 10765       L1    22  0.64
      L1  C     5    30       P1 10186  1.00

> <Gold.PLP.Chemscore.Internal.Correction>
0.5125

> <Gold.Rescore>
     Score         DG    S(hbond)    S(metal)    S(lipo)     H(rot)  DE(clash)    DE(int)     intcor
     17.56     -20.20       2.56        0.00      88.74       1.65       0.29       2.35       ----

> <Gold.Chemscore.Fitness>
17.5638

> <Gold.Chemscore.DG>
-20.2033

> <Gold.Chemscore.ZeroCoef>
-5.4800

> <Gold.Chemscore.Hbond>
2.5626

> <Gold.Chemscore.Metal>
0.0000

> <Gold.Chemscore.Lipo>
88.7432

> <Gold.Chemscore.Internal_Hbond>
0.0000

> <Gold.Chemscore.DEClash>
0.2889

> <Gold.Chemscore.DEInternal>
2.3507

> <Gold.Chemscore.Rot>
1.6480

> <Gold.Chemscore.Internal.Correction>
   9.000000E+99

> <Gold.Chemscore.Hbonds>
donor molecule, donor type, donor heavy atom, donor atom, acceptor molecule, acceptor atom, score
      L1  H     8    31       P1  7948  0.89
      L1  H    11    32       P1  7948  1.00
      P1  H 10752 10765       L1    22  0.59

> <Gold.Chemscore.Hbond.Weighted>
-8.5592

> <Gold.Chemscore.Metal.Weighted>
-0.0000

> <Gold.Chemscore.Lipo.Weighted>
-10.3830

> <Gold.Chemscore.Internal_Hbond.Weighted>
0.0000

> <Gold.Chemscore.DEClash.Weighted>
0.2889

> <Gold.Chemscore.DEInternal.Weighted>
2.3507

> <Gold.Chemscore.Rot.Weighted>
4.2188

> <Gold.Chemscore.Internal.Correction.Weighted>
   9.000000E+99

> <Gold.Protein.RotatedTorsions>
[ 6907 6896 6895 6894 ] final  -44.45 input  -60.11 | X-H torsion
[ 7974 7965 7964 7962 ] final   70.15 input  175.53 | X-H torsion
[ 8008 7997 7996 7995 ] final  125.75 input   59.86 | X-H torsion
[ 10167 10162 10161 10158 ] final   34.31 input  -65.29 | X-H torsion
[ 10718 10713 10712 10709 ] final   16.43 input   66.30 | X-H torsion
[ 10763 10752 10751 10750 ] final  165.55 input  -60.55 | X-H torsion
[ 11005 11000 10999 10996 ] final  104.43 input  -57.11 | X-H torsion

> <Gold.Protein.ActiveResidues>
 VAL166  LYS551  ARG553  GLY616  TRP617  ASP618  TYR619  PRO620  LYS621  CYS622 
 ASP623  PHE694  ASN695  SER759  ASP760  ASP761  ALA762  ILE779  LEU786  VAL792 
 PHE793  MET794  SER795  GLU796  ALA797  LYS798  CYS799  TRP800  GLU811  SER814 

> <Gold.Protein.RotatedAtoms>
  150.9327  134.8741  159.7561 H   0  0  0  0  0  0  0  0  0  0  0  0  # atno 6907 bound_to 6896
  152.5045  134.4055  159.9441 H   0  0  0  0  0  0  0  0  0  0  0  0  # atno 6908 bound_to 6896
  151.4081  133.3696  159.2775 H   0  0  0  0  0  0  0  0  0  0  0  0  # atno 6909 bound_to 6896
  145.7817  139.2891  143.1262 H   0  0  0  0  0  0  0  0  0  0  0  0  # atno 7974 bound_to 7965
  156.2843  140.2709  156.2000 H   0  0  0  0  0  0  0  0  0  0  0  0  # atno 8008 bound_to 7997
  155.0371  140.0386  157.2513 H   0  0  0  0  0  0  0  0  0  0  0  0  # atno 8009 bound_to 7997
  154.7305  140.2705  155.6465 H   0  0  0  0  0  0  0  0  0  0  0  0  # atno 8010 bound_to 7997
  140.4327  144.1301  150.6162 H   0  0  0  0  0  0  0  0  0  0  0  0  # atno 10167 bound_to 10162
  157.0678  130.6335  149.5799 H   0  0  0  0  0  0  0  0  0  0  0  0  # atno 10718 bound_to 10713
  154.3256  135.2755  155.2497 H   0  0  0  0  0  0  0  0  0  0  0  0  # atno 10763 bound_to 10752
  154.4832  135.5853  153.6408 H   0  0  0  0  0  0  0  0  0  0  0  0  # atno 10764 bound_to 10752
  152.9872  135.6116  154.3445 H   0  0  0  0  0  0  0  0  0  0  0  0  # atno 10765 bound_to 10752
  139.8792  134.9300  156.5361 H   0  0  0  0  0  0  0  0  0  0  0  0  # atno 11005 bound_to 11000
  146.0067  140.8472  142.9991 LP  0  0  0  0  0  0  0  0  0  0  0  0  # atno 17320 bound_to 7965
  144.6795  140.2431  143.7341 LP  0  0  0  0  0  0  0  0  0  0  0  0  # atno 17321 bound_to 7965
  140.4409  143.2527  151.9474 LP  0  0  0  0  0  0  0  0  0  0  0  0  # atno 17342 bound_to 10162
  139.4785  144.5655  151.8171 LP  0  0  0  0  0  0  0  0  0  0  0  0  # atno 17343 bound_to 10162
  155.9959  130.5027  150.7477 LP  0  0  0  0  0  0  0  0  0  0  0  0  # atno 17370 bound_to 10713
  157.4903  131.0910  151.0435 LP  0  0  0  0  0  0  0  0  0  0  0  0  # atno 17371 bound_to 10713
  140.8345  133.8253  155.9015 LP  0  0  0  0  0  0  0  0  0  0  0  0  # atno 17394 bound_to 11000
  140.9297  134.2037  157.4872 LP  0  0  0  0  0  0  0  0  0  0  0  0  # atno 17395 bound_to 11000

$$$$
