AV-unprocessed.smi:535|AV-procd|sdf|2858|dock3
  -GOLD-   2262023353D 1   1.00000     0.00000
 Structure written by MMmdl.
 46 48  0  0  0  0  0  0  0  0  1 V2000
  144.5743  134.6371  156.6613 C   0  0  0  0  0  0  0  0  0  0  0  0
  145.0915  135.9082  157.0129 O   0  0  0  0  0  0  0  0  0  0  0  0
  146.4186  135.8353  157.5044 C   0  0  0  0  0  0  0  0  0  0  0  0
  146.8994  137.2501  157.8453 C   0  0  0  0  0  0  0  0  0  0  0  0
  148.2503  137.2355  158.3990 N   0  0  0  0  0  0  0  0  0  0  0  0
  148.6961  136.6424  159.5415 C   0  0  0  0  0  0  0  0  0  0  0  0
  147.8585  135.9043  160.3804 N   0  0  0  0  0  0  0  0  0  0  0  0
  146.9062  136.4395  161.3531 C   0  0  0  0  0  0  0  0  0  0  0  0
  147.0998  135.8020  162.7397 C   0  0  0  0  0  0  0  0  0  0  0  0
  146.9490  134.2772  162.6522 C   0  0  0  0  0  0  0  0  0  0  0  0
  147.8644  133.7116  161.5519 C   0  0  1  0  0  0  0  0  0  0  0  0
  147.6681  132.1999  161.3760 C   0  0  0  0  0  0  0  0  0  0  0  0
  147.6306  134.4680  160.2278 C   0  0  0  0  0  0  0  0  0  0  0  0
  149.9819  136.8732  159.8212 N   0  0  0  0  0  0  0  0  0  0  0  0
  150.3990  137.6627  158.7617 C   0  0  0  0  0  0  0  0  0  0  0  0
  149.3728  137.9061  157.9074 C   0  0  0  0  0  0  0  0  0  0  0  0
  149.5234  138.7677  156.7258 C   0  0  0  0  0  0  0  0  0  0  0  0
  148.6055  139.0266  155.9508 O   0  0  0  0  0  0  0  0  0  0  0  0
  150.7775  139.2611  156.5829 N   0  0  0  0  0  0  0  0  0  0  0  0
  151.8534  139.0482  157.4000 C   0  0  0  0  0  0  0  0  0  0  0  0
  152.9347  139.5774  157.1433 O   0  0  0  0  0  0  0  0  0  0  0  0
  151.6724  138.2407  158.4936 N   0  0  0  0  0  0  0  0  0  0  0  0
  152.7857  137.9803  159.4085 C   0  0  0  0  0  0  0  0  0  0  0  0
  150.9338  139.8608  155.7860 H   0  0  0  0  0  0  0  0  0  0  0  0
  143.5550  134.7457  156.2909 H   0  0  0  0  0  0  0  0  0  0  0  0
  144.5499  133.9692  157.5234 H   0  0  0  0  0  0  0  0  0  0  0  0
  145.1707  134.1724  155.8748 H   0  0  0  0  0  0  0  0  0  0  0  0
  146.4580  135.2005  158.3912 H   0  0  0  0  0  0  0  0  0  0  0  0
  147.0690  135.3898  156.7501 H   0  0  0  0  0  0  0  0  0  0  0  0
  146.8650  137.8796  156.9619 H   0  0  0  0  0  0  0  0  0  0  0  0
  146.2177  137.7264  158.5472 H   0  0  0  0  0  0  0  0  0  0  0  0
  146.9844  137.5246  161.4084 H   0  0  0  0  0  0  0  0  0  0  0  0
  145.8948  136.2398  160.9966 H   0  0  0  0  0  0  0  0  0  0  0  0
  148.0861  136.0508  163.1323 H   0  0  0  0  0  0  0  0  0  0  0  0
  146.3738  136.2093  163.4437 H   0  0  0  0  0  0  0  0  0  0  0  0
  147.1821  133.8216  163.6151 H   0  0  0  0  0  0  0  0  0  0  0  0
  145.9101  134.0285  162.4313 H   0  0  0  0  0  0  0  0  0  0  0  0
  148.8995  133.8760  161.8554 H   0  0  0  0  0  0  0  0  0  0  0  0
  146.6520  131.9661  161.0565 H   0  0  0  0  0  0  0  0  0  0  0  0
  147.8547  131.6687  162.3097 H   0  0  0  0  0  0  0  0  0  0  0  0
  148.3529  131.8007  160.6273 H   0  0  0  0  0  0  0  0  0  0  0  0
  146.6160  134.2994  159.8638 H   0  0  0  0  0  0  0  0  0  0  0  0
  148.3023  134.0760  159.4630 H   0  0  0  0  0  0  0  0  0  0  0  0
  153.6862  137.6951  158.8621 H   0  0  0  0  0  0  0  0  0  0  0  0
  152.5687  137.1714  160.1060 H   0  0  0  0  0  0  0  0  0  0  0  0
  153.0093  138.8730  159.9936 H   0  0  0  0  0  0  0  0  0  0  0  0
  1  2  1  0  0  0  0
  1 25  1  0  0  0  0
  1 26  1  0  0  0  0
  1 27  1  0  0  0  0
  2  3  1  0  0  0  0
  3  4  1  0  0  0  0
  3 28  1  0  0  0  0
  3 29  1  0  0  0  0
  4  5  1  0  0  0  0
  4 30  1  0  0  0  0
  4 31  1  0  0  0  0
  5 16  1  0  0  0  0
  5  6  1  0  0  0  0
  6  7  1  0  0  0  0
  6 14  2  0  0  0  0
  7 13  1  0  0  0  0
  7  8  1  0  0  0  0
  8  9  1  0  0  0  0
  8 32  1  0  0  0  0
  8 33  1  0  0  0  0
  9 10  1  0  0  0  0
  9 34  1  0  0  0  0
  9 35  1  0  0  0  0
 10 11  1  0  0  0  0
 10 36  1  0  0  0  0
 10 37  1  0  0  0  0
 11 12  1  0  0  0  0
 11 13  1  0  0  0  0
 11 38  1  0  0  0  0
 12 39  1  0  0  0  0
 12 40  1  0  0  0  0
 12 41  1  0  0  0  0
 13 42  1  0  0  0  0
 13 43  1  0  0  0  0
 14 15  1  0  0  0  0
 15 22  1  0  0  0  0
 15 16  2  0  0  0  0
 16 17  1  0  0  0  0
 17 18  2  0  0  0  0
 17 19  1  0  0  0  0
 19 24  1  0  0  0  0
 19 20  1  0  0  0  0
 20 21  2  0  0  0  0
 20 22  1  0  0  0  0
 22 23  1  0  0  0  0
 23 44  1  0  0  0  0
 23 45  1  0  0  0  0
 23 46  1  0  0  0  0
M  END
> <s_m_source_file>
AV-unprocessed.smi

> <i_m_source_file_index>
535

> <i_lp_mmshare_version>
43012

> <i_f3d_flags>
0

> <s_epik_input>
W0NIM11uMWMoPU8pW25IXWMoPU8pYyhjMTIpbihbQ0gyXVtDSDJdT1tDSDNdKWMobjIpTjNbQ0gyXVtDSDJdW0NIMl1bQ0BASF0oW0NIM10pW0NIMl0z

> <s_epik_cmdline>
J2VwaWtfcHl0aG9uJywgJy1waCcsICc3LjAnLCAnLXRuJywgJzgnLCAnLW1hJywgJzIwMCcsICctbWV0YWxfYmluZGluZycsICctaW1hZScsICc8aW5maWxlLm1hZT4nLCAnLW9tYWUnLCAnPG91dGZpbGUubWFlPic=

> <r_lp_tautomer_probability>
1

> <r_epik_Ionization_Penalty>
0.00042181

> <r_epik_Ionization_Penalty_Charging>
0.000122112

> <r_epik_Ionization_Penalty_Neutral>
0.000299698

> <r_epik_State_Penalty>
-0

> <r_epik_Charging_Adjusted_Penalty>
0.000122112

> <i_epik_Tot_Q>
0

> <i_epik_Tot_abs_Q>
0

> <r_epik_Metal_State_Penalty>
0.0934894

> <b_epik_Metal_Only>
0

> <s_lp_Force_Field>
OPLS_2005

> <r_lp_Energy>
38.8925

> <b_lp_Chiralities_Consistent>
1

> <s_lp_Variant>
AV-unprocessed.smi:535-1

> <Gold.Version>
5.8.1

> <Gold.Id.Protein>
6NUR|6NUR_protein|mol2

> <Gold.PLP.Fitness>
35.5270

> <Gold.PLP.PLP>
-31.9525

> <Gold.PLP.part.hbond>
-2.0000

> <Gold.PLP.part.metal>
0.0000

> <Gold.PLP.part.buried>
-4.9666

> <Gold.PLP.part.nonpolar>
-24.8368

> <Gold.PLP.part.repulsive>
0.0325

> <Gold.PLP.ligand.clash>
0.0000

> <Gold.PLP.ligand.torsion>
1.4812

> <Gold.PLP.Chemscore.Hbond>
2.0000

> <Gold.PLP.Chemscore.CHOScore>
0.0000

> <Gold.PLP.Chemscore.Metal>
0.0000

> <Gold.Chemscore.Hbonds>
donor molecule, donor type, donor heavy atom, donor atom, acceptor molecule, acceptor atom, score
      P1  H  6896  6908       L1    14  0.78
      P1  H  7997  8009       L1    21  1.00

> <Gold.PLP.Chemscore.Internal.Correction>
0.5370

> <Gold.Rescore>
     Score         DG    S(hbond)    S(metal)    S(lipo)     H(rot)  DE(clash)    DE(int)     intcor
     13.71     -15.04       1.96        0.00      57.64       1.46       0.07       1.26       ----

> <Gold.Chemscore.Fitness>
13.7121

> <Gold.Chemscore.DG>
-15.0388

> <Gold.Chemscore.ZeroCoef>
-5.4800

> <Gold.Chemscore.Hbond>
1.9586

> <Gold.Chemscore.Metal>
0.0000

> <Gold.Chemscore.Lipo>
57.6396

> <Gold.Chemscore.Internal_Hbond>
0.0000

> <Gold.Chemscore.DEClash>
0.0688

> <Gold.Chemscore.DEInternal>
1.2579

> <Gold.Chemscore.Rot>
1.4557

> <Gold.Chemscore.Internal.Correction>
   9.000000E+99

> <Gold.Chemscore.Hbonds>
donor molecule, donor type, donor heavy atom, donor atom, acceptor molecule, acceptor atom, score
      P1  H  6896  6908       L1    14  0.36
      P1  H  7997  8009       L1    21  0.99

> <Gold.Chemscore.Hbond.Weighted>
-6.5417

> <Gold.Chemscore.Metal.Weighted>
-0.0000

> <Gold.Chemscore.Lipo.Weighted>
-6.7438

> <Gold.Chemscore.Internal_Hbond.Weighted>
0.0000

> <Gold.Chemscore.DEClash.Weighted>
0.0688

> <Gold.Chemscore.DEInternal.Weighted>
1.2579

> <Gold.Chemscore.Rot.Weighted>
3.7267

> <Gold.Chemscore.Internal.Correction.Weighted>
   9.000000E+99

> <Gold.Protein.RotatedTorsions>
[ 6907 6896 6895 6894 ] final -158.04 input  -60.11 | X-H torsion
[ 7974 7965 7964 7962 ] final   31.19 input  175.53 | X-H torsion
[ 8008 7997 7996 7995 ] final  172.93 input   59.86 | X-H torsion
[ 10167 10162 10161 10158 ] final -150.43 input  -65.29 | X-H torsion
[ 10718 10713 10712 10709 ] final   85.06 input   66.30 | X-H torsion
[ 10763 10752 10751 10750 ] final  176.15 input  -60.55 | X-H torsion
[ 11005 11000 10999 10996 ] final  -44.07 input  -57.11 | X-H torsion

> <Gold.Protein.ActiveResidues>
 VAL166  LYS551  ARG553  GLY616  TRP617  ASP618  TYR619  PRO620  LYS621  CYS622 
 ASP623  PHE694  ASN695  SER759  ASP760  ASP761  ALA762  ILE779  LEU786  VAL792 
 PHE793  MET794  SER795  GLU796  ALA797  LYS798  CYS799  TRP800  GLU811  SER814 

> <Gold.Protein.RotatedAtoms>
  151.3121  133.4076  159.2647 H   0  0  0  0  0  0  0  0  0  0  0  0  # atno 6907 bound_to 6896
  151.0106  134.9394  159.8015 H   0  0  0  0  0  0  0  0  0  0  0  0  # atno 6908 bound_to 6896
  152.5299  134.3085  159.9157 H   0  0  0  0  0  0  0  0  0  0  0  0  # atno 6909 bound_to 6896
  146.1565  139.6689  142.9063 H   0  0  0  0  0  0  0  0  0  0  0  0  # atno 7974 bound_to 7965
  156.1125  140.1473  156.9318 H   0  0  0  0  0  0  0  0  0  0  0  0  # atno 8008 bound_to 7997
  154.4777  140.0889  156.7345 H   0  0  0  0  0  0  0  0  0  0  0  0  # atno 8009 bound_to 7997
  155.4571  140.3437  155.4310 H   0  0  0  0  0  0  0  0  0  0  0  0  # atno 8010 bound_to 7997
  139.7355  143.8742  152.2547 H   0  0  0  0  0  0  0  0  0  0  0  0  # atno 10167 bound_to 10162
  157.6908  131.0159  150.2766 H   0  0  0  0  0  0  0  0  0  0  0  0  # atno 10718 bound_to 10713
  154.4772  135.2773  155.1598 H   0  0  0  0  0  0  0  0  0  0  0  0  # atno 10763 bound_to 10752
  154.3322  135.6187  153.5560 H   0  0  0  0  0  0  0  0  0  0  0  0  # atno 10764 bound_to 10752
  152.9871  135.5768  154.5166 H   0  0  0  0  0  0  0  0  0  0  0  0  # atno 10765 bound_to 10752
  141.0426  133.6774  156.2821 H   0  0  0  0  0  0  0  0  0  0  0  0  # atno 11005 bound_to 11000
  145.4694  141.0435  143.2707 LP  0  0  0  0  0  0  0  0  0  0  0  0  # atno 17320 bound_to 7965
  144.7971  139.6213  143.7088 LP  0  0  0  0  0  0  0  0  0  0  0  0  # atno 17321 bound_to 7965
  139.8678  144.7084  150.9023 LP  0  0  0  0  0  0  0  0  0  0  0  0  # atno 17342 bound_to 10162
  140.7778  143.3763  151.1556 LP  0  0  0  0  0  0  0  0  0  0  0  0  # atno 17343 bound_to 10162
  156.3320  130.3802  149.7483 LP  0  0  0  0  0  0  0  0  0  0  0  0  # atno 17370 bound_to 10713
  156.5020  130.8133  151.3136 LP  0  0  0  0  0  0  0  0  0  0  0  0  # atno 17371 bound_to 10713
  140.6206  134.5365  157.5547 LP  0  0  0  0  0  0  0  0  0  0  0  0  # atno 17394 bound_to 11000
  139.9287  134.8005  156.0993 LP  0  0  0  0  0  0  0  0  0  0  0  0  # atno 17395 bound_to 11000

$$$$
