AV-unprocessed.smi:1047|AV-procd|sdf|4596|dock2
  -GOLD-   22720 3 83D 1   1.00000     0.00000
 Structure written by MMmdl.
 57 59  0  0  0  0  0  0  0  0  3 V2000
  151.5410  129.9306  155.1279 C   0  0  0  0  0  0  0  0  0  0  0  0
  150.0471  130.2652  155.0099 C   0  0  0  0  0  0  0  0  0  0  0  0
  149.8023  131.5520  154.3118 N   0  3  1  0  0  0  0  0  0  0  0  0
  148.4766  131.5878  153.6503 C   0  0  0  0  0  0  0  0  0  0  0  0
  148.2840  132.9164  152.9021 C   0  0  0  0  0  0  0  0  0  0  0  0
  148.4436  133.9974  153.8112 O   0  0  0  0  0  0  0  0  0  0  0  0
  149.7502  134.0397  154.3762 C   0  0  1  0  0  0  0  0  0  0  0  0
  149.8413  135.2853  155.2698 C   0  0  0  0  0  0  0  0  0  0  0  0
  150.1987  136.4660  154.4907 N   0  0  0  0  0  0  0  0  0  0  0  0
  150.2201  137.6956  155.2799 C   0  0  0  0  0  0  0  0  0  0  0  0
  151.5588  138.4450  155.1542 C   0  0  2  0  0  0  0  0  0  0  0  0
  152.5776  137.5348  154.7896 O   0  0  0  0  0  0  0  0  0  0  0  0
  151.9528  139.2514  156.4095 C   0  0  0  0  0  0  0  0  0  0  0  0
  151.3445  140.5878  156.4370 N   0  0  0  0  0  0  0  0  0  0  0  0
  150.4827  141.1757  155.5632 C   0  0  0  0  0  0  0  0  0  0  0  0
  150.2094  142.4240  156.0342 N   0  3  0  0  0  0  0  0  0  0  0  0
  150.9096  142.6371  157.2239 C   0  0  0  0  0  0  0  0  0  0  0  0
  150.9568  143.7396  158.0688 C   0  0  0  0  0  0  0  0  0  0  0  0
  151.7783  143.6393  159.2145 C   0  0  0  0  0  0  0  0  0  0  0  0
  151.8552  144.8276  160.1580 C   0  0  0  0  0  0  0  0  0  0  0  0
  152.5175  142.4577  159.4822 C   0  0  0  0  0  0  0  0  0  0  0  0
  153.3974  142.3611  160.7169 C   0  0  0  0  0  0  0  0  0  0  0  0
  152.4555  141.3468  158.6106 C   0  0  0  0  0  0  0  0  0  0  0  0
  151.6419  141.4632  157.4865 C   0  0  0  0  0  0  0  0  0  0  0  0
  149.9770  132.7435  155.1797 C   0  0  0  0  0  0  0  0  0  0  0  0
  151.6766  128.9372  155.5560 H   0  0  0  0  0  0  0  0  0  0  0  0
  152.0689  130.6327  155.7726 H   0  0  0  0  0  0  0  0  0  0  0  0
  152.0252  129.9373  154.1508 H   0  0  0  0  0  0  0  0  0  0  0  0
  149.5692  129.4613  154.4480 H   0  0  0  0  0  0  0  0  0  0  0  0
  149.5762  130.2764  155.9939 H   0  0  0  0  0  0  0  0  0  0  0  0
  148.3866  130.7569  152.9496 H   0  0  0  0  0  0  0  0  0  0  0  0
  147.6915  131.4641  154.3983 H   0  0  0  0  0  0  0  0  0  0  0  0
  148.9921  133.0084  152.0769 H   0  0  0  0  0  0  0  0  0  0  0  0
  147.2841  132.9631  152.4703 H   0  0  0  0  0  0  0  0  0  0  0  0
  150.4969  134.1078  153.5822 H   0  0  0  0  0  0  0  0  0  0  0  0
  148.8927  135.4394  155.7861 H   0  0  0  0  0  0  0  0  0  0  0  0
  150.5948  135.1244  156.0417 H   0  0  0  0  0  0  0  0  0  0  0  0
  149.5461  136.5752  153.7202 H   0  0  0  0  0  0  0  0  0  0  0  0
  149.4072  138.3543  154.9705 H   0  0  0  0  0  0  0  0  0  0  0  0
  150.0402  137.4584  156.3291 H   0  0  0  0  0  0  0  0  0  0  0  0
  151.4609  139.1379  154.3179 H   0  0  0  0  0  0  0  0  0  0  0  0
  153.3916  137.8300  155.1678 H   0  0  0  0  0  0  0  0  0  0  0  0
  151.6679  138.7221  157.3196 H   0  0  0  0  0  0  0  0  0  0  0  0
  153.0338  139.3891  156.4569 H   0  0  0  0  0  0  0  0  0  0  0  0
  150.0848  140.7314  154.6621 H   0  0  0  0  0  0  0  0  0  0  0  0
  150.3906  144.6355  157.8590 H   0  0  0  0  0  0  0  0  0  0  0  0
  152.8839  145.1760  160.2527 H   0  0  0  0  0  0  0  0  0  0  0  0
  151.4886  144.5551  161.1479 H   0  0  0  0  0  0  0  0  0  0  0  0
  151.2534  145.6627  159.7980 H   0  0  0  0  0  0  0  0  0  0  0  0
  153.8697  141.3815  160.7951 H   0  0  0  0  0  0  0  0  0  0  0  0
  152.8098  142.5199  161.6213 H   0  0  0  0  0  0  0  0  0  0  0  0
  154.1882  143.1105  160.6808 H   0  0  0  0  0  0  0  0  0  0  0  0
  153.0179  140.4472  158.8129 H   0  0  0  0  0  0  0  0  0  0  0  0
  149.2768  132.6919  156.0151 H   0  0  0  0  0  0  0  0  0  0  0  0
  150.9802  132.7560  155.6044 H   0  0  0  0  0  0  0  0  0  0  0  0
  150.4897  131.6186  153.5746 H   0  0  0  0  0  0  0  0  0  0  0  0
  149.5913  143.0803  155.5744 H   0  0  0  0  0  0  0  0  0  0  0  0
  1  2  1  0  0  0  0
  1 26  1  0  0  0  0
  1 27  1  0  0  0  0
  1 28  1  0  0  0  0
  2  3  1  0  0  0  0
  2 29  1  0  0  0  0
  2 30  1  0  0  0  0
  3 25  1  0  0  0  0
  3  4  1  0  0  0  0
  3 56  1  0  0  0  0
  4  5  1  0  0  0  0
  4 31  1  0  0  0  0
  4 32  1  0  0  0  0
  5  6  1  0  0  0  0
  5 33  1  0  0  0  0
  5 34  1  0  0  0  0
  6  7  1  0  0  0  0
  7  8  1  0  0  0  0
  7 25  1  0  0  0  0
  7 35  1  0  0  0  0
  8  9  1  0  0  0  0
  8 36  1  0  0  0  0
  8 37  1  0  0  0  0
  9 10  1  0  0  0  0
  9 38  1  0  0  0  0
 10 11  1  0  0  0  0
 10 39  1  0  0  0  0
 10 40  1  0  0  0  0
 11 12  1  0  0  0  0
 11 13  1  0  0  0  0
 11 41  1  0  0  0  0
 12 42  1  0  0  0  0
 13 14  1  0  0  0  0
 13 43  1  0  0  0  0
 13 44  1  0  0  0  0
 14 24  1  0  0  0  0
 14 15  1  0  0  0  0
 15 16  2  0  0  0  0
 15 45  1  0  0  0  0
 16 17  1  0  0  0  0
 16 57  1  0  0  0  0
 17 24  2  0  0  0  0
 17 18  1  0  0  0  0
 18 19  2  0  0  0  0
 18 46  1  0  0  0  0
 19 20  1  0  0  0  0
 19 21  1  0  0  0  0
 20 47  1  0  0  0  0
 20 48  1  0  0  0  0
 20 49  1  0  0  0  0
 21 22  1  0  0  0  0
 21 23  2  0  0  0  0
 22 50  1  0  0  0  0
 22 51  1  0  0  0  0
 22 52  1  0  0  0  0
 23 24  1  0  0  0  0
 23 53  1  0  0  0  0
 25 54  1  0  0  0  0
 25 55  1  0  0  0  0
M  CHG  1   3   1
M  CHG  1  16   1
M  END
> <s_m_source_file>
AV-unprocessed.smi

> <i_m_source_file_index>
1047

> <i_lp_mmshare_version>
43012

> <i_f3d_flags>
0

> <s_epik_input>
W0NIM11bQ0gyXU4xW0NIMl1bQ0gyXU9bQ0BIXShbQ0gyXTEpW0NIMl1bTkhdW0NIMl1bQ0BIXShbT0hdKVtDSDJdbihbY0hdbjIpYyhjMjMpW2NIXWMoW0NIM10pYyhbY0hdMylbQ0gzXQ==

> <s_epik_cmdline>
J2VwaWtfcHl0aG9uJywgJy1waCcsICc3LjAnLCAnLXRuJywgJzgnLCAnLW1hJywgJzIwMCcsICctbWV0YWxfYmluZGluZycsICctaW1hZScsICc8aW5maWxlLm1hZT4nLCAnLW9tYWUnLCAnPG91dGZpbGUubWFlPic=

> <r_epik_Ionization_Penalty>
2.03028

> <r_epik_Ionization_Penalty_Charging>
1.21256

> <r_epik_Ionization_Penalty_Neutral>
0.817715

> <r_epik_State_Penalty>
2.54959

> <r_epik_Charging_Adjusted_Penalty>
3.76215

> <i_epik_Tot_Q>
2

> <i_epik_Tot_abs_Q>
2

> <r_epik_Metal_State_Penalty>
6.52811

> <b_epik_Metal_Only>
0

> <s_lp_Force_Field>
OPLS_2005

> <r_lp_Energy>
37.5009

> <b_lp_Chiralities_Consistent>
1

> <s_lp_Variant>
AV-unprocessed.smi:1047-37

> <Gold.Version>
5.8.1

> <Gold.Id.Protein>
6NUR|6NUR_protein|mol2

> <Gold.PLP.Fitness>
62.0819

> <Gold.PLP.PLP>
-54.7782

> <Gold.PLP.part.hbond>
-3.4851

> <Gold.PLP.part.metal>
0.0000

> <Gold.PLP.part.buried>
-7.2223

> <Gold.PLP.part.nonpolar>
-45.6810

> <Gold.PLP.part.repulsive>
1.3179

> <Gold.PLP.ligand.clash>
0.0000

> <Gold.PLP.ligand.torsion>
1.6533

> <Gold.PLP.Chemscore.Hbond>
3.4560

> <Gold.PLP.Chemscore.CHOScore>
0.0000

> <Gold.PLP.Chemscore.Metal>
0.0000

> <Gold.Chemscore.Hbonds>
donor molecule, donor type, donor heavy atom, donor atom, acceptor molecule, acceptor atom, score
      L1  H     9    38       P1  7948  1.00
      L1  H    16    57       P1  8028  1.79
      P1  H 10752 10765       L1    12  0.51

> <Gold.PLP.Chemscore.Internal.Correction>
0.2422

> <Gold.Rescore>
     Score         DG    S(hbond)    S(metal)    S(lipo)     H(rot)  DE(clash)    DE(int)     intcor
     18.87     -20.63       1.86        0.00     135.71       2.71       0.07       1.69       ----

> <Gold.Chemscore.Fitness>
18.8718

> <Gold.Chemscore.DG>
-20.6329

> <Gold.Chemscore.ZeroCoef>
-5.4800

> <Gold.Chemscore.Hbond>
1.8590

> <Gold.Chemscore.Metal>
0.0000

> <Gold.Chemscore.Lipo>
135.7126

> <Gold.Chemscore.Internal_Hbond>
0.0000

> <Gold.Chemscore.DEClash>
0.0666

> <Gold.Chemscore.DEInternal>
1.6944

> <Gold.Chemscore.Rot>
2.7088

> <Gold.Chemscore.Internal.Correction>
   9.000000E+99

> <Gold.Chemscore.Hbonds>
donor molecule, donor type, donor heavy atom, donor atom, acceptor molecule, acceptor atom, score
      L1  H     9    38       P1  7948  0.70
      L1  H    16    57       P1  8028  0.88
      P1  H 10752 10765       L1    12  0.19

> <Gold.Chemscore.Hbond.Weighted>
-6.2091

> <Gold.Chemscore.Metal.Weighted>
-0.0000

> <Gold.Chemscore.Lipo.Weighted>
-15.8784

> <Gold.Chemscore.Internal_Hbond.Weighted>
0.0000

> <Gold.Chemscore.DEClash.Weighted>
0.0666

> <Gold.Chemscore.DEInternal.Weighted>
1.6944

> <Gold.Chemscore.Rot.Weighted>
6.9346

> <Gold.Chemscore.Internal.Correction.Weighted>
   9.000000E+99

> <Gold.Protein.RotatedTorsions>
[ 6907 6896 6895 6894 ] final  166.20 input  -60.11 | X-H torsion
[ 7974 7965 7964 7962 ] final  -69.71 input  175.53 | X-H torsion
[ 8008 7997 7996 7995 ] final   48.04 input   59.86 | X-H torsion
[ 10167 10162 10161 10158 ] final  -49.38 input  -65.29 | X-H torsion
[ 10718 10713 10712 10709 ] final  -37.87 input   66.30 | X-H torsion
[ 10763 10752 10751 10750 ] final  155.79 input  -60.55 | X-H torsion
[ 11005 11000 10999 10996 ] final  169.52 input  -57.11 | X-H torsion

> <Gold.Protein.ActiveResidues>
 VAL166  LYS551  ARG553  GLY616  TRP617  ASP618  TYR619  PRO620  LYS621  CYS622 
 ASP623  PHE694  ASN695  SER759  ASP760  ASP761  ALA762  ILE779  LEU786  VAL792 
 PHE793  MET794  SER795  GLU796  ALA797  LYS798  CYS799  TRP800  GLU811  SER814 

> <Gold.Protein.RotatedAtoms>
  151.8826  133.3498  159.3771 H   0  0  0  0  0  0  0  0  0  0  0  0  # atno 6907 bound_to 6896
  150.7123  134.5004  159.5568 H   0  0  0  0  0  0  0  0  0  0  0  0  # atno 6908 bound_to 6896
  152.2558  134.8086  160.0489 H   0  0  0  0  0  0  0  0  0  0  0  0  # atno 6909 bound_to 6896
  145.7003  140.9119  143.0735 H   0  0  0  0  0  0  0  0  0  0  0  0  # atno 7974 bound_to 7965
  155.3790  140.3427  155.4246 H   0  0  0  0  0  0  0  0  0  0  0  0  # atno 8008 bound_to 7997
  156.1621  140.1604  156.8628 H   0  0  0  0  0  0  0  0  0  0  0  0  # atno 8009 bound_to 7997
  154.5149  140.0781  156.8044 H   0  0  0  0  0  0  0  0  0  0  0  0  # atno 8010 bound_to 7997
  140.6688  143.2700  151.4206 H   0  0  0  0  0  0  0  0  0  0  0  0  # atno 10167 bound_to 10162
  156.3103  130.4251  149.8057 H   0  0  0  0  0  0  0  0  0  0  0  0  # atno 10718 bound_to 10713
  154.1740  135.2803  155.3072 H   0  0  0  0  0  0  0  0  0  0  0  0  # atno 10763 bound_to 10752
  154.6053  135.5516  153.7420 H   0  0  0  0  0  0  0  0  0  0  0  0  # atno 10764 bound_to 10752
  153.0156  135.6402  154.1880 H   0  0  0  0  0  0  0  0  0  0  0  0  # atno 10765 bound_to 10752
  140.2986  134.7614  157.3897 H   0  0  0  0  0  0  0  0  0  0  0  0  # atno 11005 bound_to 11000
  144.6970  139.8938  143.7454 LP  0  0  0  0  0  0  0  0  0  0  0  0  # atno 17320 bound_to 7965
  146.0804  139.3791  143.0468 LP  0  0  0  0  0  0  0  0  0  0  0  0  # atno 17321 bound_to 7965
  139.5947  144.1423  152.2130 LP  0  0  0  0  0  0  0  0  0  0  0  0  # atno 17342 bound_to 10162
  140.0788  144.5717  150.7137 LP  0  0  0  0  0  0  0  0  0  0  0  0  # atno 17343 bound_to 10162
  156.5402  130.8296  151.3266 LP  0  0  0  0  0  0  0  0  0  0  0  0  # atno 17370 bound_to 10713
  157.7389  130.9822  150.2282 LP  0  0  0  0  0  0  0  0  0  0  0  0  # atno 17371 bound_to 10713
  140.1130  134.5320  155.8249 LP  0  0  0  0  0  0  0  0  0  0  0  0  # atno 17394 bound_to 11000
  141.2132  133.6731  156.6724 LP  0  0  0  0  0  0  0  0  0  0  0  0  # atno 17395 bound_to 11000

$$$$
