AV-unprocessed.smi:699|AV-procd|sdf|3400|dock2
  -GOLD-   22720 0383D 1   1.00000     0.00000
 Structure written by MMmdl.
 34 35  0  0  0  0  0  0  0  0  1 V2000
  149.2207  138.4370  153.5550 N   0  0  0  0  0  0  0  0  0  0  0  0
  148.3290  138.0963  154.4887 C   0  0  0  0  0  0  0  0  0  0  0  0
  148.6114  137.3280  155.4065 O   0  0  0  0  0  0  0  0  0  0  0  0
  146.9211  138.7200  154.3712 C   0  0  1  0  0  0  0  0  0  0  0  0
  146.9880  140.2516  154.4648 C   0  0  0  0  0  0  0  0  0  0  0  0
  147.2074  140.7519  153.0336 C   0  0  0  0  0  0  0  0  0  0  0  0
  146.6154  139.6773  152.1118 C   0  0  0  0  0  0  0  0  0  0  0  0
  146.2135  138.4924  153.0096 C   0  0  1  0  0  0  0  0  0  0  0  0
  146.5166  137.2123  152.3670 N   0  0  0  0  0  0  0  0  0  0  0  0
  145.6005  136.3334  151.9355 C   0  0  0  0  0  0  0  0  0  0  0  0
  144.3880  136.5209  152.0323 O   0  0  0  0  0  0  0  0  0  0  0  0
  146.1863  135.2519  151.3923 N   0  0  0  0  0  0  0  0  0  0  0  0
  145.5866  134.0988  150.8145 C   0  0  0  0  0  0  0  0  0  0  0  0
  146.4348  133.0220  150.4826 C   0  0  0  0  0  0  0  0  0  0  0  0
  145.8715  131.8601  149.9184 C   0  0  0  0  0  0  0  0  0  0  0  0
  144.5509  131.7164  149.6814 N   0  0  0  0  0  0  0  0  0  0  0  0
  143.7382  132.7426  150.0099 C   0  0  0  0  0  0  0  0  0  0  0  0
  144.1983  133.9470  150.5792 C   0  0  0  0  0  0  0  0  0  0  0  0
  150.1547  138.0555  153.5920 H   0  0  0  0  0  0  0  0  0  0  0  0
  148.9599  139.0750  152.8172 H   0  0  0  0  0  0  0  0  0  0  0  0
  146.3028  138.3245  155.1790 H   0  0  0  0  0  0  0  0  0  0  0  0
  146.0357  140.6288  154.8402 H   0  0  0  0  0  0  0  0  0  0  0  0
  147.7619  140.6101  155.1453 H   0  0  0  0  0  0  0  0  0  0  0  0
  146.7502  141.7286  152.8726 H   0  0  0  0  0  0  0  0  0  0  0  0
  148.2746  140.8582  152.8359 H   0  0  0  0  0  0  0  0  0  0  0  0
  145.7514  140.0556  151.5648 H   0  0  0  0  0  0  0  0  0  0  0  0
  147.3608  139.3845  151.3709 H   0  0  0  0  0  0  0  0  0  0  0  0
  145.1360  138.5545  153.1756 H   0  0  0  0  0  0  0  0  0  0  0  0
  147.4926  136.9805  152.2536 H   0  0  0  0  0  0  0  0  0  0  0  0
  147.1942  135.2779  151.3451 H   0  0  0  0  0  0  0  0  0  0  0  0
  147.5001  133.0815  150.6518 H   0  0  0  0  0  0  0  0  0  0  0  0
  146.4994  131.0230  149.6517 H   0  0  0  0  0  0  0  0  0  0  0  0
  142.6853  132.5979  149.8186 H   0  0  0  0  0  0  0  0  0  0  0  0
  143.4799  134.7121  150.8276 H   0  0  0  0  0  0  0  0  0  0  0  0
  1  2  1  0  0  0  0
  1 19  1  0  0  0  0
  1 20  1  0  0  0  0
  2  3  2  0  0  0  0
  2  4  1  0  0  0  0
  4  8  1  0  0  0  0
  4  5  1  0  0  0  0
  4 21  1  0  0  0  0
  5  6  1  0  0  0  0
  5 22  1  0  0  0  0
  5 23  1  0  0  0  0
  6  7  1  0  0  0  0
  6 24  1  0  0  0  0
  6 25  1  0  0  0  0
  7  8  1  0  0  0  0
  7 26  1  0  0  0  0
  7 27  1  0  0  0  0
  8  9  1  0  0  0  0
  8 28  1  0  0  0  0
  9 10  1  0  0  0  0
  9 29  1  0  0  0  0
 10 11  2  0  0  0  0
 10 12  1  0  0  0  0
 12 13  1  0  0  0  0
 12 30  1  0  0  0  0
 13 18  1  0  0  0  0
 13 14  2  0  0  0  0
 14 15  1  0  0  0  0
 14 31  1  0  0  0  0
 15 16  2  0  0  0  0
 15 32  1  0  0  0  0
 16 17  1  0  0  0  0
 17 18  2  0  0  0  0
 17 33  1  0  0  0  0
 18 34  1  0  0  0  0
M  END
> <s_m_source_file>
AV-unprocessed.smi

> <i_m_source_file_index>
699

> <i_lp_mmshare_version>
43012

> <i_f3d_flags>
0

> <s_epik_input>
W05IMl1DKD1PKVtDQEBIXTFbQ0gyXVtDSDJdW0NIMl1bQ0BIXTFbTkhdQyg9TylbTkhdYzJbY0hdW2NIXW5bY0hdW2NIXTI=

> <s_epik_cmdline>
J2VwaWtfcHl0aG9uJywgJy1waCcsICc3LjAnLCAnLXRuJywgJzgnLCAnLW1hJywgJzIwMCcsICctbWV0YWxfYmluZGluZycsICctaW1hZScsICc8aW5maWxlLm1hZT4nLCAnLW9tYWUnLCAnPG91dGZpbGUubWFlPic=

> <r_epik_Ionization_Penalty>
0.113907

> <r_epik_Ionization_Penalty_Charging>
0

> <r_epik_Ionization_Penalty_Neutral>
0.113907

> <r_epik_State_Penalty>
0.103543

> <r_epik_Charging_Adjusted_Penalty>
0.103543

> <i_epik_Tot_Q>
0

> <i_epik_Tot_abs_Q>
0

> <r_epik_Metal_State_Penalty>
0.0867106

> <b_epik_Metal_Only>
0

> <s_lp_Force_Field>
OPLS_2005

> <r_lp_Energy>
19.4222

> <b_lp_Chiralities_Consistent>
1

> <s_lp_Variant>
AV-unprocessed.smi:699-2

> <Gold.Version>
5.8.1

> <Gold.Id.Protein>
6NUR|6NUR_protein|mol2

> <Gold.PLP.Fitness>
43.2505

> <Gold.PLP.PLP>
-28.7442

> <Gold.PLP.part.hbond>
-5.0000

> <Gold.PLP.part.metal>
0.0000

> <Gold.PLP.part.buried>
-1.3806

> <Gold.PLP.part.nonpolar>
-24.1645

> <Gold.PLP.part.repulsive>
0.6001

> <Gold.PLP.ligand.clash>
0.0000

> <Gold.PLP.ligand.torsion>
0.0974

> <Gold.PLP.Chemscore.Hbond>
3.0350

> <Gold.PLP.Chemscore.CHOScore>
1.8589

> <Gold.PLP.Chemscore.Metal>
0.0000

> <Gold.Chemscore.Hbonds>
donor molecule, donor type, donor heavy atom, donor atom, acceptor molecule, acceptor atom, score
      L1  H     1    20       P1  7957  0.90
      L1  H     9    29       P1  7948  1.00
      L1  H    12    30       P1  7948  0.99
      P1  H 10785 10796       L1    16  0.20
      L1  C    15    32       P1 10747  0.87
      L1  C    17    33       P1 10186  0.92
      L1  C    17    33       P1 10952  0.01

> <Gold.PLP.Chemscore.Internal.Correction>
0.0194

> <Gold.Rescore>
     Score         DG    S(hbond)    S(metal)    S(lipo)     H(rot)  DE(clash)    DE(int)     intcor
     17.57     -19.58       2.77        0.00      74.01       1.49       0.78       1.23       ----

> <Gold.Chemscore.Fitness>
17.5718

> <Gold.Chemscore.DG>
-19.5808

> <Gold.Chemscore.ZeroCoef>
-5.4800

> <Gold.Chemscore.Hbond>
2.7707

> <Gold.Chemscore.Metal>
0.0000

> <Gold.Chemscore.Lipo>
74.0071

> <Gold.Chemscore.Internal_Hbond>
0.0000

> <Gold.Chemscore.DEClash>
0.7835

> <Gold.Chemscore.DEInternal>
1.2255

> <Gold.Chemscore.Rot>
1.4892

> <Gold.Chemscore.Internal.Correction>
   9.000000E+99

> <Gold.Chemscore.Hbonds>
donor molecule, donor type, donor heavy atom, donor atom, acceptor molecule, acceptor atom, score
      L1  H     1    20       P1  7957  0.83
      L1  H     9    29       P1  7948  1.00
      L1  H    12    30       P1  7948  0.77
      P1  H 10785 10796       L1    16  0.12

> <Gold.Chemscore.Hbond.Weighted>
-9.2542

> <Gold.Chemscore.Metal.Weighted>
-0.0000

> <Gold.Chemscore.Lipo.Weighted>
-8.6588

> <Gold.Chemscore.Internal_Hbond.Weighted>
0.0000

> <Gold.Chemscore.DEClash.Weighted>
0.7835

> <Gold.Chemscore.DEInternal.Weighted>
1.2255

> <Gold.Chemscore.Rot.Weighted>
3.8123

> <Gold.Chemscore.Internal.Correction.Weighted>
   9.000000E+99

> <Gold.Protein.RotatedTorsions>
[ 6907 6896 6895 6894 ] final  -43.71 input  -60.11 | X-H torsion
[ 7974 7965 7964 7962 ] final  -32.94 input  175.53 | X-H torsion
[ 8008 7997 7996 7995 ] final   20.99 input   59.86 | X-H torsion
[ 10167 10162 10161 10158 ] final  112.04 input  -65.29 | X-H torsion
[ 10718 10713 10712 10709 ] final  158.62 input   66.30 | X-H torsion
[ 10763 10752 10751 10750 ] final -170.16 input  -60.55 | X-H torsion
[ 11005 11000 10999 10996 ] final  117.54 input  -57.11 | X-H torsion

> <Gold.Protein.ActiveResidues>
 VAL166  LYS551  ARG553  GLY616  TRP617  ASP618  TYR619  PRO620  LYS621  CYS622 
 ASP623  PHE694  ASN695  SER759  ASP760  ASP761  ALA762  ILE779  LEU786  VAL792 
 PHE793  MET794  SER795  GLU796  ALA797  LYS798  CYS799  TRP800  GLU811  SER814 

> <Gold.Protein.RotatedAtoms>
  150.9409  134.8818  159.7611 H   0  0  0  0  0  0  0  0  0  0  0  0  # atno 6907 bound_to 6896
  152.5080  134.3943  159.9404 H   0  0  0  0  0  0  0  0  0  0  0  0  # atno 6908 bound_to 6896
  151.3964  133.3732  159.2762 H   0  0  0  0  0  0  0  0  0  0  0  0  # atno 6909 bound_to 6896
  146.0950  140.5855  142.8847 H   0  0  0  0  0  0  0  0  0  0  0  0  # atno 7974 bound_to 7965
  154.9438  140.3056  155.5108 H   0  0  0  0  0  0  0  0  0  0  0  0  # atno 8008 bound_to 7997
  156.2993  140.2331  156.4447 H   0  0  0  0  0  0  0  0  0  0  0  0  # atno 8009 bound_to 7997
  154.8120  140.0428  157.1338 H   0  0  0  0  0  0  0  0  0  0  0  0  # atno 8010 bound_to 7997
  139.6565  144.7129  151.1946 H   0  0  0  0  0  0  0  0  0  0  0  0  # atno 10167 bound_to 10162
  157.1754  131.0620  151.2160 H   0  0  0  0  0  0  0  0  0  0  0  0  # atno 10718 bound_to 10713
  154.6446  135.2903  155.0062 H   0  0  0  0  0  0  0  0  0  0  0  0  # atno 10763 bound_to 10752
  154.1177  135.6553  153.4901 H   0  0  0  0  0  0  0  0  0  0  0  0  # atno 10764 bound_to 10752
  153.0344  135.5280  154.7327 H   0  0  0  0  0  0  0  0  0  0  0  0  # atno 10765 bound_to 10752
  139.9078  134.9611  156.7366 H   0  0  0  0  0  0  0  0  0  0  0  0  # atno 11005 bound_to 11000
  144.7388  140.4885  143.6884 LP  0  0  0  0  0  0  0  0  0  0  0  0  # atno 17320 bound_to 7965
  145.5966  139.1500  143.3152 LP  0  0  0  0  0  0  0  0  0  0  0  0  # atno 17321 bound_to 7965
  140.7561  143.6063  150.8649 LP  0  0  0  0  0  0  0  0  0  0  0  0  # atno 17342 bound_to 10162
  139.9717  143.6050  152.2971 LP  0  0  0  0  0  0  0  0  0  0  0  0  # atno 17343 bound_to 10162
  157.4003  130.7330  149.6762 LP  0  0  0  0  0  0  0  0  0  0  0  0  # atno 17370 bound_to 10713
  155.9732  130.4122  150.4022 LP  0  0  0  0  0  0  0  0  0  0  0  0  # atno 17371 bound_to 10713
  140.6883  133.9413  155.7951 LP  0  0  0  0  0  0  0  0  0  0  0  0  # atno 17394 bound_to 11000
  141.0460  134.0553  157.3843 LP  0  0  0  0  0  0  0  0  0  0  0  0  # atno 17395 bound_to 11000

$$$$
