AV-unprocessed.smi:3091|AV-procd|sdf|11780|dock3
  -GOLD-   2272017163D 1   1.00000     0.00000
 Structure written by MMmdl.
 28 29  0  0  0  0  0  0  0  0  1 V2000
  147.0929  138.4906  151.3000 N   0  0  0  0  0  0  0  0  0  0  0  0
  146.5003  138.8424  152.5743 C   0  0  0  0  0  0  0  0  0  0  0  0
  147.3489  139.8307  153.3459 C   0  0  0  0  0  0  0  0  0  0  0  0
  146.8167  141.0717  153.7480 C   0  0  0  0  0  0  0  0  0  0  0  0
  147.6501  141.9598  154.4549 C   0  0  0  0  0  0  0  0  0  0  0  0
  148.9343  141.6823  154.7650 N   0  0  0  0  0  0  0  0  0  0  0  0
  149.4476  140.4892  154.3729 C   0  0  0  0  0  0  0  0  0  0  0  0
  150.7601  140.1887  154.6795 O   0  0  0  0  0  0  0  0  0  0  0  0
  151.0744  138.9323  155.2840 C   0  0  2  0  0  0  0  0  0  0  0  0
  152.4937  138.9308  155.8371 C   0  0  0  0  0  0  0  0  0  0  0  0
  153.3143  138.5032  154.6297 C   0  0  0  0  0  0  0  0  0  0  0  0
  152.5068  137.5000  154.0376 O   0  0  0  0  0  0  0  0  0  0  0  0
  151.1389  137.8749  154.1717 C   0  0  0  0  0  0  0  0  0  0  0  0
  148.6907  139.5357  153.6617 C   0  0  0  0  0  0  0  0  0  0  0  0
  147.7262  139.2220  151.0098 H   0  0  0  0  0  0  0  0  0  0  0  0
  147.6446  137.6507  151.4002 H   0  0  0  0  0  0  0  0  0  0  0  0
  145.5073  139.2601  152.4054 H   0  0  0  0  0  0  0  0  0  0  0  0
  146.3681  137.9362  153.1662 H   0  0  0  0  0  0  0  0  0  0  0  0
  145.7952  141.3385  153.5201 H   0  0  0  0  0  0  0  0  0  0  0  0
  147.2755  142.9193  154.7793 H   0  0  0  0  0  0  0  0  0  0  0  0
  150.3332  138.6492  156.0332 H   0  0  0  0  0  0  0  0  0  0  0  0
  152.8114  139.8890  156.2482 H   0  0  0  0  0  0  0  0  0  0  0  0
  152.5829  138.1810  156.6240 H   0  0  0  0  0  0  0  0  0  0  0  0
  153.4409  139.3321  153.9315 H   0  0  0  0  0  0  0  0  0  0  0  0
  154.2992  138.1219  154.8988 H   0  0  0  0  0  0  0  0  0  0  0  0
  150.5499  136.9928  154.4233 H   0  0  0  0  0  0  0  0  0  0  0  0
  150.7641  138.2645  153.2243 H   0  0  0  0  0  0  0  0  0  0  0  0
  149.1349  138.5971  153.3642 H   0  0  0  0  0  0  0  0  0  0  0  0
  1  2  1  0  0  0  0
  1 15  1  0  0  0  0
  1 16  1  0  0  0  0
  2  3  1  0  0  0  0
  2 17  1  0  0  0  0
  2 18  1  0  0  0  0
  3 14  1  0  0  0  0
  3  4  2  0  0  0  0
  4  5  1  0  0  0  0
  4 19  1  0  0  0  0
  5  6  2  0  0  0  0
  5 20  1  0  0  0  0
  6  7  1  0  0  0  0
  7  8  1  0  0  0  0
  7 14  2  0  0  0  0
  8  9  1  0  0  0  0
  9 13  1  0  0  0  0
  9 10  1  0  0  0  0
  9 21  1  0  0  0  0
 10 11  1  0  0  0  0
 10 22  1  0  0  0  0
 10 23  1  0  0  0  0
 11 12  1  0  0  0  0
 11 24  1  0  0  0  0
 11 25  1  0  0  0  0
 12 13  1  0  0  0  0
 13 26  1  0  0  0  0
 13 27  1  0  0  0  0
 14 28  1  0  0  0  0
M  END
> <s_m_source_file>
AV-unprocessed.smi

> <i_m_source_file_index>
3091

> <i_lp_mmshare_version>
43012

> <i_f3d_flags>
0

> <s_epik_input>
W05IMl1bQ0gyXWMxW2NIXVtjSF1uYyhbY0hdMSlPW0NAQEhdMltDSDJdW0NIMl1PW0NIMl0y

> <s_epik_cmdline>
J2VwaWtfcHl0aG9uJywgJy1waCcsICc3LjAnLCAnLXRuJywgJzgnLCAnLW1hJywgJzIwMCcsICctbWV0YWxfYmluZGluZycsICctaW1hZScsICc8aW5maWxlLm1hZT4nLCAnLW9tYWUnLCAnPG91dGZpbGUubWFlPic=

> <r_lp_tautomer_probability>
1

> <r_epik_Ionization_Penalty>
1.24495

> <r_epik_Ionization_Penalty_Charging>
0

> <r_epik_Ionization_Penalty_Neutral>
1.24495

> <r_epik_State_Penalty>
1.3141

> <r_epik_Charging_Adjusted_Penalty>
1.3141

> <i_epik_Tot_Q>
0

> <i_epik_Tot_abs_Q>
0

> <r_epik_Metal_State_Penalty>
1.31398

> <b_epik_Metal_Only>
0

> <s_lp_Force_Field>
OPLS_2005

> <r_lp_Energy>
14.7712

> <b_lp_Chiralities_Consistent>
1

> <s_lp_Variant>
AV-unprocessed.smi:3091-3

> <Gold.Version>
5.8.1

> <Gold.Id.Protein>
6NUR|6NUR_protein|mol2

> <Gold.PLP.Fitness>
43.9075

> <Gold.PLP.PLP>
-30.8829

> <Gold.PLP.part.hbond>
-5.0000

> <Gold.PLP.part.metal>
0.0000

> <Gold.PLP.part.buried>
0.4731

> <Gold.PLP.part.nonpolar>
-27.3379

> <Gold.PLP.part.repulsive>
0.3601

> <Gold.PLP.ligand.clash>
0.0000

> <Gold.PLP.ligand.torsion>
0.2617

> <Gold.PLP.Chemscore.Hbond>
3.6800

> <Gold.PLP.Chemscore.CHOScore>
0.8289

> <Gold.PLP.Chemscore.Metal>
0.0000

> <Gold.Chemscore.Hbonds>
donor molecule, donor type, donor heavy atom, donor atom, acceptor molecule, acceptor atom, score
      L1  H     1    15       P1  7957  0.96
      L1  H     1    16       P1  7948  1.00
      P1  H  7989  7998       L1     8  1.00
      P1  H 10752 10763       L1    12  0.69
      L1  C     5    20       P1  8028  0.83

> <Gold.PLP.Chemscore.Internal.Correction>
0.0214

> <Gold.Rescore>
     Score         DG    S(hbond)    S(metal)    S(lipo)     H(rot)  DE(clash)    DE(int)     intcor
     16.35     -17.99       2.60        0.00      66.51       1.54       1.23       0.42       ----

> <Gold.Chemscore.Fitness>
16.3465

> <Gold.Chemscore.DG>
-17.9918

> <Gold.Chemscore.ZeroCoef>
-5.4800

> <Gold.Chemscore.Hbond>
2.5985

> <Gold.Chemscore.Metal>
0.0000

> <Gold.Chemscore.Lipo>
66.5073

> <Gold.Chemscore.Internal_Hbond>
0.0000

> <Gold.Chemscore.DEClash>
1.2292

> <Gold.Chemscore.DEInternal>
0.4161

> <Gold.Chemscore.Rot>
1.5424

> <Gold.Chemscore.Internal.Correction>
   9.000000E+99

> <Gold.Chemscore.Hbonds>
donor molecule, donor type, donor heavy atom, donor atom, acceptor molecule, acceptor atom, score
      L1  H     1    15       P1  7957  0.49
      L1  H     1    16       P1  7948  0.99
      P1  H  7989  7998       L1     8  0.49
      P1  H 10752 10763       L1    12  0.68

> <Gold.Chemscore.Hbond.Weighted>
-8.6791

> <Gold.Chemscore.Metal.Weighted>
-0.0000

> <Gold.Chemscore.Lipo.Weighted>
-7.7813

> <Gold.Chemscore.Internal_Hbond.Weighted>
0.0000

> <Gold.Chemscore.DEClash.Weighted>
1.2292

> <Gold.Chemscore.DEInternal.Weighted>
0.4161

> <Gold.Chemscore.Rot.Weighted>
3.9487

> <Gold.Chemscore.Internal.Correction.Weighted>
   9.000000E+99

> <Gold.Protein.RotatedTorsions>
[ 6907 6896 6895 6894 ] final  -14.60 input  -60.11 | X-H torsion
[ 7974 7965 7964 7962 ] final   88.86 input  175.53 | X-H torsion
[ 8008 7997 7996 7995 ] final   34.60 input   59.86 | X-H torsion
[ 10167 10162 10161 10158 ] final  -91.11 input  -65.29 | X-H torsion
[ 10718 10713 10712 10709 ] final  -50.27 input   66.30 | X-H torsion
[ 10763 10752 10751 10750 ] final   26.79 input  -60.55 | X-H torsion
[ 11005 11000 10999 10996 ] final  -81.76 input  -57.11 | X-H torsion

> <Gold.Protein.ActiveResidues>
 VAL166  LYS551  ARG553  GLY616  TRP617  ASP618  TYR619  PRO620  LYS621  CYS622 
 ASP623  PHE694  ASN695  SER759  ASP760  ASP761  ALA762  ILE779  LEU786  VAL792 
 PHE793  MET794  SER795  GLU796  ALA797  LYS798  CYS799  TRP800  GLU811  SER814 

> <Gold.Protein.RotatedAtoms>
  151.3370  135.0855  159.9357 H   0  0  0  0  0  0  0  0  0  0  0  0  # atno 6907 bound_to 6896
  152.5221  133.9486  159.7671 H   0  0  0  0  0  0  0  0  0  0  0  0  # atno 6908 bound_to 6896
  150.9835  133.6168  159.2748 H   0  0  0  0  0  0  0  0  0  0  0  0  # atno 6909 bound_to 6896
  145.5401  139.2288  143.2570 H   0  0  0  0  0  0  0  0  0  0  0  0  # atno 7974 bound_to 7965
  155.1575  140.3280  155.4418 H   0  0  0  0  0  0  0  0  0  0  0  0  # atno 8008 bound_to 7997
  156.2554  140.1966  156.6634 H   0  0  0  0  0  0  0  0  0  0  0  0  # atno 8009 bound_to 7997
  154.6429  140.0568  156.9853 H   0  0  0  0  0  0  0  0  0  0  0  0  # atno 8010 bound_to 7997
  140.3482  143.2905  151.9757 H   0  0  0  0  0  0  0  0  0  0  0  0  # atno 10167 bound_to 10162
  156.1816  130.4150  149.9499 H   0  0  0  0  0  0  0  0  0  0  0  0  # atno 10718 bound_to 10713
  153.0598  135.6552  154.0489 H   0  0  0  0  0  0  0  0  0  0  0  0  # atno 10763 bound_to 10752
  154.0159  135.2924  155.3388 H   0  0  0  0  0  0  0  0  0  0  0  0  # atno 10764 bound_to 10752
  154.6931  135.5274  153.8489 H   0  0  0  0  0  0  0  0  0  0  0  0  # atno 10765 bound_to 10752
  141.1665  133.7212  156.8470 H   0  0  0  0  0  0  0  0  0  0  0  0  # atno 11005 bound_to 11000
  146.1987  140.6220  142.9112 LP  0  0  0  0  0  0  0  0  0  0  0  0  # atno 17320 bound_to 7965
  144.7581  140.5357  143.6754 LP  0  0  0  0  0  0  0  0  0  0  0  0  # atno 17321 bound_to 7965
  139.4830  144.6099  151.7453 LP  0  0  0  0  0  0  0  0  0  0  0  0  # atno 17342 bound_to 10162
  140.5244  144.0828  150.6033 LP  0  0  0  0  0  0  0  0  0  0  0  0  # atno 17343 bound_to 10162
  156.7268  130.9028  151.3622 LP  0  0  0  0  0  0  0  0  0  0  0  0  # atno 17370 bound_to 10713
  157.6872  130.9197  150.0416 LP  0  0  0  0  0  0  0  0  0  0  0  0  # atno 17371 bound_to 10713
  140.1942  134.8943  157.3096 LP  0  0  0  0  0  0  0  0  0  0  0  0  # atno 17394 bound_to 11000
  140.2257  134.3970  155.7545 LP  0  0  0  0  0  0  0  0  0  0  0  0  # atno 17395 bound_to 11000

$$$$
