AV-unprocessed.smi:3318|AV-procd|sdf|12762|dock3
  -GOLD-   2272019103D 1   1.00000     0.00000
 Structure written by MMmdl.
 45 46  0  0  0  0  0  0  0  0  3 V2000
  145.6793  137.6679  150.6229 C   0  0  0  0  0  0  0  0  0  0  0  0
  146.2965  138.8363  151.3994 C   0  0  0  0  0  0  0  0  0  0  0  0
  146.8500  138.4014  152.7679 C   0  0  0  0  0  0  0  0  0  0  0  0
  147.7931  139.3943  153.3434 N   0  3  2  0  0  0  0  0  0  0  0  0
  148.6225  138.8154  154.4321 C   0  0  0  0  0  0  0  0  0  0  0  0
  149.6823  139.8184  154.9207 C   0  0  0  0  0  0  0  0  0  0  0  0
  149.0384  141.1329  155.3919 C   0  0  1  0  0  0  0  0  0  0  0  0
  150.0884  142.0904  155.8098 N   0  3  0  0  0  0  0  0  0  0  0  0
  151.0474  141.5833  156.8157 C   0  0  0  0  0  0  0  0  0  0  0  0
  150.9063  142.3236  158.1552 C   0  0  0  0  0  0  0  0  0  0  0  0
  152.0277  142.0080  159.1290 C   0  0  0  0  0  0  0  0  0  0  0  0
  152.1503  142.7150  160.3444 C   0  0  0  0  0  0  0  0  0  0  0  0
  153.2093  142.3802  161.2107 C   0  0  0  0  0  0  0  0  0  0  0  0
  154.1016  141.3601  160.8282 C   0  0  0  0  0  0  0  0  0  0  0  0
  153.8942  140.7158  159.5925 C   0  0  0  0  0  0  0  0  0  0  0  0
  152.8825  141.0302  158.7544 N   0  0  0  0  0  0  0  0  0  0  0  0
  148.1592  141.6927  154.2565 C   0  0  0  0  0  0  0  0  0  0  0  0
  147.1301  140.6525  153.7788 C   0  0  0  0  0  0  0  0  0  0  0  0
  145.2936  138.0025  149.6597 H   0  0  0  0  0  0  0  0  0  0  0  0
  144.8523  137.2205  151.1749 H   0  0  0  0  0  0  0  0  0  0  0  0
  146.4164  136.8875  150.4317 H   0  0  0  0  0  0  0  0  0  0  0  0
  147.0965  139.2770  150.8034 H   0  0  0  0  0  0  0  0  0  0  0  0
  145.5386  139.6099  151.5195 H   0  0  0  0  0  0  0  0  0  0  0  0
  146.0388  138.2049  153.4708 H   0  0  0  0  0  0  0  0  0  0  0  0
  147.3732  137.4539  152.6301 H   0  0  0  0  0  0  0  0  0  0  0  0
  147.9796  138.5121  155.2601 H   0  0  0  0  0  0  0  0  0  0  0  0
  149.1239  137.9150  154.0747 H   0  0  0  0  0  0  0  0  0  0  0  0
  150.2596  139.3730  155.7321 H   0  0  0  0  0  0  0  0  0  0  0  0
  150.3890  140.0185  154.1135 H   0  0  0  0  0  0  0  0  0  0  0  0
  148.4117  140.9155  156.2585 H   0  0  0  0  0  0  0  0  0  0  0  0
  150.6233  142.3331  154.9875 H   0  0  0  0  0  0  0  0  0  0  0  0
  150.8770  140.5192  156.9780 H   0  0  0  0  0  0  0  0  0  0  0  0
  152.0655  141.6905  156.4386 H   0  0  0  0  0  0  0  0  0  0  0  0
  150.8638  143.4003  157.9838 H   0  0  0  0  0  0  0  0  0  0  0  0
  149.9571  142.0556  158.6215 H   0  0  0  0  0  0  0  0  0  0  0  0
  151.4494  143.4921  160.6127 H   0  0  0  0  0  0  0  0  0  0  0  0
  153.3344  142.8957  162.1514 H   0  0  0  0  0  0  0  0  0  0  0  0
  154.9237  141.0759  161.4684 H   0  0  0  0  0  0  0  0  0  0  0  0
  154.5578  139.9277  159.2683 H   0  0  0  0  0  0  0  0  0  0  0  0
  147.6276  142.5854  154.5861 H   0  0  0  0  0  0  0  0  0  0  0  0
  148.7853  141.9970  153.4164 H   0  0  0  0  0  0  0  0  0  0  0  0
  146.5549  141.0823  152.9596 H   0  0  0  0  0  0  0  0  0  0  0  0
  146.4213  140.4330  154.5788 H   0  0  0  0  0  0  0  0  0  0  0  0
  148.4329  139.6368  152.6002 H   0  0  0  0  0  0  0  0  0  0  0  0
  149.6517  142.9295  156.1639 H   0  0  0  0  0  0  0  0  0  0  0  0
  1  2  1  0  0  0  0
  1 19  1  0  0  0  0
  1 20  1  0  0  0  0
  1 21  1  0  0  0  0
  2  3  1  0  0  0  0
  2 22  1  0  0  0  0
  2 23  1  0  0  0  0
  3  4  1  0  0  0  0
  3 24  1  0  0  0  0
  3 25  1  0  0  0  0
  4 18  1  0  0  0  0
  4  5  1  0  0  0  0
  4 44  1  0  0  0  0
  5  6  1  0  0  0  0
  5 26  1  0  0  0  0
  5 27  1  0  0  0  0
  6  7  1  0  0  0  0
  6 28  1  0  0  0  0
  6 29  1  0  0  0  0
  7  8  1  0  0  0  0
  7 17  1  0  0  0  0
  7 30  1  0  0  0  0
  8  9  1  0  0  0  0
  8 31  1  0  0  0  0
  8 45  1  0  0  0  0
  9 10  1  0  0  0  0
  9 32  1  0  0  0  0
  9 33  1  0  0  0  0
 10 11  1  0  0  0  0
 10 34  1  0  0  0  0
 10 35  1  0  0  0  0
 11 16  1  0  0  0  0
 11 12  2  0  0  0  0
 12 13  1  0  0  0  0
 12 36  1  0  0  0  0
 13 14  2  0  0  0  0
 13 37  1  0  0  0  0
 14 15  1  0  0  0  0
 14 38  1  0  0  0  0
 15 16  2  0  0  0  0
 15 39  1  0  0  0  0
 17 18  1  0  0  0  0
 17 40  1  0  0  0  0
 17 41  1  0  0  0  0
 18 42  1  0  0  0  0
 18 43  1  0  0  0  0
M  CHG  1   4   1
M  CHG  1   8   1
M  END
> <s_m_source_file>
AV-unprocessed.smi

> <i_m_source_file_index>
3318

> <i_lp_mmshare_version>
43012

> <i_f3d_flags>
0

> <s_epik_input>
W0NIM11bQ0gyXVtDSDJdTjFbQ0gyXVtDSDJdW0NIXShbQ0gyXVtDSDJdMSlbTkhdW0NIMl1bQ0gyXWMyW2NIXVtjSF1bY0hdW2NIXW4y

> <s_epik_cmdline>
J2VwaWtfcHl0aG9uJywgJy1waCcsICc3LjAnLCAnLXRuJywgJzgnLCAnLW1hJywgJzIwMCcsICctbWV0YWxfYmluZGluZycsICctaW1hZScsICc8aW5maWxlLm1hZT4nLCAnLW9tYWUnLCAnPG91dGZpbGUubWFlPic=

> <r_epik_Ionization_Penalty>
0.0638186

> <r_epik_Ionization_Penalty_Charging>
0.0628538

> <r_epik_Ionization_Penalty_Neutral>
0.000964829

> <r_epik_State_Penalty>
0.0518488

> <r_epik_Charging_Adjusted_Penalty>
0.114703

> <i_epik_Tot_Q>
2

> <i_epik_Tot_abs_Q>
2

> <r_epik_Metal_State_Penalty>
0.0535981

> <b_epik_Metal_Only>
0

> <s_lp_Force_Field>
OPLS_2005

> <r_lp_Energy>
28.1617

> <b_lp_Chiralities_Consistent>
1

> <s_lp_Variant>
AV-unprocessed.smi:3318-1

> <Gold.Version>
5.8.1

> <Gold.Id.Protein>
6NUR|6NUR_protein|mol2

> <Gold.PLP.Fitness>
46.9413

> <Gold.PLP.PLP>
-39.0987

> <Gold.PLP.part.hbond>
-2.0000

> <Gold.PLP.part.metal>
0.0000

> <Gold.PLP.part.buried>
3.2986

> <Gold.PLP.part.nonpolar>
-41.6932

> <Gold.PLP.part.repulsive>
0.2115

> <Gold.PLP.ligand.clash>
0.0000

> <Gold.PLP.ligand.torsion>
0.6277

> <Gold.PLP.Chemscore.Hbond>
3.0000

> <Gold.PLP.Chemscore.CHOScore>
0.0000

> <Gold.PLP.Chemscore.Metal>
0.0000

> <Gold.Chemscore.Hbonds>
donor molecule, donor type, donor heavy atom, donor atom, acceptor molecule, acceptor atom, score
      L1  H     4    44       P1  7957  1.00
      L1  H     8    45       P1  8028  1.79

> <Gold.PLP.Chemscore.Internal.Correction>
0.0980

> <Gold.Rescore>
     Score         DG    S(hbond)    S(metal)    S(lipo)     H(rot)  DE(clash)    DE(int)     intcor
     20.69     -23.14       1.98        0.00     128.44       1.55       1.82       0.62       ----

> <Gold.Chemscore.Fitness>
20.6913

> <Gold.Chemscore.DG>
-23.1378

> <Gold.Chemscore.ZeroCoef>
-5.4800

> <Gold.Chemscore.Hbond>
1.9781

> <Gold.Chemscore.Metal>
0.0000

> <Gold.Chemscore.Lipo>
128.4376

> <Gold.Chemscore.Internal_Hbond>
0.0000

> <Gold.Chemscore.DEClash>
1.8248

> <Gold.Chemscore.DEInternal>
0.6216

> <Gold.Chemscore.Rot>
1.5532

> <Gold.Chemscore.Internal.Correction>
   9.000000E+99

> <Gold.Chemscore.Hbonds>
donor molecule, donor type, donor heavy atom, donor atom, acceptor molecule, acceptor atom, score
      L1  H     4    44       P1  7957  1.00
      L1  H     8    45       P1  8028  0.84

> <Gold.Chemscore.Hbond.Weighted>
-6.6068

> <Gold.Chemscore.Metal.Weighted>
-0.0000

> <Gold.Chemscore.Lipo.Weighted>
-15.0272

> <Gold.Chemscore.Internal_Hbond.Weighted>
0.0000

> <Gold.Chemscore.DEClash.Weighted>
1.8248

> <Gold.Chemscore.DEInternal.Weighted>
0.6216

> <Gold.Chemscore.Rot.Weighted>
3.9762

> <Gold.Chemscore.Internal.Correction.Weighted>
   9.000000E+99

> <Gold.Protein.RotatedTorsions>
[ 6907 6896 6895 6894 ] final   -7.57 input  -60.11 | X-H torsion
[ 7974 7965 7964 7962 ] final   43.52 input  175.53 | X-H torsion
[ 8008 7997 7996 7995 ] final -149.23 input   59.86 | X-H torsion
[ 10167 10162 10161 10158 ] final -141.48 input  -65.29 | X-H torsion
[ 10718 10713 10712 10709 ] final -106.48 input   66.30 | X-H torsion
[ 10763 10752 10751 10750 ] final   30.45 input  -60.55 | X-H torsion
[ 11005 11000 10999 10996 ] final -113.26 input  -57.11 | X-H torsion

> <Gold.Protein.ActiveResidues>
 VAL166  LYS551  ARG553  GLY616  TRP617  ASP618  TYR619  PRO620  LYS621  CYS622 
 ASP623  PHE694  ASN695  SER759  ASP760  ASP761  ALA762  ILE779  LEU786  VAL792 
 PHE793  MET794  SER795  GLU796  ALA797  LYS798  CYS799  TRP800  GLU811  SER814 

> <Gold.Protein.RotatedAtoms>
  151.4474  135.1026  159.9687 H   0  0  0  0  0  0  0  0  0  0  0  0  # atno 6907 bound_to 6896
  152.4900  133.8472  159.7193 H   0  0  0  0  0  0  0  0  0  0  0  0  # atno 6908 bound_to 6896
  150.9045  133.7016  159.2897 H   0  0  0  0  0  0  0  0  0  0  0  0  # atno 6909 bound_to 6896
  146.0648  139.5178  142.9635 H   0  0  0  0  0  0  0  0  0  0  0  0  # atno 7974 bound_to 7965
  155.6042  140.0665  157.2724 H   0  0  0  0  0  0  0  0  0  0  0  0  # atno 8008 bound_to 7997
  154.4270  140.1813  156.1253 H   0  0  0  0  0  0  0  0  0  0  0  0  # atno 8009 bound_to 7997
  156.0135  140.3324  155.6968 H   0  0  0  0  0  0  0  0  0  0  0  0  # atno 8010 bound_to 7997
  139.8180  143.7612  152.2665 H   0  0  0  0  0  0  0  0  0  0  0  0  # atno 10167 bound_to 10162
  156.0392  130.5615  150.7687 H   0  0  0  0  0  0  0  0  0  0  0  0  # atno 10718 bound_to 10713
  153.0371  135.6464  154.1046 H   0  0  0  0  0  0  0  0  0  0  0  0  # atno 10763 bound_to 10752
  154.0759  135.2877  155.3301 H   0  0  0  0  0  0  0  0  0  0  0  0  # atno 10764 bound_to 10752
  154.6562  135.5408  153.8026 H   0  0  0  0  0  0  0  0  0  0  0  0  # atno 10765 bound_to 10752
  141.0625  133.9512  157.2641 H   0  0  0  0  0  0  0  0  0  0  0  0  # atno 11005 bound_to 11000
  145.6496  141.0266  143.1767 LP  0  0  0  0  0  0  0  0  0  0  0  0  # atno 17320 bound_to 7965
  144.7196  139.8075  143.7386 LP  0  0  0  0  0  0  0  0  0  0  0  0  # atno 17321 bound_to 7965
  139.7781  144.7454  151.0127 LP  0  0  0  0  0  0  0  0  0  0  0  0  # atno 17342 bound_to 10162
  140.7815  143.4571  151.0330 LP  0  0  0  0  0  0  0  0  0  0  0  0  # atno 17343 bound_to 10162
  157.5187  131.0930  151.0106 LP  0  0  0  0  0  0  0  0  0  0  0  0  # atno 17370 bound_to 10713
  157.0443  130.5761  149.5360 LP  0  0  0  0  0  0  0  0  0  0  0  0  # atno 17371 bound_to 10713
  139.9445  135.0186  156.8811 LP  0  0  0  0  0  0  0  0  0  0  0  0  # atno 17394 bound_to 11000
  140.5840  134.0325  155.7474 LP  0  0  0  0  0  0  0  0  0  0  0  0  # atno 17395 bound_to 11000

$$$$
