AV-unprocessed.smi:3131|AV-procd|sdf|11927|dock7
  -GOLD-   2272017313D 1   1.00000     0.00000
 Structure written by MMmdl.
 43 43  0  0  0  0  0  0  0  0  2 V2000
  149.2134  141.4329  154.6580 C   0  0  0  0  0  0  0  0  0  0  0  0
  148.8376  140.1463  155.4084 C   0  0  0  0  0  0  0  0  0  0  0  0
  148.7985  138.8780  154.5228 C   0  0  0  0  0  0  0  0  0  0  0  0
  150.1888  138.5813  153.9092 C   0  0  0  0  0  0  0  0  0  0  0  0
  151.3112  138.3989  154.9418 C   0  0  0  0  0  0  0  0  0  0  0  0
  147.7293  139.0051  153.4144 C   0  0  0  0  0  0  0  0  0  0  0  0
  147.0504  137.7190  153.1583 N   0  3  0  0  0  0  0  0  0  0  0  0
  145.9230  137.8055  152.2059 C   0  0  0  0  0  0  0  0  0  0  0  0
  144.8141  136.7818  152.5321 C   0  0  1  0  0  0  0  0  0  0  0  0
  144.7267  136.5476  154.0504 C   0  0  0  0  0  0  0  0  0  0  0  0
  143.5795  137.3648  152.1583 O   0  0  0  0  0  0  0  0  0  0  0  0
  145.0587  135.4701  151.8162 C   0  0  0  0  0  0  0  0  0  0  0  0
  146.2066  134.6257  151.8815 C   0  0  0  0  0  0  0  0  0  0  0  0
  146.0918  133.5367  151.1399 N   0  0  0  0  0  0  0  0  0  0  0  0
  144.8759  133.6461  150.5691 N   0  0  0  0  0  0  0  0  0  0  0  0
  144.4128  132.6094  149.6718 C   0  0  0  0  0  0  0  0  0  0  0  0
  144.2311  134.8001  150.9571 C   0  0  0  0  0  0  0  0  0  0  0  0
  149.1268  142.2978  155.3163 H   0  0  0  0  0  0  0  0  0  0  0  0
  148.5526  141.6006  153.8072 H   0  0  0  0  0  0  0  0  0  0  0  0
  150.2388  141.4114  154.2910 H   0  0  0  0  0  0  0  0  0  0  0  0
  149.5226  139.9955  156.2437 H   0  0  0  0  0  0  0  0  0  0  0  0
  147.8591  140.3153  155.8554 H   0  0  0  0  0  0  0  0  0  0  0  0
  148.5247  138.0342  155.1584 H   0  0  0  0  0  0  0  0  0  0  0  0
  150.1449  137.6641  153.3218 H   0  0  0  0  0  0  0  0  0  0  0  0
  150.4612  139.3699  153.2066 H   0  0  0  0  0  0  0  0  0  0  0  0
  152.2378  138.1001  154.4508 H   0  0  0  0  0  0  0  0  0  0  0  0
  151.0589  137.6245  155.6666 H   0  0  0  0  0  0  0  0  0  0  0  0
  151.5200  139.3173  155.4891 H   0  0  0  0  0  0  0  0  0  0  0  0
  146.9628  139.7245  153.6985 H   0  0  0  0  0  0  0  0  0  0  0  0
  148.1821  139.3725  152.4924 H   0  0  0  0  0  0  0  0  0  0  0  0
  147.7262  137.0646  152.7904 H   0  0  0  0  0  0  0  0  0  0  0  0
  145.5152  138.8168  152.2447 H   0  0  0  0  0  0  0  0  0  0  0  0
  146.2947  137.6553  151.1909 H   0  0  0  0  0  0  0  0  0  0  0  0
  145.6539  136.1287  154.4428 H   0  0  0  0  0  0  0  0  0  0  0  0
  143.9227  135.8535  154.2990 H   0  0  0  0  0  0  0  0  0  0  0  0
  144.5370  137.4772  154.5885 H   0  0  0  0  0  0  0  0  0  0  0  0
  143.7249  137.9379  151.4206 H   0  0  0  0  0  0  0  0  0  0  0  0
  147.1143  134.7684  152.4493 H   0  0  0  0  0  0  0  0  0  0  0  0
  143.3820  132.8047  149.3744 H   0  0  0  0  0  0  0  0  0  0  0  0
  144.4599  131.6401  150.1697 H   0  0  0  0  0  0  0  0  0  0  0  0
  145.0407  132.5860  148.7806 H   0  0  0  0  0  0  0  0  0  0  0  0
  143.2439  135.0471  150.5953 H   0  0  0  0  0  0  0  0  0  0  0  0
  146.6999  137.3582  154.0342 H   0  0  0  0  0  0  0  0  0  0  0  0
  1  2  1  0  0  0  0
  1 18  1  0  0  0  0
  1 19  1  0  0  0  0
  1 20  1  0  0  0  0
  2  3  1  0  0  0  0
  2 21  1  0  0  0  0
  2 22  1  0  0  0  0
  3  4  1  0  0  0  0
  3  6  1  0  0  0  0
  3 23  1  0  0  0  0
  4  5  1  0  0  0  0
  4 24  1  0  0  0  0
  4 25  1  0  0  0  0
  5 26  1  0  0  0  0
  5 27  1  0  0  0  0
  5 28  1  0  0  0  0
  6  7  1  0  0  0  0
  6 29  1  0  0  0  0
  6 30  1  0  0  0  0
  7  8  1  0  0  0  0
  7 31  1  0  0  0  0
  7 43  1  0  0  0  0
  8  9  1  0  0  0  0
  8 32  1  0  0  0  0
  8 33  1  0  0  0  0
  9 10  1  0  0  0  0
  9 11  1  0  0  0  0
  9 12  1  0  0  0  0
 10 34  1  0  0  0  0
 10 35  1  0  0  0  0
 10 36  1  0  0  0  0
 11 37  1  0  0  0  0
 12 17  2  0  0  0  0
 12 13  1  0  0  0  0
 13 14  2  0  0  0  0
 13 38  1  0  0  0  0
 14 15  1  0  0  0  0
 15 16  1  0  0  0  0
 15 17  1  0  0  0  0
 16 39  1  0  0  0  0
 16 40  1  0  0  0  0
 16 41  1  0  0  0  0
 17 42  1  0  0  0  0
M  CHG  1   7   1
M  END
> <s_m_source_file>
AV-unprocessed.smi

> <i_m_source_file_index>
3131

> <i_lp_mmshare_version>
43012

> <i_f3d_flags>
0

> <s_epik_input>
W0NIM11bQ0gyXVtDSF0oW0NIMl1bQ0gzXSlbQ0gyXVtOSF1bQ0gyXVtDQEBdKFtDSDNdKShbT0hdKWMxW2NIXW5uKFtDSDNdKVtjSF0x

> <s_epik_cmdline>
J2VwaWtfcHl0aG9uJywgJy1waCcsICc3LjAnLCAnLXRuJywgJzgnLCAnLW1hJywgJzIwMCcsICctbWV0YWxfYmluZGluZycsICctaW1hZScsICc8aW5maWxlLm1hZT4nLCAnLW9tYWUnLCAnPG91dGZpbGUubWFlPic=

> <r_lp_tautomer_probability>
1

> <r_epik_Ionization_Penalty>
0.00304809

> <r_epik_Ionization_Penalty_Charging>
0.00302982

> <r_epik_Ionization_Penalty_Neutral>
1.82731e-05

> <r_epik_State_Penalty>
0.00212874

> <r_epik_Charging_Adjusted_Penalty>
0.00515857

> <i_epik_Tot_Q>
1

> <i_epik_Tot_abs_Q>
1

> <r_epik_Metal_State_Penalty>
-0

> <b_epik_Metal_Only>
0

> <s_lp_Force_Field>
OPLS_2005

> <r_lp_Energy>
10.206

> <b_lp_Chiralities_Consistent>
1

> <s_lp_Variant>
AV-unprocessed.smi:3131-1

> <Gold.Version>
5.8.1

> <Gold.Id.Protein>
6NUR|6NUR_protein|mol2

> <Gold.PLP.Fitness>
42.2925

> <Gold.PLP.PLP>
-30.4939

> <Gold.PLP.part.hbond>
-3.0000

> <Gold.PLP.part.metal>
0.0000

> <Gold.PLP.part.buried>
-1.7303

> <Gold.PLP.part.nonpolar>
-26.5263

> <Gold.PLP.part.repulsive>
0.2085

> <Gold.PLP.ligand.clash>
0.0000

> <Gold.PLP.ligand.torsion>
1.3136

> <Gold.PLP.Chemscore.Hbond>
3.0000

> <Gold.PLP.Chemscore.CHOScore>
1.7057

> <Gold.PLP.Chemscore.Metal>
0.0000

> <Gold.Chemscore.Hbonds>
donor molecule, donor type, donor heavy atom, donor atom, acceptor molecule, acceptor atom, score
      L1  H     7    31       P1  7948  2.00
      L1  H    11    37       P1 10171  1.00
      L1  C    13    38       P1  7948  0.91
      L1  C    17    42       P1 10186  0.85

> <Gold.PLP.Chemscore.Internal.Correction>
0.3087

> <Gold.Rescore>
     Score         DG    S(hbond)    S(metal)    S(lipo)     H(rot)  DE(clash)    DE(int)     intcor
     13.90     -15.14       1.99        0.00      77.00       2.34       0.11       1.13       ----

> <Gold.Chemscore.Fitness>
13.8989

> <Gold.Chemscore.DG>
-15.1387

> <Gold.Chemscore.ZeroCoef>
-5.4800

> <Gold.Chemscore.Hbond>
1.9899

> <Gold.Chemscore.Metal>
0.0000

> <Gold.Chemscore.Lipo>
77.0048

> <Gold.Chemscore.Internal_Hbond>
0.0000

> <Gold.Chemscore.DEClash>
0.1126

> <Gold.Chemscore.DEInternal>
1.1272

> <Gold.Chemscore.Rot>
2.3426

> <Gold.Chemscore.Internal.Correction>
   9.000000E+99

> <Gold.Chemscore.Hbonds>
donor molecule, donor type, donor heavy atom, donor atom, acceptor molecule, acceptor atom, score
      L1  H     7    31       P1  7948  1.00
      L1  H    11    37       P1 10171  0.99

> <Gold.Chemscore.Hbond.Weighted>
-6.6463

> <Gold.Chemscore.Metal.Weighted>
-0.0000

> <Gold.Chemscore.Lipo.Weighted>
-9.0096

> <Gold.Chemscore.Internal_Hbond.Weighted>
0.0000

> <Gold.Chemscore.DEClash.Weighted>
0.1126

> <Gold.Chemscore.DEInternal.Weighted>
1.1272

> <Gold.Chemscore.Rot.Weighted>
5.9972

> <Gold.Chemscore.Internal.Correction.Weighted>
   9.000000E+99

> <Gold.Protein.RotatedTorsions>
[ 6907 6896 6895 6894 ] final -166.25 input  -60.11 | X-H torsion
[ 7974 7965 7964 7962 ] final   91.21 input  175.53 | X-H torsion
[ 8008 7997 7996 7995 ] final  -58.33 input   59.86 | X-H torsion
[ 10167 10162 10161 10158 ] final -123.34 input  -65.29 | X-H torsion
[ 10718 10713 10712 10709 ] final  160.78 input   66.30 | X-H torsion
[ 10763 10752 10751 10750 ] final  -94.27 input  -60.55 | X-H torsion
[ 11005 11000 10999 10996 ] final   92.82 input  -57.11 | X-H torsion

> <Gold.Protein.ActiveResidues>
 VAL166  LYS551  ARG553  GLY616  TRP617  ASP618  TYR619  PRO620  LYS621  CYS622 
 ASP623  PHE694  ASN695  SER759  ASP760  ASP761  ALA762  ILE779  LEU786  VAL792 
 PHE793  MET794  SER795  GLU796  ALA797  LYS798  CYS799  TRP800  GLU811  SER814 

> <Gold.Protein.RotatedAtoms>
  151.4406  133.3644  159.2781 H   0  0  0  0  0  0  0  0  0  0  0  0  # atno 6907 bound_to 6896
  150.9160  134.8579  159.7468 H   0  0  0  0  0  0  0  0  0  0  0  0  # atno 6908 bound_to 6896
  152.4957  134.4340  159.9573 H   0  0  0  0  0  0  0  0  0  0  0  0  # atno 6909 bound_to 6896
  145.5087  139.2276  143.2737 H   0  0  0  0  0  0  0  0  0  0  0  0  # atno 7974 bound_to 7965
  154.4304  140.1086  156.5939 H   0  0  0  0  0  0  0  0  0  0  0  0  # atno 8008 bound_to 7997
  155.5982  140.3493  155.4567 H   0  0  0  0  0  0  0  0  0  0  0  0  # atno 8009 bound_to 7997
  156.0194  140.1236  157.0363 H   0  0  0  0  0  0  0  0  0  0  0  0  # atno 8010 bound_to 7997
  140.0045  143.5506  152.2289 H   0  0  0  0  0  0  0  0  0  0  0  0  # atno 10167 bound_to 10162
  157.1456  131.0551  151.2305 H   0  0  0  0  0  0  0  0  0  0  0  0  # atno 10718 bound_to 10713
  154.7038  135.5164  153.8566 H   0  0  0  0  0  0  0  0  0  0  0  0  # atno 10763 bound_to 10752
  153.0725  135.6606  154.0225 H   0  0  0  0  0  0  0  0  0  0  0  0  # atno 10764 bound_to 10752
  154.0079  135.3005  155.3375 H   0  0  0  0  0  0  0  0  0  0  0  0  # atno 10765 bound_to 10752
  139.8818  134.8755  156.3628 H   0  0  0  0  0  0  0  0  0  0  0  0  # atno 11005 bound_to 11000
  146.2180  140.5892  142.9030 LP  0  0  0  0  0  0  0  0  0  0  0  0  # atno 17320 bound_to 7965
  144.7739  140.5698  143.6651 LP  0  0  0  0  0  0  0  0  0  0  0  0  # atno 17321 bound_to 7965
  139.6248  144.7635  151.2662 LP  0  0  0  0  0  0  0  0  0  0  0  0  # atno 17342 bound_to 10162
  140.7406  143.6583  150.8186 LP  0  0  0  0  0  0  0  0  0  0  0  0  # atno 17343 bound_to 10162
  157.4267  130.7467  149.6957 LP  0  0  0  0  0  0  0  0  0  0  0  0  # atno 17370 bound_to 10713
  155.9780  130.4056  150.3676 LP  0  0  0  0  0  0  0  0  0  0  0  0  # atno 17371 bound_to 10713
  140.9517  133.7446  156.0281 LP  0  0  0  0  0  0  0  0  0  0  0  0  # atno 17394 bound_to 11000
  140.8097  134.3414  157.5415 LP  0  0  0  0  0  0  0  0  0  0  0  0  # atno 17395 bound_to 11000

$$$$
