AV-unprocessed.smi:281|AV-procd|sdf|2115|dock1
  -GOLD-   2262021413D 1   1.00000     0.00000
 Structure written by MMmdl.
 55 59  0  0  0  0  0  0  0  0  1 V2000
  154.9883  139.0747  159.6189 C   0  0  0  0  0  0  0  0  0  0  0  0
  153.6762  139.8392  159.8190 C   0  0  2  0  0  0  0  0  0  0  0  0
  152.5631  139.3337  158.8895 C   0  0  0  0  0  0  0  0  0  0  0  0
  151.3704  140.1503  159.0684 N   0  0  0  0  0  0  0  0  0  0  0  0
  150.2262  139.6180  158.5686 C   0  0  0  0  0  0  0  0  0  0  0  0
  149.7993  138.3996  158.9968 N   0  0  0  0  0  0  0  0  0  0  0  0
  148.6715  137.8703  158.5139 C   0  0  0  0  0  0  0  0  0  0  0  0
  147.8319  138.3785  157.6103 N   0  0  0  0  0  0  0  0  0  0  0  0
  148.2560  139.5982  157.1716 C   0  0  0  0  0  0  0  0  0  0  0  0
  149.4318  140.2824  157.5913 C   0  0  0  0  0  0  0  0  0  0  0  0
  149.5449  141.4878  156.9082 N   0  0  0  0  0  0  0  0  0  0  0  0
  148.4924  141.5181  156.1373 C   0  0  0  0  0  0  0  0  0  0  0  0
  147.6574  140.4282  156.2394 N   0  0  0  0  0  0  0  0  0  0  0  0
  146.4227  140.1992  155.5034 C   0  0  0  0  0  0  0  0  0  0  0  0
  145.3859  141.3376  155.6577 C   0  0  2  0  0  0  0  0  0  0  0  0
  144.0936  140.8339  155.3664 O   0  0  0  0  0  0  0  0  0  0  0  0
  145.6603  142.5142  154.7289 C   0  0  0  0  0  0  0  0  0  0  0  0
  145.0937  143.6958  155.5042 C   0  0  0  0  0  0  0  0  0  0  0  0
  145.4655  143.4025  156.8399 O   0  0  0  0  0  0  0  0  0  0  0  0
  145.3507  141.9983  157.0519 C   0  0  0  0  0  0  0  0  0  0  0  0
  151.6212  141.5717  158.8523 C   0  0  0  0  0  0  0  0  0  0  0  0
  152.7897  142.0760  159.7362 C   0  0  1  0  0  0  0  0  0  0  0  0
  153.1823  143.4898  159.3378 C   0  0  0  0  0  0  0  0  0  0  0  0
  152.1710  144.3475  160.0910 C   0  0  0  0  0  0  0  0  0  0  0  0
  151.8374  143.6126  161.2643 O   0  0  0  0  0  0  0  0  0  0  0  0
  152.3846  142.2956  161.2122 C   0  0  2  0  0  0  0  0  0  0  0  0
  153.5529  142.2853  162.2174 C   0  0  0  0  0  0  0  0  0  0  0  0
  153.9249  141.2222  159.5604 O   0  0  0  0  0  0  0  0  0  0  0  0
  154.8573  138.0110  159.8196 H   0  0  0  0  0  0  0  0  0  0  0  0
  155.7615  139.4467  160.2917 H   0  0  0  0  0  0  0  0  0  0  0  0
  155.3552  139.1813  158.5978 H   0  0  0  0  0  0  0  0  0  0  0  0
  153.3559  139.7054  160.8522 H   0  0  0  0  0  0  0  0  0  0  0  0
  152.8829  139.3967  157.8483 H   0  0  0  0  0  0  0  0  0  0  0  0
  152.3641  138.2829  159.0959 H   0  0  0  0  0  0  0  0  0  0  0  0
  148.4035  136.9012  158.9080 H   0  0  0  0  0  0  0  0  0  0  0  0
  148.2977  142.3434  155.4681 H   0  0  0  0  0  0  0  0  0  0  0  0
  146.6762  140.0617  154.4515 H   0  0  0  0  0  0  0  0  0  0  0  0
  145.9948  139.2535  155.8393 H   0  0  0  0  0  0  0  0  0  0  0  0
  144.0633  140.5954  154.4526 H   0  0  0  0  0  0  0  0  0  0  0  0
  146.7347  142.6549  154.6038 H   0  0  0  0  0  0  0  0  0  0  0  0
  145.2234  142.4024  153.7355 H   0  0  0  0  0  0  0  0  0  0  0  0
  145.4984  144.6528  155.1742 H   0  0  0  0  0  0  0  0  0  0  0  0
  144.0061  143.7332  155.4248 H   0  0  0  0  0  0  0  0  0  0  0  0
  144.4291  141.7752  157.5920 H   0  0  0  0  0  0  0  0  0  0  0  0
  146.1822  141.6848  157.6822 H   0  0  0  0  0  0  0  0  0  0  0  0
  151.8637  141.7224  157.7991 H   0  0  0  0  0  0  0  0  0  0  0  0
  150.7173  142.1463  159.0588 H   0  0  0  0  0  0  0  0  0  0  0  0
  154.1889  143.7160  159.6914 H   0  0  0  0  0  0  0  0  0  0  0  0
  153.1682  143.6620  158.2612 H   0  0  0  0  0  0  0  0  0  0  0  0
  152.5665  145.3329  160.3385 H   0  0  0  0  0  0  0  0  0  0  0  0
  151.2665  144.4867  159.4980 H   0  0  0  0  0  0  0  0  0  0  0  0
  151.6357  141.5697  161.5308 H   0  0  0  0  0  0  0  0  0  0  0  0
  154.0393  141.3127  162.2736 H   0  0  0  0  0  0  0  0  0  0  0  0
  153.1963  142.5237  163.2195 H   0  0  0  0  0  0  0  0  0  0  0  0
  154.3155  143.0203  161.9600 H   0  0  0  0  0  0  0  0  0  0  0  0
  1  2  1  0  0  0  0
  1 29  1  0  0  0  0
  1 30  1  0  0  0  0
  1 31  1  0  0  0  0
  2 28  1  0  0  0  0
  2  3  1  0  0  0  0
  2 32  1  0  0  0  0
  3  4  1  0  0  0  0
  3 33  1  0  0  0  0
  3 34  1  0  0  0  0
  4  5  1  0  0  0  0
  4 21  1  0  0  0  0
  5 10  1  0  0  0  0
  5  6  2  0  0  0  0
  6  7  1  0  0  0  0
  7  8  2  0  0  0  0
  7 35  1  0  0  0  0
  8  9  1  0  0  0  0
  9 13  1  0  0  0  0
  9 10  2  0  0  0  0
 10 11  1  0  0  0  0
 11 12  2  0  0  0  0
 12 13  1  0  0  0  0
 12 36  1  0  0  0  0
 13 14  1  0  0  0  0
 14 15  1  0  0  0  0
 14 37  1  0  0  0  0
 14 38  1  0  0  0  0
 15 20  1  0  0  0  0
 15 16  1  0  0  0  0
 15 17  1  0  0  0  0
 16 39  1  0  0  0  0
 17 18  1  0  0  0  0
 17 40  1  0  0  0  0
 17 41  1  0  0  0  0
 18 19  1  0  0  0  0
 18 42  1  0  0  0  0
 18 43  1  0  0  0  0
 19 20  1  0  0  0  0
 20 44  1  0  0  0  0
 20 45  1  0  0  0  0
 21 22  1  0  0  0  0
 21 46  1  0  0  0  0
 21 47  1  0  0  0  0
 22 26  1  0  0  0  0
 22 23  1  0  0  0  0
 22 28  1  0  0  0  0
 23 24  1  0  0  0  0
 23 48  1  0  0  0  0
 23 49  1  0  0  0  0
 24 25  1  0  0  0  0
 24 50  1  0  0  0  0
 24 51  1  0  0  0  0
 25 26  1  0  0  0  0
 26 27  1  0  0  0  0
 26 52  1  0  0  0  0
 27 53  1  0  0  0  0
 27 54  1  0  0  0  0
 27 55  1  0  0  0  0
M  END
> <s_m_source_file>
AV-unprocessed.smi

> <i_m_source_file_index>
281

> <i_lp_mmshare_version>
43012

> <i_f3d_flags>
0

> <s_epik_input>
W0NIM11bQ0BASF0xT1tDSDJdW0NIMl1bQ0BAXTEyW0NIMl1OKFtDSDJdW0NASF0oTzIpW0NIM10pYyhuW2NIXW4zKWMoYzM0KW5bY0hdbjRbQ0gyXVtDQEBdNShbT0hdKVtDSDJdW0NIMl1PW0NIMl01

> <s_epik_cmdline>
J2VwaWtfcHl0aG9uJywgJy1waCcsICc3LjAnLCAnLXRuJywgJzgnLCAnLW1hJywgJzIwMCcsICctbWV0YWxfYmluZGluZycsICctaW1hZScsICc8aW5maWxlLm1hZT4nLCAnLW9tYWUnLCAnPG91dGZpbGUubWFlPic=

> <r_lp_tautomer_probability>
1

> <r_epik_Ionization_Penalty>
0.00571331

> <r_epik_Ionization_Penalty_Charging>
0

> <r_epik_Ionization_Penalty_Neutral>
0.00571331

> <r_epik_State_Penalty>
0.00399586

> <r_epik_Charging_Adjusted_Penalty>
0.00399586

> <i_epik_Tot_Q>
0

> <i_epik_Tot_abs_Q>
0

> <r_epik_Metal_State_Penalty>
-0

> <b_epik_Metal_Only>
0

> <s_lp_Force_Field>
OPLS_2005

> <r_lp_Energy>
55.4075

> <b_lp_Chiralities_Consistent>
1

> <s_lp_Variant>
AV-unprocessed.smi:281-15

> <Gold.Version>
5.8.1

> <Gold.Id.Protein>
6NUR|6NUR_protein|mol2

> <Gold.PLP.Fitness>
44.6624

> <Gold.PLP.PLP>
-39.5936

> <Gold.PLP.part.hbond>
-1.4440

> <Gold.PLP.part.metal>
0.0000

> <Gold.PLP.part.buried>
-7.9660

> <Gold.PLP.part.nonpolar>
-31.1707

> <Gold.PLP.part.repulsive>
0.3658

> <Gold.PLP.ligand.clash>
0.0000

> <Gold.PLP.ligand.torsion>
0.5700

> <Gold.PLP.Chemscore.Hbond>
1.0000

> <Gold.PLP.Chemscore.CHOScore>
0.9693

> <Gold.PLP.Chemscore.Metal>
0.0000

> <Gold.Chemscore.Hbonds>
donor molecule, donor type, donor heavy atom, donor atom, acceptor molecule, acceptor atom, score
      L1  H    16    39       P1 10175  1.00
      L1  C    12    36       P1  8028  1.00

> <Gold.PLP.Chemscore.Internal.Correction>
0.3009

> <Gold.Rescore>
     Score         DG    S(hbond)    S(metal)    S(lipo)     H(rot)  DE(clash)    DE(int)     intcor
     13.85     -15.72       0.97        0.00     105.74       2.09       0.00       1.87       ----

> <Gold.Chemscore.Fitness>
13.8452

> <Gold.Chemscore.DG>
-15.7230

> <Gold.Chemscore.ZeroCoef>
-5.4800

> <Gold.Chemscore.Hbond>
0.9666

> <Gold.Chemscore.Metal>
0.0000

> <Gold.Chemscore.Lipo>
105.7417

> <Gold.Chemscore.Internal_Hbond>
0.0000

> <Gold.Chemscore.DEClash>
0.0029

> <Gold.Chemscore.DEInternal>
1.8749

> <Gold.Chemscore.Rot>
2.0927

> <Gold.Chemscore.Internal.Correction>
   9.000000E+99

> <Gold.Chemscore.Hbonds>
donor molecule, donor type, donor heavy atom, donor atom, acceptor molecule, acceptor atom, score
      L1  H    16    39       P1 10175  0.96

> <Gold.Chemscore.Hbond.Weighted>
-3.2286

> <Gold.Chemscore.Metal.Weighted>
-0.0000

> <Gold.Chemscore.Lipo.Weighted>
-12.3718

> <Gold.Chemscore.Internal_Hbond.Weighted>
0.0000

> <Gold.Chemscore.DEClash.Weighted>
0.0029

> <Gold.Chemscore.DEInternal.Weighted>
1.8749

> <Gold.Chemscore.Rot.Weighted>
5.3573

> <Gold.Chemscore.Internal.Correction.Weighted>
   9.000000E+99

> <Gold.Protein.RotatedTorsions>
[ 6907 6896 6895 6894 ] final  104.85 input  -60.11 | X-H torsion
[ 7974 7965 7964 7962 ] final  -61.18 input  175.53 | X-H torsion
[ 8008 7997 7996 7995 ] final    4.09 input   59.86 | X-H torsion
[ 10167 10162 10161 10158 ] final  179.98 input  -65.29 | X-H torsion
[ 10718 10713 10712 10709 ] final  105.76 input   66.30 | X-H torsion
[ 10763 10752 10751 10750 ] final -155.73 input  -60.55 | X-H torsion
[ 11005 11000 10999 10996 ] final -141.86 input  -57.11 | X-H torsion

> <Gold.Protein.ActiveResidues>
 VAL166  LYS551  ARG553  GLY616  TRP617  ASP618  TYR619  PRO620  LYS621  CYS622 
 ASP623  PHE694  ASN695  SER759  ASP760  ASP761  ALA762  ILE779  LEU786  VAL792 
 PHE793  MET794  SER795  GLU796  ALA797  LYS798  CYS799  TRP800  GLU811  SER814 

> <Gold.Protein.RotatedAtoms>
  152.5250  133.9615  159.7719 H   0  0  0  0  0  0  0  0  0  0  0  0  # atno 6907 bound_to 6896
  150.9905  133.6146  159.2716 H   0  0  0  0  0  0  0  0  0  0  0  0  # atno 6908 bound_to 6896
  151.3291  135.0843  159.9385 H   0  0  0  0  0  0  0  0  0  0  0  0  # atno 6909 bound_to 6896
  145.8066  140.8623  143.0203 H   0  0  0  0  0  0  0  0  0  0  0  0  # atno 7974 bound_to 7965
  154.7117  140.2694  155.6623 H   0  0  0  0  0  0  0  0  0  0  0  0  # atno 8008 bound_to 7997
  156.2797  140.2752  156.1685 H   0  0  0  0  0  0  0  0  0  0  0  0  # atno 8009 bound_to 7997
  155.0626  140.0371  157.2572 H   0  0  0  0  0  0  0  0  0  0  0  0  # atno 8010 bound_to 7997
  139.5360  144.2496  152.0795 H   0  0  0  0  0  0  0  0  0  0  0  0  # atno 10167 bound_to 10162
  157.6694  131.0835  150.5905 H   0  0  0  0  0  0  0  0  0  0  0  0  # atno 10718 bound_to 10713
  154.7765  135.3161  154.8081 H   0  0  0  0  0  0  0  0  0  0  0  0  # atno 10763 bound_to 10752
  153.8803  135.6835  153.4772 H   0  0  0  0  0  0  0  0  0  0  0  0  # atno 10764 bound_to 10752
  153.1390  135.4747  154.9403 H   0  0  0  0  0  0  0  0  0  0  0  0  # atno 10765 bound_to 10752
  140.8282  134.2548  157.4869 H   0  0  0  0  0  0  0  0  0  0  0  0  # atno 11005 bound_to 11000
  144.6762  140.0335  143.7482 LP  0  0  0  0  0  0  0  0  0  0  0  0  # atno 17320 bound_to 7965
  145.9821  139.2949  143.1035 LP  0  0  0  0  0  0  0  0  0  0  0  0  # atno 17321 bound_to 7965
  140.1967  144.4699  150.6452 LP  0  0  0  0  0  0  0  0  0  0  0  0  # atno 17342 bound_to 10162
  140.6567  143.2239  151.5953 LP  0  0  0  0  0  0  0  0  0  0  0  0  # atno 17343 bound_to 10162
  156.6205  130.4404  149.5824 LP  0  0  0  0  0  0  0  0  0  0  0  0  # atno 17370 bound_to 10713
  156.2359  130.6822  151.1509 LP  0  0  0  0  0  0  0  0  0  0  0  0  # atno 17371 bound_to 10713
  139.8706  134.9572  156.4261 LP  0  0  0  0  0  0  0  0  0  0  0  0  # atno 17394 bound_to 11000
  140.9026  133.7768  155.9698 LP  0  0  0  0  0  0  0  0  0  0  0  0  # atno 17395 bound_to 11000

$$$$
