AV-unprocessed.smi:2749|AV-procd|sdf|10587|dock1
  -GOLD-   2272015 33D 1   1.00000     0.00000
 Structure written by MMmdl.
 32 34  0  0  0  0  0  0  0  0  1 V2000
  150.9710  140.7483  156.3679 O   0  0  0  0  0  0  0  0  0  0  0  0
  150.3903  141.8285  156.2778 C   0  0  0  0  0  0  0  0  0  0  0  0
  149.2940  141.9706  155.5028 N   0  0  0  0  0  0  0  0  0  0  0  0
  148.6027  141.0373  154.6754 C   0  0  0  0  0  0  0  0  0  0  0  0
  147.4759  141.5674  154.0060 C   0  0  0  0  0  0  0  0  0  0  0  0
  146.7057  140.7340  153.1716 C   0  0  0  0  0  0  0  0  0  0  0  0
  147.0801  139.3860  153.0324 C   0  0  0  0  0  0  0  0  0  0  0  0
  146.3707  138.5460  152.2423 F   0  0  0  0  0  0  0  0  0  0  0  0
  148.2104  138.9328  153.7367 C   0  0  0  0  0  0  0  0  0  0  0  0
  148.9495  139.7318  154.5353 N   0  0  0  0  0  0  0  0  0  0  0  0
  150.7903  142.9249  156.9407 N   0  0  0  0  0  0  0  0  0  0  0  0
  151.9661  143.0097  157.8005 C   0  0  2  0  0  0  0  0  0  0  0  0
  151.7496  142.2891  159.1343 C   0  0  0  0  0  0  0  0  0  0  0  0
  151.9764  143.4185  160.1480 C   0  0  2  0  0  0  0  0  0  0  0  0
  150.8174  144.4255  160.1558 C   0  0  0  0  0  0  0  0  0  0  0  0
  151.0525  145.1829  158.8502 C   0  0  0  0  0  0  0  0  0  0  0  0
  152.2741  144.4448  158.2761 C   0  0  1  0  0  0  0  0  0  0  0  0
  152.9745  144.1688  159.4776 O   0  0  0  0  0  0  0  0  0  0  0  0
  148.8565  142.8786  155.5614 H   0  0  0  0  0  0  0  0  0  0  0  0
  147.2006  142.6055  154.1264 H   0  0  0  0  0  0  0  0  0  0  0  0
  145.8439  141.1227  152.6496 H   0  0  0  0  0  0  0  0  0  0  0  0
  148.5304  137.9044  153.6585 H   0  0  0  0  0  0  0  0  0  0  0  0
  150.2568  143.7731  156.8119 H   0  0  0  0  0  0  0  0  0  0  0  0
  152.8366  142.5842  157.2977 H   0  0  0  0  0  0  0  0  0  0  0  0
  150.7617  141.8375  159.2367 H   0  0  0  0  0  0  0  0  0  0  0  0
  152.4941  141.5026  159.2634 H   0  0  0  0  0  0  0  0  0  0  0  0
  152.2655  143.0697  161.1397 H   0  0  0  0  0  0  0  0  0  0  0  0
  149.8440  143.9348  160.1906 H   0  0  0  0  0  0  0  0  0  0  0  0
  150.8918  145.1009  161.0086 H   0  0  0  0  0  0  0  0  0  0  0  0
  150.1862  145.1757  158.1883 H   0  0  0  0  0  0  0  0  0  0  0  0
  151.3025  146.2237  159.0588 H   0  0  0  0  0  0  0  0  0  0  0  0
  152.8431  145.0335  157.5561 H   0  0  0  0  0  0  0  0  0  0  0  0
  1  2  2  0  0  0  0
  2  3  1  0  0  0  0
  2 11  1  0  0  0  0
  3  4  1  0  0  0  0
  3 19  1  0  0  0  0
  4 10  1  0  0  0  0
  4  5  2  0  0  0  0
  5  6  1  0  0  0  0
  5 20  1  0  0  0  0
  6  7  2  0  0  0  0
  6 21  1  0  0  0  0
  7  8  1  0  0  0  0
  7  9  1  0  0  0  0
  9 10  2  0  0  0  0
  9 22  1  0  0  0  0
 11 12  1  0  0  0  0
 11 23  1  0  0  0  0
 12 17  1  0  0  0  0
 12 13  1  0  0  0  0
 12 24  1  0  0  0  0
 13 14  1  0  0  0  0
 13 25  1  0  0  0  0
 13 26  1  0  0  0  0
 14 18  1  0  0  0  0
 14 15  1  0  0  0  0
 14 27  1  0  0  0  0
 15 16  1  0  0  0  0
 15 28  1  0  0  0  0
 15 29  1  0  0  0  0
 16 17  1  0  0  0  0
 16 30  1  0  0  0  0
 16 31  1  0  0  0  0
 17 18  1  0  0  0  0
 17 32  1  0  0  0  0
M  END
> <s_m_source_file>
AV-unprocessed.smi

> <i_m_source_file_index>
2749

> <i_lp_mmshare_version>
43012

> <i_f3d_flags>
0

> <s_epik_input>
W0NIMl0xW0NIMl1bQ0BIXShPMilbQ0BASF0oW0NIMl1bQ0BASF0xMilbTkhdQyg9TylbTkhdYzNbY0hdW2NIXWMoRilbY0hdbjM=

> <s_epik_cmdline>
J2VwaWtfcHl0aG9uJywgJy1waCcsICc3LjAnLCAnLXRuJywgJzgnLCAnLW1hJywgJzIwMCcsICctbWV0YWxfYmluZGluZycsICctaW1hZScsICc8aW5maWxlLm1hZT4nLCAnLW9tYWUnLCAnPG91dGZpbGUubWFlPic=

> <r_lp_tautomer_probability>
1

> <r_epik_Ionization_Penalty>
3.37159e-05

> <r_epik_Ionization_Penalty_Charging>
0

> <r_epik_Ionization_Penalty_Neutral>
3.37159e-05

> <r_epik_State_Penalty>
-0

> <r_epik_Charging_Adjusted_Penalty>
0

> <i_epik_Tot_Q>
0

> <i_epik_Tot_abs_Q>
0

> <r_epik_Metal_State_Penalty>
-0

> <b_epik_Metal_Only>
0

> <s_lp_Force_Field>
OPLS_2005

> <r_lp_Energy>
40.3406

> <b_lp_Chiralities_Consistent>
1

> <s_lp_Variant>
AV-unprocessed.smi:2749-3

> <Gold.Version>
5.8.1

> <Gold.Id.Protein>
6NUR|6NUR_protein|mol2

> <Gold.PLP.Fitness>
46.1115

> <Gold.PLP.PLP>
-37.5291

> <Gold.PLP.part.hbond>
-2.0000

> <Gold.PLP.part.metal>
0.0000

> <Gold.PLP.part.buried>
-1.4789

> <Gold.PLP.part.nonpolar>
-35.2066

> <Gold.PLP.part.repulsive>
0.3372

> <Gold.PLP.ligand.clash>
0.0000

> <Gold.PLP.ligand.torsion>
0.1104

> <Gold.PLP.Chemscore.Hbond>
1.9280

> <Gold.PLP.Chemscore.CHOScore>
1.0000

> <Gold.PLP.Chemscore.Metal>
0.0000

> <Gold.Chemscore.Hbonds>
donor molecule, donor type, donor heavy atom, donor atom, acceptor molecule, acceptor atom, score
      L1  H     3    19       P1  8028  1.00
      L1  H    11    23       P1  8028  0.93
      L1  C     9    22       P1  7948  1.00

> <Gold.PLP.Chemscore.Internal.Correction>
0.0193

> <Gold.Rescore>
     Score         DG    S(hbond)    S(metal)    S(lipo)     H(rot)  DE(clash)    DE(int)     intcor
     18.61     -20.14       1.87        0.00      93.78       1.00       0.23       1.29       ----

> <Gold.Chemscore.Fitness>
18.6139

> <Gold.Chemscore.DG>
-20.1367

> <Gold.Chemscore.ZeroCoef>
-5.4800

> <Gold.Chemscore.Hbond>
1.8695

> <Gold.Chemscore.Metal>
0.0000

> <Gold.Chemscore.Lipo>
93.7816

> <Gold.Chemscore.Internal_Hbond>
0.0000

> <Gold.Chemscore.DEClash>
0.2300

> <Gold.Chemscore.DEInternal>
1.2928

> <Gold.Chemscore.Rot>
1.0000

> <Gold.Chemscore.Internal.Correction>
   9.000000E+99

> <Gold.Chemscore.Hbonds>
donor molecule, donor type, donor heavy atom, donor atom, acceptor molecule, acceptor atom, score
      L1  H     3    19       P1  8028  0.98
      L1  H    11    23       P1  8028  0.85

> <Gold.Chemscore.Hbond.Weighted>
-6.2443

> <Gold.Chemscore.Metal.Weighted>
-0.0000

> <Gold.Chemscore.Lipo.Weighted>
-10.9725

> <Gold.Chemscore.Internal_Hbond.Weighted>
0.0000

> <Gold.Chemscore.DEClash.Weighted>
0.2300

> <Gold.Chemscore.DEInternal.Weighted>
1.2928

> <Gold.Chemscore.Rot.Weighted>
2.5600

> <Gold.Chemscore.Internal.Correction.Weighted>
   9.000000E+99

> <Gold.Protein.RotatedTorsions>
[ 6907 6896 6895 6894 ] final -114.57 input  -60.11 | X-H torsion
[ 7974 7965 7964 7962 ] final  152.83 input  175.53 | X-H torsion
[ 8008 7997 7996 7995 ] final  -39.65 input   59.86 | X-H torsion
[ 10167 10162 10161 10158 ] final   30.25 input  -65.29 | X-H torsion
[ 10718 10713 10712 10709 ] final   52.21 input   66.30 | X-H torsion
[ 10763 10752 10751 10750 ] final  128.46 input  -60.55 | X-H torsion
[ 11005 11000 10999 10996 ] final   24.54 input  -57.11 | X-H torsion

> <Gold.Protein.ActiveResidues>
 VAL166  LYS551  ARG553  GLY616  TRP617  ASP618  TYR619  PRO620  LYS621  CYS622 
 ASP623  PHE694  ASN695  SER759  ASP760  ASP761  ALA762  ILE779  LEU786  VAL792 
 PHE793  MET794  SER795  GLU796  ALA797  LYS798  CYS799  TRP800  GLU811  SER814 

> <Gold.Protein.RotatedAtoms>
  150.7912  133.8782  159.3278 H   0  0  0  0  0  0  0  0  0  0  0  0  # atno 6907 bound_to 6896
  151.6620  135.0986  160.0191 H   0  0  0  0  0  0  0  0  0  0  0  0  # atno 6908 bound_to 6896
  152.3986  133.6745  159.6333 H   0  0  0  0  0  0  0  0  0  0  0  0  # atno 6909 bound_to 6896
  144.8195  139.6720  143.6106 H   0  0  0  0  0  0  0  0  0  0  0  0  # atno 7974 bound_to 7965
  154.4020  140.1546  156.2898 H   0  0  0  0  0  0  0  0  0  0  0  0  # atno 8008 bound_to 7997
  155.8795  140.3444  155.5856 H   0  0  0  0  0  0  0  0  0  0  0  0  # atno 8009 bound_to 7997
  155.7683  140.0827  157.2111 H   0  0  0  0  0  0  0  0  0  0  0  0  # atno 8010 bound_to 7997
  140.4694  144.0785  150.6233 H   0  0  0  0  0  0  0  0  0  0  0  0  # atno 10167 bound_to 10162
  157.5054  130.8465  149.8368 H   0  0  0  0  0  0  0  0  0  0  0  0  # atno 10718 bound_to 10713
  153.7260  135.3246  155.3276 H   0  0  0  0  0  0  0  0  0  0  0  0  # atno 10763 bound_to 10752
  154.8341  135.4511  154.1170 H   0  0  0  0  0  0  0  0  0  0  0  0  # atno 10764 bound_to 10752
  153.2303  135.6959  153.7977 H   0  0  0  0  0  0  0  0  0  0  0  0  # atno 10765 bound_to 10752
  140.3576  134.2160  155.7674 H   0  0  0  0  0  0  0  0  0  0  0  0  # atno 11005 bound_to 11000
  146.2500  139.6180  142.9433 LP  0  0  0  0  0  0  0  0  0  0  0  0  # atno 17320 bound_to 7965
  145.5136  141.0434  143.2474 LP  0  0  0  0  0  0  0  0  0  0  0  0  # atno 17321 bound_to 7965
  140.3995  143.2711  151.9964 LP  0  0  0  0  0  0  0  0  0  0  0  0  # atno 17342 bound_to 10162
  139.4816  144.6009  151.7607 LP  0  0  0  0  0  0  0  0  0  0  0  0  # atno 17343 bound_to 10162
  156.0255  130.3781  150.1837 LP  0  0  0  0  0  0  0  0  0  0  0  0  # atno 17370 bound_to 10713
  157.0026  130.9927  151.3387 LP  0  0  0  0  0  0  0  0  0  0  0  0  # atno 17371 bound_to 10713
  141.1993  133.8013  157.0540 LP  0  0  0  0  0  0  0  0  0  0  0  0  # atno 17394 bound_to 11000
  140.0652  134.9733  157.1374 LP  0  0  0  0  0  0  0  0  0  0  0  0  # atno 17395 bound_to 11000

$$$$
