AV-unprocessed.smi:653|AV-procd|sdf|3207|dock5
  -GOLD-   22720 0143D 1   1.00000     0.00000
 Structure written by MMmdl.
 44 45  0  0  0  0  0  0  0  0  1 V2000
  153.6523  142.8967  163.6537 C   0  0  0  0  0  0  0  0  0  0  0  0
  153.0972  143.0433  162.2523 C   0  0  0  0  0  0  0  0  0  0  0  0
  153.3457  142.0615  161.2702 C   0  0  0  0  0  0  0  0  0  0  0  0
  152.8049  142.2479  159.9835 C   0  0  0  0  0  0  0  0  0  0  0  0
  152.0394  143.4046  159.7284 C   0  0  0  0  0  0  0  0  0  0  0  0
  151.4426  143.6568  158.3552 C   0  0  0  0  0  0  0  0  0  0  0  0
  150.4086  142.5826  158.0151 C   0  0  0  0  0  0  0  0  0  0  0  0
  150.1018  141.7357  158.8539 O   0  0  0  0  0  0  0  0  0  0  0  0
  149.8783  142.6297  156.7830 N   0  0  0  0  0  0  0  0  0  0  0  0
  148.8891  141.6951  156.2585 C   0  0  0  0  0  0  0  0  0  0  0  0
  149.4736  140.7908  155.1555 C   0  0  1  0  0  0  0  0  0  0  0  0
  150.5227  139.8090  155.6409 C   0  0  0  0  0  0  0  0  0  0  0  0
  150.5408  138.7931  154.5050 C   0  0  0  0  0  0  0  0  0  0  0  0
  149.1981  138.7227  154.0378 O   0  0  0  0  0  0  0  0  0  0  0  0
  148.4497  139.8380  154.5202 C   0  0  2  0  0  0  0  0  0  0  0  0
  147.5593  140.4391  153.4087 C   0  0  0  0  0  0  0  0  0  0  0  0
  146.8605  141.7168  153.8998 C   0  0  0  0  0  0  0  0  0  0  0  0
  146.5302  139.4436  152.8424 C   0  0  0  0  0  0  0  0  0  0  0  0
  151.8471  144.3232  160.7823 C   0  0  0  0  0  0  0  0  0  0  0  0
  152.3624  144.1532  162.0185 N   0  0  0  0  0  0  0  0  0  0  0  0
  154.4353  142.1388  163.6893 H   0  0  0  0  0  0  0  0  0  0  0  0
  152.8604  142.6037  164.3434 H   0  0  0  0  0  0  0  0  0  0  0  0
  154.0787  143.8391  163.9993 H   0  0  0  0  0  0  0  0  0  0  0  0
  153.9375  141.1861  161.4941 H   0  0  0  0  0  0  0  0  0  0  0  0
  152.9789  141.5182  159.2061 H   0  0  0  0  0  0  0  0  0  0  0  0
  150.9756  144.6425  158.3342 H   0  0  0  0  0  0  0  0  0  0  0  0
  152.2281  143.6634  157.5984 H   0  0  0  0  0  0  0  0  0  0  0  0
  150.1907  143.3606  156.1600 H   0  0  0  0  0  0  0  0  0  0  0  0
  148.5253  141.0896  157.0892 H   0  0  0  0  0  0  0  0  0  0  0  0
  148.0265  142.2463  155.8807 H   0  0  0  0  0  0  0  0  0  0  0  0
  149.9311  141.4105  154.3850 H   0  0  0  0  0  0  0  0  0  0  0  0
  151.4964  140.2687  155.8124 H   0  0  0  0  0  0  0  0  0  0  0  0
  150.2009  139.3301  156.5667 H   0  0  0  0  0  0  0  0  0  0  0  0
  151.1731  139.1467  153.6898 H   0  0  0  0  0  0  0  0  0  0  0  0
  150.9076  137.8162  154.8208 H   0  0  0  0  0  0  0  0  0  0  0  0
  147.8107  139.4538  155.3174 H   0  0  0  0  0  0  0  0  0  0  0  0
  148.2125  140.7354  152.5871 H   0  0  0  0  0  0  0  0  0  0  0  0
  146.1802  141.5044  154.7252 H   0  0  0  0  0  0  0  0  0  0  0  0
  146.2799  142.1796  153.1012 H   0  0  0  0  0  0  0  0  0  0  0  0
  147.5845  142.4545  154.2468 H   0  0  0  0  0  0  0  0  0  0  0  0
  145.8600  139.0773  153.6207 H   0  0  0  0  0  0  0  0  0  0  0  0
  147.0070  138.5811  152.3786 H   0  0  0  0  0  0  0  0  0  0  0  0
  145.9151  139.9155  152.0759 H   0  0  0  0  0  0  0  0  0  0  0  0
  151.2690  145.2227  160.6287 H   0  0  0  0  0  0  0  0  0  0  0  0
  1  2  1  0  0  0  0
  1 21  1  0  0  0  0
  1 22  1  0  0  0  0
  1 23  1  0  0  0  0
  2 20  1  0  0  0  0
  2  3  2  0  0  0  0
  3  4  1  0  0  0  0
  3 24  1  0  0  0  0
  4  5  2  0  0  0  0
  4 25  1  0  0  0  0
  5  6  1  0  0  0  0
  5 19  1  0  0  0  0
  6  7  1  0  0  0  0
  6 26  1  0  0  0  0
  6 27  1  0  0  0  0
  7  8  2  0  0  0  0
  7  9  1  0  0  0  0
  9 10  1  0  0  0  0
  9 28  1  0  0  0  0
 10 11  1  0  0  0  0
 10 29  1  0  0  0  0
 10 30  1  0  0  0  0
 11 15  1  0  0  0  0
 11 12  1  0  0  0  0
 11 31  1  0  0  0  0
 12 13  1  0  0  0  0
 12 32  1  0  0  0  0
 12 33  1  0  0  0  0
 13 14  1  0  0  0  0
 13 34  1  0  0  0  0
 13 35  1  0  0  0  0
 14 15  1  0  0  0  0
 15 16  1  0  0  0  0
 15 36  1  0  0  0  0
 16 17  1  0  0  0  0
 16 18  1  0  0  0  0
 16 37  1  0  0  0  0
 17 38  1  0  0  0  0
 17 39  1  0  0  0  0
 17 40  1  0  0  0  0
 18 41  1  0  0  0  0
 18 42  1  0  0  0  0
 18 43  1  0  0  0  0
 19 20  2  0  0  0  0
 19 44  1  0  0  0  0
M  END
> <s_m_source_file>
AV-unprocessed.smi

> <i_m_source_file_index>
653

> <i_lp_mmshare_version>
43012

> <i_f3d_flags>
0

> <s_epik_input>
W0NIM11jMVtjSF1bY0hdYyhbY0hdbjEpW0NIMl1DKD1PKVtOSF1bQ0gyXVtDQEBIXTJbQ0gyXVtDSDJdT1tDQEhdMltDSF0oW0NIM10pW0NIM10=

> <s_epik_cmdline>
J2VwaWtfcHl0aG9uJywgJy1waCcsICc3LjAnLCAnLXRuJywgJzgnLCAnLW1hJywgJzIwMCcsICctbWV0YWxfYmluZGluZycsICctaW1hZScsICc8aW5maWxlLm1hZT4nLCAnLW9tYWUnLCAnPG91dGZpbGUubWFlPic=

> <r_epik_Ionization_Penalty>
0.0166429

> <r_epik_Ionization_Penalty_Charging>
0

> <r_epik_Ionization_Penalty_Neutral>
0.0166429

> <r_epik_State_Penalty>
0.0131478

> <r_epik_Charging_Adjusted_Penalty>
0.0131478

> <i_epik_Tot_Q>
0

> <i_epik_Tot_abs_Q>
0

> <r_epik_Metal_State_Penalty>
0.012786

> <b_epik_Metal_Only>
0

> <s_lp_Force_Field>
OPLS_2005

> <r_lp_Energy>
17.7281

> <b_lp_Chiralities_Consistent>
1

> <s_lp_Variant>
AV-unprocessed.smi:653-4

> <Gold.Version>
5.8.1

> <Gold.Id.Protein>
6NUR|6NUR_protein|mol2

> <Gold.PLP.Fitness>
48.3771

> <Gold.PLP.PLP>
-47.3867

> <Gold.PLP.part.hbond>
-1.5813

> <Gold.PLP.part.metal>
0.0000

> <Gold.PLP.part.buried>
-2.6420

> <Gold.PLP.part.nonpolar>
-44.4071

> <Gold.PLP.part.repulsive>
1.3010

> <Gold.PLP.ligand.clash>
0.0000

> <Gold.PLP.ligand.torsion>
0.1191

> <Gold.PLP.Chemscore.Hbond>
0.4000

> <Gold.PLP.Chemscore.CHOScore>
0.0000

> <Gold.PLP.Chemscore.Metal>
0.0000

> <Gold.Chemscore.Hbonds>
donor molecule, donor type, donor heavy atom, donor atom, acceptor molecule, acceptor atom, score
      L1  H     9    28       P1  8028  0.35

> <Gold.PLP.Chemscore.Internal.Correction>
0.0286

> <Gold.Rescore>
     Score         DG    S(hbond)    S(metal)    S(lipo)     H(rot)  DE(clash)    DE(int)     intcor
     17.72     -19.03       0.56        0.00     132.33       1.48       0.15       1.16       ----

> <Gold.Chemscore.Fitness>
17.7206

> <Gold.Chemscore.DG>
-19.0270

> <Gold.Chemscore.ZeroCoef>
-5.4800

> <Gold.Chemscore.Hbond>
0.5586

> <Gold.Chemscore.Metal>
0.0000

> <Gold.Chemscore.Lipo>
132.3311

> <Gold.Chemscore.Internal_Hbond>
0.0000

> <Gold.Chemscore.DEClash>
0.1505

> <Gold.Chemscore.DEInternal>
1.1559

> <Gold.Chemscore.Rot>
1.4850

> <Gold.Chemscore.Internal.Correction>
   9.000000E+99

> <Gold.Chemscore.Hbonds>
donor molecule, donor type, donor heavy atom, donor atom, acceptor molecule, acceptor atom, score
      L1  H     9    28       P1  8028  0.36

> <Gold.Chemscore.Hbond.Weighted>
-1.8658

> <Gold.Chemscore.Metal.Weighted>
-0.0000

> <Gold.Chemscore.Lipo.Weighted>
-15.4827

> <Gold.Chemscore.Internal_Hbond.Weighted>
0.0000

> <Gold.Chemscore.DEClash.Weighted>
0.1505

> <Gold.Chemscore.DEInternal.Weighted>
1.1559

> <Gold.Chemscore.Rot.Weighted>
3.8015

> <Gold.Chemscore.Internal.Correction.Weighted>
   9.000000E+99

> <Gold.Protein.RotatedTorsions>
[ 6907 6896 6895 6894 ] final -106.05 input  -60.11 | X-H torsion
[ 7974 7965 7964 7962 ] final   76.32 input  175.53 | X-H torsion
[ 8008 7997 7996 7995 ] final  -12.72 input   59.86 | X-H torsion
[ 10167 10162 10161 10158 ] final -179.30 input  -65.29 | X-H torsion
[ 10718 10713 10712 10709 ] final  -25.83 input   66.30 | X-H torsion
[ 10763 10752 10751 10750 ] final    0.89 input  -60.55 | X-H torsion
[ 11005 11000 10999 10996 ] final  -58.67 input  -57.11 | X-H torsion

> <Gold.Protein.ActiveResidues>
 VAL166  LYS551  ARG553  GLY616  TRP617  ASP618  TYR619  PRO620  LYS621  CYS622 
 ASP623  PHE694  ASN695  SER759  ASP760  ASP761  ALA762  ILE779  LEU786  VAL792 
 PHE793  MET794  SER795  GLU796  ALA797  LYS798  CYS799  TRP800  GLU811  SER814 

> <Gold.Protein.RotatedAtoms>
  150.7368  134.0035  159.3645 H   0  0  0  0  0  0  0  0  0  0  0  0  # atno 6907 bound_to 6896
  151.7990  135.0712  160.0407 H   0  0  0  0  0  0  0  0  0  0  0  0  # atno 6908 bound_to 6896
  152.3154  133.5760  159.5745 H   0  0  0  0  0  0  0  0  0  0  0  0  # atno 6909 bound_to 6896
  145.7043  139.2593  143.1687 H   0  0  0  0  0  0  0  0  0  0  0  0  # atno 7974 bound_to 7965
  154.5353  140.2268  155.8734 H   0  0  0  0  0  0  0  0  0  0  0  0  # atno 8008 bound_to 7997
  156.1805  140.3101  155.9102 H   0  0  0  0  0  0  0  0  0  0  0  0  # atno 8009 bound_to 7997
  155.3368  140.0448  157.3034 H   0  0  0  0  0  0  0  0  0  0  0  0  # atno 8010 bound_to 7997
  139.5392  144.2410  152.0860 H   0  0  0  0  0  0  0  0  0  0  0  0  # atno 10167 bound_to 10162
  156.4591  130.4500  149.6940 H   0  0  0  0  0  0  0  0  0  0  0  0  # atno 10718 bound_to 10713
  153.3149  135.6965  153.7082 H   0  0  0  0  0  0  0  0  0  0  0  0  # atno 10763 bound_to 10752
  153.5945  135.3473  155.2924 H   0  0  0  0  0  0  0  0  0  0  0  0  # atno 10764 bound_to 10752
  154.8584  135.4326  154.2297 H   0  0  0  0  0  0  0  0  0  0  0  0  # atno 10765 bound_to 10752
  141.1217  133.6613  156.4955 H   0  0  0  0  0  0  0  0  0  0  0  0  # atno 11005 bound_to 11000
  146.0769  140.7807  142.9660 LP  0  0  0  0  0  0  0  0  0  0  0  0  # atno 17320 bound_to 7965
  144.6959  140.3429  143.7196 LP  0  0  0  0  0  0  0  0  0  0  0  0  # atno 17321 bound_to 7965
  140.1886  144.4774  150.6491 LP  0  0  0  0  0  0  0  0  0  0  0  0  # atno 17342 bound_to 10162
  140.6614  143.2253  151.5846 LP  0  0  0  0  0  0  0  0  0  0  0  0  # atno 17343 bound_to 10162
  156.3735  130.7542  151.2528 LP  0  0  0  0  0  0  0  0  0  0  0  0  # atno 17370 bound_to 10713
  157.7499  131.0316  150.4190 LP  0  0  0  0  0  0  0  0  0  0  0  0  # atno 17371 bound_to 10713
  140.4488  134.6948  157.5029 LP  0  0  0  0  0  0  0  0  0  0  0  0  # atno 17394 bound_to 11000
  140.0180  134.6590  155.9282 LP  0  0  0  0  0  0  0  0  0  0  0  0  # atno 17395 bound_to 11000

$$$$
