AV-unprocessed.smi:2040|AV-procd|sdf|8286|dock4
  -GOLD-   2272010553D 1   1.00000     0.00000
 Structure written by MMmdl.
 38 39  0  0  0  0  0  0  0  0  1 V2000
  147.2063  140.1253  153.2489 C   0  0  0  0  0  0  0  0  0  0  0  0
  148.3734  140.4853  154.1199 C   0  0  0  0  0  0  0  0  0  0  0  0
  148.5953  141.7003  154.8310 C   0  0  0  0  0  0  0  0  0  0  0  0
  149.7977  141.4754  155.4440 C   0  0  0  0  0  0  0  0  0  0  0  0
  150.5055  142.2957  156.2653 N   0  0  0  0  0  0  0  0  0  0  0  0
  150.3753  142.4722  157.5917 C   0  0  0  0  0  0  0  0  0  0  0  0
  149.5415  141.9162  158.3064 O   0  0  0  0  0  0  0  0  0  0  0  0
  151.2813  143.3475  158.0516 N   0  0  0  0  0  0  0  0  0  0  0  0
  151.4354  143.7658  159.4438 C   0  0  2  0  0  0  0  0  0  0  0  0
  151.3799  145.2989  159.5230 C   0  0  0  0  0  0  0  0  0  0  0  0
  152.7496  143.2019  160.0175 C   0  0  2  0  0  0  0  0  0  0  0  0
  152.9483  141.7002  159.7937 C   0  0  0  0  0  0  0  0  0  0  0  0
  153.8717  141.3373  160.9331 C   0  0  0  0  0  0  0  0  0  0  0  0
  153.3200  142.2027  162.0605 C   0  0  0  0  0  0  0  0  0  0  0  0
  152.7914  143.3687  161.4339 O   0  0  0  0  0  0  0  0  0  0  0  0
  150.2377  140.2137  155.1107 N   0  0  0  0  0  0  0  0  0  0  0  0
  151.4493  139.5253  155.5116 C   0  0  0  0  0  0  0  0  0  0  0  0
  149.3543  139.6058  154.2896 N   0  0  0  0  0  0  0  0  0  0  0  0
  146.4469  140.9073  153.2651 H   0  0  0  0  0  0  0  0  0  0  0  0
  146.7359  139.2002  153.5831 H   0  0  0  0  0  0  0  0  0  0  0  0
  147.5180  139.9873  152.2134 H   0  0  0  0  0  0  0  0  0  0  0  0
  147.9644  142.5754  154.8713 H   0  0  0  0  0  0  0  0  0  0  0  0
  151.2260  142.8391  155.8133 H   0  0  0  0  0  0  0  0  0  0  0  0
  151.9235  143.7543  157.3875 H   0  0  0  0  0  0  0  0  0  0  0  0
  150.6157  143.3669  160.0441 H   0  0  0  0  0  0  0  0  0  0  0  0
  151.4633  145.6433  160.5540 H   0  0  0  0  0  0  0  0  0  0  0  0
  150.4371  145.6785  159.1274 H   0  0  0  0  0  0  0  0  0  0  0  0
  152.1892  145.7563  158.9531 H   0  0  0  0  0  0  0  0  0  0  0  0
  153.6038  143.7366  159.5983 H   0  0  0  0  0  0  0  0  0  0  0  0
  152.0020  141.1667  159.8978 H   0  0  0  0  0  0  0  0  0  0  0  0
  153.3663  141.4663  158.8141 H   0  0  0  0  0  0  0  0  0  0  0  0
  153.8670  140.2730  161.1699 H   0  0  0  0  0  0  0  0  0  0  0  0
  154.8946  141.6327  160.6960 H   0  0  0  0  0  0  0  0  0  0  0  0
  152.5064  141.6870  162.5720 H   0  0  0  0  0  0  0  0  0  0  0  0
  154.0791  142.4561  162.8010 H   0  0  0  0  0  0  0  0  0  0  0  0
  152.3179  140.0614  155.1290 H   0  0  0  0  0  0  0  0  0  0  0  0
  151.4610  138.5074  155.1198 H   0  0  0  0  0  0  0  0  0  0  0  0
  151.5050  139.4851  156.5996 H   0  0  0  0  0  0  0  0  0  0  0  0
  1  2  1  0  0  0  0
  1 19  1  0  0  0  0
  1 20  1  0  0  0  0
  1 21  1  0  0  0  0
  2 18  2  0  0  0  0
  2  3  1  0  0  0  0
  3  4  2  0  0  0  0
  3 22  1  0  0  0  0
  4  5  1  0  0  0  0
  4 16  1  0  0  0  0
  5  6  1  0  0  0  0
  5 23  1  0  0  0  0
  6  7  2  0  0  0  0
  6  8  1  0  0  0  0
  8  9  1  0  0  0  0
  8 24  1  0  0  0  0
  9 10  1  0  0  0  0
  9 11  1  0  0  0  0
  9 25  1  0  0  0  0
 10 26  1  0  0  0  0
 10 27  1  0  0  0  0
 10 28  1  0  0  0  0
 11 15  1  0  0  0  0
 11 12  1  0  0  0  0
 11 29  1  0  0  0  0
 12 13  1  0  0  0  0
 12 30  1  0  0  0  0
 12 31  1  0  0  0  0
 13 14  1  0  0  0  0
 13 32  1  0  0  0  0
 13 33  1  0  0  0  0
 14 15  1  0  0  0  0
 14 34  1  0  0  0  0
 14 35  1  0  0  0  0
 16 17  1  0  0  0  0
 16 18  1  0  0  0  0
 17 36  1  0  0  0  0
 17 37  1  0  0  0  0
 17 38  1  0  0  0  0
M  END
> <s_m_source_file>
AV-unprocessed.smi

> <i_m_source_file_index>
2040

> <i_lp_mmshare_version>
43012

> <i_f3d_flags>
0

> <s_epik_input>
W0NIM11jMVtjSF1jKG4objEpW0NIM10pW05IXUMoPU8pW05IXVtDQEhdKFtDSDNdKVtDQEBIXTJbQ0gyXVtDSDJdW0NIMl1PMg==

> <s_epik_cmdline>
J2VwaWtfcHl0aG9uJywgJy1waCcsICc3LjAnLCAnLXRuJywgJzgnLCAnLW1hJywgJzIwMCcsICctbWV0YWxfYmluZGluZycsICctaW1hZScsICc8aW5maWxlLm1hZT4nLCAnLW9tYWUnLCAnPG91dGZpbGUubWFlPic=

> <r_lp_tautomer_probability>
1

> <r_epik_Ionization_Penalty>
9.09088e-05

> <r_epik_Ionization_Penalty_Charging>
0

> <r_epik_Ionization_Penalty_Neutral>
9.09088e-05

> <r_epik_State_Penalty>
-0

> <r_epik_Charging_Adjusted_Penalty>
0

> <i_epik_Tot_Q>
0

> <i_epik_Tot_abs_Q>
0

> <r_epik_Metal_State_Penalty>
-0

> <b_epik_Metal_Only>
0

> <s_lp_Force_Field>
OPLS_2005

> <r_lp_Energy>
18.8843

> <b_lp_Chiralities_Consistent>
1

> <s_lp_Variant>
AV-unprocessed.smi:2040-1

> <Gold.Version>
5.8.1

> <Gold.Id.Protein>
6NUR|6NUR_protein|mol2

> <Gold.PLP.Fitness>
39.6674

> <Gold.PLP.PLP>
-41.4610

> <Gold.PLP.part.hbond>
-1.0000

> <Gold.PLP.part.metal>
0.0000

> <Gold.PLP.part.buried>
-2.5062

> <Gold.PLP.part.nonpolar>
-37.8957

> <Gold.PLP.part.repulsive>
0.5464

> <Gold.PLP.ligand.clash>
0.0000

> <Gold.PLP.ligand.torsion>
0.9028

> <Gold.PLP.Chemscore.Hbond>
0.0000

> <Gold.PLP.Chemscore.CHOScore>
0.0000

> <Gold.PLP.Chemscore.Metal>
0.0000

> <Gold.PLP.Chemscore.Internal.Correction>
0.0119

> <Gold.Rescore>
     Score         DG    S(hbond)    S(metal)    S(lipo)     H(rot)  DE(clash)    DE(int)     intcor
     12.40     -13.38       0.00        0.00      94.55       1.23       0.12       0.86       ----

> <Gold.Chemscore.Fitness>
12.3953

> <Gold.Chemscore.DG>
-13.3841

> <Gold.Chemscore.ZeroCoef>
-5.4800

> <Gold.Chemscore.Hbond>
0.0000

> <Gold.Chemscore.Metal>
0.0000

> <Gold.Chemscore.Lipo>
94.5514

> <Gold.Chemscore.Internal_Hbond>
0.0000

> <Gold.Chemscore.DEClash>
0.1242

> <Gold.Chemscore.DEInternal>
0.8645

> <Gold.Chemscore.Rot>
1.2338

> <Gold.Chemscore.Internal.Correction>
   9.000000E+99

> <Gold.Chemscore.Hbond.Weighted>
-0.0000

> <Gold.Chemscore.Metal.Weighted>
-0.0000

> <Gold.Chemscore.Lipo.Weighted>
-11.0625

> <Gold.Chemscore.Internal_Hbond.Weighted>
0.0000

> <Gold.Chemscore.DEClash.Weighted>
0.1242

> <Gold.Chemscore.DEInternal.Weighted>
0.8645

> <Gold.Chemscore.Rot.Weighted>
3.1584

> <Gold.Chemscore.Internal.Correction.Weighted>
   9.000000E+99

> <Gold.Protein.RotatedTorsions>
[ 6907 6896 6895 6894 ] final  112.24 input  -60.11 | X-H torsion
[ 7974 7965 7964 7962 ] final    8.06 input  175.53 | X-H torsion
[ 8008 7997 7996 7995 ] final   21.25 input   59.86 | X-H torsion
[ 10167 10162 10161 10158 ] final -121.09 input  -65.29 | X-H torsion
[ 10718 10713 10712 10709 ] final  -23.35 input   66.30 | X-H torsion
[ 10763 10752 10751 10750 ] final  178.40 input  -60.55 | X-H torsion
[ 11005 11000 10999 10996 ] final  179.06 input  -57.11 | X-H torsion

> <Gold.Protein.ActiveResidues>
 VAL166  LYS551  ARG553  GLY616  TRP617  ASP618  TYR619  PRO620  LYS621  CYS622 
 ASP623  PHE694  ASN695  SER759  ASP760  ASP761  ALA762  ILE779  LEU786  VAL792 
 PHE793  MET794  SER795  GLU796  ALA797  LYS798  CYS799  TRP800  GLU811  SER814 

> <Gold.Protein.RotatedAtoms>
  152.4927  133.8545  159.7218 H   0  0  0  0  0  0  0  0  0  0  0  0  # atno 6907 bound_to 6896
  150.9073  133.7033  159.2870 H   0  0  0  0  0  0  0  0  0  0  0  0  # atno 6908 bound_to 6896
  151.4454  135.1028  159.9735 H   0  0  0  0  0  0  0  0  0  0  0  0  # atno 6909 bound_to 6896
  146.2420  139.9989  142.8418 H   0  0  0  0  0  0  0  0  0  0  0  0  # atno 7974 bound_to 7965
  154.9478  140.3061  155.5089 H   0  0  0  0  0  0  0  0  0  0  0  0  # atno 8008 bound_to 7997
  156.2990  140.2324  156.4491 H   0  0  0  0  0  0  0  0  0  0  0  0  # atno 8009 bound_to 7997
  154.8083  140.0430  157.1312 H   0  0  0  0  0  0  0  0  0  0  0  0  # atno 8010 bound_to 7997
  140.0287  143.5270  152.2186 H   0  0  0  0  0  0  0  0  0  0  0  0  # atno 10167 bound_to 10162
  156.4923  130.4569  149.6748 H   0  0  0  0  0  0  0  0  0  0  0  0  # atno 10718 bound_to 10713
  154.5072  135.2786  155.1372 H   0  0  0  0  0  0  0  0  0  0  0  0  # atno 10763 bound_to 10752
  154.2982  135.6253  153.5417 H   0  0  0  0  0  0  0  0  0  0  0  0  # atno 10764 bound_to 10752
  152.9912  135.5690  154.5529 H   0  0  0  0  0  0  0  0  0  0  0  0  # atno 10765 bound_to 10752
  140.4020  134.6769  157.4567 H   0  0  0  0  0  0  0  0  0  0  0  0  # atno 11005 bound_to 11000
  145.1433  140.9583  143.4475 LP  0  0  0  0  0  0  0  0  0  0  0  0  # atno 17320 bound_to 7965
  145.0274  139.3370  143.6041 LP  0  0  0  0  0  0  0  0  0  0  0  0  # atno 17321 bound_to 7965
  139.6090  144.7604  151.2995 LP  0  0  0  0  0  0  0  0  0  0  0  0  # atno 17342 bound_to 10162
  140.7311  143.6861  150.7961 LP  0  0  0  0  0  0  0  0  0  0  0  0  # atno 17343 bound_to 10162
  156.3414  130.7384  151.2330 LP  0  0  0  0  0  0  0  0  0  0  0  0  # atno 17370 bound_to 10713
  157.7472  131.0402  150.4588 LP  0  0  0  0  0  0  0  0  0  0  0  0  # atno 17371 bound_to 10713
  140.0330  134.6379  155.9081 LP  0  0  0  0  0  0  0  0  0  0  0  0  # atno 17394 bound_to 11000
  141.1853  133.6555  156.5193 LP  0  0  0  0  0  0  0  0  0  0  0  0  # atno 17395 bound_to 11000

$$$$
