AV-unprocessed.smi:2634|AV-procd|sdf|10254|dock9
  -GOLD-   2272014263D 1   1.00000     0.00000
 Structure written by MMmdl.
 27 28  0  0  0  0  0  0  0  0  2 V2000
  150.9275  142.7198  156.5944 N   0  0  0  0  0  0  0  0  0  0  0  0
  151.5268  142.5447  157.8432 C   0  0  0  0  0  0  0  0  0  0  0  0
  152.2567  141.4759  158.2428 N   0  3  0  0  0  0  0  0  0  0  0  0
  152.5274  140.3763  157.4607 N   0  0  0  0  0  0  0  0  0  0  0  0
  152.7000  141.6292  159.5541 C   0  0  0  0  0  0  0  0  0  0  0  0
  153.4648  140.8171  160.3869 C   0  0  0  0  0  0  0  0  0  0  0  0
  153.7204  141.3085  161.6834 C   0  0  0  0  0  0  0  0  0  0  0  0
  153.2236  142.5582  162.1086 C   0  0  0  0  0  0  0  0  0  0  0  0
  152.4489  143.3741  161.2574 C   0  0  0  0  0  0  0  0  0  0  0  0
  152.1977  142.8880  159.9745 C   0  0  0  0  0  0  0  0  0  0  0  0
  151.4785  143.4200  158.8842 N   0  0  0  0  0  0  0  0  0  0  0  0
  150.8263  144.7288  159.0135 C   0  0  0  0  0  0  0  0  0  0  0  0
  149.7595  144.7283  160.1170 C   0  0  0  0  0  0  0  0  0  0  0  0
  148.7187  145.6140  159.7689 O   0  0  0  0  0  0  0  0  0  0  0  0
  151.0103  142.0247  155.8662 H   0  0  0  0  0  0  0  0  0  0  0  0
  151.9672  140.4573  156.6240 H   0  0  0  0  0  0  0  0  0  0  0  0
  152.2068  139.5617  157.9650 H   0  0  0  0  0  0  0  0  0  0  0  0
  153.8460  139.8594  160.0637 H   0  0  0  0  0  0  0  0  0  0  0  0
  154.3098  140.7143  162.3668 H   0  0  0  0  0  0  0  0  0  0  0  0
  153.4412  142.8986  163.1107 H   0  0  0  0  0  0  0  0  0  0  0  0
  152.0739  144.3283  161.5975 H   0  0  0  0  0  0  0  0  0  0  0  0
  151.5905  145.4843  159.2003 H   0  0  0  0  0  0  0  0  0  0  0  0
  150.3760  144.9730  158.0507 H   0  0  0  0  0  0  0  0  0  0  0  0
  149.3455  143.7285  160.2521 H   0  0  0  0  0  0  0  0  0  0  0  0
  150.1847  145.0389  161.0718 H   0  0  0  0  0  0  0  0  0  0  0  0
  148.7192  145.7279  158.8304 H   0  0  0  0  0  0  0  0  0  0  0  0
  150.4015  143.5531  156.3725 H   0  0  0  0  0  0  0  0  0  0  0  0
  1  2  1  0  0  0  0
  1 15  1  0  0  0  0
  1 27  1  0  0  0  0
  2 11  1  0  0  0  0
  2  3  2  0  0  0  0
  3  4  1  0  0  0  0
  3  5  1  0  0  0  0
  4 16  1  0  0  0  0
  4 17  1  0  0  0  0
  5 10  2  0  0  0  0
  5  6  1  0  0  0  0
  6  7  2  0  0  0  0
  6 18  1  0  0  0  0
  7  8  1  0  0  0  0
  7 19  1  0  0  0  0
  8  9  2  0  0  0  0
  8 20  1  0  0  0  0
  9 10  1  0  0  0  0
  9 21  1  0  0  0  0
 10 11  1  0  0  0  0
 11 12  1  0  0  0  0
 12 13  1  0  0  0  0
 12 22  1  0  0  0  0
 12 23  1  0  0  0  0
 13 14  1  0  0  0  0
 13 24  1  0  0  0  0
 13 25  1  0  0  0  0
 14 26  1  0  0  0  0
M  CHG  1   3   1
M  END
> <s_m_source_file>
AV-unprocessed.smi

> <i_m_source_file_index>
2634

> <i_lp_mmshare_version>
43012

> <i_f3d_flags>
0

> <s_epik_input>
W05IMl1uMS9jKD1OXFtIXSluKFtDSDJdW0NIMl1bT0hdKWMoYzEyKVtjSF1bY0hdW2NIXVtjSF0y

> <s_epik_cmdline>
J2VwaWtfcHl0aG9uJywgJy1waCcsICc3LjAnLCAnLXRuJywgJzgnLCAnLW1hJywgJzIwMCcsICctbWV0YWxfYmluZGluZycsICctaW1hZScsICc8aW5maWxlLm1hZT4nLCAnLW9tYWUnLCAnPG91dGZpbGUubWFlPic=

> <r_lp_tautomer_probability>
1

> <r_epik_Ionization_Penalty>
1.24644e-06

> <r_epik_Ionization_Penalty_Charging>
0

> <r_epik_Ionization_Penalty_Neutral>
1.24644e-06

> <r_epik_State_Penalty>
-0

> <r_epik_Charging_Adjusted_Penalty>
0

> <i_epik_Tot_Q>
1

> <i_epik_Tot_abs_Q>
1

> <r_epik_Metal_State_Penalty>
-0

> <b_epik_Metal_Only>
0

> <s_lp_Force_Field>
OPLS_2005

> <r_lp_Energy>
25.9386

> <b_lp_Chiralities_Consistent>
1

> <s_lp_Variant>
AV-unprocessed.smi:2634-1

> <Gold.Version>
5.8.1

> <Gold.Id.Protein>
6NUR|6NUR_protein|mol2

> <Gold.PLP.Fitness>
48.0957

> <Gold.PLP.PLP>
-36.7533

> <Gold.PLP.part.hbond>
-4.0000

> <Gold.PLP.part.metal>
0.0000

> <Gold.PLP.part.buried>
-4.0993

> <Gold.PLP.part.nonpolar>
-28.0581

> <Gold.PLP.part.repulsive>
0.0698

> <Gold.PLP.ligand.clash>
0.0000

> <Gold.PLP.ligand.torsion>
0.2095

> <Gold.PLP.Chemscore.Hbond>
3.9204

> <Gold.PLP.Chemscore.CHOScore>
0.0000

> <Gold.PLP.Chemscore.Metal>
0.0000

> <Gold.Chemscore.Hbonds>
donor molecule, donor type, donor heavy atom, donor atom, acceptor molecule, acceptor atom, score
      L1  H     1    27       P1  8028  1.98
      L1  H    14    26       P1  8029  1.00
      P1  H  7997  8009       L1     4  0.93

> <Gold.PLP.Chemscore.Internal.Correction>
0.0001

> <Gold.Rescore>
     Score         DG    S(hbond)    S(metal)    S(lipo)     H(rot)  DE(clash)    DE(int)     intcor
     17.45     -17.67       2.41        0.00      78.27       1.96       0.01       0.21       ----

> <Gold.Chemscore.Fitness>
17.4475

> <Gold.Chemscore.DG>
-17.6708

> <Gold.Chemscore.ZeroCoef>
-5.4800

> <Gold.Chemscore.Hbond>
2.4136

> <Gold.Chemscore.Metal>
0.0000

> <Gold.Chemscore.Lipo>
78.2724

> <Gold.Chemscore.Internal_Hbond>
0.0000

> <Gold.Chemscore.DEClash>
0.0126

> <Gold.Chemscore.DEInternal>
0.2106

> <Gold.Chemscore.Rot>
1.9643

> <Gold.Chemscore.Internal.Correction>
   9.000000E+99

> <Gold.Chemscore.Hbonds>
donor molecule, donor type, donor heavy atom, donor atom, acceptor molecule, acceptor atom, score
      L1  H     1    27       P1  8028  0.92
      L1  H    14    26       P1  8029  0.96
      P1  H  7997  8009       L1     4  0.24

> <Gold.Chemscore.Hbond.Weighted>
-8.0614

> <Gold.Chemscore.Metal.Weighted>
-0.0000

> <Gold.Chemscore.Lipo.Weighted>
-9.1579

> <Gold.Chemscore.Internal_Hbond.Weighted>
0.0000

> <Gold.Chemscore.DEClash.Weighted>
0.0126

> <Gold.Chemscore.DEInternal.Weighted>
0.2106

> <Gold.Chemscore.Rot.Weighted>
5.0285

> <Gold.Chemscore.Internal.Correction.Weighted>
   9.000000E+99

> <Gold.Protein.RotatedTorsions>
[ 6907 6896 6895 6894 ] final   10.98 input  -60.11 | X-H torsion
[ 7974 7965 7964 7962 ] final  165.03 input  175.53 | X-H torsion
[ 8008 7997 7996 7995 ] final  177.95 input   59.86 | X-H torsion
[ 10167 10162 10161 10158 ] final  169.39 input  -65.29 | X-H torsion
[ 10718 10713 10712 10709 ] final   65.22 input   66.30 | X-H torsion
[ 10763 10752 10751 10750 ] final -172.21 input  -60.55 | X-H torsion
[ 11005 11000 10999 10996 ] final  108.23 input  -57.11 | X-H torsion

> <Gold.Protein.ActiveResidues>
 VAL166  LYS551  ARG553  GLY616  TRP617  ASP618  TYR619  PRO620  LYS621  CYS622 
 ASP623  PHE694  ASN695  SER759  ASP760  ASP761  ALA762  ILE779  LEU786  VAL792 
 PHE793  MET794  SER795  GLU796  ALA797  LYS798  CYS799  TRP800  GLU811  SER814 

> <Gold.Protein.RotatedAtoms>
  151.7469  135.0841  160.0324 H   0  0  0  0  0  0  0  0  0  0  0  0  # atno 6907 bound_to 6896
  152.3442  133.6098  159.5907 H   0  0  0  0  0  0  0  0  0  0  0  0  # atno 6908 bound_to 6896
  150.7498  133.9591  159.3551 H   0  0  0  0  0  0  0  0  0  0  0  0  # atno 6909 bound_to 6896
  144.7520  139.8411  143.6363 H   0  0  0  0  0  0  0  0  0  0  0  0  # atno 7974 bound_to 7965
  156.0600  140.1345  156.9952 H   0  0  0  0  0  0  0  0  0  0  0  0  # atno 8008 bound_to 7997
  154.4477  140.0993  156.6574 H   0  0  0  0  0  0  0  0  0  0  0  0  # atno 8009 bound_to 7997
  155.5391  140.3460  155.4445 H   0  0  0  0  0  0  0  0  0  0  0  0  # atno 8010 bound_to 7997
  139.4991  144.3711  151.9724 H   0  0  0  0  0  0  0  0  0  0  0  0  # atno 10167 bound_to 10162
  157.6091  130.9202  149.9948 H   0  0  0  0  0  0  0  0  0  0  0  0  # atno 10718 bound_to 10713
  154.6219  135.2876  155.0316 H   0  0  0  0  0  0  0  0  0  0  0  0  # atno 10763 bound_to 10752
  154.1508  135.6503  153.4967 H   0  0  0  0  0  0  0  0  0  0  0  0  # atno 10764 bound_to 10752
  153.0240  135.5355  154.7012 H   0  0  0  0  0  0  0  0  0  0  0  0  # atno 10765 bound_to 10752
  139.8840  134.9424  156.5940 H   0  0  0  0  0  0  0  0  0  0  0  0  # atno 11005 bound_to 11000
  146.1482  139.4558  143.0065 LP  0  0  0  0  0  0  0  0  0  0  0  0  # atno 17320 bound_to 7965
  145.6911  141.0164  143.1555 LP  0  0  0  0  0  0  0  0  0  0  0  0  # atno 17321 bound_to 7965
  140.3147  144.3498  150.6025 LP  0  0  0  0  0  0  0  0  0  0  0  0  # atno 17342 bound_to 10162
  140.5771  143.2175  151.7496 LP  0  0  0  0  0  0  0  0  0  0  0  0  # atno 17343 bound_to 10162
  156.1187  130.3647  149.9923 LP  0  0  0  0  0  0  0  0  0  0  0  0  # atno 17370 bound_to 10713
  156.8008  130.9290  151.3646 LP  0  0  0  0  0  0  0  0  0  0  0  0  # atno 17371 bound_to 10713
  140.7934  133.8564  155.8665 LP  0  0  0  0  0  0  0  0  0  0  0  0  # atno 17394 bound_to 11000
  140.9657  134.1597  157.4618 LP  0  0  0  0  0  0  0  0  0  0  0  0  # atno 17395 bound_to 11000

$$$$
