AV-unprocessed.smi:2032|AV-procd|sdf|8252|dock10
  -GOLD-   2272010523D 1   1.00000     0.00000
 Structure written by MMmdl.
 42 43  0  0  0  0  0  0  0  0  3 V2000
  148.5050  141.7049  154.4217 C   0  0  0  0  0  0  0  0  0  0  0  0
  148.9903  140.2916  154.7618 C   0  0  1  0  0  0  0  0  0  0  0  0
  148.5542  139.2602  153.6992 C   0  0  0  0  0  0  0  0  0  0  0  0
  149.0890  137.9054  154.0091 N   0  3  2  0  0  0  0  0  0  0  0  0
  148.4227  137.1881  155.1506 C   0  0  2  0  0  0  0  0  0  0  0  0
  149.3185  136.0607  155.7196 C   0  0  0  0  0  0  0  0  0  0  0  0
  147.0376  136.6085  154.7469 C   0  0  0  0  0  0  0  0  0  0  0  0
  147.1024  135.7470  153.5699 N   0  0  0  0  0  0  0  0  0  0  0  0
  146.1527  134.8832  153.1828 C   0  0  0  0  0  0  0  0  0  0  0  0
  145.1087  134.7870  153.8326 O   0  0  0  0  0  0  0  0  0  0  0  0
  146.4756  134.1802  152.0747 N   0  5  0  0  0  0  0  0  0  0  0  0
  145.5146  133.5619  151.3692 C   0  0  0  0  0  0  0  0  0  0  0  0
  145.7751  132.6987  150.3809 N   0  0  0  0  0  0  0  0  0  0  0  0
  144.6267  132.1715  149.7874 C   0  0  0  0  0  0  0  0  0  0  0  0
  143.4647  132.6381  150.3425 C   0  0  0  0  0  0  0  0  0  0  0  0
  143.7801  133.7595  151.6357 S   0  0  0  0  0  0  0  0  0  0  0  0
  150.5711  138.0149  154.0999 C   0  0  0  0  0  0  0  0  0  0  0  0
  150.9899  139.0592  155.1578 C   0  0  1  0  0  0  0  0  0  0  0  0
  152.5111  139.2367  155.2181 C   0  0  0  0  0  0  0  0  0  0  0  0
  150.4140  140.3180  154.8195 O   0  0  0  0  0  0  0  0  0  0  0  0
  147.4165  141.7444  154.3721 H   0  0  0  0  0  0  0  0  0  0  0  0
  148.8965  142.0370  153.4597 H   0  0  0  0  0  0  0  0  0  0  0  0
  148.8281  142.4208  155.1779 H   0  0  0  0  0  0  0  0  0  0  0  0
  148.5925  140.0232  155.7413 H   0  0  0  0  0  0  0  0  0  0  0  0
  147.4764  139.2675  153.5596 H   0  0  0  0  0  0  0  0  0  0  0  0
  148.9551  139.5633  152.7306 H   0  0  0  0  0  0  0  0  0  0  0  0
  148.2621  137.9034  155.9561 H   0  0  0  0  0  0  0  0  0  0  0  0
  148.8066  135.4750  156.4825 H   0  0  0  0  0  0  0  0  0  0  0  0
  150.2091  136.4487  156.2121 H   0  0  0  0  0  0  0  0  0  0  0  0
  149.6328  135.3707  154.9361 H   0  0  0  0  0  0  0  0  0  0  0  0
  146.5887  136.0121  155.5389 H   0  0  0  0  0  0  0  0  0  0  0  0
  146.3405  137.4198  154.5363 H   0  0  0  0  0  0  0  0  0  0  0  0
  147.9390  135.7990  153.0070 H   0  0  0  0  0  0  0  0  0  0  0  0
  144.7298  131.4676  148.9751 H   0  0  0  0  0  0  0  0  0  0  0  0
  142.4490  132.3913  150.0734 H   0  0  0  0  0  0  0  0  0  0  0  0
  151.0508  137.0547  154.2771 H   0  0  0  0  0  0  0  0  0  0  0  0
  150.9440  138.3311  153.1245 H   0  0  0  0  0  0  0  0  0  0  0  0
  150.6435  138.7588  156.1474 H   0  0  0  0  0  0  0  0  0  0  0  0
  153.0042  138.3035  155.4915 H   0  0  0  0  0  0  0  0  0  0  0  0
  152.7869  139.9868  155.9598 H   0  0  0  0  0  0  0  0  0  0  0  0
  152.9110  139.5575  154.2557 H   0  0  0  0  0  0  0  0  0  0  0  0
  148.8995  137.3358  153.1970 H   0  0  0  0  0  0  0  0  0  0  0  0
  1  2  1  0  0  0  0
  1 21  1  0  0  0  0
  1 22  1  0  0  0  0
  1 23  1  0  0  0  0
  2 20  1  0  0  0  0
  2  3  1  0  0  0  0
  2 24  1  0  0  0  0
  3  4  1  0  0  0  0
  3 25  1  0  0  0  0
  3 26  1  0  0  0  0
  4  5  1  0  0  0  0
  4 17  1  0  0  0  0
  4 42  1  0  0  0  0
  5  6  1  0  0  0  0
  5  7  1  0  0  0  0
  5 27  1  0  0  0  0
  6 28  1  0  0  0  0
  6 29  1  0  0  0  0
  6 30  1  0  0  0  0
  7  8  1  0  0  0  0
  7 31  1  0  0  0  0
  7 32  1  0  0  0  0
  8  9  1  0  0  0  0
  8 33  1  0  0  0  0
  9 10  2  0  0  0  0
  9 11  1  0  0  0  0
 11 12  1  0  0  0  0
 12 16  1  0  0  0  0
 12 13  2  0  0  0  0
 13 14  1  0  0  0  0
 14 15  2  0  0  0  0
 14 34  1  0  0  0  0
 15 16  1  0  0  0  0
 15 35  1  0  0  0  0
 17 18  1  0  0  0  0
 17 36  1  0  0  0  0
 17 37  1  0  0  0  0
 18 19  1  0  0  0  0
 18 20  1  0  0  0  0
 18 38  1  0  0  0  0
 19 39  1  0  0  0  0
 19 40  1  0  0  0  0
 19 41  1  0  0  0  0
M  CHG  1   4   1
M  CHG  1  11  -1
M  END
> <s_m_source_file>
AV-unprocessed.smi

> <i_m_source_file_index>
2032

> <i_lp_mmshare_version>
43012

> <i_f3d_flags>
0

> <s_epik_input>
W0NIM11bQ0BASF0xW0NIMl1OKFtDSDJdW0NASF0oTzEpW0NIM10pW0NASF0oW0NIM10pW0NIMl1bTkhdQyg9TylbTkhdYzJuW2NIXVtjSF1zMg==

> <s_epik_cmdline>
J2VwaWtfcHl0aG9uJywgJy1waCcsICc3LjAnLCAnLXRuJywgJzgnLCAnLW1hJywgJzIwMCcsICctbWV0YWxfYmluZGluZycsICctaW1hZScsICc8aW5maWxlLm1hZT4nLCAnLW9tYWUnLCAnPG91dGZpbGUubWFlPic=

> <r_lp_tautomer_probability>
0.999

> <r_epik_Ionization_Penalty>
6.71699

> <r_epik_Ionization_Penalty_Charging>
5.88592

> <r_epik_Ionization_Penalty_Neutral>
0.831074

> <r_epik_State_Penalty>
6.08365

> <r_epik_Charging_Adjusted_Penalty>
11.9696

> <i_epik_Tot_Q>
0

> <i_epik_Tot_abs_Q>
2

> <r_epik_Metal_State_Penalty>
2.0947

> <b_epik_Metal_Only>
1

> <s_lp_Force_Field>
OPLS_2005

> <r_lp_Energy>
10.9101

> <b_lp_Chiralities_Consistent>
1

> <s_lp_Variant>
AV-unprocessed.smi:2032-22

> <Gold.Version>
5.8.1

> <Gold.Id.Protein>
6NUR|6NUR_protein|mol2

> <Gold.PLP.Fitness>
46.7914

> <Gold.PLP.PLP>
-32.2427

> <Gold.PLP.part.hbond>
-3.0000

> <Gold.PLP.part.metal>
0.0000

> <Gold.PLP.part.buried>
-1.9417

> <Gold.PLP.part.nonpolar>
-28.1746

> <Gold.PLP.part.repulsive>
0.4492

> <Gold.PLP.ligand.clash>
0.0000

> <Gold.PLP.ligand.torsion>
0.6784

> <Gold.PLP.Chemscore.Hbond>
4.0000

> <Gold.PLP.Chemscore.CHOScore>
1.2782

> <Gold.PLP.Chemscore.Metal>
0.0000

> <Gold.Chemscore.Hbonds>
donor molecule, donor type, donor heavy atom, donor atom, acceptor molecule, acceptor atom, score
      L1  H     4    42       P1  7948  2.00
      L1  H     8    33       P1  7948  1.00
      P1  H  7989  7998       L1    20  1.00
      L1  C    15    35       P1 10186  0.68
      L1  C    15    35       P1 10952  0.70

> <Gold.PLP.Chemscore.Internal.Correction>
0.0708

> <Gold.Rescore>
     Score         DG    S(hbond)    S(metal)    S(lipo)     H(rot)  DE(clash)    DE(int)     intcor
     17.15     -19.43       2.77        0.00      74.53       1.58       0.10       2.18       ----

> <Gold.Chemscore.Fitness>
17.1505

> <Gold.Chemscore.DG>
-19.4257

> <Gold.Chemscore.ZeroCoef>
-5.4800

> <Gold.Chemscore.Hbond>
2.7748

> <Gold.Chemscore.Metal>
0.0000

> <Gold.Chemscore.Lipo>
74.5318

> <Gold.Chemscore.Internal_Hbond>
0.0000

> <Gold.Chemscore.DEClash>
0.0993

> <Gold.Chemscore.DEInternal>
2.1759

> <Gold.Chemscore.Rot>
1.5791

> <Gold.Chemscore.Internal.Correction>
   9.000000E+99

> <Gold.Chemscore.Hbonds>
donor molecule, donor type, donor heavy atom, donor atom, acceptor molecule, acceptor atom, score
      L1  H     4    42       P1  7948  1.00
      L1  H     8    33       P1  7948  0.98
      P1  H  7989  7998       L1    20  0.25

> <Gold.Chemscore.Hbond.Weighted>
-9.2680

> <Gold.Chemscore.Metal.Weighted>
-0.0000

> <Gold.Chemscore.Lipo.Weighted>
-8.7202

> <Gold.Chemscore.Internal_Hbond.Weighted>
0.0000

> <Gold.Chemscore.DEClash.Weighted>
0.0993

> <Gold.Chemscore.DEInternal.Weighted>
2.1759

> <Gold.Chemscore.Rot.Weighted>
4.0425

> <Gold.Chemscore.Internal.Correction.Weighted>
   9.000000E+99

> <Gold.Protein.RotatedTorsions>
[ 6907 6896 6895 6894 ] final   84.51 input  -60.11 | X-H torsion
[ 7974 7965 7964 7962 ] final   45.13 input  175.53 | X-H torsion
[ 8008 7997 7996 7995 ] final  -77.11 input   59.86 | X-H torsion
[ 10167 10162 10161 10158 ] final   28.21 input  -65.29 | X-H torsion
[ 10718 10713 10712 10709 ] final   45.35 input   66.30 | X-H torsion
[ 10763 10752 10751 10750 ] final   82.94 input  -60.55 | X-H torsion
[ 11005 11000 10999 10996 ] final  110.35 input  -57.11 | X-H torsion

> <Gold.Protein.ActiveResidues>
 VAL166  LYS551  ARG553  GLY616  TRP617  ASP618  TYR619  PRO620  LYS621  CYS622 
 ASP623  PHE694  ASN695  SER759  ASP760  ASP761  ALA762  ILE779  LEU786  VAL792 
 PHE793  MET794  SER795  GLU796  ALA797  LYS798  CYS799  TRP800  GLU811  SER814 

> <Gold.Protein.RotatedAtoms>
  152.5354  134.2730  159.8978 H   0  0  0  0  0  0  0  0  0  0  0  0  # atno 6907 bound_to 6896
  151.2686  133.4259  159.2627 H   0  0  0  0  0  0  0  0  0  0  0  0  # atno 6908 bound_to 6896
  151.0388  134.9607  159.8207 H   0  0  0  0  0  0  0  0  0  0  0  0  # atno 6909 bound_to 6896
  146.0507  139.4998  142.9720 H   0  0  0  0  0  0  0  0  0  0  0  0  # atno 7974 bound_to 7965
  154.5566  140.0716  156.8753 H   0  0  0  0  0  0  0  0  0  0  0  0  # atno 8008 bound_to 7997
  155.2891  140.3377  155.4235 H   0  0  0  0  0  0  0  0  0  0  0  0  # atno 8009 bound_to 7997
  156.2007  140.1720  156.7891 H   0  0  0  0  0  0  0  0  0  0  0  0  # atno 8010 bound_to 7997
  140.4872  144.0524  150.6284 H   0  0  0  0  0  0  0  0  0  0  0  0  # atno 10167 bound_to 10162
  157.4366  130.8056  149.7653 H   0  0  0  0  0  0  0  0  0  0  0  0  # atno 10718 bound_to 10713
  153.1247  135.4709  154.9252 H   0  0  0  0  0  0  0  0  0  0  0  0  # atno 10763 bound_to 10752
  154.7609  135.3131  154.8383 H   0  0  0  0  0  0  0  0  0  0  0  0  # atno 10764 bound_to 10752
  153.8939  135.6882  153.4813 H   0  0  0  0  0  0  0  0  0  0  0  0  # atno 10765 bound_to 10752
  139.8880  134.9481  156.6265 H   0  0  0  0  0  0  0  0  0  0  0  0  # atno 11005 bound_to 11000
  145.6728  141.0212  143.1648 LP  0  0  0  0  0  0  0  0  0  0  0  0  # atno 17320 bound_to 7965
  144.7121  139.8331  143.7411 LP  0  0  0  0  0  0  0  0  0  0  0  0  # atno 17321 bound_to 7965
  140.3782  143.2817  152.0200 LP  0  0  0  0  0  0  0  0  0  0  0  0  # atno 17342 bound_to 10162
  139.4844  144.6175  151.7317 LP  0  0  0  0  0  0  0  0  0  0  0  0  # atno 17343 bound_to 10162
  155.9932  130.3925  150.2908 LP  0  0  0  0  0  0  0  0  0  0  0  0  # atno 17370 bound_to 10713
  157.1069  131.0211  151.3063 LP  0  0  0  0  0  0  0  0  0  0  0  0  # atno 17371 bound_to 10713
  140.7699  133.8747  155.8484 LP  0  0  0  0  0  0  0  0  0  0  0  0  # atno 17394 bound_to 11000
  140.9850  134.1354  157.4460 LP  0  0  0  0  0  0  0  0  0  0  0  0  # atno 17395 bound_to 11000

$$$$
