AV-unprocessed.smi:2875|AV-procd|sdf|11040|dock3
  -GOLD-   2272015503D 1   1.00000     0.00000
 Structure written by MMmdl.
 40 40  0  0  0  0  0  0  0  0  1 V2000
  144.5552  134.6106  150.6436 C   0  0  0  0  0  0  0  0  0  0  0  0
  145.0240  135.3571  151.8964 C   0  0  0  0  0  0  0  0  0  0  0  0
  145.0642  136.8800  151.6871 C   0  0  0  0  0  0  0  0  0  0  0  0
  145.4980  137.5953  152.8711 N   0  0  0  0  0  0  0  0  0  0  0  0
  146.6207  138.4278  152.9044 C   0  0  0  0  0  0  0  0  0  0  0  0
  147.3501  138.5824  151.7344 N   0  0  0  0  0  0  0  0  0  0  0  0
  147.0035  139.0727  154.0474 C   0  0  0  0  0  0  0  0  0  0  0  0
  148.1118  139.9416  154.0688 N   0  0  0  0  0  0  0  0  0  0  0  0
  149.4488  139.3254  154.0813 C   0  0  0  0  0  0  0  0  0  0  0  0
  150.2888  139.7846  155.2842 C   0  0  0  0  0  0  0  0  0  0  0  0
  151.6617  139.7683  154.9319 O   0  0  0  0  0  0  0  0  0  0  0  0
  152.1328  138.4646  154.6417 C   0  0  0  0  0  0  0  0  0  0  0  0
  147.9683  141.2909  154.1421 C   0  0  0  0  0  0  0  0  0  0  0  0
  146.5645  141.8954  154.2654 C   0  0  0  0  0  0  0  0  0  0  0  0
  148.9298  142.0601  154.1396 O   0  0  0  0  0  0  0  0  0  0  0  0
  146.2139  138.9375  155.2802 C   0  0  0  0  0  0  0  0  0  0  0  0
  146.4606  139.4817  156.3559 O   0  0  0  0  0  0  0  0  0  0  0  0
  145.0930  138.1186  155.1717 N   0  0  0  0  0  0  0  0  0  0  0  0
  144.6900  137.4460  154.0238 C   0  0  0  0  0  0  0  0  0  0  0  0
  143.6653  136.7636  154.0530 O   0  0  0  0  0  0  0  0  0  0  0  0
  144.5195  138.0100  155.9954 H   0  0  0  0  0  0  0  0  0  0  0  0
  144.5415  133.5342  150.8148 H   0  0  0  0  0  0  0  0  0  0  0  0
  145.2171  134.8054  149.7994 H   0  0  0  0  0  0  0  0  0  0  0  0
  143.5480  134.9156  150.3583 H   0  0  0  0  0  0  0  0  0  0  0  0
  144.3593  135.1164  152.7269 H   0  0  0  0  0  0  0  0  0  0  0  0
  146.0132  134.9954  152.1788 H   0  0  0  0  0  0  0  0  0  0  0  0
  145.7159  137.1633  150.8587 H   0  0  0  0  0  0  0  0  0  0  0  0
  144.0844  137.2740  151.4186 H   0  0  0  0  0  0  0  0  0  0  0  0
  147.0884  138.1133  150.8788 H   0  0  0  0  0  0  0  0  0  0  0  0
  148.2108  139.1103  151.7100 H   0  0  0  0  0  0  0  0  0  0  0  0
  149.3542  138.2382  154.0923 H   0  0  0  0  0  0  0  0  0  0  0  0
  149.9894  139.5592  153.1631 H   0  0  0  0  0  0  0  0  0  0  0  0
  149.9869  140.7802  155.6125 H   0  0  0  0  0  0  0  0  0  0  0  0
  150.1259  139.1056  156.1221 H   0  0  0  0  0  0  0  0  0  0  0  0
  153.1898  138.5072  154.3797 H   0  0  0  0  0  0  0  0  0  0  0  0
  151.5931  138.0290  153.7999 H   0  0  0  0  0  0  0  0  0  0  0  0
  152.0273  137.8066  155.5054 H   0  0  0  0  0  0  0  0  0  0  0  0
  146.0231  141.8106  153.3234 H   0  0  0  0  0  0  0  0  0  0  0  0
  146.6256  142.9546  154.5179 H   0  0  0  0  0  0  0  0  0  0  0  0
  145.9881  141.4026  155.0490 H   0  0  0  0  0  0  0  0  0  0  0  0
  1  2  1  0  0  0  0
  1 22  1  0  0  0  0
  1 23  1  0  0  0  0
  1 24  1  0  0  0  0
  2  3  1  0  0  0  0
  2 25  1  0  0  0  0
  2 26  1  0  0  0  0
  3  4  1  0  0  0  0
  3 27  1  0  0  0  0
  3 28  1  0  0  0  0
  4 19  1  0  0  0  0
  4  5  1  0  0  0  0
  5  6  1  0  0  0  0
  5  7  2  0  0  0  0
  6 29  1  0  0  0  0
  6 30  1  0  0  0  0
  7  8  1  0  0  0  0
  7 16  1  0  0  0  0
  8  9  1  0  0  0  0
  8 13  1  0  0  0  0
  9 10  1  0  0  0  0
  9 31  1  0  0  0  0
  9 32  1  0  0  0  0
 10 11  1  0  0  0  0
 10 33  1  0  0  0  0
 10 34  1  0  0  0  0
 11 12  1  0  0  0  0
 12 35  1  0  0  0  0
 12 36  1  0  0  0  0
 12 37  1  0  0  0  0
 13 14  1  0  0  0  0
 13 15  2  0  0  0  0
 14 38  1  0  0  0  0
 14 39  1  0  0  0  0
 14 40  1  0  0  0  0
 16 17  2  0  0  0  0
 16 18  1  0  0  0  0
 18 21  1  0  0  0  0
 18 19  1  0  0  0  0
 19 20  2  0  0  0  0
M  END
> <s_m_source_file>
AV-unprocessed.smi

> <i_m_source_file_index>
2875

> <i_lp_mmshare_version>
43012

> <i_f3d_flags>
0

> <s_epik_input>
W0NIM11bQ0gyXVtDSDJdbjFjKFtOSDJdKWMoYyg9TylbbkhdYzE9TylOKEMoPU8pW0NIM10pW0NIMl1bQ0gyXU9bQ0gzXQ==

> <s_epik_cmdline>
J2VwaWtfcHl0aG9uJywgJy1waCcsICc3LjAnLCAnLXRuJywgJzgnLCAnLW1hJywgJzIwMCcsICctbWV0YWxfYmluZGluZycsICctaW1hZScsICc8aW5maWxlLm1hZT4nLCAnLW9tYWUnLCAnPG91dGZpbGUubWFlPic=

> <r_lp_tautomer_probability>
1

> <r_epik_Ionization_Penalty>
1.36284e-05

> <r_epik_Ionization_Penalty_Charging>
6.32507e-06

> <r_epik_Ionization_Penalty_Neutral>
7.30329e-06

> <r_epik_State_Penalty>
-0

> <r_epik_Charging_Adjusted_Penalty>
6.32507e-06

> <i_epik_Tot_Q>
0

> <i_epik_Tot_abs_Q>
0

> <r_epik_Metal_State_Penalty>
0.00594323

> <b_epik_Metal_Only>
0

> <s_epik_Chemistry_Notes>
This compound has an imine and may undergo hydrolysis.

> <s_lp_Force_Field>
OPLS_2005

> <r_lp_Energy>
24.7155

> <b_lp_Chiralities_Consistent>
1

> <s_lp_Variant>
AV-unprocessed.smi:2875-1

> <Gold.Version>
5.8.1

> <Gold.Id.Protein>
6NUR|6NUR_protein|mol2

> <Gold.PLP.Fitness>
36.9391

> <Gold.PLP.PLP>
-30.5392

> <Gold.PLP.part.hbond>
-4.0000

> <Gold.PLP.part.metal>
0.0000

> <Gold.PLP.part.buried>
-2.3343

> <Gold.PLP.part.nonpolar>
-26.6327

> <Gold.PLP.part.repulsive>
1.8090

> <Gold.PLP.ligand.clash>
0.0000

> <Gold.PLP.ligand.torsion>
1.6003

> <Gold.PLP.Chemscore.Hbond>
2.3680

> <Gold.PLP.Chemscore.CHOScore>
0.0000

> <Gold.PLP.Chemscore.Metal>
0.0000

> <Gold.Chemscore.Hbonds>
donor molecule, donor type, donor heavy atom, donor atom, acceptor molecule, acceptor atom, score
      L1  H     6    30       P1  7957  1.00
      P1  H  7989  7998       L1    11  1.00
      P1  H  8011  8017       L1    15  0.37

> <Gold.PLP.Chemscore.Internal.Correction>
2.4966

> <Gold.Rescore>
     Score         DG    S(hbond)    S(metal)    S(lipo)     H(rot)  DE(clash)    DE(int)     intcor
      6.14     -10.85       1.53        0.00      47.66       2.08       1.10       3.61       ----

> <Gold.Chemscore.Fitness>
6.1406

> <Gold.Chemscore.DG>
-10.8468

> <Gold.Chemscore.ZeroCoef>
-5.4800

> <Gold.Chemscore.Hbond>
1.5286

> <Gold.Chemscore.Metal>
0.0000

> <Gold.Chemscore.Lipo>
47.6628

> <Gold.Chemscore.Internal_Hbond>
0.0000

> <Gold.Chemscore.DEClash>
1.0975

> <Gold.Chemscore.DEInternal>
3.6087

> <Gold.Chemscore.Rot>
2.0763

> <Gold.Chemscore.Internal.Correction>
   9.000000E+99

> <Gold.Chemscore.Hbonds>
donor molecule, donor type, donor heavy atom, donor atom, acceptor molecule, acceptor atom, score
      L1  H     6    30       P1  7957  0.94
      P1  H  7989  7998       L1    11  0.25
      P1  H  8011  8017       L1    15  0.34

> <Gold.Chemscore.Hbond.Weighted>
-5.1055

> <Gold.Chemscore.Metal.Weighted>
-0.0000

> <Gold.Chemscore.Lipo.Weighted>
-5.5766

> <Gold.Chemscore.Internal_Hbond.Weighted>
0.0000

> <Gold.Chemscore.DEClash.Weighted>
1.0975

> <Gold.Chemscore.DEInternal.Weighted>
3.6087

> <Gold.Chemscore.Rot.Weighted>
5.3153

> <Gold.Chemscore.Internal.Correction.Weighted>
   9.000000E+99

> <Gold.Protein.RotatedTorsions>
[ 6907 6896 6895 6894 ] final  -34.16 input  -60.11 | X-H torsion
[ 7974 7965 7964 7962 ] final   97.91 input  175.53 | X-H torsion
[ 8008 7997 7996 7995 ] final   78.66 input   59.86 | X-H torsion
[ 10167 10162 10161 10158 ] final  166.75 input  -65.29 | X-H torsion
[ 10718 10713 10712 10709 ] final -134.79 input   66.30 | X-H torsion
[ 10763 10752 10751 10750 ] final  -94.49 input  -60.55 | X-H torsion
[ 11005 11000 10999 10996 ] final   60.88 input  -57.11 | X-H torsion

> <Gold.Protein.ActiveResidues>
 VAL166  LYS551  ARG553  GLY616  TRP617  ASP618  TYR619  PRO620  LYS621  CYS622 
 ASP623  PHE694  ASN695  SER759  ASP760  ASP761  ALA762  ILE779  LEU786  VAL792 
 PHE793  MET794  SER795  GLU796  ALA797  LYS798  CYS799  TRP800  GLU811  SER814 

> <Gold.Protein.RotatedAtoms>
  151.0562  134.9706  159.8236 H   0  0  0  0  0  0  0  0  0  0  0  0  # atno 6907 bound_to 6896
  152.5388  134.2475  159.8896 H   0  0  0  0  0  0  0  0  0  0  0  0  # atno 6908 bound_to 6896
  151.2493  133.4315  159.2644 H   0  0  0  0  0  0  0  0  0  0  0  0  # atno 6909 bound_to 6896
  145.4192  139.2323  143.3205 H   0  0  0  0  0  0  0  0  0  0  0  0  # atno 7974 bound_to 7965
  155.8588  140.3454  155.5742 H   0  0  0  0  0  0  0  0  0  0  0  0  # atno 8008 bound_to 7997
  155.7956  140.0878  157.2004 H   0  0  0  0  0  0  0  0  0  0  0  0  # atno 8009 bound_to 7997
  154.4011  140.1475  156.3201 H   0  0  0  0  0  0  0  0  0  0  0  0  # atno 8010 bound_to 7997
  139.4931  144.3994  151.9426 H   0  0  0  0  0  0  0  0  0  0  0  0  # atno 10167 bound_to 10162
  156.2592  130.7199  151.1127 H   0  0  0  0  0  0  0  0  0  0  0  0  # atno 10718 bound_to 10713
  154.7059  135.5156  153.8595 H   0  0  0  0  0  0  0  0  0  0  0  0  # atno 10763 bound_to 10752
  153.0741  135.6611  154.0192 H   0  0  0  0  0  0  0  0  0  0  0  0  # atno 10764 bound_to 10752
  154.0043  135.3008  155.3379 H   0  0  0  0  0  0  0  0  0  0  0  0  # atno 10765 bound_to 10752
  140.0200  134.6167  155.9653 H   0  0  0  0  0  0  0  0  0  0  0  0  # atno 11005 bound_to 11000
  146.2665  140.4915  142.8832 LP  0  0  0  0  0  0  0  0  0  0  0  0  # atno 17320 bound_to 7965
  144.8256  140.6623  143.6324 LP  0  0  0  0  0  0  0  0  0  0  0  0  # atno 17321 bound_to 7965
  140.3433  144.3177  150.5963 LP  0  0  0  0  0  0  0  0  0  0  0  0  # atno 17342 bound_to 10162
  140.5547  143.2201  151.7867 LP  0  0  0  0  0  0  0  0  0  0  0  0  # atno 17343 bound_to 10162
  157.7244  131.0660  150.5997 LP  0  0  0  0  0  0  0  0  0  0  0  0  # atno 17370 bound_to 10713
  156.6083  130.4373  149.5869 LP  0  0  0  0  0  0  0  0  0  0  0  0  # atno 17371 bound_to 10713
  141.1768  133.6541  156.4859 LP  0  0  0  0  0  0  0  0  0  0  0  0  # atno 17394 bound_to 11000
  140.4403  134.7021  157.4988 LP  0  0  0  0  0  0  0  0  0  0  0  0  # atno 17395 bound_to 11000

$$$$
