AV-unprocessed.smi:3027|AV-procd|sdf|11516|dock2
  -GOLD-   2272016453D 1   1.00000     0.00000
 Structure written by MMmdl.
 37 38  0  0  0  0  0  0  0  0  2 V2000
  150.6132  135.8172  155.4317 C   0  0  0  0  0  0  0  0  0  0  0  0
  150.8721  137.2918  155.3190 C   0  0  0  0  0  0  0  0  0  0  0  0
  150.8422  138.0986  154.1459 C   0  0  0  0  0  0  0  0  0  0  0  0
  151.1138  139.3703  154.3900 N   0  0  0  0  0  0  0  0  0  0  0  0
  151.3289  139.4192  155.7219 N   0  0  0  0  0  0  0  0  0  0  0  0
  151.6456  140.6857  156.3556 C   0  0  0  0  0  0  0  0  0  0  0  0
  150.4909  141.7048  156.2631 C   0  0  1  0  0  0  0  0  0  0  0  0
  149.3423  141.3123  157.2017 C   0  0  0  0  0  0  0  0  0  0  0  0
  150.9548  143.0710  156.6001 N   0  3  0  0  0  0  0  0  0  0  0  0
  151.0982  143.3568  158.0447 C   0  0  0  0  0  0  0  0  0  0  0  0
  151.6380  144.7623  158.3032 C   0  0  0  0  0  0  0  0  0  0  0  0
  152.1761  144.7031  159.7358 C   0  0  0  0  0  0  0  0  0  0  0  0
  152.5479  143.2333  159.9912 C   0  0  0  0  0  0  0  0  0  0  0  0
  152.1229  142.4556  158.7390 C   0  0  0  0  0  0  0  0  0  0  0  0
  151.1919  138.1788  156.3074 C   0  0  0  0  0  0  0  0  0  0  0  0
  150.4275  135.3621  154.4587 H   0  0  0  0  0  0  0  0  0  0  0  0
  149.7436  135.6084  156.0551 H   0  0  0  0  0  0  0  0  0  0  0  0
  151.4606  135.2932  155.8743 H   0  0  0  0  0  0  0  0  0  0  0  0
  150.6303  137.7993  153.1300 H   0  0  0  0  0  0  0  0  0  0  0  0
  151.8810  140.4830  157.4014 H   0  0  0  0  0  0  0  0  0  0  0  0
  152.5549  141.0910  155.9083 H   0  0  0  0  0  0  0  0  0  0  0  0
  150.0934  141.6952  155.2470 H   0  0  0  0  0  0  0  0  0  0  0  0
  148.9570  140.3216  156.9580 H   0  0  0  0  0  0  0  0  0  0  0  0
  148.5120  142.0148  157.1206 H   0  0  0  0  0  0  0  0  0  0  0  0
  149.6659  141.2962  158.2430 H   0  0  0  0  0  0  0  0  0  0  0  0
  151.8534  143.2238  156.1654 H   0  0  0  0  0  0  0  0  0  0  0  0
  150.1337  143.2605  158.5446 H   0  0  0  0  0  0  0  0  0  0  0  0
  152.4578  144.9823  157.6174 H   0  0  0  0  0  0  0  0  0  0  0  0
  150.8788  145.5343  158.1731 H   0  0  0  0  0  0  0  0  0  0  0  0
  153.0248  145.3734  159.8757 H   0  0  0  0  0  0  0  0  0  0  0  0
  151.3987  145.0109  160.4365 H   0  0  0  0  0  0  0  0  0  0  0  0
  153.6146  143.1136  160.1834 H   0  0  0  0  0  0  0  0  0  0  0  0
  152.0162  142.8634  160.8688 H   0  0  0  0  0  0  0  0  0  0  0  0
  151.7226  141.4706  158.9804 H   0  0  0  0  0  0  0  0  0  0  0  0
  152.9908  142.3099  158.0937 H   0  0  0  0  0  0  0  0  0  0  0  0
  151.3273  138.0319  157.3691 H   0  0  0  0  0  0  0  0  0  0  0  0
  150.2942  143.7262  156.2062 H   0  0  0  0  0  0  0  0  0  0  0  0
  1  2  1  0  0  0  0
  1 16  1  0  0  0  0
  1 17  1  0  0  0  0
  1 18  1  0  0  0  0
  2 15  2  0  0  0  0
  2  3  1  0  0  0  0
  3  4  2  0  0  0  0
  3 19  1  0  0  0  0
  4  5  1  0  0  0  0
  5  6  1  0  0  0  0
  5 15  1  0  0  0  0
  6  7  1  0  0  0  0
  6 20  1  0  0  0  0
  6 21  1  0  0  0  0
  7  8  1  0  0  0  0
  7  9  1  0  0  0  0
  7 22  1  0  0  0  0
  8 23  1  0  0  0  0
  8 24  1  0  0  0  0
  8 25  1  0  0  0  0
  9 10  1  0  0  0  0
  9 26  1  0  0  0  0
  9 37  1  0  0  0  0
 10 14  1  0  0  0  0
 10 11  1  0  0  0  0
 10 27  1  0  0  0  0
 11 12  1  0  0  0  0
 11 28  1  0  0  0  0
 11 29  1  0  0  0  0
 12 13  1  0  0  0  0
 12 30  1  0  0  0  0
 12 31  1  0  0  0  0
 13 14  1  0  0  0  0
 13 32  1  0  0  0  0
 13 33  1  0  0  0  0
 14 34  1  0  0  0  0
 14 35  1  0  0  0  0
 15 36  1  0  0  0  0
M  CHG  1   9   1
M  END
> <s_m_source_file>
AV-unprocessed.smi

> <i_m_source_file_index>
3027

> <i_lp_mmshare_version>
43012

> <i_f3d_flags>
0

> <s_epik_input>
W0NIM11jMVtjSF1ubihbY0hdMSlbQ0gyXVtDQEhdKFtDSDNdKVtOSF1bQ0hdMltDSDJdW0NIMl1bQ0gyXVtDSDJdMg==

> <s_epik_cmdline>
J2VwaWtfcHl0aG9uJywgJy1waCcsICc3LjAnLCAnLXRuJywgJzgnLCAnLW1hJywgJzIwMCcsICctbWV0YWxfYmluZGluZycsICctaW1hZScsICc8aW5maWxlLm1hZT4nLCAnLW9tYWUnLCAnPG91dGZpbGUubWFlPic=

> <r_lp_tautomer_probability>
1

> <r_epik_Ionization_Penalty>
0.00150056

> <r_epik_Ionization_Penalty_Charging>
0.00149132

> <r_epik_Ionization_Penalty_Neutral>
9.24096e-06

> <r_epik_State_Penalty>
0.00099871

> <r_epik_Charging_Adjusted_Penalty>
0.00249003

> <i_epik_Tot_Q>
1

> <i_epik_Tot_abs_Q>
1

> <r_epik_Metal_State_Penalty>
-0

> <b_epik_Metal_Only>
0

> <s_lp_Force_Field>
OPLS_2005

> <r_lp_Energy>
25.7776

> <b_lp_Chiralities_Consistent>
1

> <s_lp_Variant>
AV-unprocessed.smi:3027-2

> <Gold.Version>
5.8.1

> <Gold.Id.Protein>
6NUR|6NUR_protein|mol2

> <Gold.PLP.Fitness>
47.3341

> <Gold.PLP.PLP>
-35.4147

> <Gold.PLP.part.hbond>
-2.0000

> <Gold.PLP.part.metal>
0.0000

> <Gold.PLP.part.buried>
-5.2230

> <Gold.PLP.part.nonpolar>
-28.5918

> <Gold.PLP.part.repulsive>
0.1967

> <Gold.PLP.ligand.clash>
0.0000

> <Gold.PLP.ligand.torsion>
0.2697

> <Gold.PLP.Chemscore.Hbond>
3.0000

> <Gold.PLP.Chemscore.CHOScore>
1.1421

> <Gold.PLP.Chemscore.Metal>
0.0000

> <Gold.Chemscore.Hbonds>
donor molecule, donor type, donor heavy atom, donor atom, acceptor molecule, acceptor atom, score
      L1  H     9    37       P1  8028  2.00
      P1  H  7989  7998       L1     4  1.00
      L1  C     3    19       P1  7948  0.46
      L1  C     3    19       P1  7949  0.65

> <Gold.PLP.Chemscore.Internal.Correction>
0.0323

> <Gold.Rescore>
     Score         DG    S(hbond)    S(metal)    S(lipo)     H(rot)  DE(clash)    DE(int)     intcor
     19.94     -20.38       1.97        0.00     101.71       1.40       0.07       0.38       ----

> <Gold.Chemscore.Fitness>
19.9391

> <Gold.Chemscore.DG>
-20.3826

> <Gold.Chemscore.ZeroCoef>
-5.4800

> <Gold.Chemscore.Hbond>
1.9713

> <Gold.Chemscore.Metal>
0.0000

> <Gold.Chemscore.Lipo>
101.7118

> <Gold.Chemscore.Internal_Hbond>
0.0000

> <Gold.Chemscore.DEClash>
0.0652

> <Gold.Chemscore.DEInternal>
0.3783

> <Gold.Chemscore.Rot>
1.3991

> <Gold.Chemscore.Internal.Correction>
   9.000000E+99

> <Gold.Chemscore.Hbonds>
donor molecule, donor type, donor heavy atom, donor atom, acceptor molecule, acceptor atom, score
      L1  H     9    37       P1  8028  1.00
      P1  H  7989  7998       L1     4  0.91

> <Gold.Chemscore.Hbond.Weighted>
-6.5841

> <Gold.Chemscore.Metal.Weighted>
-0.0000

> <Gold.Chemscore.Lipo.Weighted>
-11.9003

> <Gold.Chemscore.Internal_Hbond.Weighted>
0.0000

> <Gold.Chemscore.DEClash.Weighted>
0.0652

> <Gold.Chemscore.DEInternal.Weighted>
0.3783

> <Gold.Chemscore.Rot.Weighted>
3.5818

> <Gold.Chemscore.Internal.Correction.Weighted>
   9.000000E+99

> <Gold.Protein.RotatedTorsions>
[ 6907 6896 6895 6894 ] final  173.82 input  -60.11 | X-H torsion
[ 7974 7965 7964 7962 ] final   66.79 input  175.53 | X-H torsion
[ 8008 7997 7996 7995 ] final -156.18 input   59.86 | X-H torsion
[ 10167 10162 10161 10158 ] final  -25.96 input  -65.29 | X-H torsion
[ 10718 10713 10712 10709 ] final  132.35 input   66.30 | X-H torsion
[ 10763 10752 10751 10750 ] final   53.04 input  -60.55 | X-H torsion
[ 11005 11000 10999 10996 ] final -140.19 input  -57.11 | X-H torsion

> <Gold.Protein.ActiveResidues>
 VAL166  LYS551  ARG553  GLY616  TRP617  ASP618  TYR619  PRO620  LYS621  CYS622 
 ASP623  PHE694  ASN695  SER759  ASP760  ASP761  ALA762  ILE779  LEU786  VAL792 
 PHE793  MET794  SER795  GLU796  ALA797  LYS798  CYS799  TRP800  GLU811  SER814 

> <Gold.Protein.RotatedAtoms>
  151.7623  133.3334  159.3420 H   0  0  0  0  0  0  0  0  0  0  0  0  # atno 6907 bound_to 6896
  150.7493  134.6095  159.6088 H   0  0  0  0  0  0  0  0  0  0  0  0  # atno 6908 bound_to 6896
  152.3397  134.7152  160.0318 H   0  0  0  0  0  0  0  0  0  0  0  0  # atno 6909 bound_to 6896
  145.8224  139.3092  143.1035 H   0  0  0  0  0  0  0  0  0  0  0  0  # atno 7974 bound_to 7965
  155.7132  140.0781  157.2362 H   0  0  0  0  0  0  0  0  0  0  0  0  # atno 8008 bound_to 7997
  154.4055  140.1626  156.2373 H   0  0  0  0  0  0  0  0  0  0  0  0  # atno 8009 bound_to 7997
  155.9264  140.3394  155.6216 H   0  0  0  0  0  0  0  0  0  0  0  0  # atno 8010 bound_to 7997
  140.7285  143.4220  151.0937 H   0  0  0  0  0  0  0  0  0  0  0  0  # atno 10167 bound_to 10162
  157.4879  131.1089  150.9595 H   0  0  0  0  0  0  0  0  0  0  0  0  # atno 10718 bound_to 10713
  152.9792  135.5792  154.4677 H   0  0  0  0  0  0  0  0  0  0  0  0  # atno 10763 bound_to 10752
  154.4244  135.2772  155.1956 H   0  0  0  0  0  0  0  0  0  0  0  0  # atno 10764 bound_to 10752
  154.3691  135.6171  153.5784 H   0  0  0  0  0  0  0  0  0  0  0  0  # atno 10765 bound_to 10752
  140.8447  134.2359  157.4792 H   0  0  0  0  0  0  0  0  0  0  0  0  # atno 11005 bound_to 11000
  145.9660  140.8798  143.0186 LP  0  0  0  0  0  0  0  0  0  0  0  0  # atno 17320 bound_to 7965
  144.6746  140.1879  143.7399 LP  0  0  0  0  0  0  0  0  0  0  0  0  # atno 17321 bound_to 7965
  139.7866  143.8278  152.3146 LP  0  0  0  0  0  0  0  0  0  0  0  0  # atno 17342 bound_to 10162
  139.8248  144.7280  150.9526 LP  0  0  0  0  0  0  0  0  0  0  0  0  # atno 17343 bound_to 10162
  157.0307  130.5710  149.5343 LP  0  0  0  0  0  0  0  0  0  0  0  0  # atno 17370 bound_to 10713
  156.0157  130.5251  150.8127 LP  0  0  0  0  0  0  0  0  0  0  0  0  # atno 17371 bound_to 10713
  139.8703  134.9653  156.4524 LP  0  0  0  0  0  0  0  0  0  0  0  0  # atno 17394 bound_to 11000
  140.8857  133.7885  155.9515 LP  0  0  0  0  0  0  0  0  0  0  0  0  # atno 17395 bound_to 11000

$$$$
