AV-unprocessed.smi:283|AV-procd|sdf|2156|dock7
  -GOLD-   2262021503D 1   1.00000     0.00000
 Structure written by MMmdl.
 48 51  0  0  0  0  0  0  0  0  1 V2000
  149.3832  131.8520  154.6459 C   0  0  0  0  0  0  0  0  0  0  0  0
  148.7147  133.2375  154.7005 C   0  0  1  0  0  0  0  0  0  0  0  0
  149.7052  134.3087  154.5981 N   0  0  0  0  0  0  0  0  0  0  0  0
  149.7444  135.3306  155.4817 C   0  0  0  0  0  0  0  0  0  0  0  0
  149.0257  135.2991  156.6342 N   0  0  0  0  0  0  0  0  0  0  0  0
  149.0839  136.3261  157.4871 C   0  0  0  0  0  0  0  0  0  0  0  0
  149.7763  137.4623  157.3788 N   0  0  0  0  0  0  0  0  0  0  0  0
  150.4913  137.5038  156.2172 C   0  0  0  0  0  0  0  0  0  0  0  0
  150.5335  136.4822  155.2286 C   0  0  0  0  0  0  0  0  0  0  0  0
  151.3811  136.8618  154.1969 N   0  0  0  0  0  0  0  0  0  0  0  0
  151.8167  138.0371  154.5631 C   0  0  0  0  0  0  0  0  0  0  0  0
  151.3051  138.5160  155.7521 N   0  0  0  0  0  0  0  0  0  0  0  0
  151.6060  139.8038  156.4603 C   0  0  1  0  0  0  0  0  0  0  0  0
  151.5166  140.8417  155.5265 O   0  0  0  0  0  0  0  0  0  0  0  0
  150.3124  141.5870  155.6960 C   0  0  1  0  0  0  0  0  0  0  0  0
  149.1870  141.0004  154.8213 C   0  0  0  0  0  0  0  0  0  0  0  0
  149.4729  141.1986  153.4532 O   0  0  0  0  0  0  0  0  0  0  0  0
  150.0455  141.4828  157.1996 C   0  0  2  0  0  0  0  0  0  0  0  0
  150.7493  142.5249  157.8545 O   0  0  0  0  0  0  0  0  0  0  0  0
  150.5612  140.0900  157.5580 C   0  0  2  0  0  0  0  0  0  0  0  0
  151.0966  140.0440  158.8672 O   0  0  0  0  0  0  0  0  0  0  0  0
  147.6330  133.3365  153.6261 C   0  0  0  0  0  0  0  0  0  0  0  0
  147.4696  132.2875  152.6907 C   0  0  0  0  0  0  0  0  0  0  0  0
  146.4735  132.3580  151.6986 C   0  0  0  0  0  0  0  0  0  0  0  0
  145.6247  133.4771  151.6331 C   0  0  0  0  0  0  0  0  0  0  0  0
  145.7696  134.5210  152.5651 C   0  0  0  0  0  0  0  0  0  0  0  0
  146.7636  134.4553  153.5621 C   0  0  0  0  0  0  0  0  0  0  0  0
  146.8793  135.7600  154.6915 Cl  0  0  0  0  0  0  0  0  0  0  0  0
  152.6281  139.6861  156.8224 H   0  0  0  0  0  0  0  0  0  0  0  0
  150.4910  142.6184  155.3869 H   0  0  0  0  0  0  0  0  0  0  0  0
  148.9881  141.5946  157.4418 H   0  0  0  0  0  0  0  0  0  0  0  0
  149.7406  139.3752  157.4786 H   0  0  0  0  0  0  0  0  0  0  0  0
  148.6453  131.0585  154.7678 H   0  0  0  0  0  0  0  0  0  0  0  0
  150.1249  131.7264  155.4341 H   0  0  0  0  0  0  0  0  0  0  0  0
  149.8858  131.6926  153.6914 H   0  0  0  0  0  0  0  0  0  0  0  0
  148.2277  133.3510  155.6681 H   0  0  0  0  0  0  0  0  0  0  0  0
  150.3747  134.2107  153.8486 H   0  0  0  0  0  0  0  0  0  0  0  0
  148.4888  136.2242  158.3826 H   0  0  0  0  0  0  0  0  0  0  0  0
  152.5257  138.5884  153.9629 H   0  0  0  0  0  0  0  0  0  0  0  0
  149.1007  139.9278  154.9944 H   0  0  0  0  0  0  0  0  0  0  0  0
  148.2199  141.4461  155.0554 H   0  0  0  0  0  0  0  0  0  0  0  0
  149.2446  140.4123  152.9811 H   0  0  0  0  0  0  0  0  0  0  0  0
  151.3065  142.1397  158.5135 H   0  0  0  0  0  0  0  0  0  0  0  0
  150.7117  139.3087  159.3193 H   0  0  0  0  0  0  0  0  0  0  0  0
  148.1053  131.4151  152.7294 H   0  0  0  0  0  0  0  0  0  0  0  0
  146.3597  131.5516  150.9891 H   0  0  0  0  0  0  0  0  0  0  0  0
  144.8603  133.5332  150.8724 H   0  0  0  0  0  0  0  0  0  0  0  0
  145.1115  135.3762  152.5160 H   0  0  0  0  0  0  0  0  0  0  0  0
  1  2  1  0  0  0  0
  1 33  1  0  0  0  0
  1 34  1  0  0  0  0
  1 35  1  0  0  0  0
  2  3  1  0  0  0  0
  2 22  1  0  0  0  0
  2 36  1  0  0  0  0
  3  4  1  0  0  0  0
  3 37  1  0  0  0  0
  4  9  1  0  0  0  0
  4  5  2  0  0  0  0
  5  6  1  0  0  0  0
  6  7  2  0  0  0  0
  6 38  1  0  0  0  0
  7  8  1  0  0  0  0
  8 12  1  0  0  0  0
  8  9  2  0  0  0  0
  9 10  1  0  0  0  0
 10 11  2  0  0  0  0
 11 12  1  0  0  0  0
 11 39  1  0  0  0  0
 12 13  1  0  0  0  0
 13 29  1  0  0  0  0
 13 20  1  0  0  0  0
 13 14  1  0  0  0  0
 14 15  1  0  0  0  0
 15 30  1  0  0  0  0
 15 16  1  0  0  0  0
 15 18  1  0  0  0  0
 16 17  1  0  0  0  0
 16 40  1  0  0  0  0
 16 41  1  0  0  0  0
 17 42  1  0  0  0  0
 18 31  1  0  0  0  0
 18 19  1  0  0  0  0
 18 20  1  0  0  0  0
 19 43  1  0  0  0  0
 20 32  1  0  0  0  0
 20 21  1  0  0  0  0
 21 44  1  0  0  0  0
 22 27  1  0  0  0  0
 22 23  2  0  0  0  0
 23 24  1  0  0  0  0
 23 45  1  0  0  0  0
 24 25  2  0  0  0  0
 24 46  1  0  0  0  0
 25 26  1  0  0  0  0
 25 47  1  0  0  0  0
 26 27  2  0  0  0  0
 26 48  1  0  0  0  0
 27 28  1  0  0  0  0
M  END
> <s_m_source_file>
AV-unprocessed.smi

> <i_m_source_file_index>
283

> <i_lp_mmshare_version>
43012

> <i_f3d_flags>
0

> <s_epik_input>
Q2xjMVtjSF1bY0hdW2NIXVtjSF1jMVtDQEhdKFtDSDNdKVtOSF1jKG5bY0hdbjIpYyhjMjMpbltjSF1uM1tDQEBIXTRPW0NASF0oW0NIMl1bT0hdKVtDQEBIXShbT0hdKVtDQEhdNFtPSF0=

> <s_epik_cmdline>
J2VwaWtfcHl0aG9uJywgJy1waCcsICc3LjAnLCAnLXRuJywgJzgnLCAnLW1hJywgJzIwMCcsICctbWV0YWxfYmluZGluZycsICctaW1hZScsICc8aW5maWxlLm1hZT4nLCAnLW9tYWUnLCAnPG91dGZpbGUubWFlPic=

> <r_lp_tautomer_probability>
1

> <r_epik_Ionization_Penalty>
0.000266407

> <r_epik_Ionization_Penalty_Charging>
0

> <r_epik_Ionization_Penalty_Neutral>
0.000266407

> <r_epik_State_Penalty>
-0

> <r_epik_Charging_Adjusted_Penalty>
0

> <i_epik_Tot_Q>
0

> <i_epik_Tot_abs_Q>
0

> <r_epik_Metal_State_Penalty>
-0

> <b_epik_Metal_Only>
0

> <s_epik_Chemistry_Notes>
This compound contains an acetal/aminal-like group ( X-CH(R)-Y where X, Y are N, S, or O) that may be acid/base labile, releasing an aldehyde.

> <s_lp_Force_Field>
OPLS_2005

> <r_lp_Energy>
46.4468

> <b_lp_Chiralities_Consistent>
1

> <s_lp_Variant>
AV-unprocessed.smi:283-32

> <Gold.Version>
5.8.1

> <Gold.Id.Protein>
6NUR|6NUR_protein|mol2

> <Gold.PLP.Fitness>
46.0139

> <Gold.PLP.PLP>
-37.5018

> <Gold.PLP.part.hbond>
-5.0317

> <Gold.PLP.part.metal>
0.0000

> <Gold.PLP.part.buried>
-2.3498

> <Gold.PLP.part.nonpolar>
-30.9016

> <Gold.PLP.part.repulsive>
2.0778

> <Gold.PLP.ligand.clash>
0.0635

> <Gold.PLP.ligand.torsion>
0.5873

> <Gold.PLP.Chemscore.Hbond>
3.2104

> <Gold.PLP.Chemscore.CHOScore>
0.0000

> <Gold.PLP.Chemscore.Metal>
0.0000

> <Gold.Chemscore.Hbonds>
donor molecule, donor type, donor heavy atom, donor atom, acceptor molecule, acceptor atom, score
      L1  H    17    42       P1  7957  0.53
      P1  H  7989  7998       L1    14  0.62
      P1  H  8011  8017       L1    17  1.00
      P1  H 10752 10764       L1    10  1.00

> <Gold.PLP.Chemscore.Internal.Correction>
0.1191

> <Gold.Rescore>
     Score         DG    S(hbond)    S(metal)    S(lipo)     H(rot)  DE(clash)    DE(int)     intcor
      7.14     -10.78       2.29        0.00      69.45       4.10       1.60       2.04       ----

> <Gold.Chemscore.Fitness>
7.1399

> <Gold.Chemscore.DG>
-10.7792

> <Gold.Chemscore.ZeroCoef>
-5.4800

> <Gold.Chemscore.Hbond>
2.2939

> <Gold.Chemscore.Metal>
0.0000

> <Gold.Chemscore.Lipo>
69.4471

> <Gold.Chemscore.Internal_Hbond>
0.0000

> <Gold.Chemscore.DEClash>
1.6003

> <Gold.Chemscore.DEInternal>
2.0389

> <Gold.Chemscore.Rot>
4.0968

> <Gold.Chemscore.Internal.Correction>
   9.000000E+99

> <Gold.Chemscore.Hbonds>
donor molecule, donor type, donor heavy atom, donor atom, acceptor molecule, acceptor atom, score
      L1  H    17    42       P1  7957  0.52
      P1  H  7989  7998       L1    14  0.13
      P1  H  8011  8017       L1    17  0.62
      P1  H 10752 10764       L1    10  0.33

> <Gold.Chemscore.Hbond.Weighted>
-7.6618

> <Gold.Chemscore.Metal.Weighted>
-0.0000

> <Gold.Chemscore.Lipo.Weighted>
-8.1253

> <Gold.Chemscore.Internal_Hbond.Weighted>
0.0000

> <Gold.Chemscore.DEClash.Weighted>
1.6003

> <Gold.Chemscore.DEInternal.Weighted>
2.0389

> <Gold.Chemscore.Rot.Weighted>
10.4879

> <Gold.Chemscore.Internal.Correction.Weighted>
   9.000000E+99

> <Gold.Protein.RotatedTorsions>
[ 6907 6896 6895 6894 ] final -117.62 input  -60.11 | X-H torsion
[ 7974 7965 7964 7962 ] final  120.81 input  175.53 | X-H torsion
[ 8008 7997 7996 7995 ] final  -85.92 input   59.86 | X-H torsion
[ 10167 10162 10161 10158 ] final  175.29 input  -65.29 | X-H torsion
[ 10718 10713 10712 10709 ] final  156.61 input   66.30 | X-H torsion
[ 10763 10752 10751 10750 ] final  -78.82 input  -60.55 | X-H torsion
[ 11005 11000 10999 10996 ] final  -76.76 input  -57.11 | X-H torsion

> <Gold.Protein.ActiveResidues>
 VAL166  LYS551  ARG553  GLY616  TRP617  ASP618  TYR619  PRO620  LYS621  CYS622 
 ASP623  PHE694  ASN695  SER759  ASP760  ASP761  ALA762  ILE779  LEU786  VAL792 
 PHE793  MET794  SER795  GLU796  ALA797  LYS798  CYS799  TRP800  GLU811  SER814 

> <Gold.Protein.RotatedAtoms>
  150.8151  133.8351  159.3163 H   0  0  0  0  0  0  0  0  0  0  0  0  # atno 6907 bound_to 6896
  151.6126  135.1037  160.0094 H   0  0  0  0  0  0  0  0  0  0  0  0  # atno 6908 bound_to 6896
  152.4243  133.7128  159.6545 H   0  0  0  0  0  0  0  0  0  0  0  0  # atno 6909 bound_to 6896
  145.1268  139.3353  143.4686 H   0  0  0  0  0  0  0  0  0  0  0  0  # atno 7974 bound_to 7965
  154.6461  140.0585  156.9902 H   0  0  0  0  0  0  0  0  0  0  0  0  # atno 8008 bound_to 7997
  155.1442  140.3268  155.4427 H   0  0  0  0  0  0  0  0  0  0  0  0  # atno 8009 bound_to 7997
  156.2554  140.1959  156.6556 H   0  0  0  0  0  0  0  0  0  0  0  0  # atno 8010 bound_to 7997
  139.5172  144.3048  152.0345 H   0  0  0  0  0  0  0  0  0  0  0  0  # atno 10167 bound_to 10162
  157.2027  131.0680  151.2016 H   0  0  0  0  0  0  0  0  0  0  0  0  # atno 10718 bound_to 10713
  154.5307  135.5717  153.6757 H   0  0  0  0  0  0  0  0  0  0  0  0  # atno 10763 bound_to 10752
  152.9939  135.6204  154.2632 H   0  0  0  0  0  0  0  0  0  0  0  0  # atno 10764 bound_to 10752
  154.2558  135.2857  155.2778 H   0  0  0  0  0  0  0  0  0  0  0  0  # atno 10765 bound_to 10752
  141.1656  133.6996  156.7718 H   0  0  0  0  0  0  0  0  0  0  0  0  # atno 11005 bound_to 11000
  146.3517  140.1250  142.8599 LP  0  0  0  0  0  0  0  0  0  0  0  0  # atno 17320 bound_to 7965
  145.0679  140.9135  143.4899 LP  0  0  0  0  0  0  0  0  0  0  0  0  # atno 17321 bound_to 7965
  140.2494  144.4184  150.6228 LP  0  0  0  0  0  0  0  0  0  0  0  0  # atno 17342 bound_to 10162
  140.6235  143.2178  151.6645 LP  0  0  0  0  0  0  0  0  0  0  0  0  # atno 17343 bound_to 10162
  157.3751  130.7202  149.6591 LP  0  0  0  0  0  0  0  0  0  0  0  0  # atno 17370 bound_to 10713
  155.9699  130.4188  150.4344 LP  0  0  0  0  0  0  0  0  0  0  0  0  # atno 17371 bound_to 10713
  140.2458  134.8578  157.3619 LP  0  0  0  0  0  0  0  0  0  0  0  0  # atno 17394 bound_to 11000
  140.1751  134.4560  155.7807 LP  0  0  0  0  0  0  0  0  0  0  0  0  # atno 17395 bound_to 11000

$$$$
