AV-unprocessed.smi:3191|AV-procd|sdf|12199|dock5
  -GOLD-   2272018 33D 1   1.00000     0.00000
 Structure written by MMmdl.
 35 36  0  0  0  0  0  0  0  0  1 V2000
  149.0482  139.1225  154.1365 C   0  0  0  0  0  0  0  0  0  0  0  0
  150.2177  138.4485  154.6639 N   0  0  0  0  0  0  0  0  0  0  0  0
  150.4426  137.1278  154.6870 C   0  0  0  0  0  0  0  0  0  0  0  0
  151.6006  136.7770  155.2292 N   0  0  0  0  0  0  0  0  0  0  0  0
  152.1772  137.9914  155.5908 C   0  0  0  0  0  0  0  0  0  0  0  0
  151.3379  139.0314  155.2502 C   0  0  0  0  0  0  0  0  0  0  0  0
  151.4901  140.5118  155.4224 C   0  0  0  0  0  0  0  0  0  0  0  0
  150.2255  141.2214  155.9376 C   0  0  0  0  0  0  0  0  0  0  0  0
  150.5414  142.5114  156.5401 N   0  0  0  0  0  0  0  0  0  0  0  0
  151.2183  142.6826  157.6859 C   0  0  0  0  0  0  0  0  0  0  0  0
  151.6509  141.7406  158.3509 O   0  0  0  0  0  0  0  0  0  0  0  0
  151.4025  144.1193  158.0662 C   0  0  2  0  0  0  0  0  0  0  0  0
  152.7946  144.7082  157.9674 C   0  0  0  0  0  0  0  0  0  0  0  0
  152.1753  144.4913  159.3302 C   0  0  0  0  0  0  0  0  0  0  0  0
  151.6903  145.6858  160.1330 C   0  0  0  0  0  0  0  0  0  0  0  0
  152.7802  143.4535  160.2680 C   0  0  0  0  0  0  0  0  0  0  0  0
  150.5756  144.7784  157.8049 H   0  0  0  0  0  0  0  0  0  0  0  0
  148.3507  138.3971  153.7165 H   0  0  0  0  0  0  0  0  0  0  0  0
  149.3470  139.8196  153.3531 H   0  0  0  0  0  0  0  0  0  0  0  0
  148.5494  139.6723  154.9349 H   0  0  0  0  0  0  0  0  0  0  0  0
  149.7411  136.4048  154.2969 H   0  0  0  0  0  0  0  0  0  0  0  0
  153.1468  138.0225  156.0659 H   0  0  0  0  0  0  0  0  0  0  0  0
  152.3167  140.7016  156.1082 H   0  0  0  0  0  0  0  0  0  0  0  0
  151.7823  140.9513  154.4680 H   0  0  0  0  0  0  0  0  0  0  0  0
  149.5344  141.3973  155.1127 H   0  0  0  0  0  0  0  0  0  0  0  0
  149.6986  140.5936  156.6583 H   0  0  0  0  0  0  0  0  0  0  0  0
  150.2201  143.3344  156.0511 H   0  0  0  0  0  0  0  0  0  0  0  0
  153.6176  144.0572  157.6770 H   0  0  0  0  0  0  0  0  0  0  0  0
  152.8709  145.7275  157.5940 H   0  0  0  0  0  0  0  0  0  0  0  0
  152.5189  146.1438  160.6741 H   0  0  0  0  0  0  0  0  0  0  0  0
  150.9318  145.3761  160.8526 H   0  0  0  0  0  0  0  0  0  0  0  0
  151.2536  146.4413  159.4788 H   0  0  0  0  0  0  0  0  0  0  0  0
  153.4764  143.9266  160.9610 H   0  0  0  0  0  0  0  0  0  0  0  0
  153.3351  142.6919  159.7217 H   0  0  0  0  0  0  0  0  0  0  0  0
  151.9958  142.9647  160.8465 H   0  0  0  0  0  0  0  0  0  0  0  0
  1  2  1  0  0  0  0
  1 18  1  0  0  0  0
  1 19  1  0  0  0  0
  1 20  1  0  0  0  0
  2  6  1  0  0  0  0
  2  3  1  0  0  0  0
  3  4  2  0  0  0  0
  3 21  1  0  0  0  0
  4  5  1  0  0  0  0
  5  6  2  0  0  0  0
  5 22  1  0  0  0  0
  6  7  1  0  0  0  0
  7  8  1  0  0  0  0
  7 23  1  0  0  0  0
  7 24  1  0  0  0  0
  8  9  1  0  0  0  0
  8 25  1  0  0  0  0
  8 26  1  0  0  0  0
  9 10  1  0  0  0  0
  9 27  1  0  0  0  0
 10 11  2  0  0  0  0
 10 12  1  0  0  0  0
 12 17  1  0  0  0  0
 12 14  1  0  0  0  0
 12 13  1  0  0  0  0
 13 14  1  0  0  0  0
 13 28  1  0  0  0  0
 13 29  1  0  0  0  0
 14 15  1  0  0  0  0
 14 16  1  0  0  0  0
 15 30  1  0  0  0  0
 15 31  1  0  0  0  0
 15 32  1  0  0  0  0
 16 33  1  0  0  0  0
 16 34  1  0  0  0  0
 16 35  1  0  0  0  0
M  END
> <s_m_source_file>
AV-unprocessed.smi

> <i_m_source_file_index>
3191

> <i_lp_mmshare_version>
43012

> <i_f3d_flags>
0

> <s_epik_input>
W0NIM11uMVtjSF1uW2NIXWMxW0NIMl1bQ0gyXVtOSF1DKD1PKVtDQEBIXShbQ0gyXTIpQzIoW0NIM10pW0NIM10=

> <s_epik_cmdline>
J2VwaWtfcHl0aG9uJywgJy1waCcsICc3LjAnLCAnLXRuJywgJzgnLCAnLW1hJywgJzIwMCcsICctbWV0YWxfYmluZGluZycsICctaW1hZScsICc8aW5maWxlLm1hZT4nLCAnLW9tYWUnLCAnPG91dGZpbGUubWFlPic=

> <r_lp_tautomer_probability>
1

> <r_epik_Ionization_Penalty>
0.874249

> <r_epik_Ionization_Penalty_Charging>
0.874249

> <r_epik_Ionization_Penalty_Neutral>
1.97773e-08

> <r_epik_State_Penalty>
0.911868

> <r_epik_Charging_Adjusted_Penalty>
1.78612

> <i_epik_Tot_Q>
0

> <i_epik_Tot_abs_Q>
0

> <r_epik_Metal_State_Penalty>
0.361186

> <b_epik_Metal_Only>
0

> <s_lp_Force_Field>
OPLS_2005

> <r_lp_Energy>
11.6999

> <b_lp_Chiralities_Consistent>
1

> <s_lp_Variant>
AV-unprocessed.smi:3191-4

> <Gold.Version>
5.8.1

> <Gold.Id.Protein>
6NUR|6NUR_protein|mol2

> <Gold.PLP.Fitness>
49.3718

> <Gold.PLP.PLP>
-41.3437

> <Gold.PLP.part.hbond>
-2.0000

> <Gold.PLP.part.metal>
0.0000

> <Gold.PLP.part.buried>
-2.0135

> <Gold.PLP.part.nonpolar>
-38.0049

> <Gold.PLP.part.repulsive>
0.1690

> <Gold.PLP.ligand.clash>
0.0000

> <Gold.PLP.ligand.torsion>
0.4391

> <Gold.PLP.Chemscore.Hbond>
2.0000

> <Gold.PLP.Chemscore.CHOScore>
0.9386

> <Gold.PLP.Chemscore.Metal>
0.0000

> <Gold.Chemscore.Hbonds>
donor molecule, donor type, donor heavy atom, donor atom, acceptor molecule, acceptor atom, score
      L1  H     9    27       P1  8028  1.00
      P1  H 10752 10765       L1     4  1.00
      L1  C     3    21       P1  7948  0.90

> <Gold.PLP.Chemscore.Internal.Correction>
0.0904

> <Gold.Rescore>
     Score         DG    S(hbond)    S(metal)    S(lipo)     H(rot)  DE(clash)    DE(int)     intcor
     15.39     -19.11       1.94        0.00      98.09       1.69       0.94       2.79       ----

> <Gold.Chemscore.Fitness>
15.3861

> <Gold.Chemscore.DG>
-19.1133

> <Gold.Chemscore.ZeroCoef>
-5.4800

> <Gold.Chemscore.Hbond>
1.9426

> <Gold.Chemscore.Metal>
0.0000

> <Gold.Chemscore.Lipo>
98.0881

> <Gold.Chemscore.Internal_Hbond>
0.0000

> <Gold.Chemscore.DEClash>
0.9364

> <Gold.Chemscore.DEInternal>
2.7908

> <Gold.Chemscore.Rot>
1.6919

> <Gold.Chemscore.Internal.Correction>
   9.000000E+99

> <Gold.Chemscore.Hbonds>
donor molecule, donor type, donor heavy atom, donor atom, acceptor molecule, acceptor atom, score
      L1  H     9    27       P1  8028  0.96
      P1  H 10752 10765       L1     4  0.64

> <Gold.Chemscore.Hbond.Weighted>
-6.4881

> <Gold.Chemscore.Metal.Weighted>
-0.0000

> <Gold.Chemscore.Lipo.Weighted>
-11.4763

> <Gold.Chemscore.Internal_Hbond.Weighted>
0.0000

> <Gold.Chemscore.DEClash.Weighted>
0.9364

> <Gold.Chemscore.DEInternal.Weighted>
2.7908

> <Gold.Chemscore.Rot.Weighted>
4.3312

> <Gold.Chemscore.Internal.Correction.Weighted>
   9.000000E+99

> <Gold.Protein.RotatedTorsions>
[ 6907 6896 6895 6894 ] final  -10.25 input  -60.11 | X-H torsion
[ 7974 7965 7964 7962 ] final -118.44 input  175.53 | X-H torsion
[ 8008 7997 7996 7995 ] final  127.68 input   59.86 | X-H torsion
[ 10167 10162 10161 10158 ] final   24.07 input  -65.29 | X-H torsion
[ 10718 10713 10712 10709 ] final   65.70 input   66.30 | X-H torsion
[ 10763 10752 10751 10750 ] final -164.43 input  -60.55 | X-H torsion
[ 11005 11000 10999 10996 ] final  -68.93 input  -57.11 | X-H torsion

> <Gold.Protein.ActiveResidues>
 VAL166  LYS551  ARG553  GLY616  TRP617  ASP618  TYR619  PRO620  LYS621  CYS622 
 ASP623  PHE694  ASN695  SER759  ASP760  ASP761  ALA762  ILE779  LEU786  VAL792 
 PHE793  MET794  SER795  GLU796  ALA797  LYS798  CYS799  TRP800  GLU811  SER814 

> <Gold.Protein.RotatedAtoms>
  151.4049  135.0976  159.9566 H   0  0  0  0  0  0  0  0  0  0  0  0  # atno 6907 bound_to 6896
  152.5038  133.8853  159.7377 H   0  0  0  0  0  0  0  0  0  0  0  0  # atno 6908 bound_to 6896
  150.9335  133.6683  159.2834 H   0  0  0  0  0  0  0  0  0  0  0  0  # atno 6909 bound_to 6896
  145.0738  140.8378  143.4080 H   0  0  0  0  0  0  0  0  0  0  0  0  # atno 7974 bound_to 7965
  156.2897  140.2663  156.2313 H   0  0  0  0  0  0  0  0  0  0  0  0  # atno 8008 bound_to 7997
  155.0070  140.0387  157.2402 H   0  0  0  0  0  0  0  0  0  0  0  0  # atno 8009 bound_to 7997
  154.7551  140.2750  155.6265 H   0  0  0  0  0  0  0  0  0  0  0  0  # atno 8010 bound_to 7997
  140.5218  143.9990  150.6420 H   0  0  0  0  0  0  0  0  0  0  0  0  # atno 10167 bound_to 10162
  157.6122  130.9228  150.0011 H   0  0  0  0  0  0  0  0  0  0  0  0  # atno 10718 bound_to 10713
  154.7029  135.2991  154.9314 H   0  0  0  0  0  0  0  0  0  0  0  0  # atno 10763 bound_to 10752
  154.0240  135.6679  153.4779 H   0  0  0  0  0  0  0  0  0  0  0  0  # atno 10764 bound_to 10752
  153.0695  135.5069  154.8183 H   0  0  0  0  0  0  0  0  0  0  0  0  # atno 10765 bound_to 10752
  141.1543  133.6752  156.6521 H   0  0  0  0  0  0  0  0  0  0  0  0  # atno 11005 bound_to 11000
  145.1260  139.2662  143.5564 LP  0  0  0  0  0  0  0  0  0  0  0  0  # atno 17320 bound_to 7965
  146.3529  140.0898  142.8613 LP  0  0  0  0  0  0  0  0  0  0  0  0  # atno 17321 bound_to 7965
  140.3341  143.3059  152.0657 LP  0  0  0  0  0  0  0  0  0  0  0  0  # atno 17342 bound_to 10162
  139.4926  144.6489  151.6719 LP  0  0  0  0  0  0  0  0  0  0  0  0  # atno 17343 bound_to 10162
  156.1230  130.3645  149.9856 LP  0  0  0  0  0  0  0  0  0  0  0  0  # atno 17370 bound_to 10713
  156.7932  130.9264  151.3646 LP  0  0  0  0  0  0  0  0  0  0  0  0  # atno 17371 bound_to 10713
  140.3312  134.7927  157.4327 LP  0  0  0  0  0  0  0  0  0  0  0  0  # atno 17394 bound_to 11000
  140.1015  134.5466  155.8348 LP  0  0  0  0  0  0  0  0  0  0  0  0  # atno 17395 bound_to 11000

$$$$
