AV-unprocessed.smi:2945|AV-procd|sdf|11279|dock6
  -GOLD-   2272016173D 1   1.00000     0.00000
 Structure written by MMmdl.
 36 37  0  0  0  0  0  0  0  0  1 V2000
  154.3881  135.6397  163.4226 C   0  0  0  0  0  0  0  0  0  0  0  0
  153.8589  136.4080  162.2605 C   0  0  0  0  0  0  0  0  0  0  0  0
  153.6236  137.7383  162.0545 C   0  0  0  0  0  0  0  0  0  0  0  0
  153.1185  137.7718  160.7276 C   0  0  0  0  0  0  0  0  0  0  0  0
  152.7459  138.9992  160.1227 N   0  0  0  0  0  0  0  0  0  0  0  0
  153.1889  140.2310  160.4269 C   0  0  0  0  0  0  0  0  0  0  0  0
  154.0168  140.4898  161.3008 O   0  0  0  0  0  0  0  0  0  0  0  0
  152.6097  141.1586  159.6498 N   0  0  0  0  0  0  0  0  0  0  0  0
  152.8700  142.5976  159.6882 C   0  0  1  0  0  0  0  0  0  0  0  0
  152.3899  143.2198  158.3620 C   0  0  0  0  0  0  0  0  0  0  0  0
  152.5655  144.7449  158.3509 C   0  0  0  0  0  0  0  0  0  0  0  0
  151.8455  145.3871  159.5437 C   0  0  0  0  0  0  0  0  0  0  0  0
  152.3357  144.7869  160.8696 C   0  0  0  0  0  0  0  0  0  0  0  0
  152.1693  143.2537  160.9062 C   0  0  2  0  0  0  0  0  0  0  0  0
  152.6656  142.6925  162.2507 C   0  0  0  0  0  0  0  0  0  0  0  0
  153.0526  136.5710  160.1731 N   0  0  0  0  0  0  0  0  0  0  0  0
  153.5270  135.6908  161.1528 O   0  0  0  0  0  0  0  0  0  0  0  0
  154.5145  136.2854  164.2916 H   0  0  0  0  0  0  0  0  0  0  0  0
  155.3564  135.1986  163.1850 H   0  0  0  0  0  0  0  0  0  0  0  0
  153.7068  134.8340  163.6964 H   0  0  0  0  0  0  0  0  0  0  0  0
  153.7868  138.5531  162.7440 H   0  0  0  0  0  0  0  0  0  0  0  0
  152.0695  138.9316  159.3768 H   0  0  0  0  0  0  0  0  0  0  0  0
  151.9379  140.8443  158.9652 H   0  0  0  0  0  0  0  0  0  0  0  0
  153.9427  142.7835  159.7704 H   0  0  0  0  0  0  0  0  0  0  0  0
  152.9379  142.7842  157.5256 H   0  0  0  0  0  0  0  0  0  0  0  0
  151.3381  142.9789  158.2001 H   0  0  0  0  0  0  0  0  0  0  0  0
  153.6273  144.9926  158.3851 H   0  0  0  0  0  0  0  0  0  0  0  0
  152.1801  145.1573  157.4180 H   0  0  0  0  0  0  0  0  0  0  0  0
  152.0092  146.4652  159.5401 H   0  0  0  0  0  0  0  0  0  0  0  0
  150.7695  145.2368  159.4476 H   0  0  0  0  0  0  0  0  0  0  0  0
  153.3850  145.0462  161.0175 H   0  0  0  0  0  0  0  0  0  0  0  0
  151.7883  145.2411  161.6964 H   0  0  0  0  0  0  0  0  0  0  0  0
  151.1017  143.0385  160.8373 H   0  0  0  0  0  0  0  0  0  0  0  0
  153.7395  142.8412  162.3676 H   0  0  0  0  0  0  0  0  0  0  0  0
  152.4661  141.6250  162.3415 H   0  0  0  0  0  0  0  0  0  0  0  0
  152.1693  143.1841  163.0877 H   0  0  0  0  0  0  0  0  0  0  0  0
  1  2  1  0  0  0  0
  1 18  1  0  0  0  0
  1 19  1  0  0  0  0
  1 20  1  0  0  0  0
  2 17  1  0  0  0  0
  2  3  2  0  0  0  0
  3  4  1  0  0  0  0
  3 21  1  0  0  0  0
  4  5  1  0  0  0  0
  4 16  2  0  0  0  0
  5  6  1  0  0  0  0
  5 22  1  0  0  0  0
  6  7  2  0  0  0  0
  6  8  1  0  0  0  0
  8  9  1  0  0  0  0
  8 23  1  0  0  0  0
  9 14  1  0  0  0  0
  9 10  1  0  0  0  0
  9 24  1  0  0  0  0
 10 11  1  0  0  0  0
 10 25  1  0  0  0  0
 10 26  1  0  0  0  0
 11 12  1  0  0  0  0
 11 27  1  0  0  0  0
 11 28  1  0  0  0  0
 12 13  1  0  0  0  0
 12 29  1  0  0  0  0
 12 30  1  0  0  0  0
 13 14  1  0  0  0  0
 13 31  1  0  0  0  0
 13 32  1  0  0  0  0
 14 15  1  0  0  0  0
 14 33  1  0  0  0  0
 15 34  1  0  0  0  0
 15 35  1  0  0  0  0
 15 36  1  0  0  0  0
 16 17  1  0  0  0  0
M  END
> <s_m_source_file>
AV-unprocessed.smi

> <i_m_source_file_index>
2945

> <i_lp_mmshare_version>
43012

> <i_f3d_flags>
0

> <s_epik_input>
W0NIM11jMVtjSF1jKG5vMSlbTkhdQyg9TylbTkhdW0NAQEhdMltDSDJdW0NIMl1bQ0gyXVtDSDJdW0NASF0yW0NIM10=

> <s_epik_cmdline>
J2VwaWtfcHl0aG9uJywgJy1waCcsICc3LjAnLCAnLXRuJywgJzgnLCAnLW1hJywgJzIwMCcsICctbWV0YWxfYmluZGluZycsICctaW1hZScsICc8aW5maWxlLm1hZT4nLCAnLW9tYWUnLCAnPG91dGZpbGUubWFlPic=

> <r_lp_tautomer_probability>
1

> <r_epik_Ionization_Penalty>
2.357e-05

> <r_epik_Ionization_Penalty_Charging>
0

> <r_epik_Ionization_Penalty_Neutral>
2.357e-05

> <r_epik_State_Penalty>
-0

> <r_epik_Charging_Adjusted_Penalty>
0

> <i_epik_Tot_Q>
0

> <i_epik_Tot_abs_Q>
0

> <r_epik_Metal_State_Penalty>
-0

> <b_epik_Metal_Only>
0

> <s_lp_Force_Field>
OPLS_2005

> <r_lp_Energy>
8.52615

> <b_lp_Chiralities_Consistent>
1

> <s_lp_Variant>
AV-unprocessed.smi:2945-4

> <Gold.Version>
5.8.1

> <Gold.Id.Protein>
6NUR|6NUR_protein|mol2

> <Gold.PLP.Fitness>
39.8975

> <Gold.PLP.PLP>
-39.7954

> <Gold.PLP.part.hbond>
-0.8171

> <Gold.PLP.part.metal>
0.0000

> <Gold.PLP.part.buried>
-6.0732

> <Gold.PLP.part.nonpolar>
-33.0344

> <Gold.PLP.part.repulsive>
0.1834

> <Gold.PLP.ligand.clash>
0.0000

> <Gold.PLP.ligand.torsion>
0.3701

> <Gold.PLP.Chemscore.Hbond>
0.2795

> <Gold.PLP.Chemscore.CHOScore>
0.0000

> <Gold.PLP.Chemscore.Metal>
0.0000

> <Gold.PLP.Chemscore.Internal.Correction>
0.0038

> <Gold.Rescore>
     Score         DG    S(hbond)    S(metal)    S(lipo)     H(rot)  DE(clash)    DE(int)     intcor
     13.82     -16.93       0.88        0.00      94.56       1.00       0.01       3.10       ----

> <Gold.Chemscore.Fitness>
13.8236

> <Gold.Chemscore.DG>
-16.9328

> <Gold.Chemscore.ZeroCoef>
-5.4800

> <Gold.Chemscore.Hbond>
0.8829

> <Gold.Chemscore.Metal>
0.0000

> <Gold.Chemscore.Lipo>
94.5617

> <Gold.Chemscore.Internal_Hbond>
0.0000

> <Gold.Chemscore.DEClash>
0.0128

> <Gold.Chemscore.DEInternal>
3.0964

> <Gold.Chemscore.Rot>
1.0000

> <Gold.Chemscore.Internal.Correction>
   9.000000E+99

> <Gold.Chemscore.Hbond.Weighted>
-2.9491

> <Gold.Chemscore.Metal.Weighted>
-0.0000

> <Gold.Chemscore.Lipo.Weighted>
-11.0637

> <Gold.Chemscore.Internal_Hbond.Weighted>
0.0000

> <Gold.Chemscore.DEClash.Weighted>
0.0128

> <Gold.Chemscore.DEInternal.Weighted>
3.0964

> <Gold.Chemscore.Rot.Weighted>
2.5600

> <Gold.Chemscore.Internal.Correction.Weighted>
   9.000000E+99

> <Gold.Protein.RotatedTorsions>
[ 6907 6896 6895 6894 ] final  150.33 input  -60.11 | X-H torsion
[ 7974 7965 7964 7962 ] final   80.34 input  175.53 | X-H torsion
[ 8008 7997 7996 7995 ] final -127.34 input   59.86 | X-H torsion
[ 10167 10162 10161 10158 ] final  169.62 input  -65.29 | X-H torsion
[ 10718 10713 10712 10709 ] final  -27.78 input   66.30 | X-H torsion
[ 10763 10752 10751 10750 ] final   67.17 input  -60.55 | X-H torsion
[ 11005 11000 10999 10996 ] final  -15.76 input  -57.11 | X-H torsion

> <Gold.Protein.ActiveResidues>
 VAL166  LYS551  ARG553  GLY616  TRP617  ASP618  TYR619  PRO620  LYS621  CYS622 
 ASP623  PHE694  ASN695  SER759  ASP760  ASP761  ALA762  ILE779  LEU786  VAL792 
 PHE793  MET794  SER795  GLU796  ALA797  LYS798  CYS799  TRP800  GLU811  SER814 

> <Gold.Protein.RotatedAtoms>
  152.1159  133.4326  159.4652 H   0  0  0  0  0  0  0  0  0  0  0  0  # atno 6907 bound_to 6896
  150.6869  134.2593  159.4552 H   0  0  0  0  0  0  0  0  0  0  0  0  # atno 6908 bound_to 6896
  152.0465  134.9679  160.0625 H   0  0  0  0  0  0  0  0  0  0  0  0  # atno 6909 bound_to 6896
  145.6524  139.2451  143.1969 H   0  0  0  0  0  0  0  0  0  0  0  0  # atno 7974 bound_to 7965
  155.2445  140.0430  157.2979 H   0  0  0  0  0  0  0  0  0  0  0  0  # atno 8008 bound_to 7997
  154.5807  140.2400  155.8027 H   0  0  0  0  0  0  0  0  0  0  0  0  # atno 8009 bound_to 7997
  156.2191  140.2975  155.9917 H   0  0  0  0  0  0  0  0  0  0  0  0  # atno 8010 bound_to 7997
  139.4997  144.3686  151.9749 H   0  0  0  0  0  0  0  0  0  0  0  0  # atno 10167 bound_to 10162
  156.4337  130.4450  149.7100 H   0  0  0  0  0  0  0  0  0  0  0  0  # atno 10718 bound_to 10713
  153.0174  135.5293  154.6939 H   0  0  0  0  0  0  0  0  0  0  0  0  # atno 10763 bound_to 10752
  154.6066  135.2874  155.0480 H   0  0  0  0  0  0  0  0  0  0  0  0  # atno 10764 bound_to 10752
  154.1517  135.6562  153.5017 H   0  0  0  0  0  0  0  0  0  0  0  0  # atno 10765 bound_to 10752
  140.7999  133.8222  155.9460 H   0  0  0  0  0  0  0  0  0  0  0  0  # atno 11005 bound_to 11000
  146.1193  140.7330  142.9465 LP  0  0  0  0  0  0  0  0  0  0  0  0  # atno 17320 bound_to 7965
  144.7118  140.4065  143.7075 LP  0  0  0  0  0  0  0  0  0  0  0  0  # atno 17321 bound_to 7965
  140.3122  144.3525  150.6031 LP  0  0  0  0  0  0  0  0  0  0  0  0  # atno 17342 bound_to 10162
  140.5790  143.2174  151.7463 LP  0  0  0  0  0  0  0  0  0  0  0  0  # atno 17343 bound_to 10162
  156.3992  130.7666  151.2673 LP  0  0  0  0  0  0  0  0  0  0  0  0  # atno 17370 bound_to 10713
  157.7508  131.0245  150.3878 LP  0  0  0  0  0  0  0  0  0  0  0  0  # atno 17371 bound_to 10713
  140.9305  134.2028  157.4867 LP  0  0  0  0  0  0  0  0  0  0  0  0  # atno 17394 bound_to 11000
  139.8722  134.9830  156.5182 LP  0  0  0  0  0  0  0  0  0  0  0  0  # atno 17395 bound_to 11000

$$$$
