AV-unprocessed.smi:1158|AV-procd|sdf|4912|dock5
  -GOLD-   22720 3493D 1   1.00000     0.00000
 Structure written by MMmdl.
 43 44  0  0  0  0  0  0  0  0  2 V2000
  152.5191  139.2147  153.8295 C   0  0  0  0  0  0  0  0  0  0  0  0
  151.2601  138.5504  153.8416 O   0  0  0  0  0  0  0  0  0  0  0  0
  150.1115  139.3142  153.9277 C   0  0  0  0  0  0  0  0  0  0  0  0
  150.2399  140.6571  154.0736 N   0  0  0  0  0  0  0  0  0  0  0  0
  149.1204  141.4039  154.1633 C   0  0  0  0  0  0  0  0  0  0  0  0
  147.8250  140.8575  154.1207 C   0  0  0  0  0  0  0  0  0  0  0  0
  147.6889  139.4652  153.9691 C   0  0  0  0  0  0  0  0  0  0  0  0
  148.8546  138.6684  153.8575 C   0  0  0  0  0  0  0  0  0  0  0  0
  148.8357  137.2525  153.7160 N   0  0  0  0  0  0  0  0  0  0  0  0
  147.7803  136.4356  153.5581 C   0  0  0  0  0  0  0  0  0  0  0  0
  146.6022  136.7887  153.5174 O   0  0  0  0  0  0  0  0  0  0  0  0
  148.1715  135.1593  153.4316 N   0  0  0  0  0  0  0  0  0  0  0  0
  147.2778  134.0241  153.2195 C   0  0  2  0  0  0  0  0  0  0  0  0
  148.0183  132.6923  153.4319 C   0  0  0  0  0  0  0  0  0  0  0  0
  147.1055  131.4959  153.1173 C   0  0  0  0  0  0  0  0  0  0  0  0
  146.5688  131.5706  151.7328 N   0  3  1  0  0  0  0  0  0  0  0  0
  145.7919  130.3550  151.3736 C   0  0  0  0  0  0  0  0  0  0  0  0
  146.4911  129.0452  151.7774 C   0  0  0  0  0  0  0  0  0  0  0  0
  145.5871  128.1901  152.2533 F   0  0  0  0  0  0  0  0  0  0  0  0
  147.1112  128.4723  150.7468 F   0  0  0  0  0  0  0  0  0  0  0  0
  145.8241  132.8387  151.5079 C   0  0  0  0  0  0  0  0  0  0  0  0
  146.7061  134.0663  151.7942 C   0  0  0  0  0  0  0  0  0  0  0  0
  153.3160  138.4740  153.7662 H   0  0  0  0  0  0  0  0  0  0  0  0
  152.6755  139.7914  154.7423 H   0  0  0  0  0  0  0  0  0  0  0  0
  152.6135  139.8760  152.9672 H   0  0  0  0  0  0  0  0  0  0  0  0
  149.2616  142.4684  154.2784 H   0  0  0  0  0  0  0  0  0  0  0  0
  146.9549  141.4915  154.2066 H   0  0  0  0  0  0  0  0  0  0  0  0
  146.6977  139.0405  153.9566 H   0  0  0  0  0  0  0  0  0  0  0  0
  149.7451  136.8181  153.6561 H   0  0  0  0  0  0  0  0  0  0  0  0
  149.1607  134.9609  153.4729 H   0  0  0  0  0  0  0  0  0  0  0  0
  146.4462  134.0878  153.9242 H   0  0  0  0  0  0  0  0  0  0  0  0
  148.9029  132.6521  152.7943 H   0  0  0  0  0  0  0  0  0  0  0  0
  148.3750  132.6175  154.4599 H   0  0  0  0  0  0  0  0  0  0  0  0
  147.6749  130.5745  153.2449 H   0  0  0  0  0  0  0  0  0  0  0  0
  146.2780  131.4572  153.8277 H   0  0  0  0  0  0  0  0  0  0  0  0
  144.8403  130.3869  151.9065 H   0  0  0  0  0  0  0  0  0  0  0  0
  145.5438  130.3570  150.3111 H   0  0  0  0  0  0  0  0  0  0  0  0
  147.2264  129.2023  152.5674 H   0  0  0  0  0  0  0  0  0  0  0  0
  145.4783  132.9001  150.4780 H   0  0  0  0  0  0  0  0  0  0  0  0
  144.9362  132.8585  152.1419 H   0  0  0  0  0  0  0  0  0  0  0  0
  146.1239  134.9778  151.6524 H   0  0  0  0  0  0  0  0  0  0  0  0
  147.5200  134.1035  151.0684 H   0  0  0  0  0  0  0  0  0  0  0  0
  147.3725  131.5874  151.1214 H   0  0  0  0  0  0  0  0  0  0  0  0
  1  2  1  0  0  0  0
  1 23  1  0  0  0  0
  1 24  1  0  0  0  0
  1 25  1  0  0  0  0
  2  3  1  0  0  0  0
  3  8  1  0  0  0  0
  3  4  2  0  0  0  0
  4  5  1  0  0  0  0
  5  6  2  0  0  0  0
  5 26  1  0  0  0  0
  6  7  1  0  0  0  0
  6 27  1  0  0  0  0
  7  8  2  0  0  0  0
  7 28  1  0  0  0  0
  8  9  1  0  0  0  0
  9 10  1  0  0  0  0
  9 29  1  0  0  0  0
 10 11  2  0  0  0  0
 10 12  1  0  0  0  0
 12 13  1  0  0  0  0
 12 30  1  0  0  0  0
 13 22  1  0  0  0  0
 13 14  1  0  0  0  0
 13 31  1  0  0  0  0
 14 15  1  0  0  0  0
 14 32  1  0  0  0  0
 14 33  1  0  0  0  0
 15 16  1  0  0  0  0
 15 34  1  0  0  0  0
 15 35  1  0  0  0  0
 16 17  1  0  0  0  0
 16 21  1  0  0  0  0
 16 43  1  0  0  0  0
 17 18  1  0  0  0  0
 17 36  1  0  0  0  0
 17 37  1  0  0  0  0
 18 19  1  0  0  0  0
 18 20  1  0  0  0  0
 18 38  1  0  0  0  0
 21 22  1  0  0  0  0
 21 39  1  0  0  0  0
 21 40  1  0  0  0  0
 22 41  1  0  0  0  0
 22 42  1  0  0  0  0
M  CHG  1  16   1
M  END
> <s_m_source_file>
AV-unprocessed.smi

> <i_m_source_file_index>
1158

> <i_lp_mmshare_version>
43012

> <i_f3d_flags>
0

> <s_epik_input>
W0NIM11PYzFuW2NIXVtjSF1bY0hdYzFbTkhdQyg9TylbTkhdW0NIXTJbQ0gyXVtDSDJdTihbQ0gyXVtDSF0oRilGKVtDSDJdW0NIMl0y

> <s_epik_cmdline>
J2VwaWtfcHl0aG9uJywgJy1waCcsICc3LjAnLCAnLXRuJywgJzgnLCAnLW1hJywgJzIwMCcsICctbWV0YWxfYmluZGluZycsICctaW1hZScsICc8aW5maWxlLm1hZT4nLCAnLW9tYWUnLCAnPG91dGZpbGUubWFlPic=

> <r_lp_tautomer_probability>
1

> <r_epik_Ionization_Penalty>
0.802109

> <r_epik_Ionization_Penalty_Charging>
0.802031

> <r_epik_Ionization_Penalty_Neutral>
7.83352e-05

> <r_epik_State_Penalty>
0.833408

> <r_epik_Charging_Adjusted_Penalty>
1.63544

> <i_epik_Tot_Q>
1

> <i_epik_Tot_abs_Q>
1

> <r_epik_Metal_State_Penalty>
0.833416

> <b_epik_Metal_Only>
0

> <s_lp_Force_Field>
OPLS_2005

> <r_lp_Energy>
21.1994

> <b_lp_Chiralities_Consistent>
1

> <s_lp_Variant>
AV-unprocessed.smi:1158-2

> <Gold.Version>
5.8.1

> <Gold.Id.Protein>
6NUR|6NUR_protein|mol2

> <Gold.PLP.Fitness>
40.6715

> <Gold.PLP.PLP>
-33.4305

> <Gold.PLP.part.hbond>
-3.5465

> <Gold.PLP.part.metal>
0.0000

> <Gold.PLP.part.buried>
0.8831

> <Gold.PLP.part.nonpolar>
-31.5512

> <Gold.PLP.part.repulsive>
1.0662

> <Gold.PLP.ligand.clash>
0.0000

> <Gold.PLP.ligand.torsion>
0.7798

> <Gold.PLP.Chemscore.Hbond>
1.9120

> <Gold.PLP.Chemscore.CHOScore>
1.0000

> <Gold.PLP.Chemscore.Metal>
0.0000

> <Gold.Chemscore.Hbonds>
donor molecule, donor type, donor heavy atom, donor atom, acceptor molecule, acceptor atom, score
      L1  H    16    43       P1 10747  1.00
      P1  H  7989  7998       L1     4  0.68
      L1  C     5    26       P1  8028  0.71

> <Gold.PLP.Chemscore.Internal.Correction>
0.0646

> <Gold.Rescore>
     Score         DG    S(hbond)    S(metal)    S(lipo)     H(rot)  DE(clash)    DE(int)     intcor
      9.75     -14.22       0.98        0.00      81.30       1.58       2.59       1.88       ----

> <Gold.Chemscore.Fitness>
9.7512

> <Gold.Chemscore.DG>
-14.2205

> <Gold.Chemscore.ZeroCoef>
-5.4800

> <Gold.Chemscore.Hbond>
0.9777

> <Gold.Chemscore.Metal>
0.0000

> <Gold.Chemscore.Lipo>
81.3011

> <Gold.Chemscore.Internal_Hbond>
0.0000

> <Gold.Chemscore.DEClash>
2.5889

> <Gold.Chemscore.DEInternal>
1.8803

> <Gold.Chemscore.Rot>
1.5770

> <Gold.Chemscore.Internal.Correction>
   9.000000E+99

> <Gold.Chemscore.Hbonds>
donor molecule, donor type, donor heavy atom, donor atom, acceptor molecule, acceptor atom, score
      L1  H    16    43       P1 10747  0.97
      P1  H  7989  7998       L1     4  0.19

> <Gold.Chemscore.Hbond.Weighted>
-3.2654

> <Gold.Chemscore.Metal.Weighted>
-0.0000

> <Gold.Chemscore.Lipo.Weighted>
-9.5122

> <Gold.Chemscore.Internal_Hbond.Weighted>
0.0000

> <Gold.Chemscore.DEClash.Weighted>
2.5889

> <Gold.Chemscore.DEInternal.Weighted>
1.8803

> <Gold.Chemscore.Rot.Weighted>
4.0371

> <Gold.Chemscore.Internal.Correction.Weighted>
   9.000000E+99

> <Gold.Protein.RotatedTorsions>
[ 6907 6896 6895 6894 ] final  -68.57 input  -60.11 | X-H torsion
[ 7974 7965 7964 7962 ] final   31.43 input  175.53 | X-H torsion
[ 8008 7997 7996 7995 ] final  129.61 input   59.86 | X-H torsion
[ 10167 10162 10161 10158 ] final   -7.25 input  -65.29 | X-H torsion
[ 10718 10713 10712 10709 ] final   55.26 input   66.30 | X-H torsion
[ 10763 10752 10751 10750 ] final   71.60 input  -60.55 | X-H torsion
[ 11005 11000 10999 10996 ] final  133.82 input  -57.11 | X-H torsion

> <Gold.Protein.ActiveResidues>
 VAL166  LYS551  ARG553  GLY616  TRP617  ASP618  TYR619  PRO620  LYS621  CYS622 
 ASP623  PHE694  ASN695  SER759  ASP760  ASP761  ALA762  ILE779  LEU786  VAL792 
 PHE793  MET794  SER795  GLU796  ALA797  LYS798  CYS799  TRP800  GLU811  SER814 

> <Gold.Protein.RotatedAtoms>
  150.7349  134.5721  159.5895 H   0  0  0  0  0  0  0  0  0  0  0  0  # atno 6907 bound_to 6896
  152.3157  134.7440  160.0335 H   0  0  0  0  0  0  0  0  0  0  0  0  # atno 6908 bound_to 6896
  151.7972  133.3330  159.3553 H   0  0  0  0  0  0  0  0  0  0  0  0  # atno 6909 bound_to 6896
  146.1551  139.6658  142.9072 H   0  0  0  0  0  0  0  0  0  0  0  0  # atno 7974 bound_to 7965
  156.2939  140.2616  156.2626 H   0  0  0  0  0  0  0  0  0  0  0  0  # atno 8008 bound_to 7997
  154.9773  140.0390  157.2280 H   0  0  0  0  0  0  0  0  0  0  0  0  # atno 8009 bound_to 7997
  154.7804  140.2794  155.6073 H   0  0  0  0  0  0  0  0  0  0  0  0  # atno 8010 bound_to 7997
  140.7023  143.6102  150.8711 H   0  0  0  0  0  0  0  0  0  0  0  0  # atno 10167 bound_to 10162
  157.5329  130.8643  149.8713 H   0  0  0  0  0  0  0  0  0  0  0  0  # atno 10718 bound_to 10713
  153.0408  135.5131  154.7617 H   0  0  0  0  0  0  0  0  0  0  0  0  # atno 10763 bound_to 10752
  154.6556  135.2931  154.9934 H   0  0  0  0  0  0  0  0  0  0  0  0  # atno 10764 bound_to 10752
  154.0803  135.6665  153.4889 H   0  0  0  0  0  0  0  0  0  0  0  0  # atno 10765 bound_to 10752
  139.9875  134.9527  156.9779 H   0  0  0  0  0  0  0  0  0  0  0  0  # atno 11005 bound_to 11000
  145.4729  141.0436  143.2689 LP  0  0  0  0  0  0  0  0  0  0  0  0  # atno 17320 bound_to 7965
  144.7953  139.6247  143.7095 LP  0  0  0  0  0  0  0  0  0  0  0  0  # atno 17321 bound_to 7965
  139.9825  143.5935  152.2938 LP  0  0  0  0  0  0  0  0  0  0  0  0  # atno 17342 bound_to 10162
  139.6561  144.7662  151.2052 LP  0  0  0  0  0  0  0  0  0  0  0  0  # atno 17343 bound_to 10162
  156.0436  130.3733  150.1373 LP  0  0  0  0  0  0  0  0  0  0  0  0  # atno 17370 bound_to 10713
  156.9557  130.9789  151.3489 LP  0  0  0  0  0  0  0  0  0  0  0  0  # atno 17371 bound_to 10713
  140.4973  134.1133  155.7243 LP  0  0  0  0  0  0  0  0  0  0  0  0  # atno 17394 bound_to 11000
  141.1538  133.8921  157.2031 LP  0  0  0  0  0  0  0  0  0  0  0  0  # atno 17395 bound_to 11000

$$$$
