AV-unprocessed.smi:3056|AV-procd|sdf|11647|dock4
  -GOLD-   2272017 43D 1   1.00000     0.00000
 Structure written by MMmdl.
 48 49  0  0  0  0  0  0  0  0  2 V2000
  151.8918  145.2377  159.6534 C   0  0  0  0  0  0  0  0  0  0  0  0
  151.6612  143.7948  159.3083 C   0  0  0  0  0  0  0  0  0  0  0  0
  151.9135  142.6504  160.1164 C   0  0  0  0  0  0  0  0  0  0  0  0
  151.5922  141.5172  159.5148 N   0  0  0  0  0  0  0  0  0  0  0  0
  151.1368  141.8919  158.3001 N   0  0  0  0  0  0  0  0  0  0  0  0
  150.6605  140.8795  157.3648 C   0  0  2  0  0  0  0  0  0  0  0  0
  151.7369  139.7943  157.1777 C   0  0  0  0  0  0  0  0  0  0  0  0
  150.2071  141.5260  156.0268 C   0  0  1  0  0  0  0  0  0  0  0  0
  150.3327  140.5848  154.8138 C   0  0  0  0  0  0  0  0  0  0  0  0
  148.8431  142.1096  156.1120 N   0  3  0  0  0  0  0  0  0  0  0  0
  147.9143  141.5099  157.0988 C   0  0  0  0  0  0  0  0  0  0  0  0
  146.6216  142.3257  157.2478 C   0  0  0  0  0  0  0  0  0  0  0  0
  146.3601  142.8298  158.3417 O   0  0  0  0  0  0  0  0  0  0  0  0
  145.8068  142.4649  156.1749 N   0  0  0  0  0  0  0  0  0  0  0  0
  146.1219  141.9214  154.8514 C   0  0  0  0  0  0  0  0  0  0  0  0
  146.3022  143.0988  153.8769 C   0  0  0  0  0  0  0  0  0  0  0  0
  145.1208  143.8974  153.8637 O   0  0  0  0  0  0  0  0  0  0  0  0
  144.7723  144.4194  155.1452 C   0  0  1  0  0  0  0  0  0  0  0  0
  143.5086  145.2725  154.9896 C   0  0  0  0  0  0  0  0  0  0  0  0
  144.5676  143.2471  156.1261 C   0  0  0  0  0  0  0  0  0  0  0  0
  151.1614  143.2645  158.1531 C   0  0  0  0  0  0  0  0  0  0  0  0
  152.3345  145.3526  160.6431 H   0  0  0  0  0  0  0  0  0  0  0  0
  150.9617  145.8060  159.6496 H   0  0  0  0  0  0  0  0  0  0  0  0
  152.5656  145.7173  158.9432 H   0  0  0  0  0  0  0  0  0  0  0  0
  152.3145  142.6103  161.1184 H   0  0  0  0  0  0  0  0  0  0  0  0
  149.8012  140.3862  157.8218 H   0  0  0  0  0  0  0  0  0  0  0  0
  151.3548  138.9429  156.6149 H   0  0  0  0  0  0  0  0  0  0  0  0
  152.0756  139.4115  158.1412 H   0  0  0  0  0  0  0  0  0  0  0  0
  152.6093  140.1790  156.6486 H   0  0  0  0  0  0  0  0  0  0  0  0
  150.8616  142.3777  155.8367 H   0  0  0  0  0  0  0  0  0  0  0  0
  151.3730  140.3290  154.6140 H   0  0  0  0  0  0  0  0  0  0  0  0
  149.9418  141.0545  153.9105 H   0  0  0  0  0  0  0  0  0  0  0  0
  149.7898  139.6520  154.9682 H   0  0  0  0  0  0  0  0  0  0  0  0
  148.9410  143.0884  156.3426 H   0  0  0  0  0  0  0  0  0  0  0  0
  147.6577  140.4976  156.7870 H   0  0  0  0  0  0  0  0  0  0  0  0
  148.3985  141.4526  158.0729 H   0  0  0  0  0  0  0  0  0  0  0  0
  147.0171  141.2982  154.8473 H   0  0  0  0  0  0  0  0  0  0  0  0
  145.3048  141.2792  154.5195 H   0  0  0  0  0  0  0  0  0  0  0  0
  147.1619  143.7085  154.1594 H   0  0  0  0  0  0  0  0  0  0  0  0
  146.4900  142.7292  152.8688 H   0  0  0  0  0  0  0  0  0  0  0  0
  145.5825  145.0589  155.5007 H   0  0  0  0  0  0  0  0  0  0  0  0
  143.2063  145.7046  155.9437 H   0  0  0  0  0  0  0  0  0  0  0  0
  142.6755  144.6794  154.6113 H   0  0  0  0  0  0  0  0  0  0  0  0
  143.6760  146.0940  154.2925 H   0  0  0  0  0  0  0  0  0  0  0  0
  143.7548  142.6057  155.7817 H   0  0  0  0  0  0  0  0  0  0  0  0
  144.2508  143.6285  157.0954 H   0  0  0  0  0  0  0  0  0  0  0  0
  150.8224  143.7474  157.2482 H   0  0  0  0  0  0  0  0  0  0  0  0
  148.4099  142.0447  155.2019 H   0  0  0  0  0  0  0  0  0  0  0  0
  1  2  1  0  0  0  0
  1 22  1  0  0  0  0
  1 23  1  0  0  0  0
  1 24  1  0  0  0  0
  2 21  2  0  0  0  0
  2  3  1  0  0  0  0
  3  4  2  0  0  0  0
  3 25  1  0  0  0  0
  4  5  1  0  0  0  0
  5  6  1  0  0  0  0
  5 21  1  0  0  0  0
  6  7  1  0  0  0  0
  6  8  1  0  0  0  0
  6 26  1  0  0  0  0
  7 27  1  0  0  0  0
  7 28  1  0  0  0  0
  7 29  1  0  0  0  0
  8  9  1  0  0  0  0
  8 10  1  0  0  0  0
  8 30  1  0  0  0  0
  9 31  1  0  0  0  0
  9 32  1  0  0  0  0
  9 33  1  0  0  0  0
 10 11  1  0  0  0  0
 10 34  1  0  0  0  0
 10 48  1  0  0  0  0
 11 12  1  0  0  0  0
 11 35  1  0  0  0  0
 11 36  1  0  0  0  0
 12 13  2  0  0  0  0
 12 14  1  0  0  0  0
 14 20  1  0  0  0  0
 14 15  1  0  0  0  0
 15 16  1  0  0  0  0
 15 37  1  0  0  0  0
 15 38  1  0  0  0  0
 16 17  1  0  0  0  0
 16 39  1  0  0  0  0
 16 40  1  0  0  0  0
 17 18  1  0  0  0  0
 18 19  1  0  0  0  0
 18 20  1  0  0  0  0
 18 41  1  0  0  0  0
 19 42  1  0  0  0  0
 19 43  1  0  0  0  0
 19 44  1  0  0  0  0
 20 45  1  0  0  0  0
 20 46  1  0  0  0  0
 21 47  1  0  0  0  0
M  CHG  1  10   1
M  END
> <s_m_source_file>
AV-unprocessed.smi

> <i_m_source_file_index>
3056

> <i_lp_mmshare_version>
43012

> <i_f3d_flags>
0

> <s_epik_input>
W0NIM11jMVtjSF1ubihbY0hdMSlbQ0BIXShbQ0gzXSlbQ0BIXShbQ0gzXSlbTkhdW0NIMl1DKD1PKU4yW0NIMl1bQ0gyXU9bQ0BASF0oW0NIM10pW0NIMl0y

> <s_epik_cmdline>
J2VwaWtfcHl0aG9uJywgJy1waCcsICc3LjAnLCAnLXRuJywgJzgnLCAnLW1hJywgJzIwMCcsICctbWV0YWxfYmluZGluZycsICctaW1hZScsICc8aW5maWxlLm1hZT4nLCAnLW9tYWUnLCAnPG91dGZpbGUubWFlPic=

> <r_lp_tautomer_probability>
1

> <r_epik_Ionization_Penalty>
0.233715

> <r_epik_Ionization_Penalty_Charging>
0.233698

> <r_epik_Ionization_Penalty_Neutral>
1.68157e-05

> <r_epik_State_Penalty>
0.225221

> <r_epik_Charging_Adjusted_Penalty>
0.458919

> <i_epik_Tot_Q>
1

> <i_epik_Tot_abs_Q>
1

> <r_epik_Metal_State_Penalty>
0.225535

> <b_epik_Metal_Only>
0

> <s_lp_Force_Field>
OPLS_2005

> <r_lp_Energy>
27.3139

> <b_lp_Chiralities_Consistent>
1

> <s_lp_Variant>
AV-unprocessed.smi:3056-3

> <Gold.Version>
5.8.1

> <Gold.Id.Protein>
6NUR|6NUR_protein|mol2

> <Gold.PLP.Fitness>
46.0617

> <Gold.PLP.PLP>
-39.3678

> <Gold.PLP.part.hbond>
-1.0000

> <Gold.PLP.part.metal>
0.0000

> <Gold.PLP.part.buried>
-5.8533

> <Gold.PLP.part.nonpolar>
-32.1158

> <Gold.PLP.part.repulsive>
0.3948

> <Gold.PLP.ligand.clash>
0.0000

> <Gold.PLP.ligand.torsion>
1.1948

> <Gold.PLP.Chemscore.Hbond>
2.0000

> <Gold.PLP.Chemscore.CHOScore>
0.9840

> <Gold.PLP.Chemscore.Metal>
0.0000

> <Gold.Chemscore.Hbonds>
donor molecule, donor type, donor heavy atom, donor atom, acceptor molecule, acceptor atom, score
      L1  H    10    34       P1  8028  1.73
      L1  C    21    47       P1  8028  0.66

> <Gold.PLP.Chemscore.Internal.Correction>
0.1314

> <Gold.Rescore>
     Score         DG    S(hbond)    S(metal)    S(lipo)     H(rot)  DE(clash)    DE(int)     intcor
     14.07     -15.52       0.98        0.00      95.83       1.74       0.08       1.37       ----

> <Gold.Chemscore.Fitness>
14.0730

> <Gold.Chemscore.DG>
-15.5158

> <Gold.Chemscore.ZeroCoef>
-5.4800

> <Gold.Chemscore.Hbond>
0.9779

> <Gold.Chemscore.Metal>
0.0000

> <Gold.Chemscore.Lipo>
95.8308

> <Gold.Chemscore.Internal_Hbond>
0.0000

> <Gold.Chemscore.DEClash>
0.0763

> <Gold.Chemscore.DEInternal>
1.3666

> <Gold.Chemscore.Rot>
1.7354

> <Gold.Chemscore.Internal.Correction>
   9.000000E+99

> <Gold.Chemscore.Hbonds>
donor molecule, donor type, donor heavy atom, donor atom, acceptor molecule, acceptor atom, score
      L1  H    10    34       P1  8028  0.84

> <Gold.Chemscore.Hbond.Weighted>
-3.2662

> <Gold.Chemscore.Metal.Weighted>
-0.0000

> <Gold.Chemscore.Lipo.Weighted>
-11.2122

> <Gold.Chemscore.Internal_Hbond.Weighted>
0.0000

> <Gold.Chemscore.DEClash.Weighted>
0.0763

> <Gold.Chemscore.DEInternal.Weighted>
1.3666

> <Gold.Chemscore.Rot.Weighted>
4.4426

> <Gold.Chemscore.Internal.Correction.Weighted>
   9.000000E+99

> <Gold.Protein.RotatedTorsions>
[ 6907 6896 6895 6894 ] final   61.90 input  -60.11 | X-H torsion
[ 7974 7965 7964 7962 ] final -154.97 input  175.53 | X-H torsion
[ 8008 7997 7996 7995 ] final   67.94 input   59.86 | X-H torsion
[ 10167 10162 10161 10158 ] final  -73.55 input  -65.29 | X-H torsion
[ 10718 10713 10712 10709 ] final -146.79 input   66.30 | X-H torsion
[ 10763 10752 10751 10750 ] final -145.21 input  -60.55 | X-H torsion
[ 11005 11000 10999 10996 ] final  -49.82 input  -57.11 | X-H torsion

> <Gold.Protein.ActiveResidues>
 VAL166  LYS551  ARG553  GLY616  TRP617  ASP618  TYR619  PRO620  LYS621  CYS622 
 ASP623  PHE694  ASN695  SER759  ASP760  ASP761  ALA762  ILE779  LEU786  VAL792 
 PHE793  MET794  SER795  GLU796  ALA797  LYS798  CYS799  TRP800  GLU811  SER814 

> <Gold.Protein.RotatedAtoms>
  152.4127  134.6095  160.0021 H   0  0  0  0  0  0  0  0  0  0  0  0  # atno 6907 bound_to 6896
  151.6267  133.3329  159.3108 H   0  0  0  0  0  0  0  0  0  0  0  0  # atno 6908 bound_to 6896
  150.8017  134.7156  159.6673 H   0  0  0  0  0  0  0  0  0  0  0  0  # atno 6909 bound_to 6896
  144.7663  140.4314  143.5940 H   0  0  0  0  0  0  0  0  0  0  0  0  # atno 7974 bound_to 7965
  155.7007  140.3495  155.4931 H   0  0  0  0  0  0  0  0  0  0  0  0  # atno 8008 bound_to 7997
  155.9443  140.1107  157.1052 H   0  0  0  0  0  0  0  0  0  0  0  0  # atno 8009 bound_to 7997
  154.4109  140.1206  156.4955 H   0  0  0  0  0  0  0  0  0  0  0  0  # atno 8010 bound_to 7997
  140.5101  143.2346  151.7607 H   0  0  0  0  0  0  0  0  0  0  0  0  # atno 10167 bound_to 10162
  156.3993  130.7926  151.2135 H   0  0  0  0  0  0  0  0  0  0  0  0  # atno 10718 bound_to 10713
  154.8394  135.3419  154.6468 H   0  0  0  0  0  0  0  0  0  0  0  0  # atno 10763 bound_to 10752
  153.7080  135.6965  153.5049 H   0  0  0  0  0  0  0  0  0  0  0  0  # atno 10764 bound_to 10752
  153.2473  135.4365  155.0715 H   0  0  0  0  0  0  0  0  0  0  0  0  # atno 10765 bound_to 10752
  141.0781  133.6660  156.3641 H   0  0  0  0  0  0  0  0  0  0  0  0  # atno 11005 bound_to 11000
  145.6460  139.1557  143.2888 LP  0  0  0  0  0  0  0  0  0  0  0  0  # atno 17320 bound_to 7965
  146.1773  140.6553  142.9205 LP  0  0  0  0  0  0  0  0  0  0  0  0  # atno 17321 bound_to 7965
  139.4894  144.4402  151.9773 LP  0  0  0  0  0  0  0  0  0  0  0  0  # atno 17342 bound_to 10162
  140.3494  144.3107  150.5952 LP  0  0  0  0  0  0  0  0  0  0  0  0  # atno 17343 bound_to 10162
  157.7503  131.0291  150.4080 LP  0  0  0  0  0  0  0  0  0  0  0  0  # atno 17370 bound_to 10713
  156.4356  130.3981  149.6731 LP  0  0  0  0  0  0  0  0  0  0  0  0  # atno 17371 bound_to 10713
  140.5529  134.6010  157.5412 LP  0  0  0  0  0  0  0  0  0  0  0  0  # atno 17394 bound_to 11000
  139.9594  134.7479  156.0270 LP  0  0  0  0  0  0  0  0  0  0  0  0  # atno 17395 bound_to 11000

$$$$
