AV-unprocessed.smi:283|AV-procd|sdf|2148|dock8
  -GOLD-   2262021483D 1   1.00000     0.00000
 Structure written by MMmdl.
 48 51  0  0  0  0  0  0  0  0  1 V2000
  151.8966  144.0870  158.8513 C   0  0  0  0  0  0  0  0  0  0  0  0
  151.7906  142.5515  158.8239 C   0  0  1  0  0  0  0  0  0  0  0  0
  152.0606  142.0274  157.4853 N   0  0  0  0  0  0  0  0  0  0  0  0
  151.1667  141.2542  156.8295 C   0  0  0  0  0  0  0  0  0  0  0  0
  149.8368  141.5305  156.8569 N   0  0  0  0  0  0  0  0  0  0  0  0
  148.9778  140.7472  156.1982 C   0  0  0  0  0  0  0  0  0  0  0  0
  149.2315  139.6558  155.4727 N   0  0  0  0  0  0  0  0  0  0  0  0
  150.5649  139.3657  155.4531 C   0  0  0  0  0  0  0  0  0  0  0  0
  151.5886  140.1168  156.0940 C   0  0  0  0  0  0  0  0  0  0  0  0
  152.8252  139.5429  155.8331 N   0  0  0  0  0  0  0  0  0  0  0  0
  152.5432  138.5179  155.0748 C   0  0  0  0  0  0  0  0  0  0  0  0
  151.2012  138.3120  154.8287 N   0  0  0  0  0  0  0  0  0  0  0  0
  150.5493  137.2547  153.9866 C   0  0  1  0  0  0  0  0  0  0  0  0
  151.4654  136.2143  153.7958 O   0  0  0  0  0  0  0  0  0  0  0  0
  151.1676  135.1144  154.6510 C   0  0  1  0  0  0  0  0  0  0  0  0
  151.9162  135.2691  155.9944 C   0  0  0  0  0  0  0  0  0  0  0  0
  153.3146  135.2580  155.7952 O   0  0  0  0  0  0  0  0  0  0  0  0
  149.6351  135.1592  154.7172 C   0  0  1  0  0  0  0  0  0  0  0  0
  149.1113  134.5360  155.8736 O   0  0  0  0  0  0  0  0  0  0  0  0
  149.3167  136.6499  154.6921 C   0  0  2  0  0  0  0  0  0  0  0  0
  148.1310  136.8726  153.9549 O   0  0  0  0  0  0  0  0  0  0  0  0
  152.7041  141.9454  159.8886 C   0  0  0  0  0  0  0  0  0  0  0  0
  153.6961  141.0061  159.5196 C   0  0  0  0  0  0  0  0  0  0  0  0
  154.5487  140.4433  160.4880 C   0  0  0  0  0  0  0  0  0  0  0  0
  154.4246  140.8187  161.8374 C   0  0  0  0  0  0  0  0  0  0  0  0
  153.4509  141.7614  162.2148 C   0  0  0  0  0  0  0  0  0  0  0  0
  152.5942  142.3283  161.2499 C   0  0  0  0  0  0  0  0  0  0  0  0
  151.4292  143.4952  161.7717 Cl  0  0  0  0  0  0  0  0  0  0  0  0
  150.3312  137.7605  153.0450 H   0  0  0  0  0  0  0  0  0  0  0  0
  151.5062  134.2013  154.1595 H   0  0  0  0  0  0  0  0  0  0  0  0
  149.2344  134.6676  153.8288 H   0  0  0  0  0  0  0  0  0  0  0  0
  149.2243  137.0466  155.7044 H   0  0  0  0  0  0  0  0  0  0  0  0
  151.6468  144.4775  159.8382 H   0  0  0  0  0  0  0  0  0  0  0  0
  151.2173  144.5543  158.1384 H   0  0  0  0  0  0  0  0  0  0  0  0
  152.9074  144.4176  158.6103 H   0  0  0  0  0  0  0  0  0  0  0  0
  150.7688  142.2687  159.0734 H   0  0  0  0  0  0  0  0  0  0  0  0
  152.9241  142.3366  157.0632 H   0  0  0  0  0  0  0  0  0  0  0  0
  147.9386  141.0343  156.2631 H   0  0  0  0  0  0  0  0  0  0  0  0
  153.3187  137.8807  154.6764 H   0  0  0  0  0  0  0  0  0  0  0  0
  151.6698  136.2289  156.4477 H   0  0  0  0  0  0  0  0  0  0  0  0
  151.6353  134.4935  156.7072 H   0  0  0  0  0  0  0  0  0  0  0  0
  153.5577  136.0428  155.3282 H   0  0  0  0  0  0  0  0  0  0  0  0
  149.3329  135.0639  156.6256 H   0  0  0  0  0  0  0  0  0  0  0  0
  148.3221  136.7584  153.0368 H   0  0  0  0  0  0  0  0  0  0  0  0
  153.8160  140.7112  158.4875 H   0  0  0  0  0  0  0  0  0  0  0  0
  155.3003  139.7255  160.1944 H   0  0  0  0  0  0  0  0  0  0  0  0
  155.0783  140.3886  162.5817 H   0  0  0  0  0  0  0  0  0  0  0  0
  153.3637  142.0535  163.2510 H   0  0  0  0  0  0  0  0  0  0  0  0
  1  2  1  0  0  0  0
  1 33  1  0  0  0  0
  1 34  1  0  0  0  0
  1 35  1  0  0  0  0
  2  3  1  0  0  0  0
  2 22  1  0  0  0  0
  2 36  1  0  0  0  0
  3  4  1  0  0  0  0
  3 37  1  0  0  0  0
  4  9  1  0  0  0  0
  4  5  2  0  0  0  0
  5  6  1  0  0  0  0
  6  7  2  0  0  0  0
  6 38  1  0  0  0  0
  7  8  1  0  0  0  0
  8 12  1  0  0  0  0
  8  9  2  0  0  0  0
  9 10  1  0  0  0  0
 10 11  2  0  0  0  0
 11 12  1  0  0  0  0
 11 39  1  0  0  0  0
 12 13  1  0  0  0  0
 13 29  1  0  0  0  0
 13 20  1  0  0  0  0
 13 14  1  0  0  0  0
 14 15  1  0  0  0  0
 15 30  1  0  0  0  0
 15 16  1  0  0  0  0
 15 18  1  0  0  0  0
 16 17  1  0  0  0  0
 16 40  1  0  0  0  0
 16 41  1  0  0  0  0
 17 42  1  0  0  0  0
 18 31  1  0  0  0  0
 18 19  1  0  0  0  0
 18 20  1  0  0  0  0
 19 43  1  0  0  0  0
 20 32  1  0  0  0  0
 20 21  1  0  0  0  0
 21 44  1  0  0  0  0
 22 27  1  0  0  0  0
 22 23  2  0  0  0  0
 23 24  1  0  0  0  0
 23 45  1  0  0  0  0
 24 25  2  0  0  0  0
 24 46  1  0  0  0  0
 25 26  1  0  0  0  0
 25 47  1  0  0  0  0
 26 27  2  0  0  0  0
 26 48  1  0  0  0  0
 27 28  1  0  0  0  0
M  END
> <s_m_source_file>
AV-unprocessed.smi

> <i_m_source_file_index>
283

> <i_lp_mmshare_version>
43012

> <i_f3d_flags>
0

> <s_epik_input>
Q2xjMVtjSF1bY0hdW2NIXVtjSF1jMVtDQEhdKFtDSDNdKVtOSF1jKG5bY0hdbjIpYyhjMjMpbltjSF1uM1tDQEBIXTRPW0NASF0oW0NIMl1bT0hdKVtDQEBIXShbT0hdKVtDQEhdNFtPSF0=

> <s_epik_cmdline>
J2VwaWtfcHl0aG9uJywgJy1waCcsICc3LjAnLCAnLXRuJywgJzgnLCAnLW1hJywgJzIwMCcsICctbWV0YWxfYmluZGluZycsICctaW1hZScsICc8aW5maWxlLm1hZT4nLCAnLW9tYWUnLCAnPG91dGZpbGUubWFlPic=

> <r_lp_tautomer_probability>
1

> <r_epik_Ionization_Penalty>
0.000266407

> <r_epik_Ionization_Penalty_Charging>
0

> <r_epik_Ionization_Penalty_Neutral>
0.000266407

> <r_epik_State_Penalty>
-0

> <r_epik_Charging_Adjusted_Penalty>
0

> <i_epik_Tot_Q>
0

> <i_epik_Tot_abs_Q>
0

> <r_epik_Metal_State_Penalty>
-0

> <b_epik_Metal_Only>
0

> <s_epik_Chemistry_Notes>
This compound contains an acetal/aminal-like group ( X-CH(R)-Y where X, Y are N, S, or O) that may be acid/base labile, releasing an aldehyde.

> <s_lp_Force_Field>
OPLS_2005

> <r_lp_Energy>
43.8521

> <b_lp_Chiralities_Consistent>
1

> <s_lp_Variant>
AV-unprocessed.smi:283-24

> <Gold.Version>
5.8.1

> <Gold.Id.Protein>
6NUR|6NUR_protein|mol2

> <Gold.PLP.Fitness>
56.2503

> <Gold.PLP.PLP>
-48.6373

> <Gold.PLP.part.hbond>
-4.0000

> <Gold.PLP.part.metal>
0.0000

> <Gold.PLP.part.buried>
2.2739

> <Gold.PLP.part.nonpolar>
-49.1939

> <Gold.PLP.part.repulsive>
3.1199

> <Gold.PLP.ligand.clash>
0.0000

> <Gold.PLP.ligand.torsion>
0.7454

> <Gold.PLP.Chemscore.Hbond>
3.0000

> <Gold.PLP.Chemscore.CHOScore>
0.0000

> <Gold.PLP.Chemscore.Metal>
0.0000

> <Gold.Chemscore.Hbonds>
donor molecule, donor type, donor heavy atom, donor atom, acceptor molecule, acceptor atom, score
      L1  H    21    44       P1  7948  0.75
      P1  H  7997  8008       L1    10  1.00

> <Gold.PLP.Chemscore.Internal.Correction>
0.1039

> <Gold.Rescore>
     Score         DG    S(hbond)    S(metal)    S(lipo)     H(rot)  DE(clash)    DE(int)     intcor
     14.39     -18.68       2.83        0.00     121.58       4.10       3.25       1.05       ----

> <Gold.Chemscore.Fitness>
14.3886

> <Gold.Chemscore.DG>
-18.6814

> <Gold.Chemscore.ZeroCoef>
-5.4800

> <Gold.Chemscore.Hbond>
2.8336

> <Gold.Chemscore.Metal>
0.0000

> <Gold.Chemscore.Lipo>
121.5823

> <Gold.Chemscore.Internal_Hbond>
0.0000

> <Gold.Chemscore.DEClash>
3.2468

> <Gold.Chemscore.DEInternal>
1.0460

> <Gold.Chemscore.Rot>
4.0968

> <Gold.Chemscore.Internal.Correction>
   9.000000E+99

> <Gold.Chemscore.Hbonds>
donor molecule, donor type, donor heavy atom, donor atom, acceptor molecule, acceptor atom, score
      L1  H    21    44       P1  7948  0.74
      P1  H  7997  8008       L1    10  1.00

> <Gold.Chemscore.Hbond.Weighted>
-9.4642

> <Gold.Chemscore.Metal.Weighted>
-0.0000

> <Gold.Chemscore.Lipo.Weighted>
-14.2251

> <Gold.Chemscore.Internal_Hbond.Weighted>
0.0000

> <Gold.Chemscore.DEClash.Weighted>
3.2468

> <Gold.Chemscore.DEInternal.Weighted>
1.0460

> <Gold.Chemscore.Rot.Weighted>
10.4879

> <Gold.Chemscore.Internal.Correction.Weighted>
   9.000000E+99

> <Gold.Protein.RotatedTorsions>
[ 6907 6896 6895 6894 ] final  -76.81 input  -60.11 | X-H torsion
[ 7974 7965 7964 7962 ] final  145.27 input  175.53 | X-H torsion
[ 8008 7997 7996 7995 ] final  -26.43 input   59.86 | X-H torsion
[ 10167 10162 10161 10158 ] final -166.98 input  -65.29 | X-H torsion
[ 10718 10713 10712 10709 ] final    5.77 input   66.30 | X-H torsion
[ 10763 10752 10751 10750 ] final  151.60 input  -60.55 | X-H torsion
[ 11005 11000 10999 10996 ] final  -25.99 input  -57.11 | X-H torsion

> <Gold.Protein.ActiveResidues>
 VAL166  LYS551  ARG553  GLY616  TRP617  ASP618  TYR619  PRO620  LYS621  CYS622 
 ASP623  PHE694  ASN695  SER759  ASP760  ASP761  ALA762  ILE779  LEU786  VAL792 
 PHE793  MET794  SER795  GLU796  ALA797  LYS798  CYS799  TRP800  GLU811  SER814 

> <Gold.Protein.RotatedAtoms>
  150.7016  134.4516  159.5338 H   0  0  0  0  0  0  0  0  0  0  0  0  # atno 6907 bound_to 6896
  152.2207  134.8412  160.0495 H   0  0  0  0  0  0  0  0  0  0  0  0  # atno 6908 bound_to 6896
  151.9264  133.3564  159.3952 H   0  0  0  0  0  0  0  0  0  0  0  0  # atno 6909 bound_to 6896
  144.8766  139.5763  143.5862 H   0  0  0  0  0  0  0  0  0  0  0  0  # atno 7974 bound_to 7965
  154.4425  140.1899  156.0774 H   0  0  0  0  0  0  0  0  0  0  0  0  # atno 8008 bound_to 7997
  156.0465  140.3313  155.7275 H   0  0  0  0  0  0  0  0  0  0  0  0  # atno 8009 bound_to 7997
  155.5622  140.0605  157.2817 H   0  0  0  0  0  0  0  0  0  0  0  0  # atno 8010 bound_to 7997
  139.6079  144.0875  152.1812 H   0  0  0  0  0  0  0  0  0  0  0  0  # atno 10167 bound_to 10162
  156.9123  130.5760  149.5647 H   0  0  0  0  0  0  0  0  0  0  0  0  # atno 10718 bound_to 10713
  154.1064  135.2842  155.3240 H   0  0  0  0  0  0  0  0  0  0  0  0  # atno 10763 bound_to 10752
  154.6520  135.5365  153.7916 H   0  0  0  0  0  0  0  0  0  0  0  0  # atno 10764 bound_to 10752
  153.0360  135.6512  154.1225 H   0  0  0  0  0  0  0  0  0  0  0  0  # atno 10765 bound_to 10752
  140.8988  133.7538  156.0517 H   0  0  0  0  0  0  0  0  0  0  0  0  # atno 11005 bound_to 11000
  146.2967  139.7299  142.9121 LP  0  0  0  0  0  0  0  0  0  0  0  0  # atno 17320 bound_to 7965
  145.4031  141.0387  143.3059 LP  0  0  0  0  0  0  0  0  0  0  0  0  # atno 17321 bound_to 7965
  140.0487  144.5950  150.7353 LP  0  0  0  0  0  0  0  0  0  0  0  0  # atno 17342 bound_to 10162
  140.7298  143.2676  151.3992 LP  0  0  0  0  0  0  0  0  0  0  0  0  # atno 17343 bound_to 10162
  156.0530  130.5596  150.9031 LP  0  0  0  0  0  0  0  0  0  0  0  0  # atno 17370 bound_to 10713
  157.5960  131.0943  150.9040 LP  0  0  0  0  0  0  0  0  0  0  0  0  # atno 17371 bound_to 10713
  140.8255  134.3239  157.5367 LP  0  0  0  0  0  0  0  0  0  0  0  0  # atno 17394 bound_to 11000
  139.8739  134.9334  156.3579 LP  0  0  0  0  0  0  0  0  0  0  0  0  # atno 17395 bound_to 11000

$$$$
