AV-unprocessed.smi:3347|AV-procd|sdf|12914|dock3
  -GOLD-   2272019333D 1   1.00000     0.00000
 Structure written by MMmdl.
 40 42  0  0  0  0  0  0  0  0  2 V2000
  150.7434  140.9247  156.8574 O   0  0  0  0  0  0  0  0  0  0  0  0
  150.2646  141.9973  156.4900 C   0  0  0  0  0  0  0  0  0  0  0  0
  149.5577  142.1406  155.3599 N   0  0  0  0  0  0  0  0  0  0  0  0
  149.2778  141.0811  154.3952 C   0  0  0  0  0  0  0  0  0  0  0  0
  147.7678  140.8086  154.2505 C   0  0  1  0  0  0  0  0  0  0  0  0
  147.1378  140.1692  155.4862 C   0  0  0  0  0  0  0  0  0  0  0  0
  145.6424  140.4809  155.3528 C   0  0  0  0  0  0  0  0  0  0  0  0
  145.5265  141.6289  154.4235 N   0  3  1  0  0  0  0  0  0  0  0  0
  144.6707  142.7273  154.9205 C   0  0  0  0  0  0  0  0  0  0  0  0
  145.0017  144.0709  154.3163 C   0  0  0  0  0  0  0  0  0  0  0  0
  145.4185  143.7542  155.7365 C   0  0  0  0  0  0  0  0  0  0  0  0
  146.8948  142.0523  154.0638 C   0  0  0  0  0  0  0  0  0  0  0  0
  150.3514  143.1600  157.1584 N   0  0  0  0  0  0  0  0  0  0  0  0
  151.0024  143.4309  158.3926 C   0  0  0  0  0  0  0  0  0  0  0  0
  151.9937  142.6039  158.9754 C   0  0  0  0  0  0  0  0  0  0  0  0
  152.5722  142.9954  160.1982 C   0  0  0  0  0  0  0  0  0  0  0  0
  152.1461  144.2002  160.7896 C   0  0  0  0  0  0  0  0  0  0  0  0
  151.2121  145.0042  160.2398 N   0  0  0  0  0  0  0  0  0  0  0  0
  150.6623  144.6230  159.0674 C   0  0  0  0  0  0  0  0  0  0  0  0
  149.1987  143.0586  155.1405 H   0  0  0  0  0  0  0  0  0  0  0  0
  149.6819  141.4001  153.4341 H   0  0  0  0  0  0  0  0  0  0  0  0
  149.8127  140.1675  154.6605 H   0  0  0  0  0  0  0  0  0  0  0  0
  147.6051  140.1407  153.4027 H   0  0  0  0  0  0  0  0  0  0  0  0
  147.3389  139.0997  155.5570 H   0  0  0  0  0  0  0  0  0  0  0  0
  147.5272  140.6407  156.3899 H   0  0  0  0  0  0  0  0  0  0  0  0
  145.1089  139.6347  154.9193 H   0  0  0  0  0  0  0  0  0  0  0  0
  145.1968  140.6873  156.3273 H   0  0  0  0  0  0  0  0  0  0  0  0
  143.6416  142.4691  155.1651 H   0  0  0  0  0  0  0  0  0  0  0  0
  145.7839  144.1175  153.5608 H   0  0  0  0  0  0  0  0  0  0  0  0
  144.1842  144.7764  154.1828 H   0  0  0  0  0  0  0  0  0  0  0  0
  144.8753  144.2517  156.5374 H   0  0  0  0  0  0  0  0  0  0  0  0
  146.4781  143.5904  155.9254 H   0  0  0  0  0  0  0  0  0  0  0  0
  147.2237  142.8411  154.7430 H   0  0  0  0  0  0  0  0  0  0  0  0
  146.9324  142.4456  153.0474 H   0  0  0  0  0  0  0  0  0  0  0  0
  149.8458  143.9379  156.7602 H   0  0  0  0  0  0  0  0  0  0  0  0
  152.3316  141.6915  158.5101 H   0  0  0  0  0  0  0  0  0  0  0  0
  153.3301  142.3876  160.6695 H   0  0  0  0  0  0  0  0  0  0  0  0
  152.5707  144.5291  161.7266 H   0  0  0  0  0  0  0  0  0  0  0  0
  149.9200  145.2918  158.6564 H   0  0  0  0  0  0  0  0  0  0  0  0
  145.1034  141.2706  153.5792 H   0  0  0  0  0  0  0  0  0  0  0  0
  1  2  2  0  0  0  0
  2  3  1  0  0  0  0
  2 13  1  0  0  0  0
  3  4  1  0  0  0  0
  3 20  1  0  0  0  0
  4  5  1  0  0  0  0
  4 21  1  0  0  0  0
  4 22  1  0  0  0  0
  5 12  1  0  0  0  0
  5  6  1  0  0  0  0
  5 23  1  0  0  0  0
  6  7  1  0  0  0  0
  6 24  1  0  0  0  0
  6 25  1  0  0  0  0
  7  8  1  0  0  0  0
  7 26  1  0  0  0  0
  7 27  1  0  0  0  0
  8  9  1  0  0  0  0
  8 12  1  0  0  0  0
  8 40  1  0  0  0  0
  9 11  1  0  0  0  0
  9 10  1  0  0  0  0
  9 28  1  0  0  0  0
 10 11  1  0  0  0  0
 10 29  1  0  0  0  0
 10 30  1  0  0  0  0
 11 31  1  0  0  0  0
 11 32  1  0  0  0  0
 12 33  1  0  0  0  0
 12 34  1  0  0  0  0
 13 14  1  0  0  0  0
 13 35  1  0  0  0  0
 14 19  1  0  0  0  0
 14 15  2  0  0  0  0
 15 16  1  0  0  0  0
 15 36  1  0  0  0  0
 16 17  2  0  0  0  0
 16 37  1  0  0  0  0
 17 18  1  0  0  0  0
 17 38  1  0  0  0  0
 18 19  2  0  0  0  0
 19 39  1  0  0  0  0
M  CHG  1   8   1
M  END
> <s_m_source_file>
AV-unprocessed.smi

> <i_m_source_file_index>
3347

> <i_lp_mmshare_version>
43012

> <i_f3d_flags>
0

> <s_epik_input>
W2NIXTFuW2NIXVtjSF1bY0hdYzFbTkhdQyg9TylbTkhdW0NIMl1bQ0BASF0yW0NIMl1bQ0gyXU4oW0NIMl0yKVtDSF0zW0NIMl1bQ0gyXTM=

> <s_epik_cmdline>
J2VwaWtfcHl0aG9uJywgJy1waCcsICc3LjAnLCAnLXRuJywgJzgnLCAnLW1hJywgJzIwMCcsICctbWV0YWxfYmluZGluZycsICctaW1hZScsICc8aW5maWxlLm1hZT4nLCAnLW9tYWUnLCAnPG91dGZpbGUubWFlPic=

> <r_epik_Ionization_Penalty>
0.00442629

> <r_epik_Ionization_Penalty_Charging>
0.000203384

> <r_epik_Ionization_Penalty_Neutral>
0.00422291

> <r_epik_State_Penalty>
0.00301008

> <r_epik_Charging_Adjusted_Penalty>
0.00321347

> <i_epik_Tot_Q>
1

> <i_epik_Tot_abs_Q>
1

> <r_epik_Metal_State_Penalty>
-0

> <b_epik_Metal_Only>
0

> <s_lp_Force_Field>
OPLS_2005

> <r_lp_Energy>
39.1383

> <b_lp_Chiralities_Consistent>
1

> <s_lp_Variant>
AV-unprocessed.smi:3347-4

> <Gold.Version>
5.8.1

> <Gold.Id.Protein>
6NUR|6NUR_protein|mol2

> <Gold.PLP.Fitness>
50.9960

> <Gold.PLP.PLP>
-36.3156

> <Gold.PLP.part.hbond>
-3.0000

> <Gold.PLP.part.metal>
0.0000

> <Gold.PLP.part.buried>
-6.7252

> <Gold.PLP.part.nonpolar>
-26.9720

> <Gold.PLP.part.repulsive>
0.3853

> <Gold.PLP.ligand.clash>
0.0000

> <Gold.PLP.ligand.torsion>
0.7525

> <Gold.PLP.Chemscore.Hbond>
3.9920

> <Gold.PLP.Chemscore.CHOScore>
0.9816

> <Gold.PLP.Chemscore.Metal>
0.0000

> <Gold.Chemscore.Hbonds>
donor molecule, donor type, donor heavy atom, donor atom, acceptor molecule, acceptor atom, score
      L1  H     3    20       P1  8028  0.99
      L1  H     8    40       P1 10175  2.00
      L1  H    13    35       P1  8028  1.00
      L1  C    19    39       P1  8029  1.00

> <Gold.PLP.Chemscore.Internal.Correction>
1.2646

> <Gold.Rescore>
     Score         DG    S(hbond)    S(metal)    S(lipo)     H(rot)  DE(clash)    DE(int)     intcor
     19.59     -21.51       2.78        0.00      88.80       1.42       0.06       1.87       ----

> <Gold.Chemscore.Fitness>
19.5865

> <Gold.Chemscore.DG>
-21.5134

> <Gold.Chemscore.ZeroCoef>
-5.4800

> <Gold.Chemscore.Hbond>
2.7798

> <Gold.Chemscore.Metal>
0.0000

> <Gold.Chemscore.Lipo>
88.7950

> <Gold.Chemscore.Internal_Hbond>
0.0000

> <Gold.Chemscore.DEClash>
0.0580

> <Gold.Chemscore.DEInternal>
1.8689

> <Gold.Chemscore.Rot>
1.4219

> <Gold.Chemscore.Internal.Correction>
   9.000000E+99

> <Gold.Chemscore.Hbonds>
donor molecule, donor type, donor heavy atom, donor atom, acceptor molecule, acceptor atom, score
      L1  H     3    20       P1  8028  0.94
      L1  H     8    40       P1 10175  0.34
      L1  H    13    35       P1  8028  0.97

> <Gold.Chemscore.Hbond.Weighted>
-9.2845

> <Gold.Chemscore.Metal.Weighted>
-0.0000

> <Gold.Chemscore.Lipo.Weighted>
-10.3890

> <Gold.Chemscore.Internal_Hbond.Weighted>
0.0000

> <Gold.Chemscore.DEClash.Weighted>
0.0580

> <Gold.Chemscore.DEInternal.Weighted>
1.8689

> <Gold.Chemscore.Rot.Weighted>
3.6401

> <Gold.Chemscore.Internal.Correction.Weighted>
   9.000000E+99

> <Gold.Protein.RotatedTorsions>
[ 6907 6896 6895 6894 ] final    2.48 input  -60.11 | X-H torsion
[ 7974 7965 7964 7962 ] final -110.15 input  175.53 | X-H torsion
[ 8008 7997 7996 7995 ] final  -56.00 input   59.86 | X-H torsion
[ 10167 10162 10161 10158 ] final   36.68 input  -65.29 | X-H torsion
[ 10718 10713 10712 10709 ] final  152.91 input   66.30 | X-H torsion
[ 10763 10752 10751 10750 ] final -136.35 input  -60.55 | X-H torsion
[ 11005 11000 10999 10996 ] final   33.37 input  -57.11 | X-H torsion

> <Gold.Protein.ActiveResidues>
 VAL166  LYS551  ARG553  GLY616  TRP617  ASP618  TYR619  PRO620  LYS621  CYS622 
 ASP623  PHE694  ASN695  SER759  ASP760  ASP761  ALA762  ILE779  LEU786  VAL792 
 PHE793  MET794  SER795  GLU796  ALA797  LYS798  CYS799  TRP800  GLU811  SER814 

> <Gold.Protein.RotatedAtoms>
  151.6096  135.1041  160.0077 H   0  0  0  0  0  0  0  0  0  0  0  0  # atno 6907 bound_to 6896
  152.4215  133.7120  159.6495 H   0  0  0  0  0  0  0  0  0  0  0  0  # atno 6908 bound_to 6896
  150.8103  133.8361  159.3207 H   0  0  0  0  0  0  0  0  0  0  0  0  # atno 6909 bound_to 6896
  145.1717  140.8929  143.3531 H   0  0  0  0  0  0  0  0  0  0  0  0  # atno 7974 bound_to 7965
  154.4214  140.1140  156.5567 H   0  0  0  0  0  0  0  0  0  0  0  0  # atno 8008 bound_to 7997
  155.6353  140.3496  155.4677 H   0  0  0  0  0  0  0  0  0  0  0  0  # atno 8009 bound_to 7997
  155.9915  140.1180  157.0624 H   0  0  0  0  0  0  0  0  0  0  0  0  # atno 8010 bound_to 7997
  140.4105  144.1599  150.6139 H   0  0  0  0  0  0  0  0  0  0  0  0  # atno 10167 bound_to 10162
  157.2517  131.0780  151.1725 H   0  0  0  0  0  0  0  0  0  0  0  0  # atno 10718 bound_to 10713
  154.8685  135.3675  154.5047 H   0  0  0  0  0  0  0  0  0  0  0  0  # atno 10763 bound_to 10752
  153.5685  135.7021  153.5520 H   0  0  0  0  0  0  0  0  0  0  0  0  # atno 10764 bound_to 10752
  153.3563  135.4058  155.1648 H   0  0  0  0  0  0  0  0  0  0  0  0  # atno 10765 bound_to 10752
  140.2638  134.3161  155.7849 H   0  0  0  0  0  0  0  0  0  0  0  0  # atno 11005 bound_to 11000
  145.0226  139.3411  143.6065 LP  0  0  0  0  0  0  0  0  0  0  0  0  # atno 17320 bound_to 7965
  146.3467  139.9532  142.8726 LP  0  0  0  0  0  0  0  0  0  0  0  0  # atno 17321 bound_to 7965
  140.4643  143.2437  151.9177 LP  0  0  0  0  0  0  0  0  0  0  0  0  # atno 17342 bound_to 10162
  139.4782  144.5435  151.8492 LP  0  0  0  0  0  0  0  0  0  0  0  0  # atno 17343 bound_to 10162
  157.3271  130.6966  149.6302 LP  0  0  0  0  0  0  0  0  0  0  0  0  # atno 17370 bound_to 10713
  155.9666  130.4318  150.4937 LP  0  0  0  0  0  0  0  0  0  0  0  0  # atno 17371 bound_to 10713
  141.2187  133.7426  156.9229 LP  0  0  0  0  0  0  0  0  0  0  0  0  # atno 17394 bound_to 11000
  140.1438  134.9276  157.2503 LP  0  0  0  0  0  0  0  0  0  0  0  0  # atno 17395 bound_to 11000

$$$$
