AV-unprocessed.smi:3348|AV-procd|sdf|12921|dock8
  -GOLD-   2272019343D 1   1.00000     0.00000
 Structure written by MMmdl.
 47 48  0  0  0  0  0  0  0  0  2 V2000
  143.7139  136.4433  152.0547 C   0  0  0  0  0  0  0  0  0  0  0  0
  145.1555  135.9514  151.8463 C   0  0  2  0  0  0  0  0  0  0  0  0
  145.3085  134.4897  152.3100 C   0  0  0  0  0  0  0  0  0  0  0  0
  145.1846  133.5464  151.2126 N   0  0  0  0  0  0  0  0  0  0  0  0
  144.1021  133.3358  150.3843 C   0  0  0  0  0  0  0  0  0  0  0  0
  144.4520  132.3562  149.5000 C   0  0  0  0  0  0  0  0  0  0  0  0
  145.7849  132.0247  149.8718 C   0  0  0  0  0  0  0  0  0  0  0  0
  146.2220  132.7410  150.8955 N   0  0  0  0  0  0  0  0  0  0  0  0
  146.1134  136.8208  152.5664 N   0  3  0  0  0  0  0  0  0  0  0  0
  146.3088  138.1632  151.9809 C   0  0  0  0  0  0  0  0  0  0  0  0
  146.7864  139.1576  153.0435 C   0  0  0  0  0  0  0  0  0  0  0  0
  148.2035  139.0978  153.1088 O   0  0  0  0  0  0  0  0  0  0  0  0
  148.7580  139.5317  154.3450 C   0  0  1  0  0  0  0  0  0  0  0  0
  150.0608  138.7550  154.6330 C   0  0  0  0  0  0  0  0  0  0  0  0
  150.7678  139.2835  155.8896 C   0  0  0  0  0  0  0  0  0  0  0  0
  151.0445  140.7886  155.7739 C   0  0  0  0  0  0  0  0  0  0  0  0
  149.7501  141.5675  155.4958 C   0  0  0  0  0  0  0  0  0  0  0  0
  149.0304  141.0494  154.2342 C   0  0  2  0  0  0  0  0  0  0  0  0
  147.7379  141.8437  153.9843 C   0  0  0  0  0  0  0  0  0  0  0  0
  143.0036  135.8045  151.5290 H   0  0  0  0  0  0  0  0  0  0  0  0
  143.5732  137.4563  151.6782 H   0  0  0  0  0  0  0  0  0  0  0  0
  143.4425  136.4394  153.1109 H   0  0  0  0  0  0  0  0  0  0  0  0
  145.3832  135.9898  150.7796 H   0  0  0  0  0  0  0  0  0  0  0  0
  146.2680  134.3364  152.8070 H   0  0  0  0  0  0  0  0  0  0  0  0
  144.5381  134.2472  153.0434 H   0  0  0  0  0  0  0  0  0  0  0  0
  143.1834  133.8940  150.4915 H   0  0  0  0  0  0  0  0  0  0  0  0
  143.8472  131.9384  148.7088 H   0  0  0  0  0  0  0  0  0  0  0  0
  146.4430  131.2909  149.4303 H   0  0  0  0  0  0  0  0  0  0  0  0
  145.8114  136.9162  153.5257 H   0  0  0  0  0  0  0  0  0  0  0  0
  147.0539  138.0931  151.1879 H   0  0  0  0  0  0  0  0  0  0  0  0
  145.3864  138.5225  151.5250 H   0  0  0  0  0  0  0  0  0  0  0  0
  146.4506  140.1668  152.7989 H   0  0  0  0  0  0  0  0  0  0  0  0
  146.3528  138.8924  154.0075 H   0  0  0  0  0  0  0  0  0  0  0  0
  148.0461  139.3676  155.1563 H   0  0  0  0  0  0  0  0  0  0  0  0
  149.8566  137.6923  154.7603 H   0  0  0  0  0  0  0  0  0  0  0  0
  150.7328  138.8389  153.7777 H   0  0  0  0  0  0  0  0  0  0  0  0
  150.1491  139.0902  156.7669 H   0  0  0  0  0  0  0  0  0  0  0  0
  151.7031  138.7451  156.0447 H   0  0  0  0  0  0  0  0  0  0  0  0
  151.5087  141.1536  156.6904 H   0  0  0  0  0  0  0  0  0  0  0  0
  151.7603  140.9691  154.9712 H   0  0  0  0  0  0  0  0  0  0  0  0
  149.0869  141.4870  156.3582 H   0  0  0  0  0  0  0  0  0  0  0  0
  149.9822  142.6272  155.3840 H   0  0  0  0  0  0  0  0  0  0  0  0
  149.6915  141.2148  153.3818 H   0  0  0  0  0  0  0  0  0  0  0  0
  147.0236  141.7034  154.7960 H   0  0  0  0  0  0  0  0  0  0  0  0
  147.2536  141.5356  153.0574 H   0  0  0  0  0  0  0  0  0  0  0  0
  147.9443  142.9113  153.9040 H   0  0  0  0  0  0  0  0  0  0  0  0
  147.0109  136.3556  152.5606 H   0  0  0  0  0  0  0  0  0  0  0  0
  1  2  1  0  0  0  0
  1 20  1  0  0  0  0
  1 21  1  0  0  0  0
  1 22  1  0  0  0  0
  2  3  1  0  0  0  0
  2  9  1  0  0  0  0
  2 23  1  0  0  0  0
  3  4  1  0  0  0  0
  3 24  1  0  0  0  0
  3 25  1  0  0  0  0
  4  8  1  0  0  0  0
  4  5  1  0  0  0  0
  5  6  2  0  0  0  0
  5 26  1  0  0  0  0
  6  7  1  0  0  0  0
  6 27  1  0  0  0  0
  7  8  2  0  0  0  0
  7 28  1  0  0  0  0
  9 10  1  0  0  0  0
  9 29  1  0  0  0  0
  9 47  1  0  0  0  0
 10 11  1  0  0  0  0
 10 30  1  0  0  0  0
 10 31  1  0  0  0  0
 11 12  1  0  0  0  0
 11 32  1  0  0  0  0
 11 33  1  0  0  0  0
 12 13  1  0  0  0  0
 13 18  1  0  0  0  0
 13 14  1  0  0  0  0
 13 34  1  0  0  0  0
 14 15  1  0  0  0  0
 14 35  1  0  0  0  0
 14 36  1  0  0  0  0
 15 16  1  0  0  0  0
 15 37  1  0  0  0  0
 15 38  1  0  0  0  0
 16 17  1  0  0  0  0
 16 39  1  0  0  0  0
 16 40  1  0  0  0  0
 17 18  1  0  0  0  0
 17 41  1  0  0  0  0
 17 42  1  0  0  0  0
 18 19  1  0  0  0  0
 18 43  1  0  0  0  0
 19 44  1  0  0  0  0
 19 45  1  0  0  0  0
 19 46  1  0  0  0  0
M  CHG  1   9   1
M  END
> <s_m_source_file>
AV-unprocessed.smi

> <i_m_source_file_index>
3348

> <i_lp_mmshare_version>
43012

> <i_f3d_flags>
0

> <s_epik_input>
bjFbY0hdW2NIXVtjSF1uMVtDSDJdW0NAQEhdKFtDSDNdKVtOSF1bQ0gyXVtDSDJdT1tDQEBIXTJbQ0gyXVtDSDJdW0NIMl1bQ0gyXVtDQEhdMltDSDNd

> <s_epik_cmdline>
J2VwaWtfcHl0aG9uJywgJy1waCcsICc3LjAnLCAnLXRuJywgJzgnLCAnLW1hJywgJzIwMCcsICctbWV0YWxfYmluZGluZycsICctaW1hZScsICc8aW5maWxlLm1hZT4nLCAnLW9tYWUnLCAnPG91dGZpbGUubWFlPic=

> <r_lp_tautomer_probability>
1

> <r_epik_Ionization_Penalty>
0.00925088

> <r_epik_Ionization_Penalty_Charging>
0.00924645

> <r_epik_Ionization_Penalty_Neutral>
4.42413e-06

> <r_epik_State_Penalty>
0.0070118

> <r_epik_Charging_Adjusted_Penalty>
0.0162583

> <i_epik_Tot_Q>
1

> <i_epik_Tot_abs_Q>
1

> <r_epik_Metal_State_Penalty>
0.00701222

> <b_epik_Metal_Only>
0

> <s_lp_Force_Field>
OPLS_2005

> <r_lp_Energy>
15.6253

> <b_lp_Chiralities_Consistent>
1

> <s_lp_Variant>
AV-unprocessed.smi:3348-7

> <Gold.Version>
5.8.1

> <Gold.Id.Protein>
6NUR|6NUR_protein|mol2

> <Gold.PLP.Fitness>
47.5027

> <Gold.PLP.PLP>
-39.3009

> <Gold.PLP.part.hbond>
-1.0000

> <Gold.PLP.part.metal>
0.0000

> <Gold.PLP.part.buried>
-5.7824

> <Gold.PLP.part.nonpolar>
-37.9652

> <Gold.PLP.part.repulsive>
3.8088

> <Gold.PLP.ligand.clash>
0.0000

> <Gold.PLP.ligand.torsion>
1.4266

> <Gold.PLP.Chemscore.Hbond>
2.0000

> <Gold.PLP.Chemscore.CHOScore>
1.6465

> <Gold.PLP.Chemscore.Metal>
0.0000

> <Gold.Chemscore.Hbonds>
donor molecule, donor type, donor heavy atom, donor atom, acceptor molecule, acceptor atom, score
      L1  H     9    47       P1  7948  1.84
      L1  C     5    26       P1 10186  1.00
      L1  C     7    28       P1 10747  0.55

> <Gold.PLP.Chemscore.Internal.Correction>
0.1154

> <Gold.Rescore>
     Score         DG    S(hbond)    S(metal)    S(lipo)     H(rot)  DE(clash)    DE(int)     intcor
     12.71     -16.79       0.99        0.00     108.14       1.82       1.58       2.50       ----

> <Gold.Chemscore.Fitness>
12.7101

> <Gold.Chemscore.DG>
-16.7918

> <Gold.Chemscore.ZeroCoef>
-5.4800

> <Gold.Chemscore.Hbond>
0.9907

> <Gold.Chemscore.Metal>
0.0000

> <Gold.Chemscore.Lipo>
108.1415

> <Gold.Chemscore.Internal_Hbond>
0.0000

> <Gold.Chemscore.DEClash>
1.5771

> <Gold.Chemscore.DEInternal>
2.5045

> <Gold.Chemscore.Rot>
1.8163

> <Gold.Chemscore.Internal.Correction>
   9.000000E+99

> <Gold.Chemscore.Hbonds>
donor molecule, donor type, donor heavy atom, donor atom, acceptor molecule, acceptor atom, score
      L1  H     9    47       P1  7948  0.83

> <Gold.Chemscore.Hbond.Weighted>
-3.3090

> <Gold.Chemscore.Metal.Weighted>
-0.0000

> <Gold.Chemscore.Lipo.Weighted>
-12.6526

> <Gold.Chemscore.Internal_Hbond.Weighted>
0.0000

> <Gold.Chemscore.DEClash.Weighted>
1.5771

> <Gold.Chemscore.DEInternal.Weighted>
2.5045

> <Gold.Chemscore.Rot.Weighted>
4.6497

> <Gold.Chemscore.Internal.Correction.Weighted>
   9.000000E+99

> <Gold.Protein.RotatedTorsions>
[ 6907 6896 6895 6894 ] final   -0.10 input  -60.11 | X-H torsion
[ 7974 7965 7964 7962 ] final   24.49 input  175.53 | X-H torsion
[ 8008 7997 7996 7995 ] final   49.46 input   59.86 | X-H torsion
[ 10167 10162 10161 10158 ] final -150.87 input  -65.29 | X-H torsion
[ 10718 10713 10712 10709 ] final  -32.04 input   66.30 | X-H torsion
[ 10763 10752 10751 10750 ] final  -13.11 input  -60.55 | X-H torsion
[ 11005 11000 10999 10996 ] final  129.57 input  -57.11 | X-H torsion

> <Gold.Protein.ActiveResidues>
 VAL166  LYS551  ARG553  GLY616  TRP617  ASP618  TYR619  PRO620  LYS621  CYS622 
 ASP623  PHE694  ASN695  SER759  ASP760  ASP761  ALA762  ILE779  LEU786  VAL792 
 PHE793  MET794  SER795  GLU796  ALA797  LYS798  CYS799  TRP800  GLU811  SER814 

> <Gold.Protein.RotatedAtoms>
  151.5677  135.1063  159.9987 H   0  0  0  0  0  0  0  0  0  0  0  0  # atno 6907 bound_to 6896
  152.4416  133.7454  159.6675 H   0  0  0  0  0  0  0  0  0  0  0  0  # atno 6908 bound_to 6896
  150.8322  133.8003  159.3117 H   0  0  0  0  0  0  0  0  0  0  0  0  # atno 6909 bound_to 6896
  146.1935  139.7598  142.8814 H   0  0  0  0  0  0  0  0  0  0  0  0  # atno 7974 bound_to 7965
  155.4026  140.3438  155.4258 H   0  0  0  0  0  0  0  0  0  0  0  0  # atno 8008 bound_to 7997
  156.1495  140.1566  156.8825 H   0  0  0  0  0  0  0  0  0  0  0  0  # atno 8009 bound_to 7997
  154.5040  140.0807  156.7837 H   0  0  0  0  0  0  0  0  0  0  0  0  # atno 8010 bound_to 7997
  139.7317  143.8798  152.2536 H   0  0  0  0  0  0  0  0  0  0  0  0  # atno 10167 bound_to 10162
  156.3798  130.4354  149.7478 H   0  0  0  0  0  0  0  0  0  0  0  0  # atno 10718 bound_to 10713
  153.5084  135.7016  153.5794 H   0  0  0  0  0  0  0  0  0  0  0  0  # atno 10763 bound_to 10752
  153.3895  135.3899  155.1913 H   0  0  0  0  0  0  0  0  0  0  0  0  # atno 10764 bound_to 10752
  154.8705  135.3855  154.4562 H   0  0  0  0  0  0  0  0  0  0  0  0  # atno 10765 bound_to 10752
  139.9623  134.9599  156.9167 H   0  0  0  0  0  0  0  0  0  0  0  0  # atno 11005 bound_to 11000
  145.3718  141.0344  143.3227 LP  0  0  0  0  0  0  0  0  0  0  0  0  # atno 17320 bound_to 7965
  144.8533  139.5288  143.6846 LP  0  0  0  0  0  0  0  0  0  0  0  0  # atno 17321 bound_to 7965
  139.8723  144.7061  150.8973 LP  0  0  0  0  0  0  0  0  0  0  0  0  # atno 17342 bound_to 10162
  140.7772  143.3728  151.1618 LP  0  0  0  0  0  0  0  0  0  0  0  0  # atno 17343 bound_to 10162
  156.4573  130.7935  151.2955 LP  0  0  0  0  0  0  0  0  0  0  0  0  # atno 17370 bound_to 10713
  157.7491  131.0077  150.3199 LP  0  0  0  0  0  0  0  0  0  0  0  0  # atno 17371 bound_to 10713
  140.5474  134.0661  155.7359 LP  0  0  0  0  0  0  0  0  0  0  0  0  # atno 17394 bound_to 11000
  141.1300  133.9317  157.2554 LP  0  0  0  0  0  0  0  0  0  0  0  0  # atno 17395 bound_to 11000

$$$$
