AV-unprocessed.smi:1900|AV-procd|sdf|7711|dock3
  -GOLD-   22720 9453D 1   1.00000     0.00000
 Structure written by MMmdl.
 44 45  0  0  0  0  0  0  0  0  2 V2000
  151.6024  137.4870  155.0645 C   0  0  0  0  0  0  0  0  0  0  0  0
  150.4969  138.4571  155.4950 C   0  0  2  0  0  0  0  0  0  0  0  0
  149.5276  138.7791  154.3389 C   0  0  0  0  0  0  0  0  0  0  0  0
  148.5185  139.7876  154.7453 N   0  3  1  0  0  0  0  0  0  0  0  0
  147.4249  139.2292  155.5845 C   0  0  0  0  0  0  0  0  0  0  0  0
  147.0705  137.7821  155.2026 C   0  0  0  0  0  0  0  0  0  0  0  0
  146.0737  137.7184  154.0332 C   0  0  0  0  0  0  0  0  0  0  0  0
  146.4135  136.6617  153.0872 N   0  0  0  0  0  0  0  0  0  0  0  0
  145.6221  135.6265  152.7729 C   0  0  0  0  0  0  0  0  0  0  0  0
  144.5115  135.4440  153.2722 O   0  0  0  0  0  0  0  0  0  0  0  0
  146.1974  134.8326  151.8549 N   0  0  0  0  0  0  0  0  0  0  0  0
  145.6604  133.6540  151.2780 C   0  0  0  0  0  0  0  0  0  0  0  0
  144.2822  133.3065  151.2826 C   0  0  0  0  0  0  0  0  0  0  0  0
  144.0731  132.1495  150.6711 N   0  0  0  0  0  0  0  0  0  0  0  0
  145.3046  131.7558  150.2751 N   0  0  0  0  0  0  0  0  0  0  0  0
  146.3014  132.6407  150.6219 C   0  0  0  0  0  0  0  0  0  0  0  0
  149.1879  140.9888  155.3068 C   0  0  0  0  0  0  0  0  0  0  0  0
  150.1808  140.6160  156.4288 C   0  0  2  0  0  0  0  0  0  0  0  0
  150.9652  141.8337  156.9293 C   0  0  0  0  0  0  0  0  0  0  0  0
  151.1142  139.6637  155.9299 O   0  0  0  0  0  0  0  0  0  0  0  0
  145.4470  130.8901  149.7744 H   0  0  0  0  0  0  0  0  0  0  0  0
  151.1830  136.5407  154.7222 H   0  0  0  0  0  0  0  0  0  0  0  0
  152.2761  137.2705  155.8942 H   0  0  0  0  0  0  0  0  0  0  0  0
  152.1987  137.9026  154.2518 H   0  0  0  0  0  0  0  0  0  0  0  0
  149.9524  138.0096  156.3280 H   0  0  0  0  0  0  0  0  0  0  0  0
  150.0892  139.1817  153.4948 H   0  0  0  0  0  0  0  0  0  0  0  0
  149.0393  137.8741  153.9754 H   0  0  0  0  0  0  0  0  0  0  0  0
  147.7485  139.2281  156.6262 H   0  0  0  0  0  0  0  0  0  0  0  0
  146.5393  139.8634  155.5425 H   0  0  0  0  0  0  0  0  0  0  0  0
  147.9686  137.2294  154.9283 H   0  0  0  0  0  0  0  0  0  0  0  0
  146.6488  137.2762  156.0722 H   0  0  0  0  0  0  0  0  0  0  0  0
  145.0571  137.5731  154.4025 H   0  0  0  0  0  0  0  0  0  0  0  0
  146.0749  138.6656  153.4933 H   0  0  0  0  0  0  0  0  0  0  0  0
  147.3091  136.7326  152.6263 H   0  0  0  0  0  0  0  0  0  0  0  0
  147.1119  135.1050  151.5249 H   0  0  0  0  0  0  0  0  0  0  0  0
  143.4441  133.8436  151.7016 H   0  0  0  0  0  0  0  0  0  0  0  0
  147.3388  132.4690  150.3756 H   0  0  0  0  0  0  0  0  0  0  0  0
  149.7295  141.4778  154.4958 H   0  0  0  0  0  0  0  0  0  0  0  0
  148.4599  141.7167  155.6619 H   0  0  0  0  0  0  0  0  0  0  0  0
  149.6487  140.1848  157.2778 H   0  0  0  0  0  0  0  0  0  0  0  0
  150.2949  142.5931  157.3328 H   0  0  0  0  0  0  0  0  0  0  0  0
  151.5436  142.2901  156.1254 H   0  0  0  0  0  0  0  0  0  0  0  0
  151.6604  141.5511  157.7200 H   0  0  0  0  0  0  0  0  0  0  0  0
  148.0670  140.0825  153.8909 H   0  0  0  0  0  0  0  0  0  0  0  0
  1  2  1  0  0  0  0
  1 22  1  0  0  0  0
  1 23  1  0  0  0  0
  1 24  1  0  0  0  0
  2 20  1  0  0  0  0
  2  3  1  0  0  0  0
  2 25  1  0  0  0  0
  3  4  1  0  0  0  0
  3 26  1  0  0  0  0
  3 27  1  0  0  0  0
  4  5  1  0  0  0  0
  4 17  1  0  0  0  0
  4 44  1  0  0  0  0
  5  6  1  0  0  0  0
  5 28  1  0  0  0  0
  5 29  1  0  0  0  0
  6  7  1  0  0  0  0
  6 30  1  0  0  0  0
  6 31  1  0  0  0  0
  7  8  1  0  0  0  0
  7 32  1  0  0  0  0
  7 33  1  0  0  0  0
  8  9  1  0  0  0  0
  8 34  1  0  0  0  0
  9 10  2  0  0  0  0
  9 11  1  0  0  0  0
 11 12  1  0  0  0  0
 11 35  1  0  0  0  0
 12 16  2  0  0  0  0
 12 13  1  0  0  0  0
 13 14  2  0  0  0  0
 13 36  1  0  0  0  0
 14 15  1  0  0  0  0
 15 21  1  0  0  0  0
 15 16  1  0  0  0  0
 16 37  1  0  0  0  0
 17 18  1  0  0  0  0
 17 38  1  0  0  0  0
 17 39  1  0  0  0  0
 18 19  1  0  0  0  0
 18 20  1  0  0  0  0
 18 40  1  0  0  0  0
 19 41  1  0  0  0  0
 19 42  1  0  0  0  0
 19 43  1  0  0  0  0
M  CHG  1   4   1
M  END
> <s_m_source_file>
AV-unprocessed.smi

> <i_m_source_file_index>
1900

> <i_lp_mmshare_version>
43012

> <i_f3d_flags>
0

> <s_epik_input>
W0NIM11bQ0BASF0xW0NIMl1OKFtDSDJdW0NASF0oTzEpW0NIM10pW0NIMl1bQ0gyXVtDSDJdW05IXUMoPU8pW05IXWMyW2NIXW5bbkhdW2NIXTI=

> <s_epik_cmdline>
J2VwaWtfcHl0aG9uJywgJy1waCcsICc3LjAnLCAnLXRuJywgJzgnLCAnLW1hJywgJzIwMCcsICctbWV0YWxfYmluZGluZycsICctaW1hZScsICc8aW5maWxlLm1hZT4nLCAnLW9tYWUnLCAnPG91dGZpbGUubWFlPic=

> <r_lp_tautomer_probability>
0.5

> <r_epik_Ionization_Penalty>
0.270543

> <r_epik_Ionization_Penalty_Charging>
0.270496

> <r_epik_Ionization_Penalty_Neutral>
4.67091e-05

> <r_epik_State_Penalty>
0.262618

> <r_epik_Charging_Adjusted_Penalty>
0.533114

> <i_epik_Tot_Q>
1

> <i_epik_Tot_abs_Q>
1

> <r_epik_Metal_State_Penalty>
0.262618

> <b_epik_Metal_Only>
0

> <s_lp_Force_Field>
OPLS_2005

> <r_lp_Energy>
20.3326

> <b_lp_Chiralities_Consistent>
1

> <s_lp_Variant>
AV-unprocessed.smi:1900-3

> <Gold.Version>
5.8.1

> <Gold.Id.Protein>
6NUR|6NUR_protein|mol2

> <Gold.PLP.Fitness>
40.4674

> <Gold.PLP.PLP>
-28.5097

> <Gold.PLP.part.hbond>
-3.0000

> <Gold.PLP.part.metal>
0.0000

> <Gold.PLP.part.buried>
-4.3990

> <Gold.PLP.part.nonpolar>
-22.9305

> <Gold.PLP.part.repulsive>
0.8819

> <Gold.PLP.ligand.clash>
0.0000

> <Gold.PLP.ligand.torsion>
0.7298

> <Gold.PLP.Chemscore.Hbond>
2.6985

> <Gold.PLP.Chemscore.CHOScore>
1.7550

> <Gold.PLP.Chemscore.Metal>
0.0000

> <Gold.Chemscore.Hbonds>
donor molecule, donor type, donor heavy atom, donor atom, acceptor molecule, acceptor atom, score
      L1  H     8    34       P1  7948  1.00
      L1  H    11    35       P1  7948  0.73
      L1  C    16    37       P1 10747  1.00

> <Gold.PLP.Chemscore.Internal.Correction>
0.0569

> <Gold.Rescore>
     Score         DG    S(hbond)    S(metal)    S(lipo)     H(rot)  DE(clash)    DE(int)     intcor
     15.34     -18.05       2.62        0.00      74.96       1.93       0.78       1.93       ----

> <Gold.Chemscore.Fitness>
15.3433

> <Gold.Chemscore.DG>
-18.0468

> <Gold.Chemscore.ZeroCoef>
-5.4800

> <Gold.Chemscore.Hbond>
2.6195

> <Gold.Chemscore.Metal>
0.0000

> <Gold.Chemscore.Lipo>
74.9606

> <Gold.Chemscore.Internal_Hbond>
0.0000

> <Gold.Chemscore.DEClash>
0.7771

> <Gold.Chemscore.DEInternal>
1.9264

> <Gold.Chemscore.Rot>
1.9347

> <Gold.Chemscore.Internal.Correction>
   9.000000E+99

> <Gold.Chemscore.Hbonds>
donor molecule, donor type, donor heavy atom, donor atom, acceptor molecule, acceptor atom, score
      L1  H     8    34       P1  7948  1.00
      L1  H    11    35       P1  7948  0.61

> <Gold.Chemscore.Hbond.Weighted>
-8.7493

> <Gold.Chemscore.Metal.Weighted>
-0.0000

> <Gold.Chemscore.Lipo.Weighted>
-8.7704

> <Gold.Chemscore.Internal_Hbond.Weighted>
0.0000

> <Gold.Chemscore.DEClash.Weighted>
0.7771

> <Gold.Chemscore.DEInternal.Weighted>
1.9264

> <Gold.Chemscore.Rot.Weighted>
4.9528

> <Gold.Chemscore.Internal.Correction.Weighted>
   9.000000E+99

> <Gold.Protein.RotatedTorsions>
[ 6907 6896 6895 6894 ] final -126.81 input  -60.11 | X-H torsion
[ 7974 7965 7964 7962 ] final  147.26 input  175.53 | X-H torsion
[ 8008 7997 7996 7995 ] final   38.21 input   59.86 | X-H torsion
[ 10167 10162 10161 10158 ] final  -94.68 input  -65.29 | X-H torsion
[ 10718 10713 10712 10709 ] final -135.03 input   66.30 | X-H torsion
[ 10763 10752 10751 10750 ] final -175.58 input  -60.55 | X-H torsion
[ 11005 11000 10999 10996 ] final -134.25 input  -57.11 | X-H torsion

> <Gold.Protein.ActiveResidues>
 VAL166  LYS551  ARG553  GLY616  TRP617  ASP618  TYR619  PRO620  LYS621  CYS622 
 ASP623  PHE694  ASN695  SER759  ASP760  ASP761  ALA762  ILE779  LEU786  VAL792 
 PHE793  MET794  SER795  GLU796  ALA797  LYS798  CYS799  TRP800  GLU811  SER814 

> <Gold.Protein.RotatedAtoms>
  150.9007  133.7122  159.2879 H   0  0  0  0  0  0  0  0  0  0  0  0  # atno 6907 bound_to 6896
  151.4641  135.1039  159.9743 H   0  0  0  0  0  0  0  0  0  0  0  0  # atno 6908 bound_to 6896
  152.4875  133.8363  159.7185 H   0  0  0  0  0  0  0  0  0  0  0  0  # atno 6909 bound_to 6896
  144.8605  139.6007  143.5932 H   0  0  0  0  0  0  0  0  0  0  0  0  # atno 7974 bound_to 7965
  155.2164  140.3327  155.4321 H   0  0  0  0  0  0  0  0  0  0  0  0  # atno 8008 bound_to 7997
  156.2350  140.1868  156.7190 H   0  0  0  0  0  0  0  0  0  0  0  0  # atno 8009 bound_to 7997
  154.6044  140.0618  156.9397 H   0  0  0  0  0  0  0  0  0  0  0  0  # atno 8010 bound_to 7997
  140.3119  143.3100  152.0139 H   0  0  0  0  0  0  0  0  0  0  0  0  # atno 10167 bound_to 10162
  156.2618  130.7214  151.1151 H   0  0  0  0  0  0  0  0  0  0  0  0  # atno 10718 bound_to 10713
  154.5826  135.2837  155.0717 H   0  0  0  0  0  0  0  0  0  0  0  0  # atno 10763 bound_to 10752
  154.2047  135.6418  153.5101 H   0  0  0  0  0  0  0  0  0  0  0  0  # atno 10764 bound_to 10752
  153.0093  135.5477  154.6486 H   0  0  0  0  0  0  0  0  0  0  0  0  # atno 10765 bound_to 10752
  140.9007  134.1694  157.4462 H   0  0  0  0  0  0  0  0  0  0  0  0  # atno 11005 bound_to 11000
  146.2857  139.6997  142.9197 LP  0  0  0  0  0  0  0  0  0  0  0  0  # atno 17320 bound_to 7965
  145.4321  141.0416  143.2905 LP  0  0  0  0  0  0  0  0  0  0  0  0  # atno 17321 bound_to 7965
  139.4892  144.6378  151.6940 LP  0  0  0  0  0  0  0  0  0  0  0  0  # atno 17342 bound_to 10162
  140.5560  144.0347  150.6148 LP  0  0  0  0  0  0  0  0  0  0  0  0  # atno 17343 bound_to 10162
  157.7253  131.0654  150.5958 LP  0  0  0  0  0  0  0  0  0  0  0  0  # atno 17370 bound_to 10713
  156.6046  130.4363  149.5883 LP  0  0  0  0  0  0  0  0  0  0  0  0  # atno 17371 bound_to 10713
  139.8742  134.9897  156.5467 LP  0  0  0  0  0  0  0  0  0  0  0  0  # atno 17394 bound_to 11000
  140.8234  133.8336  155.8916 LP  0  0  0  0  0  0  0  0  0  0  0  0  # atno 17395 bound_to 11000

$$$$
