AV-unprocessed.smi:2775|AV-procd|sdf|10688|dock5
  -GOLD-   2272015133D 1   1.00000     0.00000
 Structure written by MMmdl.
 42 45  0  0  0  0  0  0  0  0  1 V2000
  143.7470  132.8058  150.8525 C   0  0  0  0  0  0  0  0  0  0  0  0
  143.7897  134.0590  151.7065 C   0  0  0  0  0  0  0  0  0  0  0  0
  142.5936  134.5089  152.1442 N   0  0  0  0  0  0  0  0  0  0  0  0
  142.5739  135.6224  152.9048 C   0  0  0  0  0  0  0  0  0  0  0  0
  143.7337  136.3307  153.2714 C   0  0  0  0  0  0  0  0  0  0  0  0
  144.9904  135.8523  152.8292 C   0  0  0  0  0  0  0  0  0  0  0  0
  146.2243  136.4929  153.1293 N   0  0  0  0  0  0  0  0  0  0  0  0
  146.5234  137.3287  154.1429 C   0  0  0  0  0  0  0  0  0  0  0  0
  145.7222  137.7386  154.9798 O   0  0  0  0  0  0  0  0  0  0  0  0
  147.8184  137.6848  154.1875 N   0  0  0  0  0  0  0  0  0  0  0  0
  148.4636  138.5767  155.1611 C   0  0  2  0  0  0  0  0  0  0  0  0
  148.0135  140.0414  155.0648 C   0  0  2  0  0  0  0  0  0  0  0  0
  146.8063  140.7486  154.5643 C   0  0  0  0  0  0  0  0  0  0  0  0
  147.5426  141.9474  153.9144 C   0  0  0  0  0  0  0  0  0  0  0  0
  148.9538  141.6165  153.9594 O   0  0  0  0  0  0  0  0  0  0  0  0
  148.9897  140.2018  153.9106 C   0  0  1  0  0  0  0  0  0  0  0  0
  149.8303  139.1626  154.6716 C   0  0  0  0  0  0  0  0  0  0  0  0
  150.9271  139.5881  155.6615 C   0  0  0  0  0  0  0  0  0  0  0  0
  151.7103  138.3372  155.2520 C   0  0  0  0  0  0  0  0  0  0  0  0
  150.8787  138.2913  153.9660 C   0  0  0  0  0  0  0  0  0  0  0  0
  145.0144  134.6971  152.0131 C   0  0  0  0  0  0  0  0  0  0  0  0
  146.5115  134.0717  151.4059 Cl  0  0  0  0  0  0  0  0  0  0  0  0
  144.3243  132.0087  151.3218 H   0  0  0  0  0  0  0  0  0  0  0  0
  144.1681  133.0028  149.8664 H   0  0  0  0  0  0  0  0  0  0  0  0
  142.7258  132.4467  150.7179 H   0  0  0  0  0  0  0  0  0  0  0  0
  141.6015  135.9634  153.2281 H   0  0  0  0  0  0  0  0  0  0  0  0
  143.6336  137.2235  153.8686 H   0  0  0  0  0  0  0  0  0  0  0  0
  147.0065  136.1998  152.5622 H   0  0  0  0  0  0  0  0  0  0  0  0
  148.4207  137.2973  153.4757 H   0  0  0  0  0  0  0  0  0  0  0  0
  148.5007  138.1844  156.1785 H   0  0  0  0  0  0  0  0  0  0  0  0
  148.3669  140.5493  155.9697 H   0  0  0  0  0  0  0  0  0  0  0  0
  146.2553  140.1608  153.8291 H   0  0  0  0  0  0  0  0  0  0  0  0
  146.1301  141.0541  155.3624 H   0  0  0  0  0  0  0  0  0  0  0  0
  147.2175  142.0885  152.8829 H   0  0  0  0  0  0  0  0  0  0  0  0
  147.3665  142.8772  154.4558 H   0  0  0  0  0  0  0  0  0  0  0  0
  148.6170  139.8252  152.9534 H   0  0  0  0  0  0  0  0  0  0  0  0
  151.4248  140.5130  155.3659 H   0  0  0  0  0  0  0  0  0  0  0  0
  150.6217  139.6102  156.7081 H   0  0  0  0  0  0  0  0  0  0  0  0
  152.7782  138.4967  155.0993 H   0  0  0  0  0  0  0  0  0  0  0  0
  151.5173  137.4872  155.9084 H   0  0  0  0  0  0  0  0  0  0  0  0
  150.5417  137.2943  153.6817 H   0  0  0  0  0  0  0  0  0  0  0  0
  151.3616  138.8062  153.1341 H   0  0  0  0  0  0  0  0  0  0  0  0
  1  2  1  0  0  0  0
  1 23  1  0  0  0  0
  1 24  1  0  0  0  0
  1 25  1  0  0  0  0
  2 21  1  0  0  0  0
  2  3  2  0  0  0  0
  3  4  1  0  0  0  0
  4  5  2  0  0  0  0
  4 26  1  0  0  0  0
  5  6  1  0  0  0  0
  5 27  1  0  0  0  0
  6  7  1  0  0  0  0
  6 21  2  0  0  0  0
  7  8  1  0  0  0  0
  7 28  1  0  0  0  0
  8  9  2  0  0  0  0
  8 10  1  0  0  0  0
 10 11  1  0  0  0  0
 10 29  1  0  0  0  0
 11 17  1  0  0  0  0
 11 12  1  0  0  0  0
 11 30  1  0  0  0  0
 12 16  1  0  0  0  0
 12 13  1  0  0  0  0
 12 31  1  0  0  0  0
 13 14  1  0  0  0  0
 13 32  1  0  0  0  0
 13 33  1  0  0  0  0
 14 15  1  0  0  0  0
 14 34  1  0  0  0  0
 14 35  1  0  0  0  0
 15 16  1  0  0  0  0
 16 17  1  0  0  0  0
 16 36  1  0  0  0  0
 17 20  1  0  0  0  0
 17 18  1  0  0  0  0
 18 19  1  0  0  0  0
 18 37  1  0  0  0  0
 18 38  1  0  0  0  0
 19 20  1  0  0  0  0
 19 39  1  0  0  0  0
 19 40  1  0  0  0  0
 20 41  1  0  0  0  0
 20 42  1  0  0  0  0
 21 22  1  0  0  0  0
M  END
> <s_m_source_file>
AV-unprocessed.smi

> <i_m_source_file_index>
2775

> <i_lp_mmshare_version>
43012

> <i_f3d_flags>
0

> <s_epik_input>
W0NIM11jMW5bY0hdW2NIXWMoYzFDbClbTkhdQyg9TylbTkhdW0NAQEhdMltDQEhdKFtDSDJdW0NIMl1PMylbQ0BASF0zQzI0W0NIMl1bQ0gyXVtDSDJdNA==

> <s_epik_cmdline>
J2VwaWtfcHl0aG9uJywgJy1waCcsICc3LjAnLCAnLXRuJywgJzgnLCAnLW1hJywgJzIwMCcsICctbWV0YWxfYmluZGluZycsICctaW1hZScsICc8aW5maWxlLm1hZT4nLCAnLW9tYWUnLCAnPG91dGZpbGUubWFlPic=

> <r_epik_Ionization_Penalty>
0.01026

> <r_epik_Ionization_Penalty_Charging>
0

> <r_epik_Ionization_Penalty_Neutral>
0.01026

> <r_epik_State_Penalty>
0.00780685

> <r_epik_Charging_Adjusted_Penalty>
0.00780685

> <i_epik_Tot_Q>
0

> <i_epik_Tot_abs_Q>
0

> <r_epik_Metal_State_Penalty>
0.00767411

> <b_epik_Metal_Only>
0

> <s_lp_Force_Field>
OPLS_2005

> <r_lp_Energy>
81.865

> <b_lp_Chiralities_Consistent>
1

> <s_lp_Variant>
AV-unprocessed.smi:2775-1

> <Gold.Version>
5.8.1

> <Gold.Id.Protein>
6NUR|6NUR_protein|mol2

> <Gold.PLP.Fitness>
40.1491

> <Gold.PLP.PLP>
-32.5014

> <Gold.PLP.part.hbond>
-3.0975

> <Gold.PLP.part.metal>
0.0000

> <Gold.PLP.part.buried>
-4.3004

> <Gold.PLP.part.nonpolar>
-25.8250

> <Gold.PLP.part.repulsive>
0.4713

> <Gold.PLP.ligand.clash>
0.0000

> <Gold.PLP.ligand.torsion>
0.2703

> <Gold.PLP.Chemscore.Hbond>
2.6240

> <Gold.PLP.Chemscore.CHOScore>
0.0000

> <Gold.PLP.Chemscore.Metal>
0.0000

> <Gold.Chemscore.Hbonds>
donor molecule, donor type, donor heavy atom, donor atom, acceptor molecule, acceptor atom, score
      L1  H     7    28       P1  7948  0.93
      L1  H    10    29       P1  7948  1.00
      P1  H  8011  8017       L1    15  0.64

> <Gold.PLP.Chemscore.Internal.Correction>
0.3163

> <Gold.Rescore>
     Score         DG    S(hbond)    S(metal)    S(lipo)     H(rot)  DE(clash)    DE(int)     intcor
     18.64     -21.66       2.43        0.00      90.92       1.00       2.01       1.01       ----

> <Gold.Chemscore.Fitness>
18.6386

> <Gold.Chemscore.DG>
-21.6646

> <Gold.Chemscore.ZeroCoef>
-5.4800

> <Gold.Chemscore.Hbond>
2.4272

> <Gold.Chemscore.Metal>
0.0000

> <Gold.Chemscore.Lipo>
90.9225

> <Gold.Chemscore.Internal_Hbond>
0.0000

> <Gold.Chemscore.DEClash>
2.0137

> <Gold.Chemscore.DEInternal>
1.0123

> <Gold.Chemscore.Rot>
1.0000

> <Gold.Chemscore.Internal.Correction>
   9.000000E+99

> <Gold.Chemscore.Hbonds>
donor molecule, donor type, donor heavy atom, donor atom, acceptor molecule, acceptor atom, score
      L1  H     7    28       P1  7948  0.88
      L1  H    10    29       P1  7948  0.95
      P1  H  8011  8017       L1    15  0.31

> <Gold.Chemscore.Hbond.Weighted>
-8.1067

> <Gold.Chemscore.Metal.Weighted>
-0.0000

> <Gold.Chemscore.Lipo.Weighted>
-10.6379

> <Gold.Chemscore.Internal_Hbond.Weighted>
0.0000

> <Gold.Chemscore.DEClash.Weighted>
2.0137

> <Gold.Chemscore.DEInternal.Weighted>
1.0123

> <Gold.Chemscore.Rot.Weighted>
2.5600

> <Gold.Chemscore.Internal.Correction.Weighted>
   9.000000E+99

> <Gold.Protein.RotatedTorsions>
[ 6907 6896 6895 6894 ] final -117.83 input  -60.11 | X-H torsion
[ 7974 7965 7964 7962 ] final  161.19 input  175.53 | X-H torsion
[ 8008 7997 7996 7995 ] final  -77.43 input   59.86 | X-H torsion
[ 10167 10162 10161 10158 ] final  142.51 input  -65.29 | X-H torsion
[ 10718 10713 10712 10709 ] final  -69.38 input   66.30 | X-H torsion
[ 10763 10752 10751 10750 ] final -149.07 input  -60.55 | X-H torsion
[ 11005 11000 10999 10996 ] final   96.94 input  -57.11 | X-H torsion

> <Gold.Protein.ActiveResidues>
 VAL166  LYS551  ARG553  GLY616  TRP617  ASP618  TYR619  PRO620  LYS621  CYS622 
 ASP623  PHE694  ASN695  SER759  ASP760  ASP761  ALA762  ILE779  LEU786  VAL792 
 PHE793  MET794  SER795  GLU796  ALA797  LYS798  CYS799  TRP800  GLU811  SER814 

> <Gold.Protein.RotatedAtoms>
  150.8169  133.8322  159.3156 H   0  0  0  0  0  0  0  0  0  0  0  0  # atno 6907 bound_to 6896
  151.6091  135.1040  160.0087 H   0  0  0  0  0  0  0  0  0  0  0  0  # atno 6908 bound_to 6896
  152.4260  133.7155  159.6560 H   0  0  0  0  0  0  0  0  0  0  0  0  # atno 6909 bound_to 6896
  144.7698  139.7863  143.6301 H   0  0  0  0  0  0  0  0  0  0  0  0  # atno 7974 bound_to 7965
  154.5595  140.0710  156.8797 H   0  0  0  0  0  0  0  0  0  0  0  0  # atno 8008 bound_to 7997
  155.2838  140.3373  155.4238 H   0  0  0  0  0  0  0  0  0  0  0  0  # atno 8009 bound_to 7997
  156.2030  140.1729  156.7844 H   0  0  0  0  0  0  0  0  0  0  0  0  # atno 8010 bound_to 7997
  139.4992  144.6102  151.6289 H   0  0  0  0  0  0  0  0  0  0  0  0  # atno 10167 bound_to 10162
  156.0458  130.4311  150.2139 H   0  0  0  0  0  0  0  0  0  0  0  0  # atno 10718 bound_to 10713
  154.8198  135.3318  154.7072 H   0  0  0  0  0  0  0  0  0  0  0  0  # atno 10763 bound_to 10752
  153.7707  135.6926  153.4911 H   0  0  0  0  0  0  0  0  0  0  0  0  # atno 10764 bound_to 10752
  153.2047  135.4503  155.0257 H   0  0  0  0  0  0  0  0  0  0  0  0  # atno 10765 bound_to 10752
  139.8778  134.8976  156.4233 H   0  0  0  0  0  0  0  0  0  0  0  0  # atno 11005 bound_to 11000
  146.1835  139.5040  142.9851 LP  0  0  0  0  0  0  0  0  0  0  0  0  # atno 17320 bound_to 7965
  145.6358  141.0294  143.1838 LP  0  0  0  0  0  0  0  0  0  0  0  0  # atno 17321 bound_to 7965
  140.5774  144.0004  150.6249 LP  0  0  0  0  0  0  0  0  0  0  0  0  # atno 17342 bound_to 10162
  140.3142  143.3178  152.0849 LP  0  0  0  0  0  0  0  0  0  0  0  0  # atno 17343 bound_to 10162
  157.0229  130.9984  151.3334 LP  0  0  0  0  0  0  0  0  0  0  0  0  # atno 17370 bound_to 10713
  157.5332  130.8072  149.7941 LP  0  0  0  0  0  0  0  0  0  0  0  0  # atno 17371 bound_to 10713
  140.9118  133.7706  155.9801 LP  0  0  0  0  0  0  0  0  0  0  0  0  # atno 17394 bound_to 11000
  140.8537  134.2923  157.5264 LP  0  0  0  0  0  0  0  0  0  0  0  0  # atno 17395 bound_to 11000

$$$$
