AV-unprocessed.smi:1074|AV-procd|sdf|4692|dock1
  -GOLD-   22720 3213D 1   1.00000     0.00000
 Structure written by MMmdl.
 44 45  0  0  0  0  0  0  0  0  1 V2000
  150.5717  137.6258  154.7794 C   0  0  0  0  0  0  0  0  0  0  0  0
  149.7642  138.8171  154.9918 N   0  0  0  0  0  0  0  0  0  0  0  0
  150.2652  140.0463  155.1848 C   0  0  0  0  0  0  0  0  0  0  0  0
  151.4743  140.2773  155.1947 O   0  0  0  0  0  0  0  0  0  0  0  0
  149.2396  141.1757  155.3998 C   0  0  2  0  0  0  0  0  0  0  0  0
  148.1604  140.8158  156.4481 C   0  0  0  0  0  0  0  0  0  0  0  0
  147.0703  139.8659  155.9163 C   0  0  0  0  0  0  0  0  0  0  0  0
  146.4308  140.4069  154.6226 C   0  0  2  0  0  0  0  0  0  0  0  0
  145.4527  139.4601  154.0959 N   0  0  0  0  0  0  0  0  0  0  0  0
  145.7093  138.1916  153.7464 C   0  0  0  0  0  0  0  0  0  0  0  0
  146.8280  137.6840  153.8137 O   0  0  0  0  0  0  0  0  0  0  0  0
  144.5938  137.5785  153.3138 N   0  0  0  0  0  0  0  0  0  0  0  0
  144.4029  136.2313  152.8989 C   0  0  0  0  0  0  0  0  0  0  0  0
  143.2186  135.4802  153.0959 C   0  0  0  0  0  0  0  0  0  0  0  0
  143.1637  134.1572  152.6174 C   0  0  0  0  0  0  0  0  0  0  0  0
  144.2868  133.6229  151.9556 C   0  0  0  0  0  0  0  0  0  0  0  0
  144.2228  132.3265  151.4870 O   0  0  0  0  0  0  0  0  0  0  0  0
  145.3649  131.7886  150.8294 C   0  0  0  0  0  0  0  0  0  0  0  0
  145.4232  134.3360  151.7609 N   0  0  0  0  0  0  0  0  0  0  0  0
  145.4692  135.6034  152.2222 C   0  0  0  0  0  0  0  0  0  0  0  0
  147.5032  140.6829  153.5545 C   0  0  0  0  0  0  0  0  0  0  0  0
  148.5870  141.6430  154.0782 C   0  0  0  0  0  0  0  0  0  0  0  0
  149.9263  136.7540  154.6732 H   0  0  0  0  0  0  0  0  0  0  0  0
  151.2407  137.4539  155.6236 H   0  0  0  0  0  0  0  0  0  0  0  0
  151.1712  137.7193  153.8731 H   0  0  0  0  0  0  0  0  0  0  0  0
  148.7611  138.7006  154.9975 H   0  0  0  0  0  0  0  0  0  0  0  0
  149.7950  142.0268  155.7979 H   0  0  0  0  0  0  0  0  0  0  0  0
  148.6250  140.3794  157.3334 H   0  0  0  0  0  0  0  0  0  0  0  0
  147.6843  141.7362  156.7885 H   0  0  0  0  0  0  0  0  0  0  0  0
  147.4892  138.8754  155.7389 H   0  0  0  0  0  0  0  0  0  0  0  0
  146.3056  139.7343  156.6828 H   0  0  0  0  0  0  0  0  0  0  0  0
  145.9287  141.3501  154.8468 H   0  0  0  0  0  0  0  0  0  0  0  0
  144.5058  139.7963  154.0001 H   0  0  0  0  0  0  0  0  0  0  0  0
  143.7658  138.1550  153.2791 H   0  0  0  0  0  0  0  0  0  0  0  0
  142.3497  135.8818  153.5914 H   0  0  0  0  0  0  0  0  0  0  0  0
  142.2721  133.5630  152.7534 H   0  0  0  0  0  0  0  0  0  0  0  0
  145.1548  130.7643  150.5222 H   0  0  0  0  0  0  0  0  0  0  0  0
  146.2314  131.7644  151.4917 H   0  0  0  0  0  0  0  0  0  0  0  0
  145.6147  132.3579  149.9329 H   0  0  0  0  0  0  0  0  0  0  0  0
  146.3925  136.1348  152.0425 H   0  0  0  0  0  0  0  0  0  0  0  0
  147.9579  139.7462  153.2306 H   0  0  0  0  0  0  0  0  0  0  0  0
  147.0384  141.1137  152.6669 H   0  0  0  0  0  0  0  0  0  0  0  0
  148.1394  142.6251  154.2360 H   0  0  0  0  0  0  0  0  0  0  0  0
  149.3495  141.7856  153.3112 H   0  0  0  0  0  0  0  0  0  0  0  0
  1  2  1  0  0  0  0
  1 23  1  0  0  0  0
  1 24  1  0  0  0  0
  1 25  1  0  0  0  0
  2  3  1  0  0  0  0
  2 26  1  0  0  0  0
  3  4  2  0  0  0  0
  3  5  1  0  0  0  0
  5 22  1  0  0  0  0
  5  6  1  0  0  0  0
  5 27  1  0  0  0  0
  6  7  1  0  0  0  0
  6 28  1  0  0  0  0
  6 29  1  0  0  0  0
  7  8  1  0  0  0  0
  7 30  1  0  0  0  0
  7 31  1  0  0  0  0
  8  9  1  0  0  0  0
  8 21  1  0  0  0  0
  8 32  1  0  0  0  0
  9 10  1  0  0  0  0
  9 33  1  0  0  0  0
 10 11  2  0  0  0  0
 10 12  1  0  0  0  0
 12 13  1  0  0  0  0
 12 34  1  0  0  0  0
 13 20  1  0  0  0  0
 13 14  2  0  0  0  0
 14 15  1  0  0  0  0
 14 35  1  0  0  0  0
 15 16  2  0  0  0  0
 15 36  1  0  0  0  0
 16 17  1  0  0  0  0
 16 19  1  0  0  0  0
 17 18  1  0  0  0  0
 18 37  1  0  0  0  0
 18 38  1  0  0  0  0
 18 39  1  0  0  0  0
 19 20  2  0  0  0  0
 20 40  1  0  0  0  0
 21 22  1  0  0  0  0
 21 41  1  0  0  0  0
 21 42  1  0  0  0  0
 22 43  1  0  0  0  0
 22 44  1  0  0  0  0
M  END
> <s_m_source_file>
AV-unprocessed.smi

> <i_m_source_file_index>
1074

> <i_lp_mmshare_version>
43012

> <i_f3d_flags>
0

> <s_epik_input>
W0NIM11bTkhdQyg9TylbQ0BASF0xW0NIMl1bQ0gyXVtDQEhdKFtDSDJdW0NIMl0xKVtOSF1DKD1PKVtOSF1jMltjSF1bY0hdYyhPW0NIM10pbltjSF0y

> <s_epik_cmdline>
J2VwaWtfcHl0aG9uJywgJy1waCcsICc3LjAnLCAnLXRuJywgJzgnLCAnLW1hJywgJzIwMCcsICctbWV0YWxfYmluZGluZycsICctaW1hZScsICc8aW5maWxlLm1hZT4nLCAnLW9tYWUnLCAnPG91dGZpbGUubWFlPic=

> <r_lp_tautomer_probability>
1

> <r_epik_Ionization_Penalty>
9.85099e-05

> <r_epik_Ionization_Penalty_Charging>
0

> <r_epik_Ionization_Penalty_Neutral>
9.85099e-05

> <r_epik_State_Penalty>
-0

> <r_epik_Charging_Adjusted_Penalty>
0

> <i_epik_Tot_Q>
0

> <i_epik_Tot_abs_Q>
0

> <r_epik_Metal_State_Penalty>
-0

> <b_epik_Metal_Only>
0

> <s_lp_Force_Field>
OPLS_2005

> <r_lp_Energy>
10.6819

> <b_lp_Chiralities_Consistent>
1

> <s_lp_Variant>
AV-unprocessed.smi:1074-2

> <Gold.Version>
5.8.1

> <Gold.Id.Protein>
6NUR|6NUR_protein|mol2

> <Gold.PLP.Fitness>
38.8624

> <Gold.PLP.PLP>
-31.6164

> <Gold.PLP.part.hbond>
-2.8959

> <Gold.PLP.part.metal>
0.0000

> <Gold.PLP.part.buried>
-4.0609

> <Gold.PLP.part.nonpolar>
-26.3777

> <Gold.PLP.part.repulsive>
0.8924

> <Gold.PLP.ligand.clash>
0.0000

> <Gold.PLP.ligand.torsion>
0.6073

> <Gold.PLP.Chemscore.Hbond>
1.7984

> <Gold.PLP.Chemscore.CHOScore>
1.0000

> <Gold.PLP.Chemscore.Metal>
0.0000

> <Gold.Chemscore.Hbonds>
donor molecule, donor type, donor heavy atom, donor atom, acceptor molecule, acceptor atom, score
      L1  H     9    33       P1 10175  0.58
      L1  H    12    34       P1 10175  0.01
      P1  H  7989  7998       L1     4  0.93
      L1  C    20    40       P1  7948  0.96

> <Gold.PLP.Chemscore.Internal.Correction>
0.0655

> <Gold.Rescore>
     Score         DG    S(hbond)    S(metal)    S(lipo)     H(rot)  DE(clash)    DE(int)     intcor
     10.44     -14.50       1.83        0.00      60.42       1.62       0.03       4.03       ----

> <Gold.Chemscore.Fitness>
10.4428

> <Gold.Chemscore.DG>
-14.5044

> <Gold.Chemscore.ZeroCoef>
-5.4800

> <Gold.Chemscore.Hbond>
1.8307

> <Gold.Chemscore.Metal>
0.0000

> <Gold.Chemscore.Lipo>
60.4220

> <Gold.Chemscore.Internal_Hbond>
0.0000

> <Gold.Chemscore.DEClash>
0.0295

> <Gold.Chemscore.DEInternal>
4.0320

> <Gold.Chemscore.Rot>
1.6248

> <Gold.Chemscore.Internal.Correction>
   9.000000E+99

> <Gold.Chemscore.Hbonds>
donor molecule, donor type, donor heavy atom, donor atom, acceptor molecule, acceptor atom, score
      L1  H     9    33       P1 10175  0.58
      L1  H    12    34       P1 10175  0.04
      P1  H  7989  7998       L1     4  0.20

> <Gold.Chemscore.Hbond.Weighted>
-6.1144

> <Gold.Chemscore.Metal.Weighted>
-0.0000

> <Gold.Chemscore.Lipo.Weighted>
-7.0694

> <Gold.Chemscore.Internal_Hbond.Weighted>
0.0000

> <Gold.Chemscore.DEClash.Weighted>
0.0295

> <Gold.Chemscore.DEInternal.Weighted>
4.0320

> <Gold.Chemscore.Rot.Weighted>
4.1595

> <Gold.Chemscore.Internal.Correction.Weighted>
   9.000000E+99

> <Gold.Protein.RotatedTorsions>
[ 6907 6896 6895 6894 ] final  -16.89 input  -60.11 | X-H torsion
[ 7974 7965 7964 7962 ] final   -9.09 input  175.53 | X-H torsion
[ 8008 7997 7996 7995 ] final   72.51 input   59.86 | X-H torsion
[ 10167 10162 10161 10158 ] final  154.64 input  -65.29 | X-H torsion
[ 10718 10713 10712 10709 ] final  -35.44 input   66.30 | X-H torsion
[ 10763 10752 10751 10750 ] final   13.40 input  -60.55 | X-H torsion
[ 11005 11000 10999 10996 ] final  -23.40 input  -57.11 | X-H torsion

> <Gold.Protein.ActiveResidues>
 VAL166  LYS551  ARG553  GLY616  TRP617  ASP618  TYR619  PRO620  LYS621  CYS622 
 ASP623  PHE694  ASN695  SER759  ASP760  ASP761  ALA762  ILE779  LEU786  VAL792 
 PHE793  MET794  SER795  GLU796  ALA797  LYS798  CYS799  TRP800  GLU811  SER814 

> <Gold.Protein.RotatedAtoms>
  151.3016  135.0770  159.9240 H   0  0  0  0  0  0  0  0  0  0  0  0  # atno 6907 bound_to 6896
  152.5296  133.9827  159.7824 H   0  0  0  0  0  0  0  0  0  0  0  0  # atno 6908 bound_to 6896
  151.0115  133.5909  159.2712 H   0  0  0  0  0  0  0  0  0  0  0  0  # atno 6909 bound_to 6896
  146.2262  140.2565  142.8349 H   0  0  0  0  0  0  0  0  0  0  0  0  # atno 7974 bound_to 7965
  155.7700  140.3484  155.5242 H   0  0  0  0  0  0  0  0  0  0  0  0  # atno 8008 bound_to 7997
  155.8831  140.1005  157.1492 H   0  0  0  0  0  0  0  0  0  0  0  0  # atno 8009 bound_to 7997
  154.4026  140.1318  156.4209 H   0  0  0  0  0  0  0  0  0  0  0  0  # atno 8010 bound_to 7997
  139.4823  144.5169  151.7937 H   0  0  0  0  0  0  0  0  0  0  0  0  # atno 10167 bound_to 10162
  156.3386  130.4290  149.7808 H   0  0  0  0  0  0  0  0  0  0  0  0  # atno 10718 bound_to 10713
  153.1725  135.6814  153.8588 H   0  0  0  0  0  0  0  0  0  0  0  0  # atno 10763 bound_to 10752
  153.7947  135.3164  155.3384 H   0  0  0  0  0  0  0  0  0  0  0  0  # atno 10764 bound_to 10752
  154.8008  135.4779  154.0362 H   0  0  0  0  0  0  0  0  0  0  0  0  # atno 10765 bound_to 10752
  140.8748  133.7695  156.0230 H   0  0  0  0  0  0  0  0  0  0  0  0  # atno 11005 bound_to 11000
  144.9372  140.8039  143.5653 LP  0  0  0  0  0  0  0  0  0  0  0  0  # atno 17320 bound_to 7965
  145.2514  139.2030  143.4940 LP  0  0  0  0  0  0  0  0  0  0  0  0  # atno 17321 bound_to 7965
  140.4679  144.1629  150.5914 LP  0  0  0  0  0  0  0  0  0  0  0  0  # atno 17342 bound_to 10162
  140.4415  143.2525  151.9467 LP  0  0  0  0  0  0  0  0  0  0  0  0  # atno 17343 bound_to 10162
  156.5053  130.8147  151.3148 LP  0  0  0  0  0  0  0  0  0  0  0  0  # atno 17370 bound_to 10713
  157.7443  130.9931  150.2661 LP  0  0  0  0  0  0  0  0  0  0  0  0  # atno 17371 bound_to 10713
  140.8531  134.2930  157.5267 LP  0  0  0  0  0  0  0  0  0  0  0  0  # atno 17394 bound_to 11000
  139.8715  134.9478  156.3978 LP  0  0  0  0  0  0  0  0  0  0  0  0  # atno 17395 bound_to 11000

$$$$
