AV-unprocessed.smi:1971|AV-procd|sdf|7968|dock1
  -GOLD-   2272010143D 1   1.00000     0.00000
 Structure written by MMmdl.
 43 44  0  0  0  0  0  0  0  0  3 V2000
  151.9091  144.4868  158.1902 C   0  0  0  0  0  0  0  0  0  0  0  0
  150.5895  143.8352  158.6274 C   0  0  0  0  0  0  0  0  0  0  0  0
  150.0199  142.9458  157.5847 N   0  3  0  0  0  0  0  0  0  0  0  0
  149.1180  141.9149  158.1536 C   0  0  0  0  0  0  0  0  0  0  0  0
  148.5155  141.0480  157.0287 C   0  0  0  0  0  0  0  0  0  0  0  0
  149.5593  140.3555  156.2599 N   0  0  0  0  0  0  0  0  0  0  0  0
  150.3203  139.3169  156.9916 C   0  0  2  0  0  0  0  0  0  0  0  0
  151.6594  139.0292  156.2705 C   0  0  0  0  0  0  0  0  0  0  0  0
  149.5014  138.0100  157.1520 C   0  0  0  0  0  0  0  0  0  0  0  0
  148.6998  138.0195  158.3701 N   0  0  0  0  0  0  0  0  0  0  0  0
  148.4755  136.9591  159.1568 C   0  0  0  0  0  0  0  0  0  0  0  0
  148.9747  135.8679  158.8730 O   0  0  0  0  0  0  0  0  0  0  0  0
  147.6857  137.2294  160.2205 N   0  5  0  0  0  0  0  0  0  0  0  0
  147.1728  136.2243  160.9490 C   0  0  0  0  0  0  0  0  0  0  0  0
  146.5944  135.1491  160.4017 N   0  0  0  0  0  0  0  0  0  0  0  0
  146.1257  134.2307  161.3430 C   0  0  0  0  0  0  0  0  0  0  0  0
  146.3444  134.6198  162.6378 C   0  0  0  0  0  0  0  0  0  0  0  0
  147.1492  136.1613  162.7140 S   0  0  0  0  0  0  0  0  0  0  0  0
  150.3811  141.4126  155.6517 C   0  0  0  0  0  0  0  0  0  0  0  0
  151.0456  142.3160  156.7142 C   0  0  0  0  0  0  0  0  0  0  0  0
  152.2542  145.1942  158.9446 H   0  0  0  0  0  0  0  0  0  0  0  0
  151.7874  145.0356  157.2558 H   0  0  0  0  0  0  0  0  0  0  0  0
  152.7024  143.7529  158.0503 H   0  0  0  0  0  0  0  0  0  0  0  0
  150.7227  143.2828  159.5587 H   0  0  0  0  0  0  0  0  0  0  0  0
  149.8775  144.6335  158.8412 H   0  0  0  0  0  0  0  0  0  0  0  0
  149.6521  141.3037  158.8823 H   0  0  0  0  0  0  0  0  0  0  0  0
  148.3084  142.4062  158.6945 H   0  0  0  0  0  0  0  0  0  0  0  0
  147.7804  140.3501  157.4249 H   0  0  0  0  0  0  0  0  0  0  0  0
  147.9484  141.6864  156.3494 H   0  0  0  0  0  0  0  0  0  0  0  0
  150.5523  139.6743  157.9938 H   0  0  0  0  0  0  0  0  0  0  0  0
  152.2073  138.2130  156.7407 H   0  0  0  0  0  0  0  0  0  0  0  0
  152.3375  139.8807  156.2939 H   0  0  0  0  0  0  0  0  0  0  0  0
  151.4968  138.7523  155.2283 H   0  0  0  0  0  0  0  0  0  0  0  0
  148.7994  137.8813  156.3290 H   0  0  0  0  0  0  0  0  0  0  0  0
  150.1625  137.1418  157.1596 H   0  0  0  0  0  0  0  0  0  0  0  0
  148.2773  138.8963  158.6375 H   0  0  0  0  0  0  0  0  0  0  0  0
  145.6465  133.3251  161.0015 H   0  0  0  0  0  0  0  0  0  0  0  0
  146.0814  134.0990  163.5459 H   0  0  0  0  0  0  0  0  0  0  0  0
  151.1305  140.9980  154.9804 H   0  0  0  0  0  0  0  0  0  0  0  0
  149.7419  142.0229  155.0121 H   0  0  0  0  0  0  0  0  0  0  0  0
  151.6158  143.0899  156.2018 H   0  0  0  0  0  0  0  0  0  0  0  0
  151.7614  141.7559  157.3164 H   0  0  0  0  0  0  0  0  0  0  0  0
  149.4433  143.5229  156.9893 H   0  0  0  0  0  0  0  0  0  0  0  0
  1  2  1  0  0  0  0
  1 21  1  0  0  0  0
  1 22  1  0  0  0  0
  1 23  1  0  0  0  0
  2  3  1  0  0  0  0
  2 24  1  0  0  0  0
  2 25  1  0  0  0  0
  3 20  1  0  0  0  0
  3  4  1  0  0  0  0
  3 43  1  0  0  0  0
  4  5  1  0  0  0  0
  4 26  1  0  0  0  0
  4 27  1  0  0  0  0
  5  6  1  0  0  0  0
  5 28  1  0  0  0  0
  5 29  1  0  0  0  0
  6  7  1  0  0  0  0
  6 19  1  0  0  0  0
  7  8  1  0  0  0  0
  7  9  1  0  0  0  0
  7 30  1  0  0  0  0
  8 31  1  0  0  0  0
  8 32  1  0  0  0  0
  8 33  1  0  0  0  0
  9 10  1  0  0  0  0
  9 34  1  0  0  0  0
  9 35  1  0  0  0  0
 10 11  1  0  0  0  0
 10 36  1  0  0  0  0
 11 12  2  0  0  0  0
 11 13  1  0  0  0  0
 13 14  1  0  0  0  0
 14 18  1  0  0  0  0
 14 15  2  0  0  0  0
 15 16  1  0  0  0  0
 16 17  2  0  0  0  0
 16 37  1  0  0  0  0
 17 18  1  0  0  0  0
 17 38  1  0  0  0  0
 19 20  1  0  0  0  0
 19 39  1  0  0  0  0
 19 40  1  0  0  0  0
 20 41  1  0  0  0  0
 20 42  1  0  0  0  0
M  CHG  1   3   1
M  CHG  1  13  -1
M  END
> <s_m_source_file>
AV-unprocessed.smi

> <i_m_source_file_index>
1971

> <i_lp_mmshare_version>
43012

> <i_f3d_flags>
0

> <s_epik_input>
W0NIM11bQ0gyXU4xW0NIMl1bQ0gyXU4oW0NIMl1bQ0gyXTEpW0NASF0oW0NIM10pW0NIMl1bTkhdQyg9TylbTkhdYzJuW2NIXVtjSF1zMg==

> <s_epik_cmdline>
J2VwaWtfcHl0aG9uJywgJy1waCcsICc3LjAnLCAnLXRuJywgJzgnLCAnLW1hJywgJzIwMCcsICctbWV0YWxfYmluZGluZycsICctaW1hZScsICc8aW5maWxlLm1hZT4nLCAnLW9tYWUnLCAnPG91dGZpbGUubWFlPic=

> <r_lp_tautomer_probability>
0.999

> <r_epik_Ionization_Penalty>
7.06996

> <r_epik_Ionization_Penalty_Charging>
5.92347

> <r_epik_Ionization_Penalty_Neutral>
1.14649

> <r_epik_State_Penalty>
6.04391

> <r_epik_Charging_Adjusted_Penalty>
11.9674

> <i_epik_Tot_Q>
0

> <i_epik_Tot_abs_Q>
2

> <r_epik_Metal_State_Penalty>
2.01291

> <b_epik_Metal_Only>
1

> <s_lp_Force_Field>
OPLS_2005

> <r_lp_Energy>
13.2012

> <b_lp_Chiralities_Consistent>
1

> <s_lp_Variant>
AV-unprocessed.smi:1971-7

> <Gold.Version>
5.8.1

> <Gold.Id.Protein>
6NUR|6NUR_protein|mol2

> <Gold.PLP.Fitness>
51.8594

> <Gold.PLP.PLP>
-37.3120

> <Gold.PLP.part.hbond>
-4.0000

> <Gold.PLP.part.metal>
0.0000

> <Gold.PLP.part.buried>
-4.9972

> <Gold.PLP.part.nonpolar>
-30.0673

> <Gold.PLP.part.repulsive>
0.2381

> <Gold.PLP.ligand.clash>
0.0000

> <Gold.PLP.ligand.torsion>
1.6738

> <Gold.PLP.Chemscore.Hbond>
5.8698

> <Gold.PLP.Chemscore.CHOScore>
0.0000

> <Gold.PLP.Chemscore.Metal>
0.0000

> <Gold.Chemscore.Hbonds>
donor molecule, donor type, donor heavy atom, donor atom, acceptor molecule, acceptor atom, score
      L1  H     3    43       P1  8028  2.00
      P1  H  6896  6908       L1    12  0.50
      P1  H  6931  6943       L1    13  0.17
      P1  H  6934  6947       L1    13  1.79

> <Gold.PLP.Chemscore.Internal.Correction>
0.2856

> <Gold.Rescore>
     Score         DG    S(hbond)    S(metal)    S(lipo)     H(rot)  DE(clash)    DE(int)     intcor
     18.92     -20.83       3.12        0.00      80.48       1.75       0.04       1.88       ----

> <Gold.Chemscore.Fitness>
18.9166

> <Gold.Chemscore.DG>
-20.8326

> <Gold.Chemscore.ZeroCoef>
-5.4800

> <Gold.Chemscore.Hbond>
3.1190

> <Gold.Chemscore.Metal>
0.0000

> <Gold.Chemscore.Lipo>
80.4824

> <Gold.Chemscore.Internal_Hbond>
0.0000

> <Gold.Chemscore.DEClash>
0.0359

> <Gold.Chemscore.DEInternal>
1.8801

> <Gold.Chemscore.Rot>
1.7505

> <Gold.Chemscore.Internal.Correction>
   9.000000E+99

> <Gold.Chemscore.Hbonds>
donor molecule, donor type, donor heavy atom, donor atom, acceptor molecule, acceptor atom, score
      L1  H     3    43       P1  8028  0.93
      P1  H  6896  6908       L1    12  0.50
      P1  H  6931  6943       L1    13  0.02
      P1  H  6934  6947       L1    13  0.73

> <Gold.Chemscore.Hbond.Weighted>
-10.4175

> <Gold.Chemscore.Metal.Weighted>
-0.0000

> <Gold.Chemscore.Lipo.Weighted>
-9.4164

> <Gold.Chemscore.Internal_Hbond.Weighted>
0.0000

> <Gold.Chemscore.DEClash.Weighted>
0.0359

> <Gold.Chemscore.DEInternal.Weighted>
1.8801

> <Gold.Chemscore.Rot.Weighted>
4.4813

> <Gold.Chemscore.Internal.Correction.Weighted>
   9.000000E+99

> <Gold.Protein.RotatedTorsions>
[ 6907 6896 6895 6894 ] final  178.51 input  -60.11 | X-H torsion
[ 7974 7965 7964 7962 ] final  -37.25 input  175.53 | X-H torsion
[ 8008 7997 7996 7995 ] final  -52.51 input   59.86 | X-H torsion
[ 10167 10162 10161 10158 ] final -104.92 input  -65.29 | X-H torsion
[ 10718 10713 10712 10709 ] final   56.19 input   66.30 | X-H torsion
[ 10763 10752 10751 10750 ] final  165.15 input  -60.55 | X-H torsion
[ 11005 11000 10999 10996 ] final  135.34 input  -57.11 | X-H torsion

> <Gold.Protein.ActiveResidues>
 VAL166  LYS551  ARG553  GLY616  TRP617  ASP618  TYR619  PRO620  LYS621  CYS622 
 ASP623  PHE694  ASN695  SER759  ASP760  ASP761  ALA762  ILE779  LEU786  VAL792 
 PHE793  MET794  SER795  GLU796  ALA797  LYS798  CYS799  TRP800  GLU811  SER814 

> <Gold.Protein.RotatedAtoms>
  151.6867  133.3311  159.3232 H   0  0  0  0  0  0  0  0  0  0  0  0  # atno 6907 bound_to 6896
  150.7798  134.6734  159.6413 H   0  0  0  0  0  0  0  0  0  0  0  0  # atno 6908 bound_to 6896
  152.3852  134.6532  160.0180 H   0  0  0  0  0  0  0  0  0  0  0  0  # atno 6909 bound_to 6896
  146.0591  140.6374  142.9006 H   0  0  0  0  0  0  0  0  0  0  0  0  # atno 7974 bound_to 7965
  154.4109  140.1222  156.5004 H   0  0  0  0  0  0  0  0  0  0  0  0  # atno 8008 bound_to 7997
  155.6901  140.3495  155.4870 H   0  0  0  0  0  0  0  0  0  0  0  0  # atno 8009 bound_to 7997
  155.9476  140.1099  157.0993 H   0  0  0  0  0  0  0  0  0  0  0  0  # atno 8010 bound_to 7997
  140.2041  143.3796  152.1105 H   0  0  0  0  0  0  0  0  0  0  0  0  # atno 10167 bound_to 10162
  157.5409  130.8697  149.8821 H   0  0  0  0  0  0  0  0  0  0  0  0  # atno 10718 bound_to 10713
  154.3196  135.2756  155.2526 H   0  0  0  0  0  0  0  0  0  0  0  0  # atno 10763 bound_to 10752
  154.4885  135.5840  153.6445 H   0  0  0  0  0  0  0  0  0  0  0  0  # atno 10764 bound_to 10752
  152.9878  135.6129  154.3380 H   0  0  0  0  0  0  0  0  0  0  0  0  # atno 10765 bound_to 10752
  139.9973  134.9492  156.9993 H   0  0  0  0  0  0  0  0  0  0  0  0  # atno 11005 bound_to 11000
  144.7164  140.4225  143.7041 LP  0  0  0  0  0  0  0  0  0  0  0  0  # atno 17320 bound_to 7965
  145.6592  139.1578  143.2818 LP  0  0  0  0  0  0  0  0  0  0  0  0  # atno 17321 bound_to 7965
  139.5205  144.7034  151.5426 LP  0  0  0  0  0  0  0  0  0  0  0  0  # atno 17342 bound_to 10162
  140.6369  143.8965  150.6656 LP  0  0  0  0  0  0  0  0  0  0  0  0  # atno 17343 bound_to 10162
  156.0496  130.3720  150.1233 LP  0  0  0  0  0  0  0  0  0  0  0  0  # atno 17370 bound_to 10713
  156.9413  130.9745  151.3515 LP  0  0  0  0  0  0  0  0  0  0  0  0  # atno 17371 bound_to 10713
  140.4794  134.1305  155.7214 LP  0  0  0  0  0  0  0  0  0  0  0  0  # atno 17394 bound_to 11000
  141.1614  133.8785  157.1836 LP  0  0  0  0  0  0  0  0  0  0  0  0  # atno 17395 bound_to 11000

$$$$
