AV-unprocessed.smi:738|AV-procd|sdf|3538|dock6
  -GOLD-   22720 0533D 1   1.00000     0.00000
 Structure written by MMmdl.
 35 37  0  0  0  0  0  0  0  0  1 V2000
  146.1827  140.8003  154.1947 N   0  0  0  0  0  0  0  0  0  0  0  0
  146.1533  141.6146  155.2543 C   0  0  0  0  0  0  0  0  0  0  0  0
  145.1383  142.2205  155.5926 O   0  0  0  0  0  0  0  0  0  0  0  0
  147.4180  141.7023  156.0583 C   0  0  0  0  0  0  0  0  0  0  0  0
  147.4160  142.2986  157.3378 C   0  0  0  0  0  0  0  0  0  0  0  0
  148.5210  142.4262  158.1020 N   0  0  0  0  0  0  0  0  0  0  0  0
  149.7017  141.9679  157.6213 C   0  0  0  0  0  0  0  0  0  0  0  0
  150.8469  142.1258  158.4237 N   0  0  0  0  0  0  0  0  0  0  0  0
  151.4410  140.8414  158.7651 C   0  0  0  0  0  0  0  0  0  0  0  0
  152.4780  141.0332  159.8791 C   0  0  0  0  0  0  0  0  0  0  0  0
  153.4785  141.9550  159.4568 O   0  0  0  0  0  0  0  0  0  0  0  0
  152.9815  143.2210  159.0172 C   0  0  2  0  0  0  0  0  0  0  0  0
  152.4690  144.1534  160.1248 C   0  0  0  0  0  0  0  0  0  0  0  0
  151.4562  145.0820  159.4371 C   0  0  0  0  0  0  0  0  0  0  0  0
  151.2719  144.5544  158.0044 C   0  0  0  0  0  0  0  0  0  0  0  0
  151.8339  143.1227  157.9986 C   0  0  2  0  0  0  0  0  0  0  0  0
  149.8116  141.3677  156.3438 C   0  0  0  0  0  0  0  0  0  0  0  0
  151.3230  140.7808  155.7419 Cl  0  0  0  0  0  0  0  0  0  0  0  0
  148.6528  141.2376  155.5541 C   0  0  0  0  0  0  0  0  0  0  0  0
  145.3585  140.6983  153.6202 H   0  0  0  0  0  0  0  0  0  0  0  0
  147.0231  140.2865  153.9733 H   0  0  0  0  0  0  0  0  0  0  0  0
  146.5034  142.6835  157.7696 H   0  0  0  0  0  0  0  0  0  0  0  0
  150.6736  140.1389  159.0923 H   0  0  0  0  0  0  0  0  0  0  0  0
  151.9132  140.4128  157.8800 H   0  0  0  0  0  0  0  0  0  0  0  0
  152.0006  141.3724  160.7984 H   0  0  0  0  0  0  0  0  0  0  0  0
  152.9571  140.0820  160.1110 H   0  0  0  0  0  0  0  0  0  0  0  0
  153.8150  143.7290  158.5299 H   0  0  0  0  0  0  0  0  0  0  0  0
  151.9600  143.5958  160.9098 H   0  0  0  0  0  0  0  0  0  0  0  0
  153.2823  144.7048  160.5972 H   0  0  0  0  0  0  0  0  0  0  0  0
  150.5083  145.0628  159.9760 H   0  0  0  0  0  0  0  0  0  0  0  0
  151.8034  146.1155  159.4276 H   0  0  0  0  0  0  0  0  0  0  0  0
  150.2395  144.6285  157.6620 H   0  0  0  0  0  0  0  0  0  0  0  0
  151.8699  145.1655  157.3273 H   0  0  0  0  0  0  0  0  0  0  0  0
  152.2214  142.8522  157.0153 H   0  0  0  0  0  0  0  0  0  0  0  0
  148.7216  140.7870  154.5745 H   0  0  0  0  0  0  0  0  0  0  0  0
  1  2  1  0  0  0  0
  1 20  1  0  0  0  0
  1 21  1  0  0  0  0
  2  3  2  0  0  0  0
  2  4  1  0  0  0  0
  4 19  1  0  0  0  0
  4  5  2  0  0  0  0
  5  6  1  0  0  0  0
  5 22  1  0  0  0  0
  6  7  2  0  0  0  0
  7  8  1  0  0  0  0
  7 17  1  0  0  0  0
  8 16  1  0  0  0  0
  8  9  1  0  0  0  0
  9 10  1  0  0  0  0
  9 23  1  0  0  0  0
  9 24  1  0  0  0  0
 10 11  1  0  0  0  0
 10 25  1  0  0  0  0
 10 26  1  0  0  0  0
 11 12  1  0  0  0  0
 12 16  1  0  0  0  0
 12 13  1  0  0  0  0
 12 27  1  0  0  0  0
 13 14  1  0  0  0  0
 13 28  1  0  0  0  0
 13 29  1  0  0  0  0
 14 15  1  0  0  0  0
 14 30  1  0  0  0  0
 14 31  1  0  0  0  0
 15 16  1  0  0  0  0
 15 32  1  0  0  0  0
 15 33  1  0  0  0  0
 16 34  1  0  0  0  0
 17 18  1  0  0  0  0
 17 19  2  0  0  0  0
 19 35  1  0  0  0  0
M  END
> <s_m_source_file>
AV-unprocessed.smi

> <i_m_source_file_index>
738

> <i_lp_mmshare_version>
43012

> <i_f3d_flags>
0

> <s_epik_input>
W05IMl1DKD1PKWMxW2NIXW5jKGMoQ2wpW2NIXTEpTihbQ0gyXVtDSDJdTzIpW0NASF0oW0NASF0yMylbQ0gyXVtDSDJdW0NIMl0z

> <s_epik_cmdline>
J2VwaWtfcHl0aG9uJywgJy1waCcsICc3LjAnLCAnLXRuJywgJzgnLCAnLW1hJywgJzIwMCcsICctbWV0YWxfYmluZGluZycsICctaW1hZScsICc8aW5maWxlLm1hZT4nLCAnLW9tYWUnLCAnPG91dGZpbGUubWFlPic=

> <r_lp_tautomer_probability>
1

> <r_epik_Ionization_Penalty>
6.75978e-06

> <r_epik_Ionization_Penalty_Charging>
0

> <r_epik_Ionization_Penalty_Neutral>
6.75978e-06

> <r_epik_State_Penalty>
-0

> <r_epik_Charging_Adjusted_Penalty>
0

> <i_epik_Tot_Q>
0

> <i_epik_Tot_abs_Q>
0

> <r_epik_Metal_State_Penalty>
-0

> <b_epik_Metal_Only>
0

> <s_lp_Force_Field>
OPLS_2005

> <r_lp_Energy>
42.794

> <b_lp_Chiralities_Consistent>
1

> <s_lp_Variant>
AV-unprocessed.smi:738-1

> <Gold.Version>
5.8.1

> <Gold.Id.Protein>
6NUR|6NUR_protein|mol2

> <Gold.PLP.Fitness>
37.1717

> <Gold.PLP.PLP>
-34.4005

> <Gold.PLP.part.hbond>
-0.9799

> <Gold.PLP.part.metal>
0.0000

> <Gold.PLP.part.buried>
-4.4658

> <Gold.PLP.part.nonpolar>
-28.9918

> <Gold.PLP.part.repulsive>
0.3454

> <Gold.PLP.ligand.clash>
0.0000

> <Gold.PLP.ligand.torsion>
0.1978

> <Gold.PLP.Chemscore.Hbond>
1.0000

> <Gold.PLP.Chemscore.CHOScore>
0.0000

> <Gold.PLP.Chemscore.Metal>
0.0000

> <Gold.Chemscore.Hbonds>
donor molecule, donor type, donor heavy atom, donor atom, acceptor molecule, acceptor atom, score
      L1  H     1    20       P1 10175  0.99

> <Gold.PLP.Chemscore.Internal.Correction>
0.1669

> <Gold.Rescore>
     Score         DG    S(hbond)    S(metal)    S(lipo)     H(rot)  DE(clash)    DE(int)     intcor
     16.74     -17.93       0.97        0.00     100.46       1.00       0.22       0.97       ----

> <Gold.Chemscore.Fitness>
16.7383

> <Gold.Chemscore.DG>
-17.9256

> <Gold.Chemscore.ZeroCoef>
-5.4800

> <Gold.Chemscore.Hbond>
0.9736

> <Gold.Chemscore.Metal>
0.0000

> <Gold.Chemscore.Lipo>
100.4599

> <Gold.Chemscore.Internal_Hbond>
0.0000

> <Gold.Chemscore.DEClash>
0.2207

> <Gold.Chemscore.DEInternal>
0.9667

> <Gold.Chemscore.Rot>
1.0000

> <Gold.Chemscore.Internal.Correction>
   9.000000E+99

> <Gold.Chemscore.Hbonds>
donor molecule, donor type, donor heavy atom, donor atom, acceptor molecule, acceptor atom, score
      L1  H     1    20       P1 10175  0.87

> <Gold.Chemscore.Hbond.Weighted>
-3.2518

> <Gold.Chemscore.Metal.Weighted>
-0.0000

> <Gold.Chemscore.Lipo.Weighted>
-11.7538

> <Gold.Chemscore.Internal_Hbond.Weighted>
0.0000

> <Gold.Chemscore.DEClash.Weighted>
0.2207

> <Gold.Chemscore.DEInternal.Weighted>
0.9667

> <Gold.Chemscore.Rot.Weighted>
2.5600

> <Gold.Chemscore.Internal.Correction.Weighted>
   9.000000E+99

> <Gold.Protein.RotatedTorsions>
[ 6907 6896 6895 6894 ] final  -75.36 input  -60.11 | X-H torsion
[ 7974 7965 7964 7962 ] final   71.14 input  175.53 | X-H torsion
[ 8008 7997 7996 7995 ] final -164.06 input   59.86 | X-H torsion
[ 10167 10162 10161 10158 ] final -169.31 input  -65.29 | X-H torsion
[ 10718 10713 10712 10709 ] final   -6.37 input   66.30 | X-H torsion
[ 10763 10752 10751 10750 ] final  175.01 input  -60.55 | X-H torsion
[ 11005 11000 10999 10996 ] final  104.76 input  -57.11 | X-H torsion

> <Gold.Protein.ActiveResidues>
 VAL166  LYS551  ARG553  GLY616  TRP617  ASP618  TYR619  PRO620  LYS621  CYS622 
 ASP623  PHE694  ASN695  SER759  ASP760  ASP761  ALA762  ILE779  LEU786  VAL792 
 PHE793  MET794  SER795  GLU796  ALA797  LYS798  CYS799  TRP800  GLU811  SER814 

> <Gold.Protein.RotatedAtoms>
  150.7061  134.4732  159.5434 H   0  0  0  0  0  0  0  0  0  0  0  0  # atno 6907 bound_to 6896
  152.2384  134.8250  160.0473 H   0  0  0  0  0  0  0  0  0  0  0  0  # atno 6908 bound_to 6896
  151.9040  133.3510  159.3877 H   0  0  0  0  0  0  0  0  0  0  0  0  # atno 6909 bound_to 6896
  145.7694  139.2836  143.1330 H   0  0  0  0  0  0  0  0  0  0  0  0  # atno 7974 bound_to 7965
  155.8302  140.0932  157.1797 H   0  0  0  0  0  0  0  0  0  0  0  0  # atno 8008 bound_to 7997
  154.3980  140.1420  156.3665 H   0  0  0  0  0  0  0  0  0  0  0  0  # atno 8009 bound_to 7997
  155.8174  140.3447  155.5496 H   0  0  0  0  0  0  0  0  0  0  0  0  # atno 8010 bound_to 7997
  139.5930  144.1172  152.1657 H   0  0  0  0  0  0  0  0  0  0  0  0  # atno 10167 bound_to 10162
  156.7328  130.5185  149.5841 H   0  0  0  0  0  0  0  0  0  0  0  0  # atno 10718 bound_to 10713
  154.4617  135.2768  155.1707 H   0  0  0  0  0  0  0  0  0  0  0  0  # atno 10763 bound_to 10752
  154.3492  135.6153  153.5638 H   0  0  0  0  0  0  0  0  0  0  0  0  # atno 10764 bound_to 10752
  152.9855  135.5807  154.4981 H   0  0  0  0  0  0  0  0  0  0  0  0  # atno 10765 bound_to 10752
  139.8795  134.9312  156.5410 H   0  0  0  0  0  0  0  0  0  0  0  0  # atno 11005 bound_to 11000
  146.0185  140.8370  142.9935 LP  0  0  0  0  0  0  0  0  0  0  0  0  # atno 17320 bound_to 7965
  144.6815  140.2593  143.7321 LP  0  0  0  0  0  0  0  0  0  0  0  0  # atno 17321 bound_to 7965
  140.0750  144.5747  150.7163 LP  0  0  0  0  0  0  0  0  0  0  0  0  # atno 17342 bound_to 10162
  140.7189  143.2570  151.4344 LP  0  0  0  0  0  0  0  0  0  0  0  0  # atno 17343 bound_to 10162
  156.1517  130.6314  151.0604 LP  0  0  0  0  0  0  0  0  0  0  0  0  # atno 17370 bound_to 10713
  157.6851  131.0827  150.7264 LP  0  0  0  0  0  0  0  0  0  0  0  0  # atno 17371 bound_to 10713
  140.8310  133.8279  155.8984 LP  0  0  0  0  0  0  0  0  0  0  0  0  # atno 17394 bound_to 11000
  140.9328  134.1999  157.4852 LP  0  0  0  0  0  0  0  0  0  0  0  0  # atno 17395 bound_to 11000

$$$$
