AV-unprocessed.smi:2722|AV-procd|sdf|10504|dock4
  -GOLD-   2272014543D 1   1.00000     0.00000
 Structure written by MMmdl.
 27 27  0  0  0  0  0  0  0  0  2 V2000
  151.4024  140.1687  155.6901 C   0  0  0  0  0  0  0  0  0  0  0  0
  151.8980  138.9199  156.4533 C   0  0  1  0  0  0  0  0  0  0  0  0
  153.3108  138.9417  156.3627 O   0  0  0  0  0  0  0  0  0  0  0  0
  151.5464  138.9711  157.9735 C   0  0  0  0  0  0  0  0  0  0  0  0
  152.1581  140.0764  158.7396 N   0  0  0  0  0  0  0  0  0  0  0  0
  151.6381  141.3709  158.5329 C   0  0  0  0  0  0  0  0  0  0  0  0
  152.1027  142.4615  159.1699 C   0  0  0  0  0  0  0  0  0  0  0  0
  151.5249  143.8395  158.8909 C   0  0  0  0  0  0  0  0  0  0  0  0
  151.7152  144.1653  157.6127 F   0  0  0  0  0  0  0  0  0  0  0  0
  150.2164  143.8833  159.1435 F   0  0  0  0  0  0  0  0  0  0  0  0
  152.1285  144.7587  159.6441 F   0  0  0  0  0  0  0  0  0  0  0  0
  153.1919  142.2493  160.1026 C   0  0  0  0  0  0  0  0  0  0  0  0
  153.6866  141.0170  160.3293 C   0  0  0  0  0  0  0  0  0  0  0  0
  153.1523  139.8363  159.6460 C   0  0  0  0  0  0  0  0  0  0  0  0
  153.5719  138.7034  159.8825 O   0  0  0  0  0  0  0  0  0  0  0  0
  151.3859  137.6233  155.7830 C   0  0  0  0  0  0  0  0  0  0  0  0
  150.5707  137.7570  154.8424 O   0  0  0  0  0  0  0  0  0  0  0  0
  151.8280  136.5251  156.1885 O   0  5  0  0  0  0  0  0  0  0  0  0
  150.3151  140.2402  155.6818 H   0  0  0  0  0  0  0  0  0  0  0  0
  151.7337  140.1583  154.6507 H   0  0  0  0  0  0  0  0  0  0  0  0
  151.7843  141.0841  156.1428 H   0  0  0  0  0  0  0  0  0  0  0  0
  153.6143  138.0467  156.3487 H   0  0  0  0  0  0  0  0  0  0  0  0
  150.4627  139.0460  158.0828 H   0  0  0  0  0  0  0  0  0  0  0  0
  151.7851  138.0125  158.4378 H   0  0  0  0  0  0  0  0  0  0  0  0
  150.8379  141.4256  157.8088 H   0  0  0  0  0  0  0  0  0  0  0  0
  153.6204  143.0886  160.6296 H   0  0  0  0  0  0  0  0  0  0  0  0
  154.4983  140.8942  161.0312 H   0  0  0  0  0  0  0  0  0  0  0  0
  1  2  1  0  0  0  0
  1 19  1  0  0  0  0
  1 20  1  0  0  0  0
  1 21  1  0  0  0  0
  2  3  1  0  0  0  0
  2  4  1  0  0  0  0
  2 16  1  0  0  0  0
  3 22  1  0  0  0  0
  4  5  1  0  0  0  0
  4 23  1  0  0  0  0
  4 24  1  0  0  0  0
  5 14  1  0  0  0  0
  5  6  1  0  0  0  0
  6  7  2  0  0  0  0
  6 25  1  0  0  0  0
  7  8  1  0  0  0  0
  7 12  1  0  0  0  0
  8  9  1  0  0  0  0
  8 10  1  0  0  0  0
  8 11  1  0  0  0  0
 12 13  2  0  0  0  0
 12 26  1  0  0  0  0
 13 14  1  0  0  0  0
 13 27  1  0  0  0  0
 14 15  2  0  0  0  0
 16 17  2  0  0  0  0
 16 18  1  0  0  0  0
M  CHG  1  18  -1
M  END
> <s_m_source_file>
AV-unprocessed.smi

> <i_m_source_file_index>
2722

> <i_lp_mmshare_version>
43012

> <i_f3d_flags>
0

> <s_epik_input>
Tz1DKFtPSF0pW0NAXShbQ0gzXSkoW09IXSlbQ0gyXW4xW2NIXWMoQyhGKShGKUYpW2NIXVtjSF1jMT1P

> <s_epik_cmdline>
J2VwaWtfcHl0aG9uJywgJy1waCcsICc3LjAnLCAnLXRuJywgJzgnLCAnLW1hJywgJzIwMCcsICctbWV0YWxfYmluZGluZycsICctaW1hZScsICc8aW5maWxlLm1hZT4nLCAnLW9tYWUnLCAnPG91dGZpbGUubWFlPic=

> <r_lp_tautomer_probability>
1

> <r_epik_Ionization_Penalty>
0.000391429

> <r_epik_Ionization_Penalty_Charging>
0.000383902

> <r_epik_Ionization_Penalty_Neutral>
7.52792e-06

> <r_epik_State_Penalty>
0.000234534

> <r_epik_Charging_Adjusted_Penalty>
0.000618436

> <i_epik_Tot_Q>
-1

> <i_epik_Tot_abs_Q>
1

> <r_epik_Metal_State_Penalty>
-0

> <b_epik_Metal_Only>
0

> <s_lp_Force_Field>
OPLS_2005

> <r_lp_Energy>
15.2908

> <b_lp_Chiralities_Consistent>
1

> <s_lp_Variant>
AV-unprocessed.smi:2722-1

> <Gold.Version>
5.8.1

> <Gold.Id.Protein>
6NUR|6NUR_protein|mol2

> <Gold.PLP.Fitness>
47.7901

> <Gold.PLP.PLP>
-39.4636

> <Gold.PLP.part.hbond>
-1.6521

> <Gold.PLP.part.metal>
0.0000

> <Gold.PLP.part.buried>
-4.8024

> <Gold.PLP.part.nonpolar>
-33.5457

> <Gold.PLP.part.repulsive>
0.1840

> <Gold.PLP.ligand.clash>
0.0000

> <Gold.PLP.ligand.torsion>
0.2455

> <Gold.PLP.Chemscore.Hbond>
2.8938

> <Gold.PLP.Chemscore.CHOScore>
0.0000

> <Gold.PLP.Chemscore.Metal>
0.0000

> <Gold.Chemscore.Hbonds>
donor molecule, donor type, donor heavy atom, donor atom, acceptor molecule, acceptor atom, score
      P1  H  7997  8009       L1     3  1.00
      P1  H 10752 10765       L1    18  2.00

> <Gold.PLP.Chemscore.Internal.Correction>
0.1364

> <Gold.Rescore>
     Score         DG    S(hbond)    S(metal)    S(lipo)     H(rot)  DE(clash)    DE(int)     intcor
     12.60     -12.87       1.90        0.00      66.63       2.63       0.00       0.26       ----

> <Gold.Chemscore.Fitness>
12.5993

> <Gold.Chemscore.DG>
-12.8675

> <Gold.Chemscore.ZeroCoef>
-5.4800

> <Gold.Chemscore.Hbond>
1.8973

> <Gold.Chemscore.Metal>
0.0000

> <Gold.Chemscore.Lipo>
66.6305

> <Gold.Chemscore.Internal_Hbond>
0.0000

> <Gold.Chemscore.DEClash>
0.0048

> <Gold.Chemscore.DEInternal>
0.2634

> <Gold.Chemscore.Rot>
2.6348

> <Gold.Chemscore.Internal.Correction>
   9.000000E+99

> <Gold.Chemscore.Hbonds>
donor molecule, donor type, donor heavy atom, donor atom, acceptor molecule, acceptor atom, score
      P1  H  7997  8009       L1     3  0.90
      P1  H 10752 10765       L1    18  0.91

> <Gold.Chemscore.Hbond.Weighted>
-6.3369

> <Gold.Chemscore.Metal.Weighted>
-0.0000

> <Gold.Chemscore.Lipo.Weighted>
-7.7958

> <Gold.Chemscore.Internal_Hbond.Weighted>
0.0000

> <Gold.Chemscore.DEClash.Weighted>
0.0048

> <Gold.Chemscore.DEInternal.Weighted>
0.2634

> <Gold.Chemscore.Rot.Weighted>
6.7451

> <Gold.Chemscore.Internal.Correction.Weighted>
   9.000000E+99

> <Gold.Protein.RotatedTorsions>
[ 6907 6896 6895 6894 ] final -162.85 input  -60.11 | X-H torsion
[ 7974 7965 7964 7962 ] final -168.19 input  175.53 | X-H torsion
[ 8008 7997 7996 7995 ] final -170.78 input   59.86 | X-H torsion
[ 10167 10162 10161 10158 ] final  -49.91 input  -65.29 | X-H torsion
[ 10718 10713 10712 10709 ] final  -23.85 input   66.30 | X-H torsion
[ 10763 10752 10751 10750 ] final -152.34 input  -60.55 | X-H torsion
[ 11005 11000 10999 10996 ] final  -77.81 input  -57.11 | X-H torsion

> <Gold.Protein.ActiveResidues>
 VAL166  LYS551  ARG553  GLY616  TRP617  ASP618  TYR619  PRO620  LYS621  CYS622 
 ASP623  PHE694  ASN695  SER759  ASP760  ASP761  ALA762  ILE779  LEU786  VAL792 
 PHE793  MET794  SER795  GLU796  ALA797  LYS798  CYS799  TRP800  GLU811  SER814 

> <Gold.Protein.RotatedAtoms>
  151.3867  133.3802  159.2715 H   0  0  0  0  0  0  0  0  0  0  0  0  # atno 6907 bound_to 6896
  150.9536  134.8934  159.7697 H   0  0  0  0  0  0  0  0  0  0  0  0  # atno 6908 bound_to 6896
  152.5121  134.3824  159.9408 H   0  0  0  0  0  0  0  0  0  0  0  0  # atno 6909 bound_to 6896
  144.7208  140.2407  143.6292 H   0  0  0  0  0  0  0  0  0  0  0  0  # atno 7974 bound_to 7965
  155.9229  140.1077  157.1193 H   0  0  0  0  0  0  0  0  0  0  0  0  # atno 8008 bound_to 7997
  154.4057  140.1252  156.4768 H   0  0  0  0  0  0  0  0  0  0  0  0  # atno 8009 bound_to 7997
  155.7174  140.3470  155.5003 H   0  0  0  0  0  0  0  0  0  0  0  0  # atno 8010 bound_to 7997
  140.6662  143.2678  151.4284 H   0  0  0  0  0  0  0  0  0  0  0  0  # atno 10167 bound_to 10162
  156.4855  130.4555  149.6786 H   0  0  0  0  0  0  0  0  0  0  0  0  # atno 10718 bound_to 10713
  154.8000  135.3238  154.7573 H   0  0  0  0  0  0  0  0  0  0  0  0  # atno 10763 bound_to 10752
  153.8243  135.6885  153.4827 H   0  0  0  0  0  0  0  0  0  0  0  0  # atno 10764 bound_to 10752
  153.1712  135.4622  154.9848 H   0  0  0  0  0  0  0  0  0  0  0  0  # atno 10765 bound_to 10752
  141.1662  133.7037  156.7877 H   0  0  0  0  0  0  0  0  0  0  0  0  # atno 11005 bound_to 11000
  145.8322  139.2091  143.1876 LP  0  0  0  0  0  0  0  0  0  0  0  0  # atno 17320 bound_to 7965
  146.0421  140.8155  142.9823 LP  0  0  0  0  0  0  0  0  0  0  0  0  # atno 17321 bound_to 7965
  139.5912  144.1494  152.2091 LP  0  0  0  0  0  0  0  0  0  0  0  0  # atno 17342 bound_to 10162
  140.0849  144.5669  150.7095 LP  0  0  0  0  0  0  0  0  0  0  0  0  # atno 17343 bound_to 10162
  156.3478  130.7416  151.2371 LP  0  0  0  0  0  0  0  0  0  0  0  0  # atno 17370 bound_to 10713
  157.7479  131.0385  150.4508 LP  0  0  0  0  0  0  0  0  0  0  0  0  # atno 17371 bound_to 10713
  140.2348  134.8658  157.3514 LP  0  0  0  0  0  0  0  0  0  0  0  0  # atno 17394 bound_to 11000
  140.1854  134.4437  155.7747 LP  0  0  0  0  0  0  0  0  0  0  0  0  # atno 17395 bound_to 11000

$$$$
