AV-unprocessed.smi:1635|AV-procd|sdf|6540|dock1
  -GOLD-   22720 7223D 1   1.00000     0.00000
 Structure written by MMmdl.
 37 38  0  0  0  0  0  0  0  0  1 V2000
  151.0190  145.2965  158.5437 C   0  0  0  0  0  0  0  0  0  0  0  0
  151.5994  144.0217  159.1343 C   0  0  0  0  0  0  0  0  0  0  0  0
  152.4797  144.1090  160.2337 C   0  0  0  0  0  0  0  0  0  0  0  0
  153.0131  142.9292  160.7802 C   0  0  0  0  0  0  0  0  0  0  0  0
  152.6414  141.7045  160.1995 C   0  0  0  0  0  0  0  0  0  0  0  0
  151.8020  141.6121  159.1479 N   0  0  0  0  0  0  0  0  0  0  0  0
  151.2783  142.7414  158.6084 C   0  0  0  0  0  0  0  0  0  0  0  0
  150.3876  142.7217  157.4980 N   0  0  0  0  0  0  0  0  0  0  0  0
  149.7634  141.6682  156.9421 C   0  0  0  0  0  0  0  0  0  0  0  0
  149.8670  140.4988  157.3137 O   0  0  0  0  0  0  0  0  0  0  0  0
  148.9997  142.0516  155.9084 N   0  0  0  0  0  0  0  0  0  0  0  0
  148.1690  141.1726  155.0850 C   0  0  2  0  0  0  0  0  0  0  0  0
  147.1493  140.4025  155.9644 C   0  0  0  0  0  0  0  0  0  0  0  0
  146.6589  139.0476  155.4120 C   0  0  0  0  0  0  0  0  0  0  0  0
  146.0632  139.0838  153.9900 C   0  0  0  0  0  0  0  0  0  0  0  0
  146.9457  139.7097  152.8843 C   0  0  0  0  0  0  0  0  0  0  0  0
  148.3814  139.6441  153.1531 N   0  0  0  0  0  0  0  0  0  0  0  0
  149.0181  140.3041  154.1360 C   0  0  0  0  0  0  0  0  0  0  0  0
  150.2349  140.2065  154.2902 O   0  0  0  0  0  0  0  0  0  0  0  0
  151.3674  146.1783  159.0818 H   0  0  0  0  0  0  0  0  0  0  0  0
  149.9301  145.2802  158.5971 H   0  0  0  0  0  0  0  0  0  0  0  0
  151.3139  145.4024  157.4994 H   0  0  0  0  0  0  0  0  0  0  0  0
  152.7446  145.0673  160.6556 H   0  0  0  0  0  0  0  0  0  0  0  0
  153.6887  142.9621  161.6221 H   0  0  0  0  0  0  0  0  0  0  0  0
  153.0277  140.7741  160.5887 H   0  0  0  0  0  0  0  0  0  0  0  0
  150.2046  143.6206  157.0773 H   0  0  0  0  0  0  0  0  0  0  0  0
  148.9709  143.0343  155.6783 H   0  0  0  0  0  0  0  0  0  0  0  0
  147.5989  141.8302  154.4274 H   0  0  0  0  0  0  0  0  0  0  0  0
  147.5897  140.2128  156.9445 H   0  0  0  0  0  0  0  0  0  0  0  0
  146.2888  141.0463  156.1511 H   0  0  0  0  0  0  0  0  0  0  0  0
  147.4783  138.3278  155.4402 H   0  0  0  0  0  0  0  0  0  0  0  0
  145.9085  138.6450  156.0931 H   0  0  0  0  0  0  0  0  0  0  0  0
  145.8336  138.0564  153.7055 H   0  0  0  0  0  0  0  0  0  0  0  0
  145.1034  139.6011  154.0095 H   0  0  0  0  0  0  0  0  0  0  0  0
  146.7499  139.2082  151.9362 H   0  0  0  0  0  0  0  0  0  0  0  0
  146.6596  140.7494  152.7219 H   0  0  0  0  0  0  0  0  0  0  0  0
  148.9353  139.0664  152.5377 H   0  0  0  0  0  0  0  0  0  0  0  0
  1  2  1  0  0  0  0
  1 20  1  0  0  0  0
  1 21  1  0  0  0  0
  1 22  1  0  0  0  0
  2  7  1  0  0  0  0
  2  3  2  0  0  0  0
  3  4  1  0  0  0  0
  3 23  1  0  0  0  0
  4  5  2  0  0  0  0
  4 24  1  0  0  0  0
  5  6  1  0  0  0  0
  5 25  1  0  0  0  0
  6  7  2  0  0  0  0
  7  8  1  0  0  0  0
  8  9  1  0  0  0  0
  8 26  1  0  0  0  0
  9 10  2  0  0  0  0
  9 11  1  0  0  0  0
 11 12  1  0  0  0  0
 11 27  1  0  0  0  0
 12 18  1  0  0  0  0
 12 13  1  0  0  0  0
 12 28  1  0  0  0  0
 13 14  1  0  0  0  0
 13 29  1  0  0  0  0
 13 30  1  0  0  0  0
 14 15  1  0  0  0  0
 14 31  1  0  0  0  0
 14 32  1  0  0  0  0
 15 16  1  0  0  0  0
 15 33  1  0  0  0  0
 15 34  1  0  0  0  0
 16 17  1  0  0  0  0
 16 35  1  0  0  0  0
 16 36  1  0  0  0  0
 17 18  1  0  0  0  0
 17 37  1  0  0  0  0
 18 19  2  0  0  0  0
M  END
> <s_m_source_file>
AV-unprocessed.smi

> <i_m_source_file_index>
1635

> <i_lp_mmshare_version>
43012

> <i_f3d_flags>
0

> <s_epik_input>
W0NIM11jMVtjSF1bY0hdW2NIXW5jMVtOSF1DKD1PKVtOSF1bQ0BASF0yW0NIMl1bQ0gyXVtDSDJdW0NIMl1bTkhdQzI9Tw==

> <s_epik_cmdline>
J2VwaWtfcHl0aG9uJywgJy1waCcsICc3LjAnLCAnLXRuJywgJzgnLCAnLW1hJywgJzIwMCcsICctbWV0YWxfYmluZGluZycsICctaW1hZScsICc8aW5maWxlLm1hZT4nLCAnLW9tYWUnLCAnPG91dGZpbGUubWFlPic=

> <r_lp_tautomer_probability>
1

> <r_epik_Ionization_Penalty>
5.14862e-05

> <r_epik_Ionization_Penalty_Charging>
0

> <r_epik_Ionization_Penalty_Neutral>
5.14862e-05

> <r_epik_State_Penalty>
-0

> <r_epik_Charging_Adjusted_Penalty>
0

> <i_epik_Tot_Q>
0

> <i_epik_Tot_abs_Q>
0

> <r_epik_Metal_State_Penalty>
-0

> <b_epik_Metal_Only>
0

> <s_lp_Force_Field>
OPLS_2005

> <r_lp_Energy>
17.2511

> <b_lp_Chiralities_Consistent>
1

> <s_lp_Variant>
AV-unprocessed.smi:1635-1

> <Gold.Version>
5.8.1

> <Gold.Id.Protein>
6NUR|6NUR_protein|mol2

> <Gold.PLP.Fitness>
40.5017

> <Gold.PLP.PLP>
-32.3842

> <Gold.PLP.part.hbond>
-3.2110

> <Gold.PLP.part.metal>
0.0000

> <Gold.PLP.part.buried>
-3.4565

> <Gold.PLP.part.nonpolar>
-25.4132

> <Gold.PLP.part.repulsive>
0.3702

> <Gold.PLP.ligand.clash>
0.0000

> <Gold.PLP.ligand.torsion>
0.1084

> <Gold.PLP.Chemscore.Hbond>
2.7599

> <Gold.PLP.Chemscore.CHOScore>
0.0000

> <Gold.PLP.Chemscore.Metal>
0.0000

> <Gold.Chemscore.Hbonds>
donor molecule, donor type, donor heavy atom, donor atom, acceptor molecule, acceptor atom, score
      L1  H     8    26       P1  8028  0.49
      L1  H    11    27       P1  8028  1.00
      L1  H    17    37       P1  7957  0.24
      P1  H  7989  7998       L1    19  1.00

> <Gold.PLP.Chemscore.Internal.Correction>
0.0546

> <Gold.Rescore>
     Score         DG    S(hbond)    S(metal)    S(lipo)     H(rot)  DE(clash)    DE(int)     intcor
     19.13     -21.96       3.10        0.00      74.08       1.00       0.31       2.52       ----

> <Gold.Chemscore.Fitness>
19.1258

> <Gold.Chemscore.DG>
-21.9575

> <Gold.Chemscore.ZeroCoef>
-5.4800

> <Gold.Chemscore.Hbond>
3.1047

> <Gold.Chemscore.Metal>
0.0000

> <Gold.Chemscore.Lipo>
74.0830

> <Gold.Chemscore.Internal_Hbond>
0.0000

> <Gold.Chemscore.DEClash>
0.3077

> <Gold.Chemscore.DEInternal>
2.5240

> <Gold.Chemscore.Rot>
1.0000

> <Gold.Chemscore.Internal.Correction>
   9.000000E+99

> <Gold.Chemscore.Hbonds>
donor molecule, donor type, donor heavy atom, donor atom, acceptor molecule, acceptor atom, score
      L1  H     8    26       P1  8028  0.47
      L1  H    11    27       P1  8028  1.00
      L1  H    17    37       P1  7957  0.24
      P1  H  7989  7998       L1    19  0.95

> <Gold.Chemscore.Hbond.Weighted>
-10.3698

> <Gold.Chemscore.Metal.Weighted>
-0.0000

> <Gold.Chemscore.Lipo.Weighted>
-8.6677

> <Gold.Chemscore.Internal_Hbond.Weighted>
0.0000

> <Gold.Chemscore.DEClash.Weighted>
0.3077

> <Gold.Chemscore.DEInternal.Weighted>
2.5240

> <Gold.Chemscore.Rot.Weighted>
2.5600

> <Gold.Chemscore.Internal.Correction.Weighted>
   9.000000E+99

> <Gold.Protein.RotatedTorsions>
[ 6907 6896 6895 6894 ] final -162.12 input  -60.11 | X-H torsion
[ 7974 7965 7964 7962 ] final   47.95 input  175.53 | X-H torsion
[ 8008 7997 7996 7995 ] final  -28.08 input   59.86 | X-H torsion
[ 10167 10162 10161 10158 ] final  104.72 input  -65.29 | X-H torsion
[ 10718 10713 10712 10709 ] final  -24.53 input   66.30 | X-H torsion
[ 10763 10752 10751 10750 ] final  131.69 input  -60.55 | X-H torsion
[ 11005 11000 10999 10996 ] final  -91.21 input  -57.11 | X-H torsion

> <Gold.Protein.ActiveResidues>
 VAL166  LYS551  ARG553  GLY616  TRP617  ASP618  TYR619  PRO620  LYS621  CYS622 
 ASP623  PHE694  ASN695  SER759  ASP760  ASP761  ALA762  ILE779  LEU786  VAL792 
 PHE793  MET794  SER795  GLU796  ALA797  LYS798  CYS799  TRP800  GLU811  SER814 

> <Gold.Protein.RotatedAtoms>
  151.3753  133.3840  159.2703 H   0  0  0  0  0  0  0  0  0  0  0  0  # atno 6907 bound_to 6896
  150.9619  134.9007  159.7746 H   0  0  0  0  0  0  0  0  0  0  0  0  # atno 6908 bound_to 6896
  152.5152  134.3712  159.9371 H   0  0  0  0  0  0  0  0  0  0  0  0  # atno 6909 bound_to 6896
  146.0250  139.4696  142.9873 H   0  0  0  0  0  0  0  0  0  0  0  0  # atno 7974 bound_to 7965
  154.4348  140.1855  156.1033 H   0  0  0  0  0  0  0  0  0  0  0  0  # atno 8008 bound_to 7997
  156.0275  140.3334  155.7078 H   0  0  0  0  0  0  0  0  0  0  0  0  # atno 8009 bound_to 7997
  155.5887  140.0629  157.2755 H   0  0  0  0  0  0  0  0  0  0  0  0  # atno 8010 bound_to 7997
  139.7153  144.7069  151.0959 H   0  0  0  0  0  0  0  0  0  0  0  0  # atno 10167 bound_to 10162
  156.4765  130.4536  149.6837 H   0  0  0  0  0  0  0  0  0  0  0  0  # atno 10718 bound_to 10713
  153.7784  135.3172  155.3362 H   0  0  0  0  0  0  0  0  0  0  0  0  # atno 10763 bound_to 10752
  154.8170  135.4629  154.0675 H   0  0  0  0  0  0  0  0  0  0  0  0  # atno 10764 bound_to 10752
  153.1956  135.6915  153.8381 H   0  0  0  0  0  0  0  0  0  0  0  0  # atno 10765 bound_to 10752
  141.1549  133.7741  156.9848 H   0  0  0  0  0  0  0  0  0  0  0  0  # atno 11005 bound_to 11000
  145.7132  141.0099  143.1442 LP  0  0  0  0  0  0  0  0  0  0  0  0  # atno 17320 bound_to 7965
  144.7006  139.8782  143.7445 LP  0  0  0  0  0  0  0  0  0  0  0  0  # atno 17321 bound_to 7965
  140.7742  143.5237  150.9505 LP  0  0  0  0  0  0  0  0  0  0  0  0  # atno 17342 bound_to 10162
  139.8923  143.6938  152.3143 LP  0  0  0  0  0  0  0  0  0  0  0  0  # atno 17343 bound_to 10162
  156.3565  130.7459  151.2426 LP  0  0  0  0  0  0  0  0  0  0  0  0  # atno 17370 bound_to 10713
  157.7487  131.0362  150.4399 LP  0  0  0  0  0  0  0  0  0  0  0  0  # atno 17371 bound_to 10713
  140.1042  134.9517  157.1969 LP  0  0  0  0  0  0  0  0  0  0  0  0  # atno 17394 bound_to 11000
  140.3278  134.2844  155.7233 LP  0  0  0  0  0  0  0  0  0  0  0  0  # atno 17395 bound_to 11000

$$$$
