AV-unprocessed.smi:1947|AV-procd|sdf|7870|dock8
  -GOLD-   2272010 23D 1   1.00000     0.00000
 Structure written by MMmdl.
 38 39  0  0  0  0  0  0  0  0  2 V2000
  153.8109  140.8755  160.4700 C   0  0  0  0  0  0  0  0  0  0  0  0
  152.7455  141.7615  159.8070 C   0  0  1  0  0  0  0  0  0  0  0  0
  153.3742  143.0081  159.1522 C   0  0  0  0  0  0  0  0  0  0  0  0
  152.3029  143.9276  158.5455 C   0  0  0  0  0  0  0  0  0  0  0  0
  151.4166  143.1684  157.5469 C   0  0  0  0  0  0  0  0  0  0  0  0
  150.7873  141.9215  158.1924 C   0  0  0  0  0  0  0  0  0  0  0  0
  151.8526  140.9915  158.8020 C   0  0  1  0  0  0  0  0  0  0  0  0
  152.6356  140.4872  157.7278 O   0  0  0  0  0  0  0  0  0  0  0  0
  151.9151  139.7654  156.7406 C   0  0  0  0  0  0  0  0  0  0  0  0
  151.5427  138.3842  157.3007 C   0  0  0  0  0  0  0  0  0  0  0  0
  150.2353  138.4166  157.9497 N   0  0  0  0  0  0  0  0  0  0  0  0
  149.6387  137.3852  158.5650 C   0  0  0  0  0  0  0  0  0  0  0  0
  150.1520  136.2644  158.5292 O   0  0  0  0  0  0  0  0  0  0  0  0
  148.4936  137.7188  159.2023 N   0  5  0  0  0  0  0  0  0  0  0  0
  147.9243  136.8448  160.0486 C   0  0  0  0  0  0  0  0  0  0  0  0
  147.3976  137.2262  161.2238 N   0  0  0  0  0  0  0  0  0  0  0  0
  146.8650  136.1708  161.9516 N   0  0  0  0  0  0  0  0  0  0  0  0
  146.9955  135.0164  161.2985 C   0  0  0  0  0  0  0  0  0  0  0  0
  147.7775  135.1139  159.7347 S   0  0  0  0  0  0  0  0  0  0  0  0
  154.5464  140.5255  159.7457 H   0  0  0  0  0  0  0  0  0  0  0  0
  153.3600  140.0021  160.9416 H   0  0  0  0  0  0  0  0  0  0  0  0
  154.3504  141.4247  161.2417 H   0  0  0  0  0  0  0  0  0  0  0  0
  152.0936  142.1122  160.6085 H   0  0  0  0  0  0  0  0  0  0  0  0
  153.9567  143.5637  159.8879 H   0  0  0  0  0  0  0  0  0  0  0  0
  154.0770  142.7055  158.3754 H   0  0  0  0  0  0  0  0  0  0  0  0
  151.6843  144.3427  159.3422 H   0  0  0  0  0  0  0  0  0  0  0  0
  152.7791  144.7742  158.0504 H   0  0  0  0  0  0  0  0  0  0  0  0
  150.6339  143.8267  157.1695 H   0  0  0  0  0  0  0  0  0  0  0  0
  152.0131  142.8730  156.6826 H   0  0  0  0  0  0  0  0  0  0  0  0
  150.0899  142.2323  158.9712 H   0  0  0  0  0  0  0  0  0  0  0  0
  150.1984  141.3777  157.4530 H   0  0  0  0  0  0  0  0  0  0  0  0
  151.3362  140.1788  159.3166 H   0  0  0  0  0  0  0  0  0  0  0  0
  151.0131  140.2982  156.4373 H   0  0  0  0  0  0  0  0  0  0  0  0
  152.5405  139.6574  155.8536 H   0  0  0  0  0  0  0  0  0  0  0  0
  151.4878  137.6647  156.4838 H   0  0  0  0  0  0  0  0  0  0  0  0
  152.3134  138.0205  157.9820 H   0  0  0  0  0  0  0  0  0  0  0  0
  149.7726  139.3123  157.9972 H   0  0  0  0  0  0  0  0  0  0  0  0
  146.6268  134.1023  161.7390 H   0  0  0  0  0  0  0  0  0  0  0  0
  1  2  1  0  0  0  0
  1 20  1  0  0  0  0
  1 21  1  0  0  0  0
  1 22  1  0  0  0  0
  2  7  1  0  0  0  0
  2  3  1  0  0  0  0
  2 23  1  0  0  0  0
  3  4  1  0  0  0  0
  3 24  1  0  0  0  0
  3 25  1  0  0  0  0
  4  5  1  0  0  0  0
  4 26  1  0  0  0  0
  4 27  1  0  0  0  0
  5  6  1  0  0  0  0
  5 28  1  0  0  0  0
  5 29  1  0  0  0  0
  6  7  1  0  0  0  0
  6 30  1  0  0  0  0
  6 31  1  0  0  0  0
  7  8  1  0  0  0  0
  7 32  1  0  0  0  0
  8  9  1  0  0  0  0
  9 10  1  0  0  0  0
  9 33  1  0  0  0  0
  9 34  1  0  0  0  0
 10 11  1  0  0  0  0
 10 35  1  0  0  0  0
 10 36  1  0  0  0  0
 11 12  1  0  0  0  0
 11 37  1  0  0  0  0
 12 13  2  0  0  0  0
 12 14  1  0  0  0  0
 14 15  1  0  0  0  0
 15 19  1  0  0  0  0
 15 16  2  0  0  0  0
 16 17  1  0  0  0  0
 17 18  2  0  0  0  0
 18 19  1  0  0  0  0
 18 38  1  0  0  0  0
M  CHG  1  14  -1
M  END
> <s_m_source_file>
AV-unprocessed.smi

> <i_m_source_file_index>
1947

> <i_lp_mmshare_version>
43012

> <i_f3d_flags>
0

> <s_epik_input>
W0NIM11bQ0BASF0xW0NIMl1bQ0gyXVtDSDJdW0NIMl1bQ0BIXTFPW0NIMl1bQ0gyXVtOSF1DKD1PKVtOSF1jMm5uW2NIXXMy

> <s_epik_cmdline>
J2VwaWtfcHl0aG9uJywgJy1waCcsICc3LjAnLCAnLXRuJywgJzgnLCAnLW1hJywgJzIwMCcsICctbWV0YWxfYmluZGluZycsICctaW1hZScsICc8aW5maWxlLm1hZT4nLCAnLW9tYWUnLCAnPG91dGZpbGUubWFlPic=

> <r_lp_tautomer_probability>
1

> <r_epik_Ionization_Penalty>
3.35961

> <r_epik_Ionization_Penalty_Charging>
3.31977

> <r_epik_Ionization_Penalty_Neutral>
0.0398394

> <r_epik_State_Penalty>
3.31759

> <r_epik_Charging_Adjusted_Penalty>
6.63736

> <i_epik_Tot_Q>
-1

> <i_epik_Tot_abs_Q>
1

> <r_epik_Metal_State_Penalty>
0.484557

> <b_epik_Metal_Only>
1

> <s_lp_Force_Field>
OPLS_2005

> <r_lp_Energy>
8.55413

> <b_lp_Chiralities_Consistent>
1

> <s_lp_Variant>
AV-unprocessed.smi:1947-6

> <Gold.Version>
5.8.1

> <Gold.Id.Protein>
6NUR|6NUR_protein|mol2

> <Gold.PLP.Fitness>
44.8406

> <Gold.PLP.PLP>
-36.4578

> <Gold.PLP.part.hbond>
-5.3650

> <Gold.PLP.part.metal>
0.0000

> <Gold.PLP.part.buried>
-2.9974

> <Gold.PLP.part.nonpolar>
-27.6079

> <Gold.PLP.part.repulsive>
0.0879

> <Gold.PLP.ligand.clash>
0.0000

> <Gold.PLP.ligand.torsion>
0.6127

> <Gold.PLP.Chemscore.Hbond>
3.1798

> <Gold.PLP.Chemscore.CHOScore>
0.0000

> <Gold.PLP.Chemscore.Metal>
0.0000

> <Gold.Chemscore.Hbonds>
donor molecule, donor type, donor heavy atom, donor atom, acceptor molecule, acceptor atom, score
      P1  H  6896  6907       L1    13  1.00
      P1  H  6931  6943       L1    16  0.72
      P1  H  6934  6947       L1    16  0.99
      P1  H  7997  8008       L1     8  0.52

> <Gold.PLP.Chemscore.Internal.Correction>
0.0685

> <Gold.Rescore>
     Score         DG    S(hbond)    S(metal)    S(lipo)     H(rot)  DE(clash)    DE(int)     intcor
     13.36     -15.27       1.09        0.00      94.01       1.90       0.10       1.81       ----

> <Gold.Chemscore.Fitness>
13.3556

> <Gold.Chemscore.DG>
-15.2705

> <Gold.Chemscore.ZeroCoef>
-5.4800

> <Gold.Chemscore.Hbond>
1.0932

> <Gold.Chemscore.Metal>
0.0000

> <Gold.Chemscore.Lipo>
94.0085

> <Gold.Chemscore.Internal_Hbond>
0.0000

> <Gold.Chemscore.DEClash>
0.1050

> <Gold.Chemscore.DEInternal>
1.8099

> <Gold.Chemscore.Rot>
1.8984

> <Gold.Chemscore.Internal.Correction>
   9.000000E+99

> <Gold.Chemscore.Hbonds>
donor molecule, donor type, donor heavy atom, donor atom, acceptor molecule, acceptor atom, score
      P1  H  6896  6907       L1    13  0.94
      P1  H  6931  6943       L1    16  0.11
      P1  H  6934  6947       L1    16  0.28
      P1  H  7997  8008       L1     8  0.05

> <Gold.Chemscore.Hbond.Weighted>
-3.6512

> <Gold.Chemscore.Metal.Weighted>
-0.0000

> <Gold.Chemscore.Lipo.Weighted>
-10.9990

> <Gold.Chemscore.Internal_Hbond.Weighted>
0.0000

> <Gold.Chemscore.DEClash.Weighted>
0.1050

> <Gold.Chemscore.DEInternal.Weighted>
1.8099

> <Gold.Chemscore.Rot.Weighted>
4.8598

> <Gold.Chemscore.Internal.Correction.Weighted>
   9.000000E+99

> <Gold.Protein.RotatedTorsions>
[ 6907 6896 6895 6894 ] final  -38.13 input  -60.11 | X-H torsion
[ 7974 7965 7964 7962 ] final -113.73 input  175.53 | X-H torsion
[ 8008 7997 7996 7995 ] final  -76.61 input   59.86 | X-H torsion
[ 10167 10162 10161 10158 ] final  160.18 input  -65.29 | X-H torsion
[ 10718 10713 10712 10709 ] final  -76.55 input   66.30 | X-H torsion
[ 10763 10752 10751 10750 ] final  -50.39 input  -60.55 | X-H torsion
[ 11005 11000 10999 10996 ] final  162.58 input  -57.11 | X-H torsion

> <Gold.Protein.ActiveResidues>
 VAL166  LYS551  ARG553  GLY616  TRP617  ASP618  TYR619  PRO620  LYS621  CYS622 
 ASP623  PHE694  ASN695  SER759  ASP760  ASP761  ALA762  ILE779  LEU786  VAL792 
 PHE793  MET794  SER795  GLU796  ALA797  LYS798  CYS799  TRP800  GLU811  SER814 

> <Gold.Protein.RotatedAtoms>
  151.0061  134.9360  159.7980 H   0  0  0  0  0  0  0  0  0  0  0  0  # atno 6907 bound_to 6896
  152.5291  134.3089  159.9116 H   0  0  0  0  0  0  0  0  0  0  0  0  # atno 6908 bound_to 6896
  151.3095  133.4045  159.2680 H   0  0  0  0  0  0  0  0  0  0  0  0  # atno 6909 bound_to 6896
  145.1285  140.8711  143.3772 H   0  0  0  0  0  0  0  0  0  0  0  0  # atno 7974 bound_to 7965
  154.5521  140.0724  156.8684 H   0  0  0  0  0  0  0  0  0  0  0  0  # atno 8008 bound_to 7997
  155.2974  140.3382  155.4231 H   0  0  0  0  0  0  0  0  0  0  0  0  # atno 8009 bound_to 7997
  156.1970  140.1707  156.7964 H   0  0  0  0  0  0  0  0  0  0  0  0  # atno 8010 bound_to 7997
  139.4838  144.4659  151.8643 H   0  0  0  0  0  0  0  0  0  0  0  0  # atno 10167 bound_to 10162
  156.0171  130.4468  150.3211 H   0  0  0  0  0  0  0  0  0  0  0  0  # atno 10718 bound_to 10713
  154.1097  135.6551  153.4883 H   0  0  0  0  0  0  0  0  0  0  0  0  # atno 10763 bound_to 10752
  153.0261  135.5244  154.7205 H   0  0  0  0  0  0  0  0  0  0  0  0  # atno 10764 bound_to 10752
  154.6381  135.2984  155.0106 H   0  0  0  0  0  0  0  0  0  0  0  0  # atno 10765 bound_to 10752
  140.2272  134.8151  157.3280 H   0  0  0  0  0  0  0  0  0  0  0  0  # atno 11005 bound_to 11000
  145.0661  139.3067  143.5856 LP  0  0  0  0  0  0  0  0  0  0  0  0  # atno 17320 bound_to 7965
  146.3516  140.0120  142.8666 LP  0  0  0  0  0  0  0  0  0  0  0  0  # atno 17321 bound_to 7965
  140.4124  144.2351  150.5888 LP  0  0  0  0  0  0  0  0  0  0  0  0  # atno 17342 bound_to 10162
  140.4953  143.2334  151.8758 LP  0  0  0  0  0  0  0  0  0  0  0  0  # atno 17343 bound_to 10162
  157.1311  131.0272  151.2969 LP  0  0  0  0  0  0  0  0  0  0  0  0  # atno 17370 bound_to 10713
  157.4550  130.7620  149.7184 LP  0  0  0  0  0  0  0  0  0  0  0  0  # atno 17371 bound_to 10713
  140.1788  134.4516  155.7785 LP  0  0  0  0  0  0  0  0  0  0  0  0  # atno 17394 bound_to 11000
  141.2220  133.6974  156.7833 LP  0  0  0  0  0  0  0  0  0  0  0  0  # atno 17395 bound_to 11000

$$$$
