AV-unprocessed.smi:69|AV-procd|sdf|658|dock7
  -GOLD-   2262016563D 1   1.00000     0.00000
 Structure written by MMmdl.
 32 34  0  0  0  0  0  0  0  0  1 V2000
  143.6797  138.8090  154.0864 N   0  0  0  0  0  0  0  0  0  0  0  0
  143.3612  137.5358  153.8151 C   0  0  0  0  0  0  0  0  0  0  0  0
  142.1783  137.0585  154.2684 N   0  0  0  0  0  0  0  0  0  0  0  0
  141.8383  135.7910  154.0125 C   0  0  0  0  0  0  0  0  0  0  0  0
  142.5215  134.8626  153.3377 N   0  0  0  0  0  0  0  0  0  0  0  0
  143.7137  135.3459  152.8801 C   0  0  0  0  0  0  0  0  0  0  0  0
  144.2043  136.6664  153.0773 C   0  0  0  0  0  0  0  0  0  0  0  0
  145.4482  136.8037  152.4766 N   0  0  0  0  0  0  0  0  0  0  0  0
  145.6765  135.6277  151.9556 C   0  0  0  0  0  0  0  0  0  0  0  0
  144.6834  134.6915  152.1473 N   0  0  0  0  0  0  0  0  0  0  0  0
  144.6614  133.2729  151.6754 C   0  0  1  0  0  0  0  0  0  0  0  0
  143.7175  133.1744  150.6541 O   0  0  0  0  0  0  0  0  0  0  0  0
  144.2229  132.3509  149.6103 C   0  0  1  0  0  0  0  0  0  0  0  0
  143.5173  132.6970  148.2902 C   0  0  0  0  0  0  0  0  0  0  0  0
  143.5113  134.0952  148.0958 O   0  0  0  0  0  0  0  0  0  0  0  0
  145.7147  132.6898  149.6137 C   0  0  2  0  0  0  0  0  0  0  0  0
  146.5029  131.6979  148.9816 O   0  0  0  0  0  0  0  0  0  0  0  0
  146.0279  132.8615  151.0994 C   0  0  2  0  0  0  0  0  0  0  0  0
  146.4868  131.6594  151.6921 O   0  0  0  0  0  0  0  0  0  0  0  0
  144.3522  132.6904  152.5452 H   0  0  0  0  0  0  0  0  0  0  0  0
  144.0821  131.3012  149.8763 H   0  0  0  0  0  0  0  0  0  0  0  0
  145.8767  133.6378  149.1006 H   0  0  0  0  0  0  0  0  0  0  0  0
  146.7758  133.6383  151.2654 H   0  0  0  0  0  0  0  0  0  0  0  0
  144.5569  139.1883  153.7597 H   0  0  0  0  0  0  0  0  0  0  0  0
  143.0442  139.3852  154.6189 H   0  0  0  0  0  0  0  0  0  0  0  0
  140.8822  135.4755  154.4032 H   0  0  0  0  0  0  0  0  0  0  0  0
  146.5834  135.4106  151.4101 H   0  0  0  0  0  0  0  0  0  0  0  0
  143.9901  132.1958  147.4445 H   0  0  0  0  0  0  0  0  0  0  0  0
  142.4785  132.3676  148.3220 H   0  0  0  0  0  0  0  0  0  0  0  0
  144.3013  134.3384  147.6379 H   0  0  0  0  0  0  0  0  0  0  0  0
  147.2710  131.5443  149.5108 H   0  0  0  0  0  0  0  0  0  0  0  0
  147.2676  131.3820  151.2374 H   0  0  0  0  0  0  0  0  0  0  0  0
  1  2  1  0  0  0  0
  1 24  1  0  0  0  0
  1 25  1  0  0  0  0
  2  7  1  0  0  0  0
  2  3  2  0  0  0  0
  3  4  1  0  0  0  0
  4  5  2  0  0  0  0
  4 26  1  0  0  0  0
  5  6  1  0  0  0  0
  6 10  1  0  0  0  0
  6  7  2  0  0  0  0
  7  8  1  0  0  0  0
  8  9  2  0  0  0  0
  9 10  1  0  0  0  0
  9 27  1  0  0  0  0
 10 11  1  0  0  0  0
 11 20  1  0  0  0  0
 11 18  1  0  0  0  0
 11 12  1  0  0  0  0
 12 13  1  0  0  0  0
 13 21  1  0  0  0  0
 13 14  1  0  0  0  0
 13 16  1  0  0  0  0
 14 15  1  0  0  0  0
 14 28  1  0  0  0  0
 14 29  1  0  0  0  0
 15 30  1  0  0  0  0
 16 22  1  0  0  0  0
 16 17  1  0  0  0  0
 16 18  1  0  0  0  0
 17 31  1  0  0  0  0
 18 23  1  0  0  0  0
 18 19  1  0  0  0  0
 19 32  1  0  0  0  0
M  END
> <s_m_source_file>
AV-unprocessed.smi

> <i_m_source_file_index>
69

> <i_lp_mmshare_version>
43012

> <i_f3d_flags>
0

> <s_epik_input>
bjFbY0hdbmMoW05IMl0pYyhjMTIpbltjSF1uMltDQEBIXTNPW0NASF0oW0NIMl1bT0hdKVtDQEBIXShbT0hdKVtDQEhdM1tPSF0=

> <s_epik_cmdline>
J2VwaWtfcHl0aG9uJywgJy1waCcsICc3LjAnLCAnLXRuJywgJzgnLCAnLW1hJywgJzIwMCcsICctbWV0YWxfYmluZGluZycsICctaW1hZScsICc8aW5maWxlLm1hZT4nLCAnLW9tYWUnLCAnPG91dGZpbGUubWFlPic=

> <r_lp_tautomer_probability>
1

> <r_epik_Ionization_Penalty>
0.000428445

> <r_epik_Ionization_Penalty_Charging>
0

> <r_epik_Ionization_Penalty_Neutral>
0.000428445

> <r_epik_State_Penalty>
-0

> <r_epik_Charging_Adjusted_Penalty>
0

> <i_epik_Tot_Q>
0

> <i_epik_Tot_abs_Q>
0

> <r_epik_Metal_State_Penalty>
-0

> <b_epik_Metal_Only>
0

> <s_epik_Chemistry_Notes>
This compound contains an acetal/aminal-like group ( X-CH(R)-Y where X, Y are N, S, or O) that may be acid/base labile, releasing an aldehyde.

> <s_lp_Force_Field>
OPLS_2005

> <r_lp_Energy>
38.6546

> <b_lp_Chiralities_Consistent>
1

> <s_lp_Variant>
AV-unprocessed.smi:69-16

> <Gold.Version>
5.8.1

> <Gold.Id.Protein>
6NUR|6NUR_protein|mol2

> <Gold.PLP.Fitness>
47.9460

> <Gold.PLP.PLP>
-30.6633

> <Gold.PLP.part.hbond>
-6.0617

> <Gold.PLP.part.metal>
0.0000

> <Gold.PLP.part.buried>
-4.3438

> <Gold.PLP.part.nonpolar>
-20.4418

> <Gold.PLP.part.repulsive>
0.6177

> <Gold.PLP.ligand.clash>
0.0000

> <Gold.PLP.ligand.torsion>
0.2427

> <Gold.PLP.Chemscore.Hbond>
3.9750

> <Gold.PLP.Chemscore.CHOScore>
1.9433

> <Gold.PLP.Chemscore.Metal>
0.0000

> <Gold.Chemscore.Hbonds>
donor molecule, donor type, donor heavy atom, donor atom, acceptor molecule, acceptor atom, score
      L1  H    15    30       P1  7921  1.00
      L1  H    17    31       P1 10747  1.00
      L1  H    19    32       P1 10747  0.99
      P1  H 10192 10197       L1    15  0.91
      L1  C     4    26       P1 11000  0.64
      L1  C     9    27       P1  7948  1.00

> <Gold.PLP.Chemscore.Internal.Correction>
0.0131

> <Gold.Rescore>
     Score         DG    S(hbond)    S(metal)    S(lipo)     H(rot)  DE(clash)    DE(int)     intcor
     12.16     -12.34       3.48        0.00      47.36       4.03       0.16       0.02       ----

> <Gold.Chemscore.Fitness>
12.1557

> <Gold.Chemscore.DG>
-12.3402

> <Gold.Chemscore.ZeroCoef>
-5.4800

> <Gold.Chemscore.Hbond>
3.4819

> <Gold.Chemscore.Metal>
0.0000

> <Gold.Chemscore.Lipo>
47.3650

> <Gold.Chemscore.Internal_Hbond>
0.0000

> <Gold.Chemscore.DEClash>
0.1617

> <Gold.Chemscore.DEInternal>
0.0227

> <Gold.Chemscore.Rot>
4.0277

> <Gold.Chemscore.Internal.Correction>
   9.000000E+99

> <Gold.Chemscore.Hbonds>
donor molecule, donor type, donor heavy atom, donor atom, acceptor molecule, acceptor atom, score
      L1  H     1    24       P1 10175  0.01
      L1  H    15    30       P1  7921  0.97
      L1  H    17    31       P1 10747  0.98
      L1  H    19    32       P1 10747  0.93
      P1  H 10192 10197       L1    15  0.40

> <Gold.Chemscore.Hbond.Weighted>
-11.6295

> <Gold.Chemscore.Metal.Weighted>
-0.0000

> <Gold.Chemscore.Lipo.Weighted>
-5.5417

> <Gold.Chemscore.Internal_Hbond.Weighted>
0.0000

> <Gold.Chemscore.DEClash.Weighted>
0.1617

> <Gold.Chemscore.DEInternal.Weighted>
0.0227

> <Gold.Chemscore.Rot.Weighted>
10.3110

> <Gold.Chemscore.Internal.Correction.Weighted>
   9.000000E+99

> <Gold.Protein.RotatedTorsions>
[ 6907 6896 6895 6894 ] final   -6.34 input  -60.11 | X-H torsion
[ 7974 7965 7964 7962 ] final  -27.48 input  175.53 | X-H torsion
[ 8008 7997 7996 7995 ] final   -5.58 input   59.86 | X-H torsion
[ 10167 10162 10161 10158 ] final   30.35 input  -65.29 | X-H torsion
[ 10718 10713 10712 10709 ] final -166.63 input   66.30 | X-H torsion
[ 10763 10752 10751 10750 ] final -150.63 input  -60.55 | X-H torsion
[ 11005 11000 10999 10996 ] final  -89.06 input  -57.11 | X-H torsion

> <Gold.Protein.ActiveResidues>
 VAL166  LYS551  ARG553  GLY616  TRP617  ASP618  TYR619  PRO620  LYS621  CYS622 
 ASP623  PHE694  ASN695  SER759  ASP760  ASP761  ALA762  ILE779  LEU786  VAL792 
 PHE793  MET794  SER795  GLU796  ALA797  LYS798  CYS799  TRP800  GLU811  SER814 

> <Gold.Protein.RotatedAtoms>
  151.4672  135.1043  159.9740 H   0  0  0  0  0  0  0  0  0  0  0  0  # atno 6907 bound_to 6896
  152.4830  133.8299  159.7108 H   0  0  0  0  0  0  0  0  0  0  0  0  # atno 6908 bound_to 6896
  150.8917  133.7173  159.2929 H   0  0  0  0  0  0  0  0  0  0  0  0  # atno 6909 bound_to 6896
  146.1355  140.5157  142.8675 H   0  0  0  0  0  0  0  0  0  0  0  0  # atno 7974 bound_to 7965
  154.6025  140.2455  155.7774 H   0  0  0  0  0  0  0  0  0  0  0  0  # atno 8008 bound_to 7997
  156.2320  140.2963  156.0165 H   0  0  0  0  0  0  0  0  0  0  0  0  # atno 8009 bound_to 7997
  155.2187  140.0399  157.2935 H   0  0  0  0  0  0  0  0  0  0  0  0  # atno 8010 bound_to 7997
  140.4686  144.0798  150.6231 H   0  0  0  0  0  0  0  0  0  0  0  0  # atno 10167 bound_to 10162
  156.6707  130.9083  151.3043 H   0  0  0  0  0  0  0  0  0  0  0  0  # atno 10718 bound_to 10713
  154.8107  135.3279  154.7313 H   0  0  0  0  0  0  0  0  0  0  0  0  # atno 10763 bound_to 10752
  153.7962  135.6907  153.4867 H   0  0  0  0  0  0  0  0  0  0  0  0  # atno 10764 bound_to 10752
  153.1884  135.4560  155.0064 H   0  0  0  0  0  0  0  0  0  0  0  0  # atno 10765 bound_to 10752
  141.1591  133.7607  156.9541 H   0  0  0  0  0  0  0  0  0  0  0  0  # atno 11005 bound_to 11000
  144.7735  140.5689  143.6654 LP  0  0  0  0  0  0  0  0  0  0  0  0  # atno 17320 bound_to 7965
  145.5166  139.1477  143.3575 LP  0  0  0  0  0  0  0  0  0  0  0  0  # atno 17321 bound_to 7965
  140.4005  143.2706  151.9953 LP  0  0  0  0  0  0  0  0  0  0  0  0  # atno 17342 bound_to 10162
  139.4815  144.6001  151.7621 LP  0  0  0  0  0  0  0  0  0  0  0  0  # atno 17343 bound_to 10162
  157.7078  130.9405  150.0988 LP  0  0  0  0  0  0  0  0  0  0  0  0  # atno 17370 bound_to 10713
  156.1941  130.3656  149.8872 LP  0  0  0  0  0  0  0  0  0  0  0  0  # atno 17371 bound_to 10713
  140.1237  134.9400  157.2240 LP  0  0  0  0  0  0  0  0  0  0  0  0  # atno 17394 bound_to 11000
  140.3040  134.3099  155.7283 LP  0  0  0  0  0  0  0  0  0  0  0  0  # atno 17395 bound_to 11000

$$$$
