AV-unprocessed.smi:2455|AV-procd|sdf|9699|dock2
  -GOLD-   2272013333D 1   1.00000     0.00000
 Structure written by MMmdl.
 36 36  0  0  0  0  0  0  0  0  2 V2000
  147.6766  136.0076  156.0030 C   0  0  0  0  0  0  0  0  0  0  0  0
  148.4209  136.8482  157.0578 C   0  0  0  0  0  0  0  0  0  0  0  0
  149.9598  137.0150  156.8510 C   0  0  0  0  0  0  0  0  0  0  0  0
  150.1830  137.5666  155.4089 C   0  0  0  0  0  0  0  0  0  0  0  0
  151.6243  137.9624  155.0327 C   0  0  0  0  0  0  0  0  0  0  0  0
  150.5632  137.9813  157.9214 C   0  0  0  0  0  0  0  0  0  0  0  0
  150.3231  139.3929  157.6259 N   0  0  0  0  0  0  0  0  0  0  0  0
  151.2199  140.3858  157.7259 C   0  0  0  0  0  0  0  0  0  0  0  0
  152.3825  140.2237  158.0948 O   0  0  0  0  0  0  0  0  0  0  0  0
  150.7259  141.7841  157.3536 C   0  0  0  0  0  0  0  0  0  0  0  0
  151.1546  142.7684  158.3319 N   0  0  0  0  0  0  0  0  0  0  0  0
  150.9300  144.1301  158.3354 C   0  0  0  0  0  0  0  0  0  0  0  0
  151.5260  144.6384  159.4539 C   0  0  0  0  0  0  0  0  0  0  0  0
  152.1018  143.4966  160.0780 C   0  0  0  0  0  0  0  0  0  0  0  0
  151.8805  142.3802  159.4031 N   0  0  0  0  0  0  0  0  0  0  0  0
  150.6238  135.6138  156.9536 C   0  0  0  0  0  0  0  0  0  0  0  0
  151.8456  135.5065  156.7032 O   0  0  0  0  0  0  0  0  0  0  0  0
  149.8882  134.6550  157.2794 O   0  5  0  0  0  0  0  0  0  0  0  0
  146.6099  135.9776  156.2254 H   0  0  0  0  0  0  0  0  0  0  0  0
  148.0306  134.9774  155.9851 H   0  0  0  0  0  0  0  0  0  0  0  0
  147.7864  136.4198  155.0000 H   0  0  0  0  0  0  0  0  0  0  0  0
  147.9482  137.8307  157.0970 H   0  0  0  0  0  0  0  0  0  0  0  0
  148.2280  136.4136  158.0391 H   0  0  0  0  0  0  0  0  0  0  0  0
  149.8421  136.8283  154.6812 H   0  0  0  0  0  0  0  0  0  0  0  0
  149.5394  138.4315  155.2483 H   0  0  0  0  0  0  0  0  0  0  0  0
  151.6580  138.3426  154.0118 H   0  0  0  0  0  0  0  0  0  0  0  0
  152.3071  137.1144  155.0817 H   0  0  0  0  0  0  0  0  0  0  0  0
  152.0158  138.7457  155.6796 H   0  0  0  0  0  0  0  0  0  0  0  0
  150.1120  137.7951  158.8966 H   0  0  0  0  0  0  0  0  0  0  0  0
  151.6280  137.7937  158.0662 H   0  0  0  0  0  0  0  0  0  0  0  0
  149.3938  139.6308  157.3116 H   0  0  0  0  0  0  0  0  0  0  0  0
  151.1075  142.0544  156.3676 H   0  0  0  0  0  0  0  0  0  0  0  0
  149.6368  141.8047  157.2914 H   0  0  0  0  0  0  0  0  0  0  0  0
  150.3678  144.6171  157.5523 H   0  0  0  0  0  0  0  0  0  0  0  0
  151.5476  145.6685  159.7772 H   0  0  0  0  0  0  0  0  0  0  0  0
  152.6712  143.4466  160.9945 H   0  0  0  0  0  0  0  0  0  0  0  0
  1  2  1  0  0  0  0
  1 19  1  0  0  0  0
  1 20  1  0  0  0  0
  1 21  1  0  0  0  0
  2  3  1  0  0  0  0
  2 22  1  0  0  0  0
  2 23  1  0  0  0  0
  3  4  1  0  0  0  0
  3  6  1  0  0  0  0
  3 16  1  0  0  0  0
  4  5  1  0  0  0  0
  4 24  1  0  0  0  0
  4 25  1  0  0  0  0
  5 26  1  0  0  0  0
  5 27  1  0  0  0  0
  5 28  1  0  0  0  0
  6  7  1  0  0  0  0
  6 29  1  0  0  0  0
  6 30  1  0  0  0  0
  7  8  1  0  0  0  0
  7 31  1  0  0  0  0
  8  9  2  0  0  0  0
  8 10  1  0  0  0  0
 10 11  1  0  0  0  0
 10 32  1  0  0  0  0
 10 33  1  0  0  0  0
 11 15  1  0  0  0  0
 11 12  1  0  0  0  0
 12 13  2  0  0  0  0
 12 34  1  0  0  0  0
 13 14  1  0  0  0  0
 13 35  1  0  0  0  0
 14 15  2  0  0  0  0
 14 36  1  0  0  0  0
 16 17  2  0  0  0  0
 16 18  1  0  0  0  0
M  CHG  1  18  -1
M  END
> <s_m_source_file>
AV-unprocessed.smi

> <i_m_source_file_index>
2455

> <i_lp_mmshare_version>
43012

> <i_f3d_flags>
0

> <s_epik_input>
W0NIM11bQ0gyXUMoW0NIMl1bQ0gzXSkoQyg9TylbT0hdKVtDSDJdW05IXUMoPU8pW0NIMl1uMVtjSF1bY0hdW2NIXW4x

> <s_epik_cmdline>
J2VwaWtfcHl0aG9uJywgJy1waCcsICc3LjAnLCAnLXRuJywgJzgnLCAnLW1hJywgJzIwMCcsICctbWV0YWxfYmluZGluZycsICctaW1hZScsICc8aW5maWxlLm1hZT4nLCAnLW9tYWUnLCAnPG91dGZpbGUubWFlPic=

> <r_lp_tautomer_probability>
1

> <r_epik_Ionization_Penalty>
0.00236672

> <r_epik_Ionization_Penalty_Charging>
0.00235221

> <r_epik_Ionization_Penalty_Neutral>
1.45156e-05

> <r_epik_State_Penalty>
0.00162453

> <r_epik_Charging_Adjusted_Penalty>
0.00397673

> <i_epik_Tot_Q>
-1

> <i_epik_Tot_abs_Q>
1

> <r_epik_Metal_State_Penalty>
-0

> <b_epik_Metal_Only>
0

> <s_lp_Force_Field>
OPLS_2005

> <r_lp_Energy>
9.36787

> <b_lp_Chiralities_Consistent>
1

> <s_lp_Variant>
AV-unprocessed.smi:2455-1

> <Gold.Version>
5.8.1

> <Gold.Id.Protein>
6NUR|6NUR_protein|mol2

> <Gold.PLP.Fitness>
43.9384

> <Gold.PLP.PLP>
-28.0308

> <Gold.PLP.part.hbond>
-3.0000

> <Gold.PLP.part.metal>
0.0000

> <Gold.PLP.part.buried>
-3.9938

> <Gold.PLP.part.nonpolar>
-22.3220

> <Gold.PLP.part.repulsive>
0.0338

> <Gold.PLP.ligand.clash>
0.0000

> <Gold.PLP.ligand.torsion>
0.6684

> <Gold.PLP.Chemscore.Hbond>
4.6960

> <Gold.PLP.Chemscore.CHOScore>
1.0000

> <Gold.PLP.Chemscore.Metal>
0.0000

> <Gold.Chemscore.Hbonds>
donor molecule, donor type, donor heavy atom, donor atom, acceptor molecule, acceptor atom, score
      P1  H  6896  6908       L1    18  0.70
      P1  H 10752 10764       L1    17  1.76
      L1  C    12    34       P1  8028  1.00
      L1  C    12    34       P1  8029  0.03

> <Gold.PLP.Chemscore.Internal.Correction>
0.1564

> <Gold.Rescore>
     Score         DG    S(hbond)    S(metal)    S(lipo)     H(rot)  DE(clash)    DE(int)     intcor
     11.56     -14.37       2.52        0.00      61.65       2.63       0.39       2.43       ----

> <Gold.Chemscore.Fitness>
11.5574

> <Gold.Chemscore.DG>
-14.3722

> <Gold.Chemscore.ZeroCoef>
-5.4800

> <Gold.Chemscore.Hbond>
2.5196

> <Gold.Chemscore.Metal>
0.0000

> <Gold.Chemscore.Lipo>
61.6550

> <Gold.Chemscore.Internal_Hbond>
0.0000

> <Gold.Chemscore.DEClash>
0.3855

> <Gold.Chemscore.DEInternal>
2.4293

> <Gold.Chemscore.Rot>
2.6316

> <Gold.Chemscore.Internal.Correction>
   9.000000E+99

> <Gold.Chemscore.Hbonds>
donor molecule, donor type, donor heavy atom, donor atom, acceptor molecule, acceptor atom, score
      P1  H  6896  6908       L1    18  0.12
      P1  H  7997  8010       L1     9  0.06
      P1  H 10752 10764       L1    17  0.86

> <Gold.Chemscore.Hbond.Weighted>
-8.4156

> <Gold.Chemscore.Metal.Weighted>
-0.0000

> <Gold.Chemscore.Lipo.Weighted>
-7.2136

> <Gold.Chemscore.Internal_Hbond.Weighted>
0.0000

> <Gold.Chemscore.DEClash.Weighted>
0.3855

> <Gold.Chemscore.DEInternal.Weighted>
2.4293

> <Gold.Chemscore.Rot.Weighted>
6.7370

> <Gold.Chemscore.Internal.Correction.Weighted>
   9.000000E+99

> <Gold.Protein.RotatedTorsions>
[ 6907 6896 6895 6894 ] final  140.34 input  -60.11 | X-H torsion
[ 7974 7965 7964 7962 ] final -132.88 input  175.53 | X-H torsion
[ 8008 7997 7996 7995 ] final   52.05 input   59.86 | X-H torsion
[ 10167 10162 10161 10158 ] final -119.87 input  -65.29 | X-H torsion
[ 10718 10713 10712 10709 ] final  -66.06 input   66.30 | X-H torsion
[ 10763 10752 10751 10750 ] final  -24.08 input  -60.55 | X-H torsion
[ 11005 11000 10999 10996 ] final -118.67 input  -57.11 | X-H torsion

> <Gold.Protein.ActiveResidues>
 VAL166  LYS551  ARG553  GLY616  TRP617  ASP618  TYR619  PRO620  LYS621  CYS622 
 ASP623  PHE694  ASN695  SER759  ASP760  ASP761  ALA762  ILE779  LEU786  VAL792 
 PHE793  MET794  SER795  GLU796  ALA797  LYS798  CYS799  TRP800  GLU811  SER814 

> <Gold.Protein.RotatedAtoms>
  152.2442  133.5160  159.5287 H   0  0  0  0  0  0  0  0  0  0  0  0  # atno 6907 bound_to 6896
  150.7073  134.1048  159.3988 H   0  0  0  0  0  0  0  0  0  0  0  0  # atno 6908 bound_to 6896
  151.8968  135.0394  160.0553 H   0  0  0  0  0  0  0  0  0  0  0  0  # atno 6909 bound_to 6896
  144.9244  140.7053  143.4945 H   0  0  0  0  0  0  0  0  0  0  0  0  # atno 7974 bound_to 7965
  155.4453  140.3456  155.4294 H   0  0  0  0  0  0  0  0  0  0  0  0  # atno 8008 bound_to 7997
  156.1253  140.1499  156.9175 H   0  0  0  0  0  0  0  0  0  0  0  0  # atno 8009 bound_to 7997
  154.4854  140.0857  156.7453 H   0  0  0  0  0  0  0  0  0  0  0  0  # atno 8010 bound_to 7997
  140.0419  143.5145  152.2125 H   0  0  0  0  0  0  0  0  0  0  0  0  # atno 10167 bound_to 10162
  156.0634  130.4256  150.1654 H   0  0  0  0  0  0  0  0  0  0  0  0  # atno 10718 bound_to 10713
  153.6780  135.6968  153.5126 H   0  0  0  0  0  0  0  0  0  0  0  0  # atno 10763 bound_to 10752
  153.2507  135.4276  155.0793 H   0  0  0  0  0  0  0  0  0  0  0  0  # atno 10764 bound_to 10752
  154.8408  135.3530  154.6324 H   0  0  0  0  0  0  0  0  0  0  0  0  # atno 10765 bound_to 10752
  141.0269  134.0040  157.3201 H   0  0  0  0  0  0  0  0  0  0  0  0  # atno 11005 bound_to 11000
  145.3243  139.1779  143.4571 LP  0  0  0  0  0  0  0  0  0  0  0  0  # atno 17320 bound_to 7965
  146.3219  140.3264  142.8637 LP  0  0  0  0  0  0  0  0  0  0  0  0  # atno 17321 bound_to 7965
  139.6008  144.7582  151.3176 LP  0  0  0  0  0  0  0  0  0  0  0  0  # atno 17342 bound_to 10162
  140.7256  143.7013  150.7843 LP  0  0  0  0  0  0  0  0  0  0  0  0  # atno 17343 bound_to 10162
  156.9719  130.9837  151.3457 LP  0  0  0  0  0  0  0  0  0  0  0  0  # atno 17370 bound_to 10713
  157.5658  130.8277  149.8326 LP  0  0  0  0  0  0  0  0  0  0  0  0  # atno 17371 bound_to 10713
  139.9182  135.0198  156.7963 LP  0  0  0  0  0  0  0  0  0  0  0  0  # atno 17394 bound_to 11000
  140.6475  133.9762  155.7738 LP  0  0  0  0  0  0  0  0  0  0  0  0  # atno 17395 bound_to 11000

$$$$
