AV-unprocessed.smi:1238|AV-procd|sdf|5184|dock9
  -GOLD-   22720 4263D 1   1.00000     0.00000
 Structure written by MMmdl.
 42 43  0  0  0  0  0  0  0  0  2 V2000
  148.9144  134.4853  158.3387 C   0  0  0  0  0  0  0  0  0  0  0  0
  150.0226  135.3391  158.5625 O   0  0  0  0  0  0  0  0  0  0  0  0
  149.6298  136.6557  158.9111 C   0  0  0  0  0  0  0  0  0  0  0  0
  150.8868  137.4870  159.2192 C   0  0  0  0  0  0  0  0  0  0  0  0
  151.5876  137.8996  157.9806 N   0  0  0  0  0  0  0  0  0  0  0  0
  151.0606  138.9493  157.1675 C   0  0  0  0  0  0  0  0  0  0  0  0
  149.4526  139.6388  157.7172 S   0  0  0  0  0  0  0  0  0  0  0  0
  149.5069  141.3080  157.0053 C   0  0  0  0  0  0  0  0  0  0  0  0
  150.3810  142.2566  157.8198 C   0  0  0  0  0  0  0  0  0  0  0  0
  149.9903  142.6747  158.9096 O   0  0  0  0  0  0  0  0  0  0  0  0
  151.5640  142.5896  157.2808 N   0  0  0  0  0  0  0  0  0  0  0  0
  152.5382  143.4903  157.8901 C   0  0  0  0  0  0  0  0  0  0  0  0
  152.9623  143.0085  159.2931 C   0  0  0  0  0  0  0  0  0  0  0  0
  152.8419  144.2242  160.2134 C   0  0  0  0  0  0  0  0  0  0  0  0
  151.7261  145.0574  159.5912 C   0  0  0  0  0  0  0  0  0  0  0  0
  151.9327  144.8926  158.0851 C   0  0  0  0  0  0  0  0  0  0  0  0
  151.6948  139.3495  156.1093 N   0  0  0  0  0  0  0  0  0  0  0  0
  152.8989  138.7791  155.6985 C   0  0  0  0  0  0  0  0  0  0  0  0
  153.3629  139.3131  154.6676 O   0  5  0  0  0  0  0  0  0  0  0  0
  153.4066  137.7293  156.4458 C   0  0  0  0  0  0  0  0  0  0  0  0
  152.7313  137.2312  157.6374 C   0  0  0  0  0  0  0  0  0  0  0  0
  153.1729  136.2792  158.2833 O   0  0  0  0  0  0  0  0  0  0  0  0
  149.2668  133.4884  158.0752 H   0  0  0  0  0  0  0  0  0  0  0  0
  148.2950  134.8506  157.5184 H   0  0  0  0  0  0  0  0  0  0  0  0
  148.2957  134.3989  159.2327 H   0  0  0  0  0  0  0  0  0  0  0  0
  149.0742  137.1070  158.0876 H   0  0  0  0  0  0  0  0  0  0  0  0
  148.9658  136.6271  159.7760 H   0  0  0  0  0  0  0  0  0  0  0  0
  150.6477  138.3277  159.8688 H   0  0  0  0  0  0  0  0  0  0  0  0
  151.5471  136.8920  159.8525 H   0  0  0  0  0  0  0  0  0  0  0  0
  148.4949  141.7110  156.9491 H   0  0  0  0  0  0  0  0  0  0  0  0
  149.8869  141.2496  155.9845 H   0  0  0  0  0  0  0  0  0  0  0  0
  151.8009  142.1995  156.3799 H   0  0  0  0  0  0  0  0  0  0  0  0
  153.4111  143.5717  157.2398 H   0  0  0  0  0  0  0  0  0  0  0  0
  152.2902  142.2263  159.6508 H   0  0  0  0  0  0  0  0  0  0  0  0
  153.9701  142.5921  159.2969 H   0  0  0  0  0  0  0  0  0  0  0  0
  152.6354  143.9483  161.2479 H   0  0  0  0  0  0  0  0  0  0  0  0
  153.7739  144.7908  160.1990 H   0  0  0  0  0  0  0  0  0  0  0  0
  150.7573  144.6458  159.8774 H   0  0  0  0  0  0  0  0  0  0  0  0
  151.7532  146.1004  159.9074 H   0  0  0  0  0  0  0  0  0  0  0  0
  152.6456  145.6418  157.7380 H   0  0  0  0  0  0  0  0  0  0  0  0
  151.0088  145.0486  157.5263 H   0  0  0  0  0  0  0  0  0  0  0  0
  154.3348  137.2643  156.1473 H   0  0  0  0  0  0  0  0  0  0  0  0
  1  2  1  0  0  0  0
  1 23  1  0  0  0  0
  1 24  1  0  0  0  0
  1 25  1  0  0  0  0
  2  3  1  0  0  0  0
  3  4  1  0  0  0  0
  3 26  1  0  0  0  0
  3 27  1  0  0  0  0
  4 28  1  0  0  0  0
  4 29  1  0  0  0  0
  4  5  1  0  0  0  0
  5  6  1  0  0  0  0
  5 21  1  0  0  0  0
  6 17  2  0  0  0  0
  6  7  1  0  0  0  0
  7  8  1  0  0  0  0
  8  9  1  0  0  0  0
  8 30  1  0  0  0  0
  8 31  1  0  0  0  0
  9 10  2  0  0  0  0
  9 11  1  0  0  0  0
 11 12  1  0  0  0  0
 11 32  1  0  0  0  0
 12 16  1  0  0  0  0
 12 13  1  0  0  0  0
 12 33  1  0  0  0  0
 13 14  1  0  0  0  0
 13 34  1  0  0  0  0
 13 35  1  0  0  0  0
 14 15  1  0  0  0  0
 14 36  1  0  0  0  0
 14 37  1  0  0  0  0
 15 16  1  0  0  0  0
 15 38  1  0  0  0  0
 15 39  1  0  0  0  0
 16 40  1  0  0  0  0
 16 41  1  0  0  0  0
 17 18  1  0  0  0  0
 18 20  2  0  0  0  0
 18 19  1  0  0  0  0
 20 21  1  0  0  0  0
 20 42  1  0  0  0  0
 21 22  2  0  0  0  0
M  CHG  1  19  -1
M  END
> <s_m_source_file>
AV-unprocessed.smi

> <i_m_source_file_index>
1238

> <i_lp_mmshare_version>
43012

> <i_f3d_flags>
0

> <s_epik_input>
W0NIM11PW0NIMl1bQ0gyXW4xYyhuYyhbT0hdKVtjSF1jMT1PKVNbQ0gyXUMoPU8pW05IXVtDSF0yW0NIMl1bQ0gyXVtDSDJdW0NIMl0y

> <s_epik_cmdline>
J2VwaWtfcHl0aG9uJywgJy1waCcsICc3LjAnLCAnLXRuJywgJzgnLCAnLW1hJywgJzIwMCcsICctbWV0YWxfYmluZGluZycsICctaW1hZScsICc8aW5maWxlLm1hZT4nLCAnLW9tYWUnLCAnPG91dGZpbGUubWFlPic=

> <r_lp_tautomer_probability>
1

> <r_epik_Ionization_Penalty>
0.0116372

> <r_epik_Ionization_Penalty_Charging>
3.186e-07

> <r_epik_Ionization_Penalty_Neutral>
0.0116369

> <r_epik_State_Penalty>
0.000414464

> <r_epik_Charging_Adjusted_Penalty>
0.000414782

> <i_epik_Tot_Q>
-1

> <i_epik_Tot_abs_Q>
1

> <r_epik_Metal_State_Penalty>
-0

> <b_epik_Metal_Only>
0

> <s_lp_Force_Field>
OPLS_2005

> <r_lp_Energy>
27.578

> <b_lp_Chiralities_Consistent>
1

> <s_lp_Variant>
AV-unprocessed.smi:1238-1

> <Gold.Version>
5.8.1

> <Gold.Id.Protein>
6NUR|6NUR_protein|mol2

> <Gold.PLP.Fitness>
46.5879

> <Gold.PLP.PLP>
-38.2815

> <Gold.PLP.part.hbond>
-5.0000

> <Gold.PLP.part.metal>
0.0000

> <Gold.PLP.part.buried>
-7.1356

> <Gold.PLP.part.nonpolar>
-27.3942

> <Gold.PLP.part.repulsive>
0.1289

> <Gold.PLP.ligand.clash>
0.0000

> <Gold.PLP.ligand.torsion>
0.8601

> <Gold.PLP.Chemscore.Hbond>
3.3295

> <Gold.PLP.Chemscore.CHOScore>
0.0000

> <Gold.PLP.Chemscore.Metal>
0.0000

> <Gold.Chemscore.Hbonds>
donor molecule, donor type, donor heavy atom, donor atom, acceptor molecule, acceptor atom, score
      P1  H  6896  6907       L1     2  0.31
      P1  H  6896  6908       L1    22  0.02
      P1  H  7997  8008       L1    19  1.00

> <Gold.PLP.Chemscore.Internal.Correction>
0.0382

> <Gold.Rescore>
     Score         DG    S(hbond)    S(metal)    S(lipo)     H(rot)  DE(clash)    DE(int)     intcor
     12.35     -15.70       2.18        0.00      80.00       2.51       0.04       3.31       ----

> <Gold.Chemscore.Fitness>
12.3512

> <Gold.Chemscore.DG>
-15.6984

> <Gold.Chemscore.ZeroCoef>
-5.4800

> <Gold.Chemscore.Hbond>
2.1828

> <Gold.Chemscore.Metal>
0.0000

> <Gold.Chemscore.Lipo>
79.9957

> <Gold.Chemscore.Internal_Hbond>
0.0000

> <Gold.Chemscore.DEClash>
0.0351

> <Gold.Chemscore.DEInternal>
3.3121

> <Gold.Chemscore.Rot>
2.5124

> <Gold.Chemscore.Internal.Correction>
   9.000000E+99

> <Gold.Chemscore.Hbonds>
donor molecule, donor type, donor heavy atom, donor atom, acceptor molecule, acceptor atom, score
      P1  H  6896  6907       L1     2  0.01
      P1  H  6896  6908       L1    22  0.05
      P1  H  7997  8008       L1    19  0.02

> <Gold.Chemscore.Hbond.Weighted>
-7.2907

> <Gold.Chemscore.Metal.Weighted>
-0.0000

> <Gold.Chemscore.Lipo.Weighted>
-9.3595

> <Gold.Chemscore.Internal_Hbond.Weighted>
0.0000

> <Gold.Chemscore.DEClash.Weighted>
0.0351

> <Gold.Chemscore.DEInternal.Weighted>
3.3121

> <Gold.Chemscore.Rot.Weighted>
6.4318

> <Gold.Chemscore.Internal.Correction.Weighted>
   9.000000E+99

> <Gold.Protein.RotatedTorsions>
[ 6907 6896 6895 6894 ] final  -93.02 input  -60.11 | X-H torsion
[ 7974 7965 7964 7962 ] final   68.70 input  175.53 | X-H torsion
[ 8008 7997 7996 7995 ] final   -1.75 input   59.86 | X-H torsion
[ 10167 10162 10161 10158 ] final -174.50 input  -65.29 | X-H torsion
[ 10718 10713 10712 10709 ] final -140.94 input   66.30 | X-H torsion
[ 10763 10752 10751 10750 ] final -171.24 input  -60.55 | X-H torsion
[ 11005 11000 10999 10996 ] final   74.72 input  -57.11 | X-H torsion

> <Gold.Protein.ActiveResidues>
 VAL166  LYS551  ARG553  GLY616  TRP617  ASP618  TYR619  PRO620  LYS621  CYS622 
 ASP623  PHE694  ASN695  SER759  ASP760  ASP761  ALA762  ILE779  LEU786  VAL792 
 PHE793  MET794  SER795  GLU796  ALA797  LYS798  CYS799  TRP800  GLU811  SER814 

> <Gold.Protein.RotatedAtoms>
  150.6915  134.2033  159.4330 H   0  0  0  0  0  0  0  0  0  0  0  0  # atno 6907 bound_to 6896
  151.9998  134.9932  160.0574 H   0  0  0  0  0  0  0  0  0  0  0  0  # atno 6908 bound_to 6896
  152.1589  133.4534  159.4888 H   0  0  0  0  0  0  0  0  0  0  0  0  # atno 6909 bound_to 6896
  145.7993  139.2974  143.1164 H   0  0  0  0  0  0  0  0  0  0  0  0  # atno 7974 bound_to 7965
  154.6433  140.2551  155.7296 H   0  0  0  0  0  0  0  0  0  0  0  0  # atno 8008 bound_to 7997
  156.2540  140.2883  156.0757 H   0  0  0  0  0  0  0  0  0  0  0  0  # atno 8009 bound_to 7997
  155.1562  140.0383  157.2822 H   0  0  0  0  0  0  0  0  0  0  0  0  # atno 8010 bound_to 7997
  139.5630  144.1823  152.1269 H   0  0  0  0  0  0  0  0  0  0  0  0  # atno 10167 bound_to 10162
  156.3282  130.7571  151.1684 H   0  0  0  0  0  0  0  0  0  0  0  0  # atno 10718 bound_to 10713
  154.6326  135.2888  155.0198 H   0  0  0  0  0  0  0  0  0  0  0  0  # atno 10763 bound_to 10752
  154.1353  135.6527  153.4934 H   0  0  0  0  0  0  0  0  0  0  0  0  # atno 10764 bound_to 10752
  153.0287  135.5320  154.7160 H   0  0  0  0  0  0  0  0  0  0  0  0  # atno 10765 bound_to 10752
  139.9377  134.7457  156.1182 H   0  0  0  0  0  0  0  0  0  0  0  0  # atno 11005 bound_to 11000
  145.9894  140.8615  143.0074 LP  0  0  0  0  0  0  0  0  0  0  0  0  # atno 17320 bound_to 7965
  144.6771  140.2194  143.7368 LP  0  0  0  0  0  0  0  0  0  0  0  0  # atno 17321 bound_to 7965
  140.1340  144.5262  150.6785 LP  0  0  0  0  0  0  0  0  0  0  0  0  # atno 17342 bound_to 10162
  140.6912  143.2377  151.5126 LP  0  0  0  0  0  0  0  0  0  0  0  0  # atno 17343 bound_to 10162
  157.7425  131.0488  150.5017 LP  0  0  0  0  0  0  0  0  0  0  0  0  # atno 17370 bound_to 10713
  156.5179  130.4155  149.6266 LP  0  0  0  0  0  0  0  0  0  0  0  0  # atno 17371 bound_to 10713
  141.0999  133.6681  156.2730 LP  0  0  0  0  0  0  0  0  0  0  0  0  # atno 17394 bound_to 11000
  140.6031  134.5534  157.5521 LP  0  0  0  0  0  0  0  0  0  0  0  0  # atno 17395 bound_to 11000

$$$$
