AV-unprocessed.smi:100|AV-procd|sdf|905|dock9
  -GOLD-   2262017403D 1   1.00000     0.00000
 Structure written by MMmdl.
 31 33  0  0  0  0  0  0  0  0  1 V2000
  148.6780  138.3012  155.5417 N   0  0  0  0  0  0  0  0  0  0  0  0
  149.8423  138.9329  155.7444 C   0  0  0  0  0  0  0  0  0  0  0  0
  150.8925  138.6199  154.9489 N   0  0  0  0  0  0  0  0  0  0  0  0
  152.0647  139.2380  155.1308 C   0  0  0  0  0  0  0  0  0  0  0  0
  152.3866  140.1741  156.0286 N   0  0  0  0  0  0  0  0  0  0  0  0
  151.3247  140.4846  156.8284 C   0  0  0  0  0  0  0  0  0  0  0  0
  150.0251  139.9141  156.7510 C   0  0  0  0  0  0  0  0  0  0  0  0
  149.2049  140.4759  157.7203 N   0  0  0  0  0  0  0  0  0  0  0  0
  149.9808  141.3311  158.3322 C   0  0  0  0  0  0  0  0  0  0  0  0
  151.2738  141.4010  157.8552 N   0  0  0  0  0  0  0  0  0  0  0  0
  152.4143  142.2576  158.3173 C   0  0  2  0  0  0  0  0  0  0  0  0
  152.5010  142.1614  159.7100 O   0  0  0  0  0  0  0  0  0  0  0  0
  151.9657  143.3390  160.3056 C   0  0  1  0  0  0  0  0  0  0  0  0
  152.5005  143.5074  161.7347 C   0  0  0  0  0  0  0  0  0  0  0  0
  151.7465  142.7129  162.6248 O   0  0  0  0  0  0  0  0  0  0  0  0
  152.4667  144.4002  159.3306 C   0  0  2  0  0  0  0  0  0  0  0  0
  151.8796  145.5901  159.4728 F   0  0  0  0  0  0  0  0  0  0  0  0
  152.2084  143.7543  157.9781 C   0  0  2  0  0  0  0  0  0  0  0  0
  150.9063  144.0634  157.5056 O   0  0  0  0  0  0  0  0  0  0  0  0
  147.8812  138.5199  156.1227 H   0  0  0  0  0  0  0  0  0  0  0  0
  148.5989  137.6110  154.8092 H   0  0  0  0  0  0  0  0  0  0  0  0
  152.8579  138.9401  154.4609 H   0  0  0  0  0  0  0  0  0  0  0  0
  149.6235  141.9350  159.1535 H   0  0  0  0  0  0  0  0  0  0  0  0
  153.2995  141.8168  157.8568 H   0  0  0  0  0  0  0  0  0  0  0  0
  150.8744  143.3119  160.2921 H   0  0  0  0  0  0  0  0  0  0  0  0
  153.5583  143.2496  161.7967 H   0  0  0  0  0  0  0  0  0  0  0  0
  152.3986  144.5450  162.0539 H   0  0  0  0  0  0  0  0  0  0  0  0
  151.8717  143.0420  163.5019 H   0  0  0  0  0  0  0  0  0  0  0  0
  153.5381  144.5550  159.4670 H   0  0  0  0  0  0  0  0  0  0  0  0
  152.9396  144.0699  157.2332 H   0  0  0  0  0  0  0  0  0  0  0  0
  150.9895  144.5762  156.7159 H   0  0  0  0  0  0  0  0  0  0  0  0
  1  2  1  0  0  0  0
  1 20  1  0  0  0  0
  1 21  1  0  0  0  0
  2  7  1  0  0  0  0
  2  3  2  0  0  0  0
  3  4  1  0  0  0  0
  4  5  2  0  0  0  0
  4 22  1  0  0  0  0
  5  6  1  0  0  0  0
  6 10  1  0  0  0  0
  6  7  2  0  0  0  0
  7  8  1  0  0  0  0
  8  9  2  0  0  0  0
  9 10  1  0  0  0  0
  9 23  1  0  0  0  0
 10 11  1  0  0  0  0
 11 18  1  0  0  0  0
 11 12  1  0  0  0  0
 11 24  1  0  0  0  0
 12 13  1  0  0  0  0
 13 14  1  0  0  0  0
 13 16  1  0  0  0  0
 13 25  1  0  0  0  0
 14 15  1  0  0  0  0
 14 26  1  0  0  0  0
 14 27  1  0  0  0  0
 15 28  1  0  0  0  0
 16 17  1  0  0  0  0
 16 18  1  0  0  0  0
 16 29  1  0  0  0  0
 18 19  1  0  0  0  0
 18 30  1  0  0  0  0
 19 31  1  0  0  0  0
M  END
> <s_m_source_file>
AV-unprocessed.smi

> <i_m_source_file_index>
100

> <i_lp_mmshare_version>
43012

> <i_f3d_flags>
0

> <s_epik_input>
bjFbY0hdbmMoW05IMl0pYyhjMTIpbltjSF1uMltDQEBIXTNPW0NAQEhdKFtDSDJdW09IXSlbQ0BIXShGKVtDQEhdM1tPSF0=

> <s_epik_cmdline>
J2VwaWtfcHl0aG9uJywgJy1waCcsICc3LjAnLCAnLXRuJywgJzgnLCAnLW1hJywgJzIwMCcsICctbWV0YWxfYmluZGluZycsICctaW1hZScsICc8aW5maWxlLm1hZT4nLCAnLW9tYWUnLCAnPG91dGZpbGUubWFlPic=

> <r_lp_tautomer_probability>
1

> <r_epik_Ionization_Penalty>
0.000750324

> <r_epik_Ionization_Penalty_Charging>
0

> <r_epik_Ionization_Penalty_Neutral>
0.000750324

> <r_epik_State_Penalty>
-0

> <r_epik_Charging_Adjusted_Penalty>
0

> <i_epik_Tot_Q>
0

> <i_epik_Tot_abs_Q>
0

> <r_epik_Metal_State_Penalty>
-0

> <b_epik_Metal_Only>
0

> <s_epik_Chemistry_Notes>
This compound contains an acetal/aminal-like group ( X-CH(R)-Y where X, Y are N, S, or O) that may be acid/base labile, releasing an aldehyde.

> <s_lp_Force_Field>
OPLS_2005

> <r_lp_Energy>
36.1234

> <b_lp_Chiralities_Consistent>
1

> <s_lp_Variant>
AV-unprocessed.smi:100-9

> <Gold.Version>
5.8.1

> <Gold.Id.Protein>
6NUR|6NUR_protein|mol2

> <Gold.PLP.Fitness>
40.9140

> <Gold.PLP.PLP>
-35.4794

> <Gold.PLP.part.hbond>
-3.9456

> <Gold.PLP.part.metal>
0.0000

> <Gold.PLP.part.buried>
-4.1689

> <Gold.PLP.part.nonpolar>
-26.3781

> <Gold.PLP.part.repulsive>
0.1252

> <Gold.PLP.ligand.clash>
0.0000

> <Gold.PLP.ligand.torsion>
0.3783

> <Gold.PLP.Chemscore.Hbond>
2.0530

> <Gold.PLP.Chemscore.CHOScore>
0.0000

> <Gold.PLP.Chemscore.Metal>
0.0000

> <Gold.Chemscore.Hbonds>
donor molecule, donor type, donor heavy atom, donor atom, acceptor molecule, acceptor atom, score
      L1  H    19    31       P1  8028  0.06
      P1  H  6933  6945       L1    15  1.00
      P1  H  7997  8009       L1     5  1.00

> <Gold.PLP.Chemscore.Internal.Correction>
0.0321

> <Gold.Rescore>
     Score         DG    S(hbond)    S(metal)    S(lipo)     H(rot)  DE(clash)    DE(int)     intcor
      5.93      -9.64       1.85        0.00      52.63       3.19       2.15       1.56       ----

> <Gold.Chemscore.Fitness>
5.9304

> <Gold.Chemscore.DG>
-9.6443

> <Gold.Chemscore.ZeroCoef>
-5.4800

> <Gold.Chemscore.Hbond>
1.8484

> <Gold.Chemscore.Metal>
0.0000

> <Gold.Chemscore.Lipo>
52.6257

> <Gold.Chemscore.Internal_Hbond>
0.0000

> <Gold.Chemscore.DEClash>
2.1525

> <Gold.Chemscore.DEInternal>
1.5614

> <Gold.Chemscore.Rot>
3.1901

> <Gold.Chemscore.Internal.Correction>
   9.000000E+99

> <Gold.Chemscore.Hbonds>
donor molecule, donor type, donor heavy atom, donor atom, acceptor molecule, acceptor atom, score
      L1  H    19    31       P1  8028  0.05
      P1  H  6933  6945       L1    15  0.92
      P1  H  7997  8009       L1     5  0.53

> <Gold.Chemscore.Hbond.Weighted>
-6.1738

> <Gold.Chemscore.Metal.Weighted>
-0.0000

> <Gold.Chemscore.Lipo.Weighted>
-6.1572

> <Gold.Chemscore.Internal_Hbond.Weighted>
0.0000

> <Gold.Chemscore.DEClash.Weighted>
2.1525

> <Gold.Chemscore.DEInternal.Weighted>
1.5614

> <Gold.Chemscore.Rot.Weighted>
8.1667

> <Gold.Chemscore.Internal.Correction.Weighted>
   9.000000E+99

> <Gold.Protein.RotatedTorsions>
[ 6907 6896 6895 6894 ] final  122.57 input  -60.11 | X-H torsion
[ 7974 7965 7964 7962 ] final -105.22 input  175.53 | X-H torsion
[ 8008 7997 7996 7995 ] final -150.73 input   59.86 | X-H torsion
[ 10167 10162 10161 10158 ] final   -5.30 input  -65.29 | X-H torsion
[ 10718 10713 10712 10709 ] final  -64.71 input   66.30 | X-H torsion
[ 10763 10752 10751 10750 ] final   48.34 input  -60.55 | X-H torsion
[ 11005 11000 10999 10996 ] final -143.89 input  -57.11 | X-H torsion

> <Gold.Protein.ActiveResidues>
 VAL166  LYS551  ARG553  GLY616  TRP617  ASP618  TYR619  PRO620  LYS621  CYS622 
 ASP623  PHE694  ASN695  SER759  ASP760  ASP761  ALA762  ILE779  LEU786  VAL792 
 PHE793  MET794  SER795  GLU796  ALA797  LYS798  CYS799  TRP800  GLU811  SER814 

> <Gold.Protein.RotatedAtoms>
  152.4232  133.7151  159.6500 H   0  0  0  0  0  0  0  0  0  0  0  0  # atno 6907 bound_to 6896
  150.8108  133.8414  159.3189 H   0  0  0  0  0  0  0  0  0  0  0  0  # atno 6908 bound_to 6896
  151.6125  135.1041  160.0136 H   0  0  0  0  0  0  0  0  0  0  0  0  # atno 6909 bound_to 6896
  145.2333  140.9178  143.3192 H   0  0  0  0  0  0  0  0  0  0  0  0  # atno 7974 bound_to 7965
  155.6281  140.0688  157.2657 H   0  0  0  0  0  0  0  0  0  0  0  0  # atno 8008 bound_to 7997
  154.4212  140.1772  156.1492 H   0  0  0  0  0  0  0  0  0  0  0  0  # atno 8009 bound_to 7997
  155.9955  140.3341  155.6797 H   0  0  0  0  0  0  0  0  0  0  0  0  # atno 8010 bound_to 7997
  140.6958  143.6324  150.8510 H   0  0  0  0  0  0  0  0  0  0  0  0  # atno 10167 bound_to 10162
  156.0713  130.4237  150.1459 H   0  0  0  0  0  0  0  0  0  0  0  0  # atno 10718 bound_to 10713
  152.9792  135.5947  154.3910 H   0  0  0  0  0  0  0  0  0  0  0  0  # atno 10763 bound_to 10752
  154.3565  135.2767  155.2345 H   0  0  0  0  0  0  0  0  0  0  0  0  # atno 10764 bound_to 10752
  154.4361  135.6024  153.6154 H   0  0  0  0  0  0  0  0  0  0  0  0  # atno 10765 bound_to 10752
  140.8080  134.2778  157.4952 H   0  0  0  0  0  0  0  0  0  0  0  0  # atno 11005 bound_to 11000
  144.9657  139.3933  143.6334 LP  0  0  0  0  0  0  0  0  0  0  0  0  # atno 17320 bound_to 7965
  146.3347  139.8731  142.8837 LP  0  0  0  0  0  0  0  0  0  0  0  0  # atno 17321 bound_to 7965
  140.0042  143.5711  152.2864 LP  0  0  0  0  0  0  0  0  0  0  0  0  # atno 17342 bound_to 10162
  139.6412  144.7655  151.2336 LP  0  0  0  0  0  0  0  0  0  0  0  0  # atno 17343 bound_to 10162
  156.9509  130.9774  151.3498 LP  0  0  0  0  0  0  0  0  0  0  0  0  # atno 17370 bound_to 10713
  157.5785  130.8360  149.8489 LP  0  0  0  0  0  0  0  0  0  0  0  0  # atno 17371 bound_to 10713
  139.8716  134.9467  156.3945 LP  0  0  0  0  0  0  0  0  0  0  0  0  # atno 17394 bound_to 11000
  140.9227  133.7634  155.9926 LP  0  0  0  0  0  0  0  0  0  0  0  0  # atno 17395 bound_to 11000

$$$$
