AV-unprocessed.smi:2881|AV-procd|sdf|11070|dock10
  -GOLD-   2272015543D 1   1.00000     0.00000
 Structure written by MMmdl.
 40 42  0  0  0  0  0  0  0  0  1 V2000
  145.5457  133.1681  151.8099 C   0  0  0  0  0  0  0  0  0  0  0  0
  146.6299  133.6471  152.7296 C   0  0  0  0  0  0  0  0  0  0  0  0
  147.8941  133.0420  152.9902 C   0  0  0  0  0  0  0  0  0  0  0  0
  148.4918  133.8802  153.8895 C   0  0  0  0  0  0  0  0  0  0  0  0
  149.8295  133.8224  154.5544 C   0  0  0  0  0  0  0  0  0  0  0  0
  150.0581  135.0600  155.4216 C   0  0  0  0  0  0  0  0  0  0  0  0
  150.3429  134.9333  156.6122 O   0  0  0  0  0  0  0  0  0  0  0  0
  149.9328  136.2490  154.8125 N   0  0  0  0  0  0  0  0  0  0  0  0
  150.1268  137.5460  155.4552 C   0  0  1  0  0  0  0  0  0  0  0  0
  151.4482  137.5624  156.2549 C   0  0  2  0  0  0  0  0  0  0  0  0
  151.4236  138.7562  157.2262 C   0  0  0  0  0  0  0  0  0  0  0  0
  151.6023  139.9585  156.2803 C   0  0  0  0  0  0  0  0  0  0  0  0
  151.6899  139.2953  154.8887 C   0  0  1  0  0  0  0  0  0  0  0  0
  152.4691  138.0288  155.2204 C   0  0  0  0  0  0  0  0  0  0  0  0
  150.3324  138.6989  154.4392 C   0  0  2  0  0  0  0  0  0  0  0  0
  149.1497  139.6837  154.3588 C   0  0  0  0  0  0  0  0  0  0  0  0
  149.5000  140.8131  153.5876 O   0  0  0  0  0  0  0  0  0  0  0  0
  147.5930  134.8973  154.1203 N   0  0  0  0  0  0  0  0  0  0  0  0
  146.4536  134.7661  153.4164 N   0  0  0  0  0  0  0  0  0  0  0  0
  147.7416  135.6768  154.7454 H   0  0  0  0  0  0  0  0  0  0  0  0
  145.8807  132.3177  151.2157 H   0  0  0  0  0  0  0  0  0  0  0  0
  145.2388  133.9540  151.1192 H   0  0  0  0  0  0  0  0  0  0  0  0
  144.6657  132.8540  152.3717 H   0  0  0  0  0  0  0  0  0  0  0  0
  148.3030  132.1325  152.5751 H   0  0  0  0  0  0  0  0  0  0  0  0
  150.6157  133.7584  153.8013 H   0  0  0  0  0  0  0  0  0  0  0  0
  149.9143  132.9251  155.1691 H   0  0  0  0  0  0  0  0  0  0  0  0
  149.6962  136.2579  153.8312 H   0  0  0  0  0  0  0  0  0  0  0  0
  149.2847  137.7393  156.1227 H   0  0  0  0  0  0  0  0  0  0  0  0
  151.6843  136.6169  156.7446 H   0  0  0  0  0  0  0  0  0  0  0  0
  150.4977  138.8098  157.8001 H   0  0  0  0  0  0  0  0  0  0  0  0
  152.2519  138.7001  157.9335 H   0  0  0  0  0  0  0  0  0  0  0  0
  150.7973  140.6870  156.3650 H   0  0  0  0  0  0  0  0  0  0  0  0
  152.5320  140.4808  156.5094 H   0  0  0  0  0  0  0  0  0  0  0  0
  152.1574  139.9282  154.1339 H   0  0  0  0  0  0  0  0  0  0  0  0
  153.4563  138.2236  155.6435 H   0  0  0  0  0  0  0  0  0  0  0  0
  152.5734  137.3476  154.3741 H   0  0  0  0  0  0  0  0  0  0  0  0
  150.4759  138.2774  153.4420 H   0  0  0  0  0  0  0  0  0  0  0  0
  148.2963  139.2000  153.8839 H   0  0  0  0  0  0  0  0  0  0  0  0
  148.8147  140.0025  155.3453 H   0  0  0  0  0  0  0  0  0  0  0  0
  149.2485  140.6538  152.6906 H   0  0  0  0  0  0  0  0  0  0  0  0
  1 21  1  0  0  0  0
  1 22  1  0  0  0  0
  1 23  1  0  0  0  0
  1  2  1  0  0  0  0
  2 19  2  0  0  0  0
  2  3  1  0  0  0  0
  3  4  2  0  0  0  0
  3 24  1  0  0  0  0
  4 18  1  0  0  0  0
  4  5  1  0  0  0  0
  5  6  1  0  0  0  0
  5 25  1  0  0  0  0
  5 26  1  0  0  0  0
  6  7  2  0  0  0  0
  6  8  1  0  0  0  0
  8  9  1  0  0  0  0
  8 27  1  0  0  0  0
  9 15  1  0  0  0  0
  9 10  1  0  0  0  0
  9 28  1  0  0  0  0
 10 14  1  0  0  0  0
 10 11  1  0  0  0  0
 10 29  1  0  0  0  0
 11 12  1  0  0  0  0
 11 30  1  0  0  0  0
 11 31  1  0  0  0  0
 12 13  1  0  0  0  0
 12 32  1  0  0  0  0
 12 33  1  0  0  0  0
 13 14  1  0  0  0  0
 13 15  1  0  0  0  0
 13 34  1  0  0  0  0
 14 35  1  0  0  0  0
 14 36  1  0  0  0  0
 15 16  1  0  0  0  0
 15 37  1  0  0  0  0
 16 17  1  0  0  0  0
 16 38  1  0  0  0  0
 16 39  1  0  0  0  0
 17 40  1  0  0  0  0
 18 19  1  0  0  0  0
 18 20  1  0  0  0  0
M  END
> <s_m_source_file>
AV-unprocessed.smi

> <i_m_source_file_index>
2881

> <i_lp_mmshare_version>
43012

> <i_f3d_flags>
0

> <s_epik_input>
W0NIM11jMVtjSF1jKG5bbkhdMSlbQ0gyXUMoPU8pW05IXVtDQEhdKFtDQEBIXTIzKVtDQEhdKFtDSDJdW09IXSlbQ0BASF0oW0NIMl0zKVtDSDJdW0NIMl0y

> <s_epik_cmdline>
J2VwaWtfcHl0aG9uJywgJy1waCcsICc3LjAnLCAnLXRuJywgJzgnLCAnLW1hJywgJzIwMCcsICctbWV0YWxfYmluZGluZycsICctaW1hZScsICc8aW5maWxlLm1hZT4nLCAnLW9tYWUnLCAnPG91dGZpbGUubWFlPic=

> <r_lp_tautomer_probability>
0.5

> <r_epik_Ionization_Penalty>
0.00013396

> <r_epik_Ionization_Penalty_Charging>
0

> <r_epik_Ionization_Penalty_Neutral>
0.00013396

> <r_epik_State_Penalty>
0.41068

> <r_epik_Charging_Adjusted_Penalty>
0.41068

> <i_epik_Tot_Q>
0

> <i_epik_Tot_abs_Q>
0

> <r_epik_Metal_State_Penalty>
0.41066

> <b_epik_Metal_Only>
0

> <s_lp_Force_Field>
OPLS_2005

> <r_lp_Energy>
46.6194

> <b_lp_Chiralities_Consistent>
1

> <s_lp_Variant>
AV-unprocessed.smi:2881-16

> <Gold.Version>
5.8.1

> <Gold.Id.Protein>
6NUR|6NUR_protein|mol2

> <Gold.PLP.Fitness>
38.9945

> <Gold.PLP.PLP>
-32.4744

> <Gold.PLP.part.hbond>
-4.7449

> <Gold.PLP.part.metal>
0.0000

> <Gold.PLP.part.buried>
-1.4979

> <Gold.PLP.part.nonpolar>
-26.1672

> <Gold.PLP.part.repulsive>
0.4086

> <Gold.PLP.ligand.clash>
0.0000

> <Gold.PLP.ligand.torsion>
0.2510

> <Gold.PLP.Chemscore.Hbond>
2.3345

> <Gold.PLP.Chemscore.CHOScore>
0.0000

> <Gold.PLP.Chemscore.Metal>
0.0000

> <Gold.Chemscore.Hbonds>
donor molecule, donor type, donor heavy atom, donor atom, acceptor molecule, acceptor atom, score
      L1  H     8    27       P1  7948  0.89
      L1  H    17    40       P1  7957  1.00
      P1  H  7989  7998       L1    17  0.30

> <Gold.PLP.Chemscore.Internal.Correction>
0.0187

> <Gold.Rescore>
     Score         DG    S(hbond)    S(metal)    S(lipo)     H(rot)  DE(clash)    DE(int)     intcor
     10.41     -13.76       1.61        0.00      74.51       2.28       0.13       3.22       ----

> <Gold.Chemscore.Fitness>
10.4061

> <Gold.Chemscore.DG>
-13.7617

> <Gold.Chemscore.ZeroCoef>
-5.4800

> <Gold.Chemscore.Hbond>
1.6137

> <Gold.Chemscore.Metal>
0.0000

> <Gold.Chemscore.Lipo>
74.5063

> <Gold.Chemscore.Internal_Hbond>
0.0000

> <Gold.Chemscore.DEClash>
0.1309

> <Gold.Chemscore.DEInternal>
3.2247

> <Gold.Chemscore.Rot>
2.2755

> <Gold.Chemscore.Internal.Correction>
   9.000000E+99

> <Gold.Chemscore.Hbonds>
donor molecule, donor type, donor heavy atom, donor atom, acceptor molecule, acceptor atom, score
      L1  H     8    27       P1  7948  0.39
      L1  H    17    40       P1  7957  0.94
      P1  H  7989  7998       L1    17  0.07

> <Gold.Chemscore.Hbond.Weighted>
-5.3897

> <Gold.Chemscore.Metal.Weighted>
-0.0000

> <Gold.Chemscore.Lipo.Weighted>
-8.7172

> <Gold.Chemscore.Internal_Hbond.Weighted>
0.0000

> <Gold.Chemscore.DEClash.Weighted>
0.1309

> <Gold.Chemscore.DEInternal.Weighted>
3.2247

> <Gold.Chemscore.Rot.Weighted>
5.8252

> <Gold.Chemscore.Internal.Correction.Weighted>
   9.000000E+99

> <Gold.Protein.RotatedTorsions>
[ 6907 6896 6895 6894 ] final -169.92 input  -60.11 | X-H torsion
[ 7974 7965 7964 7962 ] final -148.03 input  175.53 | X-H torsion
[ 8008 7997 7996 7995 ] final  118.04 input   59.86 | X-H torsion
[ 10167 10162 10161 10158 ] final  134.43 input  -65.29 | X-H torsion
[ 10718 10713 10712 10709 ] final  -56.65 input   66.30 | X-H torsion
[ 10763 10752 10751 10750 ] final  -30.48 input  -60.55 | X-H torsion
[ 11005 11000 10999 10996 ] final  162.66 input  -57.11 | X-H torsion

> <Gold.Protein.ActiveResidues>
 VAL166  LYS551  ARG553  GLY616  TRP617  ASP618  TYR619  PRO620  LYS621  CYS622 
 ASP623  PHE694  ASN695  SER759  ASP760  ASP761  ALA762  ILE779  LEU786  VAL792 
 PHE793  MET794  SER795  GLU796  ALA797  LYS798  CYS799  TRP800  GLU811  SER814 

> <Gold.Protein.RotatedAtoms>
  151.4993  133.3508  159.2866 H   0  0  0  0  0  0  0  0  0  0  0  0  # atno 6907 bound_to 6896
  150.8783  134.8172  159.7217 H   0  0  0  0  0  0  0  0  0  0  0  0  # atno 6908 bound_to 6896
  152.4746  134.4887  159.9740 H   0  0  0  0  0  0  0  0  0  0  0  0  # atno 6909 bound_to 6896
  144.8055  140.5249  143.5678 H   0  0  0  0  0  0  0  0  0  0  0  0  # atno 7974 bound_to 7965
  156.2526  140.2883  156.0773 H   0  0  0  0  0  0  0  0  0  0  0  0  # atno 8008 bound_to 7997
  155.1605  140.0399  157.2859 H   0  0  0  0  0  0  0  0  0  0  0  0  # atno 8009 bound_to 7997
  154.6396  140.2519  155.7344 H   0  0  0  0  0  0  0  0  0  0  0  0  # atno 8010 bound_to 7997
  139.5257  144.6568  151.5138 H   0  0  0  0  0  0  0  0  0  0  0  0  # atno 10167 bound_to 10162
  156.1272  130.4162  150.0334 H   0  0  0  0  0  0  0  0  0  0  0  0  # atno 10718 bound_to 10713
  153.7817  135.6904  153.4887 H   0  0  0  0  0  0  0  0  0  0  0  0  # atno 10763 bound_to 10752
  153.1807  135.4507  155.0023 H   0  0  0  0  0  0  0  0  0  0  0  0  # atno 10764 bound_to 10752
  154.8079  135.3365  154.7319 H   0  0  0  0  0  0  0  0  0  0  0  0  # atno 10765 bound_to 10752
  140.2280  134.8146  157.3288 H   0  0  0  0  0  0  0  0  0  0  0  0  # atno 11005 bound_to 11000
  145.5449  139.1476  143.3426 LP  0  0  0  0  0  0  0  0  0  0  0  0  # atno 17320 bound_to 7965
  146.2345  140.5588  142.8961 LP  0  0  0  0  0  0  0  0  0  0  0  0  # atno 17321 bound_to 7965
  140.6397  143.8914  150.6680 LP  0  0  0  0  0  0  0  0  0  0  0  0  # atno 17342 bound_to 10162
  140.2244  143.3784  152.1616 LP  0  0  0  0  0  0  0  0  0  0  0  0  # atno 17343 bound_to 10162
  156.8256  130.9374  151.3639 LP  0  0  0  0  0  0  0  0  0  0  0  0  # atno 17370 bound_to 10713
  157.6453  130.8839  149.9526 LP  0  0  0  0  0  0  0  0  0  0  0  0  # atno 17371 bound_to 10713
  140.1780  134.4525  155.7789 LP  0  0  0  0  0  0  0  0  0  0  0  0  # atno 17394 bound_to 11000
  141.2219  133.6971  156.7821 LP  0  0  0  0  0  0  0  0  0  0  0  0  # atno 17395 bound_to 11000

$$$$
