AV-unprocessed.smi:951|AV-procd|sdf|4254|dock3
  -GOLD-   22720 2163D 1   1.00000     0.00000
 Structure written by MMmdl.
 52 54  0  0  0  0  0  0  0  0  2 V2000
  150.1591  137.7773  159.5221 O   0  0  0  0  0  0  0  0  0  0  0  0
  149.6362  137.9221  158.4162 C   0  0  0  0  0  0  0  0  0  0  0  0
  149.9785  138.8977  157.5601 N   0  0  0  0  0  0  0  0  0  0  0  0
  151.0033  139.9116  157.7964 C   0  0  0  0  0  0  0  0  0  0  0  0
  150.6152  141.2912  157.2285 C   0  0  0  0  0  0  0  0  0  0  0  0
  151.3291  142.4565  157.8931 C   0  0  0  0  0  0  0  0  0  0  0  0
  152.4072  142.2639  158.7836 C   0  0  0  0  0  0  0  0  0  0  0  0
  153.0479  143.3888  159.3436 C   0  0  0  0  0  0  0  0  0  0  0  0
  152.5980  144.6811  159.0022 C   0  0  0  0  0  0  0  0  0  0  0  0
  151.5172  144.8163  158.1077 C   0  0  0  0  0  0  0  0  0  0  0  0
  150.9297  143.7144  157.5924 N   0  3  0  0  0  0  0  0  0  0  0  0
  148.5668  136.9284  157.9236 C   0  0  1  0  0  0  0  0  0  0  0  0
  149.0534  136.2567  156.6289 C   0  0  0  0  0  0  0  0  0  0  0  0
  148.4097  134.8852  156.6405 C   0  0  0  0  0  0  0  0  0  0  0  0
  148.2567  134.5420  158.1208 C   0  0  0  0  0  0  0  0  0  0  0  0
  148.2701  135.8152  158.8487 N   0  0  0  0  0  0  0  0  0  0  0  0
  147.9563  135.9502  160.1641 C   0  0  0  0  0  0  0  0  0  0  0  0
  147.8584  137.0576  160.6936 O   0  0  0  0  0  0  0  0  0  0  0  0
  147.7005  134.6856  161.0220 C   0  0  0  0  0  0  0  0  0  0  0  0
  146.5263  133.8425  160.4713 C   0  0  0  0  0  0  0  0  0  0  0  0
  145.1468  134.4419  160.7952 C   0  0  0  0  0  0  0  0  0  0  0  0
  144.9767  134.6408  162.3076 C   0  0  0  0  0  0  0  0  0  0  0  0
  146.0890  135.5325  162.8784 C   0  0  0  0  0  0  0  0  0  0  0  0
  147.4909  134.9919  162.5279 C   0  0  0  0  0  0  0  0  0  0  0  0
  149.4909  138.9414  156.6768 H   0  0  0  0  0  0  0  0  0  0  0  0
  151.1567  139.9921  158.8728 H   0  0  0  0  0  0  0  0  0  0  0  0
  151.9612  139.5950  157.3800 H   0  0  0  0  0  0  0  0  0  0  0  0
  150.8232  141.3163  156.1577 H   0  0  0  0  0  0  0  0  0  0  0  0
  149.5391  141.4363  157.3285 H   0  0  0  0  0  0  0  0  0  0  0  0
  152.7458  141.2675  159.0286 H   0  0  0  0  0  0  0  0  0  0  0  0
  153.8761  143.2620  160.0254 H   0  0  0  0  0  0  0  0  0  0  0  0
  153.0765  145.5553  159.4189 H   0  0  0  0  0  0  0  0  0  0  0  0
  151.1099  145.7645  157.7884 H   0  0  0  0  0  0  0  0  0  0  0  0
  147.6286  137.4536  157.7341 H   0  0  0  0  0  0  0  0  0  0  0  0
  148.7932  136.8294  155.7381 H   0  0  0  0  0  0  0  0  0  0  0  0
  150.1379  136.1298  156.6306 H   0  0  0  0  0  0  0  0  0  0  0  0
  147.4221  134.9497  156.1817 H   0  0  0  0  0  0  0  0  0  0  0  0
  148.9834  134.1397  156.0891 H   0  0  0  0  0  0  0  0  0  0  0  0
  147.3439  133.9710  158.2938 H   0  0  0  0  0  0  0  0  0  0  0  0
  149.1053  133.9386  158.4463 H   0  0  0  0  0  0  0  0  0  0  0  0
  148.5950  134.0665  160.9852 H   0  0  0  0  0  0  0  0  0  0  0  0
  146.6213  133.7149  159.3923 H   0  0  0  0  0  0  0  0  0  0  0  0
  146.5839  132.8387  160.8939 H   0  0  0  0  0  0  0  0  0  0  0  0
  145.0197  135.3946  160.2801 H   0  0  0  0  0  0  0  0  0  0  0  0
  144.3628  133.7840  160.4193 H   0  0  0  0  0  0  0  0  0  0  0  0
  144.0021  135.0821  162.5182 H   0  0  0  0  0  0  0  0  0  0  0  0
  144.9920  133.6715  162.8075 H   0  0  0  0  0  0  0  0  0  0  0  0
  145.9665  136.5492  162.5067 H   0  0  0  0  0  0  0  0  0  0  0  0
  145.9844  135.5993  163.9616 H   0  0  0  0  0  0  0  0  0  0  0  0
  147.6559  134.0734  163.0925 H   0  0  0  0  0  0  0  0  0  0  0  0
  148.2504  135.6919  162.8791 H   0  0  0  0  0  0  0  0  0  0  0  0
  150.1535  143.8360  156.9418 H   0  0  0  0  0  0  0  0  0  0  0  0
  1  2  2  0  0  0  0
  2  3  1  0  0  0  0
  2 12  1  0  0  0  0
  3  4  1  0  0  0  0
  3 25  1  0  0  0  0
  4  5  1  0  0  0  0
  4 26  1  0  0  0  0
  4 27  1  0  0  0  0
  5  6  1  0  0  0  0
  5 28  1  0  0  0  0
  5 29  1  0  0  0  0
  6 11  1  0  0  0  0
  6  7  2  0  0  0  0
  7  8  1  0  0  0  0
  7 30  1  0  0  0  0
  8  9  2  0  0  0  0
  8 31  1  0  0  0  0
  9 10  1  0  0  0  0
  9 32  1  0  0  0  0
 10 11  2  0  0  0  0
 10 33  1  0  0  0  0
 11 52  1  0  0  0  0
 12 16  1  0  0  0  0
 12 13  1  0  0  0  0
 12 34  1  0  0  0  0
 13 14  1  0  0  0  0
 13 35  1  0  0  0  0
 13 36  1  0  0  0  0
 14 15  1  0  0  0  0
 14 37  1  0  0  0  0
 14 38  1  0  0  0  0
 15 16  1  0  0  0  0
 15 39  1  0  0  0  0
 15 40  1  0  0  0  0
 16 17  1  0  0  0  0
 17 18  2  0  0  0  0
 17 19  1  0  0  0  0
 19 24  1  0  0  0  0
 19 20  1  0  0  0  0
 19 41  1  0  0  0  0
 20 21  1  0  0  0  0
 20 42  1  0  0  0  0
 20 43  1  0  0  0  0
 21 22  1  0  0  0  0
 21 44  1  0  0  0  0
 21 45  1  0  0  0  0
 22 23  1  0  0  0  0
 22 46  1  0  0  0  0
 22 47  1  0  0  0  0
 23 24  1  0  0  0  0
 23 48  1  0  0  0  0
 23 49  1  0  0  0  0
 24 50  1  0  0  0  0
 24 51  1  0  0  0  0
M  CHG  1  11   1
M  END
> <s_m_source_file>
AV-unprocessed.smi

> <i_m_source_file_index>
951

> <i_lp_mmshare_version>
43012

> <i_f3d_flags>
0

> <s_epik_input>
bjFbY0hdW2NIXVtjSF1bY0hdYzFbQ0gyXVtDSDJdW05IXUMoPU8pW0NAQEhdMltDSDJdW0NIMl1bQ0gyXU4yQyg9TylbQ0hdM1tDSDJdW0NIMl1bQ0gyXVtDSDJdW0NIMl0z

> <s_epik_cmdline>
J2VwaWtfcHl0aG9uJywgJy1waCcsICc3LjAnLCAnLXRuJywgJzgnLCAnLW1hJywgJzIwMCcsICctbWV0YWxfYmluZGluZycsICctaW1hZScsICc8aW5maWxlLm1hZT4nLCAnLW9tYWUnLCAnPG91dGZpbGUubWFlPic=

> <r_epik_Ionization_Penalty>
1.85306

> <r_epik_Ionization_Penalty_Charging>
1.85306

> <r_epik_Ionization_Penalty_Neutral>
5.78903e-08

> <r_epik_State_Penalty>
1.97071

> <r_epik_Charging_Adjusted_Penalty>
3.82377

> <i_epik_Tot_Q>
1

> <i_epik_Tot_abs_Q>
1

> <r_epik_Metal_State_Penalty>
1.99634

> <b_epik_Metal_Only>
0

> <s_lp_Force_Field>
OPLS_2005

> <r_lp_Energy>
29.0494

> <b_lp_Chiralities_Consistent>
1

> <s_lp_Variant>
AV-unprocessed.smi:951-4

> <Gold.Version>
5.8.1

> <Gold.Id.Protein>
6NUR|6NUR_protein|mol2

> <Gold.PLP.Fitness>
52.2804

> <Gold.PLP.PLP>
-42.0764

> <Gold.PLP.part.hbond>
-4.0000

> <Gold.PLP.part.metal>
0.0000

> <Gold.PLP.part.buried>
-6.3792

> <Gold.PLP.part.nonpolar>
-32.2431

> <Gold.PLP.part.repulsive>
0.0578

> <Gold.PLP.ligand.clash>
0.0000

> <Gold.PLP.ligand.torsion>
0.4233

> <Gold.PLP.Chemscore.Hbond>
3.6517

> <Gold.PLP.Chemscore.CHOScore>
0.0000

> <Gold.PLP.Chemscore.Metal>
0.0000

> <Gold.Chemscore.Hbonds>
donor molecule, donor type, donor heavy atom, donor atom, acceptor molecule, acceptor atom, score
      L1  H    11    52       P1  8028  2.00
      P1  H  6931  6943       L1    18  0.82
      P1  H  6934  6947       L1    18  0.74

> <Gold.PLP.Chemscore.Internal.Correction>
0.0955

> <Gold.Rescore>
     Score         DG    S(hbond)    S(metal)    S(lipo)     H(rot)  DE(clash)    DE(int)     intcor
     18.51     -22.99       2.29        0.00     120.43       1.65       0.24       4.24       ----

> <Gold.Chemscore.Fitness>
18.5072

> <Gold.Chemscore.DG>
-22.9865

> <Gold.Chemscore.ZeroCoef>
-5.4800

> <Gold.Chemscore.Hbond>
2.2910

> <Gold.Chemscore.Metal>
0.0000

> <Gold.Chemscore.Lipo>
120.4341

> <Gold.Chemscore.Internal_Hbond>
0.0000

> <Gold.Chemscore.DEClash>
0.2363

> <Gold.Chemscore.DEInternal>
4.2429

> <Gold.Chemscore.Rot>
1.6548

> <Gold.Chemscore.Internal.Correction>
   9.000000E+99

> <Gold.Chemscore.Hbonds>
donor molecule, donor type, donor heavy atom, donor atom, acceptor molecule, acceptor atom, score
      L1  H    11    52       P1  8028  0.95
      P1  H  6931  6943       L1    18  0.77
      P1  H  6934  6947       L1    18  0.71

> <Gold.Chemscore.Hbond.Weighted>
-7.6519

> <Gold.Chemscore.Metal.Weighted>
-0.0000

> <Gold.Chemscore.Lipo.Weighted>
-14.0908

> <Gold.Chemscore.Internal_Hbond.Weighted>
0.0000

> <Gold.Chemscore.DEClash.Weighted>
0.2363

> <Gold.Chemscore.DEInternal.Weighted>
4.2429

> <Gold.Chemscore.Rot.Weighted>
4.2362

> <Gold.Chemscore.Internal.Correction.Weighted>
   9.000000E+99

> <Gold.Protein.RotatedTorsions>
[ 6907 6896 6895 6894 ] final -102.56 input  -60.11 | X-H torsion
[ 7974 7965 7964 7962 ] final  121.61 input  175.53 | X-H torsion
[ 8008 7997 7996 7995 ] final  131.68 input   59.86 | X-H torsion
[ 10167 10162 10161 10158 ] final -124.66 input  -65.29 | X-H torsion
[ 10718 10713 10712 10709 ] final -167.48 input   66.30 | X-H torsion
[ 10763 10752 10751 10750 ] final -103.37 input  -60.55 | X-H torsion
[ 11005 11000 10999 10996 ] final -119.84 input  -57.11 | X-H torsion

> <Gold.Protein.ActiveResidues>
 VAL166  LYS551  ARG553  GLY616  TRP617  ASP618  TYR619  PRO620  LYS621  CYS622 
 ASP623  PHE694  ASN695  SER759  ASP760  ASP761  ALA762  ILE779  LEU786  VAL792 
 PHE793  MET794  SER795  GLU796  ALA797  LYS798  CYS799  TRP800  GLU811  SER814 

> <Gold.Protein.RotatedAtoms>
  150.7201  134.0562  159.3815 H   0  0  0  0  0  0  0  0  0  0  0  0  # atno 6907 bound_to 6896
  151.8541  135.0545  160.0471 H   0  0  0  0  0  0  0  0  0  0  0  0  # atno 6908 bound_to 6896
  152.2768  133.5397  159.5509 H   0  0  0  0  0  0  0  0  0  0  0  0  # atno 6909 bound_to 6896
  145.1173  139.3412  143.4732 H   0  0  0  0  0  0  0  0  0  0  0  0  # atno 7974 bound_to 7965
  156.2973  140.2565  156.2965 H   0  0  0  0  0  0  0  0  0  0  0  0  # atno 8008 bound_to 7997
  154.9459  140.0395  157.2139 H   0  0  0  0  0  0  0  0  0  0  0  0  # atno 8009 bound_to 7997
  154.8082  140.2840  155.5876 H   0  0  0  0  0  0  0  0  0  0  0  0  # atno 8010 bound_to 7997
  139.9904  143.5647  152.2344 H   0  0  0  0  0  0  0  0  0  0  0  0  # atno 10167 bound_to 10162
  156.6830  130.9129  151.3059 H   0  0  0  0  0  0  0  0  0  0  0  0  # atno 10718 bound_to 10713
  154.7803  135.4826  153.9829 H   0  0  0  0  0  0  0  0  0  0  0  0  # atno 10763 bound_to 10752
  153.1484  135.6786  153.8927 H   0  0  0  0  0  0  0  0  0  0  0  0  # atno 10764 bound_to 10752
  153.8579  135.3159  155.3414 H   0  0  0  0  0  0  0  0  0  0  0  0  # atno 10765 bound_to 10752
  141.0186  134.0157  157.3314 H   0  0  0  0  0  0  0  0  0  0  0  0  # atno 11005 bound_to 11000
  146.3523  140.1118  142.8603 LP  0  0  0  0  0  0  0  0  0  0  0  0  # atno 17320 bound_to 7965
  145.0779  140.9201  143.4843 LP  0  0  0  0  0  0  0  0  0  0  0  0  # atno 17321 bound_to 7965
  139.6344  144.7648  151.2468 LP  0  0  0  0  0  0  0  0  0  0  0  0  # atno 17342 bound_to 10162
  140.7457  143.6423  150.8323 LP  0  0  0  0  0  0  0  0  0  0  0  0  # atno 17343 bound_to 10162
  157.7037  130.9361  150.0863 LP  0  0  0  0  0  0  0  0  0  0  0  0  # atno 17370 bound_to 10713
  156.1854  130.3652  149.8980 LP  0  0  0  0  0  0  0  0  0  0  0  0  # atno 17371 bound_to 10713
  139.9132  135.0193  156.7778 LP  0  0  0  0  0  0  0  0  0  0  0  0  # atno 17394 bound_to 11000
  140.6611  133.9644  155.7805 LP  0  0  0  0  0  0  0  0  0  0  0  0  # atno 17395 bound_to 11000

$$$$
