AV-unprocessed.smi:1218|AV-procd|sdf|5111|dock8
  -GOLD-   22720 4163D 1   1.00000     0.00000
 Structure written by MMmdl.
 44 45  0  0  0  0  0  0  0  0  1 V2000
  153.1462  142.9831  160.3169 C   0  0  0  0  0  0  0  0  0  0  0  0
  152.9096  142.8138  158.8076 C   0  0  0  0  0  0  0  0  0  0  0  0
  152.9696  144.1745  158.0981 C   0  0  0  0  0  0  0  0  0  0  0  0
  151.5656  142.1121  158.5157 C   0  0  0  0  0  0  0  0  0  0  0  0
  151.4000  141.5870  157.1590 N   0  0  0  0  0  0  0  0  0  0  0  0
  149.9967  141.4468  156.7758 C   0  0  0  0  0  0  0  0  0  0  0  0
  149.8434  140.8544  155.3652 C   0  0  0  0  0  0  0  0  0  0  0  0
  150.5224  139.6058  155.2985 O   0  0  0  0  0  0  0  0  0  0  0  0
  151.9123  139.7114  155.5985 C   0  0  2  0  0  0  0  0  0  0  0  0
  152.5589  138.3212  155.4780 C   0  0  0  0  0  0  0  0  0  0  0  0
  153.5943  138.3004  154.4500 N   0  0  0  0  0  0  0  0  0  0  0  0
  154.8383  137.8226  154.6127 C   0  0  0  0  0  0  0  0  0  0  0  0
  155.2547  137.3567  155.6730 O   0  0  0  0  0  0  0  0  0  0  0  0
  155.7540  137.8657  153.3882 C   0  0  0  0  0  0  0  0  0  0  0  0
  156.3599  136.5708  153.1309 N   0  0  0  0  0  0  0  0  0  0  0  0
  156.9741  136.1253  151.9785 C   0  0  0  0  0  0  0  0  0  0  0  0
  157.3915  134.8459  152.2091 C   0  0  0  0  0  0  0  0  0  0  0  0
  156.9852  134.5940  153.5493 C   0  0  0  0  0  0  0  0  0  0  0  0
  156.3676  135.6274  154.0984 N   0  0  0  0  0  0  0  0  0  0  0  0
  152.0596  140.2926  157.0190 C   0  0  0  0  0  0  0  0  0  0  0  0
  152.3584  143.5805  160.7769 H   0  0  0  0  0  0  0  0  0  0  0  0
  154.0972  143.4796  160.5124 H   0  0  0  0  0  0  0  0  0  0  0  0
  153.1724  142.0186  160.8246 H   0  0  0  0  0  0  0  0  0  0  0  0
  153.7254  142.2169  158.4017 H   0  0  0  0  0  0  0  0  0  0  0  0
  152.1835  144.8419  158.4525 H   0  0  0  0  0  0  0  0  0  0  0  0
  152.8499  144.0611  157.0202 H   0  0  0  0  0  0  0  0  0  0  0  0
  153.9273  144.6664  158.2708 H   0  0  0  0  0  0  0  0  0  0  0  0
  151.4590  141.2925  159.2281 H   0  0  0  0  0  0  0  0  0  0  0  0
  150.7461  142.7988  158.7342 H   0  0  0  0  0  0  0  0  0  0  0  0
  149.4791  140.8075  157.4925 H   0  0  0  0  0  0  0  0  0  0  0  0
  149.4962  142.4139  156.7990 H   0  0  0  0  0  0  0  0  0  0  0  0
  148.7902  140.7005  155.1305 H   0  0  0  0  0  0  0  0  0  0  0  0
  150.2436  141.5357  154.6128 H   0  0  0  0  0  0  0  0  0  0  0  0
  152.3832  140.3866  154.8812 H   0  0  0  0  0  0  0  0  0  0  0  0
  153.0309  138.0536  156.4236 H   0  0  0  0  0  0  0  0  0  0  0  0
  151.8009  137.5592  155.2883 H   0  0  0  0  0  0  0  0  0  0  0  0
  153.3438  138.6655  153.5423 H   0  0  0  0  0  0  0  0  0  0  0  0
  155.1848  138.1640  152.5067 H   0  0  0  0  0  0  0  0  0  0  0  0
  156.5331  138.6156  153.5352 H   0  0  0  0  0  0  0  0  0  0  0  0
  157.0602  136.7493  151.1010 H   0  0  0  0  0  0  0  0  0  0  0  0
  157.9096  134.1902  151.5254 H   0  0  0  0  0  0  0  0  0  0  0  0
  157.1203  133.6972  154.1358 H   0  0  0  0  0  0  0  0  0  0  0  0
  153.1194  140.3941  157.2561 H   0  0  0  0  0  0  0  0  0  0  0  0
  151.6453  139.5886  157.7426 H   0  0  0  0  0  0  0  0  0  0  0  0
  1  2  1  0  0  0  0
  1 21  1  0  0  0  0
  1 22  1  0  0  0  0
  1 23  1  0  0  0  0
  2  3  1  0  0  0  0
  2  4  1  0  0  0  0
  2 24  1  0  0  0  0
  3 25  1  0  0  0  0
  3 26  1  0  0  0  0
  3 27  1  0  0  0  0
  4  5  1  0  0  0  0
  4 28  1  0  0  0  0
  4 29  1  0  0  0  0
  5 20  1  0  0  0  0
  5  6  1  0  0  0  0
  6  7  1  0  0  0  0
  6 30  1  0  0  0  0
  6 31  1  0  0  0  0
  7  8  1  0  0  0  0
  7 32  1  0  0  0  0
  7 33  1  0  0  0  0
  8  9  1  0  0  0  0
  9 10  1  0  0  0  0
  9 20  1  0  0  0  0
  9 34  1  0  0  0  0
 10 11  1  0  0  0  0
 10 35  1  0  0  0  0
 10 36  1  0  0  0  0
 11 12  1  0  0  0  0
 11 37  1  0  0  0  0
 12 13  2  0  0  0  0
 12 14  1  0  0  0  0
 14 15  1  0  0  0  0
 14 38  1  0  0  0  0
 14 39  1  0  0  0  0
 15 19  1  0  0  0  0
 15 16  1  0  0  0  0
 16 17  2  0  0  0  0
 16 40  1  0  0  0  0
 17 18  1  0  0  0  0
 17 41  1  0  0  0  0
 18 19  2  0  0  0  0
 18 42  1  0  0  0  0
 20 43  1  0  0  0  0
 20 44  1  0  0  0  0
M  END
> <s_m_source_file>
AV-unprocessed.smi

> <i_m_source_file_index>
1218

> <i_lp_mmshare_version>
43012

> <i_f3d_flags>
0

> <s_epik_input>
W0NIM11bQ0hdKFtDSDNdKVtDSDJdTjFbQ0gyXVtDSDJdT1tDQEhdKFtDSDJdMSlbQ0gyXVtOSF1DKD1PKVtDSDJdbjJbY0hdW2NIXVtjSF1uMg==

> <s_epik_cmdline>
J2VwaWtfcHl0aG9uJywgJy1waCcsICc3LjAnLCAnLXRuJywgJzgnLCAnLW1hJywgJzIwMCcsICctbWV0YWxfYmluZGluZycsICctaW1hZScsICc8aW5maWxlLm1hZT4nLCAnLW9tYWUnLCAnPG91dGZpbGUubWFlPic=

> <r_lp_tautomer_probability>
1

> <r_epik_Ionization_Penalty>
1.10621

> <r_epik_Ionization_Penalty_Charging>
0

> <r_epik_Ionization_Penalty_Neutral>
1.10621

> <r_epik_State_Penalty>
1.16377

> <r_epik_Charging_Adjusted_Penalty>
1.16377

> <i_epik_Tot_Q>
0

> <i_epik_Tot_abs_Q>
0

> <r_epik_Metal_State_Penalty>
1.16377

> <b_epik_Metal_Only>
0

> <s_lp_Force_Field>
OPLS_2005

> <r_lp_Energy>
24.8608

> <b_lp_Chiralities_Consistent>
1

> <s_lp_Variant>
AV-unprocessed.smi:1218-6

> <Gold.Version>
5.8.1

> <Gold.Id.Protein>
6NUR|6NUR_protein|mol2

> <Gold.PLP.Fitness>
43.7539

> <Gold.PLP.PLP>
-40.6463

> <Gold.PLP.part.hbond>
-3.0709

> <Gold.PLP.part.metal>
0.0000

> <Gold.PLP.part.buried>
0.2274

> <Gold.PLP.part.nonpolar>
-39.0022

> <Gold.PLP.part.repulsive>
0.9525

> <Gold.PLP.ligand.clash>
0.0000

> <Gold.PLP.ligand.torsion>
1.4224

> <Gold.PLP.Chemscore.Hbond>
1.0000

> <Gold.PLP.Chemscore.CHOScore>
0.9666

> <Gold.PLP.Chemscore.Metal>
0.0000

> <Gold.Chemscore.Hbonds>
donor molecule, donor type, donor heavy atom, donor atom, acceptor molecule, acceptor atom, score
      P1  H 10752 10763       L1    19  0.88
      L1  C    16    40       P1 10674  1.00

> <Gold.PLP.Chemscore.Internal.Correction>
0.0526

> <Gold.Rescore>
     Score         DG    S(hbond)    S(metal)    S(lipo)     H(rot)  DE(clash)    DE(int)     intcor
     14.12     -18.12       0.97        0.00     121.96       1.90       0.90       3.09       ----

> <Gold.Chemscore.Fitness>
14.1247

> <Gold.Chemscore.DG>
-18.1179

> <Gold.Chemscore.ZeroCoef>
-5.4800

> <Gold.Chemscore.Hbond>
0.9655

> <Gold.Chemscore.Metal>
0.0000

> <Gold.Chemscore.Lipo>
121.9614

> <Gold.Chemscore.Internal_Hbond>
0.0000

> <Gold.Chemscore.DEClash>
0.9014

> <Gold.Chemscore.DEInternal>
3.0918

> <Gold.Chemscore.Rot>
1.8970

> <Gold.Chemscore.Internal.Correction>
   9.000000E+99

> <Gold.Chemscore.Hbonds>
donor molecule, donor type, donor heavy atom, donor atom, acceptor molecule, acceptor atom, score
      P1  H 10752 10763       L1    19  0.39

> <Gold.Chemscore.Hbond.Weighted>
-3.2248

> <Gold.Chemscore.Metal.Weighted>
-0.0000

> <Gold.Chemscore.Lipo.Weighted>
-14.2695

> <Gold.Chemscore.Internal_Hbond.Weighted>
0.0000

> <Gold.Chemscore.DEClash.Weighted>
0.9014

> <Gold.Chemscore.DEInternal.Weighted>
3.0918

> <Gold.Chemscore.Rot.Weighted>
4.8564

> <Gold.Chemscore.Internal.Correction.Weighted>
   9.000000E+99

> <Gold.Protein.RotatedTorsions>
[ 6907 6896 6895 6894 ] final -119.92 input  -60.11 | X-H torsion
[ 7974 7965 7964 7962 ] final -139.72 input  175.53 | X-H torsion
[ 8008 7997 7996 7995 ] final   47.33 input   59.86 | X-H torsion
[ 10167 10162 10161 10158 ] final  140.59 input  -65.29 | X-H torsion
[ 10718 10713 10712 10709 ] final   75.04 input   66.30 | X-H torsion
[ 10763 10752 10751 10750 ] final -132.10 input  -60.55 | X-H torsion
[ 11005 11000 10999 10996 ] final  -29.61 input  -57.11 | X-H torsion

> <Gold.Protein.ActiveResidues>
 VAL166  LYS551  ARG553  GLY616  TRP617  ASP618  TYR619  PRO620  LYS621  CYS622 
 ASP623  PHE694  ASN695  SER759  ASP760  ASP761  ALA762  ILE779  LEU786  VAL792 
 PHE793  MET794  SER795  GLU796  ALA797  LYS798  CYS799  TRP800  GLU811  SER814 

> <Gold.Protein.RotatedAtoms>
  150.8348  133.8032  159.3083 H   0  0  0  0  0  0  0  0  0  0  0  0  # atno 6907 bound_to 6896
  151.5751  135.1059  160.0014 H   0  0  0  0  0  0  0  0  0  0  0  0  # atno 6908 bound_to 6896
  152.4422  133.7427  159.6706 H   0  0  0  0  0  0  0  0  0  0  0  0  # atno 6909 bound_to 6896
  144.8654  140.6285  143.5301 H   0  0  0  0  0  0  0  0  0  0  0  0  # atno 7974 bound_to 7965
  155.3672  140.3422  155.4242 H   0  0  0  0  0  0  0  0  0  0  0  0  # atno 8008 bound_to 7997
  156.1682  140.1623  156.8528 H   0  0  0  0  0  0  0  0  0  0  0  0  # atno 8009 bound_to 7997
  154.5206  140.0768  156.8147 H   0  0  0  0  0  0  0  0  0  0  0  0  # atno 8010 bound_to 7997
  139.5044  144.6224  151.6018 H   0  0  0  0  0  0  0  0  0  0  0  0  # atno 10167 bound_to 10162
  157.6617  130.9707  150.1296 H   0  0  0  0  0  0  0  0  0  0  0  0  # atno 10718 bound_to 10713
  154.8746  135.3808  154.4355 H   0  0  0  0  0  0  0  0  0  0  0  0  # atno 10763 bound_to 10752
  153.5045  135.7030  153.5819 H   0  0  0  0  0  0  0  0  0  0  0  0  # atno 10764 bound_to 10752
  153.4136  135.3918  155.2032 H   0  0  0  0  0  0  0  0  0  0  0  0  # atno 10765 bound_to 10752
  140.9311  133.7337  156.0938 H   0  0  0  0  0  0  0  0  0  0  0  0  # atno 11005 bound_to 11000
  145.4232  139.1560  143.4063 LP  0  0  0  0  0  0  0  0  0  0  0  0  # atno 17320 bound_to 7965
  146.2891  140.4344  142.8746 LP  0  0  0  0  0  0  0  0  0  0  0  0  # atno 17321 bound_to 7965
  140.5931  143.9745  150.6337 LP  0  0  0  0  0  0  0  0  0  0  0  0  # atno 17342 bound_to 10162
  140.2932  143.3310  152.1043 LP  0  0  0  0  0  0  0  0  0  0  0  0  # atno 17343 bound_to 10162
  156.2146  130.3669  149.8628 LP  0  0  0  0  0  0  0  0  0  0  0  0  # atno 17370 bound_to 10713
  156.6498  130.8739  151.3529 LP  0  0  0  0  0  0  0  0  0  0  0  0  # atno 17371 bound_to 10713
  140.7861  134.3671  157.5476 LP  0  0  0  0  0  0  0  0  0  0  0  0  # atno 17394 bound_to 11000
  139.8796  134.9111  156.3030 LP  0  0  0  0  0  0  0  0  0  0  0  0  # atno 17395 bound_to 11000

$$$$
