AV-unprocessed.smi:1900|AV-procd|sdf|7712|dock5
  -GOLD-   22720 9453D 1   1.00000     0.00000
 Structure written by MMmdl.
 44 45  0  0  0  0  0  0  0  0  2 V2000
  144.5067  132.0740  149.9784 C   0  0  0  0  0  0  0  0  0  0  0  0
  145.6233  131.2393  150.6154 C   0  0  1  0  0  0  0  0  0  0  0  0
  146.4865  132.0707  151.5816 C   0  0  0  0  0  0  0  0  0  0  0  0
  147.4963  131.2137  152.2450 N   0  3  1  0  0  0  0  0  0  0  0  0
  148.4186  131.9910  153.1105 C   0  0  0  0  0  0  0  0  0  0  0  0
  147.6723  132.9352  154.0690 C   0  0  0  0  0  0  0  0  0  0  0  0
  148.6281  133.6671  155.0262 C   0  0  0  0  0  0  0  0  0  0  0  0
  149.1100  134.9219  154.4593 N   0  0  0  0  0  0  0  0  0  0  0  0
  149.7895  135.8590  155.1363 C   0  0  0  0  0  0  0  0  0  0  0  0
  150.1084  135.7439  156.3198 O   0  0  0  0  0  0  0  0  0  0  0  0
  150.0660  136.9207  154.3612 N   0  0  0  0  0  0  0  0  0  0  0  0
  150.7497  138.1050  154.7364 C   0  0  0  0  0  0  0  0  0  0  0  0
  150.2165  139.4178  154.6237 C   0  0  0  0  0  0  0  0  0  0  0  0
  151.0793  140.3288  155.0510 N   0  0  0  0  0  0  0  0  0  0  0  0
  152.1594  139.6104  155.4323 N   0  0  0  0  0  0  0  0  0  0  0  0
  152.0043  138.2528  155.2581 C   0  0  0  0  0  0  0  0  0  0  0  0
  146.8317  130.0880  152.9474 C   0  0  0  0  0  0  0  0  0  0  0  0
  145.9270  129.2896  151.9884 C   0  0  2  0  0  0  0  0  0  0  0  0
  146.7081  128.4053  151.0000 C   0  0  0  0  0  0  0  0  0  0  0  0
  145.0141  130.1653  151.3272 O   0  0  0  0  0  0  0  0  0  0  0  0
  152.9852  140.0557  155.8068 H   0  0  0  0  0  0  0  0  0  0  0  0
  144.9156  132.9100  149.4103 H   0  0  0  0  0  0  0  0  0  0  0  0
  143.8350  132.4799  150.7356 H   0  0  0  0  0  0  0  0  0  0  0  0
  143.9104  131.4690  149.2949 H   0  0  0  0  0  0  0  0  0  0  0  0
  146.2471  130.8434  149.8139 H   0  0  0  0  0  0  0  0  0  0  0  0
  146.9847  132.8682  151.0285 H   0  0  0  0  0  0  0  0  0  0  0  0
  145.8607  132.5479  152.3376 H   0  0  0  0  0  0  0  0  0  0  0  0
  149.0093  131.2985  153.7120 H   0  0  0  0  0  0  0  0  0  0  0  0
  149.1275  132.5457  152.4937 H   0  0  0  0  0  0  0  0  0  0  0  0
  147.1053  133.6721  153.5011 H   0  0  0  0  0  0  0  0  0  0  0  0
  146.9449  132.3654  154.6489 H   0  0  0  0  0  0  0  0  0  0  0  0
  148.1160  133.8941  155.9619 H   0  0  0  0  0  0  0  0  0  0  0  0
  149.4748  133.0283  155.2836 H   0  0  0  0  0  0  0  0  0  0  0  0
  148.8914  135.0995  153.4897 H   0  0  0  0  0  0  0  0  0  0  0  0
  149.7379  136.8870  153.4072 H   0  0  0  0  0  0  0  0  0  0  0  0
  149.2510  139.7333  154.2564 H   0  0  0  0  0  0  0  0  0  0  0  0
  152.7783  137.5450  155.5148 H   0  0  0  0  0  0  0  0  0  0  0  0
  147.5656  129.4185  153.3944 H   0  0  0  0  0  0  0  0  0  0  0  0
  146.2314  130.4863  153.7671 H   0  0  0  0  0  0  0  0  0  0  0  0
  145.3155  128.6189  152.5926 H   0  0  0  0  0  0  0  0  0  0  0  0
  147.2954  127.6570  151.5328 H   0  0  0  0  0  0  0  0  0  0  0  0
  147.3999  128.9804  150.3853 H   0  0  0  0  0  0  0  0  0  0  0  0
  146.0283  127.8749  150.3329 H   0  0  0  0  0  0  0  0  0  0  0  0
  148.0586  130.8145  151.5068 H   0  0  0  0  0  0  0  0  0  0  0  0
  1  2  1  0  0  0  0
  1 22  1  0  0  0  0
  1 23  1  0  0  0  0
  1 24  1  0  0  0  0
  2 20  1  0  0  0  0
  2  3  1  0  0  0  0
  2 25  1  0  0  0  0
  3  4  1  0  0  0  0
  3 26  1  0  0  0  0
  3 27  1  0  0  0  0
  4  5  1  0  0  0  0
  4 17  1  0  0  0  0
  4 44  1  0  0  0  0
  5  6  1  0  0  0  0
  5 28  1  0  0  0  0
  5 29  1  0  0  0  0
  6  7  1  0  0  0  0
  6 30  1  0  0  0  0
  6 31  1  0  0  0  0
  7  8  1  0  0  0  0
  7 32  1  0  0  0  0
  7 33  1  0  0  0  0
  8  9  1  0  0  0  0
  8 34  1  0  0  0  0
  9 10  2  0  0  0  0
  9 11  1  0  0  0  0
 11 12  1  0  0  0  0
 11 35  1  0  0  0  0
 12 16  2  0  0  0  0
 12 13  1  0  0  0  0
 13 14  2  0  0  0  0
 13 36  1  0  0  0  0
 14 15  1  0  0  0  0
 15 21  1  0  0  0  0
 15 16  1  0  0  0  0
 16 37  1  0  0  0  0
 17 18  1  0  0  0  0
 17 38  1  0  0  0  0
 17 39  1  0  0  0  0
 18 19  1  0  0  0  0
 18 20  1  0  0  0  0
 18 40  1  0  0  0  0
 19 41  1  0  0  0  0
 19 42  1  0  0  0  0
 19 43  1  0  0  0  0
M  CHG  1   4   1
M  END
> <s_m_source_file>
AV-unprocessed.smi

> <i_m_source_file_index>
1900

> <i_lp_mmshare_version>
43012

> <i_f3d_flags>
0

> <s_epik_input>
W0NIM11bQ0BASF0xW0NIMl1OKFtDSDJdW0NASF0oTzEpW0NIM10pW0NIMl1bQ0gyXVtDSDJdW05IXUMoPU8pW05IXWMyW2NIXW5bbkhdW2NIXTI=

> <s_epik_cmdline>
J2VwaWtfcHl0aG9uJywgJy1waCcsICc3LjAnLCAnLXRuJywgJzgnLCAnLW1hJywgJzIwMCcsICctbWV0YWxfYmluZGluZycsICctaW1hZScsICc8aW5maWxlLm1hZT4nLCAnLW9tYWUnLCAnPG91dGZpbGUubWFlPic=

> <r_lp_tautomer_probability>
0.5

> <r_epik_Ionization_Penalty>
0.270543

> <r_epik_Ionization_Penalty_Charging>
0.270496

> <r_epik_Ionization_Penalty_Neutral>
4.67091e-05

> <r_epik_State_Penalty>
0.262618

> <r_epik_Charging_Adjusted_Penalty>
0.533114

> <i_epik_Tot_Q>
1

> <i_epik_Tot_abs_Q>
1

> <r_epik_Metal_State_Penalty>
0.262618

> <b_epik_Metal_Only>
0

> <s_lp_Force_Field>
OPLS_2005

> <r_lp_Energy>
21.5788

> <b_lp_Chiralities_Consistent>
1

> <s_lp_Variant>
AV-unprocessed.smi:1900-4

> <Gold.Version>
5.8.1

> <Gold.Id.Protein>
6NUR|6NUR_protein|mol2

> <Gold.PLP.Fitness>
46.1408

> <Gold.PLP.PLP>
-36.1045

> <Gold.PLP.part.hbond>
-4.7651

> <Gold.PLP.part.metal>
0.0000

> <Gold.PLP.part.buried>
-4.4911

> <Gold.PLP.part.nonpolar>
-29.4922

> <Gold.PLP.part.repulsive>
1.1387

> <Gold.PLP.ligand.clash>
0.0000

> <Gold.PLP.ligand.torsion>
0.8532

> <Gold.PLP.Chemscore.Hbond>
3.9088

> <Gold.PLP.Chemscore.CHOScore>
0.0000

> <Gold.PLP.Chemscore.Metal>
0.0000

> <Gold.Chemscore.Hbonds>
donor molecule, donor type, donor heavy atom, donor atom, acceptor molecule, acceptor atom, score
      L1  H     4    44       P1 10747  0.99
      L1  H     8    34       P1  7948  1.00
      L1  H    11    35       P1  7948  1.00
      P1  H  7989  7998       L1    14  0.86

> <Gold.PLP.Chemscore.Internal.Correction>
0.0166

> <Gold.Rescore>
     Score         DG    S(hbond)    S(metal)    S(lipo)     H(rot)  DE(clash)    DE(int)     intcor
     18.21     -19.24       2.53        0.00      87.81       1.93       0.09       0.95       ----

> <Gold.Chemscore.Fitness>
18.2059

> <Gold.Chemscore.DG>
-19.2429

> <Gold.Chemscore.ZeroCoef>
-5.4800

> <Gold.Chemscore.Hbond>
2.5276

> <Gold.Chemscore.Metal>
0.0000

> <Gold.Chemscore.Lipo>
87.8087

> <Gold.Chemscore.Internal_Hbond>
0.0000

> <Gold.Chemscore.DEClash>
0.0860

> <Gold.Chemscore.DEInternal>
0.9510

> <Gold.Chemscore.Rot>
1.9347

> <Gold.Chemscore.Internal.Correction>
   9.000000E+99

> <Gold.Chemscore.Hbonds>
donor molecule, donor type, donor heavy atom, donor atom, acceptor molecule, acceptor atom, score
      L1  H     4    44       P1 10747  0.91
      L1  H     8    34       P1  7948  0.53
      L1  H    11    35       P1  7948  0.50
      P1  H  7989  7998       L1    14  0.04

> <Gold.Chemscore.Hbond.Weighted>
-8.4421

> <Gold.Chemscore.Metal.Weighted>
-0.0000

> <Gold.Chemscore.Lipo.Weighted>
-10.2736

> <Gold.Chemscore.Internal_Hbond.Weighted>
0.0000

> <Gold.Chemscore.DEClash.Weighted>
0.0860

> <Gold.Chemscore.DEInternal.Weighted>
0.9510

> <Gold.Chemscore.Rot.Weighted>
4.9528

> <Gold.Chemscore.Internal.Correction.Weighted>
   9.000000E+99

> <Gold.Protein.RotatedTorsions>
[ 6907 6896 6895 6894 ] final   87.55 input  -60.11 | X-H torsion
[ 7974 7965 7964 7962 ] final  146.55 input  175.53 | X-H torsion
[ 8008 7997 7996 7995 ] final   82.20 input   59.86 | X-H torsion
[ 10167 10162 10161 10158 ] final  138.84 input  -65.29 | X-H torsion
[ 10718 10713 10712 10709 ] final   80.98 input   66.30 | X-H torsion
[ 10763 10752 10751 10750 ] final -169.42 input  -60.55 | X-H torsion
[ 11005 11000 10999 10996 ] final  153.98 input  -57.11 | X-H torsion

> <Gold.Protein.ActiveResidues>
 VAL166  LYS551  ARG553  GLY616  TRP617  ASP618  TYR619  PRO620  LYS621  CYS622 
 ASP623  PHE694  ASN695  SER759  ASP760  ASP761  ALA762  ILE779  LEU786  VAL792 
 PHE793  MET794  SER795  GLU796  ALA797  LYS798  CYS799  TRP800  GLU811  SER814 

> <Gold.Protein.RotatedAtoms>
  152.5412  134.2259  159.8805 H   0  0  0  0  0  0  0  0  0  0  0  0  # atno 6907 bound_to 6896
  151.2234  133.4483  159.2609 H   0  0  0  0  0  0  0  0  0  0  0  0  # atno 6908 bound_to 6896
  151.0784  134.9856  159.8399 H   0  0  0  0  0  0  0  0  0  0  0  0  # atno 6909 bound_to 6896
  144.8662  139.5919  143.5908 H   0  0  0  0  0  0  0  0  0  0  0  0  # atno 7974 bound_to 7965
  155.9074  140.3429  155.6072 H   0  0  0  0  0  0  0  0  0  0  0  0  # atno 8008 bound_to 7997
  155.7428  140.0810  157.2256 H   0  0  0  0  0  0  0  0  0  0  0  0  # atno 8009 bound_to 7997
  154.4051  140.1567  156.2623 H   0  0  0  0  0  0  0  0  0  0  0  0  # atno 8010 bound_to 7997
  139.5097  144.6330  151.5770 H   0  0  0  0  0  0  0  0  0  0  0  0  # atno 10167 bound_to 10162
  157.6821  130.9984  150.2159 H   0  0  0  0  0  0  0  0  0  0  0  0  # atno 10718 bound_to 10713
  154.6525  135.2913  154.9969 H   0  0  0  0  0  0  0  0  0  0  0  0  # atno 10763 bound_to 10752
  154.1057  135.6570  153.4880 H   0  0  0  0  0  0  0  0  0  0  0  0  # atno 10764 bound_to 10752
  153.0384  135.5253  154.7439 H   0  0  0  0  0  0  0  0  0  0  0  0  # atno 10765 bound_to 10752
  140.1447  134.8715  157.2378 H   0  0  0  0  0  0  0  0  0  0  0  0  # atno 11005 bound_to 11000
  146.2897  139.7104  142.9170 LP  0  0  0  0  0  0  0  0  0  0  0  0  # atno 17320 bound_to 7965
  145.4218  141.0407  143.2960 LP  0  0  0  0  0  0  0  0  0  0  0  0  # atno 17321 bound_to 7965
  140.6069  143.9508  150.6425 LP  0  0  0  0  0  0  0  0  0  0  0  0  # atno 17342 bound_to 10162
  140.2738  143.3437  152.1214 LP  0  0  0  0  0  0  0  0  0  0  0  0  # atno 17343 bound_to 10162
  156.2820  130.3734  149.7925 LP  0  0  0  0  0  0  0  0  0  0  0  0  # atno 17370 bound_to 10713
  156.5611  130.8384  151.3329 LP  0  0  0  0  0  0  0  0  0  0  0  0  # atno 17371 bound_to 10713
  140.2678  134.3496  155.7384 LP  0  0  0  0  0  0  0  0  0  0  0  0  # atno 17394 bound_to 11000
  141.2191  133.7406  156.9177 LP  0  0  0  0  0  0  0  0  0  0  0  0  # atno 17395 bound_to 11000

$$$$
