AV-unprocessed.smi:1734|AV-procd|sdf|6980|dock7
  -GOLD-   22720 8193D 1   1.00000     0.00000
 Structure written by MMmdl.
 50 52  0  0  0  0  0  0  0  0  1 V2000
  147.4936  132.8406  152.6739 C   0  0  0  0  0  0  0  0  0  0  0  0
  146.2263  133.1495  151.8932 C   0  0  0  0  0  0  0  0  0  0  0  0
  145.4821  132.0871  151.3374 C   0  0  0  0  0  0  0  0  0  0  0  0
  144.3121  132.3740  150.6139 C   0  0  0  0  0  0  0  0  0  0  0  0
  143.9333  133.7203  150.4758 C   0  0  0  0  0  0  0  0  0  0  0  0
  144.6380  134.7416  151.0037 N   0  0  0  0  0  0  0  0  0  0  0  0
  145.7698  134.4820  151.7056 C   0  0  0  0  0  0  0  0  0  0  0  0
  146.5609  135.5092  152.2939 N   0  0  0  0  0  0  0  0  0  0  0  0
  146.2217  136.3718  153.2681 C   0  0  0  0  0  0  0  0  0  0  0  0
  145.1221  136.4312  153.8194 O   0  0  0  0  0  0  0  0  0  0  0  0
  147.2437  137.1838  153.5741 N   0  0  0  0  0  0  0  0  0  0  0  0
  147.2000  138.2359  154.5850 C   0  0  0  0  0  0  0  0  0  0  0  0
  148.3468  139.2749  154.4251 C   0  0  2  0  0  0  0  0  0  0  0  0
  149.6164  138.9046  155.2548 C   0  0  2  0  0  0  0  0  0  0  0  0
  150.0956  139.9321  156.2842 C   0  0  0  0  0  0  0  0  0  0  0  0
  151.6142  139.8951  156.1482 C   0  0  0  0  0  0  0  0  0  0  0  0
  151.8098  139.5939  154.7774 O   0  0  0  0  0  0  0  0  0  0  0  0
  150.8805  138.5747  154.4392 C   0  0  0  0  0  0  0  0  0  0  0  0
  147.9234  140.6868  154.5209 N   0  0  0  0  0  0  0  0  0  0  0  0
  147.1271  141.1302  153.3786 C   0  0  0  0  0  0  0  0  0  0  0  0
  146.8345  142.6379  153.4391 C   0  0  0  0  0  0  0  0  0  0  0  0
  146.1708  142.9386  154.6620 O   0  0  0  0  0  0  0  0  0  0  0  0
  146.9374  142.5728  155.8045 C   0  0  0  0  0  0  0  0  0  0  0  0
  147.2594  141.0682  155.7656 C   0  0  0  0  0  0  0  0  0  0  0  0
  147.6642  131.7659  152.7446 H   0  0  0  0  0  0  0  0  0  0  0  0
  147.4262  133.2353  153.6879 H   0  0  0  0  0  0  0  0  0  0  0  0
  148.3598  133.2861  152.1838 H   0  0  0  0  0  0  0  0  0  0  0  0
  145.8013  131.0627  151.4624 H   0  0  0  0  0  0  0  0  0  0  0  0
  143.7207  131.5834  150.1764 H   0  0  0  0  0  0  0  0  0  0  0  0
  143.0411  133.9852  149.9281 H   0  0  0  0  0  0  0  0  0  0  0  0
  147.5003  135.5882  151.9341 H   0  0  0  0  0  0  0  0  0  0  0  0
  148.1131  137.0685  153.0744 H   0  0  0  0  0  0  0  0  0  0  0  0
  146.2219  138.7138  154.5348 H   0  0  0  0  0  0  0  0  0  0  0  0
  147.2456  137.7556  155.5617 H   0  0  0  0  0  0  0  0  0  0  0  0
  148.6876  139.1612  153.3950 H   0  0  0  0  0  0  0  0  0  0  0  0
  149.3717  137.9977  155.8100 H   0  0  0  0  0  0  0  0  0  0  0  0
  149.7303  140.9333  156.0651 H   0  0  0  0  0  0  0  0  0  0  0  0
  149.7718  139.6893  157.2966 H   0  0  0  0  0  0  0  0  0  0  0  0
  152.0857  140.8379  156.4262 H   0  0  0  0  0  0  0  0  0  0  0  0
  152.0421  139.1007  156.7621 H   0  0  0  0  0  0  0  0  0  0  0  0
  151.2893  137.6116  154.7488 H   0  0  0  0  0  0  0  0  0  0  0  0
  150.7226  138.5268  153.3621 H   0  0  0  0  0  0  0  0  0  0  0  0
  147.6483  140.9006  152.4485 H   0  0  0  0  0  0  0  0  0  0  0  0
  146.1768  140.5976  153.3483 H   0  0  0  0  0  0  0  0  0  0  0  0
  147.7569  143.2156  153.3627 H   0  0  0  0  0  0  0  0  0  0  0  0
  146.1985  142.9349  152.6052 H   0  0  0  0  0  0  0  0  0  0  0  0
  147.8564  143.1607  155.8347 H   0  0  0  0  0  0  0  0  0  0  0  0
  146.3738  142.8154  156.7054 H   0  0  0  0  0  0  0  0  0  0  0  0
  146.3382  140.4986  155.8906 H   0  0  0  0  0  0  0  0  0  0  0  0
  147.8960  140.8470  156.6188 H   0  0  0  0  0  0  0  0  0  0  0  0
  1  2  1  0  0  0  0
  1 25  1  0  0  0  0
  1 26  1  0  0  0  0
  1 27  1  0  0  0  0
  2  7  1  0  0  0  0
  2  3  2  0  0  0  0
  3  4  1  0  0  0  0
  3 28  1  0  0  0  0
  4  5  2  0  0  0  0
  4 29  1  0  0  0  0
  5  6  1  0  0  0  0
  5 30  1  0  0  0  0
  6  7  2  0  0  0  0
  7  8  1  0  0  0  0
  8  9  1  0  0  0  0
  8 31  1  0  0  0  0
  9 10  2  0  0  0  0
  9 11  1  0  0  0  0
 11 12  1  0  0  0  0
 11 32  1  0  0  0  0
 12 13  1  0  0  0  0
 12 33  1  0  0  0  0
 12 34  1  0  0  0  0
 13 14  1  0  0  0  0
 13 19  1  0  0  0  0
 13 35  1  0  0  0  0
 14 18  1  0  0  0  0
 14 15  1  0  0  0  0
 14 36  1  0  0  0  0
 15 16  1  0  0  0  0
 15 37  1  0  0  0  0
 15 38  1  0  0  0  0
 16 17  1  0  0  0  0
 16 39  1  0  0  0  0
 16 40  1  0  0  0  0
 17 18  1  0  0  0  0
 18 41  1  0  0  0  0
 18 42  1  0  0  0  0
 19 24  1  0  0  0  0
 19 20  1  0  0  0  0
 20 21  1  0  0  0  0
 20 43  1  0  0  0  0
 20 44  1  0  0  0  0
 21 22  1  0  0  0  0
 21 45  1  0  0  0  0
 21 46  1  0  0  0  0
 22 23  1  0  0  0  0
 23 24  1  0  0  0  0
 23 47  1  0  0  0  0
 23 48  1  0  0  0  0
 24 49  1  0  0  0  0
 24 50  1  0  0  0  0
M  END
> <s_m_source_file>
AV-unprocessed.smi

> <i_m_source_file_index>
1734

> <i_lp_mmshare_version>
43012

> <i_f3d_flags>
0

> <s_epik_input>
W0NIM11jMVtjSF1bY0hdW2NIXW5jMVtOSF1DKD1PKVtOSF1bQ0gyXVtDQEhdKFtDQEBIXTJbQ0gyXVtDSDJdT1tDSDJdMilOM1tDSDJdW0NIMl1PW0NIMl1bQ0gyXTM=

> <s_epik_cmdline>
J2VwaWtfcHl0aG9uJywgJy1waCcsICc3LjAnLCAnLXRuJywgJzgnLCAnLW1hJywgJzIwMCcsICctbWV0YWxfYmluZGluZycsICctaW1hZScsICc8aW5maWxlLm1hZT4nLCAnLW9tYWUnLCAnPG91dGZpbGUubWFlPic=

> <r_epik_Ionization_Penalty>
0.125073

> <r_epik_Ionization_Penalty_Charging>
0

> <r_epik_Ionization_Penalty_Neutral>
0.125073

> <r_epik_State_Penalty>
0.114484

> <r_epik_Charging_Adjusted_Penalty>
0.114484

> <i_epik_Tot_Q>
0

> <i_epik_Tot_abs_Q>
0

> <r_epik_Metal_State_Penalty>
0.114483

> <b_epik_Metal_Only>
0

> <s_lp_Force_Field>
OPLS_2005

> <r_lp_Energy>
56.0061

> <b_lp_Chiralities_Consistent>
1

> <s_lp_Variant>
AV-unprocessed.smi:1734-1

> <Gold.Version>
5.8.1

> <Gold.Id.Protein>
6NUR|6NUR_protein|mol2

> <Gold.PLP.Fitness>
41.0327

> <Gold.PLP.PLP>
-34.6535

> <Gold.PLP.part.hbond>
-2.9186

> <Gold.PLP.part.metal>
0.0000

> <Gold.PLP.part.buried>
-5.5205

> <Gold.PLP.part.nonpolar>
-26.5022

> <Gold.PLP.part.repulsive>
0.5353

> <Gold.PLP.ligand.clash>
0.0000

> <Gold.PLP.ligand.torsion>
2.8916

> <Gold.PLP.Chemscore.Hbond>
2.9440

> <Gold.PLP.Chemscore.CHOScore>
1.0000

> <Gold.PLP.Chemscore.Metal>
0.0000

> <Gold.Chemscore.Hbonds>
donor molecule, donor type, donor heavy atom, donor atom, acceptor molecule, acceptor atom, score
      L1  H     8    31       P1  7948  1.00
      L1  H    11    32       P1  7948  0.94
      P1  H  7989  7998       L1    17  1.00
      L1  C     5    30       P1 10186  1.00

> <Gold.PLP.Chemscore.Internal.Correction>
0.3303

> <Gold.Rescore>
     Score         DG    S(hbond)    S(metal)    S(lipo)     H(rot)  DE(clash)    DE(int)     intcor
     17.73     -20.74       2.86        0.00      84.87       1.65       0.04       2.97       ----

> <Gold.Chemscore.Fitness>
17.7257

> <Gold.Chemscore.DG>
-20.7366

> <Gold.Chemscore.ZeroCoef>
-5.4800

> <Gold.Chemscore.Hbond>
2.8581

> <Gold.Chemscore.Metal>
0.0000

> <Gold.Chemscore.Lipo>
84.8656

> <Gold.Chemscore.Internal_Hbond>
0.0000

> <Gold.Chemscore.DEClash>
0.0434

> <Gold.Chemscore.DEInternal>
2.9676

> <Gold.Chemscore.Rot>
1.6480

> <Gold.Chemscore.Internal.Correction>
   9.000000E+99

> <Gold.Chemscore.Hbonds>
donor molecule, donor type, donor heavy atom, donor atom, acceptor molecule, acceptor atom, score
      L1  H     8    31       P1  7948  0.95
      L1  H    11    32       P1  7948  0.91
      P1  H  7989  7998       L1    17  0.52

> <Gold.Chemscore.Hbond.Weighted>
-9.5462

> <Gold.Chemscore.Metal.Weighted>
-0.0000

> <Gold.Chemscore.Lipo.Weighted>
-9.9293

> <Gold.Chemscore.Internal_Hbond.Weighted>
0.0000

> <Gold.Chemscore.DEClash.Weighted>
0.0434

> <Gold.Chemscore.DEInternal.Weighted>
2.9676

> <Gold.Chemscore.Rot.Weighted>
4.2188

> <Gold.Chemscore.Internal.Correction.Weighted>
   9.000000E+99

> <Gold.Protein.RotatedTorsions>
[ 6907 6896 6895 6894 ] final -178.99 input  -60.11 | X-H torsion
[ 7974 7965 7964 7962 ] final  179.23 input  175.53 | X-H torsion
[ 8008 7997 7996 7995 ] final    5.34 input   59.86 | X-H torsion
[ 10167 10162 10161 10158 ] final -111.23 input  -65.29 | X-H torsion
[ 10718 10713 10712 10709 ] final -142.03 input   66.30 | X-H torsion
[ 10763 10752 10751 10750 ] final   -0.70 input  -60.55 | X-H torsion
[ 11005 11000 10999 10996 ] final  -80.49 input  -57.11 | X-H torsion

> <Gold.Protein.ActiveResidues>
 VAL166  LYS551  ARG553  GLY616  TRP617  ASP618  TYR619  PRO620  LYS621  CYS622 
 ASP623  PHE694  ASN695  SER759  ASP760  ASP761  ALA762  ILE779  LEU786  VAL792 
 PHE793  MET794  SER795  GLU796  ALA797  LYS798  CYS799  TRP800  GLU811  SER814 

> <Gold.Protein.RotatedAtoms>
  151.6462  133.3323  159.3141 H   0  0  0  0  0  0  0  0  0  0  0  0  # atno 6907 bound_to 6896
  150.7983  134.7062  159.6587 H   0  0  0  0  0  0  0  0  0  0  0  0  # atno 6908 bound_to 6896
  152.4072  134.6190  160.0097 H   0  0  0  0  0  0  0  0  0  0  0  0  # atno 6909 bound_to 6896
  144.7148  140.0516  143.6435 H   0  0  0  0  0  0  0  0  0  0  0  0  # atno 7974 bound_to 7965
  154.7272  140.2723  155.6488 H   0  0  0  0  0  0  0  0  0  0  0  0  # atno 8008 bound_to 7997
  156.2840  140.2723  156.1886 H   0  0  0  0  0  0  0  0  0  0  0  0  # atno 8009 bound_to 7997
  155.0429  140.0371  157.2506 H   0  0  0  0  0  0  0  0  0  0  0  0  # atno 8010 bound_to 7997
  140.1359  143.4321  152.1596 H   0  0  0  0  0  0  0  0  0  0  0  0  # atno 10167 bound_to 10162
  156.3411  130.7638  151.1774 H   0  0  0  0  0  0  0  0  0  0  0  0  # atno 10718 bound_to 10713
  153.3353  135.6977  153.6913 H   0  0  0  0  0  0  0  0  0  0  0  0  # atno 10763 bound_to 10752
  153.5699  135.3518  155.2834 H   0  0  0  0  0  0  0  0  0  0  0  0  # atno 10764 bound_to 10752
  154.8626  135.4269  154.2552 H   0  0  0  0  0  0  0  0  0  0  0  0  # atno 10765 bound_to 10752
  141.1668  133.7153  156.8281 H   0  0  0  0  0  0  0  0  0  0  0  0  # atno 11005 bound_to 11000
  145.9939  139.3037  143.0968 LP  0  0  0  0  0  0  0  0  0  0  0  0  # atno 17320 bound_to 7965
  145.8871  140.9327  143.0571 LP  0  0  0  0  0  0  0  0  0  0  0  0  # atno 17321 bound_to 7965
  139.5496  144.7327  151.4475 LP  0  0  0  0  0  0  0  0  0  0  0  0  # atno 17342 bound_to 10162
  140.6790  143.8126  150.7095 LP  0  0  0  0  0  0  0  0  0  0  0  0  # atno 17343 bound_to 10162
  157.7447  131.0454  150.4842 LP  0  0  0  0  0  0  0  0  0  0  0  0  # atno 17370 bound_to 10713
  156.5023  130.4120  149.6346 LP  0  0  0  0  0  0  0  0  0  0  0  0  # atno 17371 bound_to 10713
  140.2070  134.8855  157.3233 LP  0  0  0  0  0  0  0  0  0  0  0  0  # atno 17394 bound_to 11000
  140.2126  134.4120  155.7605 LP  0  0  0  0  0  0  0  0  0  0  0  0  # atno 17395 bound_to 11000

$$$$
