AV-unprocessed.smi:114|AV-procd|sdf|1112|dock4
  -GOLD-   2262018233D 1   1.00000     0.00000
 Structure written by MMmdl.
 32 34  0  0  0  0  0  0  0  0  1 V2000
  154.8059  139.5641  161.0920 N   0  0  0  0  0  0  0  0  0  0  0  0
  153.8515  140.4672  160.8272 C   0  0  0  0  0  0  0  0  0  0  0  0
  153.5444  141.3801  161.7786 N   0  0  0  0  0  0  0  0  0  0  0  0
  152.5991  142.3015  161.5528 C   0  0  0  0  0  0  0  0  0  0  0  0
  152.3576  143.1742  162.5591 F   0  0  0  0  0  0  0  0  0  0  0  0
  151.8653  142.4569  160.4449 N   0  0  0  0  0  0  0  0  0  0  0  0
  152.1722  141.5360  159.4860 C   0  0  0  0  0  0  0  0  0  0  0  0
  153.1498  140.5127  159.5978 C   0  0  0  0  0  0  0  0  0  0  0  0
  153.1913  139.7692  158.4262 N   0  0  0  0  0  0  0  0  0  0  0  0
  152.2881  140.3296  157.6658 C   0  0  0  0  0  0  0  0  0  0  0  0
  151.6178  141.3950  158.2327 N   0  0  0  0  0  0  0  0  0  0  0  0
  150.5484  142.2689  157.6523 C   0  0  1  0  0  0  0  0  0  0  0  0
  150.5002  142.0432  156.2754 O   0  0  0  0  0  0  0  0  0  0  0  0
  149.4897  141.0821  155.9892 C   0  0  2  0  0  0  0  0  0  0  0  0
  149.1122  141.0923  154.4978 C   0  0  0  0  0  0  0  0  0  0  0  0
  148.6341  142.3691  154.1312 O   0  0  0  0  0  0  0  0  0  0  0  0
  148.3806  141.5002  156.9615 C   0  0  2  0  0  0  0  0  0  0  0  0
  147.6488  142.5967  156.4372 O   0  0  0  0  0  0  0  0  0  0  0  0
  149.1723  141.8651  158.2172 C   0  0  2  0  0  0  0  0  0  0  0  0
  148.5542  142.8870  158.9768 O   0  0  0  0  0  0  0  0  0  0  0  0
  150.8627  143.2880  157.8814 H   0  0  0  0  0  0  0  0  0  0  0  0
  149.8412  140.0897  156.2785 H   0  0  0  0  0  0  0  0  0  0  0  0
  147.6812  140.6858  157.1523 H   0  0  0  0  0  0  0  0  0  0  0  0
  149.2813  140.9778  158.8434 H   0  0  0  0  0  0  0  0  0  0  0  0
  155.0519  138.8747  160.3959 H   0  0  0  0  0  0  0  0  0  0  0  0
  155.2781  139.5747  161.9845 H   0  0  0  0  0  0  0  0  0  0  0  0
  152.0908  139.9741  156.6647 H   0  0  0  0  0  0  0  0  0  0  0  0
  149.9911  140.8845  153.8868 H   0  0  0  0  0  0  0  0  0  0  0  0
  148.3668  140.3300  154.2688 H   0  0  0  0  0  0  0  0  0  0  0  0
  148.8690  142.9836  154.8095 H   0  0  0  0  0  0  0  0  0  0  0  0
  148.1250  143.3900  156.6304 H   0  0  0  0  0  0  0  0  0  0  0  0
  148.6472  143.7035  158.5094 H   0  0  0  0  0  0  0  0  0  0  0  0
  1  2  1  0  0  0  0
  1 25  1  0  0  0  0
  1 26  1  0  0  0  0
  2  8  1  0  0  0  0
  2  3  2  0  0  0  0
  3  4  1  0  0  0  0
  4  5  1  0  0  0  0
  4  6  2  0  0  0  0
  6  7  1  0  0  0  0
  7 11  1  0  0  0  0
  7  8  2  0  0  0  0
  8  9  1  0  0  0  0
  9 10  2  0  0  0  0
 10 11  1  0  0  0  0
 10 27  1  0  0  0  0
 11 12  1  0  0  0  0
 12 21  1  0  0  0  0
 12 19  1  0  0  0  0
 12 13  1  0  0  0  0
 13 14  1  0  0  0  0
 14 22  1  0  0  0  0
 14 15  1  0  0  0  0
 14 17  1  0  0  0  0
 15 16  1  0  0  0  0
 15 28  1  0  0  0  0
 15 29  1  0  0  0  0
 16 30  1  0  0  0  0
 17 23  1  0  0  0  0
 17 18  1  0  0  0  0
 17 19  1  0  0  0  0
 18 31  1  0  0  0  0
 19 24  1  0  0  0  0
 19 20  1  0  0  0  0
 20 32  1  0  0  0  0
M  END
> <s_m_source_file>
AV-unprocessed.smi

> <i_m_source_file_index>
114

> <i_lp_mmshare_version>
43012

> <i_f3d_flags>
0

> <s_epik_input>
RmMobjEpbmMoW05IMl0pYyhjMTIpbltjSF1uMltDQEBIXTNPW0NASF0oW0NIMl1bT0hdKVtDQEBIXShbT0hdKVtDQEBIXTNbT0hd

> <s_epik_cmdline>
J2VwaWtfcHl0aG9uJywgJy1waCcsICc3LjAnLCAnLXRuJywgJzgnLCAnLW1hJywgJzIwMCcsICctbWV0YWxfYmluZGluZycsICctaW1hZScsICc8aW5maWxlLm1hZT4nLCAnLW9tYWUnLCAnPG91dGZpbGUubWFlPic=

> <r_lp_tautomer_probability>
1

> <r_epik_Ionization_Penalty>
1.13199e-05

> <r_epik_Ionization_Penalty_Charging>
0

> <r_epik_Ionization_Penalty_Neutral>
1.13199e-05

> <r_epik_State_Penalty>
-0

> <r_epik_Charging_Adjusted_Penalty>
0

> <i_epik_Tot_Q>
0

> <i_epik_Tot_abs_Q>
0

> <r_epik_Metal_State_Penalty>
-0

> <b_epik_Metal_Only>
0

> <s_epik_Chemistry_Notes>
This compound contains an acetal/aminal-like group ( X-CH(R)-Y where X, Y are N, S, or O) that may be acid/base labile, releasing an aldehyde.

> <s_lp_Force_Field>
OPLS_2005

> <r_lp_Energy>
39.4962

> <b_lp_Chiralities_Consistent>
1

> <s_lp_Variant>
AV-unprocessed.smi:114-6

> <Gold.Version>
5.8.1

> <Gold.Id.Protein>
6NUR|6NUR_protein|mol2

> <Gold.PLP.Fitness>
42.7317

> <Gold.PLP.PLP>
-34.9282

> <Gold.PLP.part.hbond>
-4.4535

> <Gold.PLP.part.metal>
0.0000

> <Gold.PLP.part.buried>
-4.2803

> <Gold.PLP.part.nonpolar>
-24.9472

> <Gold.PLP.part.repulsive>
0.1314

> <Gold.PLP.ligand.clash>
0.0000

> <Gold.PLP.ligand.torsion>
0.4200

> <Gold.PLP.Chemscore.Hbond>
2.8733

> <Gold.PLP.Chemscore.CHOScore>
0.0000

> <Gold.PLP.Chemscore.Metal>
0.0000

> <Gold.Chemscore.Hbonds>
donor molecule, donor type, donor heavy atom, donor atom, acceptor molecule, acceptor atom, score
      L1  H    16    30       P1  8028  1.00
      L1  H    18    31       P1  8028  0.58
      P1  H  7997  8010       L1     9  0.68
      P1  H  8011  8017       L1    16  0.11

> <Gold.PLP.Chemscore.Internal.Correction>
0.0236

> <Gold.Rescore>
     Score         DG    S(hbond)    S(metal)    S(lipo)     H(rot)  DE(clash)    DE(int)     intcor
      2.23      -3.39       1.44        0.00      29.17       4.03       0.75       0.41       ----

> <Gold.Chemscore.Fitness>
2.2339

> <Gold.Chemscore.DG>
-3.3883

> <Gold.Chemscore.ZeroCoef>
-5.4800

> <Gold.Chemscore.Hbond>
1.4392

> <Gold.Chemscore.Metal>
0.0000

> <Gold.Chemscore.Lipo>
29.1665

> <Gold.Chemscore.Internal_Hbond>
0.0000

> <Gold.Chemscore.DEClash>
0.7481

> <Gold.Chemscore.DEInternal>
0.4063

> <Gold.Chemscore.Rot>
4.0277

> <Gold.Chemscore.Internal.Correction>
   9.000000E+99

> <Gold.Chemscore.Hbonds>
donor molecule, donor type, donor heavy atom, donor atom, acceptor molecule, acceptor atom, score
      L1  H    16    30       P1  8028  0.97
      L1  H    18    31       P1  8028  0.08
      P1  H  7997  8010       L1     9  0.20
      P1  H  8011  8017       L1    16  0.01

> <Gold.Chemscore.Hbond.Weighted>
-4.8068

> <Gold.Chemscore.Metal.Weighted>
-0.0000

> <Gold.Chemscore.Lipo.Weighted>
-3.4125

> <Gold.Chemscore.Internal_Hbond.Weighted>
0.0000

> <Gold.Chemscore.DEClash.Weighted>
0.7481

> <Gold.Chemscore.DEInternal.Weighted>
0.4063

> <Gold.Chemscore.Rot.Weighted>
10.3110

> <Gold.Chemscore.Internal.Correction.Weighted>
   9.000000E+99

> <Gold.Protein.RotatedTorsions>
[ 6907 6896 6895 6894 ] final -102.35 input  -60.11 | X-H torsion
[ 7974 7965 7964 7962 ] final -129.04 input  175.53 | X-H torsion
[ 8008 7997 7996 7995 ] final    8.61 input   59.86 | X-H torsion
[ 10167 10162 10161 10158 ] final  -54.03 input  -65.29 | X-H torsion
[ 10718 10713 10712 10709 ] final -171.03 input   66.30 | X-H torsion
[ 10763 10752 10751 10750 ] final  -86.25 input  -60.55 | X-H torsion
[ 11005 11000 10999 10996 ] final   37.28 input  -57.11 | X-H torsion

> <Gold.Protein.ActiveResidues>
 VAL166  LYS551  ARG553  GLY616  TRP617  ASP618  TYR619  PRO620  LYS621  CYS622 
 ASP623  PHE694  ASN695  SER759  ASP760  ASP761  ALA762  ILE779  LEU786  VAL792 
 PHE793  MET794  SER795  GLU796  ALA797  LYS798  CYS799  TRP800  GLU811  SER814 

> <Gold.Protein.RotatedAtoms>
  150.7192  134.0595  159.3826 H   0  0  0  0  0  0  0  0  0  0  0  0  # atno 6907 bound_to 6896
  151.8574  135.0534  160.0475 H   0  0  0  0  0  0  0  0  0  0  0  0  # atno 6908 bound_to 6896
  152.2743  133.5375  159.5495 H   0  0  0  0  0  0  0  0  0  0  0  0  # atno 6909 bound_to 6896
  144.9611  140.7447  143.4729 H   0  0  0  0  0  0  0  0  0  0  0  0  # atno 7974 bound_to 7965
  154.7691  140.2798  155.6152 H   0  0  0  0  0  0  0  0  0  0  0  0  # atno 8008 bound_to 7997
  156.2930  140.2645  156.2416 H   0  0  0  0  0  0  0  0  0  0  0  0  # atno 8009 bound_to 7997
  154.9922  140.0373  157.2314 H   0  0  0  0  0  0  0  0  0  0  0  0  # atno 8010 bound_to 7997
  140.6453  143.2531  151.4877 H   0  0  0  0  0  0  0  0  0  0  0  0  # atno 10167 bound_to 10162
  156.7349  130.9320  151.3107 H   0  0  0  0  0  0  0  0  0  0  0  0  # atno 10718 bound_to 10713
  154.6203  135.5456  153.7568 H   0  0  0  0  0  0  0  0  0  0  0  0  # atno 10763 bound_to 10752
  153.0235  135.6411  154.1450 H   0  0  0  0  0  0  0  0  0  0  0  0  # atno 10764 bound_to 10752
  154.1384  135.2910  155.3147 H   0  0  0  0  0  0  0  0  0  0  0  0  # atno 10765 bound_to 10752
  140.2241  134.3605  155.7992 H   0  0  0  0  0  0  0  0  0  0  0  0  # atno 11005 bound_to 11000
  145.2699  139.1958  143.4847 LP  0  0  0  0  0  0  0  0  0  0  0  0  # atno 17320 bound_to 7965
  146.3353  140.2644  142.8603 LP  0  0  0  0  0  0  0  0  0  0  0  0  # atno 17321 bound_to 7965
  139.5663  144.2034  152.1770 LP  0  0  0  0  0  0  0  0  0  0  0  0  # atno 17342 bound_to 10162
  140.1317  144.5282  150.6798 LP  0  0  0  0  0  0  0  0  0  0  0  0  # atno 17343 bound_to 10162
  157.6843  130.9170  150.0346 LP  0  0  0  0  0  0  0  0  0  0  0  0  # atno 17370 bound_to 10713
  156.1503  130.3642  149.9448 LP  0  0  0  0  0  0  0  0  0  0  0  0  # atno 17371 bound_to 10713
  141.2221  133.7209  156.8624 LP  0  0  0  0  0  0  0  0  0  0  0  0  # atno 17394 bound_to 11000
  140.1819  134.9027  157.2958 LP  0  0  0  0  0  0  0  0  0  0  0  0  # atno 17395 bound_to 11000

$$$$
