AV-unprocessed.smi:1007|AV-procd|sdf|4405|dock1
  -GOLD-   22720 2343D 1   1.00000     0.00000
 Structure written by MMmdl.
 57 59  0  0  0  0  0  0  0  0  3 V2000
  147.9433  135.7933  161.9867 C   0  0  0  0  0  0  0  0  0  0  0  0
  147.6749  136.1313  160.6371 O   0  0  0  0  0  0  0  0  0  0  0  0
  148.6963  135.6988  159.7536 C   0  0  0  0  0  0  0  0  0  0  0  0
  148.2418  135.9522  158.3083 C   0  0  0  0  0  0  0  0  0  0  0  0
  149.3240  135.7066  157.3221 N   0  3  0  0  0  0  0  0  0  0  0  0
  150.5899  136.3900  157.6870 C   0  0  0  0  0  0  0  0  0  0  0  0
  151.6989  136.0194  156.6835 C   0  0  0  0  0  0  0  0  0  0  0  0
  151.3688  136.3688  155.3013 N   0  0  0  0  0  0  0  0  0  0  0  0
  151.3907  137.8201  155.0636 C   0  0  0  0  0  0  0  0  0  0  0  0
  152.3505  138.6485  155.9461 C   0  0  1  0  0  0  0  0  0  0  0  0
  152.9182  139.6848  155.1701 O   0  0  0  0  0  0  0  0  0  0  0  0
  151.7677  139.2139  157.2561 C   0  0  0  0  0  0  0  0  0  0  0  0
  151.2401  140.5744  157.0900 N   0  0  0  0  0  0  0  0  0  0  0  0
  150.4419  141.0899  156.1158 C   0  0  0  0  0  0  0  0  0  0  0  0
  150.2423  142.4062  156.4024 N   0  3  0  0  0  0  0  0  0  0  0  0
  150.9236  142.7360  157.5760 C   0  0  0  0  0  0  0  0  0  0  0  0
  151.0268  143.9404  158.2618 C   0  0  0  0  0  0  0  0  0  0  0  0
  151.8105  143.9478  159.4379 C   0  0  0  0  0  0  0  0  0  0  0  0
  151.9487  145.2495  160.2089 C   0  0  0  0  0  0  0  0  0  0  0  0
  152.4578  142.7690  159.8915 C   0  0  0  0  0  0  0  0  0  0  0  0
  153.2983  142.7888  161.1571 C   0  0  0  0  0  0  0  0  0  0  0  0
  152.3387  141.5531  159.1809 C   0  0  0  0  0  0  0  0  0  0  0  0
  151.5649  141.5646  158.0231 C   0  0  0  0  0  0  0  0  0  0  0  0
  150.1049  135.7059  154.9562 C   0  0  0  0  0  0  0  0  0  0  0  0
  148.9440  136.0310  155.9217 C   0  0  0  0  0  0  0  0  0  0  0  0
  147.1325  136.1495  162.6221 H   0  0  0  0  0  0  0  0  0  0  0  0
  148.8690  136.2554  162.3325 H   0  0  0  0  0  0  0  0  0  0  0  0
  148.0218  134.7129  162.1149 H   0  0  0  0  0  0  0  0  0  0  0  0
  149.6369  136.2046  159.9727 H   0  0  0  0  0  0  0  0  0  0  0  0
  148.8691  134.6307  159.8945 H   0  0  0  0  0  0  0  0  0  0  0  0
  147.3764  135.3335  158.0657 H   0  0  0  0  0  0  0  0  0  0  0  0
  147.9082  136.9884  158.2358 H   0  0  0  0  0  0  0  0  0  0  0  0
  150.4365  137.4699  157.7180 H   0  0  0  0  0  0  0  0  0  0  0  0
  150.8955  136.0840  158.6883 H   0  0  0  0  0  0  0  0  0  0  0  0
  152.6362  136.4957  156.9737 H   0  0  0  0  0  0  0  0  0  0  0  0
  151.8854  134.9461  156.7443 H   0  0  0  0  0  0  0  0  0  0  0  0
  151.5880  138.0330  154.0137 H   0  0  0  0  0  0  0  0  0  0  0  0
  150.3924  138.2212  155.2453 H   0  0  0  0  0  0  0  0  0  0  0  0
  153.1750  137.9853  156.2100 H   0  0  0  0  0  0  0  0  0  0  0  0
  153.0868  139.3496  154.3025 H   0  0  0  0  0  0  0  0  0  0  0  0
  150.9382  138.5988  157.6042 H   0  0  0  0  0  0  0  0  0  0  0  0
  152.5153  139.2269  158.0499 H   0  0  0  0  0  0  0  0  0  0  0  0
  150.0446  140.5537  155.2659 H   0  0  0  0  0  0  0  0  0  0  0  0
  150.5320  144.8338  157.9098 H   0  0  0  0  0  0  0  0  0  0  0  0
  151.5772  145.1337  161.2272 H   0  0  0  0  0  0  0  0  0  0  0  0
  151.3839  146.0546  159.7378 H   0  0  0  0  0  0  0  0  0  0  0  0
  152.9935  145.5583  160.2535 H   0  0  0  0  0  0  0  0  0  0  0  0
  153.7382  141.8119  161.3601 H   0  0  0  0  0  0  0  0  0  0  0  0
  152.6879  143.0642  162.0174 H   0  0  0  0  0  0  0  0  0  0  0  0
  154.1128  143.5075  161.0651 H   0  0  0  0  0  0  0  0  0  0  0  0
  152.8329  140.6565  159.5244 H   0  0  0  0  0  0  0  0  0  0  0  0
  149.8006  135.9470  153.9417 H   0  0  0  0  0  0  0  0  0  0  0  0
  150.2650  134.6268  154.9599 H   0  0  0  0  0  0  0  0  0  0  0  0
  148.0717  135.4491  155.6271 H   0  0  0  0  0  0  0  0  0  0  0  0
  148.6551  137.0796  155.8470 H   0  0  0  0  0  0  0  0  0  0  0  0
  149.5217  134.7163  157.3541 H   0  0  0  0  0  0  0  0  0  0  0  0
  149.6854  143.0318  155.8342 H   0  0  0  0  0  0  0  0  0  0  0  0
  1  2  1  0  0  0  0
  1 26  1  0  0  0  0
  1 27  1  0  0  0  0
  1 28  1  0  0  0  0
  2  3  1  0  0  0  0
  3  4  1  0  0  0  0
  3 29  1  0  0  0  0
  3 30  1  0  0  0  0
  4  5  1  0  0  0  0
  4 31  1  0  0  0  0
  4 32  1  0  0  0  0
  5 25  1  0  0  0  0
  5  6  1  0  0  0  0
  5 56  1  0  0  0  0
  6  7  1  0  0  0  0
  6 33  1  0  0  0  0
  6 34  1  0  0  0  0
  7  8  1  0  0  0  0
  7 35  1  0  0  0  0
  7 36  1  0  0  0  0
  8  9  1  0  0  0  0
  8 24  1  0  0  0  0
  9 10  1  0  0  0  0
  9 37  1  0  0  0  0
  9 38  1  0  0  0  0
 10 11  1  0  0  0  0
 10 12  1  0  0  0  0
 10 39  1  0  0  0  0
 11 40  1  0  0  0  0
 12 13  1  0  0  0  0
 12 41  1  0  0  0  0
 12 42  1  0  0  0  0
 13 23  1  0  0  0  0
 13 14  1  0  0  0  0
 14 15  2  0  0  0  0
 14 43  1  0  0  0  0
 15 16  1  0  0  0  0
 15 57  1  0  0  0  0
 16 23  2  0  0  0  0
 16 17  1  0  0  0  0
 17 18  2  0  0  0  0
 17 44  1  0  0  0  0
 18 19  1  0  0  0  0
 18 20  1  0  0  0  0
 19 45  1  0  0  0  0
 19 46  1  0  0  0  0
 19 47  1  0  0  0  0
 20 21  1  0  0  0  0
 20 22  2  0  0  0  0
 21 48  1  0  0  0  0
 21 49  1  0  0  0  0
 21 50  1  0  0  0  0
 22 23  1  0  0  0  0
 22 51  1  0  0  0  0
 24 25  1  0  0  0  0
 24 52  1  0  0  0  0
 24 53  1  0  0  0  0
 25 54  1  0  0  0  0
 25 55  1  0  0  0  0
M  CHG  1   5   1
M  CHG  1  15   1
M  END
> <s_m_source_file>
AV-unprocessed.smi

> <i_m_source_file_index>
1007

> <i_lp_mmshare_version>
43012

> <i_f3d_flags>
0

> <s_epik_input>
W0NIM11PW0NIMl1bQ0gyXU4xW0NIMl1bQ0gyXU4oW0NIMl1bQ0gyXTEpW0NIMl1bQ0BIXShbT0hdKVtDSDJdbihbY0hdbjIpYyhjMjMpW2NIXWMoW0NIM10pYyhbY0hdMylbQ0gzXQ==

> <s_epik_cmdline>
J2VwaWtfcHl0aG9uJywgJy1waCcsICc3LjAnLCAnLXRuJywgJzgnLCAnLW1hJywgJzIwMCcsICctbWV0YWxfYmluZGluZycsICctaW1hZScsICc8aW5maWxlLm1hZT4nLCAnLW9tYWUnLCAnPG91dGZpbGUubWFlPic=

> <r_epik_Ionization_Penalty>
1.34507

> <r_epik_Ionization_Penalty_Charging>
1.29906

> <r_epik_Ionization_Penalty_Neutral>
0.0460038

> <r_epik_State_Penalty>
2.55679

> <r_epik_Charging_Adjusted_Penalty>
3.85586

> <i_epik_Tot_Q>
2

> <i_epik_Tot_abs_Q>
2

> <r_epik_Metal_State_Penalty>
6.56928

> <b_epik_Metal_Only>
0

> <s_lp_Force_Field>
OPLS_2005

> <r_lp_Energy>
47.3521

> <b_lp_Chiralities_Consistent>
1

> <s_lp_Variant>
AV-unprocessed.smi:1007-8

> <Gold.Version>
5.8.1

> <Gold.Id.Protein>
6NUR|6NUR_protein|mol2

> <Gold.PLP.Fitness>
57.1396

> <Gold.PLP.PLP>
-48.4552

> <Gold.PLP.part.hbond>
-3.7757

> <Gold.PLP.part.metal>
0.0000

> <Gold.PLP.part.buried>
-7.3483

> <Gold.PLP.part.nonpolar>
-38.8490

> <Gold.PLP.part.repulsive>
0.2631

> <Gold.PLP.ligand.clash>
0.0000

> <Gold.PLP.ligand.torsion>
1.4133

> <Gold.PLP.Chemscore.Hbond>
3.6960

> <Gold.PLP.Chemscore.CHOScore>
0.0000

> <Gold.PLP.Chemscore.Metal>
0.0000

> <Gold.Chemscore.Hbonds>
donor molecule, donor type, donor heavy atom, donor atom, acceptor molecule, acceptor atom, score
      L1  H    15    57       P1  8028  1.92
      P1  H  7997  8009       L1    11  1.00
      P1  H 10752 10764       L1     8  1.00

> <Gold.PLP.Chemscore.Internal.Correction>
0.4229

> <Gold.Rescore>
     Score         DG    S(hbond)    S(metal)    S(lipo)     H(rot)  DE(clash)    DE(int)     intcor
     18.00     -20.26       1.93        0.00     129.08       2.64       0.01       2.26       ----

> <Gold.Chemscore.Fitness>
17.9960

> <Gold.Chemscore.DG>
-20.2617

> <Gold.Chemscore.ZeroCoef>
-5.4800

> <Gold.Chemscore.Hbond>
1.9300

> <Gold.Chemscore.Metal>
0.0000

> <Gold.Chemscore.Lipo>
129.0768

> <Gold.Chemscore.Internal_Hbond>
0.0000

> <Gold.Chemscore.DEClash>
0.0081

> <Gold.Chemscore.DEInternal>
2.2576

> <Gold.Chemscore.Rot>
2.6432

> <Gold.Chemscore.Internal.Correction>
   9.000000E+99

> <Gold.Chemscore.Hbonds>
donor molecule, donor type, donor heavy atom, donor atom, acceptor molecule, acceptor atom, score
      L1  H    15    57       P1  8028  0.92
      P1  H  7997  8009       L1    11  0.47
      P1  H 10752 10764       L1     8  0.13

> <Gold.Chemscore.Hbond.Weighted>
-6.4463

> <Gold.Chemscore.Metal.Weighted>
-0.0000

> <Gold.Chemscore.Lipo.Weighted>
-15.1020

> <Gold.Chemscore.Internal_Hbond.Weighted>
0.0000

> <Gold.Chemscore.DEClash.Weighted>
0.0081

> <Gold.Chemscore.DEInternal.Weighted>
2.2576

> <Gold.Chemscore.Rot.Weighted>
6.7665

> <Gold.Chemscore.Internal.Correction.Weighted>
   9.000000E+99

> <Gold.Protein.RotatedTorsions>
[ 6907 6896 6895 6894 ] final  -21.22 input  -60.11 | X-H torsion
[ 7974 7965 7964 7962 ] final  163.16 input  175.53 | X-H torsion
[ 8008 7997 7996 7995 ] final -132.63 input   59.86 | X-H torsion
[ 10167 10162 10161 10158 ] final  -69.17 input  -65.29 | X-H torsion
[ 10718 10713 10712 10709 ] final   70.10 input   66.30 | X-H torsion
[ 10763 10752 10751 10750 ] final  -72.41 input  -60.55 | X-H torsion
[ 11005 11000 10999 10996 ] final   -8.37 input  -57.11 | X-H torsion

> <Gold.Protein.ActiveResidues>
 VAL166  LYS551  ARG553  GLY616  TRP617  ASP618  TYR619  PRO620  LYS621  CYS622 
 ASP623  PHE694  ASN695  SER759  ASP760  ASP761  ALA762  ILE779  LEU786  VAL792 
 PHE793  MET794  SER795  GLU796  ALA797  LYS798  CYS799  TRP800  GLU811  SER814 

> <Gold.Protein.RotatedAtoms>
  151.2365  135.0573  159.9007 H   0  0  0  0  0  0  0  0  0  0  0  0  # atno 6907 bound_to 6896
  152.5398  134.0480  159.8107 H   0  0  0  0  0  0  0  0  0  0  0  0  # atno 6908 bound_to 6896
  151.0668  133.5450  159.2661 H   0  0  0  0  0  0  0  0  0  0  0  0  # atno 6909 bound_to 6896
  144.7603  139.8143  143.6335 H   0  0  0  0  0  0  0  0  0  0  0  0  # atno 7974 bound_to 7965
  155.3321  140.0467  157.3043 H   0  0  0  0  0  0  0  0  0  0  0  0  # atno 8008 bound_to 7997
  154.5323  140.2261  155.8749 H   0  0  0  0  0  0  0  0  0  0  0  0  # atno 8009 bound_to 7997
  156.1800  140.3076  155.9137 H   0  0  0  0  0  0  0  0  0  0  0  0  # atno 8010 bound_to 7997
  140.5452  143.2313  151.7016 H   0  0  0  0  0  0  0  0  0  0  0  0  # atno 10167 bound_to 10162
  157.6382  130.9460  150.0605 H   0  0  0  0  0  0  0  0  0  0  0  0  # atno 10718 bound_to 10713
  154.4453  135.5931  153.6156 H   0  0  0  0  0  0  0  0  0  0  0  0  # atno 10763 bound_to 10752
  152.9809  135.6008  154.3672 H   0  0  0  0  0  0  0  0  0  0  0  0  # atno 10764 bound_to 10752
  154.3526  135.2841  155.2342 H   0  0  0  0  0  0  0  0  0  0  0  0  # atno 10765 bound_to 10752
  140.7227  133.8814  155.8833 H   0  0  0  0  0  0  0  0  0  0  0  0  # atno 11005 bound_to 11000
  146.1658  139.4789  142.9959 LP  0  0  0  0  0  0  0  0  0  0  0  0  # atno 17320 bound_to 7965
  145.6643  141.0233  143.1692 LP  0  0  0  0  0  0  0  0  0  0  0  0  # atno 17321 bound_to 7965
  139.5004  144.3907  152.0283 LP  0  0  0  0  0  0  0  0  0  0  0  0  # atno 17342 bound_to 10162
  140.3019  144.3637  150.6058 LP  0  0  0  0  0  0  0  0  0  0  0  0  # atno 17343 bound_to 10162
  156.1639  130.3644  149.9260 LP  0  0  0  0  0  0  0  0  0  0  0  0  # atno 17370 bound_to 10713
  156.7252  130.9022  151.3621 LP  0  0  0  0  0  0  0  0  0  0  0  0  # atno 17371 bound_to 10713
  140.9989  134.1177  157.4336 LP  0  0  0  0  0  0  0  0  0  0  0  0  # atno 17394 bound_to 11000
  139.8844  135.0062  156.6367 LP  0  0  0  0  0  0  0  0  0  0  0  0  # atno 17395 bound_to 11000

$$$$
