AV-unprocessed.smi:1506|AV-procd|sdf|6077|dock4
  -GOLD-   22720 6203D 1   1.00000     0.00000
 Structure written by MMmdl.
 39 41  0  0  0  0  0  0  0  0  1 V2000
  152.1706  145.3876  159.2445 C   0  0  0  0  0  0  0  0  0  0  0  0
  151.9890  143.9125  158.9505 C   0  0  0  0  0  0  0  0  0  0  0  0
  152.3878  142.9436  159.8923 C   0  0  0  0  0  0  0  0  0  0  0  0
  152.2140  141.5762  159.6093 C   0  0  0  0  0  0  0  0  0  0  0  0
  151.6405  141.1724  158.3882 C   0  0  0  0  0  0  0  0  0  0  0  0
  151.2316  142.1383  157.4340 C   0  0  0  0  0  0  0  0  0  0  0  0
  150.6587  141.8331  156.2180 O   0  0  0  0  0  0  0  0  0  0  0  0
  150.8181  140.5145  155.7112 C   0  0  0  0  0  0  0  0  0  0  0  0
  149.6477  140.1957  154.7697 C   0  0  1  0  0  0  0  0  0  0  0  0
  149.5558  141.2283  153.8082 O   0  0  0  0  0  0  0  0  0  0  0  0
  149.8161  138.8357  154.0641 C   0  0  0  0  0  0  0  0  0  0  0  0
  150.1278  137.7620  154.9907 N   0  0  0  0  0  0  0  0  0  0  0  0
  151.3155  137.5174  155.5764 C   0  0  0  0  0  0  0  0  0  0  0  0
  151.3863  136.4744  156.3987 N   0  0  0  0  0  0  0  0  0  0  0  0
  150.0936  135.9827  156.3387 C   0  0  0  0  0  0  0  0  0  0  0  0
  149.5020  134.8748  156.9871 C   0  0  0  0  0  0  0  0  0  0  0  0
  148.1441  134.5609  156.7693 C   0  0  0  0  0  0  0  0  0  0  0  0
  147.3579  135.3488  155.9038 C   0  0  0  0  0  0  0  0  0  0  0  0
  147.9249  136.4578  155.2471 C   0  0  0  0  0  0  0  0  0  0  0  0
  149.2805  136.7665  155.4653 C   0  0  0  0  0  0  0  0  0  0  0  0
  151.4132  143.5052  157.7299 C   0  0  0  0  0  0  0  0  0  0  0  0
  152.8151  145.5431  160.1103 H   0  0  0  0  0  0  0  0  0  0  0  0
  151.2052  145.8519  159.4479 H   0  0  0  0  0  0  0  0  0  0  0  0
  152.6224  145.8936  158.3909 H   0  0  0  0  0  0  0  0  0  0  0  0
  152.8266  143.2434  160.8328 H   0  0  0  0  0  0  0  0  0  0  0  0
  152.5209  140.8336  160.3309 H   0  0  0  0  0  0  0  0  0  0  0  0
  151.5246  140.1147  158.2085 H   0  0  0  0  0  0  0  0  0  0  0  0
  151.7597  140.4512  155.1627 H   0  0  0  0  0  0  0  0  0  0  0  0
  150.8503  139.7871  156.5241 H   0  0  0  0  0  0  0  0  0  0  0  0
  148.7193  140.1982  155.3422 H   0  0  0  0  0  0  0  0  0  0  0  0
  149.6630  140.8475  152.9498 H   0  0  0  0  0  0  0  0  0  0  0  0
  148.9095  138.5728  153.5174 H   0  0  0  0  0  0  0  0  0  0  0  0
  150.6172  138.8904  153.3259 H   0  0  0  0  0  0  0  0  0  0  0  0
  152.1767  138.1422  155.3893 H   0  0  0  0  0  0  0  0  0  0  0  0
  150.0939  134.2651  157.6533 H   0  0  0  0  0  0  0  0  0  0  0  0
  147.7030  133.7110  157.2694 H   0  0  0  0  0  0  0  0  0  0  0  0
  146.3185  135.1008  155.7443 H   0  0  0  0  0  0  0  0  0  0  0  0
  147.3256  137.0646  154.5846 H   0  0  0  0  0  0  0  0  0  0  0  0
  151.1053  144.2496  157.0100 H   0  0  0  0  0  0  0  0  0  0  0  0
  1  2  1  0  0  0  0
  1 22  1  0  0  0  0
  1 23  1  0  0  0  0
  1 24  1  0  0  0  0
  2 21  1  0  0  0  0
  2  3  2  0  0  0  0
  3  4  1  0  0  0  0
  3 25  1  0  0  0  0
  4  5  2  0  0  0  0
  4 26  1  0  0  0  0
  5  6  1  0  0  0  0
  5 27  1  0  0  0  0
  6  7  1  0  0  0  0
  6 21  2  0  0  0  0
  7  8  1  0  0  0  0
  8  9  1  0  0  0  0
  8 28  1  0  0  0  0
  8 29  1  0  0  0  0
  9 10  1  0  0  0  0
  9 11  1  0  0  0  0
  9 30  1  0  0  0  0
 10 31  1  0  0  0  0
 11 12  1  0  0  0  0
 11 32  1  0  0  0  0
 11 33  1  0  0  0  0
 12 20  1  0  0  0  0
 12 13  1  0  0  0  0
 13 14  2  0  0  0  0
 13 34  1  0  0  0  0
 14 15  1  0  0  0  0
 15 20  2  0  0  0  0
 15 16  1  0  0  0  0
 16 17  2  0  0  0  0
 16 35  1  0  0  0  0
 17 18  1  0  0  0  0
 17 36  1  0  0  0  0
 18 19  2  0  0  0  0
 18 37  1  0  0  0  0
 19 20  1  0  0  0  0
 19 38  1  0  0  0  0
 21 39  1  0  0  0  0
M  END
> <s_m_source_file>
AV-unprocessed.smi

> <i_m_source_file_index>
1506

> <i_lp_mmshare_version>
43012

> <i_f3d_flags>
0

> <s_epik_input>
W0NIM11jMVtjSF1bY0hdW2NIXWMoW2NIXTEpT1tDSDJdW0NASF0oW09IXSlbQ0gyXW4oW2NIXW4yKWMoYzIzKVtjSF1bY0hdW2NIXVtjSF0z

> <s_epik_cmdline>
J2VwaWtfcHl0aG9uJywgJy1waCcsICc3LjAnLCAnLXRuJywgJzgnLCAnLW1hJywgJzIwMCcsICctbWV0YWxfYmluZGluZycsICctaW1hZScsICc8aW5maWxlLm1hZT4nLCAnLW9tYWUnLCAnPG91dGZpbGUubWFlPic=

> <r_lp_tautomer_probability>
1

> <r_epik_Ionization_Penalty>
0.0608485

> <r_epik_Ionization_Penalty_Charging>
0

> <r_epik_Ionization_Penalty_Neutral>
0.0608485

> <r_epik_State_Penalty>
0.0527778

> <r_epik_Charging_Adjusted_Penalty>
0.0527778

> <i_epik_Tot_Q>
0

> <i_epik_Tot_abs_Q>
0

> <r_epik_Metal_State_Penalty>
5.51973e-05

> <b_epik_Metal_Only>
0

> <s_lp_Force_Field>
OPLS_2005

> <r_lp_Energy>
14.3046

> <b_lp_Chiralities_Consistent>
1

> <s_lp_Variant>
AV-unprocessed.smi:1506-2

> <Gold.Version>
5.8.1

> <Gold.Id.Protein>
6NUR|6NUR_protein|mol2

> <Gold.PLP.Fitness>
48.3594

> <Gold.PLP.PLP>
-43.5661

> <Gold.PLP.part.hbond>
-4.0000

> <Gold.PLP.part.metal>
0.0000

> <Gold.PLP.part.buried>
-1.7181

> <Gold.PLP.part.nonpolar>
-37.6848

> <Gold.PLP.part.repulsive>
0.1022

> <Gold.PLP.ligand.clash>
0.0000

> <Gold.PLP.ligand.torsion>
0.6827

> <Gold.PLP.Chemscore.Hbond>
2.0000

> <Gold.PLP.Chemscore.CHOScore>
0.0000

> <Gold.PLP.Chemscore.Metal>
0.0000

> <Gold.Chemscore.Hbonds>
donor molecule, donor type, donor heavy atom, donor atom, acceptor molecule, acceptor atom, score
      L1  H    10    31       P1  7957  1.00

> <Gold.PLP.Chemscore.Internal.Correction>
0.1586

> <Gold.Rescore>
     Score         DG    S(hbond)    S(metal)    S(lipo)     H(rot)  DE(clash)    DE(int)     intcor
     17.91     -18.96       1.64        0.00     116.28       2.19       0.22       0.83       ----

> <Gold.Chemscore.Fitness>
17.9077

> <Gold.Chemscore.DG>
-18.9552

> <Gold.Chemscore.ZeroCoef>
-5.4800

> <Gold.Chemscore.Hbond>
1.6381

> <Gold.Chemscore.Metal>
0.0000

> <Gold.Chemscore.Lipo>
116.2762

> <Gold.Chemscore.Internal_Hbond>
0.0000

> <Gold.Chemscore.DEClash>
0.2194

> <Gold.Chemscore.DEInternal>
0.8281

> <Gold.Chemscore.Rot>
2.1877

> <Gold.Chemscore.Internal.Correction>
   9.000000E+99

> <Gold.Chemscore.Hbonds>
donor molecule, donor type, donor heavy atom, donor atom, acceptor molecule, acceptor atom, score
      L1  H    10    31       P1  7957  0.99

> <Gold.Chemscore.Hbond.Weighted>
-5.4714

> <Gold.Chemscore.Metal.Weighted>
-0.0000

> <Gold.Chemscore.Lipo.Weighted>
-13.6043

> <Gold.Chemscore.Internal_Hbond.Weighted>
0.0000

> <Gold.Chemscore.DEClash.Weighted>
0.2194

> <Gold.Chemscore.DEInternal.Weighted>
0.8281

> <Gold.Chemscore.Rot.Weighted>
5.6005

> <Gold.Chemscore.Internal.Correction.Weighted>
   9.000000E+99

> <Gold.Protein.RotatedTorsions>
[ 6907 6896 6895 6894 ] final  179.52 input  -60.11 | X-H torsion
[ 7974 7965 7964 7962 ] final   26.51 input  175.53 | X-H torsion
[ 8008 7997 7996 7995 ] final   -8.44 input   59.86 | X-H torsion
[ 10167 10162 10161 10158 ] final  148.95 input  -65.29 | X-H torsion
[ 10718 10713 10712 10709 ] final  -54.04 input   66.30 | X-H torsion
[ 10763 10752 10751 10750 ] final   96.17 input  -60.55 | X-H torsion
[ 11005 11000 10999 10996 ] final  174.09 input  -57.11 | X-H torsion

> <Gold.Protein.ActiveResidues>
 VAL166  LYS551  ARG553  GLY616  TRP617  ASP618  TYR619  PRO620  LYS621  CYS622 
 ASP623  PHE694  ASN695  SER759  ASP760  ASP761  ALA762  ILE779  LEU786  VAL792 
 PHE793  MET794  SER795  GLU796  ALA797  LYS798  CYS799  TRP800  GLU811  SER814 

> <Gold.Protein.RotatedAtoms>
  151.6703  133.3314  159.3194 H   0  0  0  0  0  0  0  0  0  0  0  0  # atno 6907 bound_to 6896
  150.7871  134.6868  159.6484 H   0  0  0  0  0  0  0  0  0  0  0  0  # atno 6908 bound_to 6896
  152.3943  134.6394  160.0147 H   0  0  0  0  0  0  0  0  0  0  0  0  # atno 6909 bound_to 6896
  146.1834  139.7319  142.8884 H   0  0  0  0  0  0  0  0  0  0  0  0  # atno 7974 bound_to 7965
  154.5741  140.2381  155.8149 H   0  0  0  0  0  0  0  0  0  0  0  0  # atno 8008 bound_to 7997
  156.2129  140.3021  155.9731 H   0  0  0  0  0  0  0  0  0  0  0  0  # atno 8009 bound_to 7997
  155.2659  140.0416  157.2992 H   0  0  0  0  0  0  0  0  0  0  0  0  # atno 8010 bound_to 7997
  139.4868  144.5639  151.7180 H   0  0  0  0  0  0  0  0  0  0  0  0  # atno 10167 bound_to 10162
  156.1484  130.4152  149.9985 H   0  0  0  0  0  0  0  0  0  0  0  0  # atno 10718 bound_to 10713
  153.2618  135.4228  155.0901 H   0  0  0  0  0  0  0  0  0  0  0  0  # atno 10763 bound_to 10752
  154.8423  135.3451  154.6367 H   0  0  0  0  0  0  0  0  0  0  0  0  # atno 10764 bound_to 10752
  153.6787  135.7040  153.5181 H   0  0  0  0  0  0  0  0  0  0  0  0  # atno 10765 bound_to 10752
  140.3476  134.7223  157.4245 H   0  0  0  0  0  0  0  0  0  0  0  0  # atno 11005 bound_to 11000
  145.4010  141.0385  143.3070 LP  0  0  0  0  0  0  0  0  0  0  0  0  # atno 17320 bound_to 7965
  144.8354  139.5559  143.6924 LP  0  0  0  0  0  0  0  0  0  0  0  0  # atno 17321 bound_to 7965
  140.5214  144.0873  150.6024 LP  0  0  0  0  0  0  0  0  0  0  0  0  # atno 17342 bound_to 10162
  140.3832  143.2791  152.0146 LP  0  0  0  0  0  0  0  0  0  0  0  0  # atno 17343 bound_to 10162
  156.7850  130.9235  151.3646 LP  0  0  0  0  0  0  0  0  0  0  0  0  # atno 17370 bound_to 10713
  157.6636  130.8988  149.9883 LP  0  0  0  0  0  0  0  0  0  0  0  0  # atno 17371 bound_to 10713
  140.0730  134.5836  155.8622 LP  0  0  0  0  0  0  0  0  0  0  0  0  # atno 17394 bound_to 11000
  141.2021  133.6623  156.5989 LP  0  0  0  0  0  0  0  0  0  0  0  0  # atno 17395 bound_to 11000

$$$$
