AV-unprocessed.smi:1529|AV-procd|sdf|6152|dock9
  -GOLD-   22720 6303D 1   1.00000     0.00000
 Structure written by MMmdl.
 50 51  0  0  0  0  0  0  0  0  1 V2000
  155.1398  143.8135  165.5003 C   0  0  0  0  0  0  0  0  0  0  0  0
  155.1411  142.7167  166.5599 C   0  0  0  0  0  0  0  0  0  0  0  0
  154.5161  142.8700  167.6089 O   0  0  0  0  0  0  0  0  0  0  0  0
  155.8499  141.6147  166.2719 N   0  0  0  0  0  0  0  0  0  0  0  0
  155.9867  140.4525  167.1443 C   0  0  0  0  0  0  0  0  0  0  0  0
  157.0151  139.4346  166.6182 C   0  0  0  0  0  0  0  0  0  0  0  0
  156.4242  138.4193  165.6230 C   0  0  0  0  0  0  0  0  0  0  0  0
  155.7706  139.0870  164.5040 N   0  0  0  0  0  0  0  0  0  0  0  0
  155.6847  138.5965  163.2567 C   0  0  0  0  0  0  0  0  0  0  0  0
  156.1750  137.5199  162.9148 O   0  0  0  0  0  0  0  0  0  0  0  0
  155.0026  139.4828  162.2551 C   0  0  0  0  0  0  0  0  0  0  0  0
  154.7146  139.0123  160.9571 C   0  0  0  0  0  0  0  0  0  0  0  0
  154.0552  139.8622  160.0487 C   0  0  0  0  0  0  0  0  0  0  0  0
  153.6912  141.1659  160.4608 C   0  0  0  0  0  0  0  0  0  0  0  0
  153.0342  142.0369  159.5648 N   0  0  0  0  0  0  0  0  0  0  0  0
  151.9627  141.4871  158.7368 C   0  0  0  0  0  0  0  0  0  0  0  0
  151.5705  142.4842  157.6310 C   0  0  1  0  0  0  0  0  0  0  0  0
  150.3695  141.9947  156.8149 C   0  0  0  0  0  0  0  0  0  0  0  0
  151.2273  143.7316  158.2281 O   0  0  0  0  0  0  0  0  0  0  0  0
  152.3164  144.3117  158.9407 C   0  0  1  0  0  0  0  0  0  0  0  0
  151.8742  145.6839  159.4597 C   0  0  0  0  0  0  0  0  0  0  0  0
  152.7347  143.3686  160.0845 C   0  0  0  0  0  0  0  0  0  0  0  0
  153.9514  141.6098  161.7153 N   0  0  0  0  0  0  0  0  0  0  0  0
  154.5841  140.7917  162.5825 C   0  0  0  0  0  0  0  0  0  0  0  0
  156.1600  144.1178  165.2643 H   0  0  0  0  0  0  0  0  0  0  0  0
  154.5947  144.6907  165.8508 H   0  0  0  0  0  0  0  0  0  0  0  0
  154.6639  143.4583  164.5860 H   0  0  0  0  0  0  0  0  0  0  0  0
  156.3284  141.5771  165.3833 H   0  0  0  0  0  0  0  0  0  0  0  0
  156.2613  140.7758  168.1497 H   0  0  0  0  0  0  0  0  0  0  0  0
  155.0096  139.9769  167.2327 H   0  0  0  0  0  0  0  0  0  0  0  0
  157.8485  139.9616  166.1512 H   0  0  0  0  0  0  0  0  0  0  0  0
  157.4380  138.9015  167.4707 H   0  0  0  0  0  0  0  0  0  0  0  0
  157.2007  137.7446  165.2582 H   0  0  0  0  0  0  0  0  0  0  0  0
  155.6789  137.7957  166.1171 H   0  0  0  0  0  0  0  0  0  0  0  0
  155.3609  139.9912  164.6888 H   0  0  0  0  0  0  0  0  0  0  0  0
  154.9934  138.0136  160.6526 H   0  0  0  0  0  0  0  0  0  0  0  0
  153.8245  139.5001  159.0580 H   0  0  0  0  0  0  0  0  0  0  0  0
  152.2845  140.5499  158.2805 H   0  0  0  0  0  0  0  0  0  0  0  0
  151.1001  141.2650  159.3668 H   0  0  0  0  0  0  0  0  0  0  0  0
  152.4133  142.6312  156.9531 H   0  0  0  0  0  0  0  0  0  0  0  0
  150.5873  141.0441  156.3276 H   0  0  0  0  0  0  0  0  0  0  0  0
  150.1076  142.7137  156.0381 H   0  0  0  0  0  0  0  0  0  0  0  0
  149.4928  141.8542  157.4480 H   0  0  0  0  0  0  0  0  0  0  0  0
  153.1558  144.4545  158.2575 H   0  0  0  0  0  0  0  0  0  0  0  0
  152.6802  146.1762  160.0045 H   0  0  0  0  0  0  0  0  0  0  0  0
  151.0205  145.5950  160.1321 H   0  0  0  0  0  0  0  0  0  0  0  0
  151.5831  146.3364  158.6362 H   0  0  0  0  0  0  0  0  0  0  0  0
  151.9295  143.2843  160.8158 H   0  0  0  0  0  0  0  0  0  0  0  0
  153.5896  143.7988  160.6043 H   0  0  0  0  0  0  0  0  0  0  0  0
  154.7535  141.2033  163.5668 H   0  0  0  0  0  0  0  0  0  0  0  0
  1  2  1  0  0  0  0
  1 25  1  0  0  0  0
  1 26  1  0  0  0  0
  1 27  1  0  0  0  0
  2  3  2  0  0  0  0
  2  4  1  0  0  0  0
  4  5  1  0  0  0  0
  4 28  1  0  0  0  0
  5  6  1  0  0  0  0
  5 29  1  0  0  0  0
  5 30  1  0  0  0  0
  6  7  1  0  0  0  0
  6 31  1  0  0  0  0
  6 32  1  0  0  0  0
  7  8  1  0  0  0  0
  7 33  1  0  0  0  0
  7 34  1  0  0  0  0
  8  9  1  0  0  0  0
  8 35  1  0  0  0  0
  9 10  2  0  0  0  0
  9 11  1  0  0  0  0
 11 24  1  0  0  0  0
 11 12  2  0  0  0  0
 12 13  1  0  0  0  0
 12 36  1  0  0  0  0
 13 14  2  0  0  0  0
 13 37  1  0  0  0  0
 14 15  1  0  0  0  0
 14 23  1  0  0  0  0
 15 22  1  0  0  0  0
 15 16  1  0  0  0  0
 16 17  1  0  0  0  0
 16 38  1  0  0  0  0
 16 39  1  0  0  0  0
 17 18  1  0  0  0  0
 17 19  1  0  0  0  0
 17 40  1  0  0  0  0
 18 41  1  0  0  0  0
 18 42  1  0  0  0  0
 18 43  1  0  0  0  0
 19 20  1  0  0  0  0
 20 21  1  0  0  0  0
 20 22  1  0  0  0  0
 20 44  1  0  0  0  0
 21 45  1  0  0  0  0
 21 46  1  0  0  0  0
 21 47  1  0  0  0  0
 22 48  1  0  0  0  0
 22 49  1  0  0  0  0
 23 24  2  0  0  0  0
 24 50  1  0  0  0  0
M  END
> <s_m_source_file>
AV-unprocessed.smi

> <i_m_source_file_index>
1529

> <i_lp_mmshare_version>
43012

> <i_f3d_flags>
0

> <s_epik_input>
W0NIM11DKD1PKVtOSF1bQ0gyXVtDSDJdW0NIMl1bTkhdQyg9TyljMVtjSF1bY0hdYyhuW2NIXTEpTjJbQ0gyXVtDQEBIXShbQ0gzXSlPW0NAQEhdKFtDSDNdKVtDSDJdMg==

> <s_epik_cmdline>
J2VwaWtfcHl0aG9uJywgJy1waCcsICc3LjAnLCAnLXRuJywgJzgnLCAnLW1hJywgJzIwMCcsICctbWV0YWxfYmluZGluZycsICctaW1hZScsICc8aW5maWxlLm1hZT4nLCAnLW9tYWUnLCAnPG91dGZpbGUubWFlPic=

> <r_lp_tautomer_probability>
1

> <r_epik_Ionization_Penalty>
2.1474e-05

> <r_epik_Ionization_Penalty_Charging>
0

> <r_epik_Ionization_Penalty_Neutral>
2.1474e-05

> <r_epik_State_Penalty>
-0

> <r_epik_Charging_Adjusted_Penalty>
0

> <i_epik_Tot_Q>
0

> <i_epik_Tot_abs_Q>
0

> <r_epik_Metal_State_Penalty>
-0

> <b_epik_Metal_Only>
0

> <s_lp_Force_Field>
OPLS_2005

> <r_lp_Energy>
16.5769

> <b_lp_Chiralities_Consistent>
1

> <s_lp_Variant>
AV-unprocessed.smi:1529-1

> <Gold.Version>
5.8.1

> <Gold.Id.Protein>
6NUR|6NUR_protein|mol2

> <Gold.PLP.Fitness>
45.0435

> <Gold.PLP.PLP>
-45.9214

> <Gold.PLP.part.hbond>
-1.1459

> <Gold.PLP.part.metal>
0.0000

> <Gold.PLP.part.buried>
-6.1392

> <Gold.PLP.part.nonpolar>
-37.6185

> <Gold.PLP.part.repulsive>
0.2978

> <Gold.PLP.ligand.clash>
0.0000

> <Gold.PLP.ligand.torsion>
0.6336

> <Gold.PLP.Chemscore.Hbond>
0.0000

> <Gold.PLP.Chemscore.CHOScore>
0.0000

> <Gold.PLP.Chemscore.Metal>
0.0000

> <Gold.PLP.Chemscore.Internal.Correction>
0.3893

> <Gold.Rescore>
     Score         DG    S(hbond)    S(metal)    S(lipo)     H(rot)  DE(clash)    DE(int)     intcor
     12.54     -13.28       0.00        0.00     111.95       2.07       0.10       0.64       ----

> <Gold.Chemscore.Fitness>
12.5417

> <Gold.Chemscore.DG>
-13.2754

> <Gold.Chemscore.ZeroCoef>
-5.4800

> <Gold.Chemscore.Hbond>
0.0000

> <Gold.Chemscore.Metal>
0.0000

> <Gold.Chemscore.Lipo>
111.9478

> <Gold.Chemscore.Internal_Hbond>
0.0000

> <Gold.Chemscore.DEClash>
0.0973

> <Gold.Chemscore.DEInternal>
0.6365

> <Gold.Chemscore.Rot>
2.0713

> <Gold.Chemscore.Internal.Correction>
   9.000000E+99

> <Gold.Chemscore.Hbond.Weighted>
-0.0000

> <Gold.Chemscore.Metal.Weighted>
-0.0000

> <Gold.Chemscore.Lipo.Weighted>
-13.0979

> <Gold.Chemscore.Internal_Hbond.Weighted>
0.0000

> <Gold.Chemscore.DEClash.Weighted>
0.0973

> <Gold.Chemscore.DEInternal.Weighted>
0.6365

> <Gold.Chemscore.Rot.Weighted>
5.3025

> <Gold.Chemscore.Internal.Correction.Weighted>
   9.000000E+99

> <Gold.Protein.RotatedTorsions>
[ 6907 6896 6895 6894 ] final   69.43 input  -60.11 | X-H torsion
[ 7974 7965 7964 7962 ] final -163.94 input  175.53 | X-H torsion
[ 8008 7997 7996 7995 ] final   59.77 input   59.86 | X-H torsion
[ 10167 10162 10161 10158 ] final  152.32 input  -65.29 | X-H torsion
[ 10718 10713 10712 10709 ] final  -88.45 input   66.30 | X-H torsion
[ 10763 10752 10751 10750 ] final  161.41 input  -60.55 | X-H torsion
[ 11005 11000 10999 10996 ] final  105.65 input  -57.11 | X-H torsion

> <Gold.Protein.ActiveResidues>
 VAL166  LYS551  ARG553  GLY616  TRP617  ASP618  TYR619  PRO620  LYS621  CYS622 
 ASP623  PHE694  ASN695  SER759  ASP760  ASP761  ALA762  ILE779  LEU786  VAL792 
 PHE793  MET794  SER795  GLU796  ALA797  LYS798  CYS799  TRP800  GLU811  SER814 

> <Gold.Protein.RotatedAtoms>
  152.4686  134.5016  159.9726 H   0  0  0  0  0  0  0  0  0  0  0  0  # atno 6907 bound_to 6896
  151.5048  133.3491  159.2883 H   0  0  0  0  0  0  0  0  0  0  0  0  # atno 6908 bound_to 6896
  150.8683  134.8079  159.7197 H   0  0  0  0  0  0  0  0  0  0  0  0  # atno 6909 bound_to 6896
  144.7311  140.3034  143.6200 H   0  0  0  0  0  0  0  0  0  0  0  0  # atno 7974 bound_to 7965
  155.5716  140.3490  155.4517 H   0  0  0  0  0  0  0  0  0  0  0  0  # atno 8008 bound_to 7997
  156.0440  140.1302  157.0150 H   0  0  0  0  0  0  0  0  0  0  0  0  # atno 8009 bound_to 7997
  154.4404  140.1018  156.6264 H   0  0  0  0  0  0  0  0  0  0  0  0  # atno 8010 bound_to 7997
  139.4834  144.5368  151.7632 H   0  0  0  0  0  0  0  0  0  0  0  0  # atno 10167 bound_to 10162
  155.9983  130.4836  150.5022 H   0  0  0  0  0  0  0  0  0  0  0  0  # atno 10718 bound_to 10713
  154.2626  135.2768  155.2772 H   0  0  0  0  0  0  0  0  0  0  0  0  # atno 10763 bound_to 10752
  154.5371  135.5713  153.6811 H   0  0  0  0  0  0  0  0  0  0  0  0  # atno 10764 bound_to 10752
  152.9959  135.6242  154.2777 H   0  0  0  0  0  0  0  0  0  0  0  0  # atno 10765 bound_to 10752
  139.8804  134.9343  156.5547 H   0  0  0  0  0  0  0  0  0  0  0  0  # atno 11005 bound_to 11000
  145.7737  139.1866  143.2197 LP  0  0  0  0  0  0  0  0  0  0  0  0  # atno 17320 bound_to 7965
  146.0890  140.7678  142.9604 LP  0  0  0  0  0  0  0  0  0  0  0  0  # atno 17321 bound_to 7965
  140.4901  144.1322  150.5948 LP  0  0  0  0  0  0  0  0  0  0  0  0  # atno 17342 bound_to 10162
  140.4180  143.2625  151.9750 LP  0  0  0  0  0  0  0  0  0  0  0  0  # atno 17343 bound_to 10162
  157.3005  131.0644  151.2072 LP  0  0  0  0  0  0  0  0  0  0  0  0  # atno 17370 bound_to 10713
  157.3053  130.6863  149.6186 LP  0  0  0  0  0  0  0  0  0  0  0  0  # atno 17371 bound_to 10713
  140.8214  133.8351  155.8899 LP  0  0  0  0  0  0  0  0  0  0  0  0  # atno 17394 bound_to 11000
  140.9415  134.1895  157.4794 LP  0  0  0  0  0  0  0  0  0  0  0  0  # atno 17395 bound_to 11000

$$$$
