AV-unprocessed.smi:1972|AV-procd|sdf|7975|dock8
  -GOLD-   2272010153D 1   1.00000     0.00000
 Structure written by MMmdl.
 44 45  0  0  0  0  0  0  0  0  1 V2000
  144.3327  146.1309  153.3569 C   0  0  0  0  0  0  0  0  0  0  0  0
  143.4656  144.7828  154.2005 S   0  0  0  0  0  0  0  0  0  0  0  0
  144.8913  143.7738  154.6988 C   0  0  0  0  0  0  0  0  0  0  0  0
  145.7515  143.3466  153.4963 C   0  0  0  0  0  0  0  0  0  0  0  0
  146.9447  142.4713  153.8924 C   0  0  0  0  0  0  0  0  0  0  0  0
  148.0859  142.9327  153.8748 O   0  0  0  0  0  0  0  0  0  0  0  0
  146.6658  141.2076  154.2436 N   0  0  0  0  0  0  0  0  0  0  0  0
  147.6523  140.2255  154.6790 C   0  0  0  0  0  0  0  0  0  0  0  0
  148.6538  140.7754  155.6824 C   0  0  0  0  0  0  0  0  0  0  0  0
  149.9974  141.0341  155.3385 C   0  0  0  0  0  0  0  0  0  0  0  0
  150.8713  141.5331  156.3231 C   0  0  0  0  0  0  0  0  0  0  0  0
  150.3825  141.7593  157.6319 C   0  0  0  0  0  0  0  0  0  0  0  0
  151.2403  142.2617  158.6348 N   0  0  0  0  0  0  0  0  0  0  0  0
  151.8115  143.5936  158.4456 C   0  0  0  0  0  0  0  0  0  0  0  0
  152.4649  144.0851  159.7473 C   0  0  0  0  0  0  0  0  0  0  0  0
  153.4229  143.1306  160.1921 O   0  0  0  0  0  0  0  0  0  0  0  0
  152.8287  141.8682  160.4809 C   0  0  2  0  0  0  0  0  0  0  0  0
  153.9145  140.9414  161.0378 C   0  0  0  0  0  0  0  0  0  0  0  0
  152.1867  141.3027  159.1991 C   0  0  0  0  0  0  0  0  0  0  0  0
  149.0940  141.4945  157.9615 N   0  0  0  0  0  0  0  0  0  0  0  0
  148.2602  141.0168  157.0139 C   0  0  0  0  0  0  0  0  0  0  0  0
  143.6161  146.8577  152.9745 H   0  0  0  0  0  0  0  0  0  0  0  0
  144.9150  145.7448  152.5204 H   0  0  0  0  0  0  0  0  0  0  0  0
  145.0069  146.6399  154.0460 H   0  0  0  0  0  0  0  0  0  0  0  0
  145.4977  144.3607  155.3890 H   0  0  0  0  0  0  0  0  0  0  0  0
  144.5399  142.9048  155.2565 H   0  0  0  0  0  0  0  0  0  0  0  0
  145.1325  142.8376  152.7558 H   0  0  0  0  0  0  0  0  0  0  0  0
  146.1474  144.2357  153.0049 H   0  0  0  0  0  0  0  0  0  0  0  0
  145.7013  140.9094  154.2232 H   0  0  0  0  0  0  0  0  0  0  0  0
  147.1262  139.3761  155.1169 H   0  0  0  0  0  0  0  0  0  0  0  0
  148.2130  139.8468  153.8226 H   0  0  0  0  0  0  0  0  0  0  0  0
  150.3640  140.8498  154.3395 H   0  0  0  0  0  0  0  0  0  0  0  0
  151.9038  141.7190  156.0678 H   0  0  0  0  0  0  0  0  0  0  0  0
  152.5531  143.5584  157.6462 H   0  0  0  0  0  0  0  0  0  0  0  0
  151.0368  144.2994  158.1426 H   0  0  0  0  0  0  0  0  0  0  0  0
  152.9650  145.0388  159.5789 H   0  0  0  0  0  0  0  0  0  0  0  0
  151.7137  144.2519  160.5211 H   0  0  0  0  0  0  0  0  0  0  0  0
  152.0619  142.0015  161.2464 H   0  0  0  0  0  0  0  0  0  0  0  0
  153.5045  139.9628  161.2885 H   0  0  0  0  0  0  0  0  0  0  0  0
  154.3556  141.3587  161.9432 H   0  0  0  0  0  0  0  0  0  0  0  0
  154.7164  140.7936  160.3136 H   0  0  0  0  0  0  0  0  0  0  0  0
  151.7063  140.3539  159.4325 H   0  0  0  0  0  0  0  0  0  0  0  0
  152.9560  141.0927  158.4547 H   0  0  0  0  0  0  0  0  0  0  0  0
  147.2459  140.8233  157.3308 H   0  0  0  0  0  0  0  0  0  0  0  0
  1  2  1  0  0  0  0
  1 22  1  0  0  0  0
  1 23  1  0  0  0  0
  1 24  1  0  0  0  0
  2  3  1  0  0  0  0
  3  4  1  0  0  0  0
  3 25  1  0  0  0  0
  3 26  1  0  0  0  0
  4  5  1  0  0  0  0
  4 27  1  0  0  0  0
  4 28  1  0  0  0  0
  5  6  2  0  0  0  0
  5  7  1  0  0  0  0
  7  8  1  0  0  0  0
  7 29  1  0  0  0  0
  8  9  1  0  0  0  0
  8 30  1  0  0  0  0
  8 31  1  0  0  0  0
  9 21  1  0  0  0  0
  9 10  2  0  0  0  0
 10 11  1  0  0  0  0
 10 32  1  0  0  0  0
 11 12  2  0  0  0  0
 11 33  1  0  0  0  0
 12 13  1  0  0  0  0
 12 20  1  0  0  0  0
 13 19  1  0  0  0  0
 13 14  1  0  0  0  0
 14 15  1  0  0  0  0
 14 34  1  0  0  0  0
 14 35  1  0  0  0  0
 15 16  1  0  0  0  0
 15 36  1  0  0  0  0
 15 37  1  0  0  0  0
 16 17  1  0  0  0  0
 17 18  1  0  0  0  0
 17 19  1  0  0  0  0
 17 38  1  0  0  0  0
 18 39  1  0  0  0  0
 18 40  1  0  0  0  0
 18 41  1  0  0  0  0
 19 42  1  0  0  0  0
 19 43  1  0  0  0  0
 20 21  2  0  0  0  0
 21 44  1  0  0  0  0
M  END
> <s_m_source_file>
AV-unprocessed.smi

> <i_m_source_file_index>
1972

> <i_lp_mmshare_version>
43012

> <i_f3d_flags>
0

> <s_epik_input>
W0NIM11TW0NIMl1bQ0gyXUMoPU8pW05IXVtDSDJdYzFbY0hdW2NIXWMobltjSF0xKU4yW0NIMl1bQ0gyXU9bQ0BASF0oW0NIM10pW0NIMl0y

> <s_epik_cmdline>
J2VwaWtfcHl0aG9uJywgJy1waCcsICc3LjAnLCAnLXRuJywgJzgnLCAnLW1hJywgJzIwMCcsICctbWV0YWxfYmluZGluZycsICctaW1hZScsICc8aW5maWxlLm1hZT4nLCAnLW9tYWUnLCAnPG91dGZpbGUubWFlPic=

> <r_lp_tautomer_probability>
1

> <r_epik_Ionization_Penalty>
0.00559088

> <r_epik_Ionization_Penalty_Charging>
0

> <r_epik_Ionization_Penalty_Neutral>
0.00559088

> <r_epik_State_Penalty>
0.00409544

> <r_epik_Charging_Adjusted_Penalty>
0.00409544

> <i_epik_Tot_Q>
0

> <i_epik_Tot_abs_Q>
0

> <r_epik_Metal_State_Penalty>
-0

> <b_epik_Metal_Only>
0

> <s_lp_Force_Field>
OPLS_2005

> <r_lp_Energy>
17.9422

> <b_lp_Chiralities_Consistent>
1

> <s_lp_Variant>
AV-unprocessed.smi:1972-2

> <Gold.Version>
5.8.1

> <Gold.Id.Protein>
6NUR|6NUR_protein|mol2

> <Gold.PLP.Fitness>
37.8120

> <Gold.PLP.PLP>
-36.2382

> <Gold.PLP.part.hbond>
-2.0000

> <Gold.PLP.part.metal>
0.0000

> <Gold.PLP.part.buried>
-2.5749

> <Gold.PLP.part.nonpolar>
-35.6824

> <Gold.PLP.part.repulsive>
4.0666

> <Gold.PLP.ligand.clash>
0.0000

> <Gold.PLP.ligand.torsion>
0.6203

> <Gold.PLP.Chemscore.Hbond>
0.8160

> <Gold.PLP.Chemscore.CHOScore>
0.0000

> <Gold.PLP.Chemscore.Metal>
0.0000

> <Gold.Chemscore.Hbonds>
donor molecule, donor type, donor heavy atom, donor atom, acceptor molecule, acceptor atom, score
      P1  H  8022  8030       L1     6  0.85

> <Gold.PLP.Chemscore.Internal.Correction>
0.3665

> <Gold.Rescore>
     Score         DG    S(hbond)    S(metal)    S(lipo)     H(rot)  DE(clash)    DE(int)     intcor
     12.08     -15.76       0.85        0.00     101.83       1.75       1.84       1.83       ----

> <Gold.Chemscore.Fitness>
12.0838

> <Gold.Chemscore.DG>
-15.7565

> <Gold.Chemscore.ZeroCoef>
-5.4800

> <Gold.Chemscore.Hbond>
0.8479

> <Gold.Chemscore.Metal>
0.0000

> <Gold.Chemscore.Lipo>
101.8293

> <Gold.Chemscore.Internal_Hbond>
0.0000

> <Gold.Chemscore.DEClash>
1.8419

> <Gold.Chemscore.DEInternal>
1.8308

> <Gold.Chemscore.Rot>
1.7460

> <Gold.Chemscore.Internal.Correction>
   9.000000E+99

> <Gold.Chemscore.Hbonds>
donor molecule, donor type, donor heavy atom, donor atom, acceptor molecule, acceptor atom, score
      P1  H  8011  8017       L1     6  0.01
      P1  H  8022  8030       L1     6  0.83

> <Gold.Chemscore.Hbond.Weighted>
-2.8321

> <Gold.Chemscore.Metal.Weighted>
-0.0000

> <Gold.Chemscore.Lipo.Weighted>
-11.9140

> <Gold.Chemscore.Internal_Hbond.Weighted>
0.0000

> <Gold.Chemscore.DEClash.Weighted>
1.8419

> <Gold.Chemscore.DEInternal.Weighted>
1.8308

> <Gold.Chemscore.Rot.Weighted>
4.4697

> <Gold.Chemscore.Internal.Correction.Weighted>
   9.000000E+99

> <Gold.Protein.RotatedTorsions>
[ 6907 6896 6895 6894 ] final  -29.11 input  -60.11 | X-H torsion
[ 7974 7965 7964 7962 ] final -103.32 input  175.53 | X-H torsion
[ 8008 7997 7996 7995 ] final   96.46 input   59.86 | X-H torsion
[ 10167 10162 10161 10158 ] final   56.44 input  -65.29 | X-H torsion
[ 10718 10713 10712 10709 ] final  -26.66 input   66.30 | X-H torsion
[ 10763 10752 10751 10750 ] final  -94.01 input  -60.55 | X-H torsion
[ 11005 11000 10999 10996 ] final  176.42 input  -57.11 | X-H torsion

> <Gold.Protein.ActiveResidues>
 VAL166  LYS551  ARG553  GLY616  TRP617  ASP618  TYR619  PRO620  LYS621  CYS622 
 ASP623  PHE694  ASN695  SER759  ASP760  ASP761  ALA762  ILE779  LEU786  VAL792 
 PHE793  MET794  SER795  GLU796  ALA797  LYS798  CYS799  TRP800  GLU811  SER814 

> <Gold.Protein.RotatedAtoms>
  151.1237  135.0093  159.8550 H   0  0  0  0  0  0  0  0  0  0  0  0  # atno 6907 bound_to 6896
  152.5449  134.1692  159.8600 H   0  0  0  0  0  0  0  0  0  0  0  0  # atno 6908 bound_to 6896
  151.1752  133.4714  159.2627 H   0  0  0  0  0  0  0  0  0  0  0  0  # atno 6909 bound_to 6896
  145.2574  140.9258  143.3060 H   0  0  0  0  0  0  0  0  0  0  0  0  # atno 7974 bound_to 7965
  156.0799  140.3272  155.7680 H   0  0  0  0  0  0  0  0  0  0  0  0  # atno 8008 bound_to 7997
  155.5170  140.0582  157.2931 H   0  0  0  0  0  0  0  0  0  0  0  0  # atno 8009 bound_to 7997
  154.4576  140.1950  156.0352 H   0  0  0  0  0  0  0  0  0  0  0  0  # atno 8010 bound_to 7997
  140.2087  144.3912  150.6498 H   0  0  0  0  0  0  0  0  0  0  0  0  # atno 10167 bound_to 10162
  156.4483  130.4478  149.7007 H   0  0  0  0  0  0  0  0  0  0  0  0  # atno 10718 bound_to 10713
  154.7014  135.5173  153.8532 H   0  0  0  0  0  0  0  0  0  0  0  0  # atno 10763 bound_to 10752
  153.0707  135.6600  154.0263 H   0  0  0  0  0  0  0  0  0  0  0  0  # atno 10764 bound_to 10752
  154.0121  135.3001  155.3370 H   0  0  0  0  0  0  0  0  0  0  0  0  # atno 10765 bound_to 10752
  140.3729  134.7014  157.4403 H   0  0  0  0  0  0  0  0  0  0  0  0  # atno 11005 bound_to 11000
  144.9449  139.4147  143.6431 LP  0  0  0  0  0  0  0  0  0  0  0  0  # atno 17320 bound_to 7965
  146.3285  139.8427  142.8887 LP  0  0  0  0  0  0  0  0  0  0  0  0  # atno 17321 bound_to 7965
  140.6339  143.2192  151.6436 LP  0  0  0  0  0  0  0  0  0  0  0  0  # atno 17342 bound_to 10162
  139.5188  144.3272  152.0859 LP  0  0  0  0  0  0  0  0  0  0  0  0  # atno 17343 bound_to 10162
  156.3844  130.7595  151.2591 LP  0  0  0  0  0  0  0  0  0  0  0  0  # atno 17370 bound_to 10713
  157.7504  131.0286  150.4057 LP  0  0  0  0  0  0  0  0  0  0  0  0  # atno 17371 bound_to 10713
  140.0538  134.6093  155.8830 LP  0  0  0  0  0  0  0  0  0  0  0  0  # atno 17394 bound_to 11000
  141.1949  133.6584  156.5615 LP  0  0  0  0  0  0  0  0  0  0  0  0  # atno 17395 bound_to 11000

$$$$
