AV-unprocessed.smi:492|AV-procd|sdf|2711|dock1
  -GOLD-   2262023153D 1   1.00000     0.00000
 Structure written by MMmdl.
 47 49  0  0  0  0  0  0  0  0  2 V2000
  150.8731  130.0573  153.2627 C   0  0  0  0  0  0  0  0  0  0  0  0
  151.3975  130.9117  154.2686 O   0  0  0  0  0  0  0  0  0  0  0  0
  150.9634  132.2196  154.2996 C   0  0  0  0  0  0  0  0  0  0  0  0
  151.4978  133.0489  155.3069 C   0  0  0  0  0  0  0  0  0  0  0  0
  151.1099  134.3985  155.4126 C   0  0  0  0  0  0  0  0  0  0  0  0
  150.1717  134.9380  154.5101 C   0  0  0  0  0  0  0  0  0  0  0  0
  149.7633  136.3950  154.6113 C   0  0  0  0  0  0  0  0  0  0  0  0
  150.6510  137.1340  155.4337 O   0  0  0  0  0  0  0  0  0  0  0  0
  151.3567  138.1393  154.7237 C   0  0  0  0  0  0  0  0  0  0  0  0
  152.0931  139.0639  155.7066 C   0  0  1  0  0  0  0  0  0  0  0  0
  152.9440  139.9318  154.9852 O   0  0  0  0  0  0  0  0  0  0  0  0
  151.1519  139.8488  156.6442 C   0  0  0  0  0  0  0  0  0  0  0  0
  151.8340  140.3501  157.8465 N   0  0  0  0  0  0  0  0  0  0  0  0
  152.5913  139.6928  158.7708 C   0  0  0  0  0  0  0  0  0  0  0  0
  152.9262  138.2389  158.7786 C   0  0  0  0  0  0  0  0  0  0  0  0
  152.9900  140.6133  159.6939 N   0  3  0  0  0  0  0  0  0  0  0  0
  152.4874  141.8707  159.3546 C   0  0  0  0  0  0  0  0  0  0  0  0
  152.6210  143.1063  159.9807 C   0  0  0  0  0  0  0  0  0  0  0  0
  151.9772  144.2001  159.3655 C   0  0  0  0  0  0  0  0  0  0  0  0
  151.2374  144.0428  158.1751 C   0  0  0  0  0  0  0  0  0  0  0  0
  151.1083  142.7850  157.5498 C   0  0  0  0  0  0  0  0  0  0  0  0
  151.7466  141.7091  158.1658 C   0  0  0  0  0  0  0  0  0  0  0  0
  149.6384  134.1200  153.4934 C   0  0  0  0  0  0  0  0  0  0  0  0
  150.0270  132.7702  153.3885 C   0  0  0  0  0  0  0  0  0  0  0  0
  151.3099  129.0648  153.3705 H   0  0  0  0  0  0  0  0  0  0  0  0
  151.1204  130.4193  152.2637 H   0  0  0  0  0  0  0  0  0  0  0  0
  149.7909  129.9527  153.3519 H   0  0  0  0  0  0  0  0  0  0  0  0
  152.2154  132.6463  156.0065 H   0  0  0  0  0  0  0  0  0  0  0  0
  151.5352  135.0156  156.1902 H   0  0  0  0  0  0  0  0  0  0  0  0
  149.7337  136.8369  153.6140 H   0  0  0  0  0  0  0  0  0  0  0  0
  148.7522  136.4408  155.0187 H   0  0  0  0  0  0  0  0  0  0  0  0
  152.0866  137.6602  154.0692 H   0  0  0  0  0  0  0  0  0  0  0  0
  150.6817  138.7131  154.0863 H   0  0  0  0  0  0  0  0  0  0  0  0
  152.7509  138.4398  156.3120 H   0  0  0  0  0  0  0  0  0  0  0  0
  152.4103  140.4879  154.4388 H   0  0  0  0  0  0  0  0  0  0  0  0
  150.7264  140.7099  156.1277 H   0  0  0  0  0  0  0  0  0  0  0  0
  150.3081  139.2317  156.9558 H   0  0  0  0  0  0  0  0  0  0  0  0
  153.4267  137.9654  159.7078 H   0  0  0  0  0  0  0  0  0  0  0  0
  153.5872  138.0022  157.9448 H   0  0  0  0  0  0  0  0  0  0  0  0
  152.0196  137.6406  158.6846 H   0  0  0  0  0  0  0  0  0  0  0  0
  153.1876  143.2300  160.8921 H   0  0  0  0  0  0  0  0  0  0  0  0
  152.0526  145.1796  159.8153 H   0  0  0  0  0  0  0  0  0  0  0  0
  150.7587  144.9043  157.7326 H   0  0  0  0  0  0  0  0  0  0  0  0
  150.5395  142.6742  156.6384 H   0  0  0  0  0  0  0  0  0  0  0  0
  148.9278  134.5257  152.7881 H   0  0  0  0  0  0  0  0  0  0  0  0
  149.5924  132.1779  152.5977 H   0  0  0  0  0  0  0  0  0  0  0  0
  153.5660  140.3944  160.4966 H   0  0  0  0  0  0  0  0  0  0  0  0
  1  2  1  0  0  0  0
  1 25  1  0  0  0  0
  1 26  1  0  0  0  0
  1 27  1  0  0  0  0
  2  3  1  0  0  0  0
  3 24  1  0  0  0  0
  3  4  2  0  0  0  0
  4  5  1  0  0  0  0
  4 28  1  0  0  0  0
  5  6  2  0  0  0  0
  5 29  1  0  0  0  0
  6  7  1  0  0  0  0
  6 23  1  0  0  0  0
  7  8  1  0  0  0  0
  7 30  1  0  0  0  0
  7 31  1  0  0  0  0
  8  9  1  0  0  0  0
  9 10  1  0  0  0  0
  9 32  1  0  0  0  0
  9 33  1  0  0  0  0
 10 11  1  0  0  0  0
 10 12  1  0  0  0  0
 10 34  1  0  0  0  0
 11 35  1  0  0  0  0
 12 13  1  0  0  0  0
 12 36  1  0  0  0  0
 12 37  1  0  0  0  0
 13 22  1  0  0  0  0
 13 14  1  0  0  0  0
 14 15  1  0  0  0  0
 14 16  2  0  0  0  0
 15 38  1  0  0  0  0
 15 39  1  0  0  0  0
 15 40  1  0  0  0  0
 16 17  1  0  0  0  0
 16 47  1  0  0  0  0
 17 22  2  0  0  0  0
 17 18  1  0  0  0  0
 18 19  2  0  0  0  0
 18 41  1  0  0  0  0
 19 20  1  0  0  0  0
 19 42  1  0  0  0  0
 20 21  2  0  0  0  0
 20 43  1  0  0  0  0
 21 22  1  0  0  0  0
 21 44  1  0  0  0  0
 23 24  2  0  0  0  0
 23 45  1  0  0  0  0
 24 46  1  0  0  0  0
M  CHG  1  16   1
M  END
> <s_m_source_file>
AV-unprocessed.smi

> <i_m_source_file_index>
492

> <i_lp_mmshare_version>
43012

> <i_f3d_flags>
0

> <s_epik_input>
W0NIM11PYzFbY0hdW2NIXWMoW2NIXVtjSF0xKVtDSDJdT1tDSDJdW0NASF0oW09IXSlbQ0gyXW4oYyhuMilbQ0gzXSljKGMyMylbY0hdW2NIXVtjSF1bY0hdMw==

> <s_epik_cmdline>
J2VwaWtfcHl0aG9uJywgJy1waCcsICc3LjAnLCAnLXRuJywgJzgnLCAnLW1hJywgJzIwMCcsICctbWV0YWxfYmluZGluZycsICctaW1hZScsICc8aW5maWxlLm1hZT4nLCAnLW9tYWUnLCAnPG91dGZpbGUubWFlPic=

> <r_lp_tautomer_probability>
1

> <r_epik_Ionization_Penalty>
0.952

> <r_epik_Ionization_Penalty_Charging>
0.951999

> <r_epik_Ionization_Penalty_Neutral>
9.7482e-07

> <r_epik_State_Penalty>
0.996343

> <r_epik_Charging_Adjusted_Penalty>
1.94834

> <i_epik_Tot_Q>
1

> <i_epik_Tot_abs_Q>
1

> <r_epik_Metal_State_Penalty>
4.96724

> <b_epik_Metal_Only>
0

> <s_lp_Force_Field>
OPLS_2005

> <r_lp_Energy>
22.9053

> <b_lp_Chiralities_Consistent>
1

> <s_lp_Variant>
AV-unprocessed.smi:492-4

> <Gold.Version>
5.8.1

> <Gold.Id.Protein>
6NUR|6NUR_protein|mol2

> <Gold.PLP.Fitness>
51.9753

> <Gold.PLP.PLP>
-50.0731

> <Gold.PLP.part.hbond>
-2.0000

> <Gold.PLP.part.metal>
0.0000

> <Gold.PLP.part.buried>
-5.5855

> <Gold.PLP.part.nonpolar>
-42.3621

> <Gold.PLP.part.repulsive>
0.1793

> <Gold.PLP.ligand.clash>
0.0000

> <Gold.PLP.ligand.torsion>
0.8130

> <Gold.PLP.Chemscore.Hbond>
1.0000

> <Gold.PLP.Chemscore.CHOScore>
0.0000

> <Gold.PLP.Chemscore.Metal>
0.0000

> <Gold.Chemscore.Hbonds>
donor molecule, donor type, donor heavy atom, donor atom, acceptor molecule, acceptor atom, score
      P1  H  7997  8009       L1    11  1.00

> <Gold.PLP.Chemscore.Internal.Correction>
0.5282

> <Gold.Rescore>
     Score         DG    S(hbond)    S(metal)    S(lipo)     H(rot)  DE(clash)    DE(int)     intcor
     17.03     -17.98       0.91        0.00     135.66       2.50       0.05       0.90       ----

> <Gold.Chemscore.Fitness>
17.0306

> <Gold.Chemscore.DG>
-17.9841

> <Gold.Chemscore.ZeroCoef>
-5.4800

> <Gold.Chemscore.Hbond>
0.9108

> <Gold.Chemscore.Metal>
0.0000

> <Gold.Chemscore.Lipo>
135.6564

> <Gold.Chemscore.Internal_Hbond>
0.0000

> <Gold.Chemscore.DEClash>
0.0494

> <Gold.Chemscore.DEInternal>
0.9040

> <Gold.Chemscore.Rot>
2.5038

> <Gold.Chemscore.Internal.Correction>
   9.000000E+99

> <Gold.Chemscore.Hbonds>
donor molecule, donor type, donor heavy atom, donor atom, acceptor molecule, acceptor atom, score
      P1  H  7997  8009       L1    11  0.92

> <Gold.Chemscore.Hbond.Weighted>
-3.0420

> <Gold.Chemscore.Metal.Weighted>
-0.0000

> <Gold.Chemscore.Lipo.Weighted>
-15.8718

> <Gold.Chemscore.Internal_Hbond.Weighted>
0.0000

> <Gold.Chemscore.DEClash.Weighted>
0.0494

> <Gold.Chemscore.DEInternal.Weighted>
0.9040

> <Gold.Chemscore.Rot.Weighted>
6.4098

> <Gold.Chemscore.Internal.Correction.Weighted>
   9.000000E+99

> <Gold.Protein.RotatedTorsions>
[ 6907 6896 6895 6894 ] final  -87.79 input  -60.11 | X-H torsion
[ 7974 7965 7964 7962 ] final  -23.90 input  175.53 | X-H torsion
[ 8008 7997 7996 7995 ] final -122.99 input   59.86 | X-H torsion
[ 10167 10162 10161 10158 ] final   41.90 input  -65.29 | X-H torsion
[ 10718 10713 10712 10709 ] final  -49.39 input   66.30 | X-H torsion
[ 10763 10752 10751 10750 ] final  -82.37 input  -60.55 | X-H torsion
[ 11005 11000 10999 10996 ] final  -11.46 input  -57.11 | X-H torsion

> <Gold.Protein.ActiveResidues>
 VAL166  LYS551  ARG553  GLY616  TRP617  ASP618  TYR619  PRO620  LYS621  CYS622 
 ASP623  PHE694  ASN695  SER759  ASP760  ASP761  ALA762  ILE779  LEU786  VAL792 
 PHE793  MET794  SER795  GLU796  ALA797  LYS798  CYS799  TRP800  GLU811  SER814 

> <Gold.Protein.RotatedAtoms>
  150.6867  134.2842  159.4639 H   0  0  0  0  0  0  0  0  0  0  0  0  # atno 6907 bound_to 6896
  152.0753  134.9504  160.0583 H   0  0  0  0  0  0  0  0  0  0  0  0  # atno 6908 bound_to 6896
  152.0878  133.4150  159.4567 H   0  0  0  0  0  0  0  0  0  0  0  0  # atno 6909 bound_to 6896
  146.1588  140.4679  142.8580 H   0  0  0  0  0  0  0  0  0  0  0  0  # atno 7974 bound_to 7965
  155.1732  140.0408  157.2867 H   0  0  0  0  0  0  0  0  0  0  0  0  # atno 8008 bound_to 7997
  154.6255  140.2511  155.7470 H   0  0  0  0  0  0  0  0  0  0  0  0  # atno 8009 bound_to 7997
  156.2457  140.2886  156.0582 H   0  0  0  0  0  0  0  0  0  0  0  0  # atno 8010 bound_to 7997
  140.3597  144.2244  150.6139 H   0  0  0  0  0  0  0  0  0  0  0  0  # atno 10167 bound_to 10162
  156.1898  130.4152  149.9388 H   0  0  0  0  0  0  0  0  0  0  0  0  # atno 10718 bound_to 10713
  154.5750  135.5593  153.7130 H   0  0  0  0  0  0  0  0  0  0  0  0  # atno 10763 bound_to 10752
  153.0061  135.6306  154.2062 H   0  0  0  0  0  0  0  0  0  0  0  0  # atno 10764 bound_to 10752
  154.2002  135.2878  155.2973 H   0  0  0  0  0  0  0  0  0  0  0  0  # atno 10765 bound_to 10752
  140.7555  133.8557  155.9080 H   0  0  0  0  0  0  0  0  0  0  0  0  # atno 11005 bound_to 11000
  144.7998  140.6192  143.6485 LP  0  0  0  0  0  0  0  0  0  0  0  0  # atno 17320 bound_to 7965
  145.4641  139.1510  143.3850 LP  0  0  0  0  0  0  0  0  0  0  0  0  # atno 17321 bound_to 7965
  140.5139  143.2283  151.8493 LP  0  0  0  0  0  0  0  0  0  0  0  0  # atno 17342 bound_to 10162
  139.4815  144.4917  151.9176 LP  0  0  0  0  0  0  0  0  0  0  0  0  # atno 17343 bound_to 10162
  156.7132  130.8978  151.3611 LP  0  0  0  0  0  0  0  0  0  0  0  0  # atno 17370 bound_to 10713
  157.6922  130.9245  150.0544 LP  0  0  0  0  0  0  0  0  0  0  0  0  # atno 17371 bound_to 10713
  140.9711  134.1529  157.4575 LP  0  0  0  0  0  0  0  0  0  0  0  0  # atno 17394 bound_to 11000
  139.8780  134.9979  156.5870 LP  0  0  0  0  0  0  0  0  0  0  0  0  # atno 17395 bound_to 11000

$$$$
