AV-unprocessed.smi:274|AV-procd|sdf|2058|dock8
  -GOLD-   2262021303D 1   1.00000     0.00000
 Structure written by MMmdl.
 50 53  0  0  0  0  0  0  0  0  1 V2000
  149.9174  141.7890  156.5895 C   0  0  0  0  0  0  0  0  0  0  0  0
  149.6851  140.3122  156.9672 C   0  0  0  0  0  0  0  0  0  0  0  0
  151.0206  139.7043  157.4397 C   0  0  0  0  0  0  0  0  0  0  0  0
  149.0163  139.4809  155.8258 C   0  0  2  0  0  0  0  0  0  0  0  0
  149.6791  139.7322  154.4501 C   0  0  0  0  0  0  0  0  0  0  0  0
  150.7271  139.1577  154.1619 O   0  0  0  0  0  0  0  0  0  0  0  0
  149.0776  140.5567  153.5736 N   0  0  0  0  0  0  0  0  0  0  0  0
  147.8024  141.2478  153.7681 C   0  0  0  0  0  0  0  0  0  0  0  0
  147.2043  141.0614  155.1771 C   0  0  0  0  0  0  0  0  0  0  0  0
  147.5735  139.7653  155.7504 N   0  0  0  0  0  0  0  0  0  0  0  0
  146.7568  138.7000  155.5167 C   0  0  0  0  0  0  0  0  0  0  0  0
  146.3161  137.9438  156.5583 N   0  0  0  0  0  0  0  0  0  0  0  0
  145.5046  136.9037  156.3488 C   0  0  0  0  0  0  0  0  0  0  0  0
  145.0194  136.4446  155.1949 N   0  0  0  0  0  0  0  0  0  0  0  0
  145.4644  137.1878  154.1422 C   0  0  0  0  0  0  0  0  0  0  0  0
  146.3258  138.3200  154.2125 C   0  0  0  0  0  0  0  0  0  0  0  0
  146.5640  138.8070  152.9327 N   0  0  0  0  0  0  0  0  0  0  0  0
  145.8759  138.0180  152.1542 C   0  0  0  0  0  0  0  0  0  0  0  0
  145.1893  137.0135  152.7970 N   0  0  0  0  0  0  0  0  0  0  0  0
  144.3513  135.9983  152.1777 C   0  0  0  0  0  0  0  0  0  0  0  0
  145.1028  135.1292  151.1430 C   0  0  1  0  0  0  0  0  0  0  0  0
  145.4467  135.9348  150.0286 O   0  0  0  0  0  0  0  0  0  0  0  0
  146.3729  134.4761  151.6807 C   0  0  0  0  0  0  0  0  0  0  0  0
  146.4426  133.1730  150.8974 C   0  0  0  0  0  0  0  0  0  0  0  0
  145.0843  132.7718  150.8440 O   0  0  0  0  0  0  0  0  0  0  0  0
  144.2776  133.9277  150.6401 C   0  0  0  0  0  0  0  0  0  0  0  0
  150.5166  141.8758  155.6824 H   0  0  0  0  0  0  0  0  0  0  0  0
  150.4440  142.3183  157.3841 H   0  0  0  0  0  0  0  0  0  0  0  0
  148.9824  142.3240  156.4276 H   0  0  0  0  0  0  0  0  0  0  0  0
  149.0172  140.3157  157.8293 H   0  0  0  0  0  0  0  0  0  0  0  0
  151.7550  139.6920  156.6348 H   0  0  0  0  0  0  0  0  0  0  0  0
  150.9034  138.6837  157.8034 H   0  0  0  0  0  0  0  0  0  0  0  0
  151.4447  140.2842  158.2597 H   0  0  0  0  0  0  0  0  0  0  0  0
  149.1824  138.4265  156.0480 H   0  0  0  0  0  0  0  0  0  0  0  0
  149.5327  140.6971  152.6834 H   0  0  0  0  0  0  0  0  0  0  0  0
  147.9192  142.3077  153.5410 H   0  0  0  0  0  0  0  0  0  0  0  0
  147.1106  140.8492  153.0258 H   0  0  0  0  0  0  0  0  0  0  0  0
  147.5870  141.8412  155.8347 H   0  0  0  0  0  0  0  0  0  0  0  0
  146.1233  141.2094  155.1654 H   0  0  0  0  0  0  0  0  0  0  0  0
  145.1999  136.3629  157.2326 H   0  0  0  0  0  0  0  0  0  0  0  0
  145.8552  138.1433  151.0814 H   0  0  0  0  0  0  0  0  0  0  0  0
  143.9402  135.3682  152.9674 H   0  0  0  0  0  0  0  0  0  0  0  0
  143.4999  136.4945  151.7097 H   0  0  0  0  0  0  0  0  0  0  0  0
  145.6781  135.3674  149.3090 H   0  0  0  0  0  0  0  0  0  0  0  0
  147.2665  135.0927  151.5756 H   0  0  0  0  0  0  0  0  0  0  0  0
  146.2565  134.2384  152.7385 H   0  0  0  0  0  0  0  0  0  0  0  0
  146.8195  133.3401  149.8873 H   0  0  0  0  0  0  0  0  0  0  0  0
  147.0661  132.4212  151.3819 H   0  0  0  0  0  0  0  0  0  0  0  0
  143.3425  133.8081  151.1883 H   0  0  0  0  0  0  0  0  0  0  0  0
  144.0250  134.0154  149.5821 H   0  0  0  0  0  0  0  0  0  0  0  0
  1  2  1  0  0  0  0
  1 27  1  0  0  0  0
  1 28  1  0  0  0  0
  1 29  1  0  0  0  0
  2  3  1  0  0  0  0
  2  4  1  0  0  0  0
  2 30  1  0  0  0  0
  3 31  1  0  0  0  0
  3 32  1  0  0  0  0
  3 33  1  0  0  0  0
  4 10  1  0  0  0  0
  4  5  1  0  0  0  0
  4 34  1  0  0  0  0
  5  6  2  0  0  0  0
  5  7  1  0  0  0  0
  7  8  1  0  0  0  0
  7 35  1  0  0  0  0
  8  9  1  0  0  0  0
  8 36  1  0  0  0  0
  8 37  1  0  0  0  0
  9 10  1  0  0  0  0
  9 38  1  0  0  0  0
  9 39  1  0  0  0  0
 10 11  1  0  0  0  0
 11 16  1  0  0  0  0
 11 12  2  0  0  0  0
 12 13  1  0  0  0  0
 13 14  2  0  0  0  0
 13 40  1  0  0  0  0
 14 15  1  0  0  0  0
 15 19  1  0  0  0  0
 15 16  2  0  0  0  0
 16 17  1  0  0  0  0
 17 18  2  0  0  0  0
 18 19  1  0  0  0  0
 18 41  1  0  0  0  0
 19 20  1  0  0  0  0
 20 21  1  0  0  0  0
 20 42  1  0  0  0  0
 20 43  1  0  0  0  0
 21 26  1  0  0  0  0
 21 22  1  0  0  0  0
 21 23  1  0  0  0  0
 22 44  1  0  0  0  0
 23 24  1  0  0  0  0
 23 45  1  0  0  0  0
 23 46  1  0  0  0  0
 24 25  1  0  0  0  0
 24 47  1  0  0  0  0
 24 48  1  0  0  0  0
 25 26  1  0  0  0  0
 26 49  1  0  0  0  0
 26 50  1  0  0  0  0
M  END
> <s_m_source_file>
AV-unprocessed.smi

> <i_m_source_file_index>
274

> <i_lp_mmshare_version>
43012

> <i_f3d_flags>
0

> <s_epik_input>
W0NIM11bQ0hdKFtDSDNdKVtDQEBIXTFDKD1PKVtOSF1bQ0gyXVtDSDJdTjFjKG5bY0hdbjIpYyhjMjMpbltjSF1uM1tDSDJdW0NAQF00KFtPSF0pW0NIMl1bQ0gyXU9bQ0gyXTQ=

> <s_epik_cmdline>
J2VwaWtfcHl0aG9uJywgJy1waCcsICc3LjAnLCAnLXRuJywgJzgnLCAnLW1hJywgJzIwMCcsICctbWV0YWxfYmluZGluZycsICctaW1hZScsICc8aW5maWxlLm1hZT4nLCAnLW9tYWUnLCAnPG91dGZpbGUubWFlPic=

> <r_lp_tautomer_probability>
1

> <r_epik_Ionization_Penalty>
0.000690079

> <r_epik_Ionization_Penalty_Charging>
0

> <r_epik_Ionization_Penalty_Neutral>
0.000690079

> <r_epik_State_Penalty>
0.000321372

> <r_epik_Charging_Adjusted_Penalty>
0.000321372

> <i_epik_Tot_Q>
0

> <i_epik_Tot_abs_Q>
0

> <r_epik_Metal_State_Penalty>
-0

> <b_epik_Metal_Only>
0

> <s_lp_Force_Field>
OPLS_2005

> <r_lp_Energy>
40.3696

> <b_lp_Chiralities_Consistent>
1

> <s_lp_Variant>
AV-unprocessed.smi:274-1

> <Gold.Version>
5.8.1

> <Gold.Id.Protein>
6NUR|6NUR_protein|mol2

> <Gold.PLP.Fitness>
38.0970

> <Gold.PLP.PLP>
-30.2956

> <Gold.PLP.part.hbond>
-3.9882

> <Gold.PLP.part.metal>
0.0000

> <Gold.PLP.part.buried>
-3.9155

> <Gold.PLP.part.nonpolar>
-24.0557

> <Gold.PLP.part.repulsive>
0.7745

> <Gold.PLP.ligand.clash>
0.0000

> <Gold.PLP.ligand.torsion>
1.5503

> <Gold.PLP.Chemscore.Hbond>
2.6160

> <Gold.PLP.Chemscore.CHOScore>
0.9184

> <Gold.PLP.Chemscore.Metal>
0.0000

> <Gold.Chemscore.Hbonds>
donor molecule, donor type, donor heavy atom, donor atom, acceptor molecule, acceptor atom, score
      L1  H     7    35       P1  7957  0.83
      L1  H    22    44       P1  7921  1.00
      P1  H  7989  7998       L1     6  0.69
      L1  C    18    41       P1 10171  0.90

> <Gold.PLP.Chemscore.Internal.Correction>
0.2990

> <Gold.Rescore>
     Score         DG    S(hbond)    S(metal)    S(lipo)     H(rot)  DE(clash)    DE(int)     intcor
     10.76     -14.06       2.28        0.00      55.22       2.14       0.42       2.87       ----

> <Gold.Chemscore.Fitness>
10.7594

> <Gold.Chemscore.DG>
-14.0562

> <Gold.Chemscore.ZeroCoef>
-5.4800

> <Gold.Chemscore.Hbond>
2.2759

> <Gold.Chemscore.Metal>
0.0000

> <Gold.Chemscore.Lipo>
55.2217

> <Gold.Chemscore.Internal_Hbond>
0.0000

> <Gold.Chemscore.DEClash>
0.4226

> <Gold.Chemscore.DEInternal>
2.8741

> <Gold.Chemscore.Rot>
2.1431

> <Gold.Chemscore.Internal.Correction>
   9.000000E+99

> <Gold.Chemscore.Hbonds>
donor molecule, donor type, donor heavy atom, donor atom, acceptor molecule, acceptor atom, score
      L1  H     7    35       P1  7957  0.83
      L1  H    22    44       P1  7921  0.99
      P1  H  7989  7998       L1     6  0.07

> <Gold.Chemscore.Hbond.Weighted>
-7.6015

> <Gold.Chemscore.Metal.Weighted>
-0.0000

> <Gold.Chemscore.Lipo.Weighted>
-6.4609

> <Gold.Chemscore.Internal_Hbond.Weighted>
0.0000

> <Gold.Chemscore.DEClash.Weighted>
0.4226

> <Gold.Chemscore.DEInternal.Weighted>
2.8741

> <Gold.Chemscore.Rot.Weighted>
5.4863

> <Gold.Chemscore.Internal.Correction.Weighted>
   9.000000E+99

> <Gold.Protein.RotatedTorsions>
[ 6907 6896 6895 6894 ] final  -57.52 input  -60.11 | X-H torsion
[ 7974 7965 7964 7962 ] final  -84.69 input  175.53 | X-H torsion
[ 8008 7997 7996 7995 ] final  139.28 input   59.86 | X-H torsion
[ 10167 10162 10161 10158 ] final  -67.32 input  -65.29 | X-H torsion
[ 10718 10713 10712 10709 ] final  -78.17 input   66.30 | X-H torsion
[ 10763 10752 10751 10750 ] final   -1.09 input  -60.55 | X-H torsion
[ 11005 11000 10999 10996 ] final  -40.49 input  -57.11 | X-H torsion

> <Gold.Protein.ActiveResidues>
 VAL166  LYS551  ARG553  GLY616  TRP617  ASP618  TYR619  PRO620  LYS621  CYS622 
 ASP623  PHE694  ASN695  SER759  ASP760  ASP761  ALA762  ILE779  LEU786  VAL792 
 PHE793  MET794  SER795  GLU796  ALA797  LYS798  CYS799  TRP800  GLU811  SER814 

> <Gold.Protein.RotatedAtoms>
  150.8080  134.7217  159.6661 H   0  0  0  0  0  0  0  0  0  0  0  0  # atno 6907 bound_to 6896
  152.4200  134.5970  159.9999 H   0  0  0  0  0  0  0  0  0  0  0  0  # atno 6908 bound_to 6896
  151.6188  133.3304  159.3119 H   0  0  0  0  0  0  0  0  0  0  0  0  # atno 6909 bound_to 6896
  145.5033  140.9545  143.1748 H   0  0  0  0  0  0  0  0  0  0  0  0  # atno 7974 bound_to 7965
  156.2991  140.2371  156.4212 H   0  0  0  0  0  0  0  0  0  0  0  0  # atno 8008 bound_to 7997
  154.8353  140.0431  157.1525 H   0  0  0  0  0  0  0  0  0  0  0  0  # atno 8009 bound_to 7997
  154.9162  140.2997  155.5244 H   0  0  0  0  0  0  0  0  0  0  0  0  # atno 8010 bound_to 7997
  140.5591  143.2312  151.6762 H   0  0  0  0  0  0  0  0  0  0  0  0  # atno 10167 bound_to 10162
  156.0125  130.4511  150.3455 H   0  0  0  0  0  0  0  0  0  0  0  0  # atno 10718 bound_to 10713
  153.3404  135.6980  153.6872 H   0  0  0  0  0  0  0  0  0  0  0  0  # atno 10763 bound_to 10752
  153.5639  135.3529  155.2811 H   0  0  0  0  0  0  0  0  0  0  0  0  # atno 10764 bound_to 10752
  154.8635  135.4256  154.2615 H   0  0  0  0  0  0  0  0  0  0  0  0  # atno 10765 bound_to 10752
  141.0179  133.6877  156.2329 H   0  0  0  0  0  0  0  0  0  0  0  0  # atno 11005 bound_to 11000
  144.7768  139.6613  143.7171 LP  0  0  0  0  0  0  0  0  0  0  0  0  # atno 17320 bound_to 7965
  146.2212  139.5640  142.9617 LP  0  0  0  0  0  0  0  0  0  0  0  0  # atno 17321 bound_to 7965
  139.5062  144.3691  152.0488 LP  0  0  0  0  0  0  0  0  0  0  0  0  # atno 17342 bound_to 10162
  140.2815  144.3854  150.6117 LP  0  0  0  0  0  0  0  0  0  0  0  0  # atno 17343 bound_to 10162
  157.1549  131.0330  151.2868 LP  0  0  0  0  0  0  0  0  0  0  0  0  # atno 17370 bound_to 10713
  157.4360  130.7517  149.7030 LP  0  0  0  0  0  0  0  0  0  0  0  0  # atno 17371 bound_to 10713
  140.6624  134.4954  157.5584 LP  0  0  0  0  0  0  0  0  0  0  0  0  # atno 17394 bound_to 11000
  139.9128  134.8309  156.1469 LP  0  0  0  0  0  0  0  0  0  0  0  0  # atno 17395 bound_to 11000

$$$$
