AV-unprocessed.smi:2413|AV-procd|sdf|9534|dock9
  -GOLD-   2272013163D 1   1.00000     0.00000
 Structure written by MMmdl.
 45 46  0  0  0  0  0  0  0  0  1 V2000
  155.8402  139.6619  164.5157 C   0  0  0  0  0  0  0  0  0  0  0  0
  155.3978  139.3930  163.0805 C   0  0  0  0  0  0  0  0  0  0  0  0
  154.9988  138.2729  162.7642 O   0  0  0  0  0  0  0  0  0  0  0  0
  155.4748  140.4236  162.2246 N   0  0  0  0  0  0  0  0  0  0  0  0
  155.1176  140.3747  160.8103 C   0  0  0  0  0  0  0  0  0  0  0  0
  153.7060  140.9324  160.5615 C   0  0  2  0  0  0  0  0  0  0  0  0
  153.2666  140.7428  159.0960 C   0  0  0  0  0  0  0  0  0  0  0  0
  151.9573  141.3471  158.8840 N   0  0  0  0  0  0  0  0  0  0  0  0
  151.4221  141.1240  157.6090 C   0  0  0  0  0  0  0  0  0  0  0  0
  150.5801  142.0601  156.9687 C   0  0  0  0  0  0  0  0  0  0  0  0
  150.1135  141.7054  155.6888 C   0  0  0  0  0  0  0  0  0  0  0  0
  150.4496  140.5335  155.1096 N   0  0  0  0  0  0  0  0  0  0  0  0
  151.2211  139.6928  155.8120 C   0  0  0  0  0  0  0  0  0  0  0  0
  151.7241  138.4302  155.0912 C   0  0  0  0  0  0  0  0  0  0  0  0
  153.2120  138.5727  154.6927 C   0  0  0  0  0  0  0  0  0  0  0  0
  150.8738  138.1878  153.8307 C   0  0  0  0  0  0  0  0  0  0  0  0
  151.6452  137.1927  156.0158 C   0  0  0  0  0  0  0  0  0  0  0  0
  151.7452  139.9544  157.0172 N   0  0  0  0  0  0  0  0  0  0  0  0
  151.9158  142.7494  159.2745 C   0  0  0  0  0  0  0  0  0  0  0  0
  152.4016  142.9048  160.7245 C   0  0  0  0  0  0  0  0  0  0  0  0
  153.6978  142.3290  160.8553 O   0  0  0  0  0  0  0  0  0  0  0  0
  156.1296  140.7037  164.6596 H   0  0  0  0  0  0  0  0  0  0  0  0
  156.6935  139.0326  164.7695 H   0  0  0  0  0  0  0  0  0  0  0  0
  155.0295  139.4350  165.2083 H   0  0  0  0  0  0  0  0  0  0  0  0
  155.8161  141.3059  162.5775 H   0  0  0  0  0  0  0  0  0  0  0  0
  155.8536  140.9014  160.2004 H   0  0  0  0  0  0  0  0  0  0  0  0
  155.1557  139.3296  160.5021 H   0  0  0  0  0  0  0  0  0  0  0  0
  153.0019  140.4196  161.2201 H   0  0  0  0  0  0  0  0  0  0  0  0
  153.9995  141.1972  158.4283 H   0  0  0  0  0  0  0  0  0  0  0  0
  153.2214  139.6806  158.8517 H   0  0  0  0  0  0  0  0  0  0  0  0
  150.3052  142.9985  157.4271 H   0  0  0  0  0  0  0  0  0  0  0  0
  149.4718  142.3665  155.1251 H   0  0  0  0  0  0  0  0  0  0  0  0
  153.5877  137.6609  154.2270 H   0  0  0  0  0  0  0  0  0  0  0  0
  153.8381  138.7786  155.5618 H   0  0  0  0  0  0  0  0  0  0  0  0
  153.3675  139.3787  153.9745 H   0  0  0  0  0  0  0  0  0  0  0  0
  150.9348  139.0326  153.1437 H   0  0  0  0  0  0  0  0  0  0  0  0
  149.8224  138.0460  154.0839 H   0  0  0  0  0  0  0  0  0  0  0  0
  151.2051  137.3001  153.2911 H   0  0  0  0  0  0  0  0  0  0  0  0
  152.0456  136.3047  155.5254 H   0  0  0  0  0  0  0  0  0  0  0  0
  150.6184  136.9585  156.2988 H   0  0  0  0  0  0  0  0  0  0  0  0
  152.2150  137.3452  156.9332 H   0  0  0  0  0  0  0  0  0  0  0  0
  152.5481  143.3359  158.6063 H   0  0  0  0  0  0  0  0  0  0  0  0
  150.8989  143.1318  159.1770 H   0  0  0  0  0  0  0  0  0  0  0  0
  152.4522  143.9598  160.9938 H   0  0  0  0  0  0  0  0  0  0  0  0
  151.7084  142.4304  161.4213 H   0  0  0  0  0  0  0  0  0  0  0  0
  1  2  1  0  0  0  0
  1 22  1  0  0  0  0
  1 23  1  0  0  0  0
  1 24  1  0  0  0  0
  2  3  2  0  0  0  0
  2  4  1  0  0  0  0
  4  5  1  0  0  0  0
  4 25  1  0  0  0  0
  5  6  1  0  0  0  0
  5 26  1  0  0  0  0
  5 27  1  0  0  0  0
  6 21  1  0  0  0  0
  6  7  1  0  0  0  0
  6 28  1  0  0  0  0
  7  8  1  0  0  0  0
  7 29  1  0  0  0  0
  7 30  1  0  0  0  0
  8  9  1  0  0  0  0
  8 19  1  0  0  0  0
  9 18  1  0  0  0  0
  9 10  2  0  0  0  0
 10 11  1  0  0  0  0
 10 31  1  0  0  0  0
 11 12  2  0  0  0  0
 11 32  1  0  0  0  0
 12 13  1  0  0  0  0
 13 14  1  0  0  0  0
 13 18  2  0  0  0  0
 14 15  1  0  0  0  0
 14 16  1  0  0  0  0
 14 17  1  0  0  0  0
 15 33  1  0  0  0  0
 15 34  1  0  0  0  0
 15 35  1  0  0  0  0
 16 36  1  0  0  0  0
 16 37  1  0  0  0  0
 16 38  1  0  0  0  0
 17 39  1  0  0  0  0
 17 40  1  0  0  0  0
 17 41  1  0  0  0  0
 19 20  1  0  0  0  0
 19 42  1  0  0  0  0
 19 43  1  0  0  0  0
 20 21  1  0  0  0  0
 20 44  1  0  0  0  0
 20 45  1  0  0  0  0
M  END
> <s_m_source_file>
AV-unprocessed.smi

> <i_m_source_file_index>
2413

> <i_lp_mmshare_version>
43012

> <i_f3d_flags>
0

> <s_epik_input>
W0NIM11DKD1PKVtOSF1bQ0gyXVtDQEBIXTFbQ0gyXU4oW0NIMl1bQ0gyXU8xKWMyW2NIXVtjSF1uYyhuMilDKFtDSDNdKShbQ0gzXSlbQ0gzXQ==

> <s_epik_cmdline>
J2VwaWtfcHl0aG9uJywgJy1waCcsICc3LjAnLCAnLXRuJywgJzgnLCAnLW1hJywgJzIwMCcsICctbWV0YWxfYmluZGluZycsICctaW1hZScsICc8aW5maWxlLm1hZT4nLCAnLW9tYWUnLCAnPG91dGZpbGUubWFlPic=

> <r_lp_tautomer_probability>
1

> <r_epik_Ionization_Penalty>
0.0132021

> <r_epik_Ionization_Penalty_Charging>
0

> <r_epik_Ionization_Penalty_Neutral>
0.0132021

> <r_epik_State_Penalty>
0.0102452

> <r_epik_Charging_Adjusted_Penalty>
0.0102452

> <i_epik_Tot_Q>
0

> <i_epik_Tot_abs_Q>
0

> <r_epik_Metal_State_Penalty>
0.0100219

> <b_epik_Metal_Only>
0

> <s_lp_Force_Field>
OPLS_2005

> <r_lp_Energy>
13.0347

> <b_lp_Chiralities_Consistent>
1

> <s_lp_Variant>
AV-unprocessed.smi:2413-1

> <Gold.Version>
5.8.1

> <Gold.Id.Protein>
6NUR|6NUR_protein|mol2

> <Gold.PLP.Fitness>
42.3511

> <Gold.PLP.PLP>
-38.7663

> <Gold.PLP.part.hbond>
-2.0000

> <Gold.PLP.part.metal>
0.0000

> <Gold.PLP.part.buried>
-5.1149

> <Gold.PLP.part.nonpolar>
-32.6028

> <Gold.PLP.part.repulsive>
0.0721

> <Gold.PLP.ligand.clash>
0.0000

> <Gold.PLP.ligand.torsion>
1.2375

> <Gold.PLP.Chemscore.Hbond>
0.9760

> <Gold.PLP.Chemscore.CHOScore>
0.9622

> <Gold.PLP.Chemscore.Metal>
0.0000

> <Gold.Chemscore.Hbonds>
donor molecule, donor type, donor heavy atom, donor atom, acceptor molecule, acceptor atom, score
      P1  H  7989  7998       L1    12  0.98
      L1  C    11    32       P1  8028  0.96

> <Gold.PLP.Chemscore.Internal.Correction>
0.2451

> <Gold.Rescore>
     Score         DG    S(hbond)    S(metal)    S(lipo)     H(rot)  DE(clash)    DE(int)     intcor
     11.81     -12.76       0.15        0.00      95.95       1.73       0.27       0.67       ----

> <Gold.Chemscore.Fitness>
11.8149

> <Gold.Chemscore.DG>
-12.7589

> <Gold.Chemscore.ZeroCoef>
-5.4800

> <Gold.Chemscore.Hbond>
0.1467

> <Gold.Chemscore.Metal>
0.0000

> <Gold.Chemscore.Lipo>
95.9473

> <Gold.Chemscore.Internal_Hbond>
0.0000

> <Gold.Chemscore.DEClash>
0.2721

> <Gold.Chemscore.DEInternal>
0.6719

> <Gold.Chemscore.Rot>
1.7332

> <Gold.Chemscore.Internal.Correction>
   9.000000E+99

> <Gold.Chemscore.Hbonds>
donor molecule, donor type, donor heavy atom, donor atom, acceptor molecule, acceptor atom, score
      P1  H  7989  7998       L1    12  0.19

> <Gold.Chemscore.Hbond.Weighted>
-0.4901

> <Gold.Chemscore.Metal.Weighted>
-0.0000

> <Gold.Chemscore.Lipo.Weighted>
-11.2258

> <Gold.Chemscore.Internal_Hbond.Weighted>
0.0000

> <Gold.Chemscore.DEClash.Weighted>
0.2721

> <Gold.Chemscore.DEInternal.Weighted>
0.6719

> <Gold.Chemscore.Rot.Weighted>
4.4370

> <Gold.Chemscore.Internal.Correction.Weighted>
   9.000000E+99

> <Gold.Protein.RotatedTorsions>
[ 6907 6896 6895 6894 ] final -173.99 input  -60.11 | X-H torsion
[ 7974 7965 7964 7962 ] final   11.87 input  175.53 | X-H torsion
[ 8008 7997 7996 7995 ] final  137.68 input   59.86 | X-H torsion
[ 10167 10162 10161 10158 ] final  -81.70 input  -65.29 | X-H torsion
[ 10718 10713 10712 10709 ] final -106.08 input   66.30 | X-H torsion
[ 10763 10752 10751 10750 ] final    1.78 input  -60.55 | X-H torsion
[ 11005 11000 10999 10996 ] final -119.25 input  -57.11 | X-H torsion

> <Gold.Protein.ActiveResidues>
 VAL166  LYS551  ARG553  GLY616  TRP617  ASP618  TYR619  PRO620  LYS621  CYS622 
 ASP623  PHE694  ASN695  SER759  ASP760  ASP761  ALA762  ILE779  LEU786  VAL792 
 PHE793  MET794  SER795  GLU796  ALA797  LYS798  CYS799  TRP800  GLU811  SER814 

> <Gold.Protein.RotatedAtoms>
  151.5651  133.3397  159.2978 H   0  0  0  0  0  0  0  0  0  0  0  0  # atno 6907 bound_to 6896
  150.8400  134.7691  159.6935 H   0  0  0  0  0  0  0  0  0  0  0  0  # atno 6908 bound_to 6896
  152.4469  134.5483  159.9911 H   0  0  0  0  0  0  0  0  0  0  0  0  # atno 6909 bound_to 6896
  146.2363  139.9421  142.8482 H   0  0  0  0  0  0  0  0  0  0  0  0  # atno 7974 bound_to 7965
  156.3001  140.2413  156.3950 H   0  0  0  0  0  0  0  0  0  0  0  0  # atno 8008 bound_to 7997
  154.8579  140.0421  157.1666 H   0  0  0  0  0  0  0  0  0  0  0  0  # atno 8009 bound_to 7997
  154.8928  140.2965  155.5365 H   0  0  0  0  0  0  0  0  0  0  0  0  # atno 8010 bound_to 7997
  140.4388  143.2522  151.8655 H   0  0  0  0  0  0  0  0  0  0  0  0  # atno 10167 bound_to 10162
  156.0374  130.5595  150.7631 H   0  0  0  0  0  0  0  0  0  0  0  0  # atno 10718 bound_to 10713
  153.3038  135.6958  153.7179 H   0  0  0  0  0  0  0  0  0  0  0  0  # atno 10763 bound_to 10752
  153.6083  135.3449  155.2970 H   0  0  0  0  0  0  0  0  0  0  0  0  # atno 10764 bound_to 10752
  154.8557  135.4357  154.2156 H   0  0  0  0  0  0  0  0  0  0  0  0  # atno 10765 bound_to 10752
  141.0229  134.0097  157.3257 H   0  0  0  0  0  0  0  0  0  0  0  0  # atno 11005 bound_to 11000
  145.1942  140.9825  143.4193 LP  0  0  0  0  0  0  0  0  0  0  0  0  # atno 17320 bound_to 7965
  144.9830  139.3764  143.6252 LP  0  0  0  0  0  0  0  0  0  0  0  0  # atno 17321 bound_to 7965
  139.4788  144.5252  151.8745 LP  0  0  0  0  0  0  0  0  0  0  0  0  # atno 17342 bound_to 10162
  140.4342  144.2074  150.5889 LP  0  0  0  0  0  0  0  0  0  0  0  0  # atno 17343 bound_to 10162
  157.5145  131.0927  151.0157 LP  0  0  0  0  0  0  0  0  0  0  0  0  # atno 17370 bound_to 10713
  157.0503  130.5784  149.5369 LP  0  0  0  0  0  0  0  0  0  0  0  0  # atno 17371 bound_to 10713
  139.9157  135.0196  156.7872 LP  0  0  0  0  0  0  0  0  0  0  0  0  # atno 17394 bound_to 11000
  140.6542  133.9704  155.7771 LP  0  0  0  0  0  0  0  0  0  0  0  0  # atno 17395 bound_to 11000

$$$$
