AV-unprocessed.smi:3241|AV-procd|sdf|12390|dock6
  -GOLD-   2272018263D 1   1.00000     0.00000
 Structure written by MMmdl.
 43 44  0  0  0  0  0  0  0  0  1 V2000
  148.1157  133.0559  152.4526 C   0  0  0  0  0  0  0  0  0  0  0  0
  146.8853  132.6649  151.6192 C   0  0  1  0  0  0  0  0  0  0  0  0
  145.9331  131.7372  152.4008 C   0  0  0  0  0  0  0  0  0  0  0  0
  144.7251  131.3198  151.5467 C   0  0  0  0  0  0  0  0  0  0  0  0
  143.9780  132.5451  150.9988 C   0  0  0  0  0  0  0  0  0  0  0  0
  144.9254  133.4716  150.2188 C   0  0  0  0  0  0  0  0  0  0  0  0
  146.1362  133.9018  151.0748 C   0  0  1  0  0  0  0  0  0  0  0  0
  145.7025  134.6889  152.1785 O   0  0  0  0  0  0  0  0  0  0  0  0
  145.1060  135.9273  151.8243 C   0  0  0  0  0  0  0  0  0  0  0  0
  143.9655  136.2136  152.8056 C   0  0  0  0  0  0  0  0  0  0  0  0
  143.4285  137.5527  152.5938 N   0  0  0  0  0  0  0  0  0  0  0  0
  142.3098  137.8829  153.4714 C   0  0  0  0  0  0  0  0  0  0  0  0
  141.4175  136.6597  153.7388 C   0  0  0  0  0  0  0  0  0  0  0  0
  140.1286  137.0268  154.2981 N   0  0  0  0  0  0  0  0  0  0  0  0
  139.2108  137.9316  153.8079 C   0  0  0  0  0  0  0  0  0  0  0  0
  138.1483  137.9379  154.6656 C   0  0  0  0  0  0  0  0  0  0  0  0
  138.5139  136.9918  155.6634 C   0  0  0  0  0  0  0  0  0  0  0  0
  139.7009  136.4505  155.4427 N   0  0  0  0  0  0  0  0  0  0  0  0
  147.8327  133.6095  153.3483 H   0  0  0  0  0  0  0  0  0  0  0  0
  148.7971  133.6820  151.8760 H   0  0  0  0  0  0  0  0  0  0  0  0
  148.6698  132.1724  152.7706 H   0  0  0  0  0  0  0  0  0  0  0  0
  147.2531  132.1032  150.7593 H   0  0  0  0  0  0  0  0  0  0  0  0
  146.4689  130.8469  152.7316 H   0  0  0  0  0  0  0  0  0  0  0  0
  145.5843  132.2389  153.3045 H   0  0  0  0  0  0  0  0  0  0  0  0
  145.0626  130.6974  150.7172 H   0  0  0  0  0  0  0  0  0  0  0  0
  144.0463  130.7044  152.1377 H   0  0  0  0  0  0  0  0  0  0  0  0
  143.1597  132.2225  150.3544 H   0  0  0  0  0  0  0  0  0  0  0  0
  143.5224  133.0959  151.8227 H   0  0  0  0  0  0  0  0  0  0  0  0
  145.2832  132.9499  149.3304 H   0  0  0  0  0  0  0  0  0  0  0  0
  144.3763  134.3387  149.8534 H   0  0  0  0  0  0  0  0  0  0  0  0
  146.8287  134.4801  150.4602 H   0  0  0  0  0  0  0  0  0  0  0  0
  145.8573  136.7150  151.8946 H   0  0  0  0  0  0  0  0  0  0  0  0
  144.7340  135.9250  150.7992 H   0  0  0  0  0  0  0  0  0  0  0  0
  143.1835  135.4618  152.6939 H   0  0  0  0  0  0  0  0  0  0  0  0
  144.3392  136.1303  153.8266 H   0  0  0  0  0  0  0  0  0  0  0  0
  143.1484  137.6584  151.6235 H   0  0  0  0  0  0  0  0  0  0  0  0
  142.6909  138.2542  154.4234 H   0  0  0  0  0  0  0  0  0  0  0  0
  141.7157  138.6890  153.0395 H   0  0  0  0  0  0  0  0  0  0  0  0
  141.2654  136.0838  152.8242 H   0  0  0  0  0  0  0  0  0  0  0  0
  141.9122  135.9935  154.4464 H   0  0  0  0  0  0  0  0  0  0  0  0
  139.3879  138.4869  152.8986 H   0  0  0  0  0  0  0  0  0  0  0  0
  137.2466  138.5272  154.5910 H   0  0  0  0  0  0  0  0  0  0  0  0
  137.9561  136.6850  156.5357 H   0  0  0  0  0  0  0  0  0  0  0  0
  1  2  1  0  0  0  0
  1 19  1  0  0  0  0
  1 20  1  0  0  0  0
  1 21  1  0  0  0  0
  2  7  1  0  0  0  0
  2  3  1  0  0  0  0
  2 22  1  0  0  0  0
  3  4  1  0  0  0  0
  3 23  1  0  0  0  0
  3 24  1  0  0  0  0
  4  5  1  0  0  0  0
  4 25  1  0  0  0  0
  4 26  1  0  0  0  0
  5  6  1  0  0  0  0
  5 27  1  0  0  0  0
  5 28  1  0  0  0  0
  6  7  1  0  0  0  0
  6 29  1  0  0  0  0
  6 30  1  0  0  0  0
  7  8  1  0  0  0  0
  7 31  1  0  0  0  0
  8  9  1  0  0  0  0
  9 10  1  0  0  0  0
  9 32  1  0  0  0  0
  9 33  1  0  0  0  0
 10 11  1  0  0  0  0
 10 34  1  0  0  0  0
 10 35  1  0  0  0  0
 11 12  1  0  0  0  0
 11 36  1  0  0  0  0
 12 13  1  0  0  0  0
 12 37  1  0  0  0  0
 12 38  1  0  0  0  0
 13 14  1  0  0  0  0
 13 39  1  0  0  0  0
 13 40  1  0  0  0  0
 14 18  1  0  0  0  0
 14 15  1  0  0  0  0
 15 16  2  0  0  0  0
 15 41  1  0  0  0  0
 16 17  1  0  0  0  0
 16 42  1  0  0  0  0
 17 18  2  0  0  0  0
 17 43  1  0  0  0  0
M  END
> <s_m_source_file>
AV-unprocessed.smi

> <i_m_source_file_index>
3241

> <i_lp_mmshare_version>
43012

> <i_f3d_flags>
0

> <s_epik_input>
W0NIM11bQ0BASF0xW0NIMl1bQ0gyXVtDSDJdW0NIMl1bQ0BIXTFPW0NIMl1bQ0gyXVtOSF1bQ0gyXVtDSDJdbjJbY0hdW2NIXVtjSF1uMg==

> <s_epik_cmdline>
J2VwaWtfcHl0aG9uJywgJy1waCcsICc3LjAnLCAnLXRuJywgJzgnLCAnLW1hJywgJzIwMCcsICctbWV0YWxfYmluZGluZycsICctaW1hZScsICc8aW5maWxlLm1hZT4nLCAnLW9tYWUnLCAnPG91dGZpbGUubWFlPic=

> <r_lp_tautomer_probability>
1

> <r_epik_Ionization_Penalty>
2.47055

> <r_epik_Ionization_Penalty_Charging>
0

> <r_epik_Ionization_Penalty_Neutral>
2.47055

> <r_epik_State_Penalty>
2.6322

> <r_epik_Charging_Adjusted_Penalty>
2.6322

> <i_epik_Tot_Q>
0

> <i_epik_Tot_abs_Q>
0

> <r_epik_Metal_State_Penalty>
2.63108

> <b_epik_Metal_Only>
0

> <s_lp_Force_Field>
OPLS_2005

> <r_lp_Energy>
16.4291

> <b_lp_Chiralities_Consistent>
1

> <s_lp_Variant>
AV-unprocessed.smi:3241-6

> <Gold.Version>
5.8.1

> <Gold.Id.Protein>
6NUR|6NUR_protein|mol2

> <Gold.PLP.Fitness>
44.3182

> <Gold.PLP.PLP>
-38.2257

> <Gold.PLP.part.hbond>
-3.0000

> <Gold.PLP.part.metal>
0.0000

> <Gold.PLP.part.buried>
-2.8928

> <Gold.PLP.part.nonpolar>
-31.9124

> <Gold.PLP.part.repulsive>
0.1818

> <Gold.PLP.ligand.clash>
0.0034

> <Gold.PLP.ligand.torsion>
0.5088

> <Gold.PLP.Chemscore.Hbond>
1.9440

> <Gold.PLP.Chemscore.CHOScore>
0.4050

> <Gold.PLP.Chemscore.Metal>
0.0000

> <Gold.Chemscore.Hbonds>
donor molecule, donor type, donor heavy atom, donor atom, acceptor molecule, acceptor atom, score
      L1  H    11    36       P1 10171  0.59
      P1  H 11000 11005       L1    18  1.00

> <Gold.PLP.Chemscore.Internal.Correction>
0.0665

> <Gold.Rescore>
     Score         DG    S(hbond)    S(metal)    S(lipo)     H(rot)  DE(clash)    DE(int)     intcor
     15.35     -17.47       1.53        0.00      98.01       1.79       1.59       0.53       ----

> <Gold.Chemscore.Fitness>
15.3511

> <Gold.Chemscore.DG>
-17.4703

> <Gold.Chemscore.ZeroCoef>
-5.4800

> <Gold.Chemscore.Hbond>
1.5288

> <Gold.Chemscore.Metal>
0.0000

> <Gold.Chemscore.Lipo>
98.0078

> <Gold.Chemscore.Internal_Hbond>
0.0000

> <Gold.Chemscore.DEClash>
1.5864

> <Gold.Chemscore.DEInternal>
0.5328

> <Gold.Chemscore.Rot>
1.7901

> <Gold.Chemscore.Internal.Correction>
   9.000000E+99

> <Gold.Chemscore.Hbonds>
donor molecule, donor type, donor heavy atom, donor atom, acceptor molecule, acceptor atom, score
      L1  H    11    36       P1 10171  0.41
      P1  H 11000 11005       L1    18  0.89

> <Gold.Chemscore.Hbond.Weighted>
-5.1061

> <Gold.Chemscore.Metal.Weighted>
-0.0000

> <Gold.Chemscore.Lipo.Weighted>
-11.4669

> <Gold.Chemscore.Internal_Hbond.Weighted>
0.0000

> <Gold.Chemscore.DEClash.Weighted>
1.5864

> <Gold.Chemscore.DEInternal.Weighted>
0.5328

> <Gold.Chemscore.Rot.Weighted>
4.5827

> <Gold.Chemscore.Internal.Correction.Weighted>
   9.000000E+99

> <Gold.Protein.RotatedTorsions>
[ 6907 6896 6895 6894 ] final   59.75 input  -60.11 | X-H torsion
[ 7974 7965 7964 7962 ] final  171.68 input  175.53 | X-H torsion
[ 8008 7997 7996 7995 ] final   37.53 input   59.86 | X-H torsion
[ 10167 10162 10161 10158 ] final    3.85 input  -65.29 | X-H torsion
[ 10718 10713 10712 10709 ] final  161.02 input   66.30 | X-H torsion
[ 10763 10752 10751 10750 ] final -104.73 input  -60.55 | X-H torsion
[ 11005 11000 10999 10996 ] final   76.28 input  -57.11 | X-H torsion

> <Gold.Protein.ActiveResidues>
 VAL166  LYS551  ARG553  GLY616  TRP617  ASP618  TYR619  PRO620  LYS621  CYS622 
 ASP623  PHE694  ASN695  SER759  ASP760  ASP761  ALA762  ILE779  LEU786  VAL792 
 PHE793  MET794  SER795  GLU796  ALA797  LYS798  CYS799  TRP800  GLU811  SER814 

> <Gold.Protein.RotatedAtoms>
  152.3942  134.6392  160.0095 H   0  0  0  0  0  0  0  0  0  0  0  0  # atno 6907 bound_to 6896
  151.6616  133.3311  159.3183 H   0  0  0  0  0  0  0  0  0  0  0  0  # atno 6908 bound_to 6896
  150.7853  134.6876  159.6523 H   0  0  0  0  0  0  0  0  0  0  0  0  # atno 6909 bound_to 6896
  144.7288  139.9386  143.6427 H   0  0  0  0  0  0  0  0  0  0  0  0  # atno 7974 bound_to 7965
  155.2053  140.3319  155.4337 H   0  0  0  0  0  0  0  0  0  0  0  0  # atno 8008 bound_to 7997
  156.2391  140.1886  156.7087 H   0  0  0  0  0  0  0  0  0  0  0  0  # atno 8009 bound_to 7997
  154.6114  140.0608  156.9484 H   0  0  0  0  0  0  0  0  0  0  0  0  # atno 8010 bound_to 7997
  140.6565  143.7415  150.7662 H   0  0  0  0  0  0  0  0  0  0  0  0  # atno 10167 bound_to 10162
  157.1423  131.0543  151.2320 H   0  0  0  0  0  0  0  0  0  0  0  0  # atno 10718 bound_to 10713
  154.7898  135.4775  154.0028 H   0  0  0  0  0  0  0  0  0  0  0  0  # atno 10763 bound_to 10752
  153.1614  135.6809  153.8744 H   0  0  0  0  0  0  0  0  0  0  0  0  # atno 10764 bound_to 10752
  153.8356  135.3186  155.3400 H   0  0  0  0  0  0  0  0  0  0  0  0  # atno 10765 bound_to 10752
  139.9305  134.7588  156.1376 H   0  0  0  0  0  0  0  0  0  0  0  0  # atno 11005 bound_to 11000
  146.0802  139.3790  143.0469 LP  0  0  0  0  0  0  0  0  0  0  0  0  # atno 17320 bound_to 7965
  145.7851  140.9839  143.1079 LP  0  0  0  0  0  0  0  0  0  0  0  0  # atno 17321 bound_to 7965
  140.1075  143.4730  152.2389 LP  0  0  0  0  0  0  0  0  0  0  0  0  # atno 17342 bound_to 10162
  139.5788  144.7501  151.3693 LP  0  0  0  0  0  0  0  0  0  0  0  0  # atno 17343 bound_to 10162
  157.4295  130.7483  149.6979 LP  0  0  0  0  0  0  0  0  0  0  0  0  # atno 17370 bound_to 10713
  155.9786  130.4049  150.3638 LP  0  0  0  0  0  0  0  0  0  0  0  0  # atno 17371 bound_to 10713
  141.0891  133.6722  156.2500 LP  0  0  0  0  0  0  0  0  0  0  0  0  # atno 17394 bound_to 11000
  140.6215  134.5356  157.5548 LP  0  0  0  0  0  0  0  0  0  0  0  0  # atno 17395 bound_to 11000

$$$$
