AV-unprocessed.smi:249|AV-procd|sdf|1903|dock4
  -GOLD-   2262020583D 1   1.00000     0.00000
 Structure written by MMmdl.
 64 67  0  0  0  0  0  0  0  0  2 V2000
  143.9639  132.5726  148.6492 C   0  0  0  0  0  0  0  0  0  0  0  0
  143.9092  133.7625  149.6194 C   0  0  0  0  0  0  0  0  0  0  0  0
  145.2581  134.2017  150.0853 N   0  3  1  0  0  0  0  0  0  0  0  0
  145.3428  135.6480  150.4337 C   0  0  0  0  0  0  0  0  0  0  0  0
  144.6170  135.9629  151.7553 C   0  0  0  0  0  0  0  0  0  0  0  0
  145.1730  135.1030  152.9111 C   0  0  1  0  0  0  0  0  0  0  0  0
  144.5452  135.3801  154.2098 N   0  0  0  0  0  0  0  0  0  0  0  0
  143.1055  135.1746  154.3177 C   0  0  0  0  0  0  0  0  0  0  0  0
  145.0023  136.4452  154.9107 C   0  0  0  0  0  0  0  0  0  0  0  0
  144.5841  136.5746  156.1946 N   0  0  0  0  0  0  0  0  0  0  0  0
  144.9996  137.6072  156.9342 C   0  0  0  0  0  0  0  0  0  0  0  0
  145.8148  138.6063  156.5898 N   0  0  0  0  0  0  0  0  0  0  0  0
  146.2292  138.4847  155.2962 C   0  0  0  0  0  0  0  0  0  0  0  0
  145.8761  137.4434  154.3925 C   0  0  0  0  0  0  0  0  0  0  0  0
  146.5024  137.6479  153.1684 N   0  0  0  0  0  0  0  0  0  0  0  0
  147.1839  138.7477  153.3377 C   0  0  0  0  0  0  0  0  0  0  0  0
  147.0614  139.3271  154.5802 N   0  0  0  0  0  0  0  0  0  0  0  0
  147.7079  140.5443  155.0370 C   0  0  0  0  0  0  0  0  0  0  0  0
  149.1245  140.3392  155.6352 C   0  0  1  0  0  0  0  0  0  0  0  0
  150.0826  139.8626  154.5189 C   0  0  0  0  0  0  0  0  0  0  0  0
  149.9585  140.6519  153.3526 O   0  0  0  0  0  0  0  0  0  0  0  0
  149.6794  141.5687  156.4132 C   0  0  2  0  0  0  0  0  0  0  0  0
  151.1222  141.4307  156.8742 C   0  0  0  0  0  0  0  0  0  0  0  0
  151.2200  142.5047  157.9469 C   0  0  0  0  0  0  0  0  0  0  0  0
  149.9718  142.4417  158.6182 O   0  0  0  0  0  0  0  0  0  0  0  0
  148.9881  141.8849  157.7506 C   0  0  0  0  0  0  0  0  0  0  0  0
  145.1386  133.6087  152.5196 C   0  0  0  0  0  0  0  0  0  0  0  0
  145.8558  133.3707  151.1748 C   0  0  1  0  0  0  0  0  0  0  0  0
  145.9641  131.8761  150.8226 C   0  0  0  0  0  0  0  0  0  0  0  0
  142.9600  132.1934  148.4566 H   0  0  0  0  0  0  0  0  0  0  0  0
  144.5514  131.7520  149.0619 H   0  0  0  0  0  0  0  0  0  0  0  0
  144.3886  132.8460  147.6839 H   0  0  0  0  0  0  0  0  0  0  0  0
  143.3612  134.5890  149.1679 H   0  0  0  0  0  0  0  0  0  0  0  0
  143.3148  133.4354  150.4701 H   0  0  0  0  0  0  0  0  0  0  0  0
  146.3955  135.9170  150.5308 H   0  0  0  0  0  0  0  0  0  0  0  0
  144.9597  136.2739  149.6295 H   0  0  0  0  0  0  0  0  0  0  0  0
  144.7373  137.0204  151.9932 H   0  0  0  0  0  0  0  0  0  0  0  0
  143.5476  135.8003  151.6247 H   0  0  0  0  0  0  0  0  0  0  0  0
  146.2220  135.3791  153.0289 H   0  0  0  0  0  0  0  0  0  0  0  0
  142.7573  135.3651  155.3339 H   0  0  0  0  0  0  0  0  0  0  0  0
  142.8559  134.1427  154.0708 H   0  0  0  0  0  0  0  0  0  0  0  0
  142.5544  135.8259  153.6398 H   0  0  0  0  0  0  0  0  0  0  0  0
  144.6241  137.6383  157.9464 H   0  0  0  0  0  0  0  0  0  0  0  0
  147.7873  139.1765  152.5507 H   0  0  0  0  0  0  0  0  0  0  0  0
  147.7597  141.2204  154.1827 H   0  0  0  0  0  0  0  0  0  0  0  0
  147.0575  141.0264  155.7679 H   0  0  0  0  0  0  0  0  0  0  0  0
  149.0639  139.5118  156.3429 H   0  0  0  0  0  0  0  0  0  0  0  0
  151.1198  139.8866  154.8526 H   0  0  0  0  0  0  0  0  0  0  0  0
  149.8739  138.8244  154.2587 H   0  0  0  0  0  0  0  0  0  0  0  0
  149.8406  140.0771  152.6115 H   0  0  0  0  0  0  0  0  0  0  0  0
  149.6167  142.4530  155.7772 H   0  0  0  0  0  0  0  0  0  0  0  0
  151.2921  140.4473  157.3150 H   0  0  0  0  0  0  0  0  0  0  0  0
  151.8467  141.5792  156.0731 H   0  0  0  0  0  0  0  0  0  0  0  0
  152.0533  142.3459  158.6313 H   0  0  0  0  0  0  0  0  0  0  0  0
  151.3308  143.4906  157.4931 H   0  0  0  0  0  0  0  0  0  0  0  0
  148.1643  142.5868  157.6283 H   0  0  0  0  0  0  0  0  0  0  0  0
  148.5975  140.9821  158.2215 H   0  0  0  0  0  0  0  0  0  0  0  0
  145.6190  133.0101  153.2937 H   0  0  0  0  0  0  0  0  0  0  0  0
  144.1104  133.2534  152.4519 H   0  0  0  0  0  0  0  0  0  0  0  0
  146.8831  133.7211  151.2887 H   0  0  0  0  0  0  0  0  0  0  0  0
  146.5932  131.3581  151.5470 H   0  0  0  0  0  0  0  0  0  0  0  0
  146.4123  131.7309  149.8391 H   0  0  0  0  0  0  0  0  0  0  0  0
  144.9951  131.3770  150.8345 H   0  0  0  0  0  0  0  0  0  0  0  0
  145.8637  134.0744  149.2869 H   0  0  0  0  0  0  0  0  0  0  0  0
  1  2  1  0  0  0  0
  1 30  1  0  0  0  0
  1 31  1  0  0  0  0
  1 32  1  0  0  0  0
  2  3  1  0  0  0  0
  2 33  1  0  0  0  0
  2 34  1  0  0  0  0
  3 28  1  0  0  0  0
  3  4  1  0  0  0  0
  3 64  1  0  0  0  0
  4  5  1  0  0  0  0
  4 35  1  0  0  0  0
  4 36  1  0  0  0  0
  5  6  1  0  0  0  0
  5 37  1  0  0  0  0
  5 38  1  0  0  0  0
  6  7  1  0  0  0  0
  6 27  1  0  0  0  0
  6 39  1  0  0  0  0
  7  8  1  0  0  0  0
  7  9  1  0  0  0  0
  8 40  1  0  0  0  0
  8 41  1  0  0  0  0
  8 42  1  0  0  0  0
  9 14  1  0  0  0  0
  9 10  2  0  0  0  0
 10 11  1  0  0  0  0
 11 12  2  0  0  0  0
 11 43  1  0  0  0  0
 12 13  1  0  0  0  0
 13 17  1  0  0  0  0
 13 14  2  0  0  0  0
 14 15  1  0  0  0  0
 15 16  2  0  0  0  0
 16 17  1  0  0  0  0
 16 44  1  0  0  0  0
 17 18  1  0  0  0  0
 18 19  1  0  0  0  0
 18 45  1  0  0  0  0
 18 46  1  0  0  0  0
 19 20  1  0  0  0  0
 19 22  1  0  0  0  0
 19 47  1  0  0  0  0
 20 21  1  0  0  0  0
 20 48  1  0  0  0  0
 20 49  1  0  0  0  0
 21 50  1  0  0  0  0
 22 26  1  0  0  0  0
 22 23  1  0  0  0  0
 22 51  1  0  0  0  0
 23 24  1  0  0  0  0
 23 52  1  0  0  0  0
 23 53  1  0  0  0  0
 24 25  1  0  0  0  0
 24 54  1  0  0  0  0
 24 55  1  0  0  0  0
 25 26  1  0  0  0  0
 26 56  1  0  0  0  0
 26 57  1  0  0  0  0
 27 28  1  0  0  0  0
 27 58  1  0  0  0  0
 27 59  1  0  0  0  0
 28 29  1  0  0  0  0
 28 60  1  0  0  0  0
 29 61  1  0  0  0  0
 29 62  1  0  0  0  0
 29 63  1  0  0  0  0
M  CHG  1   3   1
M  END
> <s_m_source_file>
AV-unprocessed.smi

> <i_m_source_file_index>
249

> <i_lp_mmshare_version>
43012

> <i_f3d_flags>
0

> <s_epik_input>
W0NIM11bQ0gyXU4xW0NIMl1bQ0gyXVtDQEhdKFtDSDJdW0NASF0xW0NIM10pTihbQ0gzXSljKG5bY0hdbjIpYyhjMjMpbltjSF1uM1tDSDJdW0NASF0oW0NIMl1bT0hdKVtDQEBIXTRbQ0gyXVtDSDJdT1tDSDJdNA==

> <s_epik_cmdline>
J2VwaWtfcHl0aG9uJywgJy1waCcsICc3LjAnLCAnLXRuJywgJzgnLCAnLW1hJywgJzIwMCcsICctbWV0YWxfYmluZGluZycsICctaW1hZScsICc8aW5maWxlLm1hZT4nLCAnLW9tYWUnLCAnPG91dGZpbGUubWFlPic=

> <r_lp_tautomer_probability>
1

> <r_epik_Ionization_Penalty>
0.00294688

> <r_epik_Ionization_Penalty_Charging>
0.00169971

> <r_epik_Ionization_Penalty_Neutral>
0.00124717

> <r_epik_State_Penalty>
-0

> <r_epik_Charging_Adjusted_Penalty>
0.00169971

> <i_epik_Tot_Q>
1

> <i_epik_Tot_abs_Q>
1

> <r_epik_Metal_State_Penalty>
-0

> <b_epik_Metal_Only>
0

> <s_lp_Force_Field>
OPLS_2005

> <r_lp_Energy>
55.2795

> <b_lp_Chiralities_Consistent>
1

> <s_lp_Variant>
AV-unprocessed.smi:249-6

> <Gold.Version>
5.8.1

> <Gold.Id.Protein>
6NUR|6NUR_protein|mol2

> <Gold.PLP.Fitness>
43.3438

> <Gold.PLP.PLP>
-34.5247

> <Gold.PLP.part.hbond>
-3.8124

> <Gold.PLP.part.metal>
0.0000

> <Gold.PLP.part.buried>
-0.1079

> <Gold.PLP.part.nonpolar>
-28.8233

> <Gold.PLP.part.repulsive>
0.4243

> <Gold.PLP.ligand.clash>
0.0000

> <Gold.PLP.ligand.torsion>
1.4821

> <Gold.PLP.Chemscore.Hbond>
2.6852

> <Gold.PLP.Chemscore.CHOScore>
0.9246

> <Gold.PLP.Chemscore.Metal>
0.0000

> <Gold.Chemscore.Hbonds>
donor molecule, donor type, donor heavy atom, donor atom, acceptor molecule, acceptor atom, score
      L1  H     3    64       P1  7921  0.78
      L1  H    21    50       P1  7957  0.74
      P1  H  7989  7998       L1    21  0.12
      P1  H  8011  8017       L1    21  0.84
      L1  C    16    44       P1  7957  1.00

> <Gold.PLP.Chemscore.Internal.Correction>
0.9539

> <Gold.Rescore>
     Score         DG    S(hbond)    S(metal)    S(lipo)     H(rot)  DE(clash)    DE(int)     intcor
     10.85     -15.74       1.74        0.00     101.46       2.90       1.56       3.34       ----

> <Gold.Chemscore.Fitness>
10.8485

> <Gold.Chemscore.DG>
-15.7450

> <Gold.Chemscore.ZeroCoef>
-5.4800

> <Gold.Chemscore.Hbond>
1.7424

> <Gold.Chemscore.Metal>
0.0000

> <Gold.Chemscore.Lipo>
101.4613

> <Gold.Chemscore.Internal_Hbond>
0.0000

> <Gold.Chemscore.DEClash>
1.5562

> <Gold.Chemscore.DEInternal>
3.3403

> <Gold.Chemscore.Rot>
2.9006

> <Gold.Chemscore.Internal.Correction>
   9.000000E+99

> <Gold.Chemscore.Hbonds>
donor molecule, donor type, donor heavy atom, donor atom, acceptor molecule, acceptor atom, score
      L1  H     3    64       P1  7921  0.28
      L1  H    21    50       P1  7957  0.71
      P1  H  8011  8017       L1    21  0.13

> <Gold.Chemscore.Hbond.Weighted>
-5.8197

> <Gold.Chemscore.Metal.Weighted>
-0.0000

> <Gold.Chemscore.Lipo.Weighted>
-11.8710

> <Gold.Chemscore.Internal_Hbond.Weighted>
0.0000

> <Gold.Chemscore.DEClash.Weighted>
1.5562

> <Gold.Chemscore.DEInternal.Weighted>
3.3403

> <Gold.Chemscore.Rot.Weighted>
7.4256

> <Gold.Chemscore.Internal.Correction.Weighted>
   9.000000E+99

> <Gold.Protein.RotatedTorsions>
[ 6907 6896 6895 6894 ] final -153.40 input  -60.11 | X-H torsion
[ 7974 7965 7964 7962 ] final -109.40 input  175.53 | X-H torsion
[ 8008 7997 7996 7995 ] final   57.80 input   59.86 | X-H torsion
[ 10167 10162 10161 10158 ] final   -3.68 input  -65.29 | X-H torsion
[ 10718 10713 10712 10709 ] final   96.08 input   66.30 | X-H torsion
[ 10763 10752 10751 10750 ] final -119.98 input  -60.55 | X-H torsion
[ 11005 11000 10999 10996 ] final  -61.20 input  -57.11 | X-H torsion

> <Gold.Protein.ActiveResidues>
 VAL166  LYS551  ARG553  GLY616  TRP617  ASP618  TYR619  PRO620  LYS621  CYS622 
 ASP623  PHE694  ASN695  SER759  ASP760  ASP761  ALA762  ILE779  LEU786  VAL792 
 PHE793  MET794  SER795  GLU796  ALA797  LYS798  CYS799  TRP800  GLU811  SER814 

> <Gold.Protein.RotatedAtoms>
  151.2421  133.4394  159.2607 H   0  0  0  0  0  0  0  0  0  0  0  0  # atno 6907 bound_to 6896
  151.0696  134.9790  159.8312 H   0  0  0  0  0  0  0  0  0  0  0  0  # atno 6908 bound_to 6896
  152.5410  134.2367  159.8898 H   0  0  0  0  0  0  0  0  0  0  0  0  # atno 6909 bound_to 6896
  145.1810  140.8971  143.3480 H   0  0  0  0  0  0  0  0  0  0  0  0  # atno 7974 bound_to 7965
  155.5397  140.3484  155.4444 H   0  0  0  0  0  0  0  0  0  0  0  0  # atno 8008 bound_to 7997
  156.0660  140.1351  156.9912 H   0  0  0  0  0  0  0  0  0  0  0  0  # atno 8009 bound_to 7997
  154.4503  140.0975  156.6572 H   0  0  0  0  0  0  0  0  0  0  0  0  # atno 8010 bound_to 7997
  140.6899  143.6512  150.8348 H   0  0  0  0  0  0  0  0  0  0  0  0  # atno 10167 bound_to 10162
  157.6931  131.0566  150.4436 H   0  0  0  0  0  0  0  0  0  0  0  0  # atno 10718 bound_to 10713
  154.8632  135.4219  154.2386 H   0  0  0  0  0  0  0  0  0  0  0  0  # atno 10763 bound_to 10752
  153.3356  135.6990  153.6916 H   0  0  0  0  0  0  0  0  0  0  0  0  # atno 10764 bound_to 10752
  153.5915  135.3554  155.2885 H   0  0  0  0  0  0  0  0  0  0  0  0  # atno 10765 bound_to 10752
  141.1315  133.6628  156.5338 H   0  0  0  0  0  0  0  0  0  0  0  0  # atno 11005 bound_to 11000
  145.0137  139.3487  143.6107 LP  0  0  0  0  0  0  0  0  0  0  0  0  # atno 17320 bound_to 7965
  146.3453  139.9409  142.8741 LP  0  0  0  0  0  0  0  0  0  0  0  0  # atno 17321 bound_to 7965
  140.0224  143.5529  152.2795 LP  0  0  0  0  0  0  0  0  0  0  0  0  # atno 17342 bound_to 10162
  139.6292  144.7642  151.2573 LP  0  0  0  0  0  0  0  0  0  0  0  0  # atno 17343 bound_to 10162
  156.4793  130.4070  149.6471 LP  0  0  0  0  0  0  0  0  0  0  0  0  # atno 17370 bound_to 10713
  156.3523  130.7438  151.2399 LP  0  0  0  0  0  0  0  0  0  0  0  0  # atno 17371 bound_to 10713
  140.4194  134.7201  157.4881 LP  0  0  0  0  0  0  0  0  0  0  0  0  # atno 17394 bound_to 11000
  140.0370  134.6322  155.9030 LP  0  0  0  0  0  0  0  0  0  0  0  0  # atno 17395 bound_to 11000

$$$$
