AV-unprocessed.smi:1596|AV-procd|sdf|6416|dock7
  -GOLD-   22720 7 53D 1   1.00000     0.00000
 Structure written by MMmdl.
 49 50  0  0  0  0  0  0  0  0  2 V2000
  152.2823  140.9375  158.4375 C   0  0  0  0  0  0  0  0  0  0  0  0
  151.3621  142.1554  158.2640 C   0  0  0  0  0  0  0  0  0  0  0  0
  151.0721  142.4653  156.8618 N   0  0  0  0  0  0  0  0  0  0  0  0
  151.2672  143.8303  156.3730 C   0  0  0  0  0  0  0  0  0  0  0  0
  152.0442  144.7211  157.3536 C   0  0  0  0  0  0  0  0  0  0  0  0
  150.4397  141.4987  156.0419 C   0  0  0  0  0  0  0  0  0  0  0  0
  151.0087  140.2373  155.7336 C   0  0  0  0  0  0  0  0  0  0  0  0
  150.3114  139.3312  154.9083 C   0  0  0  0  0  0  0  0  0  0  0  0
  149.0428  139.6770  154.3994 C   0  0  0  0  0  0  0  0  0  0  0  0
  148.3843  138.7388  153.5587 N   0  0  0  0  0  0  0  0  0  0  0  0
  147.0751  138.4382  153.5059 C   0  0  0  0  0  0  0  0  0  0  0  0
  146.2073  138.9128  154.2382 O   0  0  0  0  0  0  0  0  0  0  0  0
  146.8240  137.5258  152.5559 N   0  0  0  0  0  0  0  0  0  0  0  0
  145.5085  136.9738  152.2445 C   0  0  2  0  0  0  0  0  0  0  0  0
  144.8222  136.4516  153.5241 C   0  0  0  0  0  0  0  0  0  0  0  0
  143.4665  135.7990  153.2085 C   0  0  0  0  0  0  0  0  0  0  0  0
  143.6194  134.6776  152.1666 C   0  0  1  0  0  0  0  0  0  0  0  0
  142.3483  134.1514  151.8495 O   0  0  0  0  0  0  0  0  0  0  0  0
  144.2944  135.1997  150.8865 C   0  0  0  0  0  0  0  0  0  0  0  0
  145.6519  135.8487  151.2021 C   0  0  0  0  0  0  0  0  0  0  0  0
  148.5185  140.9497  154.7257 C   0  0  0  0  0  0  0  0  0  0  0  0
  149.2227  141.7865  155.5176 N   0  3  0  0  0  0  0  0  0  0  0  0
  152.4885  140.7629  159.4935 H   0  0  0  0  0  0  0  0  0  0  0  0
  153.2395  141.0815  157.9360 H   0  0  0  0  0  0  0  0  0  0  0  0
  151.8298  140.0296  158.0415 H   0  0  0  0  0  0  0  0  0  0  0  0
  150.4234  141.9658  158.7851 H   0  0  0  0  0  0  0  0  0  0  0  0
  151.7942  143.0259  158.7581 H   0  0  0  0  0  0  0  0  0  0  0  0
  151.8110  143.7895  155.4288 H   0  0  0  0  0  0  0  0  0  0  0  0
  150.3065  144.2812  156.1259 H   0  0  0  0  0  0  0  0  0  0  0  0
  152.1225  145.7367  156.9651 H   0  0  0  0  0  0  0  0  0  0  0  0
  153.0582  144.3565  157.5108 H   0  0  0  0  0  0  0  0  0  0  0  0
  151.5537  144.7777  158.3252 H   0  0  0  0  0  0  0  0  0  0  0  0
  151.9766  139.9434  156.1094 H   0  0  0  0  0  0  0  0  0  0  0  0
  150.7519  138.3733  154.6732 H   0  0  0  0  0  0  0  0  0  0  0  0
  148.9862  138.2046  152.9491 H   0  0  0  0  0  0  0  0  0  0  0  0
  147.5985  137.1863  152.0046 H   0  0  0  0  0  0  0  0  0  0  0  0
  144.8874  137.7582  151.8074 H   0  0  0  0  0  0  0  0  0  0  0  0
  145.4665  135.7229  154.0185 H   0  0  0  0  0  0  0  0  0  0  0  0
  144.6770  137.2668  154.2340 H   0  0  0  0  0  0  0  0  0  0  0  0
  143.0259  135.4031  154.1242 H   0  0  0  0  0  0  0  0  0  0  0  0
  142.7784  136.5601  152.8373 H   0  0  0  0  0  0  0  0  0  0  0  0
  144.2200  133.8707  152.5889 H   0  0  0  0  0  0  0  0  0  0  0  0
  142.2287  134.1976  150.9132 H   0  0  0  0  0  0  0  0  0  0  0  0
  144.4318  134.3847  150.1749 H   0  0  0  0  0  0  0  0  0  0  0  0
  143.6495  135.9322  150.3986 H   0  0  0  0  0  0  0  0  0  0  0  0
  146.0911  136.2428  150.2847 H   0  0  0  0  0  0  0  0  0  0  0  0
  146.3391  135.0859  151.5712 H   0  0  0  0  0  0  0  0  0  0  0  0
  147.5745  141.3426  154.3801 H   0  0  0  0  0  0  0  0  0  0  0  0
  148.8125  142.6958  155.7314 H   0  0  0  0  0  0  0  0  0  0  0  0
  1  2  1  0  0  0  0
  1 23  1  0  0  0  0
  1 24  1  0  0  0  0
  1 25  1  0  0  0  0
  2  3  1  0  0  0  0
  2 26  1  0  0  0  0
  2 27  1  0  0  0  0
  3  4  1  0  0  0  0
  3  6  1  0  0  0  0
  4  5  1  0  0  0  0
  4 28  1  0  0  0  0
  4 29  1  0  0  0  0
  5 30  1  0  0  0  0
  5 31  1  0  0  0  0
  5 32  1  0  0  0  0
  6 22  1  0  0  0  0
  6  7  2  0  0  0  0
  7  8  1  0  0  0  0
  7 33  1  0  0  0  0
  8  9  2  0  0  0  0
  8 34  1  0  0  0  0
  9 10  1  0  0  0  0
  9 21  1  0  0  0  0
 10 11  1  0  0  0  0
 10 35  1  0  0  0  0
 11 12  2  0  0  0  0
 11 13  1  0  0  0  0
 13 14  1  0  0  0  0
 13 36  1  0  0  0  0
 14 20  1  0  0  0  0
 14 15  1  0  0  0  0
 14 37  1  0  0  0  0
 15 16  1  0  0  0  0
 15 38  1  0  0  0  0
 15 39  1  0  0  0  0
 16 17  1  0  0  0  0
 16 40  1  0  0  0  0
 16 41  1  0  0  0  0
 17 18  1  0  0  0  0
 17 19  1  0  0  0  0
 17 42  1  0  0  0  0
 18 43  1  0  0  0  0
 19 20  1  0  0  0  0
 19 44  1  0  0  0  0
 19 45  1  0  0  0  0
 20 46  1  0  0  0  0
 20 47  1  0  0  0  0
 21 22  2  0  0  0  0
 21 48  1  0  0  0  0
 22 49  1  0  0  0  0
M  CHG  1  22   1
M  END
> <s_m_source_file>
AV-unprocessed.smi

> <i_m_source_file_index>
1596

> <i_lp_mmshare_version>
43012

> <i_f3d_flags>
0

> <s_epik_input>
W0NIM11bQ0gyXU4oW0NIMl1bQ0gzXSljMVtjSF1bY0hdYyhbY0hdbjEpW05IXUMoPU8pW05IXVtDQEBIXTJbQ0gyXVtDSDJdW0NAQEhdKFtPSF0pW0NIMl1bQ0gyXTI=

> <s_epik_cmdline>
J2VwaWtfcHl0aG9uJywgJy1waCcsICc3LjAnLCAnLXRuJywgJzgnLCAnLW1hJywgJzIwMCcsICctbWV0YWxfYmluZGluZycsICctaW1hZScsICc8aW5maWxlLm1hZT4nLCAnLW9tYWUnLCAnPG91dGZpbGUubWFlPic=

> <r_lp_tautomer_probability>
0.999994

> <r_epik_Ionization_Penalty>
0.224167

> <r_epik_Ionization_Penalty_Charging>
0.224146

> <r_epik_Ionization_Penalty_Neutral>
2.1696e-05

> <r_epik_State_Penalty>
0.0144855

> <r_epik_Charging_Adjusted_Penalty>
0.238631

> <i_epik_Tot_Q>
1

> <i_epik_Tot_abs_Q>
1

> <r_epik_Metal_State_Penalty>
0.0446449

> <b_epik_Metal_Only>
0

> <s_lp_Force_Field>
OPLS_2005

> <r_lp_Energy>
22.6617

> <b_lp_Chiralities_Consistent>
1

> <s_lp_Variant>
AV-unprocessed.smi:1596-1

> <Gold.Version>
5.8.1

> <Gold.Id.Protein>
6NUR|6NUR_protein|mol2

> <Gold.PLP.Fitness>
46.5093

> <Gold.PLP.PLP>
-36.7514

> <Gold.PLP.part.hbond>
-4.9257

> <Gold.PLP.part.metal>
0.0000

> <Gold.PLP.part.buried>
-1.9947

> <Gold.PLP.part.nonpolar>
-32.3820

> <Gold.PLP.part.repulsive>
0.3484

> <Gold.PLP.ligand.clash>
0.0000

> <Gold.PLP.ligand.torsion>
1.5345

> <Gold.PLP.Chemscore.Hbond>
4.2412

> <Gold.PLP.Chemscore.CHOScore>
0.0000

> <Gold.PLP.Chemscore.Metal>
0.0000

> <Gold.Chemscore.Hbonds>
donor molecule, donor type, donor heavy atom, donor atom, acceptor molecule, acceptor atom, score
      L1  H    10    35       P1  7948  0.42
      L1  H    13    36       P1  7948  1.00
      L1  H    18    43       P1 10186  0.79
      L1  H    22    49       P1  8028  2.00

> <Gold.PLP.Chemscore.Internal.Correction>
0.1032

> <Gold.Rescore>
     Score         DG    S(hbond)    S(metal)    S(lipo)     H(rot)  DE(clash)    DE(int)     intcor
     14.90     -19.52       2.45        0.00      90.12       1.83       1.72       2.90       ----

> <Gold.Chemscore.Fitness>
14.9045

> <Gold.Chemscore.DG>
-19.5242

> <Gold.Chemscore.ZeroCoef>
-5.4800

> <Gold.Chemscore.Hbond>
2.4520

> <Gold.Chemscore.Metal>
0.0000

> <Gold.Chemscore.Lipo>
90.1164

> <Gold.Chemscore.Internal_Hbond>
0.0000

> <Gold.Chemscore.DEClash>
1.7204

> <Gold.Chemscore.DEInternal>
2.8993

> <Gold.Chemscore.Rot>
1.8317

> <Gold.Chemscore.Internal.Correction>
   9.000000E+99

> <Gold.Chemscore.Hbonds>
donor molecule, donor type, donor heavy atom, donor atom, acceptor molecule, acceptor atom, score
      L1  H    10    35       P1  7948  0.41
      L1  H    13    36       P1  7948  0.96
      L1  H    18    43       P1 10186  0.15
      L1  H    22    49       P1  8028  0.90

> <Gold.Chemscore.Hbond.Weighted>
-8.1898

> <Gold.Chemscore.Metal.Weighted>
-0.0000

> <Gold.Chemscore.Lipo.Weighted>
-10.5436

> <Gold.Chemscore.Internal_Hbond.Weighted>
0.0000

> <Gold.Chemscore.DEClash.Weighted>
1.7204

> <Gold.Chemscore.DEInternal.Weighted>
2.8993

> <Gold.Chemscore.Rot.Weighted>
4.6892

> <Gold.Chemscore.Internal.Correction.Weighted>
   9.000000E+99

> <Gold.Protein.RotatedTorsions>
[ 6907 6896 6895 6894 ] final -121.34 input  -60.11 | X-H torsion
[ 7974 7965 7964 7962 ] final -149.48 input  175.53 | X-H torsion
[ 8008 7997 7996 7995 ] final   31.54 input   59.86 | X-H torsion
[ 10167 10162 10161 10158 ] final   -4.12 input  -65.29 | X-H torsion
[ 10718 10713 10712 10709 ] final  -59.78 input   66.30 | X-H torsion
[ 10763 10752 10751 10750 ] final  -87.63 input  -60.55 | X-H torsion
[ 11005 11000 10999 10996 ] final -106.87 input  -57.11 | X-H torsion

> <Gold.Protein.ActiveResidues>
 VAL166  LYS551  ARG553  GLY616  TRP617  ASP618  TYR619  PRO620  LYS621  CYS622 
 ASP623  PHE694  ASN695  SER759  ASP760  ASP761  ALA762  ILE779  LEU786  VAL792 
 PHE793  MET794  SER795  GLU796  ALA797  LYS798  CYS799  TRP800  GLU811  SER814 

> <Gold.Protein.RotatedAtoms>
  150.8474  133.7839  159.3037 H   0  0  0  0  0  0  0  0  0  0  0  0  # atno 6907 bound_to 6896
  151.5522  135.1065  159.9962 H   0  0  0  0  0  0  0  0  0  0  0  0  # atno 6908 bound_to 6896
  152.4525  133.7614  159.6805 H   0  0  0  0  0  0  0  0  0  0  0  0  # atno 6909 bound_to 6896
  144.7965  140.5059  143.5737 H   0  0  0  0  0  0  0  0  0  0  0  0  # atno 7974 bound_to 7965
  155.1081  140.3236  155.4529 H   0  0  0  0  0  0  0  0  0  0  0  0  # atno 8008 bound_to 7997
  156.2698  140.2049  156.6153 H   0  0  0  0  0  0  0  0  0  0  0  0  # atno 8009 bound_to 7997
  154.6777  140.0529  157.0220 H   0  0  0  0  0  0  0  0  0  0  0  0  # atno 8010 bound_to 7997
  140.6916  143.6461  150.8392 H   0  0  0  0  0  0  0  0  0  0  0  0  # atno 10167 bound_to 10162
  156.1037  130.4183  150.0762 H   0  0  0  0  0  0  0  0  0  0  0  0  # atno 10718 bound_to 10713
  154.6357  135.5406  153.7731 H   0  0  0  0  0  0  0  0  0  0  0  0  # atno 10763 bound_to 10752
  153.0307  135.6447  154.1234 H   0  0  0  0  0  0  0  0  0  0  0  0  # atno 10764 bound_to 10752
  154.1162  135.2923  155.3199 H   0  0  0  0  0  0  0  0  0  0  0  0  # atno 10765 bound_to 10752
  141.0983  133.8931  157.1908 H   0  0  0  0  0  0  0  0  0  0  0  0  # atno 11005 bound_to 11000
  145.5661  139.1481  143.3314 LP  0  0  0  0  0  0  0  0  0  0  0  0  # atno 17320 bound_to 7965
  146.2234  140.5796  142.9007 LP  0  0  0  0  0  0  0  0  0  0  0  0  # atno 17321 bound_to 7965
  140.0174  143.5578  152.2814 LP  0  0  0  0  0  0  0  0  0  0  0  0  # atno 17342 bound_to 10162
  139.6324  144.7646  151.2508 LP  0  0  0  0  0  0  0  0  0  0  0  0  # atno 17343 bound_to 10162
  156.8743  130.9535  151.3606 LP  0  0  0  0  0  0  0  0  0  0  0  0  # atno 17370 bound_to 10713
  157.6211  130.8656  149.9111 LP  0  0  0  0  0  0  0  0  0  0  0  0  # atno 17371 bound_to 10713
  139.9826  135.0093  156.9785 LP  0  0  0  0  0  0  0  0  0  0  0  0  # atno 17394 bound_to 11000
  140.5086  134.1025  155.7265 LP  0  0  0  0  0  0  0  0  0  0  0  0  # atno 17395 bound_to 11000

$$$$
