AV-unprocessed.smi:1259|AV-procd|sdf|5291|dock5
  -GOLD-   22720 4413D 1   1.00000     0.00000
 Structure written by MMmdl.
 34 35  0  0  0  0  0  0  0  0  1 V2000
  153.7139  141.6726  160.6596 C   0  0  0  0  0  0  0  0  0  0  0  0
  152.6961  142.3315  159.7760 C   0  0  0  0  0  0  0  0  0  0  0  0
  151.8494  141.7208  158.8058 C   0  0  0  0  0  0  0  0  0  0  0  0
  151.1417  142.7828  158.3125 C   0  0  0  0  0  0  0  0  0  0  0  0
  150.1807  142.7972  157.3509 N   0  0  0  0  0  0  0  0  0  0  0  0
  149.4574  141.7711  156.8694 C   0  0  0  0  0  0  0  0  0  0  0  0
  149.5570  140.5975  157.2276 O   0  0  0  0  0  0  0  0  0  0  0  0
  148.5940  142.1881  155.9317 N   0  0  0  0  0  0  0  0  0  0  0  0
  147.6489  141.3386  155.2139 C   0  0  2  0  0  0  0  0  0  0  0  0
  148.1824  141.1001  153.7946 C   0  0  0  0  0  0  0  0  0  0  0  0
  146.2390  141.9040  155.1739 C   0  0  0  0  0  0  0  0  0  0  0  0
  145.9163  143.1628  154.4034 C   0  0  0  0  0  0  0  0  0  0  0  0
  145.8895  143.1733  155.9143 C   0  0  0  0  0  0  0  0  0  0  0  0
  151.5527  143.9290  158.9565 N   0  0  0  0  0  0  0  0  0  0  0  0
  151.1076  145.2976  158.7806 C   0  0  0  0  0  0  0  0  0  0  0  0
  152.5160  143.6449  159.8595 N   0  0  0  0  0  0  0  0  0  0  0  0
  153.7217  140.5923  160.5134 H   0  0  0  0  0  0  0  0  0  0  0  0
  153.5032  141.8627  161.7123 H   0  0  0  0  0  0  0  0  0  0  0  0
  154.7170  142.0431  160.4468 H   0  0  0  0  0  0  0  0  0  0  0  0
  151.7893  140.6779  158.5337 H   0  0  0  0  0  0  0  0  0  0  0  0
  149.9829  143.7043  156.9549 H   0  0  0  0  0  0  0  0  0  0  0  0
  148.5828  143.1708  155.7014 H   0  0  0  0  0  0  0  0  0  0  0  0
  147.6094  140.3673  155.7109 H   0  0  0  0  0  0  0  0  0  0  0  0
  147.5323  140.4234  153.2397 H   0  0  0  0  0  0  0  0  0  0  0  0
  149.1767  140.6525  153.8174 H   0  0  0  0  0  0  0  0  0  0  0  0
  148.2483  142.0325  153.2326 H   0  0  0  0  0  0  0  0  0  0  0  0
  145.4655  141.1378  155.1748 H   0  0  0  0  0  0  0  0  0  0  0  0
  146.7360  143.6855  153.9146 H   0  0  0  0  0  0  0  0  0  0  0  0
  144.9624  143.2001  153.8814 H   0  0  0  0  0  0  0  0  0  0  0  0
  144.9172  143.2195  156.4005 H   0  0  0  0  0  0  0  0  0  0  0  0
  146.6924  143.7010  156.4257 H   0  0  0  0  0  0  0  0  0  0  0  0
  151.5479  145.7099  157.8728 H   0  0  0  0  0  0  0  0  0  0  0  0
  151.4078  145.9095  159.6321 H   0  0  0  0  0  0  0  0  0  0  0  0
  150.0212  145.3262  158.6953 H   0  0  0  0  0  0  0  0  0  0  0  0
  1  2  1  0  0  0  0
  1 17  1  0  0  0  0
  1 18  1  0  0  0  0
  1 19  1  0  0  0  0
  2 16  2  0  0  0  0
  2  3  1  0  0  0  0
  3  4  2  0  0  0  0
  3 20  1  0  0  0  0
  4  5  1  0  0  0  0
  4 14  1  0  0  0  0
  5  6  1  0  0  0  0
  5 21  1  0  0  0  0
  6  7  2  0  0  0  0
  6  8  1  0  0  0  0
  8  9  1  0  0  0  0
  8 22  1  0  0  0  0
  9 10  1  0  0  0  0
  9 11  1  0  0  0  0
  9 23  1  0  0  0  0
 10 24  1  0  0  0  0
 10 25  1  0  0  0  0
 10 26  1  0  0  0  0
 11 13  1  0  0  0  0
 11 12  1  0  0  0  0
 11 27  1  0  0  0  0
 12 13  1  0  0  0  0
 12 28  1  0  0  0  0
 12 29  1  0  0  0  0
 13 30  1  0  0  0  0
 13 31  1  0  0  0  0
 14 15  1  0  0  0  0
 14 16  1  0  0  0  0
 15 32  1  0  0  0  0
 15 33  1  0  0  0  0
 15 34  1  0  0  0  0
M  END
> <s_m_source_file>
AV-unprocessed.smi

> <i_m_source_file_index>
1259

> <i_lp_mmshare_version>
43012

> <i_f3d_flags>
0

> <s_epik_input>
W0NIM11jMVtjSF1jKG4objEpW0NIM10pW05IXUMoPU8pW05IXVtDQEhdKFtDSDNdKVtDSF0yW0NIMl1bQ0gyXTI=

> <s_epik_cmdline>
J2VwaWtfcHl0aG9uJywgJy1waCcsICc3LjAnLCAnLXRuJywgJzgnLCAnLW1hJywgJzIwMCcsICctbWV0YWxfYmluZGluZycsICctaW1hZScsICc8aW5maWxlLm1hZT4nLCAnLW9tYWUnLCAnPG91dGZpbGUubWFlPic=

> <r_lp_tautomer_probability>
1

> <r_epik_Ionization_Penalty>
0.000100032

> <r_epik_Ionization_Penalty_Charging>
0

> <r_epik_Ionization_Penalty_Neutral>
0.000100032

> <r_epik_State_Penalty>
-0

> <r_epik_Charging_Adjusted_Penalty>
0

> <i_epik_Tot_Q>
0

> <i_epik_Tot_abs_Q>
0

> <r_epik_Metal_State_Penalty>
-0

> <b_epik_Metal_Only>
0

> <s_lp_Force_Field>
OPLS_2005

> <r_lp_Energy>
14.2457

> <b_lp_Chiralities_Consistent>
1

> <s_lp_Variant>
AV-unprocessed.smi:1259-1

> <Gold.Version>
5.8.1

> <Gold.Id.Protein>
6NUR|6NUR_protein|mol2

> <Gold.PLP.Fitness>
39.2621

> <Gold.PLP.PLP>
-34.3370

> <Gold.PLP.part.hbond>
-2.0000

> <Gold.PLP.part.metal>
0.0000

> <Gold.PLP.part.buried>
-4.6094

> <Gold.PLP.part.nonpolar>
-27.3047

> <Gold.PLP.part.repulsive>
0.1218

> <Gold.PLP.ligand.clash>
0.0000

> <Gold.PLP.ligand.torsion>
0.9858

> <Gold.PLP.Chemscore.Hbond>
1.9440

> <Gold.PLP.Chemscore.CHOScore>
0.0000

> <Gold.PLP.Chemscore.Metal>
0.0000

> <Gold.Chemscore.Hbonds>
donor molecule, donor type, donor heavy atom, donor atom, acceptor molecule, acceptor atom, score
      L1  H     5    21       P1  8028  0.94
      L1  H     8    22       P1  8028  1.00

> <Gold.PLP.Chemscore.Internal.Correction>
1.0647

> <Gold.Rescore>
     Score         DG    S(hbond)    S(metal)    S(lipo)     H(rot)  DE(clash)    DE(int)     intcor
     14.73     -16.85       1.95        0.00      67.76       1.20       0.16       1.95       ----

> <Gold.Chemscore.Fitness>
14.7348

> <Gold.Chemscore.DG>
-16.8481

> <Gold.Chemscore.ZeroCoef>
-5.4800

> <Gold.Chemscore.Hbond>
1.9489

> <Gold.Chemscore.Metal>
0.0000

> <Gold.Chemscore.Lipo>
67.7624

> <Gold.Chemscore.Internal_Hbond>
0.0000

> <Gold.Chemscore.DEClash>
0.1592

> <Gold.Chemscore.DEInternal>
1.9541

> <Gold.Chemscore.Rot>
1.1990

> <Gold.Chemscore.Internal.Correction>
   9.000000E+99

> <Gold.Chemscore.Hbonds>
donor molecule, donor type, donor heavy atom, donor atom, acceptor molecule, acceptor atom, score
      L1  H     5    21       P1  8028  0.88
      L1  H     8    22       P1  8028  0.96

> <Gold.Chemscore.Hbond.Weighted>
-6.5094

> <Gold.Chemscore.Metal.Weighted>
-0.0000

> <Gold.Chemscore.Lipo.Weighted>
-7.9282

> <Gold.Chemscore.Internal_Hbond.Weighted>
0.0000

> <Gold.Chemscore.DEClash.Weighted>
0.1592

> <Gold.Chemscore.DEInternal.Weighted>
1.9541

> <Gold.Chemscore.Rot.Weighted>
3.0695

> <Gold.Chemscore.Internal.Correction.Weighted>
   9.000000E+99

> <Gold.Protein.RotatedTorsions>
[ 6907 6896 6895 6894 ] final -101.22 input  -60.11 | X-H torsion
[ 7974 7965 7964 7962 ] final    0.19 input  175.53 | X-H torsion
[ 8008 7997 7996 7995 ] final  -25.35 input   59.86 | X-H torsion
[ 10167 10162 10161 10158 ] final   98.40 input  -65.29 | X-H torsion
[ 10718 10713 10712 10709 ] final  -52.26 input   66.30 | X-H torsion
[ 10763 10752 10751 10750 ] final   -5.85 input  -60.55 | X-H torsion
[ 11005 11000 10999 10996 ] final  161.56 input  -57.11 | X-H torsion

> <Gold.Protein.ActiveResidues>
 VAL166  LYS551  ARG553  GLY616  TRP617  ASP618  TYR619  PRO620  LYS621  CYS622 
 ASP623  PHE694  ASN695  SER759  ASP760  ASP761  ALA762  ILE779  LEU786  VAL792 
 PHE793  MET794  SER795  GLU796  ALA797  LYS798  CYS799  TRP800  GLU811  SER814 

> <Gold.Protein.RotatedAtoms>
  150.7146  134.0767  159.3883 H   0  0  0  0  0  0  0  0  0  0  0  0  # atno 6907 bound_to 6896
  151.8751  135.0472  160.0492 H   0  0  0  0  0  0  0  0  0  0  0  0  # atno 6908 bound_to 6896
  152.2612  133.5264  159.5419 H   0  0  0  0  0  0  0  0  0  0  0  0  # atno 6909 bound_to 6896
  146.2432  140.1175  142.8341 H   0  0  0  0  0  0  0  0  0  0  0  0  # atno 7974 bound_to 7965
  154.4480  140.1929  156.0606 H   0  0  0  0  0  0  0  0  0  0  0  0  # atno 8008 bound_to 7997
  156.0586  140.3299  155.7407 H   0  0  0  0  0  0  0  0  0  0  0  0  # atno 8009 bound_to 7997
  155.5447  140.0589  157.2853 H   0  0  0  0  0  0  0  0  0  0  0  0  # atno 8010 bound_to 7997
  139.7712  144.6922  151.0153 H   0  0  0  0  0  0  0  0  0  0  0  0  # atno 10167 bound_to 10162
  156.1637  130.4149  149.9752 H   0  0  0  0  0  0  0  0  0  0  0  0  # atno 10718 bound_to 10713
  153.4042  135.7006  153.6405 H   0  0  0  0  0  0  0  0  0  0  0  0  # atno 10763 bound_to 10752
  153.4926  135.3669  155.2499 H   0  0  0  0  0  0  0  0  0  0  0  0  # atno 10764 bound_to 10752
  154.8712  135.4092  154.3382 H   0  0  0  0  0  0  0  0  0  0  0  0  # atno 10765 bound_to 10752
  140.2170  134.8225  157.3181 H   0  0  0  0  0  0  0  0  0  0  0  0  # atno 11005 bound_to 11000
  145.0434  140.8963  143.5038 LP  0  0  0  0  0  0  0  0  0  0  0  0  # atno 17320 bound_to 7965
  145.1260  139.2663  143.5564 LP  0  0  0  0  0  0  0  0  0  0  0  0  # atno 17321 bound_to 7965
  140.7814  143.4586  151.0310 LP  0  0  0  0  0  0  0  0  0  0  0  0  # atno 17342 bound_to 10162
  139.8270  143.7743  152.3179 LP  0  0  0  0  0  0  0  0  0  0  0  0  # atno 17343 bound_to 10162
  156.7574  130.9138  151.3640 LP  0  0  0  0  0  0  0  0  0  0  0  0  # atno 17370 bound_to 10713
  157.6752  130.9088  150.0134 LP  0  0  0  0  0  0  0  0  0  0  0  0  # atno 17371 bound_to 10713
  140.1890  134.4395  155.7727 LP  0  0  0  0  0  0  0  0  0  0  0  0  # atno 17394 bound_to 11000
  141.2224  133.7018  156.7995 LP  0  0  0  0  0  0  0  0  0  0  0  0  # atno 17395 bound_to 11000

$$$$
