AV-unprocessed.smi:2024|AV-procd|sdf|8196|dock1
  -GOLD-   2272010453D 1   1.00000     0.00000
 Structure written by MMmdl.
 42 43  0  0  0  0  0  0  0  0  2 V2000
  152.6793  143.2982  160.0840 C   0  0  0  0  0  0  0  0  0  0  0  0
  152.3634  142.3577  159.0197 N   0  0  0  0  0  0  0  0  0  0  0  0
  152.2184  140.9985  159.5325 C   0  0  0  0  0  0  0  0  0  0  0  0
  151.8928  140.0012  158.4058 C   0  0  0  0  0  0  0  0  0  0  0  0
  150.6538  140.3644  157.7003 N   0  0  0  0  0  0  0  0  0  0  0  0
  150.1887  139.3712  156.6925 C   0  0  0  0  0  0  0  0  0  0  0  0
  148.8136  139.7295  156.0800 C   0  0  0  0  0  0  0  0  0  0  0  0
  151.1984  139.2526  155.5225 C   0  0  0  0  0  0  0  0  0  0  0  0
  150.0622  137.9472  157.3052 C   0  0  0  0  0  0  0  0  0  0  0  0
  149.3011  137.9448  158.5516 N   0  0  0  0  0  0  0  0  0  0  0  0
  148.9449  136.8514  159.2374 C   0  0  0  0  0  0  0  0  0  0  0  0
  149.2744  135.7362  158.8268 O   0  0  0  0  0  0  0  0  0  0  0  0
  148.2280  137.1163  160.3533 N   0  5  0  0  0  0  0  0  0  0  0  0
  147.6764  136.1100  161.0505 C   0  0  0  0  0  0  0  0  0  0  0  0
  147.3197  134.9465  160.4943 N   0  0  0  0  0  0  0  0  0  0  0  0
  146.7698  134.0418  161.4044 C   0  0  0  0  0  0  0  0  0  0  0  0
  146.7156  134.5242  162.6853 C   0  0  0  0  0  0  0  0  0  0  0  0
  147.3566  136.1393  162.7870 S   0  0  0  0  0  0  0  0  0  0  0  0
  150.8036  141.7383  157.1934 C   0  0  0  0  0  0  0  0  0  0  0  0
  151.1343  142.7292  158.3242 C   0  0  0  0  0  0  0  0  0  0  0  0
  153.6095  143.0207  160.5807 H   0  0  0  0  0  0  0  0  0  0  0  0
  151.8879  143.3244  160.8345 H   0  0  0  0  0  0  0  0  0  0  0  0
  152.8031  144.3055  159.6852 H   0  0  0  0  0  0  0  0  0  0  0  0
  153.1399  140.6929  160.0291 H   0  0  0  0  0  0  0  0  0  0  0  0
  151.4313  140.9651  160.2877 H   0  0  0  0  0  0  0  0  0  0  0  0
  152.7306  139.9616  157.7092 H   0  0  0  0  0  0  0  0  0  0  0  0
  151.8082  139.0137  158.8556 H   0  0  0  0  0  0  0  0  0  0  0  0
  148.5085  138.9840  155.3447 H   0  0  0  0  0  0  0  0  0  0  0  0
  148.8287  140.6900  155.5651 H   0  0  0  0  0  0  0  0  0  0  0  0
  148.0267  139.7682  156.8329 H   0  0  0  0  0  0  0  0  0  0  0  0
  150.9595  138.4111  154.8712 H   0  0  0  0  0  0  0  0  0  0  0  0
  152.2168  139.1034  155.8836 H   0  0  0  0  0  0  0  0  0  0  0  0
  151.2003  140.1370  154.8858 H   0  0  0  0  0  0  0  0  0  0  0  0
  149.6012  137.2552  156.5996 H   0  0  0  0  0  0  0  0  0  0  0  0
  151.0519  137.5337  157.5065 H   0  0  0  0  0  0  0  0  0  0  0  0
  149.0115  138.8421  158.9126 H   0  0  0  0  0  0  0  0  0  0  0  0
  146.4432  133.0746  161.0522 H   0  0  0  0  0  0  0  0  0  0  0  0
  146.3413  134.0320  163.5701 H   0  0  0  0  0  0  0  0  0  0  0  0
  151.5867  141.7825  156.4362 H   0  0  0  0  0  0  0  0  0  0  0  0
  149.8854  142.0793  156.7187 H   0  0  0  0  0  0  0  0  0  0  0  0
  150.3016  142.7688  159.0286 H   0  0  0  0  0  0  0  0  0  0  0  0
  151.2365  143.7313  157.9066 H   0  0  0  0  0  0  0  0  0  0  0  0
  1  2  1  0  0  0  0
  1 21  1  0  0  0  0
  1 22  1  0  0  0  0
  1 23  1  0  0  0  0
  2 20  1  0  0  0  0
  2  3  1  0  0  0  0
  3  4  1  0  0  0  0
  3 24  1  0  0  0  0
  3 25  1  0  0  0  0
  4  5  1  0  0  0  0
  4 26  1  0  0  0  0
  4 27  1  0  0  0  0
  5  6  1  0  0  0  0
  5 19  1  0  0  0  0
  6  7  1  0  0  0  0
  6  8  1  0  0  0  0
  6  9  1  0  0  0  0
  7 28  1  0  0  0  0
  7 29  1  0  0  0  0
  7 30  1  0  0  0  0
  8 31  1  0  0  0  0
  8 32  1  0  0  0  0
  8 33  1  0  0  0  0
  9 10  1  0  0  0  0
  9 34  1  0  0  0  0
  9 35  1  0  0  0  0
 10 11  1  0  0  0  0
 10 36  1  0  0  0  0
 11 12  2  0  0  0  0
 11 13  1  0  0  0  0
 13 14  1  0  0  0  0
 14 18  1  0  0  0  0
 14 15  2  0  0  0  0
 15 16  1  0  0  0  0
 16 17  2  0  0  0  0
 16 37  1  0  0  0  0
 17 18  1  0  0  0  0
 17 38  1  0  0  0  0
 19 20  1  0  0  0  0
 19 39  1  0  0  0  0
 19 40  1  0  0  0  0
 20 41  1  0  0  0  0
 20 42  1  0  0  0  0
M  CHG  1  13  -1
M  END
> <s_m_source_file>
AV-unprocessed.smi

> <i_m_source_file_index>
2024

> <i_lp_mmshare_version>
43012

> <i_f3d_flags>
0

> <s_epik_input>
W0NIM11OMVtDSDJdW0NIMl1OKFtDSDJdW0NIMl0xKUMoW0NIM10pKFtDSDNdKVtDSDJdW05IXUMoPU8pW05IXWMybltjSF1bY0hdczI=

> <s_epik_cmdline>
J2VwaWtfcHl0aG9uJywgJy1waCcsICc3LjAnLCAnLXRuJywgJzgnLCAnLW1hJywgJzIwMCcsICctbWV0YWxfYmluZGluZycsICctaW1hZScsICc8aW5maWxlLm1hZT4nLCAnLW9tYWUnLCAnPG91dGZpbGUubWFlPic=

> <r_lp_tautomer_probability>
0.999

> <r_epik_Ionization_Penalty>
10.1013

> <r_epik_Ionization_Penalty_Charging>
5.92713

> <r_epik_Ionization_Penalty_Neutral>
4.17417

> <r_epik_State_Penalty>
8.064

> <r_epik_Charging_Adjusted_Penalty>
13.9911

> <i_epik_Tot_Q>
-1

> <i_epik_Tot_abs_Q>
1

> <r_epik_Metal_State_Penalty>
4.03005

> <b_epik_Metal_Only>
1

> <s_lp_Force_Field>
OPLS_2005

> <r_lp_Energy>
45.4421

> <b_lp_Chiralities_Consistent>
1

> <s_lp_Variant>
AV-unprocessed.smi:2024-6

> <Gold.Version>
5.8.1

> <Gold.Id.Protein>
6NUR|6NUR_protein|mol2

> <Gold.PLP.Fitness>
45.4162

> <Gold.PLP.PLP>
-36.0844

> <Gold.PLP.part.hbond>
-3.0000

> <Gold.PLP.part.metal>
0.0000

> <Gold.PLP.part.buried>
-5.8005

> <Gold.PLP.part.nonpolar>
-28.8492

> <Gold.PLP.part.repulsive>
0.1832

> <Gold.PLP.ligand.clash>
0.0000

> <Gold.PLP.ligand.torsion>
0.3187

> <Gold.PLP.Chemscore.Hbond>
3.2715

> <Gold.PLP.Chemscore.CHOScore>
0.0000

> <Gold.PLP.Chemscore.Metal>
0.0000

> <Gold.Chemscore.Hbonds>
donor molecule, donor type, donor heavy atom, donor atom, acceptor molecule, acceptor atom, score
      P1  H  6896  6907       L1    12  1.00
      P1  H  6931  6943       L1    13  1.32
      P1  H  6934  6947       L1    13  0.63

> <Gold.PLP.Chemscore.Internal.Correction>
0.1547

> <Gold.Rescore>
     Score         DG    S(hbond)    S(metal)    S(lipo)     H(rot)  DE(clash)    DE(int)     intcor
     15.69     -17.58       2.00        0.00      79.92       1.53       0.09       1.80       ----

> <Gold.Chemscore.Fitness>
15.6913

> <Gold.Chemscore.DG>
-17.5832

> <Gold.Chemscore.ZeroCoef>
-5.4800

> <Gold.Chemscore.Hbond>
1.9978

> <Gold.Chemscore.Metal>
0.0000

> <Gold.Chemscore.Lipo>
79.9168

> <Gold.Chemscore.Internal_Hbond>
0.0000

> <Gold.Chemscore.DEClash>
0.0901

> <Gold.Chemscore.DEInternal>
1.8018

> <Gold.Chemscore.Rot>
1.5312

> <Gold.Chemscore.Internal.Correction>
   9.000000E+99

> <Gold.Chemscore.Hbonds>
donor molecule, donor type, donor heavy atom, donor atom, acceptor molecule, acceptor atom, score
      P1  H  6896  6907       L1    12  0.98
      P1  H  6931  6943       L1    13  0.19
      P1  H  6934  6947       L1    13  0.23

> <Gold.Chemscore.Hbond.Weighted>
-6.6727

> <Gold.Chemscore.Metal.Weighted>
-0.0000

> <Gold.Chemscore.Lipo.Weighted>
-9.3503

> <Gold.Chemscore.Internal_Hbond.Weighted>
0.0000

> <Gold.Chemscore.DEClash.Weighted>
0.0901

> <Gold.Chemscore.DEInternal.Weighted>
1.8018

> <Gold.Chemscore.Rot.Weighted>
3.9198

> <Gold.Chemscore.Internal.Correction.Weighted>
   9.000000E+99

> <Gold.Protein.RotatedTorsions>
[ 6907 6896 6895 6894 ] final  -75.77 input  -60.11 | X-H torsion
[ 7974 7965 7964 7962 ] final  -86.40 input  175.53 | X-H torsion
[ 8008 7997 7996 7995 ] final   68.47 input   59.86 | X-H torsion
[ 10167 10162 10161 10158 ] final -101.72 input  -65.29 | X-H torsion
[ 10718 10713 10712 10709 ] final   -2.63 input   66.30 | X-H torsion
[ 10763 10752 10751 10750 ] final  140.92 input  -60.55 | X-H torsion
[ 11005 11000 10999 10996 ] final  119.77 input  -57.11 | X-H torsion

> <Gold.Protein.ActiveResidues>
 VAL166  LYS551  ARG553  GLY616  TRP617  ASP618  TYR619  PRO620  LYS621  CYS622 
 ASP623  PHE694  ASN695  SER759  ASP760  ASP761  ALA762  ILE779  LEU786  VAL792 
 PHE793  MET794  SER795  GLU796  ALA797  LYS798  CYS799  TRP800  GLU811  SER814 

> <Gold.Protein.RotatedAtoms>
  150.7048  134.4671  159.5407 H   0  0  0  0  0  0  0  0  0  0  0  0  # atno 6907 bound_to 6896
  152.2334  134.8296  160.0479 H   0  0  0  0  0  0  0  0  0  0  0  0  # atno 6908 bound_to 6896
  151.9104  133.3524  159.3898 H   0  0  0  0  0  0  0  0  0  0  0  0  # atno 6909 bound_to 6896
  145.4804  140.9557  143.1868 H   0  0  0  0  0  0  0  0  0  0  0  0  # atno 7974 bound_to 7965
  155.7088  140.3494  155.4965 H   0  0  0  0  0  0  0  0  0  0  0  0  # atno 8008 bound_to 7997
  155.9374  140.1095  157.1105 H   0  0  0  0  0  0  0  0  0  0  0  0  # atno 8009 bound_to 7997
  154.4096  140.1219  156.4869 H   0  0  0  0  0  0  0  0  0  0  0  0  # atno 8010 bound_to 7997
  140.2383  143.3557  152.0824 H   0  0  0  0  0  0  0  0  0  0  0  0  # atno 10167 bound_to 10162
  156.7879  130.5352  149.5740 H   0  0  0  0  0  0  0  0  0  0  0  0  # atno 10718 bound_to 10713
  153.9306  135.2990  155.3446 H   0  0  0  0  0  0  0  0  0  0  0  0  # atno 10763 bound_to 10752
  154.7529  135.4972  153.9324 H   0  0  0  0  0  0  0  0  0  0  0  0  # atno 10764 bound_to 10752
  153.1094  135.6755  153.9633 H   0  0  0  0  0  0  0  0  0  0  0  0  # atno 10765 bound_to 10752
  139.9159  134.9630  156.7706 H   0  0  0  0  0  0  0  0  0  0  0  0  # atno 11005 bound_to 11000
  144.7892  139.6362  143.7120 LP  0  0  0  0  0  0  0  0  0  0  0  0  # atno 17320 bound_to 7965
  146.2344  139.5877  142.9533 LP  0  0  0  0  0  0  0  0  0  0  0  0  # atno 17321 bound_to 7965
  139.5086  144.6852  151.5905 LP  0  0  0  0  0  0  0  0  0  0  0  0  # atno 17342 bound_to 10162
  140.6133  143.9396  150.6469 LP  0  0  0  0  0  0  0  0  0  0  0  0  # atno 17343 bound_to 10162
  156.1177  130.6087  151.0146 LP  0  0  0  0  0  0  0  0  0  0  0  0  # atno 17370 bound_to 10713
  157.6615  131.0880  150.7828 LP  0  0  0  0  0  0  0  0  0  0  0  0  # atno 17371 bound_to 10713
  140.6624  133.9633  155.7812 LP  0  0  0  0  0  0  0  0  0  0  0  0  # atno 17394 bound_to 11000
  141.0634  134.0312  157.3627 LP  0  0  0  0  0  0  0  0  0  0  0  0  # atno 17395 bound_to 11000

$$$$
