AV-unprocessed.smi:298|AV-procd|sdf|2262|dock5
  -GOLD-   2262022153D 1   1.00000     0.00000
 Structure written by MMmdl.
 38 40  0  0  0  0  0  0  0  0  1 V2000
  152.7185  143.6106  162.1532 C   0  0  0  0  0  0  0  0  0  0  0  0
  152.3096  143.1225  160.7747 C   0  0  0  0  0  0  0  0  0  0  0  0
  152.4811  141.7576  160.4502 C   0  0  0  0  0  0  0  0  0  0  0  0
  152.1093  141.2625  159.1811 C   0  0  0  0  0  0  0  0  0  0  0  0
  152.1830  139.9829  158.6573 N   0  0  0  0  0  0  0  0  0  0  0  0
  151.6816  140.1622  157.4386 C   0  0  0  0  0  0  0  0  0  0  0  0
  151.2904  141.4086  157.1110 N   0  0  0  0  0  0  0  0  0  0  0  0
  150.7125  141.8434  155.8524 C   0  0  0  0  0  0  0  0  0  0  0  0
  149.4325  141.0606  155.4892 C   0  0  1  0  0  0  0  0  0  0  0  0
  148.4102  141.9614  155.1073 O   0  0  0  0  0  0  0  0  0  0  0  0
  149.6444  140.0148  154.3725 C   0  0  0  0  0  0  0  0  0  0  0  0
  150.3209  138.8077  154.8194 N   0  0  0  0  0  0  0  0  0  0  0  0
  151.4930  138.2824  154.4476 C   0  0  0  0  0  0  0  0  0  0  0  0
  151.8004  137.1514  155.0701 N   0  0  0  0  0  0  0  0  0  0  0  0
  150.6971  137.0419  155.8657 C   0  0  0  0  0  0  0  0  0  0  0  0
  150.5290  135.9265  156.7819 C   0  0  0  0  0  0  0  0  0  0  0  0
  150.3948  135.0381  157.5114 N   0  0  0  0  0  0  0  0  0  0  0  0
  149.7808  138.0023  155.7664 N   0  0  0  0  0  0  0  0  0  0  0  0
  151.5575  142.1779  158.2382 C   0  0  0  0  0  0  0  0  0  0  0  0
  151.3833  143.5382  158.5481 C   0  0  0  0  0  0  0  0  0  0  0  0
  151.7594  144.0162  159.8208 C   0  0  0  0  0  0  0  0  0  0  0  0
  151.5644  145.4863  160.1469 C   0  0  0  0  0  0  0  0  0  0  0  0
  153.1357  142.8022  162.7542 H   0  0  0  0  0  0  0  0  0  0  0  0
  151.8572  144.0133  162.6866 H   0  0  0  0  0  0  0  0  0  0  0  0
  153.4744  144.3923  162.0741 H   0  0  0  0  0  0  0  0  0  0  0  0
  152.8987  141.0765  161.1771 H   0  0  0  0  0  0  0  0  0  0  0  0
  151.5891  139.3397  156.7444 H   0  0  0  0  0  0  0  0  0  0  0  0
  150.5109  142.9126  155.9237 H   0  0  0  0  0  0  0  0  0  0  0  0
  151.4624  141.7203  155.0697 H   0  0  0  0  0  0  0  0  0  0  0  0
  149.0779  140.5388  156.3788 H   0  0  0  0  0  0  0  0  0  0  0  0
  148.5746  142.7955  155.5203 H   0  0  0  0  0  0  0  0  0  0  0  0
  148.6786  139.7234  153.9582 H   0  0  0  0  0  0  0  0  0  0  0  0
  150.2116  140.4489  153.5477 H   0  0  0  0  0  0  0  0  0  0  0  0
  152.1306  138.7342  153.7017 H   0  0  0  0  0  0  0  0  0  0  0  0
  150.9597  144.2067  157.8130 H   0  0  0  0  0  0  0  0  0  0  0  0
  151.1133  146.0231  159.3117 H   0  0  0  0  0  0  0  0  0  0  0  0
  152.5216  145.9582  160.3702 H   0  0  0  0  0  0  0  0  0  0  0  0
  150.9100  145.6031  161.0110 H   0  0  0  0  0  0  0  0  0  0  0  0
  1  2  1  0  0  0  0
  1 23  1  0  0  0  0
  1 24  1  0  0  0  0
  1 25  1  0  0  0  0
  2 21  1  0  0  0  0
  2  3  2  0  0  0  0
  3  4  1  0  0  0  0
  3 26  1  0  0  0  0
  4 19  2  0  0  0  0
  4  5  1  0  0  0  0
  5  6  2  0  0  0  0
  6  7  1  0  0  0  0
  6 27  1  0  0  0  0
  7  8  1  0  0  0  0
  7 19  1  0  0  0  0
  8  9  1  0  0  0  0
  8 28  1  0  0  0  0
  8 29  1  0  0  0  0
  9 10  1  0  0  0  0
  9 11  1  0  0  0  0
  9 30  1  0  0  0  0
 10 31  1  0  0  0  0
 11 12  1  0  0  0  0
 11 32  1  0  0  0  0
 11 33  1  0  0  0  0
 12 18  1  0  0  0  0
 12 13  1  0  0  0  0
 13 14  2  0  0  0  0
 13 34  1  0  0  0  0
 14 15  1  0  0  0  0
 15 16  1  0  0  0  0
 15 18  2  0  0  0  0
 16 17  3  0  0  0  0
 19 20  1  0  0  0  0
 20 21  2  0  0  0  0
 20 35  1  0  0  0  0
 21 22  1  0  0  0  0
 22 36  1  0  0  0  0
 22 37  1  0  0  0  0
 22 38  1  0  0  0  0
M  END
> <s_m_source_file>
AV-unprocessed.smi

> <i_m_source_file_index>
298

> <i_lp_mmshare_version>
43012

> <i_f3d_flags>
0

> <s_epik_input>
W0NIM11jKFtjSF0xKWMoW0NIM10pW2NIXWMoYzEyKW4oW2NIXW4yKVtDSDJdW0NASF0oW09IXSlbQ0gyXW4zW2NIXW5jKG4zKUMjTg==

> <s_epik_cmdline>
J2VwaWtfcHl0aG9uJywgJy1waCcsICc3LjAnLCAnLXRuJywgJzgnLCAnLW1hJywgJzIwMCcsICctbWV0YWxfYmluZGluZycsICctaW1hZScsICc8aW5maWxlLm1hZT4nLCAnLW9tYWUnLCAnPG91dGZpbGUubWFlPic=

> <r_epik_Ionization_Penalty>
0.0968684

> <r_epik_Ionization_Penalty_Charging>
0

> <r_epik_Ionization_Penalty_Neutral>
0.0968684

> <r_epik_State_Penalty>
0.0870047

> <r_epik_Charging_Adjusted_Penalty>
0.0870047

> <i_epik_Tot_Q>
0

> <i_epik_Tot_abs_Q>
0

> <r_epik_Metal_State_Penalty>
0.0746849

> <b_epik_Metal_Only>
0

> <s_lp_Force_Field>
OPLS_2005

> <r_lp_Energy>
12.6861

> <b_lp_Chiralities_Consistent>
1

> <s_lp_Variant>
AV-unprocessed.smi:298-2

> <Gold.Version>
5.8.1

> <Gold.Id.Protein>
6NUR|6NUR_protein|mol2

> <Gold.PLP.Fitness>
53.8349

> <Gold.PLP.PLP>
-47.4536

> <Gold.PLP.part.hbond>
-3.0000

> <Gold.PLP.part.metal>
0.0000

> <Gold.PLP.part.buried>
-7.1918

> <Gold.PLP.part.nonpolar>
-37.1126

> <Gold.PLP.part.repulsive>
0.1277

> <Gold.PLP.ligand.clash>
0.0000

> <Gold.PLP.ligand.torsion>
0.8237

> <Gold.PLP.Chemscore.Hbond>
2.6720

> <Gold.PLP.Chemscore.CHOScore>
0.0000

> <Gold.PLP.Chemscore.Metal>
0.0000

> <Gold.Chemscore.Hbonds>
donor molecule, donor type, donor heavy atom, donor atom, acceptor molecule, acceptor atom, score
      L1  H    10    31       P1  8028  1.00
      P1  H  6896  6907       L1    17  0.57
      P1  H 10752 10764       L1    14  1.00

> <Gold.PLP.Chemscore.Internal.Correction>
0.0128

> <Gold.Rescore>
     Score         DG    S(hbond)    S(metal)    S(lipo)     H(rot)  DE(clash)    DE(int)     intcor
     15.93     -16.91       2.07        0.00     104.92       3.03       0.13       0.86       ----

> <Gold.Chemscore.Fitness>
15.9305

> <Gold.Chemscore.DG>
-16.9108

> <Gold.Chemscore.ZeroCoef>
-5.4800

> <Gold.Chemscore.Hbond>
2.0707

> <Gold.Chemscore.Metal>
0.0000

> <Gold.Chemscore.Lipo>
104.9176

> <Gold.Chemscore.Internal_Hbond>
0.0000

> <Gold.Chemscore.DEClash>
0.1251

> <Gold.Chemscore.DEInternal>
0.8551

> <Gold.Chemscore.Rot>
3.0316

> <Gold.Chemscore.Internal.Correction>
   9.000000E+99

> <Gold.Chemscore.Hbonds>
donor molecule, donor type, donor heavy atom, donor atom, acceptor molecule, acceptor atom, score
      L1  H    10    31       P1  8028  0.98
      P1  H  6896  6907       L1    17  0.55
      P1  H 10752 10764       L1    14  0.92

> <Gold.Chemscore.Hbond.Weighted>
-6.9163

> <Gold.Chemscore.Metal.Weighted>
-0.0000

> <Gold.Chemscore.Lipo.Weighted>
-12.2754

> <Gold.Chemscore.Internal_Hbond.Weighted>
0.0000

> <Gold.Chemscore.DEClash.Weighted>
0.1251

> <Gold.Chemscore.DEInternal.Weighted>
0.8551

> <Gold.Chemscore.Rot.Weighted>
7.7609

> <Gold.Chemscore.Internal.Correction.Weighted>
   9.000000E+99

> <Gold.Protein.RotatedTorsions>
[ 6907 6896 6895 6894 ] final  -91.60 input  -60.11 | X-H torsion
[ 7974 7965 7964 7962 ] final -106.85 input  175.53 | X-H torsion
[ 8008 7997 7996 7995 ] final  -43.01 input   59.86 | X-H torsion
[ 10167 10162 10161 10158 ] final  -83.78 input  -65.29 | X-H torsion
[ 10718 10713 10712 10709 ] final  155.86 input   66.30 | X-H torsion
[ 10763 10752 10751 10750 ] final  -57.61 input  -60.55 | X-H torsion
[ 11005 11000 10999 10996 ] final  119.68 input  -57.11 | X-H torsion

> <Gold.Protein.ActiveResidues>
 VAL166  LYS551  ARG553  GLY616  TRP617  ASP618  TYR619  PRO620  LYS621  CYS622 
 ASP623  PHE694  ASN695  SER759  ASP760  ASP761  ALA762  ILE779  LEU786  VAL792 
 PHE793  MET794  SER795  GLU796  ALA797  LYS798  CYS799  TRP800  GLU811  SER814 

> <Gold.Protein.RotatedAtoms>
  150.6894  134.2252  159.4412 H   0  0  0  0  0  0  0  0  0  0  0  0  # atno 6907 bound_to 6896
  152.0206  134.9822  160.0580 H   0  0  0  0  0  0  0  0  0  0  0  0  # atno 6908 bound_to 6896
  152.1400  133.4423  159.4799 H   0  0  0  0  0  0  0  0  0  0  0  0  # atno 6909 bound_to 6896
  145.2127  140.9102  143.3305 H   0  0  0  0  0  0  0  0  0  0  0  0  # atno 7974 bound_to 7965
  154.3997  140.1459  156.3448 H   0  0  0  0  0  0  0  0  0  0  0  0  # atno 8008 bound_to 7997
  155.8323  140.3465  155.5559 H   0  0  0  0  0  0  0  0  0  0  0  0  # atno 8009 bound_to 7997
  155.8175  140.0893  157.1859 H   0  0  0  0  0  0  0  0  0  0  0  0  # atno 8010 bound_to 7997
  140.4195  143.2590  151.8909 H   0  0  0  0  0  0  0  0  0  0  0  0  # atno 10167 bound_to 10162
  157.2127  131.0701  151.1959 H   0  0  0  0  0  0  0  0  0  0  0  0  # atno 10718 bound_to 10713
  154.2252  135.6370  153.5157 H   0  0  0  0  0  0  0  0  0  0  0  0  # atno 10763 bound_to 10752
  152.9960  135.5506  154.6072 H   0  0  0  0  0  0  0  0  0  0  0  0  # atno 10764 bound_to 10752
  154.5542  135.2904  155.0954 H   0  0  0  0  0  0  0  0  0  0  0  0  # atno 10765 bound_to 10752
  139.9156  134.9630  156.7691 H   0  0  0  0  0  0  0  0  0  0  0  0  # atno 11005 bound_to 11000
  144.9841  139.3754  143.6247 LP  0  0  0  0  0  0  0  0  0  0  0  0  # atno 17320 bound_to 7965
  146.3394  139.8994  142.8796 LP  0  0  0  0  0  0  0  0  0  0  0  0  # atno 17321 bound_to 7965
  139.4782  144.5453  151.8468 LP  0  0  0  0  0  0  0  0  0  0  0  0  # atno 17342 bound_to 10162
  140.4550  144.1803  150.5900 LP  0  0  0  0  0  0  0  0  0  0  0  0  # atno 17343 bound_to 10162
  157.3656  130.7154  149.6530 LP  0  0  0  0  0  0  0  0  0  0  0  0  # atno 17370 bound_to 10713
  155.9689  130.4213  150.4464 LP  0  0  0  0  0  0  0  0  0  0  0  0  # atno 17371 bound_to 10713
  140.6635  133.9624  155.7817 LP  0  0  0  0  0  0  0  0  0  0  0  0  # atno 17394 bound_to 11000
  141.0627  134.0322  157.3636 LP  0  0  0  0  0  0  0  0  0  0  0  0  # atno 17395 bound_to 11000

$$$$
