AV-unprocessed.smi:1830|AV-procd|sdf|7437|dock2
  -GOLD-   22720 9123D 1   1.00000     0.00000
 Structure written by MMmdl.
 53 56  0  0  0  0  0  0  0  0  2 V2000
  149.9723  134.0511  155.8459 O   0  0  0  0  0  0  0  0  0  0  0  0
  149.5996  134.6957  154.8654 C   0  0  0  0  0  0  0  0  0  0  0  0
  148.9077  134.1590  153.8508 N   0  0  0  0  0  0  0  0  0  0  0  0
  148.4961  132.7614  153.7693 C   0  0  0  0  0  0  0  0  0  0  0  0
  147.1916  132.5896  152.9707 C   0  0  1  0  0  0  0  0  0  0  0  0
  147.1808  133.4572  151.6978 C   0  0  0  0  0  0  0  0  0  0  0  0
  145.9846  133.1978  150.8629 N   0  3  2  0  0  0  0  0  0  0  0  0
  144.7318  133.8660  151.2797 C   0  0  0  0  0  0  0  0  0  0  0  0
  143.5844  132.9343  150.8584 C   0  0  0  0  0  0  0  0  0  0  0  0
  144.2535  131.7703  150.1201 C   0  0  0  0  0  0  0  0  0  0  0  0
  145.6885  131.7660  150.6499 C   0  0  2  0  0  0  0  0  0  0  0  0
  145.8252  130.9593  151.9613 C   0  0  0  0  0  0  0  0  0  0  0  0
  147.0764  131.2263  152.5791 O   0  0  0  0  0  0  0  0  0  0  0  0
  149.8090  136.0085  154.6722 N   0  0  0  0  0  0  0  0  0  0  0  0
  150.4812  136.9322  155.5233 C   0  0  0  0  0  0  0  0  0  0  0  0
  151.4475  136.5071  156.4685 C   0  0  0  0  0  0  0  0  0  0  0  0
  152.0673  137.4569  157.2982 C   0  0  0  0  0  0  0  0  0  0  0  0
  151.7020  138.8051  157.1525 C   0  0  0  0  0  0  0  0  0  0  0  0
  150.8004  139.2290  156.2450 N   0  0  0  0  0  0  0  0  0  0  0  0
  150.2047  138.3270  155.4263 C   0  0  0  0  0  0  0  0  0  0  0  0
  149.2840  138.8364  154.4814 N   0  0  0  0  0  0  0  0  0  0  0  0
  149.2736  140.2752  154.2337 C   0  0  0  0  0  0  0  0  0  0  0  0
  147.8109  140.6643  153.9928 C   0  0  0  0  0  0  0  0  0  0  0  0
  147.1465  139.3490  153.5983 C   0  0  0  0  0  0  0  0  0  0  0  0
  147.9151  138.3328  154.4376 C   0  0  0  0  0  0  0  0  0  0  0  0
  148.6384  134.7597  153.0852 H   0  0  0  0  0  0  0  0  0  0  0  0
  149.2976  132.1757  153.3160 H   0  0  0  0  0  0  0  0  0  0  0  0
  148.3699  132.3793  154.7827 H   0  0  0  0  0  0  0  0  0  0  0  0
  146.3465  132.8622  153.6048 H   0  0  0  0  0  0  0  0  0  0  0  0
  147.2376  134.5181  151.9451 H   0  0  0  0  0  0  0  0  0  0  0  0
  148.0620  133.2284  151.0971 H   0  0  0  0  0  0  0  0  0  0  0  0
  144.7069  134.0249  152.3584 H   0  0  0  0  0  0  0  0  0  0  0  0
  144.6587  134.8424  150.8002 H   0  0  0  0  0  0  0  0  0  0  0  0
  143.0636  132.5670  151.7437 H   0  0  0  0  0  0  0  0  0  0  0  0
  142.8490  133.4414  150.2331 H   0  0  0  0  0  0  0  0  0  0  0  0
  143.7375  130.8207  150.2662 H   0  0  0  0  0  0  0  0  0  0  0  0
  144.2625  131.9784  149.0491 H   0  0  0  0  0  0  0  0  0  0  0  0
  146.3790  131.3623  149.9081 H   0  0  0  0  0  0  0  0  0  0  0  0
  145.0184  131.1886  152.6595 H   0  0  0  0  0  0  0  0  0  0  0  0
  145.7576  129.8919  151.7497 H   0  0  0  0  0  0  0  0  0  0  0  0
  149.3540  136.4172  153.8692 H   0  0  0  0  0  0  0  0  0  0  0  0
  151.7298  135.4703  156.5667 H   0  0  0  0  0  0  0  0  0  0  0  0
  152.8031  137.1580  158.0301 H   0  0  0  0  0  0  0  0  0  0  0  0
  152.1508  139.5651  157.7747 H   0  0  0  0  0  0  0  0  0  0  0  0
  149.7042  140.8391  155.0624 H   0  0  0  0  0  0  0  0  0  0  0  0
  149.8626  140.4815  153.3400 H   0  0  0  0  0  0  0  0  0  0  0  0
  147.3717  141.0314  154.9213 H   0  0  0  0  0  0  0  0  0  0  0  0
  147.6982  141.4422  153.2372 H   0  0  0  0  0  0  0  0  0  0  0  0
  146.0735  139.3358  153.7914 H   0  0  0  0  0  0  0  0  0  0  0  0
  147.3049  139.1539  152.5368 H   0  0  0  0  0  0  0  0  0  0  0  0
  147.8721  137.3333  154.0041 H   0  0  0  0  0  0  0  0  0  0  0  0
  147.4846  138.2920  155.4388 H   0  0  0  0  0  0  0  0  0  0  0  0
  146.1846  133.5747  149.9473 H   0  0  0  0  0  0  0  0  0  0  0  0
  1  2  2  0  0  0  0
  2  3  1  0  0  0  0
  2 14  1  0  0  0  0
  3  4  1  0  0  0  0
  3 26  1  0  0  0  0
  4  5  1  0  0  0  0
  4 27  1  0  0  0  0
  4 28  1  0  0  0  0
  5 13  1  0  0  0  0
  5  6  1  0  0  0  0
  5 29  1  0  0  0  0
  6  7  1  0  0  0  0
  6 30  1  0  0  0  0
  6 31  1  0  0  0  0
  7 11  1  0  0  0  0
  7  8  1  0  0  0  0
  7 53  1  0  0  0  0
  8  9  1  0  0  0  0
  8 32  1  0  0  0  0
  8 33  1  0  0  0  0
  9 10  1  0  0  0  0
  9 34  1  0  0  0  0
  9 35  1  0  0  0  0
 10 11  1  0  0  0  0
 10 36  1  0  0  0  0
 10 37  1  0  0  0  0
 11 12  1  0  0  0  0
 11 38  1  0  0  0  0
 12 13  1  0  0  0  0
 12 39  1  0  0  0  0
 12 40  1  0  0  0  0
 14 15  1  0  0  0  0
 14 41  1  0  0  0  0
 15 20  1  0  0  0  0
 15 16  2  0  0  0  0
 16 17  1  0  0  0  0
 16 42  1  0  0  0  0
 17 18  2  0  0  0  0
 17 43  1  0  0  0  0
 18 19  1  0  0  0  0
 18 44  1  0  0  0  0
 19 20  2  0  0  0  0
 20 21  1  0  0  0  0
 21 25  1  0  0  0  0
 21 22  1  0  0  0  0
 22 23  1  0  0  0  0
 22 45  1  0  0  0  0
 22 46  1  0  0  0  0
 23 24  1  0  0  0  0
 23 47  1  0  0  0  0
 23 48  1  0  0  0  0
 24 25  1  0  0  0  0
 24 49  1  0  0  0  0
 24 50  1  0  0  0  0
 25 51  1  0  0  0  0
 25 52  1  0  0  0  0
M  CHG  1   7   1
M  END
> <s_m_source_file>
AV-unprocessed.smi

> <i_m_source_file_index>
1830

> <i_lp_mmshare_version>
43012

> <i_f3d_flags>
0

> <s_epik_input>
W0NIMl0xW0NIMl1bQ0gyXVtDQEhdKE4xMilbQ0gyXU9bQ0BASF0oW0NIMl0yKVtDSDJdW05IXUMoPU8pW05IXWMzW2NIXVtjSF1bY0hdbmMzTjRbQ0gyXVtDSDJdW0NIMl1bQ0gyXTQ=

> <s_epik_cmdline>
J2VwaWtfcHl0aG9uJywgJy1waCcsICc3LjAnLCAnLXRuJywgJzgnLCAnLW1hJywgJzIwMCcsICctbWV0YWxfYmluZGluZycsICctaW1hZScsICc8aW5maWxlLm1hZT4nLCAnLW9tYWUnLCAnPG91dGZpbGUubWFlPic=

> <r_lp_tautomer_probability>
1

> <r_epik_Ionization_Penalty>
0.193547

> <r_epik_Ionization_Penalty_Charging>
0.10673

> <r_epik_Ionization_Penalty_Neutral>
0.0868166

> <r_epik_State_Penalty>
0.173595

> <r_epik_Charging_Adjusted_Penalty>
0.280326

> <i_epik_Tot_Q>
1

> <i_epik_Tot_abs_Q>
1

> <r_epik_Metal_State_Penalty>
0.164683

> <b_epik_Metal_Only>
0

> <s_lp_Force_Field>
OPLS_2005

> <r_lp_Energy>
64.4771

> <b_lp_Chiralities_Consistent>
1

> <s_lp_Variant>
AV-unprocessed.smi:1830-6

> <Gold.Version>
5.8.1

> <Gold.Id.Protein>
6NUR|6NUR_protein|mol2

> <Gold.PLP.Fitness>
41.3707

> <Gold.PLP.PLP>
-36.5978

> <Gold.PLP.part.hbond>
-2.0000

> <Gold.PLP.part.metal>
0.0000

> <Gold.PLP.part.buried>
-3.7731

> <Gold.PLP.part.nonpolar>
-31.6265

> <Gold.PLP.part.repulsive>
0.4593

> <Gold.PLP.ligand.clash>
0.0000

> <Gold.PLP.ligand.torsion>
0.6390

> <Gold.PLP.Chemscore.Hbond>
1.8960

> <Gold.PLP.Chemscore.CHOScore>
0.0000

> <Gold.PLP.Chemscore.Metal>
0.0000

> <Gold.Chemscore.Hbonds>
donor molecule, donor type, donor heavy atom, donor atom, acceptor molecule, acceptor atom, score
      L1  H     3    26       P1  7948  1.00
      L1  H    14    41       P1  7948  0.89

> <Gold.PLP.Chemscore.Internal.Correction>
0.3628

> <Gold.Rescore>
     Score         DG    S(hbond)    S(metal)    S(lipo)     H(rot)  DE(clash)    DE(int)     intcor
     14.43     -17.59       1.15        0.00     101.63       1.41       0.74       2.43       ----

> <Gold.Chemscore.Fitness>
14.4274

> <Gold.Chemscore.DG>
-17.5943

> <Gold.Chemscore.ZeroCoef>
-5.4800

> <Gold.Chemscore.Hbond>
1.1450

> <Gold.Chemscore.Metal>
0.0000

> <Gold.Chemscore.Lipo>
101.6327

> <Gold.Chemscore.Internal_Hbond>
0.0000

> <Gold.Chemscore.DEClash>
0.7398

> <Gold.Chemscore.DEInternal>
2.4271

> <Gold.Chemscore.Rot>
1.4067

> <Gold.Chemscore.Internal.Correction>
   9.000000E+99

> <Gold.Chemscore.Hbonds>
donor molecule, donor type, donor heavy atom, donor atom, acceptor molecule, acceptor atom, score
      L1  H     3    26       P1  7948  0.33
      L1  H    14    41       P1  7948  0.72

> <Gold.Chemscore.Hbond.Weighted>
-3.8244

> <Gold.Chemscore.Metal.Weighted>
-0.0000

> <Gold.Chemscore.Lipo.Weighted>
-11.8910

> <Gold.Chemscore.Internal_Hbond.Weighted>
0.0000

> <Gold.Chemscore.DEClash.Weighted>
0.7398

> <Gold.Chemscore.DEInternal.Weighted>
2.4271

> <Gold.Chemscore.Rot.Weighted>
3.6011

> <Gold.Chemscore.Internal.Correction.Weighted>
   9.000000E+99

> <Gold.Protein.RotatedTorsions>
[ 6907 6896 6895 6894 ] final  104.72 input  -60.11 | X-H torsion
[ 7974 7965 7964 7962 ] final  105.52 input  175.53 | X-H torsion
[ 8008 7997 7996 7995 ] final -162.26 input   59.86 | X-H torsion
[ 10167 10162 10161 10158 ] final  123.80 input  -65.29 | X-H torsion
[ 10718 10713 10712 10709 ] final  -47.15 input   66.30 | X-H torsion
[ 10763 10752 10751 10750 ] final   32.50 input  -60.55 | X-H torsion
[ 11005 11000 10999 10996 ] final -102.22 input  -57.11 | X-H torsion

> <Gold.Protein.ActiveResidues>
 VAL166  LYS551  ARG553  GLY616  TRP617  ASP618  TYR619  PRO620  LYS621  CYS622 
 ASP623  PHE694  ASN695  SER759  ASP760  ASP761  ALA762  ILE779  LEU786  VAL792 
 PHE793  MET794  SER795  GLU796  ALA797  LYS798  CYS799  TRP800  GLU811  SER814 

> <Gold.Protein.RotatedAtoms>
  152.5255  133.9635  159.7727 H   0  0  0  0  0  0  0  0  0  0  0  0  # atno 6907 bound_to 6896
  150.9921  133.6131  159.2714 H   0  0  0  0  0  0  0  0  0  0  0  0  # atno 6908 bound_to 6896
  151.3271  135.0839  159.9379 H   0  0  0  0  0  0  0  0  0  0  0  0  # atno 6909 bound_to 6896
  145.3186  139.2519  143.3724 H   0  0  0  0  0  0  0  0  0  0  0  0  # atno 7974 bound_to 7965
  155.8041  140.0896  157.1940 H   0  0  0  0  0  0  0  0  0  0  0  0  # atno 8008 bound_to 7997
  154.3981  140.1467  156.3369 H   0  0  0  0  0  0  0  0  0  0  0  0  # atno 8009 bound_to 7997
  155.8432  140.3438  155.5648 H   0  0  0  0  0  0  0  0  0  0  0  0  # atno 8010 bound_to 7997
  139.5778  144.6972  151.3607 H   0  0  0  0  0  0  0  0  0  0  0  0  # atno 10167 bound_to 10162
  156.2113  130.4161  149.9111 H   0  0  0  0  0  0  0  0  0  0  0  0  # atno 10718 bound_to 10713
  153.0259  135.6411  154.1365 H   0  0  0  0  0  0  0  0  0  0  0  0  # atno 10763 bound_to 10752
  154.1093  135.2854  155.3235 H   0  0  0  0  0  0  0  0  0  0  0  0  # atno 10764 bound_to 10752
  154.6342  135.5482  153.7778 H   0  0  0  0  0  0  0  0  0  0  0  0  # atno 10765 bound_to 10752
  141.1198  133.8541  157.1332 H   0  0  0  0  0  0  0  0  0  0  0  0  # atno 11005 bound_to 11000
  146.3091  140.3739  142.8677 LP  0  0  0  0  0  0  0  0  0  0  0  0  # atno 17320 bound_to 7965
  144.8957  140.7580  143.5898 LP  0  0  0  0  0  0  0  0  0  0  0  0  # atno 17321 bound_to 7965
  140.7059  143.7514  150.7481 LP  0  0  0  0  0  0  0  0  0  0  0  0  # atno 17342 bound_to 10162
  140.1039  143.4762  152.2409 LP  0  0  0  0  0  0  0  0  0  0  0  0  # atno 17343 bound_to 10162
  156.6789  130.8850  151.3573 LP  0  0  0  0  0  0  0  0  0  0  0  0  # atno 17370 bound_to 10713
  157.7040  130.9364  150.0872 LP  0  0  0  0  0  0  0  0  0  0  0  0  # atno 17371 bound_to 10713
  140.0147  134.9973  157.0468 LP  0  0  0  0  0  0  0  0  0  0  0  0  # atno 17394 bound_to 11000
  140.4540  134.1552  155.7184 LP  0  0  0  0  0  0  0  0  0  0  0  0  # atno 17395 bound_to 11000

$$$$
