AV-unprocessed.smi:1072|AV-procd|sdf|4688|dock10
  -GOLD-   22720 3203D 1   1.00000     0.00000
 Structure written by MMmdl.
 45 46  0  0  0  0  0  0  0  0  2 V2000
  146.8247  136.5030  162.5550 C   0  0  0  0  0  0  0  0  0  0  0  0
  147.3439  136.7340  161.1519 C   0  0  0  0  0  0  0  0  0  0  0  0
  146.5125  136.9663  160.2089 N   0  0  0  0  0  0  0  0  0  0  0  0
  146.9891  137.1815  158.9045 C   0  0  0  0  0  0  0  0  0  0  0  0
  145.9314  137.4476  157.8474 C   0  0  0  0  0  0  0  0  0  0  0  0
  148.3240  137.1490  158.6263 C   0  0  0  0  0  0  0  0  0  0  0  0
  148.8891  137.3728  157.2236 C   0  0  0  0  0  0  0  0  0  0  0  0
  149.3811  138.7897  156.9180 C   0  0  0  0  0  0  0  0  0  0  0  0
  148.9851  139.3785  155.9122 O   0  0  0  0  0  0  0  0  0  0  0  0
  150.2518  139.3090  157.8028 N   0  0  0  0  0  0  0  0  0  0  0  0
  150.9286  140.6137  157.7918 C   0  0  1  0  0  0  0  0  0  0  0  0
  151.5388  140.7445  156.3796 C   0  0  0  0  0  0  0  0  0  0  0  0
  149.9041  141.7554  158.0402 C   0  0  0  0  0  0  0  0  0  0  0  0
  150.5636  143.1363  158.2050 C   0  0  0  0  0  0  0  0  0  0  0  0
  151.6365  143.1268  159.3087 C   0  0  2  0  0  0  0  0  0  0  0  0
  152.2814  144.5099  159.4754 C   0  0  0  0  0  0  0  0  0  0  0  0
  152.6918  142.0435  159.0223 C   0  0  0  0  0  0  0  0  0  0  0  0
  152.0508  140.6528  158.8658 C   0  0  0  0  0  0  0  0  0  0  0  0
  149.2493  136.8819  159.7422 C   0  0  0  0  0  0  0  0  0  0  0  0
  150.4642  136.8532  159.5493 O   0  0  0  0  0  0  0  0  0  0  0  0
  148.7083  136.6746  160.9768 N   0  5  0  0  0  0  0  0  0  0  0  0
  145.7815  136.8096  162.6427 H   0  0  0  0  0  0  0  0  0  0  0  0
  147.4079  137.0748  163.2777 H   0  0  0  0  0  0  0  0  0  0  0  0
  146.8949  135.4458  162.8116 H   0  0  0  0  0  0  0  0  0  0  0  0
  145.9404  136.6622  157.0917 H   0  0  0  0  0  0  0  0  0  0  0  0
  146.1092  138.4049  157.3574 H   0  0  0  0  0  0  0  0  0  0  0  0
  144.9336  137.4783  158.2865 H   0  0  0  0  0  0  0  0  0  0  0  0
  149.7038  136.6785  157.0170 H   0  0  0  0  0  0  0  0  0  0  0  0
  148.1142  137.1089  156.5031 H   0  0  0  0  0  0  0  0  0  0  0  0
  150.4865  138.7156  158.5851 H   0  0  0  0  0  0  0  0  0  0  0  0
  152.0769  141.6811  156.2411 H   0  0  0  0  0  0  0  0  0  0  0  0
  150.7668  140.7019  155.6103 H   0  0  0  0  0  0  0  0  0  0  0  0
  152.2435  139.9369  156.1778 H   0  0  0  0  0  0  0  0  0  0  0  0
  149.1757  141.7903  157.2291 H   0  0  0  0  0  0  0  0  0  0  0  0
  149.3285  141.5623  158.9450 H   0  0  0  0  0  0  0  0  0  0  0  0
  151.0027  143.4574  157.2603 H   0  0  0  0  0  0  0  0  0  0  0  0
  149.7962  143.8731  158.4446 H   0  0  0  0  0  0  0  0  0  0  0  0
  151.1468  142.8768  160.2511 H   0  0  0  0  0  0  0  0  0  0  0  0
  152.7909  144.8228  158.5634 H   0  0  0  0  0  0  0  0  0  0  0  0
  153.0145  144.5068  160.2824 H   0  0  0  0  0  0  0  0  0  0  0  0
  151.5324  145.2653  159.7147 H   0  0  0  0  0  0  0  0  0  0  0  0
  153.2567  142.2999  158.1259 H   0  0  0  0  0  0  0  0  0  0  0  0
  153.4181  142.0133  159.8354 H   0  0  0  0  0  0  0  0  0  0  0  0
  151.6562  140.3685  159.8408 H   0  0  0  0  0  0  0  0  0  0  0  0
  152.8211  139.9166  158.6330 H   0  0  0  0  0  0  0  0  0  0  0  0
  1  2  1  0  0  0  0
  1 22  1  0  0  0  0
  1 23  1  0  0  0  0
  1 24  1  0  0  0  0
  2 21  1  0  0  0  0
  2  3  2  0  0  0  0
  3  4  1  0  0  0  0
  4  5  1  0  0  0  0
  4  6  2  0  0  0  0
  5 25  1  0  0  0  0
  5 26  1  0  0  0  0
  5 27  1  0  0  0  0
  6  7  1  0  0  0  0
  6 19  1  0  0  0  0
  7  8  1  0  0  0  0
  7 28  1  0  0  0  0
  7 29  1  0  0  0  0
  8  9  2  0  0  0  0
  8 10  1  0  0  0  0
 10 11  1  0  0  0  0
 10 30  1  0  0  0  0
 11 18  1  0  0  0  0
 11 12  1  0  0  0  0
 11 13  1  0  0  0  0
 12 31  1  0  0  0  0
 12 32  1  0  0  0  0
 12 33  1  0  0  0  0
 13 14  1  0  0  0  0
 13 34  1  0  0  0  0
 13 35  1  0  0  0  0
 14 15  1  0  0  0  0
 14 36  1  0  0  0  0
 14 37  1  0  0  0  0
 15 16  1  0  0  0  0
 15 17  1  0  0  0  0
 15 38  1  0  0  0  0
 16 39  1  0  0  0  0
 16 40  1  0  0  0  0
 16 41  1  0  0  0  0
 17 18  1  0  0  0  0
 17 42  1  0  0  0  0
 17 43  1  0  0  0  0
 18 44  1  0  0  0  0
 18 45  1  0  0  0  0
 19 20  2  0  0  0  0
 19 21  1  0  0  0  0
M  CHG  1  21  -1
M  END
> <s_m_source_file>
AV-unprocessed.smi

> <i_m_source_file_index>
1072

> <i_lp_mmshare_version>
43012

> <i_f3d_flags>
0

> <s_epik_input>
W0NIM11jMW5jKFtDSDNdKWMoYyg9TylbbkhdMSlbQ0gyXUMoPU8pW05IXVtDQEBdMihbQ0gzXSlbQ0gyXVtDSDJdW0NAQEhdKFtDSDNdKVtDSDJdW0NIMl0y

> <s_epik_cmdline>
J2VwaWtfcHl0aG9uJywgJy1waCcsICc3LjAnLCAnLXRuJywgJzgnLCAnLW1hJywgJzIwMCcsICctbWV0YWxfYmluZGluZycsICctaW1hZScsICc8aW5maWxlLm1hZT4nLCAnLW9tYWUnLCAnPG91dGZpbGUubWFlPic=

> <r_lp_tautomer_probability>
0.839158

> <r_epik_Ionization_Penalty>
6.73882

> <r_epik_Ionization_Penalty_Charging>
8.02239e-08

> <r_epik_Ionization_Penalty_Neutral>
6.73882

> <r_epik_State_Penalty>
4.55873

> <r_epik_Charging_Adjusted_Penalty>
4.55873

> <i_epik_Tot_Q>
-1

> <i_epik_Tot_abs_Q>
1

> <r_epik_Metal_State_Penalty>
0.872514

> <b_epik_Metal_Only>
1

> <s_lp_Force_Field>
OPLS_2005

> <r_lp_Energy>
18.4266

> <b_lp_Chiralities_Consistent>
1

> <s_lp_Variant>
AV-unprocessed.smi:1072-6

> <Gold.Version>
5.8.1

> <Gold.Id.Protein>
6NUR|6NUR_protein|mol2

> <Gold.PLP.Fitness>
37.9553

> <Gold.PLP.PLP>
-30.0129

> <Gold.PLP.part.hbond>
-2.1658

> <Gold.PLP.part.metal>
0.0000

> <Gold.PLP.part.buried>
-3.9848

> <Gold.PLP.part.nonpolar>
-24.6021

> <Gold.PLP.part.repulsive>
0.1000

> <Gold.PLP.ligand.clash>
0.0000

> <Gold.PLP.ligand.torsion>
0.5305

> <Gold.PLP.Chemscore.Hbond>
3.0000

> <Gold.PLP.Chemscore.CHOScore>
0.0000

> <Gold.PLP.Chemscore.Metal>
0.0000

> <Gold.Chemscore.Hbonds>
donor molecule, donor type, donor heavy atom, donor atom, acceptor molecule, acceptor atom, score
      P1  H  6896  6907       L1    20  1.00
      P1  H  6931  6943       L1    21  1.50

> <Gold.PLP.Chemscore.Internal.Correction>
0.0033

> <Gold.Rescore>
     Score         DG    S(hbond)    S(metal)    S(lipo)     H(rot)  DE(clash)    DE(int)     intcor
     13.95     -14.39       1.01        0.00      78.63       1.43       0.01       0.44       ----

> <Gold.Chemscore.Fitness>
13.9456

> <Gold.Chemscore.DG>
-14.3944

> <Gold.Chemscore.ZeroCoef>
-5.4800

> <Gold.Chemscore.Hbond>
1.0138

> <Gold.Chemscore.Metal>
0.0000

> <Gold.Chemscore.Lipo>
78.6252

> <Gold.Chemscore.Internal_Hbond>
0.0000

> <Gold.Chemscore.DEClash>
0.0121

> <Gold.Chemscore.DEInternal>
0.4367

> <Gold.Chemscore.Rot>
1.4339

> <Gold.Chemscore.Internal.Correction>
   9.000000E+99

> <Gold.Chemscore.Hbonds>
donor molecule, donor type, donor heavy atom, donor atom, acceptor molecule, acceptor atom, score
      P1  H  6896  6907       L1    20  0.37
      P1  H  6931  6943       L1    21  0.04

> <Gold.Chemscore.Hbond.Weighted>
-3.3860

> <Gold.Chemscore.Metal.Weighted>
-0.0000

> <Gold.Chemscore.Lipo.Weighted>
-9.1991

> <Gold.Chemscore.Internal_Hbond.Weighted>
0.0000

> <Gold.Chemscore.DEClash.Weighted>
0.0121

> <Gold.Chemscore.DEInternal.Weighted>
0.4367

> <Gold.Chemscore.Rot.Weighted>
3.6708

> <Gold.Chemscore.Internal.Correction.Weighted>
   9.000000E+99

> <Gold.Protein.RotatedTorsions>
[ 6907 6896 6895 6894 ] final  -46.24 input  -60.11 | X-H torsion
[ 7974 7965 7964 7962 ] final    5.27 input  175.53 | X-H torsion
[ 8008 7997 7996 7995 ] final -105.93 input   59.86 | X-H torsion
[ 10167 10162 10161 10158 ] final  -67.66 input  -65.29 | X-H torsion
[ 10718 10713 10712 10709 ] final   37.50 input   66.30 | X-H torsion
[ 10763 10752 10751 10750 ] final -179.06 input  -60.55 | X-H torsion
[ 11005 11000 10999 10996 ] final   -9.81 input  -57.11 | X-H torsion

> <Gold.Protein.ActiveResidues>
 VAL166  LYS551  ARG553  GLY616  TRP617  ASP618  TYR619  PRO620  LYS621  CYS622 
 ASP623  PHE694  ASN695  SER759  ASP760  ASP761  ALA762  ILE779  LEU786  VAL792 
 PHE793  MET794  SER795  GLU796  ALA797  LYS798  CYS799  TRP800  GLU811  SER814 

> <Gold.Protein.RotatedAtoms>
  150.9133  134.8550  159.7439 H   0  0  0  0  0  0  0  0  0  0  0  0  # atno 6907 bound_to 6896
  152.4955  134.4326  159.9527 H   0  0  0  0  0  0  0  0  0  0  0  0  # atno 6908 bound_to 6896
  151.4367  133.3615  159.2811 H   0  0  0  0  0  0  0  0  0  0  0  0  # atno 6909 bound_to 6896
  146.2441  140.0409  142.8382 H   0  0  0  0  0  0  0  0  0  0  0  0  # atno 7974 bound_to 7965
  154.9071  140.0411  157.1925 H   0  0  0  0  0  0  0  0  0  0  0  0  # atno 8008 bound_to 7997
  154.8386  140.2910  155.5653 H   0  0  0  0  0  0  0  0  0  0  0  0  # atno 8009 bound_to 7997
  156.2991  140.2487  156.3324 H   0  0  0  0  0  0  0  0  0  0  0  0  # atno 8010 bound_to 7997
  140.5566  143.2312  151.6809 H   0  0  0  0  0  0  0  0  0  0  0  0  # atno 10167 bound_to 10162
  157.3476  130.7581  149.6956 H   0  0  0  0  0  0  0  0  0  0  0  0  # atno 10718 bound_to 10713
  154.5399  135.2805  155.1105 H   0  0  0  0  0  0  0  0  0  0  0  0  # atno 10763 bound_to 10752
  154.2592  135.6325  153.5272 H   0  0  0  0  0  0  0  0  0  0  0  0  # atno 10764 bound_to 10752
  152.9976  135.5601  154.5935 H   0  0  0  0  0  0  0  0  0  0  0  0  # atno 10765 bound_to 10752
  140.7381  133.8693  155.8946 H   0  0  0  0  0  0  0  0  0  0  0  0  # atno 11005 bound_to 11000
  145.1070  140.9381  143.4679 LP  0  0  0  0  0  0  0  0  0  0  0  0  # atno 17320 bound_to 7965
  145.0614  139.3102  143.5878 LP  0  0  0  0  0  0  0  0  0  0  0  0  # atno 17321 bound_to 7965
  139.5051  144.3731  152.0450 LP  0  0  0  0  0  0  0  0  0  0  0  0  # atno 17342 bound_to 10162
  140.2853  144.3814  150.6105 LP  0  0  0  0  0  0  0  0  0  0  0  0  # atno 17343 bound_to 10162
  155.9716  130.4149  150.4158 LP  0  0  0  0  0  0  0  0  0  0  0  0  # atno 17370 bound_to 10713
  157.2216  131.0483  151.2543 LP  0  0  0  0  0  0  0  0  0  0  0  0  # atno 17371 bound_to 10713
  140.9861  134.1341  157.4451 LP  0  0  0  0  0  0  0  0  0  0  0  0  # atno 17394 bound_to 11000
  139.8812  135.0026  156.6135 LP  0  0  0  0  0  0  0  0  0  0  0  0  # atno 17395 bound_to 11000

$$$$
