AV-unprocessed.smi:1613|AV-procd|sdf|6479|dock4
  -GOLD-   22720 7143D 1   1.00000     0.00000
 Structure written by MMmdl.
 53 55  0  0  0  0  0  0  0  0  2 V2000
  152.9055  140.0093  155.8516 O   0  0  0  0  0  0  0  0  0  0  0  0
  151.8993  139.8150  156.5317 C   0  0  0  0  0  0  0  0  0  0  0  0
  151.9168  140.1615  158.0313 C   0  0  0  0  0  0  0  0  0  0  0  0
  152.1333  141.5916  158.3254 N   0  0  0  0  0  0  0  0  0  0  0  0
  153.1851  141.9228  159.1965 C   0  0  0  0  0  0  0  0  0  0  0  0
  153.4256  143.1987  159.5313 C   0  0  0  0  0  0  0  0  0  0  0  0
  152.5365  144.2078  158.9410 C   0  0  0  0  0  0  0  0  0  0  0  0
  151.5781  143.9093  158.1462 N   0  0  0  0  0  0  0  0  0  0  0  0
  151.3289  142.5701  157.7933 C   0  0  0  0  0  0  0  0  0  0  0  0
  150.4031  142.2766  157.0368 O   0  0  0  0  0  0  0  0  0  0  0  0
  150.7549  139.3325  156.0219 N   0  0  0  0  0  0  0  0  0  0  0  0
  150.4727  139.0557  154.6168 C   0  0  2  0  0  0  0  0  0  0  0  0
  148.9723  138.7809  154.3909 C   0  0  0  0  0  0  0  0  0  0  0  0
  148.5196  137.4939  155.1043 C   0  0  0  0  0  0  0  0  0  0  0  0
  149.3390  136.3290  154.6815 N   0  3  2  0  0  0  0  0  0  0  0  0
  148.8543  135.0192  155.1943 C   0  0  0  0  0  0  0  0  0  0  0  0
  149.6510  133.7816  154.6991 C   0  0  0  0  0  0  0  0  0  0  0  0
  148.7717  132.8787  153.8091 C   0  0  0  0  0  0  0  0  0  0  0  0
  149.5441  131.6504  153.3014 C   0  0  0  0  0  0  0  0  0  0  0  0
  150.1230  130.8365  154.4677 C   0  0  0  0  0  0  0  0  0  0  0  0
  150.9965  131.7158  155.3739 C   0  0  0  0  0  0  0  0  0  0  0  0
  150.2225  132.9482  155.8697 C   0  0  0  0  0  0  0  0  0  0  0  0
  150.7986  136.5420  154.8753 C   0  0  0  0  0  0  0  0  0  0  0  0
  151.2753  137.8236  154.1641 C   0  0  0  0  0  0  0  0  0  0  0  0
  150.9755  139.8225  158.4665 H   0  0  0  0  0  0  0  0  0  0  0  0
  152.6874  139.5612  158.5184 H   0  0  0  0  0  0  0  0  0  0  0  0
  153.7641  141.0898  159.5683 H   0  0  0  0  0  0  0  0  0  0  0  0
  154.2140  143.5213  160.1950 H   0  0  0  0  0  0  0  0  0  0  0  0
  152.7465  145.2415  159.2270 H   0  0  0  0  0  0  0  0  0  0  0  0
  149.9919  139.1939  156.6687 H   0  0  0  0  0  0  0  0  0  0  0  0
  150.7802  139.9182  154.0230 H   0  0  0  0  0  0  0  0  0  0  0  0
  148.3710  139.6250  154.7303 H   0  0  0  0  0  0  0  0  0  0  0  0
  148.7803  138.6863  153.3215 H   0  0  0  0  0  0  0  0  0  0  0  0
  148.5917  137.6303  156.1832 H   0  0  0  0  0  0  0  0  0  0  0  0
  147.4707  137.3017  154.8766 H   0  0  0  0  0  0  0  0  0  0  0  0
  148.8468  135.0503  156.2845 H   0  0  0  0  0  0  0  0  0  0  0  0
  147.8052  134.9303  154.9085 H   0  0  0  0  0  0  0  0  0  0  0  0
  150.4867  134.1075  154.0813 H   0  0  0  0  0  0  0  0  0  0  0  0
  147.8936  132.5513  154.3674 H   0  0  0  0  0  0  0  0  0  0  0  0
  148.4005  133.4459  152.9547 H   0  0  0  0  0  0  0  0  0  0  0  0
  148.8877  131.0208  152.6998 H   0  0  0  0  0  0  0  0  0  0  0  0
  150.3515  131.9717  152.6427 H   0  0  0  0  0  0  0  0  0  0  0  0
  149.3094  130.4043  155.0516 H   0  0  0  0  0  0  0  0  0  0  0  0
  150.7074  129.9997  154.0844 H   0  0  0  0  0  0  0  0  0  0  0  0
  151.3509  131.1332  156.2248 H   0  0  0  0  0  0  0  0  0  0  0  0
  151.8851  132.0335  154.8287 H   0  0  0  0  0  0  0  0  0  0  0  0
  150.8817  133.5530  156.4906 H   0  0  0  0  0  0  0  0  0  0  0  0
  149.4097  132.6210  156.5197 H   0  0  0  0  0  0  0  0  0  0  0  0
  151.0374  136.5981  155.9374 H   0  0  0  0  0  0  0  0  0  0  0  0
  151.3467  135.6868  154.4786 H   0  0  0  0  0  0  0  0  0  0  0  0
  151.1684  137.6990  153.0858 H   0  0  0  0  0  0  0  0  0  0  0  0
  152.3395  137.9777  154.3472 H   0  0  0  0  0  0  0  0  0  0  0  0
  149.2169  136.2729  153.6804 H   0  0  0  0  0  0  0  0  0  0  0  0
  1  2  2  0  0  0  0
  2  3  1  0  0  0  0
  2 11  1  0  0  0  0
  3  4  1  0  0  0  0
  3 25  1  0  0  0  0
  3 26  1  0  0  0  0
  4  9  1  0  0  0  0
  4  5  1  0  0  0  0
  5  6  2  0  0  0  0
  5 27  1  0  0  0  0
  6  7  1  0  0  0  0
  6 28  1  0  0  0  0
  7  8  2  0  0  0  0
  7 29  1  0  0  0  0
  8  9  1  0  0  0  0
  9 10  2  0  0  0  0
 11 12  1  0  0  0  0
 11 30  1  0  0  0  0
 12 24  1  0  0  0  0
 12 13  1  0  0  0  0
 12 31  1  0  0  0  0
 13 14  1  0  0  0  0
 13 32  1  0  0  0  0
 13 33  1  0  0  0  0
 14 15  1  0  0  0  0
 14 34  1  0  0  0  0
 14 35  1  0  0  0  0
 15 16  1  0  0  0  0
 15 23  1  0  0  0  0
 15 53  1  0  0  0  0
 16 17  1  0  0  0  0
 16 36  1  0  0  0  0
 16 37  1  0  0  0  0
 17 22  1  0  0  0  0
 17 18  1  0  0  0  0
 17 38  1  0  0  0  0
 18 19  1  0  0  0  0
 18 39  1  0  0  0  0
 18 40  1  0  0  0  0
 19 20  1  0  0  0  0
 19 41  1  0  0  0  0
 19 42  1  0  0  0  0
 20 21  1  0  0  0  0
 20 43  1  0  0  0  0
 20 44  1  0  0  0  0
 21 22  1  0  0  0  0
 21 45  1  0  0  0  0
 21 46  1  0  0  0  0
 22 47  1  0  0  0  0
 22 48  1  0  0  0  0
 23 24  1  0  0  0  0
 23 49  1  0  0  0  0
 23 50  1  0  0  0  0
 24 51  1  0  0  0  0
 24 52  1  0  0  0  0
M  CHG  1  15   1
M  END
> <s_m_source_file>
AV-unprocessed.smi

> <i_m_source_file_index>
1613

> <i_lp_mmshare_version>
43012

> <i_f3d_flags>
0

> <s_epik_input>
Tz1jMW5bY0hdW2NIXVtjSF1uMVtDSDJdQyg9TylbTkhdW0NIXTJbQ0gyXVtDSDJdTihbQ0gyXVtDSDJdMilbQ0gyXVtDSF0zW0NIMl1bQ0gyXVtDSDJdW0NIMl1bQ0gyXTM=

> <s_epik_cmdline>
J2VwaWtfcHl0aG9uJywgJy1waCcsICc3LjAnLCAnLXRuJywgJzgnLCAnLW1hJywgJzIwMCcsICctbWV0YWxfYmluZGluZycsICctaW1hZScsICc8aW5maWxlLm1hZT4nLCAnLW9tYWUnLCAnPG91dGZpbGUubWFlPic=

> <r_lp_tautomer_probability>
1

> <r_epik_Ionization_Penalty>
0.00530026

> <r_epik_Ionization_Penalty_Charging>
0.00529416

> <r_epik_Ionization_Penalty_Neutral>
6.10215e-06

> <r_epik_State_Penalty>
0.00386377

> <r_epik_Charging_Adjusted_Penalty>
0.00915793

> <i_epik_Tot_Q>
1

> <i_epik_Tot_abs_Q>
1

> <r_epik_Metal_State_Penalty>
-0

> <b_epik_Metal_Only>
0

> <s_lp_Force_Field>
OPLS_2005

> <r_lp_Energy>
26.8521

> <b_lp_Chiralities_Consistent>
1

> <s_lp_Variant>
AV-unprocessed.smi:1613-2

> <Gold.Version>
5.8.1

> <Gold.Id.Protein>
6NUR|6NUR_protein|mol2

> <Gold.PLP.Fitness>
51.7891

> <Gold.PLP.PLP>
-44.5301

> <Gold.PLP.part.hbond>
-2.0000

> <Gold.PLP.part.metal>
0.0000

> <Gold.PLP.part.buried>
-4.0536

> <Gold.PLP.part.nonpolar>
-39.0443

> <Gold.PLP.part.repulsive>
0.8483

> <Gold.PLP.ligand.clash>
0.0000

> <Gold.PLP.ligand.torsion>
0.9161

> <Gold.PLP.Chemscore.Hbond>
3.0000

> <Gold.PLP.Chemscore.CHOScore>
0.0000

> <Gold.PLP.Chemscore.Metal>
0.0000

> <Gold.Chemscore.Hbonds>
donor molecule, donor type, donor heavy atom, donor atom, acceptor molecule, acceptor atom, score
      L1  H    15    53       P1  7948  2.00
      P1  H  7997  8008       L1     1  0.91

> <Gold.PLP.Chemscore.Internal.Correction>
0.0913

> <Gold.Rescore>
     Score         DG    S(hbond)    S(metal)    S(lipo)     H(rot)  DE(clash)    DE(int)     intcor
     18.71     -19.71       1.98        0.00     105.48       1.84       0.05       0.95       ----

> <Gold.Chemscore.Fitness>
18.7090

> <Gold.Chemscore.DG>
-19.7147

> <Gold.Chemscore.ZeroCoef>
-5.4800

> <Gold.Chemscore.Hbond>
1.9784

> <Gold.Chemscore.Metal>
0.0000

> <Gold.Chemscore.Lipo>
105.4830

> <Gold.Chemscore.Internal_Hbond>
0.0000

> <Gold.Chemscore.DEClash>
0.0529

> <Gold.Chemscore.DEInternal>
0.9528

> <Gold.Chemscore.Rot>
1.8417

> <Gold.Chemscore.Internal.Correction>
   9.000000E+99

> <Gold.Chemscore.Hbonds>
donor molecule, donor type, donor heavy atom, donor atom, acceptor molecule, acceptor atom, score
      L1  H    15    53       P1  7948  0.93
      P1  H  7997  8008       L1     1  0.88

> <Gold.Chemscore.Hbond.Weighted>
-6.6079

> <Gold.Chemscore.Metal.Weighted>
-0.0000

> <Gold.Chemscore.Lipo.Weighted>
-12.3415

> <Gold.Chemscore.Internal_Hbond.Weighted>
0.0000

> <Gold.Chemscore.DEClash.Weighted>
0.0529

> <Gold.Chemscore.DEInternal.Weighted>
0.9528

> <Gold.Chemscore.Rot.Weighted>
4.7147

> <Gold.Chemscore.Internal.Correction.Weighted>
   9.000000E+99

> <Gold.Protein.RotatedTorsions>
[ 6907 6896 6895 6894 ] final    7.00 input  -60.11 | X-H torsion
[ 7974 7965 7964 7962 ] final  -45.77 input  175.53 | X-H torsion
[ 8008 7997 7996 7995 ] final  -39.70 input   59.86 | X-H torsion
[ 10167 10162 10161 10158 ] final   38.04 input  -65.29 | X-H torsion
[ 10718 10713 10712 10709 ] final  -98.88 input   66.30 | X-H torsion
[ 10763 10752 10751 10750 ] final -163.04 input  -60.55 | X-H torsion
[ 11005 11000 10999 10996 ] final  148.92 input  -57.11 | X-H torsion

> <Gold.Protein.ActiveResidues>
 VAL166  LYS551  ARG553  GLY616  TRP617  ASP618  TYR619  PRO620  LYS621  CYS622 
 ASP623  PHE694  ASN695  SER759  ASP760  ASP761  ALA762  ILE779  LEU786  VAL792 
 PHE793  MET794  SER795  GLU796  ALA797  LYS798  CYS799  TRP800  GLU811  SER814 

> <Gold.Protein.RotatedAtoms>
  151.6827  135.0959  160.0218 H   0  0  0  0  0  0  0  0  0  0  0  0  # atno 6907 bound_to 6896
  152.3825  133.6562  159.6181 H   0  0  0  0  0  0  0  0  0  0  0  0  # atno 6908 bound_to 6896
  150.7759  133.9006  159.3381 H   0  0  0  0  0  0  0  0  0  0  0  0  # atno 6909 bound_to 6896
  145.9787  140.7307  142.9374 H   0  0  0  0  0  0  0  0  0  0  0  0  # atno 7974 bound_to 7965
  154.4020  140.1544  156.2907 H   0  0  0  0  0  0  0  0  0  0  0  0  # atno 8008 bound_to 7997
  155.8788  140.3445  155.5851 H   0  0  0  0  0  0  0  0  0  0  0  0  # atno 8009 bound_to 7997
  155.7691  140.0828  157.2107 H   0  0  0  0  0  0  0  0  0  0  0  0  # atno 8010 bound_to 7997
  140.3974  144.1769  150.6132 H   0  0  0  0  0  0  0  0  0  0  0  0  # atno 10167 bound_to 10162
  156.0119  130.5258  150.6588 H   0  0  0  0  0  0  0  0  0  0  0  0  # atno 10718 bound_to 10713
  154.7159  135.3015  154.9124 H   0  0  0  0  0  0  0  0  0  0  0  0  # atno 10763 bound_to 10752
  154.0011  135.6706  153.4763 H   0  0  0  0  0  0  0  0  0  0  0  0  # atno 10764 bound_to 10752
  153.0793  135.5017  154.8385 H   0  0  0  0  0  0  0  0  0  0  0  0  # atno 10765 bound_to 10752
  140.1000  134.8989  157.1782 H   0  0  0  0  0  0  0  0  0  0  0  0  # atno 11005 bound_to 11000
  144.6855  140.2871  143.7283 LP  0  0  0  0  0  0  0  0  0  0  0  0  # atno 17320 bound_to 7965
  145.7801  139.1888  143.2162 LP  0  0  0  0  0  0  0  0  0  0  0  0  # atno 17321 bound_to 7965
  140.4775  143.2390  151.9002 LP  0  0  0  0  0  0  0  0  0  0  0  0  # atno 17342 bound_to 10162
  139.4786  144.5304  151.8674 LP  0  0  0  0  0  0  0  0  0  0  0  0  # atno 17343 bound_to 10162
  157.4334  131.0852  151.1015 LP  0  0  0  0  0  0  0  0  0  0  0  0  # atno 17370 bound_to 10713
  157.1581  130.6213  149.5602 LP  0  0  0  0  0  0  0  0  0  0  0  0  # atno 17371 bound_to 10713
  140.3233  134.2892  155.7242 LP  0  0  0  0  0  0  0  0  0  0  0  0  # atno 17394 bound_to 11000
  141.2103  133.7723  156.9941 LP  0  0  0  0  0  0  0  0  0  0  0  0  # atno 17395 bound_to 11000

$$$$
