AV-unprocessed.smi:671|AV-procd|sdf|3282|dock4
  -GOLD-   22720 0243D 1   1.00000     0.00000
 Structure written by MMmdl.
 50 51  0  0  0  0  0  0  0  0  2 V2000
  148.6880  141.1239  154.3648 C   0  0  0  0  0  0  0  0  0  0  0  0
  149.6450  141.4621  155.4582 C   0  0  0  0  0  0  0  0  0  0  0  0
  149.7822  142.7021  155.9996 N   0  3  0  0  0  0  0  0  0  0  0  0
  150.7271  142.6907  156.9510 N   0  0  0  0  0  0  0  0  0  0  0  0
  151.0393  143.9306  157.6623 C   0  0  0  0  0  0  0  0  0  0  0  0
  151.2516  141.4396  157.0788 C   0  0  0  0  0  0  0  0  0  0  0  0
  152.3347  141.0712  158.0398 C   0  0  0  0  0  0  0  0  0  0  0  0
  150.5667  140.6579  156.1394 C   0  0  0  0  0  0  0  0  0  0  0  0
  150.7939  139.1926  155.8948 C   0  0  0  0  0  0  0  0  0  0  0  0
  151.1125  138.8590  154.4193 C   0  0  1  0  0  0  0  0  0  0  0  0
  152.6214  138.7656  154.1442 C   0  0  0  0  0  0  0  0  0  0  0  0
  150.4844  137.5911  154.0402 N   0  0  0  0  0  0  0  0  0  0  0  0
  150.3682  136.4670  154.7713 C   0  0  0  0  0  0  0  0  0  0  0  0
  150.8101  136.3889  155.9155 O   0  0  0  0  0  0  0  0  0  0  0  0
  149.7360  135.4584  154.1487 N   0  0  0  0  0  0  0  0  0  0  0  0
  149.4364  134.1538  154.7303 C   0  0  2  0  0  0  0  0  0  0  0  0
  150.6277  133.6658  155.5757 C   0  0  0  0  0  0  0  0  0  0  0  0
  151.2568  132.5127  154.7945 C   0  0  0  0  0  0  0  0  0  0  0  0
  150.0820  131.8898  154.0487 C   0  0  0  0  0  0  0  0  0  0  0  0
  149.2215  133.0871  153.6309 C   0  0  1  0  0  0  0  0  0  0  0  0
  147.7486  132.7221  153.3988 C   0  0  0  0  0  0  0  0  0  0  0  0
  149.2326  140.8192  153.4708 H   0  0  0  0  0  0  0  0  0  0  0  0
  148.0669  141.9851  154.1165 H   0  0  0  0  0  0  0  0  0  0  0  0
  148.0367  140.3058  154.6714 H   0  0  0  0  0  0  0  0  0  0  0  0
  152.1167  144.0962  157.6346 H   0  0  0  0  0  0  0  0  0  0  0  0
  150.7103  143.8386  158.6976 H   0  0  0  0  0  0  0  0  0  0  0  0
  150.5321  144.7743  157.1922 H   0  0  0  0  0  0  0  0  0  0  0  0
  152.3939  139.9908  158.1649 H   0  0  0  0  0  0  0  0  0  0  0  0
  152.1451  141.5181  159.0158 H   0  0  0  0  0  0  0  0  0  0  0  0
  153.2971  141.4286  157.6736 H   0  0  0  0  0  0  0  0  0  0  0  0
  151.6003  138.8248  156.5305 H   0  0  0  0  0  0  0  0  0  0  0  0
  149.9084  138.6423  156.2144 H   0  0  0  0  0  0  0  0  0  0  0  0
  150.7213  139.6507  153.7785 H   0  0  0  0  0  0  0  0  0  0  0  0
  153.1234  139.7117  154.3462 H   0  0  0  0  0  0  0  0  0  0  0  0
  152.8137  138.5155  153.1003 H   0  0  0  0  0  0  0  0  0  0  0  0
  153.0914  137.9991  154.7610 H   0  0  0  0  0  0  0  0  0  0  0  0
  150.1134  137.5513  153.1014 H   0  0  0  0  0  0  0  0  0  0  0  0
  149.4179  135.6147  153.2040 H   0  0  0  0  0  0  0  0  0  0  0  0
  148.5614  134.2285  155.3790 H   0  0  0  0  0  0  0  0  0  0  0  0
  151.3517  134.4502  155.8020 H   0  0  0  0  0  0  0  0  0  0  0  0
  150.2574  133.2901  156.5307 H   0  0  0  0  0  0  0  0  0  0  0  0
  151.9826  132.9013  154.0794 H   0  0  0  0  0  0  0  0  0  0  0  0
  151.7718  131.8001  155.4393 H   0  0  0  0  0  0  0  0  0  0  0  0
  150.3987  131.2850  153.1985 H   0  0  0  0  0  0  0  0  0  0  0  0
  149.5249  131.2423  154.7275 H   0  0  0  0  0  0  0  0  0  0  0  0
  149.6310  133.4604  152.6901 H   0  0  0  0  0  0  0  0  0  0  0  0
  147.2891  132.3277  154.3056 H   0  0  0  0  0  0  0  0  0  0  0  0
  147.6518  131.9659  152.6194 H   0  0  0  0  0  0  0  0  0  0  0  0
  147.1739  133.5939  153.0864 H   0  0  0  0  0  0  0  0  0  0  0  0
  149.2847  143.5521  155.7662 H   0  0  0  0  0  0  0  0  0  0  0  0
  1  2  1  0  0  0  0
  1 22  1  0  0  0  0
  1 23  1  0  0  0  0
  1 24  1  0  0  0  0
  2  8  1  0  0  0  0
  2  3  2  0  0  0  0
  3  4  1  0  0  0  0
  3 50  1  0  0  0  0
  4  5  1  0  0  0  0
  4  6  1  0  0  0  0
  5 25  1  0  0  0  0
  5 26  1  0  0  0  0
  5 27  1  0  0  0  0
  6  7  1  0  0  0  0
  6  8  2  0  0  0  0
  7 28  1  0  0  0  0
  7 29  1  0  0  0  0
  7 30  1  0  0  0  0
  8  9  1  0  0  0  0
  9 10  1  0  0  0  0
  9 31  1  0  0  0  0
  9 32  1  0  0  0  0
 10 11  1  0  0  0  0
 10 12  1  0  0  0  0
 10 33  1  0  0  0  0
 11 34  1  0  0  0  0
 11 35  1  0  0  0  0
 11 36  1  0  0  0  0
 12 13  1  0  0  0  0
 12 37  1  0  0  0  0
 13 14  2  0  0  0  0
 13 15  1  0  0  0  0
 15 16  1  0  0  0  0
 15 38  1  0  0  0  0
 16 20  1  0  0  0  0
 16 17  1  0  0  0  0
 16 39  1  0  0  0  0
 17 18  1  0  0  0  0
 17 40  1  0  0  0  0
 17 41  1  0  0  0  0
 18 19  1  0  0  0  0
 18 42  1  0  0  0  0
 18 43  1  0  0  0  0
 19 20  1  0  0  0  0
 19 44  1  0  0  0  0
 19 45  1  0  0  0  0
 20 21  1  0  0  0  0
 20 46  1  0  0  0  0
 21 47  1  0  0  0  0
 21 48  1  0  0  0  0
 21 49  1  0  0  0  0
M  CHG  1   3   1
M  END
> <s_m_source_file>
AV-unprocessed.smi

> <i_m_source_file_index>
671

> <i_lp_mmshare_version>
43012

> <i_f3d_flags>
0

> <s_epik_input>
W0NIM11jMW5uKFtDSDNdKWMoW0NIM10pYzFbQ0gyXVtDQEhdKFtDSDNdKVtOSF1DKD1PKVtOSF1bQ0BASF0yW0NIMl1bQ0gyXVtDSDJdW0NASF0yW0NIM10=

> <s_epik_cmdline>
J2VwaWtfcHl0aG9uJywgJy1waCcsICc3LjAnLCAnLXRuJywgJzgnLCAnLW1hJywgJzIwMCcsICctbWV0YWxfYmluZGluZycsICctaW1hZScsICc8aW5maWxlLm1hZT4nLCAnLW9tYWUnLCAnPG91dGZpbGUubWFlPic=

> <r_lp_tautomer_probability>
1

> <r_epik_Ionization_Penalty>
2.28705

> <r_epik_Ionization_Penalty_Charging>
2.28698

> <r_epik_Ionization_Penalty_Neutral>
6.23157e-05

> <r_epik_State_Penalty>
2.43671

> <r_epik_Charging_Adjusted_Penalty>
4.72369

> <i_epik_Tot_Q>
1

> <i_epik_Tot_abs_Q>
1

> <r_epik_Metal_State_Penalty>
2.44911

> <b_epik_Metal_Only>
0

> <s_lp_Force_Field>
OPLS_2005

> <r_lp_Energy>
34.579

> <b_lp_Chiralities_Consistent>
1

> <s_lp_Variant>
AV-unprocessed.smi:671-10

> <Gold.Version>
5.8.1

> <Gold.Id.Protein>
6NUR|6NUR_protein|mol2

> <Gold.PLP.Fitness>
50.0668

> <Gold.PLP.PLP>
-42.1861

> <Gold.PLP.part.hbond>
-3.1120

> <Gold.PLP.part.metal>
0.0000

> <Gold.PLP.part.buried>
-4.7811

> <Gold.PLP.part.nonpolar>
-35.2288

> <Gold.PLP.part.repulsive>
0.2540

> <Gold.PLP.ligand.clash>
0.0000

> <Gold.PLP.ligand.torsion>
1.1430

> <Gold.PLP.Chemscore.Hbond>
3.3752

> <Gold.PLP.Chemscore.CHOScore>
0.0000

> <Gold.PLP.Chemscore.Metal>
0.0000

> <Gold.Chemscore.Hbonds>
donor molecule, donor type, donor heavy atom, donor atom, acceptor molecule, acceptor atom, score
      L1  H     3    50       P1  8028  0.55
      L1  H    12    37       P1  7948  0.60
      L1  H    15    38       P1  7948  0.75

> <Gold.PLP.Chemscore.Internal.Correction>
0.0412

> <Gold.Rescore>
     Score         DG    S(hbond)    S(metal)    S(lipo)     H(rot)  DE(clash)    DE(int)     intcor
     15.65     -19.68       1.90        0.00      99.94       1.51       0.02       4.00       ----

> <Gold.Chemscore.Fitness>
15.6543

> <Gold.Chemscore.DG>
-19.6794

> <Gold.Chemscore.ZeroCoef>
-5.4800

> <Gold.Chemscore.Hbond>
1.9045

> <Gold.Chemscore.Metal>
0.0000

> <Gold.Chemscore.Lipo>
99.9402

> <Gold.Chemscore.Internal_Hbond>
0.0000

> <Gold.Chemscore.DEClash>
0.0226

> <Gold.Chemscore.DEInternal>
4.0025

> <Gold.Chemscore.Rot>
1.5057

> <Gold.Chemscore.Internal.Correction>
   9.000000E+99

> <Gold.Chemscore.Hbonds>
donor molecule, donor type, donor heavy atom, donor atom, acceptor molecule, acceptor atom, score
      L1  H     3    50       P1  8028  0.27
      L1  H    12    37       P1  7948  0.12
      L1  H    15    38       P1  7948  0.11

> <Gold.Chemscore.Hbond.Weighted>
-6.3611

> <Gold.Chemscore.Metal.Weighted>
-0.0000

> <Gold.Chemscore.Lipo.Weighted>
-11.6930

> <Gold.Chemscore.Internal_Hbond.Weighted>
0.0000

> <Gold.Chemscore.DEClash.Weighted>
0.0226

> <Gold.Chemscore.DEInternal.Weighted>
4.0025

> <Gold.Chemscore.Rot.Weighted>
3.8547

> <Gold.Chemscore.Internal.Correction.Weighted>
   9.000000E+99

> <Gold.Protein.RotatedTorsions>
[ 6907 6896 6895 6894 ] final -156.59 input  -60.11 | X-H torsion
[ 7974 7965 7964 7962 ] final   33.11 input  175.53 | X-H torsion
[ 8008 7997 7996 7995 ] final -122.70 input   59.86 | X-H torsion
[ 10167 10162 10161 10158 ] final  133.03 input  -65.29 | X-H torsion
[ 10718 10713 10712 10709 ] final   53.90 input   66.30 | X-H torsion
[ 10763 10752 10751 10750 ] final  -32.73 input  -60.55 | X-H torsion
[ 11005 11000 10999 10996 ] final   60.39 input  -57.11 | X-H torsion

> <Gold.Protein.ActiveResidues>
 VAL166  LYS551  ARG553  GLY616  TRP617  ASP618  TYR619  PRO620  LYS621  CYS622 
 ASP623  PHE694  ASN695  SER759  ASP760  ASP761  ALA762  ILE779  LEU786  VAL792 
 PHE793  MET794  SER795  GLU796  ALA797  LYS798  CYS799  TRP800  GLU811  SER814 

> <Gold.Protein.RotatedAtoms>
  151.2899  133.4170  159.2632 H   0  0  0  0  0  0  0  0  0  0  0  0  # atno 6907 bound_to 6896
  151.0287  134.9523  159.8109 H   0  0  0  0  0  0  0  0  0  0  0  0  # atno 6908 bound_to 6896
  152.5341  134.2860  159.9078 H   0  0  0  0  0  0  0  0  0  0  0  0  # atno 6909 bound_to 6896
  146.1442  139.6440  142.9142 H   0  0  0  0  0  0  0  0  0  0  0  0  # atno 7974 bound_to 7965
  155.1685  140.0407  157.2858 H   0  0  0  0  0  0  0  0  0  0  0  0  # atno 8008 bound_to 7997
  154.6286  140.2518  155.7434 H   0  0  0  0  0  0  0  0  0  0  0  0  # atno 8009 bound_to 7997
  156.2473  140.2880  156.0628 H   0  0  0  0  0  0  0  0  0  0  0  0  # atno 8010 bound_to 7997
  139.5314  144.6635  151.4937 H   0  0  0  0  0  0  0  0  0  0  0  0  # atno 10167 bound_to 10162
  157.5208  130.8564  149.8556 H   0  0  0  0  0  0  0  0  0  0  0  0  # atno 10718 bound_to 10713
  153.8185  135.6876  153.4830 H   0  0  0  0  0  0  0  0  0  0  0  0  # atno 10763 bound_to 10752
  153.1584  135.4590  154.9735 H   0  0  0  0  0  0  0  0  0  0  0  0  # atno 10764 bound_to 10752
  154.7937  135.3311  154.7659 H   0  0  0  0  0  0  0  0  0  0  0  0  # atno 10765 bound_to 10752
  140.0235  134.6117  155.9606 H   0  0  0  0  0  0  0  0  0  0  0  0  # atno 11005 bound_to 11000
  145.4975  141.0438  143.2559 LP  0  0  0  0  0  0  0  0  0  0  0  0  # atno 17320 bound_to 7965
  144.7827  139.6491  143.7147 LP  0  0  0  0  0  0  0  0  0  0  0  0  # atno 17321 bound_to 7965
  140.6495  143.8727  150.6770 LP  0  0  0  0  0  0  0  0  0  0  0  0  # atno 17342 bound_to 10162
  140.2087  143.3901  152.1735 LP  0  0  0  0  0  0  0  0  0  0  0  0  # atno 17343 bound_to 10162
  156.0352  130.3753  150.1579 LP  0  0  0  0  0  0  0  0  0  0  0  0  # atno 17370 bound_to 10713
  156.9767  130.9851  151.3447 LP  0  0  0  0  0  0  0  0  0  0  0  0  # atno 17371 bound_to 10713
  141.1788  133.6543  156.4937 LP  0  0  0  0  0  0  0  0  0  0  0  0  # atno 17394 bound_to 11000
  140.4346  134.7070  157.4960 LP  0  0  0  0  0  0  0  0  0  0  0  0  # atno 17395 bound_to 11000

$$$$
