AV-unprocessed.smi:618|AV-procd|sdf|3081|dock2
  -GOLD-   22720 0 03D 1   1.00000     0.00000
 Structure written by MMmdl.
 41 43  0  0  0  0  0  0  0  0  2 V2000
  150.4776  135.2422  156.1167 O   0  0  0  0  0  0  0  0  0  0  0  0
  150.0198  135.5195  155.0084 C   0  0  0  0  0  0  0  0  0  0  0  0
  149.3706  134.6369  154.2361 N   0  0  0  0  0  0  0  0  0  0  0  0
  149.1158  133.2426  154.5853 C   0  0  0  0  0  0  0  0  0  0  0  0
  148.4988  132.4603  153.4121 C   0  0  1  0  0  0  0  0  0  0  0  0
  148.4040  130.9468  153.7217 C   0  0  0  0  0  0  0  0  0  0  0  0
  147.7064  130.2858  152.6034 N   0  3  1  0  0  0  0  0  0  0  0  0
  147.5122  128.8267  152.6629 C   0  0  0  0  0  0  0  0  0  0  0  0
  146.3003  128.5534  151.7491 C   0  0  0  0  0  0  0  0  0  0  0  0
  145.7556  129.9378  151.3510 C   0  0  0  0  0  0  0  0  0  0  0  0
  146.3782  130.8643  152.3901 C   0  0  2  0  0  0  0  0  0  0  0  0
  146.5311  132.3499  152.0421 C   0  0  0  0  0  0  0  0  0  0  0  0
  147.1913  132.9798  153.1409 O   0  0  0  0  0  0  0  0  0  0  0  0
  150.0772  136.7282  154.4237 N   0  0  0  0  0  0  0  0  0  0  0  0
  150.6781  137.9182  154.9160 C   0  0  0  0  0  0  0  0  0  0  0  0
  151.6415  137.9525  155.9532 C   0  0  0  0  0  0  0  0  0  0  0  0
  152.1776  139.1953  156.3417 C   0  0  0  0  0  0  0  0  0  0  0  0
  151.7384  140.3556  155.6755 C   0  0  0  0  0  0  0  0  0  0  0  0
  150.8321  140.3361  154.6754 N   0  0  0  0  0  0  0  0  0  0  0  0
  150.3231  139.1410  154.3076 C   0  0  0  0  0  0  0  0  0  0  0  0
  149.0296  134.9514  153.3392 H   0  0  0  0  0  0  0  0  0  0  0  0
  150.0725  132.7972  154.8589 H   0  0  0  0  0  0  0  0  0  0  0  0
  148.4813  133.1727  155.4708 H   0  0  0  0  0  0  0  0  0  0  0  0
  149.1215  132.6030  152.5268 H   0  0  0  0  0  0  0  0  0  0  0  0
  149.3980  130.5144  153.8409 H   0  0  0  0  0  0  0  0  0  0  0  0
  147.8598  130.7764  154.6521 H   0  0  0  0  0  0  0  0  0  0  0  0
  148.4093  128.2985  152.3388 H   0  0  0  0  0  0  0  0  0  0  0  0
  147.2874  128.5210  153.6858 H   0  0  0  0  0  0  0  0  0  0  0  0
  146.5821  127.9781  150.8664 H   0  0  0  0  0  0  0  0  0  0  0  0
  145.5455  127.9789  152.2879 H   0  0  0  0  0  0  0  0  0  0  0  0
  146.1059  130.2019  150.3521 H   0  0  0  0  0  0  0  0  0  0  0  0
  144.6658  129.9798  151.3483 H   0  0  0  0  0  0  0  0  0  0  0  0
  145.8050  130.7742  153.3157 H   0  0  0  0  0  0  0  0  0  0  0  0
  147.1019  132.4916  151.1230 H   0  0  0  0  0  0  0  0  0  0  0  0
  145.5548  132.8127  151.8964 H   0  0  0  0  0  0  0  0  0  0  0  0
  149.5813  136.8244  153.5497 H   0  0  0  0  0  0  0  0  0  0  0  0
  151.9881  137.0571  156.4452 H   0  0  0  0  0  0  0  0  0  0  0  0
  152.9132  139.2566  157.1298 H   0  0  0  0  0  0  0  0  0  0  0  0
  152.1302  141.3240  155.9491 H   0  0  0  0  0  0  0  0  0  0  0  0
  149.6027  139.1639  153.5029 H   0  0  0  0  0  0  0  0  0  0  0  0
  148.2374  130.4695  151.7640 H   0  0  0  0  0  0  0  0  0  0  0  0
  1  2  2  0  0  0  0
  2  3  1  0  0  0  0
  2 14  1  0  0  0  0
  3  4  1  0  0  0  0
  3 21  1  0  0  0  0
  4  5  1  0  0  0  0
  4 22  1  0  0  0  0
  4 23  1  0  0  0  0
  5 13  1  0  0  0  0
  5  6  1  0  0  0  0
  5 24  1  0  0  0  0
  6  7  1  0  0  0  0
  6 25  1  0  0  0  0
  6 26  1  0  0  0  0
  7 11  1  0  0  0  0
  7  8  1  0  0  0  0
  7 41  1  0  0  0  0
  8  9  1  0  0  0  0
  8 27  1  0  0  0  0
  8 28  1  0  0  0  0
  9 10  1  0  0  0  0
  9 29  1  0  0  0  0
  9 30  1  0  0  0  0
 10 11  1  0  0  0  0
 10 31  1  0  0  0  0
 10 32  1  0  0  0  0
 11 12  1  0  0  0  0
 11 33  1  0  0  0  0
 12 13  1  0  0  0  0
 12 34  1  0  0  0  0
 12 35  1  0  0  0  0
 14 15  1  0  0  0  0
 14 36  1  0  0  0  0
 15 20  1  0  0  0  0
 15 16  2  0  0  0  0
 16 17  1  0  0  0  0
 16 37  1  0  0  0  0
 17 18  2  0  0  0  0
 17 38  1  0  0  0  0
 18 19  1  0  0  0  0
 18 39  1  0  0  0  0
 19 20  2  0  0  0  0
 20 40  1  0  0  0  0
M  CHG  1   7   1
M  END
> <s_m_source_file>
AV-unprocessed.smi

> <i_m_source_file_index>
618

> <i_lp_mmshare_version>
43012

> <i_f3d_flags>
0

> <s_epik_input>
W2NIXTFuW2NIXVtjSF1bY0hdYzFbTkhdQyg9TylbTkhdW0NIMl1bQ0BIXShbQ0gyXTIpT1tDSDJdW0NAQEhdKE4yMylbQ0gyXVtDSDJdW0NIMl0z

> <s_epik_cmdline>
J2VwaWtfcHl0aG9uJywgJy1waCcsICc3LjAnLCAnLXRuJywgJzgnLCAnLW1hJywgJzIwMCcsICctbWV0YWxfYmluZGluZycsICctaW1hZScsICc8aW5maWxlLm1hZT4nLCAnLW9tYWUnLCAnPG91dGZpbGUubWFlPic=

> <r_epik_Ionization_Penalty>
0.111044

> <r_epik_Ionization_Penalty_Charging>
0.10673

> <r_epik_Ionization_Penalty_Neutral>
0.00431361

> <r_epik_State_Penalty>
0.0978747

> <r_epik_Charging_Adjusted_Penalty>
0.204605

> <i_epik_Tot_Q>
1

> <i_epik_Tot_abs_Q>
1

> <r_epik_Metal_State_Penalty>
0.0947591

> <b_epik_Metal_Only>
0

> <s_lp_Force_Field>
OPLS_2005

> <r_lp_Energy>
39.3215

> <b_lp_Chiralities_Consistent>
1

> <s_lp_Variant>
AV-unprocessed.smi:618-8

> <Gold.Version>
5.8.1

> <Gold.Id.Protein>
6NUR|6NUR_protein|mol2

> <Gold.PLP.Fitness>
50.7145

> <Gold.PLP.PLP>
-35.9384

> <Gold.PLP.part.hbond>
-4.2798

> <Gold.PLP.part.metal>
0.0000

> <Gold.PLP.part.buried>
-4.7005

> <Gold.PLP.part.nonpolar>
-27.9537

> <Gold.PLP.part.repulsive>
0.3057

> <Gold.PLP.ligand.clash>
0.0000

> <Gold.PLP.ligand.torsion>
0.1129

> <Gold.PLP.Chemscore.Hbond>
4.0000

> <Gold.PLP.Chemscore.CHOScore>
1.0000

> <Gold.PLP.Chemscore.Metal>
0.0000

> <Gold.Chemscore.Hbonds>
donor molecule, donor type, donor heavy atom, donor atom, acceptor molecule, acceptor atom, score
      L1  H     3    21       P1  7948  0.95
      L1  H     7    41       P1 10747  1.00
      L1  H    14    36       P1  7948  1.00
      P1  H  7989  7998       L1    19  0.98
      L1  C    20    40       P1  7957  1.00

> <Gold.PLP.Chemscore.Internal.Correction>
0.0019

> <Gold.Rescore>
     Score         DG    S(hbond)    S(metal)    S(lipo)     H(rot)  DE(clash)    DE(int)     intcor
     20.66     -21.97       2.73        0.00      90.59       1.27       0.02       1.29       ----

> <Gold.Chemscore.Fitness>
20.6562

> <Gold.Chemscore.DG>
-21.9690

> <Gold.Chemscore.ZeroCoef>
-5.4800

> <Gold.Chemscore.Hbond>
2.7336

> <Gold.Chemscore.Metal>
0.0000

> <Gold.Chemscore.Lipo>
90.5873

> <Gold.Chemscore.Internal_Hbond>
0.0000

> <Gold.Chemscore.DEClash>
0.0204

> <Gold.Chemscore.DEInternal>
1.2924

> <Gold.Chemscore.Rot>
1.2656

> <Gold.Chemscore.Internal.Correction>
   9.000000E+99

> <Gold.Chemscore.Hbonds>
donor molecule, donor type, donor heavy atom, donor atom, acceptor molecule, acceptor atom, score
      L1  H     3    21       P1  7948  0.21
      L1  H     7    41       P1 10747  0.98
      L1  H    14    36       P1  7948  0.73
      P1  H  7989  7998       L1    19  0.21

> <Gold.Chemscore.Hbond.Weighted>
-9.1302

> <Gold.Chemscore.Metal.Weighted>
-0.0000

> <Gold.Chemscore.Lipo.Weighted>
-10.5987

> <Gold.Chemscore.Internal_Hbond.Weighted>
0.0000

> <Gold.Chemscore.DEClash.Weighted>
0.0204

> <Gold.Chemscore.DEInternal.Weighted>
1.2924

> <Gold.Chemscore.Rot.Weighted>
3.2399

> <Gold.Chemscore.Internal.Correction.Weighted>
   9.000000E+99

> <Gold.Protein.RotatedTorsions>
[ 6907 6896 6895 6894 ] final  165.36 input  -60.11 | X-H torsion
[ 7974 7965 7964 7962 ] final  -46.43 input  175.53 | X-H torsion
[ 8008 7997 7996 7995 ] final  -56.89 input   59.86 | X-H torsion
[ 10167 10162 10161 10158 ] final  -57.93 input  -65.29 | X-H torsion
[ 10718 10713 10712 10709 ] final   59.87 input   66.30 | X-H torsion
[ 10763 10752 10751 10750 ] final  -89.88 input  -60.55 | X-H torsion
[ 11005 11000 10999 10996 ] final  -14.39 input  -57.11 | X-H torsion

> <Gold.Protein.ActiveResidues>
 VAL166  LYS551  ARG553  GLY616  TRP617  ASP618  TYR619  PRO620  LYS621  CYS622 
 ASP623  PHE694  ASN695  SER759  ASP760  ASP761  ALA762  ILE779  LEU786  VAL792 
 PHE793  MET794  SER795  GLU796  ALA797  LYS798  CYS799  TRP800  GLU811  SER814 

> <Gold.Protein.RotatedAtoms>
  151.8957  133.3526  159.3813 H   0  0  0  0  0  0  0  0  0  0  0  0  # atno 6907 bound_to 6896
  150.7092  134.4879  159.5511 H   0  0  0  0  0  0  0  0  0  0  0  0  # atno 6908 bound_to 6896
  152.2458  134.8183  160.0504 H   0  0  0  0  0  0  0  0  0  0  0  0  # atno 6909 bound_to 6896
  145.9720  140.7373  142.9406 H   0  0  0  0  0  0  0  0  0  0  0  0  # atno 7974 bound_to 7965
  154.4247  140.1119  156.5710 H   0  0  0  0  0  0  0  0  0  0  0  0  # atno 8008 bound_to 7997
  155.6212  140.3495  155.4634 H   0  0  0  0  0  0  0  0  0  0  0  0  # atno 8009 bound_to 7997
  156.0022  140.1201  157.0525 H   0  0  0  0  0  0  0  0  0  0  0  0  # atno 8010 bound_to 7997
  140.6228  143.2426  151.5438 H   0  0  0  0  0  0  0  0  0  0  0  0  # atno 10167 bound_to 10162
  157.5709  130.8907  149.9266 H   0  0  0  0  0  0  0  0  0  0  0  0  # atno 10718 bound_to 10713
  154.6599  135.5325  153.8005 H   0  0  0  0  0  0  0  0  0  0  0  0  # atno 10763 bound_to 10752
  153.0436  135.6503  154.0888 H   0  0  0  0  0  0  0  0  0  0  0  0  # atno 10764 bound_to 10752
  154.0797  135.2948  155.3272 H   0  0  0  0  0  0  0  0  0  0  0  0  # atno 10765 bound_to 10752
  140.7859  133.8326  155.9334 H   0  0  0  0  0  0  0  0  0  0  0  0  # atno 11005 bound_to 11000
  144.6839  140.2764  143.7298 LP  0  0  0  0  0  0  0  0  0  0  0  0  # atno 17320 bound_to 7965
  145.7893  139.1921  143.2112 LP  0  0  0  0  0  0  0  0  0  0  0  0  # atno 17321 bound_to 7965
  139.5453  144.2537  152.1431 LP  0  0  0  0  0  0  0  0  0  0  0  0  # atno 17342 bound_to 10162
  140.1761  144.4889  150.6553 LP  0  0  0  0  0  0  0  0  0  0  0  0  # atno 17343 bound_to 10162
  156.0755  130.3679  150.0687 LP  0  0  0  0  0  0  0  0  0  0  0  0  # atno 17370 bound_to 10713
  156.8839  130.9566  151.3596 LP  0  0  0  0  0  0  0  0  0  0  0  0  # atno 17371 bound_to 10713
  140.9437  134.1868  157.4779 LP  0  0  0  0  0  0  0  0  0  0  0  0  # atno 17394 bound_to 11000
  139.8737  134.9882  156.5401 LP  0  0  0  0  0  0  0  0  0  0  0  0  # atno 17395 bound_to 11000

$$$$
