AV-unprocessed.smi:767|AV-procd|sdf|3660|dock6
  -GOLD-   22720 1 73D 1   1.00000     0.00000
 Structure written by MMmdl.
 47 49  0  0  0  0  0  0  0  0  1 V2000
  153.2024  142.3921  163.0603 C   0  0  0  0  0  0  0  0  0  0  0  0
  152.9285  143.0175  161.7087 C   0  0  0  0  0  0  0  0  0  0  0  0
  152.1723  144.2037  161.6022 C   0  0  0  0  0  0  0  0  0  0  0  0
  151.9445  144.7407  160.3208 C   0  0  0  0  0  0  0  0  0  0  0  0
  152.4767  144.0726  159.1987 C   0  0  0  0  0  0  0  0  0  0  0  0
  152.2313  144.5884  157.7913 C   0  0  0  0  0  0  0  0  0  0  0  0
  152.1199  143.4712  156.7356 C   0  0  0  0  0  0  0  0  0  0  0  0
  150.7353  143.2106  156.3492 N   0  0  0  0  0  0  0  0  0  0  0  0
  150.2289  142.0076  156.0417 C   0  0  0  0  0  0  0  0  0  0  0  0
  150.8842  140.9657  156.0167 O   0  0  0  0  0  0  0  0  0  0  0  0
  148.9175  142.0719  155.7790 N   0  0  0  0  0  0  0  0  0  0  0  0
  148.0877  140.9127  155.4687 C   0  0  1  0  0  0  0  0  0  0  0  0
  147.0583  140.6127  156.5691 C   0  0  2  0  0  0  0  0  0  0  0  0
  147.1634  139.3410  157.3656 C   0  0  0  0  0  0  0  0  0  0  0  0
  146.2255  138.3901  156.6164 C   0  0  0  0  0  0  0  0  0  0  0  0
  146.1146  138.9459  155.3079 O   0  0  0  0  0  0  0  0  0  0  0  0
  146.0629  140.3639  155.4459 C   0  0  2  0  0  0  0  0  0  0  0  0
  146.9330  141.1864  154.4718 C   0  0  0  0  0  0  0  0  0  0  0  0
  146.4770  142.6420  154.2950 C   0  0  0  0  0  0  0  0  0  0  0  0
  147.1020  140.6040  153.0677 C   0  0  0  0  0  0  0  0  0  0  0  0
  153.2233  142.8953  159.4152 C   0  0  0  0  0  0  0  0  0  0  0  0
  153.4499  142.3749  160.6405 N   0  0  0  0  0  0  0  0  0  0  0  0
  152.5286  142.7892  163.8201 H   0  0  0  0  0  0  0  0  0  0  0  0
  154.2272  142.5981  163.3699 H   0  0  0  0  0  0  0  0  0  0  0  0
  153.0649  141.3109  163.0198 H   0  0  0  0  0  0  0  0  0  0  0  0
  151.7726  144.6903  162.4796 H   0  0  0  0  0  0  0  0  0  0  0  0
  151.3613  145.6421  160.2035 H   0  0  0  0  0  0  0  0  0  0  0  0
  151.3212  145.1898  157.7859 H   0  0  0  0  0  0  0  0  0  0  0  0
  153.0428  145.2655  157.5222 H   0  0  0  0  0  0  0  0  0  0  0  0
  152.6722  143.7592  155.8411 H   0  0  0  0  0  0  0  0  0  0  0  0
  152.5941  142.5592  157.1025 H   0  0  0  0  0  0  0  0  0  0  0  0
  150.1106  144.0033  156.3410 H   0  0  0  0  0  0  0  0  0  0  0  0
  148.4586  142.9699  155.8231 H   0  0  0  0  0  0  0  0  0  0  0  0
  148.6623  140.0226  155.2012 H   0  0  0  0  0  0  0  0  0  0  0  0
  146.7934  141.4970  157.1520 H   0  0  0  0  0  0  0  0  0  0  0  0
  148.1860  138.9623  157.3616 H   0  0  0  0  0  0  0  0  0  0  0  0
  146.8573  139.4699  158.4042 H   0  0  0  0  0  0  0  0  0  0  0  0
  146.6003  137.3669  156.5867 H   0  0  0  0  0  0  0  0  0  0  0  0
  145.2385  138.3802  157.0812 H   0  0  0  0  0  0  0  0  0  0  0  0
  145.0614  140.7493  155.6433 H   0  0  0  0  0  0  0  0  0  0  0  0
  145.5307  142.6992  153.7567 H   0  0  0  0  0  0  0  0  0  0  0  0
  147.2062  143.2284  153.7348 H   0  0  0  0  0  0  0  0  0  0  0  0
  146.3282  143.1392  155.2539 H   0  0  0  0  0  0  0  0  0  0  0  0
  146.1595  140.6012  152.5198 H   0  0  0  0  0  0  0  0  0  0  0  0
  147.4602  139.5750  153.0991 H   0  0  0  0  0  0  0  0  0  0  0  0
  147.8244  141.1745  152.4831 H   0  0  0  0  0  0  0  0  0  0  0  0
  153.6423  142.3501  158.5822 H   0  0  0  0  0  0  0  0  0  0  0  0
  1  2  1  0  0  0  0
  1 23  1  0  0  0  0
  1 24  1  0  0  0  0
  1 25  1  0  0  0  0
  2 22  1  0  0  0  0
  2  3  2  0  0  0  0
  3  4  1  0  0  0  0
  3 26  1  0  0  0  0
  4  5  2  0  0  0  0
  4 27  1  0  0  0  0
  5  6  1  0  0  0  0
  5 21  1  0  0  0  0
  6  7  1  0  0  0  0
  6 28  1  0  0  0  0
  6 29  1  0  0  0  0
  7  8  1  0  0  0  0
  7 30  1  0  0  0  0
  7 31  1  0  0  0  0
  8  9  1  0  0  0  0
  8 32  1  0  0  0  0
  9 10  2  0  0  0  0
  9 11  1  0  0  0  0
 11 12  1  0  0  0  0
 11 33  1  0  0  0  0
 12 18  1  0  0  0  0
 12 13  1  0  0  0  0
 12 34  1  0  0  0  0
 13 17  1  0  0  0  0
 13 14  1  0  0  0  0
 13 35  1  0  0  0  0
 14 15  1  0  0  0  0
 14 36  1  0  0  0  0
 14 37  1  0  0  0  0
 15 16  1  0  0  0  0
 15 38  1  0  0  0  0
 15 39  1  0  0  0  0
 16 17  1  0  0  0  0
 17 18  1  0  0  0  0
 17 40  1  0  0  0  0
 18 19  1  0  0  0  0
 18 20  1  0  0  0  0
 19 41  1  0  0  0  0
 19 42  1  0  0  0  0
 19 43  1  0  0  0  0
 20 44  1  0  0  0  0
 20 45  1  0  0  0  0
 20 46  1  0  0  0  0
 21 22  2  0  0  0  0
 21 47  1  0  0  0  0
M  END
> <s_m_source_file>
AV-unprocessed.smi

> <i_m_source_file_index>
767

> <i_lp_mmshare_version>
43012

> <i_f3d_flags>
0

> <s_epik_input>
W0NIM11jMVtjSF1bY0hdYyhbY0hdbjEpW0NIMl1bQ0gyXVtOSF1DKD1PKVtOSF1bQ0BIXTJDKFtDSDNdKShbQ0gzXSlbQ0BIXShbQ0BASF0yMylPW0NIMl1bQ0gyXTM=

> <s_epik_cmdline>
J2VwaWtfcHl0aG9uJywgJy1waCcsICc3LjAnLCAnLXRuJywgJzgnLCAnLW1hJywgJzIwMCcsICctbWV0YWxfYmluZGluZycsICctaW1hZScsICc8aW5maWxlLm1hZT4nLCAnLW9tYWUnLCAnPG91dGZpbGUubWFlPic=

> <r_epik_Ionization_Penalty>
0.0567523

> <r_epik_Ionization_Penalty_Charging>
0

> <r_epik_Ionization_Penalty_Neutral>
0.0567523

> <r_epik_State_Penalty>
0.0489186

> <r_epik_Charging_Adjusted_Penalty>
0.0489186

> <i_epik_Tot_Q>
0

> <i_epik_Tot_abs_Q>
0

> <r_epik_Metal_State_Penalty>
0.044622

> <b_epik_Metal_Only>
0

> <s_lp_Force_Field>
OPLS_2005

> <r_lp_Energy>
33.1778

> <b_lp_Chiralities_Consistent>
1

> <s_lp_Variant>
AV-unprocessed.smi:767-4

> <Gold.Version>
5.8.1

> <Gold.Id.Protein>
6NUR|6NUR_protein|mol2

> <Gold.PLP.Fitness>
45.3308

> <Gold.PLP.PLP>
-41.9228

> <Gold.PLP.part.hbond>
-1.9043

> <Gold.PLP.part.metal>
0.0000

> <Gold.PLP.part.buried>
-6.5496

> <Gold.PLP.part.nonpolar>
-33.6411

> <Gold.PLP.part.repulsive>
0.2946

> <Gold.PLP.ligand.clash>
0.0000

> <Gold.PLP.ligand.torsion>
1.0540

> <Gold.PLP.Chemscore.Hbond>
1.7760

> <Gold.PLP.Chemscore.CHOScore>
0.0000

> <Gold.PLP.Chemscore.Metal>
0.0000

> <Gold.Chemscore.Hbonds>
donor molecule, donor type, donor heavy atom, donor atom, acceptor molecule, acceptor atom, score
      L1  H     8    32       P1  8028  0.98
      L1  H    11    33       P1  8028  0.78

> <Gold.PLP.Chemscore.Internal.Correction>
0.1879

> <Gold.Rescore>
     Score         DG    S(hbond)    S(metal)    S(lipo)     H(rot)  DE(clash)    DE(int)     intcor
     20.16     -23.08       1.86        0.00     128.98       1.45       1.96       0.96       ----

> <Gold.Chemscore.Fitness>
20.1577

> <Gold.Chemscore.DG>
-23.0826

> <Gold.Chemscore.ZeroCoef>
-5.4800

> <Gold.Chemscore.Hbond>
1.8631

> <Gold.Chemscore.Metal>
0.0000

> <Gold.Chemscore.Lipo>
128.9838

> <Gold.Chemscore.Internal_Hbond>
0.0000

> <Gold.Chemscore.DEClash>
1.9615

> <Gold.Chemscore.DEInternal>
0.9634

> <Gold.Chemscore.Rot>
1.4497

> <Gold.Chemscore.Internal.Correction>
   9.000000E+99

> <Gold.Chemscore.Hbonds>
donor molecule, donor type, donor heavy atom, donor atom, acceptor molecule, acceptor atom, score
      L1  H     8    32       P1  8028  0.90
      L1  H    11    33       P1  8028  0.78

> <Gold.Chemscore.Hbond.Weighted>
-6.2227

> <Gold.Chemscore.Metal.Weighted>
-0.0000

> <Gold.Chemscore.Lipo.Weighted>
-15.0911

> <Gold.Chemscore.Internal_Hbond.Weighted>
0.0000

> <Gold.Chemscore.DEClash.Weighted>
1.9615

> <Gold.Chemscore.DEInternal.Weighted>
0.9634

> <Gold.Chemscore.Rot.Weighted>
3.7112

> <Gold.Chemscore.Internal.Correction.Weighted>
   9.000000E+99

> <Gold.Protein.RotatedTorsions>
[ 6907 6896 6895 6894 ] final   47.13 input  -60.11 | X-H torsion
[ 7974 7965 7964 7962 ] final  -23.58 input  175.53 | X-H torsion
[ 8008 7997 7996 7995 ] final   95.64 input   59.86 | X-H torsion
[ 10167 10162 10161 10158 ] final    1.95 input  -65.29 | X-H torsion
[ 10718 10713 10712 10709 ] final  -43.97 input   66.30 | X-H torsion
[ 10763 10752 10751 10750 ] final -168.81 input  -60.55 | X-H torsion
[ 11005 11000 10999 10996 ] final -124.02 input  -57.11 | X-H torsion

> <Gold.Protein.ActiveResidues>
 VAL166  LYS551  ARG553  GLY616  TRP617  ASP618  TYR619  PRO620  LYS621  CYS622 
 ASP623  PHE694  ASN695  SER759  ASP760  ASP761  ALA762  ILE779  LEU786  VAL792 
 PHE793  MET794  SER795  GLU796  ALA797  LYS798  CYS799  TRP800  GLU811  SER814 

> <Gold.Protein.RotatedAtoms>
  152.2645  134.7999  160.0424 H   0  0  0  0  0  0  0  0  0  0  0  0  # atno 6907 bound_to 6896
  151.8634  133.3456  159.3719 H   0  0  0  0  0  0  0  0  0  0  0  0  # atno 6908 bound_to 6896
  150.7128  134.5111  159.5652 H   0  0  0  0  0  0  0  0  0  0  0  0  # atno 6909 bound_to 6896
  146.1607  140.4636  142.8572 H   0  0  0  0  0  0  0  0  0  0  0  0  # atno 7974 bound_to 7965
  156.0711  140.3283  155.7576 H   0  0  0  0  0  0  0  0  0  0  0  0  # atno 8008 bound_to 7997
  155.5304  140.0593  157.2907 H   0  0  0  0  0  0  0  0  0  0  0  0  # atno 8009 bound_to 7997
  154.4530  140.1928  156.0479 H   0  0  0  0  0  0  0  0  0  0  0  0  # atno 8010 bound_to 7997
  140.6658  143.7183  150.7825 H   0  0  0  0  0  0  0  0  0  0  0  0  # atno 10167 bound_to 10162
  156.2434  130.4182  149.8733 H   0  0  0  0  0  0  0  0  0  0  0  0  # atno 10718 bound_to 10713
  154.6589  135.2922  154.9892 H   0  0  0  0  0  0  0  0  0  0  0  0  # atno 10763 bound_to 10752
  154.0958  135.6584  153.4864 H   0  0  0  0  0  0  0  0  0  0  0  0  # atno 10764 bound_to 10752
  153.0418  135.5231  154.7531 H   0  0  0  0  0  0  0  0  0  0  0  0  # atno 10765 bound_to 10752
  140.9873  134.0588  157.3695 H   0  0  0  0  0  0  0  0  0  0  0  0  # atno 11005 bound_to 11000
  144.8023  140.6236  143.6470 LP  0  0  0  0  0  0  0  0  0  0  0  0  # atno 17320 bound_to 7965
  145.4595  139.1514  143.3874 LP  0  0  0  0  0  0  0  0  0  0  0  0  # atno 17321 bound_to 7965
  140.0860  143.4923  152.2505 LP  0  0  0  0  0  0  0  0  0  0  0  0  # atno 17342 bound_to 10162
  139.5907  144.7549  151.3409 LP  0  0  0  0  0  0  0  0  0  0  0  0  # atno 17343 bound_to 10162
  156.6307  130.8664  151.3494 LP  0  0  0  0  0  0  0  0  0  0  0  0  # atno 17370 bound_to 10713
  157.7185  130.9527  150.1346 LP  0  0  0  0  0  0  0  0  0  0  0  0  # atno 17371 bound_to 10713
  139.8976  135.0151  156.7110 LP  0  0  0  0  0  0  0  0  0  0  0  0  # atno 17394 bound_to 11000
  140.7094  133.9236  155.8074 LP  0  0  0  0  0  0  0  0  0  0  0  0  # atno 17395 bound_to 11000

$$$$
