AV-unprocessed.smi:2324|AV-procd|sdf|9294|dock9
  -GOLD-   2272012513D 1   1.00000     0.00000
 Structure written by MMmdl.
 37 39  0  0  0  0  0  0  0  0  1 V2000
  150.7505  135.0354  155.8668 O   0  0  0  0  0  0  0  0  0  0  0  0
  150.1661  135.3383  154.8279 C   0  0  0  0  0  0  0  0  0  0  0  0
  149.6176  134.3898  154.0389 N   0  0  0  0  0  0  0  0  0  0  0  0
  149.5662  132.9704  154.1610 C   0  0  0  0  0  0  0  0  0  0  0  0
  148.5934  132.3438  153.3527 C   0  0  0  0  0  0  0  0  0  0  0  0
  148.4730  130.9450  153.4116 C   0  0  0  0  0  0  0  0  0  0  0  0
  149.3392  130.2609  154.2810 C   0  0  0  0  0  0  0  0  0  0  0  0
  150.2571  130.8992  155.0382 N   0  0  0  0  0  0  0  0  0  0  0  0
  150.3647  132.2304  154.9758 N   0  0  0  0  0  0  0  0  0  0  0  0
  150.0330  136.6097  154.4152 N   0  0  0  0  0  0  0  0  0  0  0  0
  150.5449  137.7847  155.1129 C   0  0  1  0  0  0  0  0  0  0  0  0
  152.0070  138.0295  154.7176 C   0  0  0  0  0  0  0  0  0  0  0  0
  152.5297  139.3268  155.3530 C   0  0  0  0  0  0  0  0  0  0  0  0
  151.7040  140.4304  154.9864 O   0  0  0  0  0  0  0  0  0  0  0  0
  150.3291  140.3158  155.3585 C   0  0  2  0  0  0  0  0  0  0  0  0
  150.1349  140.4372  156.8641 C   0  0  0  0  0  0  0  0  0  0  0  0
  150.3627  141.7555  157.5658 C   0  0  0  0  0  0  0  0  0  0  0  0
  151.3219  140.6096  157.7822 C   0  0  0  0  0  0  0  0  0  0  0  0
  149.7139  139.0325  154.7668 C   0  0  0  0  0  0  0  0  0  0  0  0
  149.1614  134.7515  153.2140 H   0  0  0  0  0  0  0  0  0  0  0  0
  147.9516  132.9192  152.7014 H   0  0  0  0  0  0  0  0  0  0  0  0
  147.7447  130.4170  152.8140 H   0  0  0  0  0  0  0  0  0  0  0  0
  149.2959  129.1858  154.3726 H   0  0  0  0  0  0  0  0  0  0  0  0
  149.5366  136.7741  153.5505 H   0  0  0  0  0  0  0  0  0  0  0  0
  150.5037  137.6041  156.1884 H   0  0  0  0  0  0  0  0  0  0  0  0
  152.6289  137.1875  155.0239 H   0  0  0  0  0  0  0  0  0  0  0  0
  152.0922  138.1021  153.6324 H   0  0  0  0  0  0  0  0  0  0  0  0
  152.5873  139.2324  156.4375 H   0  0  0  0  0  0  0  0  0  0  0  0
  153.5441  139.5252  155.0070 H   0  0  0  0  0  0  0  0  0  0  0  0
  149.8216  141.1658  154.9008 H   0  0  0  0  0  0  0  0  0  0  0  0
  149.3177  139.8400  157.2621 H   0  0  0  0  0  0  0  0  0  0  0  0
  150.7094  142.5957  156.9674 H   0  0  0  0  0  0  0  0  0  0  0  0
  149.6896  142.0108  158.3815 H   0  0  0  0  0  0  0  0  0  0  0  0
  151.2904  140.1006  158.7434 H   0  0  0  0  0  0  0  0  0  0  0  0
  152.3077  140.6876  157.3280 H   0  0  0  0  0  0  0  0  0  0  0  0
  149.6635  139.1390  153.6821 H   0  0  0  0  0  0  0  0  0  0  0  0
  148.6851  138.9180  155.1103 H   0  0  0  0  0  0  0  0  0  0  0  0
  1  2  2  0  0  0  0
  2  3  1  0  0  0  0
  2 10  1  0  0  0  0
  3  4  1  0  0  0  0
  3 20  1  0  0  0  0
  4  9  1  0  0  0  0
  4  5  2  0  0  0  0
  5  6  1  0  0  0  0
  5 21  1  0  0  0  0
  6  7  2  0  0  0  0
  6 22  1  0  0  0  0
  7  8  1  0  0  0  0
  7 23  1  0  0  0  0
  8  9  2  0  0  0  0
 10 11  1  0  0  0  0
 10 24  1  0  0  0  0
 11 19  1  0  0  0  0
 11 12  1  0  0  0  0
 11 25  1  0  0  0  0
 12 13  1  0  0  0  0
 12 26  1  0  0  0  0
 12 27  1  0  0  0  0
 13 14  1  0  0  0  0
 13 28  1  0  0  0  0
 13 29  1  0  0  0  0
 14 15  1  0  0  0  0
 15 16  1  0  0  0  0
 15 19  1  0  0  0  0
 15 30  1  0  0  0  0
 16 18  1  0  0  0  0
 16 17  1  0  0  0  0
 16 31  1  0  0  0  0
 17 18  1  0  0  0  0
 17 32  1  0  0  0  0
 17 33  1  0  0  0  0
 18 34  1  0  0  0  0
 18 35  1  0  0  0  0
 19 36  1  0  0  0  0
 19 37  1  0  0  0  0
M  END
> <s_m_source_file>
AV-unprocessed.smi

> <i_m_source_file_index>
2324

> <i_lp_mmshare_version>
43012

> <i_f3d_flags>
0

> <s_epik_input>
bjFuW2NIXVtjSF1bY0hdYzFbTkhdQyg9TylbTkhdW0NAQEhdMltDSDJdW0NIMl1PW0NASF0oW0NIMl0yKVtDSF0zW0NIMl1bQ0gyXTM=

> <s_epik_cmdline>
J2VwaWtfcHl0aG9uJywgJy1waCcsICc3LjAnLCAnLXRuJywgJzgnLCAnLW1hJywgJzIwMCcsICctbWV0YWxfYmluZGluZycsICctaW1hZScsICc8aW5maWxlLm1hZT4nLCAnLW9tYWUnLCAnPG91dGZpbGUubWFlPic=

> <r_lp_tautomer_probability>
1

> <r_epik_Ionization_Penalty>
0.00521499

> <r_epik_Ionization_Penalty_Charging>
0

> <r_epik_Ionization_Penalty_Neutral>
0.00521499

> <r_epik_State_Penalty>
-0

> <r_epik_Charging_Adjusted_Penalty>
0

> <i_epik_Tot_Q>
0

> <i_epik_Tot_abs_Q>
0

> <r_epik_Metal_State_Penalty>
-0

> <b_epik_Metal_Only>
0

> <s_lp_Force_Field>
OPLS_2005

> <r_lp_Energy>
28.1305

> <b_lp_Chiralities_Consistent>
1

> <s_lp_Variant>
AV-unprocessed.smi:2324-4

> <Gold.Version>
5.8.1

> <Gold.Id.Protein>
6NUR|6NUR_protein|mol2

> <Gold.PLP.Fitness>
38.8542

> <Gold.PLP.PLP>
-32.4735

> <Gold.PLP.part.hbond>
-2.8831

> <Gold.PLP.part.metal>
0.0000

> <Gold.PLP.part.buried>
-2.7330

> <Gold.PLP.part.nonpolar>
-26.8945

> <Gold.PLP.part.repulsive>
0.1741

> <Gold.PLP.ligand.clash>
0.0000

> <Gold.PLP.ligand.torsion>
1.2416

> <Gold.PLP.Chemscore.Hbond>
2.5952

> <Gold.PLP.Chemscore.CHOScore>
0.0000

> <Gold.PLP.Chemscore.Metal>
0.0000

> <Gold.Chemscore.Hbonds>
donor molecule, donor type, donor heavy atom, donor atom, acceptor molecule, acceptor atom, score
      L1  H     3    20       P1  7948  0.59
      L1  H    10    24       P1  7948  1.00
      P1  H  7989  7998       L1    14  0.83

> <Gold.PLP.Chemscore.Internal.Correction>
1.0783

> <Gold.Rescore>
     Score         DG    S(hbond)    S(metal)    S(lipo)     H(rot)  DE(clash)    DE(int)     intcor
     13.58     -16.13       2.05        0.00      59.90       1.25       0.05       2.50       ----

> <Gold.Chemscore.Fitness>
13.5844

> <Gold.Chemscore.DG>
-16.1296

> <Gold.Chemscore.ZeroCoef>
-5.4800

> <Gold.Chemscore.Hbond>
2.0464

> <Gold.Chemscore.Metal>
0.0000

> <Gold.Chemscore.Lipo>
59.9021

> <Gold.Chemscore.Internal_Hbond>
0.0000

> <Gold.Chemscore.DEClash>
0.0456

> <Gold.Chemscore.DEInternal>
2.4996

> <Gold.Chemscore.Rot>
1.2476

> <Gold.Chemscore.Internal.Correction>
   9.000000E+99

> <Gold.Chemscore.Hbonds>
donor molecule, donor type, donor heavy atom, donor atom, acceptor molecule, acceptor atom, score
      L1  H     3    20       P1  7948  0.04
      L1  H    10    24       P1  7948  0.75
      P1  H  7989  7998       L1    14  0.34

> <Gold.Chemscore.Hbond.Weighted>
-6.8348

> <Gold.Chemscore.Metal.Weighted>
-0.0000

> <Gold.Chemscore.Lipo.Weighted>
-7.0085

> <Gold.Chemscore.Internal_Hbond.Weighted>
0.0000

> <Gold.Chemscore.DEClash.Weighted>
0.0456

> <Gold.Chemscore.DEInternal.Weighted>
2.4996

> <Gold.Chemscore.Rot.Weighted>
3.1938

> <Gold.Chemscore.Internal.Correction.Weighted>
   9.000000E+99

> <Gold.Protein.RotatedTorsions>
[ 6907 6896 6895 6894 ] final -104.07 input  -60.11 | X-H torsion
[ 7974 7965 7964 7962 ] final  -78.57 input  175.53 | X-H torsion
[ 8008 7997 7996 7995 ] final  152.34 input   59.86 | X-H torsion
[ 10167 10162 10161 10158 ] final -165.03 input  -65.29 | X-H torsion
[ 10718 10713 10712 10709 ] final  -91.68 input   66.30 | X-H torsion
[ 10763 10752 10751 10750 ] final  -55.35 input  -60.55 | X-H torsion
[ 11005 11000 10999 10996 ] final   75.01 input  -57.11 | X-H torsion

> <Gold.Protein.ActiveResidues>
 VAL166  LYS551  ARG553  GLY616  TRP617  ASP618  TYR619  PRO620  LYS621  CYS622 
 ASP623  PHE694  ASN695  SER759  ASP760  ASP761  ALA762  ILE779  LEU786  VAL792 
 PHE793  MET794  SER795  GLU796  ALA797  LYS798  CYS799  TRP800  GLU811  SER814 

> <Gold.Protein.RotatedAtoms>
  150.7269  134.0334  159.3740 H   0  0  0  0  0  0  0  0  0  0  0  0  # atno 6907 bound_to 6896
  151.8304  135.0621  160.0445 H   0  0  0  0  0  0  0  0  0  0  0  0  # atno 6908 bound_to 6896
  152.2937  133.5551  159.5610 H   0  0  0  0  0  0  0  0  0  0  0  0  # atno 6909 bound_to 6896
  145.5847  140.9441  143.1324 H   0  0  0  0  0  0  0  0  0  0  0  0  # atno 7974 bound_to 7965
  156.2633  140.2023  156.6317 H   0  0  0  0  0  0  0  0  0  0  0  0  # atno 8008 bound_to 7997
  154.6677  140.0553  157.0156 H   0  0  0  0  0  0  0  0  0  0  0  0  # atno 8009 bound_to 7997
  155.1182  140.3222  155.4507 H   0  0  0  0  0  0  0  0  0  0  0  0  # atno 8010 bound_to 7997
  139.6210  144.0625  152.1932 H   0  0  0  0  0  0  0  0  0  0  0  0  # atno 10167 bound_to 10162
  155.9995  130.4957  150.5512 H   0  0  0  0  0  0  0  0  0  0  0  0  # atno 10718 bound_to 10713
  154.1893  135.6430  153.5055 H   0  0  0  0  0  0  0  0  0  0  0  0  # atno 10763 bound_to 10752
  153.0039  135.5425  154.6432 H   0  0  0  0  0  0  0  0  0  0  0  0  # atno 10764 bound_to 10752
  154.5816  135.2926  155.0699 H   0  0  0  0  0  0  0  0  0  0  0  0  # atno 10765 bound_to 10752
  139.9364  134.7481  156.1218 H   0  0  0  0  0  0  0  0  0  0  0  0  # atno 11005 bound_to 11000
  144.7378  139.7536  143.7322 LP  0  0  0  0  0  0  0  0  0  0  0  0  # atno 17320 bound_to 7965
  146.1690  139.4833  142.9939 LP  0  0  0  0  0  0  0  0  0  0  0  0  # atno 17321 bound_to 7965
  140.0267  144.6112  150.7521 LP  0  0  0  0  0  0  0  0  0  0  0  0  # atno 17342 bound_to 10162
  140.7381  143.2774  151.3699 LP  0  0  0  0  0  0  0  0  0  0  0  0  # atno 17343 bound_to 10162
  157.3434  131.0721  151.1770 LP  0  0  0  0  0  0  0  0  0  0  0  0  # atno 17370 bound_to 10713
  157.2610  130.6659  149.5975 LP  0  0  0  0  0  0  0  0  0  0  0  0  # atno 17371 bound_to 10713
  141.0979  133.6688  156.2687 LP  0  0  0  0  0  0  0  0  0  0  0  0  # atno 17394 bound_to 11000
  140.6065  134.5502  157.5526 LP  0  0  0  0  0  0  0  0  0  0  0  0  # atno 17395 bound_to 11000

$$$$
