AV-unprocessed.smi:1868|AV-procd|sdf|7586|dock6
  -GOLD-   22720 9293D 1   1.00000     0.00000
 Structure written by MMmdl.
 47 49  0  0  0  0  0  0  0  0  2 V2000
  152.0226  139.1359  155.7616 C   0  0  0  0  0  0  0  0  0  0  0  0
  152.1735  140.0224  156.9569 C   0  0  0  0  0  0  0  0  0  0  0  0
  153.0106  139.7347  157.9533 N   0  0  0  0  0  0  0  0  0  0  0  0
  152.8411  140.8041  158.8111 C   0  0  0  0  0  0  0  0  0  0  0  0
  153.4472  141.0890  160.0554 C   0  0  0  0  0  0  0  0  0  0  0  0
  153.1083  142.2610  160.7629 C   0  0  0  0  0  0  0  0  0  0  0  0
  152.1608  143.1633  160.2375 C   0  0  0  0  0  0  0  0  0  0  0  0
  151.5446  142.8985  158.9996 C   0  0  0  0  0  0  0  0  0  0  0  0
  151.8854  141.7264  158.2979 C   0  0  0  0  0  0  0  0  0  0  0  0
  151.4668  141.1717  157.0914 N   0  0  0  0  0  0  0  0  0  0  0  0
  150.4782  141.7278  156.1780 C   0  0  0  0  0  0  0  0  0  0  0  0
  149.0543  141.1888  156.4305 C   0  0  2  0  0  0  0  0  0  0  0  0
  149.1796  139.8313  156.8041 O   0  0  0  0  0  0  0  0  0  0  0  0
  148.1286  141.2903  155.1961 C   0  0  0  0  0  0  0  0  0  0  0  0
  147.1549  142.4085  155.2845 N   0  3  2  0  0  0  0  0  0  0  0  0
  146.3332  142.3328  156.5201 C   0  0  0  0  0  0  0  0  0  0  0  0
  145.4248  143.5665  156.6651 C   0  0  0  0  0  0  0  0  0  0  0  0
  144.5258  143.7755  155.4335 C   0  0  2  0  0  0  0  0  0  0  0  0
  143.3706  142.7615  155.3600 C   0  0  0  0  0  0  0  0  0  0  0  0
  145.3948  143.7821  154.1629 C   0  0  0  0  0  0  0  0  0  0  0  0
  146.3048  142.5439  154.0713 C   0  0  0  0  0  0  0  0  0  0  0  0
  152.6549  138.2529  155.8592 H   0  0  0  0  0  0  0  0  0  0  0  0
  152.3177  139.6686  154.8575 H   0  0  0  0  0  0  0  0  0  0  0  0
  150.9898  138.8054  155.6578 H   0  0  0  0  0  0  0  0  0  0  0  0
  154.1747  140.4046  160.4666 H   0  0  0  0  0  0  0  0  0  0  0  0
  153.5780  142.4689  161.7131 H   0  0  0  0  0  0  0  0  0  0  0  0
  151.9079  144.0590  160.7857 H   0  0  0  0  0  0  0  0  0  0  0  0
  150.8177  143.5879  158.5971 H   0  0  0  0  0  0  0  0  0  0  0  0
  150.4925  142.8140  156.2768 H   0  0  0  0  0  0  0  0  0  0  0  0
  150.7893  141.5165  155.1541 H   0  0  0  0  0  0  0  0  0  0  0  0
  148.6278  141.7282  157.2742 H   0  0  0  0  0  0  0  0  0  0  0  0
  148.8865  139.2864  156.0902 H   0  0  0  0  0  0  0  0  0  0  0  0
  148.7058  141.4183  154.2802 H   0  0  0  0  0  0  0  0  0  0  0  0
  147.5978  140.3428  155.0891 H   0  0  0  0  0  0  0  0  0  0  0  0
  145.7394  141.4176  156.5109 H   0  0  0  0  0  0  0  0  0  0  0  0
  146.9866  142.2725  157.3916 H   0  0  0  0  0  0  0  0  0  0  0  0
  144.8173  143.4803  157.5667 H   0  0  0  0  0  0  0  0  0  0  0  0
  146.0489  144.4501  156.8062 H   0  0  0  0  0  0  0  0  0  0  0  0
  144.0659  144.7605  155.5241 H   0  0  0  0  0  0  0  0  0  0  0  0
  143.7257  141.7364  155.2576 H   0  0  0  0  0  0  0  0  0  0  0  0
  142.7222  142.9716  154.5091 H   0  0  0  0  0  0  0  0  0  0  0  0
  142.7541  142.8077  156.2582 H   0  0  0  0  0  0  0  0  0  0  0  0
  144.7651  143.8502  153.2751 H   0  0  0  0  0  0  0  0  0  0  0  0
  146.0170  144.6782  154.1606 H   0  0  0  0  0  0  0  0  0  0  0  0
  146.9252  142.6358  153.1811 H   0  0  0  0  0  0  0  0  0  0  0  0
  145.7070  141.6412  153.9388 H   0  0  0  0  0  0  0  0  0  0  0  0
  147.6983  143.2560  155.3625 H   0  0  0  0  0  0  0  0  0  0  0  0
  1  2  1  0  0  0  0
  1 22  1  0  0  0  0
  1 23  1  0  0  0  0
  1 24  1  0  0  0  0
  2 10  1  0  0  0  0
  2  3  2  0  0  0  0
  3  4  1  0  0  0  0
  4  9  2  0  0  0  0
  4  5  1  0  0  0  0
  5  6  2  0  0  0  0
  5 25  1  0  0  0  0
  6  7  1  0  0  0  0
  6 26  1  0  0  0  0
  7  8  2  0  0  0  0
  7 27  1  0  0  0  0
  8  9  1  0  0  0  0
  8 28  1  0  0  0  0
  9 10  1  0  0  0  0
 10 11  1  0  0  0  0
 11 12  1  0  0  0  0
 11 29  1  0  0  0  0
 11 30  1  0  0  0  0
 12 13  1  0  0  0  0
 12 14  1  0  0  0  0
 12 31  1  0  0  0  0
 13 32  1  0  0  0  0
 14 15  1  0  0  0  0
 14 33  1  0  0  0  0
 14 34  1  0  0  0  0
 15 21  1  0  0  0  0
 15 16  1  0  0  0  0
 15 47  1  0  0  0  0
 16 17  1  0  0  0  0
 16 35  1  0  0  0  0
 16 36  1  0  0  0  0
 17 18  1  0  0  0  0
 17 37  1  0  0  0  0
 17 38  1  0  0  0  0
 18 19  1  0  0  0  0
 18 20  1  0  0  0  0
 18 39  1  0  0  0  0
 19 40  1  0  0  0  0
 19 41  1  0  0  0  0
 19 42  1  0  0  0  0
 20 21  1  0  0  0  0
 20 43  1  0  0  0  0
 20 44  1  0  0  0  0
 21 45  1  0  0  0  0
 21 46  1  0  0  0  0
M  CHG  1  15   1
M  END
> <s_m_source_file>
AV-unprocessed.smi

> <i_m_source_file_index>
1868

> <i_lp_mmshare_version>
43012

> <i_f3d_flags>
0

> <s_epik_input>
W2NIXTFbY0hdW2NIXVtjSF1jKGMxMiluKGMobjIpW0NIM10pW0NIMl1bQ0BIXShbT0hdKVtDSDJdTjNbQ0gyXVtDSDJdW0NIXShbQ0gzXSlbQ0gyXVtDSDJdMw==

> <s_epik_cmdline>
J2VwaWtfcHl0aG9uJywgJy1waCcsICc3LjAnLCAnLXRuJywgJzgnLCAnLW1hJywgJzIwMCcsICctbWV0YWxfYmluZGluZycsICctaW1hZScsICc8aW5maWxlLm1hZT4nLCAnLW9tYWUnLCAnPG91dGZpbGUubWFlPic=

> <r_epik_Ionization_Penalty>
0.101157

> <r_epik_Ionization_Penalty_Charging>
0.00181365

> <r_epik_Ionization_Penalty_Neutral>
0.0993436

> <r_epik_State_Penalty>
0.0871902

> <r_epik_Charging_Adjusted_Penalty>
0.0890039

> <i_epik_Tot_Q>
1

> <i_epik_Tot_abs_Q>
1

> <r_epik_Metal_State_Penalty>
9.24346e-05

> <b_epik_Metal_Only>
0

> <s_lp_Force_Field>
OPLS_2005

> <r_lp_Energy>
25.8314

> <b_lp_Chiralities_Consistent>
1

> <s_lp_Variant>
AV-unprocessed.smi:1868-3

> <Gold.Version>
5.8.1

> <Gold.Id.Protein>
6NUR|6NUR_protein|mol2

> <Gold.PLP.Fitness>
48.2798

> <Gold.PLP.PLP>
-41.7317

> <Gold.PLP.part.hbond>
-2.0000

> <Gold.PLP.part.metal>
0.0000

> <Gold.PLP.part.buried>
-5.2956

> <Gold.PLP.part.nonpolar>
-34.9972

> <Gold.PLP.part.repulsive>
0.0795

> <Gold.PLP.ligand.clash>
0.0000

> <Gold.PLP.ligand.torsion>
1.2346

> <Gold.PLP.Chemscore.Hbond>
3.0000

> <Gold.PLP.Chemscore.CHOScore>
0.0000

> <Gold.PLP.Chemscore.Metal>
0.0000

> <Gold.Chemscore.Hbonds>
donor molecule, donor type, donor heavy atom, donor atom, acceptor molecule, acceptor atom, score
      L1  H    15    47       P1  8028  2.00
      P1  H  7997  8010       L1     3  0.99

> <Gold.PLP.Chemscore.Internal.Correction>
0.0173

> <Gold.Rescore>
     Score         DG    S(hbond)    S(metal)    S(lipo)     H(rot)  DE(clash)    DE(int)     intcor
     14.56     -16.95       0.95        0.00     112.93       1.92       0.20       2.20       ----

> <Gold.Chemscore.Fitness>
14.5552

> <Gold.Chemscore.DG>
-16.9528

> <Gold.Chemscore.ZeroCoef>
-5.4800

> <Gold.Chemscore.Hbond>
0.9507

> <Gold.Chemscore.Metal>
0.0000

> <Gold.Chemscore.Lipo>
112.9259

> <Gold.Chemscore.Internal_Hbond>
0.0000

> <Gold.Chemscore.DEClash>
0.1966

> <Gold.Chemscore.DEInternal>
2.2010

> <Gold.Chemscore.Rot>
1.9198

> <Gold.Chemscore.Internal.Correction>
   9.000000E+99

> <Gold.Chemscore.Hbonds>
donor molecule, donor type, donor heavy atom, donor atom, acceptor molecule, acceptor atom, score
      L1  H    15    47       P1  8028  0.35
      P1  H  7997  8010       L1     3  0.16

> <Gold.Chemscore.Hbond.Weighted>
-3.1752

> <Gold.Chemscore.Metal.Weighted>
-0.0000

> <Gold.Chemscore.Lipo.Weighted>
-13.2123

> <Gold.Chemscore.Internal_Hbond.Weighted>
0.0000

> <Gold.Chemscore.DEClash.Weighted>
0.1966

> <Gold.Chemscore.DEInternal.Weighted>
2.2010

> <Gold.Chemscore.Rot.Weighted>
4.9147

> <Gold.Chemscore.Internal.Correction.Weighted>
   9.000000E+99

> <Gold.Protein.RotatedTorsions>
[ 6907 6896 6895 6894 ] final -139.03 input  -60.11 | X-H torsion
[ 7974 7965 7964 7962 ] final  137.82 input  175.53 | X-H torsion
[ 8008 7997 7996 7995 ] final   23.93 input   59.86 | X-H torsion
[ 10167 10162 10161 10158 ] final   16.39 input  -65.29 | X-H torsion
[ 10718 10713 10712 10709 ] final  -87.83 input   66.30 | X-H torsion
[ 10763 10752 10751 10750 ] final  128.85 input  -60.55 | X-H torsion
[ 11005 11000 10999 10996 ] final  -87.66 input  -57.11 | X-H torsion

> <Gold.Protein.ActiveResidues>
 VAL166  LYS551  ARG553  GLY616  TRP617  ASP618  TYR619  PRO620  LYS621  CYS622 
 ASP623  PHE694  ASN695  SER759  ASP760  ASP761  ALA762  ILE779  LEU786  VAL792 
 PHE793  MET794  SER795  GLU796  ALA797  LYS798  CYS799  TRP800  GLU811  SER814 

> <Gold.Protein.RotatedAtoms>
  151.0425  133.5694  159.2649 H   0  0  0  0  0  0  0  0  0  0  0  0  # atno 6907 bound_to 6896
  151.2735  135.0691  159.9152 H   0  0  0  0  0  0  0  0  0  0  0  0  # atno 6908 bound_to 6896
  152.5367  134.0152  159.8010 H   0  0  0  0  0  0  0  0  0  0  0  0  # atno 6909 bound_to 6896
  144.9431  139.4907  143.5562 H   0  0  0  0  0  0  0  0  0  0  0  0  # atno 7974 bound_to 7965
  154.9884  140.3110  155.4916 H   0  0  0  0  0  0  0  0  0  0  0  0  # atno 8008 bound_to 7997
  156.2943  140.2253  156.4927 H   0  0  0  0  0  0  0  0  0  0  0  0  # atno 8009 bound_to 7997
  154.7725  140.0451  157.1051 H   0  0  0  0  0  0  0  0  0  0  0  0  # atno 8010 bound_to 7997
  140.5800  143.8999  150.6782 H   0  0  0  0  0  0  0  0  0  0  0  0  # atno 10167 bound_to 10162
  155.9984  130.4814  150.4927 H   0  0  0  0  0  0  0  0  0  0  0  0  # atno 10718 bound_to 10713
  153.7323  135.3237  155.3288 H   0  0  0  0  0  0  0  0  0  0  0  0  # atno 10763 bound_to 10752
  154.8322  135.4525  154.1109 H   0  0  0  0  0  0  0  0  0  0  0  0  # atno 10764 bound_to 10752
  153.2260  135.6954  153.8025 H   0  0  0  0  0  0  0  0  0  0  0  0  # atno 10765 bound_to 10752
  141.1613  133.7524  156.9339 H   0  0  0  0  0  0  0  0  0  0  0  0  # atno 11005 bound_to 11000
  146.3293  139.8464  142.8881 LP  0  0  0  0  0  0  0  0  0  0  0  0  # atno 17320 bound_to 7965
  145.2960  141.0181  143.3636 LP  0  0  0  0  0  0  0  0  0  0  0  0  # atno 17321 bound_to 7965
  140.2495  143.3603  152.1417 LP  0  0  0  0  0  0  0  0  0  0  0  0  # atno 17342 bound_to 10162
  139.5164  144.6977  151.5582 LP  0  0  0  0  0  0  0  0  0  0  0  0  # atno 17343 bound_to 10162
  157.2920  131.0628  151.2127 LP  0  0  0  0  0  0  0  0  0  0  0  0  # atno 17370 bound_to 10713
  157.3136  130.6902  149.6229 LP  0  0  0  0  0  0  0  0  0  0  0  0  # atno 17371 bound_to 10713
  140.1368  134.9320  157.2412 LP  0  0  0  0  0  0  0  0  0  0  0  0  # atno 17394 bound_to 11000
  140.2886  134.3267  155.7322 LP  0  0  0  0  0  0  0  0  0  0  0  0  # atno 17395 bound_to 11000

$$$$
