AV-unprocessed.smi:260|AV-procd|sdf|1975|dock4
  -GOLD-   2262021143D 1   1.00000     0.00000
 Structure written by MMmdl.
 53 56  0  0  0  0  0  0  0  0  1 V2000
  148.2204  132.5409  158.4869 C   0  0  0  0  0  0  0  0  0  0  0  0
  148.3170  133.0187  157.1161 N   0  0  0  0  0  0  0  0  0  0  0  0
  149.3387  133.7448  156.6343 C   0  0  0  0  0  0  0  0  0  0  0  0
  150.2963  134.0650  157.3407 O   0  0  0  0  0  0  0  0  0  0  0  0
  149.2866  134.1827  155.1438 C   0  0  1  0  0  0  0  0  0  0  0  0
  149.2958  132.9747  154.1779 C   0  0  0  0  0  0  0  0  0  0  0  0
  148.0617  135.0890  154.9016 C   0  0  0  0  0  0  0  0  0  0  0  0
  148.5248  136.4981  155.2788 C   0  0  0  0  0  0  0  0  0  0  0  0
  149.9566  136.4970  155.0350 N   0  0  0  0  0  0  0  0  0  0  0  0
  150.7707  137.5380  155.3495 C   0  0  0  0  0  0  0  0  0  0  0  0
  152.1144  137.3461  155.2774 N   0  0  0  0  0  0  0  0  0  0  0  0
  152.9609  138.3353  155.5744 C   0  0  0  0  0  0  0  0  0  0  0  0
  152.6840  139.5808  155.9607 N   0  0  0  0  0  0  0  0  0  0  0  0
  151.3382  139.7874  156.0321 C   0  0  0  0  0  0  0  0  0  0  0  0
  150.3190  138.8339  155.7425 C   0  0  0  0  0  0  0  0  0  0  0  0
  149.0714  139.4230  155.9206 N   0  0  0  0  0  0  0  0  0  0  0  0
  149.3365  140.6431  156.2965 C   0  0  0  0  0  0  0  0  0  0  0  0
  150.6745  140.9422  156.4092 N   0  0  0  0  0  0  0  0  0  0  0  0
  151.2492  142.2172  156.8026 C   0  0  0  0  0  0  0  0  0  0  0  0
  150.7464  142.7315  158.1713 C   0  0  2  0  0  0  0  0  0  0  0  0
  150.0412  143.9248  157.8947 O   0  0  0  0  0  0  0  0  0  0  0  0
  151.8499  143.0819  159.1966 C   0  0  2  0  0  0  0  0  0  0  0  0
  152.7546  141.9277  159.6373 C   0  0  0  0  0  0  0  0  0  0  0  0
  153.2380  142.3442  161.0165 C   0  0  0  0  0  0  0  0  0  0  0  0
  152.2650  143.4495  161.4276 C   0  0  0  0  0  0  0  0  0  0  0  0
  151.2483  143.4275  160.4365 O   0  0  0  0  0  0  0  0  0  0  0  0
  150.4565  135.1419  154.8242 C   0  0  0  0  0  0  0  0  0  0  0  0
  147.3117  131.9520  158.6113 H   0  0  0  0  0  0  0  0  0  0  0  0
  148.1842  133.3764  159.1869 H   0  0  0  0  0  0  0  0  0  0  0  0
  149.0725  131.9094  158.7410 H   0  0  0  0  0  0  0  0  0  0  0  0
  147.5592  132.7856  156.4909 H   0  0  0  0  0  0  0  0  0  0  0  0
  149.3084  133.3024  153.1379 H   0  0  0  0  0  0  0  0  0  0  0  0
  148.4097  132.3508  154.3026 H   0  0  0  0  0  0  0  0  0  0  0  0
  150.1760  132.3479  154.3269 H   0  0  0  0  0  0  0  0  0  0  0  0
  147.7898  135.0742  153.8453 H   0  0  0  0  0  0  0  0  0  0  0  0
  147.1775  134.7849  155.4637 H   0  0  0  0  0  0  0  0  0  0  0  0
  148.0158  137.2561  154.6831 H   0  0  0  0  0  0  0  0  0  0  0  0
  148.3323  136.6982  156.3334 H   0  0  0  0  0  0  0  0  0  0  0  0
  154.0102  138.0931  155.4916 H   0  0  0  0  0  0  0  0  0  0  0  0
  148.5572  141.3600  156.5106 H   0  0  0  0  0  0  0  0  0  0  0  0
  152.3373  142.1386  156.8036 H   0  0  0  0  0  0  0  0  0  0  0  0
  150.9935  142.9325  156.0195 H   0  0  0  0  0  0  0  0  0  0  0  0
  150.0455  142.0169  158.6043 H   0  0  0  0  0  0  0  0  0  0  0  0
  149.6604  144.2412  158.6995 H   0  0  0  0  0  0  0  0  0  0  0  0
  152.4629  143.9128  158.8411 H   0  0  0  0  0  0  0  0  0  0  0  0
  152.1776  141.0060  159.7220 H   0  0  0  0  0  0  0  0  0  0  0  0
  153.5801  141.7511  158.9483 H   0  0  0  0  0  0  0  0  0  0  0  0
  153.2150  141.5025  161.7095 H   0  0  0  0  0  0  0  0  0  0  0  0
  154.2594  142.7255  160.9834 H   0  0  0  0  0  0  0  0  0  0  0  0
  151.8466  143.2922  162.4219 H   0  0  0  0  0  0  0  0  0  0  0  0
  152.7598  144.4217  161.4153 H   0  0  0  0  0  0  0  0  0  0  0  0
  151.3266  134.9294  155.4478 H   0  0  0  0  0  0  0  0  0  0  0  0
  150.7731  135.0493  153.7849 H   0  0  0  0  0  0  0  0  0  0  0  0
  1  2  1  0  0  0  0
  1 28  1  0  0  0  0
  1 29  1  0  0  0  0
  1 30  1  0  0  0  0
  2  3  1  0  0  0  0
  2 31  1  0  0  0  0
  3  4  2  0  0  0  0
  3  5  1  0  0  0  0
  5 27  1  0  0  0  0
  5  6  1  0  0  0  0
  5  7  1  0  0  0  0
  6 32  1  0  0  0  0
  6 33  1  0  0  0  0
  6 34  1  0  0  0  0
  7  8  1  0  0  0  0
  7 35  1  0  0  0  0
  7 36  1  0  0  0  0
  8  9  1  0  0  0  0
  8 37  1  0  0  0  0
  8 38  1  0  0  0  0
  9 10  1  0  0  0  0
  9 27  1  0  0  0  0
 10 15  1  0  0  0  0
 10 11  2  0  0  0  0
 11 12  1  0  0  0  0
 12 13  2  0  0  0  0
 12 39  1  0  0  0  0
 13 14  1  0  0  0  0
 14 18  1  0  0  0  0
 14 15  2  0  0  0  0
 15 16  1  0  0  0  0
 16 17  2  0  0  0  0
 17 18  1  0  0  0  0
 17 40  1  0  0  0  0
 18 19  1  0  0  0  0
 19 20  1  0  0  0  0
 19 41  1  0  0  0  0
 19 42  1  0  0  0  0
 20 21  1  0  0  0  0
 20 22  1  0  0  0  0
 20 43  1  0  0  0  0
 21 44  1  0  0  0  0
 22 26  1  0  0  0  0
 22 23  1  0  0  0  0
 22 45  1  0  0  0  0
 23 24  1  0  0  0  0
 23 46  1  0  0  0  0
 23 47  1  0  0  0  0
 24 25  1  0  0  0  0
 24 48  1  0  0  0  0
 24 49  1  0  0  0  0
 25 26  1  0  0  0  0
 25 50  1  0  0  0  0
 25 51  1  0  0  0  0
 27 52  1  0  0  0  0
 27 53  1  0  0  0  0
M  END
> <s_m_source_file>
AV-unprocessed.smi

> <i_m_source_file_index>
260

> <i_lp_mmshare_version>
43012

> <i_f3d_flags>
0

> <s_epik_input>
W0NIM11bTkhdQyg9TylbQ0BAXTEoW0NIM10pW0NIMl1bQ0gyXU4oW0NIMl0xKWMobltjSF1uMiljKGMyMyluW2NIXW4zW0NIMl1bQ0BIXShbT0hdKVtDQEBIXTRbQ0gyXVtDSDJdW0NIMl1PNA==

> <s_epik_cmdline>
J2VwaWtfcHl0aG9uJywgJy1waCcsICc3LjAnLCAnLXRuJywgJzgnLCAnLW1hJywgJzIwMCcsICctbWV0YWxfYmluZGluZycsICctaW1hZScsICc8aW5maWxlLm1hZT4nLCAnLW9tYWUnLCAnPG91dGZpbGUubWFlPic=

> <r_lp_tautomer_probability>
1

> <r_epik_Ionization_Penalty>
0.00115068

> <r_epik_Ionization_Penalty_Charging>
0

> <r_epik_Ionization_Penalty_Neutral>
0.00115068

> <r_epik_State_Penalty>
0.000668876

> <r_epik_Charging_Adjusted_Penalty>
0.000668876

> <i_epik_Tot_Q>
0

> <i_epik_Tot_abs_Q>
0

> <r_epik_Metal_State_Penalty>
-0

> <b_epik_Metal_Only>
0

> <s_lp_Force_Field>
OPLS_2005

> <r_lp_Energy>
51.9197

> <b_lp_Chiralities_Consistent>
1

> <s_lp_Variant>
AV-unprocessed.smi:260-1

> <Gold.Version>
5.8.1

> <Gold.Id.Protein>
6NUR|6NUR_protein|mol2

> <Gold.PLP.Fitness>
51.5703

> <Gold.PLP.PLP>
-45.2710

> <Gold.PLP.part.hbond>
-5.3941

> <Gold.PLP.part.metal>
0.0000

> <Gold.PLP.part.buried>
-6.6690

> <Gold.PLP.part.nonpolar>
-34.6889

> <Gold.PLP.part.repulsive>
0.1791

> <Gold.PLP.ligand.clash>
0.0000

> <Gold.PLP.ligand.torsion>
0.8871

> <Gold.PLP.Chemscore.Hbond>
2.6019

> <Gold.PLP.Chemscore.CHOScore>
0.0000

> <Gold.PLP.Chemscore.Metal>
0.0000

> <Gold.Chemscore.Hbonds>
donor molecule, donor type, donor heavy atom, donor atom, acceptor molecule, acceptor atom, score
      P1  H  6896  6908       L1     4  0.80
      P1  H  7997  8009       L1    13  0.90
      P1  H 10752 10764       L1    11  0.80

> <Gold.PLP.Chemscore.Internal.Correction>
0.2678

> <Gold.Rescore>
     Score         DG    S(hbond)    S(metal)    S(lipo)     H(rot)  DE(clash)    DE(int)     intcor
     14.81     -17.04       2.28        0.00      88.86       2.53       0.52       1.71       ----

> <Gold.Chemscore.Fitness>
14.8118

> <Gold.Chemscore.DG>
-17.0403

> <Gold.Chemscore.ZeroCoef>
-5.4800

> <Gold.Chemscore.Hbond>
2.2845

> <Gold.Chemscore.Metal>
0.0000

> <Gold.Chemscore.Lipo>
88.8594

> <Gold.Chemscore.Internal_Hbond>
0.0000

> <Gold.Chemscore.DEClash>
0.5178

> <Gold.Chemscore.DEInternal>
1.7107

> <Gold.Chemscore.Rot>
2.5259

> <Gold.Chemscore.Internal.Correction>
   9.000000E+99

> <Gold.Chemscore.Hbonds>
donor molecule, donor type, donor heavy atom, donor atom, acceptor molecule, acceptor atom, score
      P1  H  6896  6908       L1     4  0.77
      P1  H  7997  8009       L1    13  0.18
      P1  H 10752 10764       L1    11  0.69

> <Gold.Chemscore.Hbond.Weighted>
-7.6301

> <Gold.Chemscore.Metal.Weighted>
-0.0000

> <Gold.Chemscore.Lipo.Weighted>
-10.3966

> <Gold.Chemscore.Internal_Hbond.Weighted>
0.0000

> <Gold.Chemscore.DEClash.Weighted>
0.5178

> <Gold.Chemscore.DEInternal.Weighted>
1.7107

> <Gold.Chemscore.Rot.Weighted>
6.4663

> <Gold.Chemscore.Internal.Correction.Weighted>
   9.000000E+99

> <Gold.Protein.RotatedTorsions>
[ 6907 6896 6895 6894 ] final  116.88 input  -60.11 | X-H torsion
[ 7974 7965 7964 7962 ] final  -87.72 input  175.53 | X-H torsion
[ 8008 7997 7996 7995 ] final -155.46 input   59.86 | X-H torsion
[ 10167 10162 10161 10158 ] final  -68.78 input  -65.29 | X-H torsion
[ 10718 10713 10712 10709 ] final -175.82 input   66.30 | X-H torsion
[ 10763 10752 10751 10750 ] final  -57.00 input  -60.55 | X-H torsion
[ 11005 11000 10999 10996 ] final   33.32 input  -57.11 | X-H torsion

> <Gold.Protein.ActiveResidues>
 VAL166  LYS551  ARG553  GLY616  TRP617  ASP618  TYR619  PRO620  LYS621  CYS622 
 ASP623  PHE694  ASN695  SER759  ASP760  ASP761  ALA762  ILE779  LEU786  VAL792 
 PHE793  MET794  SER795  GLU796  ALA797  LYS798  CYS799  TRP800  GLU811  SER814 

> <Gold.Protein.RotatedAtoms>
  152.4649  133.7901  159.6896 H   0  0  0  0  0  0  0  0  0  0  0  0  # atno 6907 bound_to 6896
  150.8609  133.7636  159.2999 H   0  0  0  0  0  0  0  0  0  0  0  0  # atno 6908 bound_to 6896
  151.5202  135.1070  159.9928 H   0  0  0  0  0  0  0  0  0  0  0  0  # atno 6909 bound_to 6896
  145.4627  140.9561  143.1960 H   0  0  0  0  0  0  0  0  0  0  0  0  # atno 7974 bound_to 7965
  155.7021  140.0768  157.2406 H   0  0  0  0  0  0  0  0  0  0  0  0  # atno 8008 bound_to 7997
  154.4071  140.1645  156.2256 H   0  0  0  0  0  0  0  0  0  0  0  0  # atno 8009 bound_to 7997
  155.9358  140.3388  155.6289 H   0  0  0  0  0  0  0  0  0  0  0  0  # atno 8010 bound_to 7997
  140.5481  143.2312  151.6963 H   0  0  0  0  0  0  0  0  0  0  0  0  # atno 10167 bound_to 10162
  156.8056  130.9568  151.3117 H   0  0  0  0  0  0  0  0  0  0  0  0  # atno 10718 bound_to 10713
  154.2156  135.6387  153.5128 H   0  0  0  0  0  0  0  0  0  0  0  0  # atno 10763 bound_to 10752
  152.9980  135.5484  154.6169 H   0  0  0  0  0  0  0  0  0  0  0  0  # atno 10764 bound_to 10752
  154.5616  135.2909  155.0887 H   0  0  0  0  0  0  0  0  0  0  0  0  # atno 10765 bound_to 10752
  140.2643  134.3156  155.7847 H   0  0  0  0  0  0  0  0  0  0  0  0  # atno 11005 bound_to 11000
  144.7993  139.6173  143.7079 LP  0  0  0  0  0  0  0  0  0  0  0  0  # atno 17320 bound_to 7965
  146.2442  139.6063  142.9471 LP  0  0  0  0  0  0  0  0  0  0  0  0  # atno 17321 bound_to 7965
  139.5016  144.3862  152.0326 LP  0  0  0  0  0  0  0  0  0  0  0  0  # atno 17342 bound_to 10162
  140.2976  144.3682  150.6069 LP  0  0  0  0  0  0  0  0  0  0  0  0  # atno 17343 bound_to 10162
  157.6532  130.8902  149.9675 LP  0  0  0  0  0  0  0  0  0  0  0  0  # atno 17370 bound_to 10713
  156.1075  130.3652  150.0107 LP  0  0  0  0  0  0  0  0  0  0  0  0  # atno 17371 bound_to 10713
  141.2186  133.7428  156.9236 LP  0  0  0  0  0  0  0  0  0  0  0  0  # atno 17394 bound_to 11000
  140.1434  134.9278  157.2497 LP  0  0  0  0  0  0  0  0  0  0  0  0  # atno 17395 bound_to 11000

$$$$
