AV-unprocessed.smi:1695|AV-procd|sdf|6792|dock5
  -GOLD-   22720 7553D 1   1.00000     0.00000
 Structure written by MMmdl.
 51 53  0  0  0  0  0  0  0  0  2 V2000
  151.8091  144.2331  159.7245 C   0  0  0  0  0  0  0  0  0  0  0  0
  151.7530  143.0107  158.8254 C   0  0  0  0  0  0  0  0  0  0  0  0
  150.8977  143.0231  157.7008 C   0  0  0  0  0  0  0  0  0  0  0  0
  150.8165  141.9066  156.8402 C   0  0  0  0  0  0  0  0  0  0  0  0
  150.0592  141.7053  155.6992 N   0  0  0  0  0  0  0  0  0  0  0  0
  150.4250  140.4765  155.3485 C   0  0  0  0  0  0  0  0  0  0  0  0
  151.3205  139.8493  156.1360 N   0  0  0  0  0  0  0  0  0  0  0  0
  151.8581  138.5098  155.9560 C   0  0  0  0  0  0  0  0  0  0  0  0
  151.1049  137.6698  154.9002 C   0  0  1  0  0  0  0  0  0  0  0  0
  151.9847  137.3765  153.8321 O   0  0  0  0  0  0  0  0  0  0  0  0
  150.5426  136.3441  155.4614 C   0  0  0  0  0  0  0  0  0  0  0  0
  149.3692  135.8446  154.6997 N   0  3  1  0  0  0  0  0  0  0  0  0
  149.2331  134.3672  154.7793 C   0  0  0  0  0  0  0  0  0  0  0  0
  148.1061  133.8648  153.8617 C   0  0  0  0  0  0  0  0  0  0  0  0
  146.7647  134.5435  154.2002 C   0  0  2  0  0  0  0  0  0  0  0  0
  145.6585  134.0876  153.2391 C   0  0  0  0  0  0  0  0  0  0  0  0
  144.5982  133.4763  153.7731 N   0  0  0  0  0  0  0  0  0  0  0  0
  145.7592  134.2838  152.0294 O   0  0  0  0  0  0  0  0  0  0  0  0
  146.9480  136.0725  154.1493 C   0  0  0  0  0  0  0  0  0  0  0  0
  148.0980  136.5246  155.0642 C   0  0  0  0  0  0  0  0  0  0  0  0
  151.6195  140.7669  157.1384 C   0  0  0  0  0  0  0  0  0  0  0  0
  152.4765  140.7442  158.2528 C   0  0  0  0  0  0  0  0  0  0  0  0
  152.5455  141.8681  159.1024 C   0  0  0  0  0  0  0  0  0  0  0  0
  153.4726  141.8318  160.3044 C   0  0  0  0  0  0  0  0  0  0  0  0
  151.1355  145.0163  159.3754 H   0  0  0  0  0  0  0  0  0  0  0  0
  152.8182  144.6450  159.7465 H   0  0  0  0  0  0  0  0  0  0  0  0
  151.5184  143.9725  160.7423 H   0  0  0  0  0  0  0  0  0  0  0  0
  150.2955  143.8943  157.4881 H   0  0  0  0  0  0  0  0  0  0  0  0
  150.0110  140.0001  154.4720 H   0  0  0  0  0  0  0  0  0  0  0  0
  152.9062  138.6029  155.6684 H   0  0  0  0  0  0  0  0  0  0  0  0
  151.8531  138.0012  156.9213 H   0  0  0  0  0  0  0  0  0  0  0  0
  150.3029  138.2903  154.5026 H   0  0  0  0  0  0  0  0  0  0  0  0
  151.4779  137.1724  153.0612 H   0  0  0  0  0  0  0  0  0  0  0  0
  151.3350  135.5938  155.4439 H   0  0  0  0  0  0  0  0  0  0  0  0
  150.2619  136.4622  156.5093 H   0  0  0  0  0  0  0  0  0  0  0  0
  150.1693  133.8927  154.4827 H   0  0  0  0  0  0  0  0  0  0  0  0
  149.0411  134.0723  155.8123 H   0  0  0  0  0  0  0  0  0  0  0  0
  148.3783  134.0593  152.8227 H   0  0  0  0  0  0  0  0  0  0  0  0
  148.0134  132.7821  153.9581 H   0  0  0  0  0  0  0  0  0  0  0  0
  146.4819  134.2630  155.2166 H   0  0  0  0  0  0  0  0  0  0  0  0
  143.8441  133.1570  153.1824 H   0  0  0  0  0  0  0  0  0  0  0  0
  144.5545  133.3341  154.7722 H   0  0  0  0  0  0  0  0  0  0  0  0
  147.1538  136.3975  153.1277 H   0  0  0  0  0  0  0  0  0  0  0  0
  146.0254  136.5705  154.4513 H   0  0  0  0  0  0  0  0  0  0  0  0
  147.8538  136.3085  156.1058 H   0  0  0  0  0  0  0  0  0  0  0  0
  148.2053  137.6057  154.9868 H   0  0  0  0  0  0  0  0  0  0  0  0
  153.0744  139.8673  158.4530 H   0  0  0  0  0  0  0  0  0  0  0  0
  154.0025  140.8809  160.3689 H   0  0  0  0  0  0  0  0  0  0  0  0
  152.9075  141.9623  161.2275 H   0  0  0  0  0  0  0  0  0  0  0  0
  154.2169  142.6256  160.2372 H   0  0  0  0  0  0  0  0  0  0  0  0
  149.5512  136.0541  153.7286 H   0  0  0  0  0  0  0  0  0  0  0  0
  1  2  1  0  0  0  0
  1 25  1  0  0  0  0
  1 26  1  0  0  0  0
  1 27  1  0  0  0  0
  2 23  1  0  0  0  0
  2  3  2  0  0  0  0
  3  4  1  0  0  0  0
  3 28  1  0  0  0  0
  4 21  2  0  0  0  0
  4  5  1  0  0  0  0
  5  6  2  0  0  0  0
  6  7  1  0  0  0  0
  6 29  1  0  0  0  0
  7  8  1  0  0  0  0
  7 21  1  0  0  0  0
  8  9  1  0  0  0  0
  8 30  1  0  0  0  0
  8 31  1  0  0  0  0
  9 10  1  0  0  0  0
  9 11  1  0  0  0  0
  9 32  1  0  0  0  0
 10 33  1  0  0  0  0
 11 12  1  0  0  0  0
 11 34  1  0  0  0  0
 11 35  1  0  0  0  0
 12 20  1  0  0  0  0
 12 13  1  0  0  0  0
 12 51  1  0  0  0  0
 13 14  1  0  0  0  0
 13 36  1  0  0  0  0
 13 37  1  0  0  0  0
 14 15  1  0  0  0  0
 14 38  1  0  0  0  0
 14 39  1  0  0  0  0
 15 16  1  0  0  0  0
 15 19  1  0  0  0  0
 15 40  1  0  0  0  0
 16 17  1  0  0  0  0
 16 18  2  0  0  0  0
 17 41  1  0  0  0  0
 17 42  1  0  0  0  0
 19 20  1  0  0  0  0
 19 43  1  0  0  0  0
 19 44  1  0  0  0  0
 20 45  1  0  0  0  0
 20 46  1  0  0  0  0
 21 22  1  0  0  0  0
 22 23  2  0  0  0  0
 22 47  1  0  0  0  0
 23 24  1  0  0  0  0
 24 48  1  0  0  0  0
 24 49  1  0  0  0  0
 24 50  1  0  0  0  0
M  CHG  1  12   1
M  END
> <s_m_source_file>
AV-unprocessed.smi

> <i_m_source_file_index>
1695

> <i_lp_mmshare_version>
43012

> <i_f3d_flags>
0

> <s_epik_input>
W0NIM11jKFtjSF0xKWMoW0NIM10pW2NIXWMoYzEyKW4oW2NIXW4yKVtDSDJdW0NASF0oW09IXSlbQ0gyXU4zW0NIMl1bQ0gyXVtDSF0oQyg9TylbTkgyXSlbQ0gyXVtDSDJdMw==

> <s_epik_cmdline>
J2VwaWtfcHl0aG9uJywgJy1waCcsICc3LjAnLCAnLXRuJywgJzgnLCAnLW1hJywgJzIwMCcsICctbWV0YWxfYmluZGluZycsICctaW1hZScsICc8aW5maWxlLm1hZT4nLCAnLW9tYWUnLCAnPG91dGZpbGUubWFlPic=

> <r_epik_Ionization_Penalty>
0.113899

> <r_epik_Ionization_Penalty_Charging>
0.0258844

> <r_epik_Ionization_Penalty_Neutral>
0.0880147

> <r_epik_State_Penalty>
0.0974403

> <r_epik_Charging_Adjusted_Penalty>
0.123325

> <i_epik_Tot_Q>
1

> <i_epik_Tot_abs_Q>
1

> <r_epik_Metal_State_Penalty>
0.0851148

> <b_epik_Metal_Only>
0

> <s_lp_Force_Field>
OPLS_2005

> <r_lp_Energy>
20.1405

> <b_lp_Chiralities_Consistent>
1

> <s_lp_Variant>
AV-unprocessed.smi:1695-4

> <Gold.Version>
5.8.1

> <Gold.Id.Protein>
6NUR|6NUR_protein|mol2

> <Gold.PLP.Fitness>
51.1330

> <Gold.PLP.PLP>
-41.8773

> <Gold.PLP.part.hbond>
-4.0000

> <Gold.PLP.part.metal>
0.0000

> <Gold.PLP.part.buried>
-1.9067

> <Gold.PLP.part.nonpolar>
-35.2000

> <Gold.PLP.part.repulsive>
0.2256

> <Gold.PLP.ligand.clash>
0.0000

> <Gold.PLP.ligand.torsion>
1.3984

> <Gold.PLP.Chemscore.Hbond>
4.0000

> <Gold.PLP.Chemscore.CHOScore>
0.0000

> <Gold.PLP.Chemscore.Metal>
0.0000

> <Gold.Chemscore.Hbonds>
donor molecule, donor type, donor heavy atom, donor atom, acceptor molecule, acceptor atom, score
      L1  H    10    33       P1  7949  0.98
      L1  H    12    51       P1  7948  2.00
      P1  H 10752 10764       L1    10  0.99

> <Gold.PLP.Chemscore.Internal.Correction>
0.0526

> <Gold.Rescore>
     Score         DG    S(hbond)    S(metal)    S(lipo)     H(rot)  DE(clash)    DE(int)     intcor
     16.38     -17.93       2.40        0.00     100.26       2.85       0.11       1.44       ----

> <Gold.Chemscore.Fitness>
16.3791

> <Gold.Chemscore.DG>
-17.9343

> <Gold.Chemscore.ZeroCoef>
-5.4800

> <Gold.Chemscore.Hbond>
2.3984

> <Gold.Chemscore.Metal>
0.0000

> <Gold.Chemscore.Lipo>
100.2602

> <Gold.Chemscore.Internal_Hbond>
0.0000

> <Gold.Chemscore.DEClash>
0.1126

> <Gold.Chemscore.DEInternal>
1.4426

> <Gold.Chemscore.Rot>
2.8464

> <Gold.Chemscore.Internal.Correction>
   9.000000E+99

> <Gold.Chemscore.Hbonds>
donor molecule, donor type, donor heavy atom, donor atom, acceptor molecule, acceptor atom, score
      L1  H    10    33       P1  7949  0.80
      L1  H    12    51       P1  7948  0.48
      P1  H 10752 10764       L1    10  0.30

> <Gold.Chemscore.Hbond.Weighted>
-8.0106

> <Gold.Chemscore.Metal.Weighted>
-0.0000

> <Gold.Chemscore.Lipo.Weighted>
-11.7304

> <Gold.Chemscore.Internal_Hbond.Weighted>
0.0000

> <Gold.Chemscore.DEClash.Weighted>
0.1126

> <Gold.Chemscore.DEInternal.Weighted>
1.4426

> <Gold.Chemscore.Rot.Weighted>
7.2867

> <Gold.Chemscore.Internal.Correction.Weighted>
   9.000000E+99

> <Gold.Protein.RotatedTorsions>
[ 6907 6896 6895 6894 ] final -124.38 input  -60.11 | X-H torsion
[ 7974 7965 7964 7962 ] final -142.15 input  175.53 | X-H torsion
[ 8008 7997 7996 7995 ] final   -3.72 input   59.86 | X-H torsion
[ 10167 10162 10161 10158 ] final   21.28 input  -65.29 | X-H torsion
[ 10718 10713 10712 10709 ] final -178.62 input   66.30 | X-H torsion
[ 10763 10752 10751 10750 ] final  -85.53 input  -60.55 | X-H torsion
[ 11005 11000 10999 10996 ] final   75.81 input  -57.11 | X-H torsion

> <Gold.Protein.ActiveResidues>
 VAL166  LYS551  ARG553  GLY616  TRP617  ASP618  TYR619  PRO620  LYS621  CYS622 
 ASP623  PHE694  ASN695  SER759  ASP760  ASP761  ALA762  ILE779  LEU786  VAL792 
 PHE793  MET794  SER795  GLU796  ALA797  LYS798  CYS799  TRP800  GLU811  SER814 

> <Gold.Protein.RotatedAtoms>
  150.8763  133.7435  159.2945 H   0  0  0  0  0  0  0  0  0  0  0  0  # atno 6907 bound_to 6896
  151.5031  135.1061  159.9843 H   0  0  0  0  0  0  0  0  0  0  0  0  # atno 6908 bound_to 6896
  152.4729  133.8026  159.7017 H   0  0  0  0  0  0  0  0  0  0  0  0  # atno 6909 bound_to 6896
  144.8465  140.5993  143.5418 H   0  0  0  0  0  0  0  0  0  0  0  0  # atno 7974 bound_to 7965
  154.6219  140.2502  155.7539 H   0  0  0  0  0  0  0  0  0  0  0  0  # atno 8008 bound_to 7997
  156.2431  140.2925  156.0450 H   0  0  0  0  0  0  0  0  0  0  0  0  # atno 8009 bound_to 7997
  155.1883  140.0391  157.2886 H   0  0  0  0  0  0  0  0  0  0  0  0  # atno 8010 bound_to 7997
  140.5439  143.9629  150.6536 H   0  0  0  0  0  0  0  0  0  0  0  0  # atno 10167 bound_to 10162
  156.8470  130.9706  151.3095 H   0  0  0  0  0  0  0  0  0  0  0  0  # atno 10718 bound_to 10713
  154.6121  135.5482  153.7484 H   0  0  0  0  0  0  0  0  0  0  0  0  # atno 10763 bound_to 10752
  153.0200  135.6392  154.1563 H   0  0  0  0  0  0  0  0  0  0  0  0  # atno 10764 bound_to 10752
  154.1500  135.2903  155.3118 H   0  0  0  0  0  0  0  0  0  0  0  0  # atno 10765 bound_to 10752
  139.9327  134.7548  156.1317 H   0  0  0  0  0  0  0  0  0  0  0  0  # atno 11005 bound_to 11000
  145.4586  139.1515  143.3878 LP  0  0  0  0  0  0  0  0  0  0  0  0  # atno 17320 bound_to 7965
  146.2748  140.4715  142.8799 LP  0  0  0  0  0  0  0  0  0  0  0  0  # atno 17321 bound_to 7965
  140.3036  143.3244  152.0947 LP  0  0  0  0  0  0  0  0  0  0  0  0  # atno 17342 bound_to 10162
  139.4999  144.6681  151.6309 LP  0  0  0  0  0  0  0  0  0  0  0  0  # atno 17343 bound_to 10162
  157.6324  130.8740  149.9298 LP  0  0  0  0  0  0  0  0  0  0  0  0  # atno 17370 bound_to 10713
  156.0849  130.3669  150.0507 LP  0  0  0  0  0  0  0  0  0  0  0  0  # atno 17371 bound_to 10713
  141.0924  133.6709  156.2570 LP  0  0  0  0  0  0  0  0  0  0  0  0  # atno 17394 bound_to 11000
  140.6159  134.5411  157.5540 LP  0  0  0  0  0  0  0  0  0  0  0  0  # atno 17395 bound_to 11000

$$$$
