AV-unprocessed.smi:3036|AV-procd|sdf|11583|dock3
  -GOLD-   2272016553D 1   1.00000     0.00000
 Structure written by MMmdl.
 42 43  0  0  0  0  0  0  0  0  2 V2000
  144.2464  136.8291  152.6388 C   0  0  0  0  0  0  0  0  0  0  0  0
  145.5316  136.4037  151.9163 C   0  0  1  0  0  0  0  0  0  0  0  0
  145.2123  135.7071  150.5799 C   0  0  0  0  0  0  0  0  0  0  0  0
  145.2880  134.2611  150.6804 N   0  0  0  0  0  0  0  0  0  0  0  0
  144.3096  133.3288  150.4061 C   0  0  0  0  0  0  0  0  0  0  0  0
  144.8399  132.0972  150.6625 C   0  0  0  0  0  0  0  0  0  0  0  0
  146.1675  132.3822  151.0880 C   0  0  0  0  0  0  0  0  0  0  0  0
  146.4326  133.6787  151.0953 N   0  0  0  0  0  0  0  0  0  0  0  0
  146.3966  137.5867  151.7027 N   0  3  0  0  0  0  0  0  0  0  0  0
  146.5050  138.4919  152.8680 C   0  0  0  0  0  0  0  0  0  0  0  0
  147.1331  139.8512  152.4976 C   0  0  0  0  0  0  0  0  0  0  0  0
  147.5584  140.7218  153.6953 C   0  0  0  0  0  0  0  0  0  0  0  0
  147.0872  141.8537  153.8058 O   0  0  0  0  0  0  0  0  0  0  0  0
  148.4411  140.2202  154.5921 N   0  0  0  0  0  0  0  0  0  0  0  0
  149.0540  138.8948  154.4596 C   0  0  0  0  0  0  0  0  0  0  0  0
  150.5710  139.0753  154.2722 C   0  0  0  0  0  0  0  0  0  0  0  0
  151.1077  139.8003  155.3759 O   0  0  0  0  0  0  0  0  0  0  0  0
  150.5122  141.0843  155.5448 C   0  0  0  0  0  0  0  0  0  0  0  0
  148.9947  140.9289  155.7506 C   0  0  0  0  0  0  0  0  0  0  0  0
  143.6033  135.9703  152.8334 H   0  0  0  0  0  0  0  0  0  0  0  0
  143.6745  137.5442  152.0461 H   0  0  0  0  0  0  0  0  0  0  0  0
  144.4705  137.2950  153.5992 H   0  0  0  0  0  0  0  0  0  0  0  0
  146.0466  135.6877  152.5597 H   0  0  0  0  0  0  0  0  0  0  0  0
  144.2041  135.9658  150.2540 H   0  0  0  0  0  0  0  0  0  0  0  0
  145.8893  136.0496  149.7952 H   0  0  0  0  0  0  0  0  0  0  0  0
  143.3276  133.6161  150.0598 H   0  0  0  0  0  0  0  0  0  0  0  0
  144.3542  131.1379  150.5601 H   0  0  0  0  0  0  0  0  0  0  0  0
  146.9407  131.6912  151.3906 H   0  0  0  0  0  0  0  0  0  0  0  0
  147.3243  137.2638  151.4634 H   0  0  0  0  0  0  0  0  0  0  0  0
  145.5051  138.6626  153.2691 H   0  0  0  0  0  0  0  0  0  0  0  0
  147.0801  138.0047  153.6571 H   0  0  0  0  0  0  0  0  0  0  0  0
  147.9960  139.6804  151.8525 H   0  0  0  0  0  0  0  0  0  0  0  0
  146.4056  140.4165  151.9139 H   0  0  0  0  0  0  0  0  0  0  0  0
  148.8526  138.3121  155.3596 H   0  0  0  0  0  0  0  0  0  0  0  0
  148.6479  138.3167  153.6286 H   0  0  0  0  0  0  0  0  0  0  0  0
  151.0632  138.1042  154.2155 H   0  0  0  0  0  0  0  0  0  0  0  0
  150.7885  139.5994  153.3402 H   0  0  0  0  0  0  0  0  0  0  0  0
  150.9633  141.5703  156.4099 H   0  0  0  0  0  0  0  0  0  0  0  0
  150.7256  141.7117  154.6780 H   0  0  0  0  0  0  0  0  0  0  0  0
  148.5483  141.9060  155.9269 H   0  0  0  0  0  0  0  0  0  0  0  0
  148.7982  140.3470  156.6521 H   0  0  0  0  0  0  0  0  0  0  0  0
  146.0284  138.1121  150.9227 H   0  0  0  0  0  0  0  0  0  0  0  0
  1  2  1  0  0  0  0
  1 20  1  0  0  0  0
  1 21  1  0  0  0  0
  1 22  1  0  0  0  0
  2  3  1  0  0  0  0
  2  9  1  0  0  0  0
  2 23  1  0  0  0  0
  3  4  1  0  0  0  0
  3 24  1  0  0  0  0
  3 25  1  0  0  0  0
  4  8  1  0  0  0  0
  4  5  1  0  0  0  0
  5  6  2  0  0  0  0
  5 26  1  0  0  0  0
  6  7  1  0  0  0  0
  6 27  1  0  0  0  0
  7  8  2  0  0  0  0
  7 28  1  0  0  0  0
  9 10  1  0  0  0  0
  9 29  1  0  0  0  0
  9 42  1  0  0  0  0
 10 11  1  0  0  0  0
 10 30  1  0  0  0  0
 10 31  1  0  0  0  0
 11 12  1  0  0  0  0
 11 32  1  0  0  0  0
 11 33  1  0  0  0  0
 12 13  2  0  0  0  0
 12 14  1  0  0  0  0
 14 19  1  0  0  0  0
 14 15  1  0  0  0  0
 15 16  1  0  0  0  0
 15 34  1  0  0  0  0
 15 35  1  0  0  0  0
 16 17  1  0  0  0  0
 16 36  1  0  0  0  0
 16 37  1  0  0  0  0
 17 18  1  0  0  0  0
 18 19  1  0  0  0  0
 18 38  1  0  0  0  0
 18 39  1  0  0  0  0
 19 40  1  0  0  0  0
 19 41  1  0  0  0  0
M  CHG  1   9   1
M  END
> <s_m_source_file>
AV-unprocessed.smi

> <i_m_source_file_index>
3036

> <i_lp_mmshare_version>
43012

> <i_f3d_flags>
0

> <s_epik_input>
bjFbY0hdW2NIXVtjSF1uMVtDSDJdW0NAQEhdKFtDSDNdKVtOSF1bQ0gyXVtDSDJdQyg9TylOMltDSDJdW0NIMl1PW0NIMl1bQ0gyXTI=

> <s_epik_cmdline>
J2VwaWtfcHl0aG9uJywgJy1waCcsICc3LjAnLCAnLXRuJywgJzgnLCAnLW1hJywgJzIwMCcsICctbWV0YWxfYmluZGluZycsICctaW1hZScsICc8aW5maWxlLm1hZT4nLCAnLW9tYWUnLCAnPG91dGZpbGUubWFlPic=

> <r_lp_tautomer_probability>
1

> <r_epik_Ionization_Penalty>
0.00797109

> <r_epik_Ionization_Penalty_Charging>
0.0079672

> <r_epik_Ionization_Penalty_Neutral>
3.88864e-06

> <r_epik_State_Penalty>
0.00597998

> <r_epik_Charging_Adjusted_Penalty>
0.0139472

> <i_epik_Tot_Q>
1

> <i_epik_Tot_abs_Q>
1

> <r_epik_Metal_State_Penalty>
0.00598029

> <b_epik_Metal_Only>
0

> <s_lp_Force_Field>
OPLS_2005

> <r_lp_Energy>
23.754

> <b_lp_Chiralities_Consistent>
1

> <s_lp_Variant>
AV-unprocessed.smi:3036-2

> <Gold.Version>
5.8.1

> <Gold.Id.Protein>
6NUR|6NUR_protein|mol2

> <Gold.PLP.Fitness>
46.8966

> <Gold.PLP.PLP>
-36.3800

> <Gold.PLP.part.hbond>
-1.3821

> <Gold.PLP.part.metal>
0.0000

> <Gold.PLP.part.buried>
-2.2042

> <Gold.PLP.part.nonpolar>
-32.7326

> <Gold.PLP.part.repulsive>
0.4832

> <Gold.PLP.ligand.clash>
0.0000

> <Gold.PLP.ligand.torsion>
0.7910

> <Gold.PLP.Chemscore.Hbond>
2.0000

> <Gold.PLP.Chemscore.CHOScore>
2.0000

> <Gold.PLP.Chemscore.Metal>
0.0000

> <Gold.Chemscore.Hbonds>
donor molecule, donor type, donor heavy atom, donor atom, acceptor molecule, acceptor atom, score
      L1  H     9    29       P1  7948  2.00
      L1  C     5    26       P1 10186  1.00
      L1  C     7    28       P1 10747  1.00

> <Gold.PLP.Chemscore.Internal.Correction>
0.0986

> <Gold.Rescore>
     Score         DG    S(hbond)    S(metal)    S(lipo)     H(rot)  DE(clash)    DE(int)     intcor
     11.81     -12.88       1.00        0.00      79.97       2.07       0.34       0.73       ----

> <Gold.Chemscore.Fitness>
11.8120

> <Gold.Chemscore.DG>
-12.8783

> <Gold.Chemscore.ZeroCoef>
-5.4800

> <Gold.Chemscore.Hbond>
0.9989

> <Gold.Chemscore.Metal>
0.0000

> <Gold.Chemscore.Lipo>
79.9652

> <Gold.Chemscore.Internal_Hbond>
0.0000

> <Gold.Chemscore.DEClash>
0.3381

> <Gold.Chemscore.DEInternal>
0.7282

> <Gold.Chemscore.Rot>
2.0680

> <Gold.Chemscore.Internal.Correction>
   9.000000E+99

> <Gold.Chemscore.Hbonds>
donor molecule, donor type, donor heavy atom, donor atom, acceptor molecule, acceptor atom, score
      L1  H     9    29       P1  7948  0.96
      L1  H     9    42       P1 10171  0.03

> <Gold.Chemscore.Hbond.Weighted>
-3.3364

> <Gold.Chemscore.Metal.Weighted>
-0.0000

> <Gold.Chemscore.Lipo.Weighted>
-9.3559

> <Gold.Chemscore.Internal_Hbond.Weighted>
0.0000

> <Gold.Chemscore.DEClash.Weighted>
0.3381

> <Gold.Chemscore.DEInternal.Weighted>
0.7282

> <Gold.Chemscore.Rot.Weighted>
5.2941

> <Gold.Chemscore.Internal.Correction.Weighted>
   9.000000E+99

> <Gold.Protein.RotatedTorsions>
[ 6907 6896 6895 6894 ] final  -98.01 input  -60.11 | X-H torsion
[ 7974 7965 7964 7962 ] final -173.94 input  175.53 | X-H torsion
[ 8008 7997 7996 7995 ] final -160.59 input   59.86 | X-H torsion
[ 10167 10162 10161 10158 ] final  -63.30 input  -65.29 | X-H torsion
[ 10718 10713 10712 10709 ] final   21.47 input   66.30 | X-H torsion
[ 10763 10752 10751 10750 ] final   12.83 input  -60.55 | X-H torsion
[ 11005 11000 10999 10996 ] final  122.00 input  -57.11 | X-H torsion

> <Gold.Protein.ActiveResidues>
 VAL166  LYS551  ARG553  GLY616  TRP617  ASP618  TYR619  PRO620  LYS621  CYS622 
 ASP623  PHE694  ASN695  SER759  ASP760  ASP761  ALA762  ILE779  LEU786  VAL792 
 PHE793  MET794  SER795  GLU796  ALA797  LYS798  CYS799  TRP800  GLU811  SER814 

> <Gold.Protein.RotatedAtoms>
  150.7033  134.1260  159.4051 H   0  0  0  0  0  0  0  0  0  0  0  0  # atno 6907 bound_to 6896
  151.9246  135.0281  160.0534 H   0  0  0  0  0  0  0  0  0  0  0  0  # atno 6908 bound_to 6896
  152.2227  133.4961  159.5208 H   0  0  0  0  0  0  0  0  0  0  0  0  # atno 6909 bound_to 6896
  144.7134  140.1546  143.6381 H   0  0  0  0  0  0  0  0  0  0  0  0  # atno 7974 bound_to 7965
  155.7797  140.0863  157.2065 H   0  0  0  0  0  0  0  0  0  0  0  0  # atno 8008 bound_to 7997
  154.3991  140.1510  156.3095 H   0  0  0  0  0  0  0  0  0  0  0  0  # atno 8009 bound_to 7997
  155.8666  140.3427  155.5795 H   0  0  0  0  0  0  0  0  0  0  0  0  # atno 8010 bound_to 7997
  140.5880  143.2337  151.6201 H   0  0  0  0  0  0  0  0  0  0  0  0  # atno 10167 bound_to 10162
  157.1390  130.6624  149.5975 H   0  0  0  0  0  0  0  0  0  0  0  0  # atno 10718 bound_to 10713
  153.1782  135.6823  153.8514 H   0  0  0  0  0  0  0  0  0  0  0  0  # atno 10763 bound_to 10752
  153.7854  135.3176  155.3372 H   0  0  0  0  0  0  0  0  0  0  0  0  # atno 10764 bound_to 10752
  154.8043  135.4758  154.0446 H   0  0  0  0  0  0  0  0  0  0  0  0  # atno 10765 bound_to 10752
  139.9250  134.9640  156.8043 H   0  0  0  0  0  0  0  0  0  0  0  0  # atno 11005 bound_to 11000
  145.9085  139.2473  143.1451 LP  0  0  0  0  0  0  0  0  0  0  0  0  # atno 17320 bound_to 7965
  145.9739  140.8737  143.0148 LP  0  0  0  0  0  0  0  0  0  0  0  0  # atno 17321 bound_to 7965
  139.5210  144.3207  152.0913 LP  0  0  0  0  0  0  0  0  0  0  0  0  # atno 17342 bound_to 10162
  140.2367  144.4312  150.6277 LP  0  0  0  0  0  0  0  0  0  0  0  0  # atno 17343 bound_to 10162
  155.9792  130.4784  150.6703 LP  0  0  0  0  0  0  0  0  0  0  0  0  # atno 17370 bound_to 10713
  157.4324  131.0851  151.1025 LP  0  0  0  0  0  0  0  0  0  0  0  0  # atno 17371 bound_to 10713
  140.6364  133.9858  155.7686 LP  0  0  0  0  0  0  0  0  0  0  0  0  # atno 17394 bound_to 11000
  141.0800  134.0077  157.3400 LP  0  0  0  0  0  0  0  0  0  0  0  0  # atno 17395 bound_to 11000

$$$$
