AV-unprocessed.smi:1261|AV-procd|sdf|5302|dock1
  -GOLD-   22720 4423D 1   1.00000     0.00000
 Structure written by MMmdl.
 49 50  0  0  0  0  0  0  0  0  3 V2000
  143.7051  132.3380  149.7791 C   0  0  0  0  0  0  0  0  0  0  0  0
  144.1712  131.9350  151.1851 C   0  0  1  0  0  0  0  0  0  0  0  0
  145.2156  130.8078  151.1292 C   0  0  0  0  0  0  0  0  0  0  0  0
  145.6822  130.4312  152.5450 C   0  0  1  0  0  0  0  0  0  0  0  0
  146.7405  129.3197  152.5091 C   0  0  0  0  0  0  0  0  0  0  0  0
  146.1998  131.6805  153.2838 C   0  0  0  0  0  0  0  0  0  0  0  0
  145.1714  132.7526  153.3274 N   0  3  1  0  0  0  0  0  0  0  0  0
  145.6036  133.9063  154.1567 C   0  0  0  0  0  0  0  0  0  0  0  0
  147.0929  134.2448  153.9708 C   0  0  0  0  0  0  0  0  0  0  0  0
  147.6220  135.1651  155.0826 C   0  0  0  0  0  0  0  0  0  0  0  0
  148.6859  136.0354  154.5980 N   0  0  0  0  0  0  0  0  0  0  0  0
  149.4843  136.7842  155.3739 C   0  0  0  0  0  0  0  0  0  0  0  0
  149.4190  136.7936  156.6035 O   0  0  0  0  0  0  0  0  0  0  0  0
  150.5294  137.6377  154.6472 C   0  0  0  0  0  0  0  0  0  0  0  0
  150.3340  139.0711  154.8974 N   0  0  0  0  0  0  0  0  0  0  0  0
  149.0329  139.5678  154.4562 N   0  5  0  0  0  0  0  0  0  0  0  0
  148.7209  140.8759  154.6547 C   0  0  0  0  0  0  0  0  0  0  0  0
  147.6429  141.3616  154.3199 O   0  0  0  0  0  0  0  0  0  0  0  0
  149.7131  141.7274  155.2897 C   0  0  0  0  0  0  0  0  0  0  0  0
  150.9099  141.2442  155.6773 C   0  0  0  0  0  0  0  0  0  0  0  0
  151.2848  139.8475  155.4911 C   0  0  0  0  0  0  0  0  0  0  0  0
  152.3761  139.4010  155.8445 O   0  0  0  0  0  0  0  0  0  0  0  0
  144.7315  133.1425  151.9612 C   0  0  0  0  0  0  0  0  0  0  0  0
  144.5323  132.7219  149.1813 H   0  0  0  0  0  0  0  0  0  0  0  0
  142.9401  133.1135  149.8254 H   0  0  0  0  0  0  0  0  0  0  0  0
  143.2777  131.4869  149.2480 H   0  0  0  0  0  0  0  0  0  0  0  0
  143.2991  131.5619  151.7245 H   0  0  0  0  0  0  0  0  0  0  0  0
  144.7937  129.9335  150.6316 H   0  0  0  0  0  0  0  0  0  0  0  0
  146.0704  131.1245  150.5294 H   0  0  0  0  0  0  0  0  0  0  0  0
  144.8212  130.0465  153.0941 H   0  0  0  0  0  0  0  0  0  0  0  0
  147.6325  129.6381  151.9686 H   0  0  0  0  0  0  0  0  0  0  0  0
  146.3547  128.4262  152.0173 H   0  0  0  0  0  0  0  0  0  0  0  0
  147.0458  129.0340  153.5161 H   0  0  0  0  0  0  0  0  0  0  0  0
  146.4783  131.4025  154.3012 H   0  0  0  0  0  0  0  0  0  0  0  0
  147.1015  132.0619  152.8014 H   0  0  0  0  0  0  0  0  0  0  0  0
  145.0233  134.7851  153.8721 H   0  0  0  0  0  0  0  0  0  0  0  0
  145.3776  133.7157  155.2071 H   0  0  0  0  0  0  0  0  0  0  0  0
  147.6871  133.3316  153.9547 H   0  0  0  0  0  0  0  0  0  0  0  0
  147.2392  134.7275  153.0036 H   0  0  0  0  0  0  0  0  0  0  0  0
  146.8172  135.7966  155.4593 H   0  0  0  0  0  0  0  0  0  0  0  0
  147.9775  134.5772  155.9306 H   0  0  0  0  0  0  0  0  0  0  0  0
  148.8062  136.1050  153.5972 H   0  0  0  0  0  0  0  0  0  0  0  0
  151.5265  137.3281  154.9645 H   0  0  0  0  0  0  0  0  0  0  0  0
  150.4913  137.4278  153.5764 H   0  0  0  0  0  0  0  0  0  0  0  0
  149.4862  142.7705  155.4531 H   0  0  0  0  0  0  0  0  0  0  0  0
  151.6170  141.9137  156.1441 H   0  0  0  0  0  0  0  0  0  0  0  0
  145.5716  133.5827  151.4213 H   0  0  0  0  0  0  0  0  0  0  0  0
  143.9602  133.9093  152.0206 H   0  0  0  0  0  0  0  0  0  0  0  0
  144.3689  132.3527  153.7926 H   0  0  0  0  0  0  0  0  0  0  0  0
  1  2  1  0  0  0  0
  1 24  1  0  0  0  0
  1 25  1  0  0  0  0
  1 26  1  0  0  0  0
  2 23  1  0  0  0  0
  2  3  1  0  0  0  0
  2 27  1  0  0  0  0
  3  4  1  0  0  0  0
  3 28  1  0  0  0  0
  3 29  1  0  0  0  0
  4  5  1  0  0  0  0
  4  6  1  0  0  0  0
  4 30  1  0  0  0  0
  5 31  1  0  0  0  0
  5 32  1  0  0  0  0
  5 33  1  0  0  0  0
  6  7  1  0  0  0  0
  6 34  1  0  0  0  0
  6 35  1  0  0  0  0
  7  8  1  0  0  0  0
  7 23  1  0  0  0  0
  7 49  1  0  0  0  0
  8  9  1  0  0  0  0
  8 36  1  0  0  0  0
  8 37  1  0  0  0  0
  9 10  1  0  0  0  0
  9 38  1  0  0  0  0
  9 39  1  0  0  0  0
 10 11  1  0  0  0  0
 10 40  1  0  0  0  0
 10 41  1  0  0  0  0
 11 12  1  0  0  0  0
 11 42  1  0  0  0  0
 12 13  2  0  0  0  0
 12 14  1  0  0  0  0
 14 43  1  0  0  0  0
 14 44  1  0  0  0  0
 14 15  1  0  0  0  0
 15 16  1  0  0  0  0
 15 21  1  0  0  0  0
 16 17  1  0  0  0  0
 17 18  2  0  0  0  0
 17 19  1  0  0  0  0
 19 45  1  0  0  0  0
 19 20  2  0  0  0  0
 20 46  1  0  0  0  0
 20 21  1  0  0  0  0
 21 22  2  0  0  0  0
 23 47  1  0  0  0  0
 23 48  1  0  0  0  0
M  CHG  1   7   1
M  CHG  1  16  -1
M  END
> <s_m_source_file>
AV-unprocessed.smi

> <i_m_source_file_index>
1261

> <i_lp_mmshare_version>
43012

> <i_f3d_flags>
0

> <s_epik_input>
W0NIM11bQ0BASF0xW0NIMl1bQ0BASF0oW0NIM10pW0NIMl1OKFtDSDJdMSlbQ0gyXVtDSDJdW0NIMl1bTkhdQyg9TylbQ0gyXW4yW25IXWMoPU8pW2NIXVtjSF1jMj1P

> <s_epik_cmdline>
J2VwaWtfcHl0aG9uJywgJy1waCcsICc3LjAnLCAnLXRuJywgJzgnLCAnLW1hJywgJzIwMCcsICctbWV0YWxfYmluZGluZycsICctaW1hZScsICc8aW5maWxlLm1hZT4nLCAnLW9tYWUnLCAnPG91dGZpbGUubWFlPic=

> <r_lp_tautomer_probability>
1

> <r_epik_Ionization_Penalty>
0.0955723

> <r_epik_Ionization_Penalty_Charging>
0.0955723

> <r_epik_Ionization_Penalty_Neutral>
2.68632e-08

> <r_epik_State_Penalty>
0.0334406

> <r_epik_Charging_Adjusted_Penalty>
0.129013

> <i_epik_Tot_Q>
0

> <i_epik_Tot_abs_Q>
2

> <r_epik_Metal_State_Penalty>
0.0334406

> <b_epik_Metal_Only>
0

> <s_lp_Force_Field>
OPLS_2005

> <r_lp_Energy>
31.5278

> <b_lp_Chiralities_Consistent>
1

> <s_lp_Variant>
AV-unprocessed.smi:1261-2

> <Gold.Version>
5.8.1

> <Gold.Id.Protein>
6NUR|6NUR_protein|mol2

> <Gold.PLP.Fitness>
48.2529

> <Gold.PLP.PLP>
-38.0632

> <Gold.PLP.part.hbond>
-2.7801

> <Gold.PLP.part.metal>
0.0000

> <Gold.PLP.part.buried>
-6.7679

> <Gold.PLP.part.nonpolar>
-30.5062

> <Gold.PLP.part.repulsive>
0.2484

> <Gold.PLP.ligand.clash>
0.0000

> <Gold.PLP.ligand.torsion>
0.5760

> <Gold.PLP.Chemscore.Hbond>
3.7225

> <Gold.PLP.Chemscore.CHOScore>
0.0000

> <Gold.PLP.Chemscore.Metal>
0.0000

> <Gold.Chemscore.Hbonds>
donor molecule, donor type, donor heavy atom, donor atom, acceptor molecule, acceptor atom, score
      L1  H     7    49       P1 10957  1.95
      L1  H    11    42       P1  7948  1.00
      P1  H  7997  8008       L1    22  0.73

> <Gold.PLP.Chemscore.Internal.Correction>
0.1743

> <Gold.Rescore>
     Score         DG    S(hbond)    S(metal)    S(lipo)     H(rot)  DE(clash)    DE(int)     intcor
     16.48     -17.23       2.54        0.00      82.38       2.49       0.17       0.59       ----

> <Gold.Chemscore.Fitness>
16.4781

> <Gold.Chemscore.DG>
-17.2319

> <Gold.Chemscore.ZeroCoef>
-5.4800

> <Gold.Chemscore.Hbond>
2.5440

> <Gold.Chemscore.Metal>
0.0000

> <Gold.Chemscore.Lipo>
82.3832

> <Gold.Chemscore.Internal_Hbond>
0.0000

> <Gold.Chemscore.DEClash>
0.1669

> <Gold.Chemscore.DEInternal>
0.5868

> <Gold.Chemscore.Rot>
2.4938

> <Gold.Chemscore.Internal.Correction>
   9.000000E+99

> <Gold.Chemscore.Hbonds>
donor molecule, donor type, donor heavy atom, donor atom, acceptor molecule, acceptor atom, score
      L1  H     7    49       P1 10957  0.24
      L1  H    11    42       P1  7948  1.00
      P1  H  7997  8008       L1    22  0.73

> <Gold.Chemscore.Hbond.Weighted>
-8.4971

> <Gold.Chemscore.Metal.Weighted>
-0.0000

> <Gold.Chemscore.Lipo.Weighted>
-9.6388

> <Gold.Chemscore.Internal_Hbond.Weighted>
0.0000

> <Gold.Chemscore.DEClash.Weighted>
0.1669

> <Gold.Chemscore.DEInternal.Weighted>
0.5868

> <Gold.Chemscore.Rot.Weighted>
6.3840

> <Gold.Chemscore.Internal.Correction.Weighted>
   9.000000E+99

> <Gold.Protein.RotatedTorsions>
[ 6907 6896 6895 6894 ] final   -1.66 input  -60.11 | X-H torsion
[ 7974 7965 7964 7962 ] final   37.87 input  175.53 | X-H torsion
[ 8008 7997 7996 7995 ] final  -41.44 input   59.86 | X-H torsion
[ 10167 10162 10161 10158 ] final -106.27 input  -65.29 | X-H torsion
[ 10718 10713 10712 10709 ] final -159.25 input   66.30 | X-H torsion
[ 10763 10752 10751 10750 ] final   51.60 input  -60.55 | X-H torsion
[ 11005 11000 10999 10996 ] final   51.34 input  -57.11 | X-H torsion

> <Gold.Protein.ActiveResidues>
 VAL166  LYS551  ARG553  GLY616  TRP617  ASP618  TYR619  PRO620  LYS621  CYS622 
 ASP623  PHE694  ASN695  SER759  ASP760  ASP761  ALA762  ILE779  LEU786  VAL792 
 PHE793  MET794  SER795  GLU796  ALA797  LYS798  CYS799  TRP800  GLU811  SER814 

> <Gold.Protein.RotatedAtoms>
  151.5425  135.1068  159.9929 H   0  0  0  0  0  0  0  0  0  0  0  0  # atno 6907 bound_to 6896
  152.4529  133.7660  159.6783 H   0  0  0  0  0  0  0  0  0  0  0  0  # atno 6908 bound_to 6896
  150.8463  133.7790  159.3066 H   0  0  0  0  0  0  0  0  0  0  0  0  # atno 6909 bound_to 6896
  146.1105  139.5841  142.9355 H   0  0  0  0  0  0  0  0  0  0  0  0  # atno 7974 bound_to 7965
  154.4004  140.1499  156.3191 H   0  0  0  0  0  0  0  0  0  0  0  0  # atno 8008 bound_to 7997
  155.8546  140.3456  155.5694 H   0  0  0  0  0  0  0  0  0  0  0  0  # atno 8009 bound_to 7997
  155.7947  140.0861  157.1980 H   0  0  0  0  0  0  0  0  0  0  0  0  # atno 8010 bound_to 7997
  140.1895  143.3903  152.1217 H   0  0  0  0  0  0  0  0  0  0  0  0  # atno 10167 bound_to 10162
  156.5655  130.8665  151.2822 H   0  0  0  0  0  0  0  0  0  0  0  0  # atno 10718 bound_to 10713
  152.9786  135.5840  154.4442 H   0  0  0  0  0  0  0  0  0  0  0  0  # atno 10763 bound_to 10752
  154.4039  135.2769  155.2081 H   0  0  0  0  0  0  0  0  0  0  0  0  # atno 10764 bound_to 10752
  154.3900  135.6127  153.5892 H   0  0  0  0  0  0  0  0  0  0  0  0  # atno 10765 bound_to 10752
  140.0941  134.5169  155.8824 H   0  0  0  0  0  0  0  0  0  0  0  0  # atno 11005 bound_to 11000
  145.5674  141.0398  143.2193 LP  0  0  0  0  0  0  0  0  0  0  0  0  # atno 17320 bound_to 7965
  144.7507  139.7201  143.7274 LP  0  0  0  0  0  0  0  0  0  0  0  0  # atno 17321 bound_to 7965
  139.5262  144.7104  151.5223 LP  0  0  0  0  0  0  0  0  0  0  0  0  # atno 17342 bound_to 10162
  140.6465  143.8784  150.6742 LP  0  0  0  0  0  0  0  0  0  0  0  0  # atno 17343 bound_to 10162
  157.7359  130.9770  150.2109 LP  0  0  0  0  0  0  0  0  0  0  0  0  # atno 17370 bound_to 10713
  156.2761  130.3727  149.7982 LP  0  0  0  0  0  0  0  0  0  0  0  0  # atno 17371 bound_to 10713
  141.2087  133.6676  156.6387 LP  0  0  0  0  0  0  0  0  0  0  0  0  # atno 17394 bound_to 11000
  140.3311  134.7928  157.4327 LP  0  0  0  0  0  0  0  0  0  0  0  0  # atno 17395 bound_to 11000

$$$$
