AV-unprocessed.smi:1381|AV-procd|sdf|5609|dock3
  -GOLD-   22720 5213D 1   1.00000     0.00000
 Structure written by MMmdl.
 41 42  0  0  0  0  0  0  0  0  2 V2000
  147.2126  134.0147  162.9993 C   0  0  0  0  0  0  0  0  0  0  0  0
  147.7558  134.9308  161.9570 C   0  0  0  0  0  0  0  0  0  0  0  0
  148.1836  134.7278  160.6757 C   0  0  0  0  0  0  0  0  0  0  0  0
  148.5598  136.0307  160.2485 C   0  0  0  0  0  0  0  0  0  0  0  0
  149.0618  136.3541  159.0467 N   0  5  0  0  0  0  0  0  0  0  0  0
  150.1791  137.1123  158.9556 C   0  0  0  0  0  0  0  0  0  0  0  0
  151.1640  137.0564  159.6956 O   0  0  0  0  0  0  0  0  0  0  0  0
  150.1538  137.9911  157.9446 N   0  0  0  0  0  0  0  0  0  0  0  0
  151.2219  138.9239  157.6114 C   0  0  0  0  0  0  0  0  0  0  0  0
  150.7184  140.3706  157.7364 C   0  0  0  0  0  0  0  0  0  0  0  0
  151.3337  141.1499  158.8097 N   0  0  0  0  0  0  0  0  0  0  0  0
  151.2414  142.5896  158.5803 C   0  0  0  0  0  0  0  0  0  0  0  0
  151.9177  143.3984  159.7044 C   0  0  2  0  0  0  0  0  0  0  0  0
  151.9050  144.9046  159.4224 C   0  0  0  0  0  0  0  0  0  0  0  0
  153.2737  142.9794  159.8343 O   0  0  0  0  0  0  0  0  0  0  0  0
  153.4088  141.5879  160.1086 C   0  0  2  0  0  0  0  0  0  0  0  0
  154.9010  141.2647  160.2401 C   0  0  0  0  0  0  0  0  0  0  0  0
  152.7363  140.7876  158.9773 C   0  0  0  0  0  0  0  0  0  0  0  0
  148.3933  136.9401  161.1940 N   0  0  0  0  0  0  0  0  0  0  0  0
  147.8704  136.2443  162.2906 O   0  0  0  0  0  0  0  0  0  0  0  0
  147.7610  133.0727  163.0089 H   0  0  0  0  0  0  0  0  0  0  0  0
  146.1629  133.7934  162.8065 H   0  0  0  0  0  0  0  0  0  0  0  0
  147.2885  134.4595  163.9917 H   0  0  0  0  0  0  0  0  0  0  0  0
  148.2168  133.7983  160.1277 H   0  0  0  0  0  0  0  0  0  0  0  0
  149.3293  138.0090  157.3626 H   0  0  0  0  0  0  0  0  0  0  0  0
  152.0619  138.7381  158.2808 H   0  0  0  0  0  0  0  0  0  0  0  0
  151.5681  138.7395  156.5931 H   0  0  0  0  0  0  0  0  0  0  0  0
  150.9154  140.8690  156.7858 H   0  0  0  0  0  0  0  0  0  0  0  0
  149.6338  140.3716  157.8557 H   0  0  0  0  0  0  0  0  0  0  0  0
  151.7027  142.8403  157.6236 H   0  0  0  0  0  0  0  0  0  0  0  0
  150.1974  142.8939  158.5127 H   0  0  0  0  0  0  0  0  0  0  0  0
  151.3997  143.2143  160.6472 H   0  0  0  0  0  0  0  0  0  0  0  0
  150.8849  145.2767  159.3256 H   0  0  0  0  0  0  0  0  0  0  0  0
  152.4360  145.1376  158.4992 H   0  0  0  0  0  0  0  0  0  0  0  0
  152.3848  145.4564  160.2309 H   0  0  0  0  0  0  0  0  0  0  0  0
  152.9174  141.3646  161.0572 H   0  0  0  0  0  0  0  0  0  0  0  0
  155.0554  140.2101  160.4698 H   0  0  0  0  0  0  0  0  0  0  0  0
  155.3569  141.8491  161.0394 H   0  0  0  0  0  0  0  0  0  0  0  0
  155.4363  141.4882  159.3168 H   0  0  0  0  0  0  0  0  0  0  0  0
  152.8170  139.7217  159.1940 H   0  0  0  0  0  0  0  0  0  0  0  0
  153.2745  140.9568  158.0432 H   0  0  0  0  0  0  0  0  0  0  0  0
  1  2  1  0  0  0  0
  1 21  1  0  0  0  0
  1 22  1  0  0  0  0
  1 23  1  0  0  0  0
  2 20  1  0  0  0  0
  2  3  2  0  0  0  0
  3  4  1  0  0  0  0
  3 24  1  0  0  0  0
  4  5  1  0  0  0  0
  4 19  2  0  0  0  0
  5  6  1  0  0  0  0
  6  7  2  0  0  0  0
  6  8  1  0  0  0  0
  8  9  1  0  0  0  0
  8 25  1  0  0  0  0
  9 10  1  0  0  0  0
  9 26  1  0  0  0  0
  9 27  1  0  0  0  0
 10 11  1  0  0  0  0
 10 28  1  0  0  0  0
 10 29  1  0  0  0  0
 11 18  1  0  0  0  0
 11 12  1  0  0  0  0
 12 13  1  0  0  0  0
 12 30  1  0  0  0  0
 12 31  1  0  0  0  0
 13 14  1  0  0  0  0
 13 15  1  0  0  0  0
 13 32  1  0  0  0  0
 14 33  1  0  0  0  0
 14 34  1  0  0  0  0
 14 35  1  0  0  0  0
 15 16  1  0  0  0  0
 16 17  1  0  0  0  0
 16 18  1  0  0  0  0
 16 36  1  0  0  0  0
 17 37  1  0  0  0  0
 17 38  1  0  0  0  0
 17 39  1  0  0  0  0
 18 40  1  0  0  0  0
 18 41  1  0  0  0  0
 19 20  1  0  0  0  0
M  CHG  1   5  -1
M  END
> <s_m_source_file>
AV-unprocessed.smi

> <i_m_source_file_index>
1381

> <i_lp_mmshare_version>
43012

> <i_f3d_flags>
0

> <s_epik_input>
W0NIM11jMVtjSF1jKG5vMSlbTkhdQyg9TylbTkhdW0NIMl1bQ0gyXU4yW0NIMl1bQ0BASF0oW0NIM10pT1tDQEBIXShbQ0gzXSlbQ0gyXTI=

> <s_epik_cmdline>
J2VwaWtfcHl0aG9uJywgJy1waCcsICc3LjAnLCAnLXRuJywgJzgnLCAnLW1hJywgJzIwMCcsICctbWV0YWxfYmluZGluZycsICctaW1hZScsICc8aW5maWxlLm1hZT4nLCAnLW9tYWUnLCAnPG91dGZpbGUubWFlPic=

> <r_epik_Ionization_Penalty>
6.88366

> <r_epik_Ionization_Penalty_Charging>
6.57198

> <r_epik_Ionization_Penalty_Neutral>
0.311678

> <r_epik_State_Penalty>
6.77619

> <r_epik_Charging_Adjusted_Penalty>
13.3482

> <i_epik_Tot_Q>
-1

> <i_epik_Tot_abs_Q>
1

> <r_epik_Metal_State_Penalty>
2.70524

> <b_epik_Metal_Only>
1

> <s_lp_Force_Field>
OPLS_2005

> <r_lp_Energy>
13.5181

> <b_lp_Chiralities_Consistent>
1

> <s_lp_Variant>
AV-unprocessed.smi:1381-8

> <Gold.Version>
5.8.1

> <Gold.Id.Protein>
6NUR|6NUR_protein|mol2

> <Gold.PLP.Fitness>
43.6570

> <Gold.PLP.PLP>
-38.1603

> <Gold.PLP.part.hbond>
-2.9828

> <Gold.PLP.part.metal>
0.0000

> <Gold.PLP.part.buried>
-5.6420

> <Gold.PLP.part.nonpolar>
-30.4831

> <Gold.PLP.part.repulsive>
0.0784

> <Gold.PLP.ligand.clash>
0.0000

> <Gold.PLP.ligand.torsion>
1.3228

> <Gold.PLP.Chemscore.Hbond>
2.6960

> <Gold.PLP.Chemscore.CHOScore>
0.0000

> <Gold.PLP.Chemscore.Metal>
0.0000

> <Gold.Chemscore.Hbonds>
donor molecule, donor type, donor heavy atom, donor atom, acceptor molecule, acceptor atom, score
      P1  H  6896  6907       L1     7  0.95
      P1  H  6931  6943       L1    19  1.00
      P1  H  6934  6947       L1    19  0.03

> <Gold.PLP.Chemscore.Internal.Correction>
0.0543

> <Gold.Rescore>
     Score         DG    S(hbond)    S(metal)    S(lipo)     H(rot)  DE(clash)    DE(int)     intcor
     16.59     -18.77       1.93        0.00      92.08       1.54       0.03       2.16       ----

> <Gold.Chemscore.Fitness>
16.5859

> <Gold.Chemscore.DG>
-18.7695

> <Gold.Chemscore.ZeroCoef>
-5.4800

> <Gold.Chemscore.Hbond>
1.9344

> <Gold.Chemscore.Metal>
0.0000

> <Gold.Chemscore.Lipo>
92.0804

> <Gold.Chemscore.Internal_Hbond>
0.0000

> <Gold.Chemscore.DEClash>
0.0285

> <Gold.Chemscore.DEInternal>
2.1551

> <Gold.Chemscore.Rot>
1.5409

> <Gold.Chemscore.Internal.Correction>
   9.000000E+99

> <Gold.Chemscore.Hbonds>
donor molecule, donor type, donor heavy atom, donor atom, acceptor molecule, acceptor atom, score
      P1  H  6896  6907       L1     7  0.21
      P1  H  6931  6943       L1    19  0.34
      P1  H  6934  6947       L1    19  0.04

> <Gold.Chemscore.Hbond.Weighted>
-6.4607

> <Gold.Chemscore.Metal.Weighted>
-0.0000

> <Gold.Chemscore.Lipo.Weighted>
-10.7734

> <Gold.Chemscore.Internal_Hbond.Weighted>
0.0000

> <Gold.Chemscore.DEClash.Weighted>
0.0285

> <Gold.Chemscore.DEInternal.Weighted>
2.1551

> <Gold.Chemscore.Rot.Weighted>
3.9446

> <Gold.Chemscore.Internal.Correction.Weighted>
   9.000000E+99

> <Gold.Protein.RotatedTorsions>
[ 6907 6896 6895 6894 ] final  -17.67 input  -60.11 | X-H torsion
[ 7974 7965 7964 7962 ] final -175.11 input  175.53 | X-H torsion
[ 8008 7997 7996 7995 ] final  171.11 input   59.86 | X-H torsion
[ 10167 10162 10161 10158 ] final   60.48 input  -65.29 | X-H torsion
[ 10718 10713 10712 10709 ] final  168.95 input   66.30 | X-H torsion
[ 10763 10752 10751 10750 ] final   25.78 input  -60.55 | X-H torsion
[ 11005 11000 10999 10996 ] final  130.98 input  -57.11 | X-H torsion

> <Gold.Protein.ActiveResidues>
 VAL166  LYS551  ARG553  GLY616  TRP617  ASP618  TYR619  PRO620  LYS621  CYS622 
 ASP623  PHE694  ASN695  SER759  ASP760  ASP761  ALA762  ILE779  LEU786  VAL792 
 PHE793  MET794  SER795  GLU796  ALA797  LYS798  CYS799  TRP800  GLU811  SER814 

> <Gold.Protein.RotatedAtoms>
  151.2898  135.0738  159.9199 H   0  0  0  0  0  0  0  0  0  0  0  0  # atno 6907 bound_to 6896
  152.5318  133.9943  159.7876 H   0  0  0  0  0  0  0  0  0  0  0  0  # atno 6908 bound_to 6896
  151.0211  133.5824  159.2702 H   0  0  0  0  0  0  0  0  0  0  0  0  # atno 6909 bound_to 6896
  144.7129  140.1370  143.6394 H   0  0  0  0  0  0  0  0  0  0  0  0  # atno 7974 bound_to 7965
  156.1302  140.1520  156.9076 H   0  0  0  0  0  0  0  0  0  0  0  0  # atno 8008 bound_to 7997
  154.4903  140.0853  156.7620 H   0  0  0  0  0  0  0  0  0  0  0  0  # atno 8009 bound_to 7997
  155.4269  140.3425  155.4278 H   0  0  0  0  0  0  0  0  0  0  0  0  # atno 8010 bound_to 7997
  140.1652  144.4331  150.6689 H   0  0  0  0  0  0  0  0  0  0  0  0  # atno 10167 bound_to 10162
  157.0297  131.0256  151.2748 H   0  0  0  0  0  0  0  0  0  0  0  0  # atno 10718 bound_to 10713
  153.0668  135.6575  154.0337 H   0  0  0  0  0  0  0  0  0  0  0  0  # atno 10763 bound_to 10752
  153.9992  135.2938  155.3406 H   0  0  0  0  0  0  0  0  0  0  0  0  # atno 10764 bound_to 10752
  154.7028  135.5237  153.8620 H   0  0  0  0  0  0  0  0  0  0  0  0  # atno 10765 bound_to 10752
  139.9703  134.9579  156.9372 H   0  0  0  0  0  0  0  0  0  0  0  0  # atno 11005 bound_to 11000
  145.9236  139.2561  143.1367 LP  0  0  0  0  0  0  0  0  0  0  0  0  # atno 17320 bound_to 7965
  145.9595  140.8846  143.0218 LP  0  0  0  0  0  0  0  0  0  0  0  0  # atno 17321 bound_to 7965
  140.6617  143.2254  151.5839 LP  0  0  0  0  0  0  0  0  0  0  0  0  # atno 17342 bound_to 10162
  139.5363  144.2772  152.1258 LP  0  0  0  0  0  0  0  0  0  0  0  0  # atno 17343 bound_to 10162
  157.5187  130.7984  149.7785 LP  0  0  0  0  0  0  0  0  0  0  0  0  # atno 17370 bound_to 10713
  156.0074  130.3849  150.2384 LP  0  0  0  0  0  0  0  0  0  0  0  0  # atno 17371 bound_to 10713
  140.5307  134.0816  155.7315 LP  0  0  0  0  0  0  0  0  0  0  0  0  # atno 17394 bound_to 11000
  141.1383  133.9183  157.2384 LP  0  0  0  0  0  0  0  0  0  0  0  0  # atno 17395 bound_to 11000

$$$$
