AV-unprocessed.smi:2926|AV-procd|sdf|11229|dock4
  -GOLD-   2272016123D 1   1.00000     0.00000
 Structure written by MMmdl.
 31 31  0  0  0  0  0  0  0  0  2 V2000
  150.3420  139.9843  155.6999 C   0  0  0  0  0  0  0  0  0  0  0  0
  151.0361  138.6116  155.8487 C   0  0  0  0  0  0  0  0  0  0  0  0
  152.0437  138.3877  154.6966 C   0  0  0  0  0  0  0  0  0  0  0  0
  150.0377  137.4360  156.0809 C   0  0  2  0  0  0  0  0  0  0  0  0
  149.0809  137.2173  154.8899 C   0  0  0  0  0  0  0  0  0  0  0  0
  149.7534  136.6390  153.7892 O   0  0  0  0  0  0  0  0  0  0  0  0
  149.2680  137.6608  157.3011 N   0  5  0  0  0  0  0  0  0  0  0  0
  149.3563  136.5919  158.5173 S   0  0  0  0  0  0  0  0  0  0  0  0
  149.5802  135.2144  158.0498 O   0  0  0  0  0  0  0  0  0  0  0  0
  150.2021  137.0644  159.6262 O   0  0  0  0  0  0  0  0  0  0  0  0
  147.6213  136.6467  159.1395 C   0  0  0  0  0  0  0  0  0  0  0  0
  147.5873  136.3584  160.6148 C   0  0  0  0  0  0  0  0  0  0  0  0
  147.1032  135.1983  161.2811 C   0  0  0  0  0  0  0  0  0  0  0  0
  147.3224  135.4719  162.6002 C   0  0  0  0  0  0  0  0  0  0  0  0
  147.9037  136.6897  162.7427 O   0  0  0  0  0  0  0  0  0  0  0  0
  148.0718  137.2467  161.4700 N   0  0  0  0  0  0  0  0  0  0  0  0
  150.6465  136.5338  156.1602 H   0  0  0  0  0  0  0  0  0  0  0  0
  149.7458  140.0473  154.7877 H   0  0  0  0  0  0  0  0  0  0  0  0
  151.0818  140.7838  155.6509 H   0  0  0  0  0  0  0  0  0  0  0  0
  149.6876  140.2137  156.5431 H   0  0  0  0  0  0  0  0  0  0  0  0
  151.6318  138.6847  156.7597 H   0  0  0  0  0  0  0  0  0  0  0  0
  151.5520  138.3219  153.7245 H   0  0  0  0  0  0  0  0  0  0  0  0
  152.6418  137.4854  154.8319 H   0  0  0  0  0  0  0  0  0  0  0  0
  152.7468  139.2190  154.6395 H   0  0  0  0  0  0  0  0  0  0  0  0
  148.2428  136.5770  155.1671 H   0  0  0  0  0  0  0  0  0  0  0  0
  148.6616  138.1689  154.5626 H   0  0  0  0  0  0  0  0  0  0  0  0
  149.1406  136.5466  153.0767 H   0  0  0  0  0  0  0  0  0  0  0  0
  147.2132  137.6340  158.9249 H   0  0  0  0  0  0  0  0  0  0  0  0
  147.0377  135.9171  158.5776 H   0  0  0  0  0  0  0  0  0  0  0  0
  146.6579  134.3108  160.8563 H   0  0  0  0  0  0  0  0  0  0  0  0
  147.1326  134.9265  163.5126 H   0  0  0  0  0  0  0  0  0  0  0  0
  1  2  1  0  0  0  0
  1 18  1  0  0  0  0
  1 19  1  0  0  0  0
  1 20  1  0  0  0  0
  2  3  1  0  0  0  0
  2  4  1  0  0  0  0
  2 21  1  0  0  0  0
  3 22  1  0  0  0  0
  3 23  1  0  0  0  0
  3 24  1  0  0  0  0
  4 17  1  0  0  0  0
  4  5  1  0  0  0  0
  4  7  1  0  0  0  0
  5  6  1  0  0  0  0
  5 25  1  0  0  0  0
  5 26  1  0  0  0  0
  6 27  1  0  0  0  0
  7  8  1  0  0  0  0
  8  9  2  0  0  0  0
  8 10  2  0  0  0  0
  8 11  1  0  0  0  0
 11 12  1  0  0  0  0
 11 28  1  0  0  0  0
 11 29  1  0  0  0  0
 12 16  2  0  0  0  0
 12 13  1  0  0  0  0
 13 14  2  0  0  0  0
 13 30  1  0  0  0  0
 14 15  1  0  0  0  0
 14 31  1  0  0  0  0
 15 16  1  0  0  0  0
M  CHG  1   7  -1
M  END
> <s_m_source_file>
AV-unprocessed.smi

> <i_m_source_file_index>
2926

> <i_lp_mmshare_version>
43012

> <i_f3d_flags>
0

> <s_epik_input>
W0NIM11bQ0hdKFtDSDNdKVtDQEBIXShbQ0gyXVtPSF0pW05IXVMoPU8pKD1PKVtDSDJdYzFbY0hdW2NIXW9uMQ==

> <s_epik_cmdline>
J2VwaWtfcHl0aG9uJywgJy1waCcsICc3LjAnLCAnLXRuJywgJzgnLCAnLW1hJywgJzIwMCcsICctbWV0YWxfYmluZGluZycsICctaW1hZScsICc8aW5maWxlLm1hZT4nLCAnLW9tYWUnLCAnPG91dGZpbGUubWFlPic=

> <r_lp_tautomer_probability>
1

> <r_epik_Ionization_Penalty>
4.75719

> <r_epik_Ionization_Penalty_Charging>
4.75718

> <r_epik_Ionization_Penalty_Neutral>
1.48962e-06

> <r_epik_State_Penalty>
4.75699

> <r_epik_Charging_Adjusted_Penalty>
9.51417

> <i_epik_Tot_Q>
-1

> <i_epik_Tot_abs_Q>
1

> <r_epik_Metal_State_Penalty>
0.961449

> <b_epik_Metal_Only>
1

> <s_lp_Force_Field>
OPLS_2005

> <r_lp_Energy>
3.36492

> <b_lp_Chiralities_Consistent>
1

> <s_lp_Variant>
AV-unprocessed.smi:2926-4

> <Gold.Version>
5.8.1

> <Gold.Id.Protein>
6NUR|6NUR_protein|mol2

> <Gold.PLP.Fitness>
34.9000

> <Gold.PLP.PLP>
-25.4489

> <Gold.PLP.part.hbond>
-6.2019

> <Gold.PLP.part.metal>
0.0000

> <Gold.PLP.part.buried>
-3.6527

> <Gold.PLP.part.nonpolar>
-16.2321

> <Gold.PLP.part.repulsive>
0.0000

> <Gold.PLP.ligand.clash>
0.0000

> <Gold.PLP.ligand.torsion>
1.3855

> <Gold.PLP.Chemscore.Hbond>
3.6800

> <Gold.PLP.Chemscore.CHOScore>
0.0000

> <Gold.PLP.Chemscore.Metal>
0.0000

> <Gold.Chemscore.Hbonds>
donor molecule, donor type, donor heavy atom, donor atom, acceptor molecule, acceptor atom, score
      L1  H     6    27       P1  7948  0.27
      P1  H  6896  6909       L1     9  0.78
      P1  H  6931  6943       L1    16  0.61
      P1  H  6934  6947       L1    16  0.58

> <Gold.PLP.Chemscore.Internal.Correction>
1.1821

> <Gold.Rescore>
     Score         DG    S(hbond)    S(metal)    S(lipo)     H(rot)  DE(clash)    DE(int)     intcor
     11.17     -13.99       2.84        0.00      48.05       2.58       0.01       2.81       ----

> <Gold.Chemscore.Fitness>
11.1700

> <Gold.Chemscore.DG>
-13.9934

> <Gold.Chemscore.ZeroCoef>
-5.4800

> <Gold.Chemscore.Hbond>
2.8412

> <Gold.Chemscore.Metal>
0.0000

> <Gold.Chemscore.Lipo>
48.0538

> <Gold.Chemscore.Internal_Hbond>
0.0000

> <Gold.Chemscore.DEClash>
0.0133

> <Gold.Chemscore.DEInternal>
2.8100

> <Gold.Chemscore.Rot>
2.5776

> <Gold.Chemscore.Internal.Correction>
   9.000000E+99

> <Gold.Chemscore.Hbonds>
donor molecule, donor type, donor heavy atom, donor atom, acceptor molecule, acceptor atom, score
      L1  H     6    27       P1  7948  0.25
      P1  H  6896  6909       L1     9  0.11
      P1  H  6931  6943       L1    16  0.07
      P1  H  6934  6947       L1    16  0.27

> <Gold.Chemscore.Hbond.Weighted>
-9.4898

> <Gold.Chemscore.Metal.Weighted>
-0.0000

> <Gold.Chemscore.Lipo.Weighted>
-5.6223

> <Gold.Chemscore.Internal_Hbond.Weighted>
0.0000

> <Gold.Chemscore.DEClash.Weighted>
0.0133

> <Gold.Chemscore.DEInternal.Weighted>
2.8100

> <Gold.Chemscore.Rot.Weighted>
6.5987

> <Gold.Chemscore.Internal.Correction.Weighted>
   9.000000E+99

> <Gold.Protein.RotatedTorsions>
[ 6907 6896 6895 6894 ] final   55.42 input  -60.11 | X-H torsion
[ 7974 7965 7964 7962 ] final   43.86 input  175.53 | X-H torsion
[ 8008 7997 7996 7995 ] final   46.92 input   59.86 | X-H torsion
[ 10167 10162 10161 10158 ] final  -27.81 input  -65.29 | X-H torsion
[ 10718 10713 10712 10709 ] final -148.90 input   66.30 | X-H torsion
[ 10763 10752 10751 10750 ] final  -69.07 input  -60.55 | X-H torsion
[ 11005 11000 10999 10996 ] final -106.58 input  -57.11 | X-H torsion

> <Gold.Protein.ActiveResidues>
 VAL166  LYS551  ARG553  GLY616  TRP617  ASP618  TYR619  PRO620  LYS621  CYS622 
 ASP623  PHE694  ASN695  SER759  ASP760  ASP761  ALA762  ILE779  LEU786  VAL792 
 PHE793  MET794  SER795  GLU796  ALA797  LYS798  CYS799  TRP800  GLU811  SER814 

> <Gold.Protein.RotatedAtoms>
  152.3537  134.6970  160.0228 H   0  0  0  0  0  0  0  0  0  0  0  0  # atno 6907 bound_to 6896
  151.7316  133.3312  159.3350 H   0  0  0  0  0  0  0  0  0  0  0  0  # atno 6908 bound_to 6896
  150.7557  134.6292  159.6222 H   0  0  0  0  0  0  0  0  0  0  0  0  # atno 6909 bound_to 6896
  146.0619  139.5139  142.9653 H   0  0  0  0  0  0  0  0  0  0  0  0  # atno 7974 bound_to 7965
  155.3605  140.3418  155.4240 H   0  0  0  0  0  0  0  0  0  0  0  0  # atno 8008 bound_to 7997
  156.1716  140.1633  156.8472 H   0  0  0  0  0  0  0  0  0  0  0  0  # atno 8009 bound_to 7997
  154.5239  140.0760  156.8205 H   0  0  0  0  0  0  0  0  0  0  0  0  # atno 8010 bound_to 7997
  140.7274  143.4062  151.1182 H   0  0  0  0  0  0  0  0  0  0  0  0  # atno 10167 bound_to 10162
  156.4262  130.8053  151.2278 H   0  0  0  0  0  0  0  0  0  0  0  0  # atno 10718 bound_to 10713
  154.3981  135.6037  153.5881 H   0  0  0  0  0  0  0  0  0  0  0  0  # atno 10763 bound_to 10752
  152.9788  135.5900  154.4217 H   0  0  0  0  0  0  0  0  0  0  0  0  # atno 10764 bound_to 10752
  154.4012  135.2843  155.2074 H   0  0  0  0  0  0  0  0  0  0  0  0  # atno 10765 bound_to 10752
  141.0997  133.8906  157.1873 H   0  0  0  0  0  0  0  0  0  0  0  0  # atno 11005 bound_to 11000
  145.6545  141.0255  143.1742 LP  0  0  0  0  0  0  0  0  0  0  0  0  # atno 17320 bound_to 7965
  144.7180  139.8129  143.7392 LP  0  0  0  0  0  0  0  0  0  0  0  0  # atno 17321 bound_to 7965
  139.7689  143.8524  152.3116 LP  0  0  0  0  0  0  0  0  0  0  0  0  # atno 17342 bound_to 10162
  139.8436  144.7198  150.9301 LP  0  0  0  0  0  0  0  0  0  0  0  0  # atno 17343 bound_to 10162
  157.7508  131.0213  150.3743 LP  0  0  0  0  0  0  0  0  0  0  0  0  # atno 17370 bound_to 10713
  156.4070  130.3927  149.6918 LP  0  0  0  0  0  0  0  0  0  0  0  0  # atno 17371 bound_to 10713
  139.9845  135.0087  156.9829 LP  0  0  0  0  0  0  0  0  0  0  0  0  # atno 17394 bound_to 11000
  140.5052  134.1057  155.7258 LP  0  0  0  0  0  0  0  0  0  0  0  0  # atno 17395 bound_to 11000

$$$$
