AV-unprocessed.smi:2588|AV-procd|sdf|10150|dock7
  -GOLD-   2272014163D 1   1.00000     0.00000
 Structure written by MMmdl.
 39 40  0  0  0  0  0  0  0  0  1 V2000
  151.9178  144.9725  159.4908 C   0  0  0  0  0  0  0  0  0  0  0  0
  151.3792  143.7784  160.3105 C   0  0  0  0  0  0  0  0  0  0  0  0
  152.2929  143.5893  161.5424 C   0  0  0  0  0  0  0  0  0  0  0  0
  151.2891  142.5463  159.4984 N   0  0  0  0  0  0  0  0  0  0  0  0
  152.5935  142.1890  158.9163 C   0  0  0  0  0  0  0  0  0  0  0  0
  152.5244  140.8637  158.1381 C   0  0  0  0  0  0  0  0  0  0  0  0
  151.4933  140.9407  157.0049 C   0  0  0  0  0  0  0  0  0  0  0  0
  151.3340  139.6451  156.3517 N   0  0  0  0  0  0  0  0  0  0  0  0
  152.0131  139.2367  155.2689 C   0  0  0  0  0  0  0  0  0  0  0  0
  152.8446  139.9376  154.6902 O   0  0  0  0  0  0  0  0  0  0  0  0
  151.6825  137.8284  154.7576 C   0  0  0  0  0  0  0  0  0  0  0  0
  150.6032  137.1860  155.5091 N   0  0  0  0  0  0  0  0  0  0  0  0
  149.4031  137.8225  155.5846 N   0  0  0  0  0  0  0  0  0  0  0  0
  148.5527  137.1416  156.2593 C   0  0  0  0  0  0  0  0  0  0  0  0
  149.1266  135.6002  156.9095 S   0  0  0  0  0  0  0  0  0  0  0  0
  150.7054  135.9577  156.1565 C   0  0  0  0  0  0  0  0  0  0  0  0
  151.6784  135.2093  156.2307 O   0  0  0  0  0  0  0  0  0  0  0  0
  150.1581  141.3966  157.6003 C   0  0  0  0  0  0  0  0  0  0  0  0
  150.3235  142.7017  158.3981 C   0  0  0  0  0  0  0  0  0  0  0  0
  152.1317  145.8257  160.1352 H   0  0  0  0  0  0  0  0  0  0  0  0
  151.1985  145.3325  158.7560 H   0  0  0  0  0  0  0  0  0  0  0  0
  152.8418  144.7162  158.9711 H   0  0  0  0  0  0  0  0  0  0  0  0
  150.3805  144.0364  160.6661 H   0  0  0  0  0  0  0  0  0  0  0  0
  152.4817  144.5410  162.0400 H   0  0  0  0  0  0  0  0  0  0  0  0
  153.2603  143.1710  161.2614 H   0  0  0  0  0  0  0  0  0  0  0  0
  151.8471  142.9452  162.2993 H   0  0  0  0  0  0  0  0  0  0  0  0
  152.9468  142.9918  158.2670 H   0  0  0  0  0  0  0  0  0  0  0  0
  153.3429  142.0532  159.6934 H   0  0  0  0  0  0  0  0  0  0  0  0
  153.5096  140.6265  157.7350 H   0  0  0  0  0  0  0  0  0  0  0  0
  152.2682  140.0545  158.8237 H   0  0  0  0  0  0  0  0  0  0  0  0
  151.8171  141.6807  156.2702 H   0  0  0  0  0  0  0  0  0  0  0  0
  150.6654  139.0085  156.7604 H   0  0  0  0  0  0  0  0  0  0  0  0
  151.3988  137.8777  153.7049 H   0  0  0  0  0  0  0  0  0  0  0  0
  152.5883  137.2219  154.8044 H   0  0  0  0  0  0  0  0  0  0  0  0
  147.5203  137.4244  156.4654 H   0  0  0  0  0  0  0  0  0  0  0  0
  149.4266  141.5430  156.8050 H   0  0  0  0  0  0  0  0  0  0  0  0
  149.7540  140.6222  158.2545 H   0  0  0  0  0  0  0  0  0  0  0  0
  149.3380  142.9610  158.7790 H   0  0  0  0  0  0  0  0  0  0  0  0
  150.6357  143.5130  157.7388 H   0  0  0  0  0  0  0  0  0  0  0  0
  1  2  1  0  0  0  0
  1 20  1  0  0  0  0
  1 21  1  0  0  0  0
  1 22  1  0  0  0  0
  2  3  1  0  0  0  0
  2  4  1  0  0  0  0
  2 23  1  0  0  0  0
  3 24  1  0  0  0  0
  3 25  1  0  0  0  0
  3 26  1  0  0  0  0
  4 19  1  0  0  0  0
  4  5  1  0  0  0  0
  5  6  1  0  0  0  0
  5 27  1  0  0  0  0
  5 28  1  0  0  0  0
  6  7  1  0  0  0  0
  6 29  1  0  0  0  0
  6 30  1  0  0  0  0
  7  8  1  0  0  0  0
  7 18  1  0  0  0  0
  7 31  1  0  0  0  0
  8  9  1  0  0  0  0
  8 32  1  0  0  0  0
  9 10  2  0  0  0  0
  9 11  1  0  0  0  0
 11 12  1  0  0  0  0
 11 33  1  0  0  0  0
 11 34  1  0  0  0  0
 12 16  1  0  0  0  0
 12 13  1  0  0  0  0
 13 14  2  0  0  0  0
 14 15  1  0  0  0  0
 14 35  1  0  0  0  0
 15 16  1  0  0  0  0
 16 17  2  0  0  0  0
 18 19  1  0  0  0  0
 18 36  1  0  0  0  0
 18 37  1  0  0  0  0
 19 38  1  0  0  0  0
 19 39  1  0  0  0  0
M  END
> <s_m_source_file>
AV-unprocessed.smi

> <i_m_source_file_index>
2588

> <i_lp_mmshare_version>
43012

> <i_f3d_flags>
0

> <s_epik_input>
W0NIM11bQ0hdKFtDSDNdKU4xW0NIMl1bQ0gyXVtDSF0oW0NIMl1bQ0gyXTEpW05IXUMoPU8pW0NIMl1uMm5bY0hdc2MyPU8=

> <s_epik_cmdline>
J2VwaWtfcHl0aG9uJywgJy1waCcsICc3LjAnLCAnLXRuJywgJzgnLCAnLW1hJywgJzIwMCcsICctbWV0YWxfYmluZGluZycsICctaW1hZScsICc8aW5maWxlLm1hZT4nLCAnLW9tYWUnLCAnPG91dGZpbGUubWFlPic=

> <r_lp_tautomer_probability>
1

> <r_epik_Ionization_Penalty>
2.47038

> <r_epik_Ionization_Penalty_Charging>
1.38606e-08

> <r_epik_Ionization_Penalty_Neutral>
2.47038

> <r_epik_State_Penalty>
2.63325

> <r_epik_Charging_Adjusted_Penalty>
2.63325

> <i_epik_Tot_Q>
0

> <i_epik_Tot_abs_Q>
0

> <r_epik_Metal_State_Penalty>
2.63325

> <b_epik_Metal_Only>
0

> <s_lp_Force_Field>
OPLS_2005

> <r_lp_Energy>
19.6439

> <b_lp_Chiralities_Consistent>
1

> <s_lp_Variant>
AV-unprocessed.smi:2588-3

> <Gold.Version>
5.8.1

> <Gold.Id.Protein>
6NUR|6NUR_protein|mol2

> <Gold.PLP.Fitness>
39.6426

> <Gold.PLP.PLP>
-33.2835

> <Gold.PLP.part.hbond>
-3.2306

> <Gold.PLP.part.metal>
0.0000

> <Gold.PLP.part.buried>
-3.1902

> <Gold.PLP.part.nonpolar>
-25.3872

> <Gold.PLP.part.repulsive>
0.2001

> <Gold.PLP.ligand.clash>
0.0000

> <Gold.PLP.ligand.torsion>
0.4104

> <Gold.PLP.Chemscore.Hbond>
2.3913

> <Gold.PLP.Chemscore.CHOScore>
0.0000

> <Gold.PLP.Chemscore.Metal>
0.0000

> <Gold.Chemscore.Hbonds>
donor molecule, donor type, donor heavy atom, donor atom, acceptor molecule, acceptor atom, score
      P1  H  7989  7998       L1    10  0.37
      P1  H  7997  8008       L1    10  1.00
      P1  H 10752 10763       L1    17  1.00

> <Gold.PLP.Chemscore.Internal.Correction>
0.0062

> <Gold.Rescore>
     Score         DG    S(hbond)    S(metal)    S(lipo)     H(rot)  DE(clash)    DE(int)     intcor
     14.86     -17.04       1.97        0.00      82.65       1.83       0.38       1.80       ----

> <Gold.Chemscore.Fitness>
14.8600

> <Gold.Chemscore.DG>
-17.0421

> <Gold.Chemscore.ZeroCoef>
-5.4800

> <Gold.Chemscore.Hbond>
1.9716

> <Gold.Chemscore.Metal>
0.0000

> <Gold.Chemscore.Lipo>
82.6497

> <Gold.Chemscore.Internal_Hbond>
0.0000

> <Gold.Chemscore.DEClash>
0.3808

> <Gold.Chemscore.DEInternal>
1.8012

> <Gold.Chemscore.Rot>
1.8332

> <Gold.Chemscore.Internal.Correction>
   9.000000E+99

> <Gold.Chemscore.Hbonds>
donor molecule, donor type, donor heavy atom, donor atom, acceptor molecule, acceptor atom, score
      P1  H  7989  7998       L1    10  0.10
      P1  H  7997  8008       L1    10  0.81
      P1  H 10752 10763       L1    17  0.95

> <Gold.Chemscore.Hbond.Weighted>
-6.5851

> <Gold.Chemscore.Metal.Weighted>
-0.0000

> <Gold.Chemscore.Lipo.Weighted>
-9.6700

> <Gold.Chemscore.Internal_Hbond.Weighted>
0.0000

> <Gold.Chemscore.DEClash.Weighted>
0.3808

> <Gold.Chemscore.DEInternal.Weighted>
1.8012

> <Gold.Chemscore.Rot.Weighted>
4.6930

> <Gold.Chemscore.Internal.Correction.Weighted>
   9.000000E+99

> <Gold.Protein.RotatedTorsions>
[ 6907 6896 6895 6894 ] final -164.71 input  -60.11 | X-H torsion
[ 7974 7965 7964 7962 ] final  -70.18 input  175.53 | X-H torsion
[ 8008 7997 7996 7995 ] final   -8.35 input   59.86 | X-H torsion
[ 10167 10162 10161 10158 ] final -104.72 input  -65.29 | X-H torsion
[ 10718 10713 10712 10709 ] final  141.99 input   66.30 | X-H torsion
[ 10763 10752 10751 10750 ] final   85.83 input  -60.55 | X-H torsion
[ 11005 11000 10999 10996 ] final -118.47 input  -57.11 | X-H torsion

> <Gold.Protein.ActiveResidues>
 VAL166  LYS551  ARG553  GLY616  TRP617  ASP618  TYR619  PRO620  LYS621  CYS622 
 ASP623  PHE694  ASN695  SER759  ASP760  ASP761  ALA762  ILE779  LEU786  VAL792 
 PHE793  MET794  SER795  GLU796  ALA797  LYS798  CYS799  TRP800  GLU811  SER814 

> <Gold.Protein.RotatedAtoms>
  151.4162  133.3712  159.2749 H   0  0  0  0  0  0  0  0  0  0  0  0  # atno 6907 bound_to 6896
  150.9327  134.8742  159.7572 H   0  0  0  0  0  0  0  0  0  0  0  0  # atno 6908 bound_to 6896
  152.5035  134.4108  159.9500 H   0  0  0  0  0  0  0  0  0  0  0  0  # atno 6909 bound_to 6896
  145.6943  140.9141  143.0765 H   0  0  0  0  0  0  0  0  0  0  0  0  # atno 7974 bound_to 7965
  154.5750  140.2383  155.8136 H   0  0  0  0  0  0  0  0  0  0  0  0  # atno 8008 bound_to 7997
  156.2136  140.3019  155.9745 H   0  0  0  0  0  0  0  0  0  0  0  0  # atno 8009 bound_to 7997
  155.2644  140.0416  157.2991 H   0  0  0  0  0  0  0  0  0  0  0  0  # atno 8010 bound_to 7997
  140.2062  143.3781  152.1088 H   0  0  0  0  0  0  0  0  0  0  0  0  # atno 10167 bound_to 10162
  157.3857  131.0998  151.0695 H   0  0  0  0  0  0  0  0  0  0  0  0  # atno 10718 bound_to 10713
  153.1512  135.4603  154.9639 H   0  0  0  0  0  0  0  0  0  0  0  0  # atno 10763 bound_to 10752
  154.7826  135.3193  154.7959 H   0  0  0  0  0  0  0  0  0  0  0  0  # atno 10764 bound_to 10752
  153.8464  135.6925  153.4851 H   0  0  0  0  0  0  0  0  0  0  0  0  # atno 10765 bound_to 10752
  141.0284  134.0019  157.3180 H   0  0  0  0  0  0  0  0  0  0  0  0  # atno 11005 bound_to 11000
  144.6987  139.8863  143.7450 LP  0  0  0  0  0  0  0  0  0  0  0  0  # atno 17320 bound_to 7965
  146.0854  139.3843  143.0438 LP  0  0  0  0  0  0  0  0  0  0  0  0  # atno 17321 bound_to 7965
  139.5198  144.7024  151.5455 LP  0  0  0  0  0  0  0  0  0  0  0  0  # atno 17342 bound_to 10162
  140.6356  143.8991  150.6644 LP  0  0  0  0  0  0  0  0  0  0  0  0  # atno 17343 bound_to 10162
  157.1748  130.6283  149.5652 LP  0  0  0  0  0  0  0  0  0  0  0  0  # atno 17370 bound_to 10713
  155.9786  130.4773  150.6666 LP  0  0  0  0  0  0  0  0  0  0  0  0  # atno 17371 bound_to 10713
  139.9191  135.0199  156.7996 LP  0  0  0  0  0  0  0  0  0  0  0  0  # atno 17394 bound_to 11000
  140.6451  133.9783  155.7727 LP  0  0  0  0  0  0  0  0  0  0  0  0  # atno 17395 bound_to 11000

$$$$
