AV-unprocessed.smi:670|AV-procd|sdf|3268|dock4
  -GOLD-   22720 0223D 1   1.00000     0.00000
 Structure written by MMmdl.
 44 45  0  0  0  0  0  0  0  0  2 V2000
  154.0345  141.4945  159.9595 C   0  0  0  0  0  0  0  0  0  0  0  0
  152.5666  141.9497  159.9331 C   0  0  1  0  0  0  0  0  0  0  0  0
  152.4579  143.4610  160.2221 C   0  0  0  0  0  0  0  0  0  0  0  0
  150.9994  143.9435  160.1975 C   0  0  0  0  0  0  0  0  0  0  0  0
  150.3305  143.6026  158.8591 C   0  0  0  0  0  0  0  0  0  0  0  0
  150.4246  142.0987  158.5701 C   0  0  0  0  0  0  0  0  0  0  0  0
  151.8844  141.6006  158.5912 C   0  0  2  0  0  0  0  0  0  0  0  0
  151.8768  140.1869  158.4509 O   0  0  0  0  0  0  0  0  0  0  0  0
  151.1033  139.7093  157.3595 C   0  0  0  0  0  0  0  0  0  0  0  0
  151.4293  138.2288  157.1419 C   0  0  0  0  0  0  0  0  0  0  0  0
  150.5038  137.4098  157.9139 N   0  0  0  0  0  0  0  0  0  0  0  0
  150.8194  136.5845  158.9245 C   0  0  0  0  0  0  0  0  0  0  0  0
  151.9652  136.4588  159.3566 O   0  0  0  0  0  0  0  0  0  0  0  0
  149.6844  135.7522  159.5467 C   0  0  0  0  0  0  0  0  0  0  0  0
  150.0879  134.9212  160.6940 N   0  0  0  0  0  0  0  0  0  0  0  0
  150.2874  135.6721  161.9305 N   0  5  0  0  0  0  0  0  0  0  0  0
  150.6446  135.0057  163.0603 C   0  0  0  0  0  0  0  0  0  0  0  0
  150.8097  135.5665  164.1407 O   0  0  0  0  0  0  0  0  0  0  0  0
  150.8382  133.5678  162.9745 C   0  0  0  0  0  0  0  0  0  0  0  0
  150.6521  132.9009  161.8184 C   0  0  0  0  0  0  0  0  0  0  0  0
  150.2420  133.5701  160.5900 C   0  0  0  0  0  0  0  0  0  0  0  0
  150.0437  132.9626  159.5381 O   0  0  0  0  0  0  0  0  0  0  0  0
  154.6142  141.9800  159.1737 H   0  0  0  0  0  0  0  0  0  0  0  0
  154.1181  140.4168  159.8168 H   0  0  0  0  0  0  0  0  0  0  0  0
  154.5019  141.7343  160.9148 H   0  0  0  0  0  0  0  0  0  0  0  0
  152.0404  141.4194  160.7286 H   0  0  0  0  0  0  0  0  0  0  0  0
  152.8987  143.6877  161.1935 H   0  0  0  0  0  0  0  0  0  0  0  0
  153.0355  144.0195  159.4842 H   0  0  0  0  0  0  0  0  0  0  0  0
  150.4449  143.4771  161.0129 H   0  0  0  0  0  0  0  0  0  0  0  0
  150.9589  145.0192  160.3704 H   0  0  0  0  0  0  0  0  0  0  0  0
  149.2853  143.9126  158.8747 H   0  0  0  0  0  0  0  0  0  0  0  0
  150.8095  144.1616  158.0542 H   0  0  0  0  0  0  0  0  0  0  0  0
  149.8531  141.5520  159.3203 H   0  0  0  0  0  0  0  0  0  0  0  0
  149.9537  141.8841  157.6110 H   0  0  0  0  0  0  0  0  0  0  0  0
  152.4501  142.0619  157.7789 H   0  0  0  0  0  0  0  0  0  0  0  0
  150.0331  139.8229  157.5378 H   0  0  0  0  0  0  0  0  0  0  0  0
  151.3446  140.2914  156.4697 H   0  0  0  0  0  0  0  0  0  0  0  0
  151.3688  137.9974  156.0775 H   0  0  0  0  0  0  0  0  0  0  0  0
  152.4499  138.0116  157.4581 H   0  0  0  0  0  0  0  0  0  0  0  0
  149.5306  137.4539  157.6443 H   0  0  0  0  0  0  0  0  0  0  0  0
  148.8758  136.4241  159.8392 H   0  0  0  0  0  0  0  0  0  0  0  0
  149.2638  135.1221  158.7614 H   0  0  0  0  0  0  0  0  0  0  0  0
  151.1362  133.0220  163.8574 H   0  0  0  0  0  0  0  0  0  0  0  0
  150.8036  131.8320  161.8019 H   0  0  0  0  0  0  0  0  0  0  0  0
  1  2  1  0  0  0  0
  1 23  1  0  0  0  0
  1 24  1  0  0  0  0
  1 25  1  0  0  0  0
  2  7  1  0  0  0  0
  2  3  1  0  0  0  0
  2 26  1  0  0  0  0
  3  4  1  0  0  0  0
  3 27  1  0  0  0  0
  3 28  1  0  0  0  0
  4  5  1  0  0  0  0
  4 29  1  0  0  0  0
  4 30  1  0  0  0  0
  5  6  1  0  0  0  0
  5 31  1  0  0  0  0
  5 32  1  0  0  0  0
  6  7  1  0  0  0  0
  6 33  1  0  0  0  0
  6 34  1  0  0  0  0
  7  8  1  0  0  0  0
  7 35  1  0  0  0  0
  8  9  1  0  0  0  0
  9 10  1  0  0  0  0
  9 36  1  0  0  0  0
  9 37  1  0  0  0  0
 10 11  1  0  0  0  0
 10 38  1  0  0  0  0
 10 39  1  0  0  0  0
 11 12  1  0  0  0  0
 11 40  1  0  0  0  0
 12 13  2  0  0  0  0
 12 14  1  0  0  0  0
 14 41  1  0  0  0  0
 14 42  1  0  0  0  0
 14 15  1  0  0  0  0
 15 16  1  0  0  0  0
 15 21  1  0  0  0  0
 16 17  1  0  0  0  0
 17 18  2  0  0  0  0
 17 19  1  0  0  0  0
 19 43  1  0  0  0  0
 19 20  2  0  0  0  0
 20 44  1  0  0  0  0
 20 21  1  0  0  0  0
 21 22  2  0  0  0  0
M  CHG  1  16  -1
M  END
> <s_m_source_file>
AV-unprocessed.smi

> <i_m_source_file_index>
670

> <i_lp_mmshare_version>
43012

> <i_f3d_flags>
0

> <s_epik_input>
W0NIM11bQ0BASF0xW0NIMl1bQ0gyXVtDSDJdW0NIMl1bQ0BIXTFPW0NIMl1bQ0gyXVtOSF1DKD1PKVtDSDJdbjJbbkhdYyg9TylbY0hdW2NIXWMyPU8=

> <s_epik_cmdline>
J2VwaWtfcHl0aG9uJywgJy1waCcsICc3LjAnLCAnLXRuJywgJzgnLCAnLW1hJywgJzIwMCcsICctbWV0YWxfYmluZGluZycsICctaW1hZScsICc8aW5maWxlLm1hZT4nLCAnLW9tYWUnLCAnPG91dGZpbGUubWFlPic=

> <r_lp_tautomer_probability>
1

> <r_epik_Ionization_Penalty>
0.0975638

> <r_epik_Ionization_Penalty_Charging>
0.0975637

> <r_epik_Ionization_Penalty_Neutral>
2.78599e-08

> <r_epik_State_Penalty>
0.0343507

> <r_epik_Charging_Adjusted_Penalty>
0.131914

> <i_epik_Tot_Q>
-1

> <i_epik_Tot_abs_Q>
1

> <r_epik_Metal_State_Penalty>
0.0343507

> <b_epik_Metal_Only>
0

> <s_lp_Force_Field>
OPLS_2005

> <r_lp_Energy>
24.2447

> <b_lp_Chiralities_Consistent>
1

> <s_lp_Variant>
AV-unprocessed.smi:670-4

> <Gold.Version>
5.8.1

> <Gold.Id.Protein>
6NUR|6NUR_protein|mol2

> <Gold.PLP.Fitness>
58.9496

> <Gold.PLP.PLP>
-46.9589

> <Gold.PLP.part.hbond>
-4.0706

> <Gold.PLP.part.metal>
0.0000

> <Gold.PLP.part.buried>
-3.7794

> <Gold.PLP.part.nonpolar>
-39.9022

> <Gold.PLP.part.repulsive>
0.1161

> <Gold.PLP.ligand.clash>
0.0000

> <Gold.PLP.ligand.torsion>
0.4889

> <Gold.PLP.Chemscore.Hbond>
4.3005

> <Gold.PLP.Chemscore.CHOScore>
0.0000

> <Gold.PLP.Chemscore.Metal>
0.0000

> <Gold.PLP.Chemscore.Internal.Correction>
0.0669

> <Gold.Rescore>
     Score         DG    S(hbond)    S(metal)    S(lipo)     H(rot)  DE(clash)    DE(int)     intcor
     16.69     -17.29       2.06        0.00      95.70       2.45       0.22       0.38       ----

> <Gold.Chemscore.Fitness>
16.6899

> <Gold.Chemscore.DG>
-17.2894

> <Gold.Chemscore.ZeroCoef>
-5.4800

> <Gold.Chemscore.Hbond>
2.0604

> <Gold.Chemscore.Metal>
0.0000

> <Gold.Chemscore.Lipo>
95.7014

> <Gold.Chemscore.Internal_Hbond>
0.0000

> <Gold.Chemscore.DEClash>
0.2213

> <Gold.Chemscore.DEInternal>
0.3781

> <Gold.Chemscore.Rot>
2.4490

> <Gold.Chemscore.Internal.Correction>
   9.000000E+99

> <Gold.Chemscore.Hbond.Weighted>
-6.8817

> <Gold.Chemscore.Metal.Weighted>
-0.0000

> <Gold.Chemscore.Lipo.Weighted>
-11.1971

> <Gold.Chemscore.Internal_Hbond.Weighted>
0.0000

> <Gold.Chemscore.DEClash.Weighted>
0.2213

> <Gold.Chemscore.DEInternal.Weighted>
0.3781

> <Gold.Chemscore.Rot.Weighted>
6.2694

> <Gold.Chemscore.Internal.Correction.Weighted>
   9.000000E+99

> <Gold.Protein.RotatedTorsions>
[ 6907 6896 6895 6894 ] final -151.06 input  -60.11 | X-H torsion
[ 7974 7965 7964 7962 ] final  151.12 input  175.53 | X-H torsion
[ 8008 7997 7996 7995 ] final -108.89 input   59.86 | X-H torsion
[ 10167 10162 10161 10158 ] final -134.44 input  -65.29 | X-H torsion
[ 10718 10713 10712 10709 ] final  -74.28 input   66.30 | X-H torsion
[ 10763 10752 10751 10750 ] final -169.45 input  -60.55 | X-H torsion
[ 11005 11000 10999 10996 ] final  177.02 input  -57.11 | X-H torsion

> <Gold.Protein.ActiveResidues>
 VAL166  LYS551  ARG553  GLY616  TRP617  ASP618  TYR619  PRO620  LYS621  CYS622 
 ASP623  PHE694  ASN695  SER759  ASP760  ASP761  ALA762  ILE779  LEU786  VAL792 
 PHE793  MET794  SER795  GLU796  ALA797  LYS798  CYS799  TRP800  GLU811  SER814 

> <Gold.Protein.RotatedAtoms>
  151.2076  133.4575  159.2597 H   0  0  0  0  0  0  0  0  0  0  0  0  # atno 6907 bound_to 6896
  151.1008  134.9971  159.8458 H   0  0  0  0  0  0  0  0  0  0  0  0  # atno 6908 bound_to 6896
  152.5443  134.2002  159.8762 H   0  0  0  0  0  0  0  0  0  0  0  0  # atno 6909 bound_to 6896
  144.8315  139.6496  143.6056 H   0  0  0  0  0  0  0  0  0  0  0  0  # atno 7974 bound_to 7965
  154.9511  140.0401  157.2144 H   0  0  0  0  0  0  0  0  0  0  0  0  # atno 8008 bound_to 7997
  154.7977  140.2846  155.5922 H   0  0  0  0  0  0  0  0  0  0  0  0  # atno 8009 bound_to 7997
  156.2958  140.2561  156.2839 H   0  0  0  0  0  0  0  0  0  0  0  0  # atno 8010 bound_to 7997
  139.8880  143.6757  152.2617 H   0  0  0  0  0  0  0  0  0  0  0  0  # atno 10167 bound_to 10162
  156.0249  130.4413  150.2868 H   0  0  0  0  0  0  0  0  0  0  0  0  # atno 10718 bound_to 10713
  154.6522  135.2913  154.9973 H   0  0  0  0  0  0  0  0  0  0  0  0  # atno 10763 bound_to 10752
  154.1062  135.6569  153.4881 H   0  0  0  0  0  0  0  0  0  0  0  0  # atno 10764 bound_to 10752
  153.0382  135.5254  154.7434 H   0  0  0  0  0  0  0  0  0  0  0  0  # atno 10765 bound_to 10752
  140.3795  134.6959  157.4442 H   0  0  0  0  0  0  0  0  0  0  0  0  # atno 11005 bound_to 11000
  146.2618  139.6427  142.9357 LP  0  0  0  0  0  0  0  0  0  0  0  0  # atno 17320 bound_to 7965
  145.4885  141.0438  143.2606 LP  0  0  0  0  0  0  0  0  0  0  0  0  # atno 17321 bound_to 7965
  139.7135  144.7616  151.1073 LP  0  0  0  0  0  0  0  0  0  0  0  0  # atno 17342 bound_to 10162
  140.7732  143.5300  150.9435 LP  0  0  0  0  0  0  0  0  0  0  0  0  # atno 17343 bound_to 10162
  157.0971  131.0185  151.3099 LP  0  0  0  0  0  0  0  0  0  0  0  0  # atno 17370 bound_to 10713
  157.4809  130.7764  149.7413 LP  0  0  0  0  0  0  0  0  0  0  0  0  # atno 17371 bound_to 10713
  140.0490  134.6158  155.8886 LP  0  0  0  0  0  0  0  0  0  0  0  0  # atno 17394 bound_to 11000
  141.1928  133.6576  156.5519 LP  0  0  0  0  0  0  0  0  0  0  0  0  # atno 17395 bound_to 11000

$$$$
