AV-unprocessed.smi:1427|AV-procd|sdf|5809|dock1
  -GOLD-   22720 5463D 1   1.00000     0.00000
 Structure written by MMmdl.
 33 34  0  0  0  0  0  0  0  0  1 V2000
  151.5864  140.4964  156.8245 C   0  0  0  0  0  0  0  0  0  0  0  0
  150.5093  141.5084  156.4068 C   0  0  2  0  0  0  0  0  0  0  0  0
  150.0104  142.3381  157.6064 C   0  0  0  0  0  0  0  0  0  0  0  0
  151.0568  143.1744  158.1702 N   0  0  0  0  0  0  0  0  0  0  0  0
  151.6417  144.2975  157.6247 C   0  0  0  0  0  0  0  0  0  0  0  0
  152.5583  144.7569  158.5265 C   0  0  0  0  0  0  0  0  0  0  0  0
  152.4598  143.8374  159.6078 C   0  0  0  0  0  0  0  0  0  0  0  0
  151.5633  142.8892  159.3900 N   0  0  0  0  0  0  0  0  0  0  0  0
  149.3832  140.8156  155.7881 N   0  0  0  0  0  0  0  0  0  0  0  0
  149.4432  140.0054  154.7188 C   0  0  0  0  0  0  0  0  0  0  0  0
  150.5044  139.6809  154.1864 O   0  0  0  0  0  0  0  0  0  0  0  0
  148.1149  139.4748  154.1449 C   0  0  2  0  0  0  0  0  0  0  0  0
  146.8726  139.8915  154.9568 C   0  0  0  0  0  0  0  0  0  0  0  0
  146.5202  138.6609  155.8034 C   0  0  0  0  0  0  0  0  0  0  0  0
  147.1916  137.5317  155.0384 C   0  0  0  0  0  0  0  0  0  0  0  0
  146.9780  136.3416  155.2558 O   0  0  0  0  0  0  0  0  0  0  0  0
  148.0249  138.0205  154.1185 N   0  0  0  0  0  0  0  0  0  0  0  0
  152.4410  140.9999  157.2770 H   0  0  0  0  0  0  0  0  0  0  0  0
  151.9552  139.9348  155.9656 H   0  0  0  0  0  0  0  0  0  0  0  0
  151.1989  139.7805  157.5501 H   0  0  0  0  0  0  0  0  0  0  0  0
  150.9502  142.1963  155.6829 H   0  0  0  0  0  0  0  0  0  0  0  0
  149.1671  142.9679  157.3167 H   0  0  0  0  0  0  0  0  0  0  0  0
  149.6478  141.6772  158.3945 H   0  0  0  0  0  0  0  0  0  0  0  0
  151.3570  144.6735  156.6530 H   0  0  0  0  0  0  0  0  0  0  0  0
  153.1997  145.6202  158.4292 H   0  0  0  0  0  0  0  0  0  0  0  0
  153.0092  143.8304  160.5376 H   0  0  0  0  0  0  0  0  0  0  0  0
  148.4678  141.0274  156.1588 H   0  0  0  0  0  0  0  0  0  0  0  0
  148.0285  139.8477  153.1236 H   0  0  0  0  0  0  0  0  0  0  0  0
  147.0367  140.7762  155.5738 H   0  0  0  0  0  0  0  0  0  0  0  0
  146.0475  140.1202  154.2806 H   0  0  0  0  0  0  0  0  0  0  0  0
  146.9549  138.7256  156.8015 H   0  0  0  0  0  0  0  0  0  0  0  0
  145.4441  138.5108  155.8936 H   0  0  0  0  0  0  0  0  0  0  0  0
  148.5768  137.4514  153.4932 H   0  0  0  0  0  0  0  0  0  0  0  0
  1  2  1  0  0  0  0
  1 18  1  0  0  0  0
  1 19  1  0  0  0  0
  1 20  1  0  0  0  0
  2  3  1  0  0  0  0
  2  9  1  0  0  0  0
  2 21  1  0  0  0  0
  3  4  1  0  0  0  0
  3 22  1  0  0  0  0
  3 23  1  0  0  0  0
  4  8  1  0  0  0  0
  4  5  1  0  0  0  0
  5  6  2  0  0  0  0
  5 24  1  0  0  0  0
  6  7  1  0  0  0  0
  6 25  1  0  0  0  0
  7  8  2  0  0  0  0
  7 26  1  0  0  0  0
  9 10  1  0  0  0  0
  9 27  1  0  0  0  0
 10 11  2  0  0  0  0
 10 12  1  0  0  0  0
 12 17  1  0  0  0  0
 12 13  1  0  0  0  0
 12 28  1  0  0  0  0
 13 14  1  0  0  0  0
 13 29  1  0  0  0  0
 13 30  1  0  0  0  0
 14 15  1  0  0  0  0
 14 31  1  0  0  0  0
 14 32  1  0  0  0  0
 15 16  2  0  0  0  0
 15 17  1  0  0  0  0
 17 33  1  0  0  0  0
M  END
> <s_m_source_file>
AV-unprocessed.smi

> <i_m_source_file_index>
1427

> <i_lp_mmshare_version>
43012

> <i_f3d_flags>
0

> <s_epik_input>
bjFbY0hdW2NIXVtjSF1uMVtDSDJdW0NAQEhdKFtDSDNdKVtOSF1DKD1PKVtDQEBIXTJbQ0gyXVtDSDJdQyg9TylbTkhdMg==

> <s_epik_cmdline>
J2VwaWtfcHl0aG9uJywgJy1waCcsICc3LjAnLCAnLXRuJywgJzgnLCAnLW1hJywgJzIwMCcsICctbWV0YWxfYmluZGluZycsICctaW1hZScsICc8aW5maWxlLm1hZT4nLCAnLW9tYWUnLCAnPG91dGZpbGUubWFlPic=

> <r_lp_tautomer_probability>
1

> <r_epik_Ionization_Penalty>
0.000310707

> <r_epik_Ionization_Penalty_Charging>
0

> <r_epik_Ionization_Penalty_Neutral>
0.000310707

> <r_epik_State_Penalty>
-0

> <r_epik_Charging_Adjusted_Penalty>
0

> <i_epik_Tot_Q>
0

> <i_epik_Tot_abs_Q>
0

> <r_epik_Metal_State_Penalty>
-0

> <b_epik_Metal_Only>
0

> <s_lp_Force_Field>
OPLS_2005

> <r_lp_Energy>
13.3236

> <b_lp_Chiralities_Consistent>
1

> <s_lp_Variant>
AV-unprocessed.smi:1427-1

> <Gold.Version>
5.8.1

> <Gold.Id.Protein>
6NUR|6NUR_protein|mol2

> <Gold.PLP.Fitness>
37.7838

> <Gold.PLP.PLP>
-28.9950

> <Gold.PLP.part.hbond>
-2.0000

> <Gold.PLP.part.metal>
0.0000

> <Gold.PLP.part.buried>
-4.4549

> <Gold.PLP.part.nonpolar>
-24.2376

> <Gold.PLP.part.repulsive>
0.6632

> <Gold.PLP.ligand.clash>
0.0000

> <Gold.PLP.ligand.torsion>
0.1313

> <Gold.PLP.Chemscore.Hbond>
2.0000

> <Gold.PLP.Chemscore.CHOScore>
0.9978

> <Gold.PLP.Chemscore.Metal>
0.0000

> <Gold.Chemscore.Hbonds>
donor molecule, donor type, donor heavy atom, donor atom, acceptor molecule, acceptor atom, score
      L1  H    17    33       P1  7948  0.93
      P1  H  7989  7998       L1    11  1.00
      L1  C     5    24       P1  8028  0.71

> <Gold.PLP.Chemscore.Internal.Correction>
0.0579

> <Gold.Rescore>
     Score         DG    S(hbond)    S(metal)    S(lipo)     H(rot)  DE(clash)    DE(int)     intcor
     15.01     -15.15       1.96        0.00      67.85       1.88       0.01       0.13       ----

> <Gold.Chemscore.Fitness>
15.0081

> <Gold.Chemscore.DG>
-15.1479

> <Gold.Chemscore.ZeroCoef>
-5.4800

> <Gold.Chemscore.Hbond>
1.9603

> <Gold.Chemscore.Metal>
0.0000

> <Gold.Chemscore.Lipo>
67.8508

> <Gold.Chemscore.Internal_Hbond>
0.0000

> <Gold.Chemscore.DEClash>
0.0134

> <Gold.Chemscore.DEInternal>
0.1264

> <Gold.Chemscore.Rot>
1.8821

> <Gold.Chemscore.Internal.Correction>
   9.000000E+99

> <Gold.Chemscore.Hbonds>
donor molecule, donor type, donor heavy atom, donor atom, acceptor molecule, acceptor atom, score
      L1  H    17    33       P1  7948  0.88
      P1  H  7989  7998       L1    11  0.99

> <Gold.Chemscore.Hbond.Weighted>
-6.5474

> <Gold.Chemscore.Metal.Weighted>
-0.0000

> <Gold.Chemscore.Lipo.Weighted>
-7.9385

> <Gold.Chemscore.Internal_Hbond.Weighted>
0.0000

> <Gold.Chemscore.DEClash.Weighted>
0.0134

> <Gold.Chemscore.DEInternal.Weighted>
0.1264

> <Gold.Chemscore.Rot.Weighted>
4.8181

> <Gold.Chemscore.Internal.Correction.Weighted>
   9.000000E+99

> <Gold.Protein.RotatedTorsions>
[ 6907 6896 6895 6894 ] final   63.21 input  -60.11 | X-H torsion
[ 7974 7965 7964 7962 ] final  145.78 input  175.53 | X-H torsion
[ 8008 7997 7996 7995 ] final   36.77 input   59.86 | X-H torsion
[ 10167 10162 10161 10158 ] final   74.55 input  -65.29 | X-H torsion
[ 10718 10713 10712 10709 ] final -106.15 input   66.30 | X-H torsion
[ 10763 10752 10751 10750 ] final  164.61 input  -60.55 | X-H torsion
[ 11005 11000 10999 10996 ] final   99.10 input  -57.11 | X-H torsion

> <Gold.Protein.ActiveResidues>
 VAL166  LYS551  ARG553  GLY616  TRP617  ASP618  TYR619  PRO620  LYS621  CYS622 
 ASP623  PHE694  ASN695  SER759  ASP760  ASP761  ALA762  ILE779  LEU786  VAL792 
 PHE793  MET794  SER795  GLU796  ALA797  LYS798  CYS799  TRP800  GLU811  SER814 

> <Gold.Protein.RotatedAtoms>
  152.4235  134.5912  159.9974 H   0  0  0  0  0  0  0  0  0  0  0  0  # atno 6907 bound_to 6896
  151.6055  133.3346  159.3064 H   0  0  0  0  0  0  0  0  0  0  0  0  # atno 6908 bound_to 6896
  150.8123  134.7323  159.6765 H   0  0  0  0  0  0  0  0  0  0  0  0  # atno 6909 bound_to 6896
  144.8724  139.5824  143.5880 H   0  0  0  0  0  0  0  0  0  0  0  0  # atno 7974 bound_to 7965
  155.1929  140.3309  155.4355 H   0  0  0  0  0  0  0  0  0  0  0  0  # atno 8008 bound_to 7997
  156.2436  140.1907  156.6970 H   0  0  0  0  0  0  0  0  0  0  0  0  # atno 8009 bound_to 7997
  154.6194  140.0597  156.9581 H   0  0  0  0  0  0  0  0  0  0  0  0  # atno 8010 bound_to 7997
  140.0125  144.5603  150.7647 H   0  0  0  0  0  0  0  0  0  0  0  0  # atno 10167 bound_to 10162
  156.0377  130.5599  150.7641 H   0  0  0  0  0  0  0  0  0  0  0  0  # atno 10718 bound_to 10713
  154.3114  135.2757  155.2564 H   0  0  0  0  0  0  0  0  0  0  0  0  # atno 10763 bound_to 10752
  154.4957  135.5821  153.6496 H   0  0  0  0  0  0  0  0  0  0  0  0  # atno 10764 bound_to 10752
  152.9887  135.6145  154.3292 H   0  0  0  0  0  0  0  0  0  0  0  0  # atno 10765 bound_to 10752
  139.8771  134.9080  156.4555 H   0  0  0  0  0  0  0  0  0  0  0  0  # atno 11005 bound_to 11000
  146.2940  139.7222  142.9140 LP  0  0  0  0  0  0  0  0  0  0  0  0  # atno 17320 bound_to 7965
  145.4105  141.0396  143.3020 LP  0  0  0  0  0  0  0  0  0  0  0  0  # atno 17321 bound_to 7965
  140.7376  143.2767  151.3720 LP  0  0  0  0  0  0  0  0  0  0  0  0  # atno 17342 bound_to 10162
  139.6195  144.0935  152.2378 LP  0  0  0  0  0  0  0  0  0  0  0  0  # atno 17343 bound_to 10162
  157.5152  131.0928  151.0148 LP  0  0  0  0  0  0  0  0  0  0  0  0  # atno 17370 bound_to 10713
  157.0493  130.5780  149.5368 LP  0  0  0  0  0  0  0  0  0  0  0  0  # atno 17371 bound_to 10713
  140.8901  133.7854  155.9562 LP  0  0  0  0  0  0  0  0  0  0  0  0  # atno 17394 bound_to 11000
  140.8762  134.2666  157.5166 LP  0  0  0  0  0  0  0  0  0  0  0  0  # atno 17395 bound_to 11000

$$$$
