AV-unprocessed.smi:2715|AV-procd|sdf|10482|dock2
  -GOLD-   2272014523D 1   1.00000     0.00000
 Structure written by MMmdl.
 38 39  0  0  0  0  0  0  0  0  1 V2000
  154.0945  137.1319  164.7999 C   0  0  0  0  0  0  0  0  0  0  0  0
  154.1945  136.7061  163.3754 C   0  0  0  0  0  0  0  0  0  0  0  0
  153.6602  137.3907  162.3609 N   0  0  0  0  0  0  0  0  0  0  0  0
  153.8875  136.7831  161.1210 C   0  0  0  0  0  0  0  0  0  0  0  0
  153.3532  137.4132  159.8670 C   0  0  0  0  0  0  0  0  0  0  0  0
  154.0047  138.7772  159.6334 C   0  0  0  0  0  0  0  0  0  0  0  0
  154.8384  138.9134  158.7385 O   0  0  0  0  0  0  0  0  0  0  0  0
  153.6237  139.7706  160.4527 N   0  0  0  0  0  0  0  0  0  0  0  0
  154.1277  141.1408  160.4286 C   0  0  0  0  0  0  0  0  0  0  0  0
  153.1746  142.1115  161.1498 C   0  0  0  0  0  0  0  0  0  0  0  0
  152.6617  143.2337  160.2606 C   0  0  0  0  0  0  0  0  0  0  0  0
  152.8347  143.2209  158.9244 C   0  0  0  0  0  0  0  0  0  0  0  0
  152.3074  144.2925  157.9868 C   0  0  0  0  0  0  0  0  0  0  0  0
  151.2652  145.1975  158.6645 C   0  0  0  0  0  0  0  0  0  0  0  0
  151.7171  145.6000  160.0737 C   0  0  0  0  0  0  0  0  0  0  0  0
  151.9249  144.3654  160.9690 C   0  0  0  0  0  0  0  0  0  0  0  0
  154.6166  135.6231  161.2141 C   0  0  0  0  0  0  0  0  0  0  0  0
  155.0353  135.2481  162.8630 S   0  0  0  0  0  0  0  0  0  0  0  0
  153.3425  137.9132  164.9155 H   0  0  0  0  0  0  0  0  0  0  0  0
  155.0555  137.5169  165.1412 H   0  0  0  0  0  0  0  0  0  0  0  0
  153.8144  136.2837  165.4247 H   0  0  0  0  0  0  0  0  0  0  0  0
  153.5358  136.7770  158.9998 H   0  0  0  0  0  0  0  0  0  0  0  0
  152.2716  137.5374  159.9340 H   0  0  0  0  0  0  0  0  0  0  0  0
  152.9296  139.5569  161.1543 H   0  0  0  0  0  0  0  0  0  0  0  0
  155.1340  141.2036  160.8457 H   0  0  0  0  0  0  0  0  0  0  0  0
  154.2184  141.4379  159.3838 H   0  0  0  0  0  0  0  0  0  0  0  0
  152.3174  141.5628  161.5409 H   0  0  0  0  0  0  0  0  0  0  0  0
  153.6814  142.5359  162.0176 H   0  0  0  0  0  0  0  0  0  0  0  0
  153.3752  142.4087  158.4601 H   0  0  0  0  0  0  0  0  0  0  0  0
  153.1543  144.8843  157.6380 H   0  0  0  0  0  0  0  0  0  0  0  0
  151.8688  143.8166  157.1094 H   0  0  0  0  0  0  0  0  0  0  0  0
  151.0857  146.0829  158.0541 H   0  0  0  0  0  0  0  0  0  0  0  0
  150.3131  144.6691  158.7324 H   0  0  0  0  0  0  0  0  0  0  0  0
  152.6506  146.1601  160.0036 H   0  0  0  0  0  0  0  0  0  0  0  0
  150.9888  146.2710  160.5298 H   0  0  0  0  0  0  0  0  0  0  0  0
  150.9584  143.9895  161.3041 H   0  0  0  0  0  0  0  0  0  0  0  0
  152.4755  144.6555  161.8643 H   0  0  0  0  0  0  0  0  0  0  0  0
  154.9282  134.9672  160.4147 H   0  0  0  0  0  0  0  0  0  0  0  0
  1  2  1  0  0  0  0
  1 19  1  0  0  0  0
  1 20  1  0  0  0  0
  1 21  1  0  0  0  0
  2 18  1  0  0  0  0
  2  3  2  0  0  0  0
  3  4  1  0  0  0  0
  4  5  1  0  0  0  0
  4 17  2  0  0  0  0
  5  6  1  0  0  0  0
  5 22  1  0  0  0  0
  5 23  1  0  0  0  0
  6  7  2  0  0  0  0
  6  8  1  0  0  0  0
  8  9  1  0  0  0  0
  8 24  1  0  0  0  0
  9 10  1  0  0  0  0
  9 25  1  0  0  0  0
  9 26  1  0  0  0  0
 10 11  1  0  0  0  0
 10 27  1  0  0  0  0
 10 28  1  0  0  0  0
 11 16  1  0  0  0  0
 11 12  2  0  0  0  0
 12 13  1  0  0  0  0
 12 29  1  0  0  0  0
 13 14  1  0  0  0  0
 13 30  1  0  0  0  0
 13 31  1  0  0  0  0
 14 15  1  0  0  0  0
 14 32  1  0  0  0  0
 14 33  1  0  0  0  0
 15 16  1  0  0  0  0
 15 34  1  0  0  0  0
 15 35  1  0  0  0  0
 16 36  1  0  0  0  0
 16 37  1  0  0  0  0
 17 18  1  0  0  0  0
 17 38  1  0  0  0  0
M  END
> <s_m_source_file>
AV-unprocessed.smi

> <i_m_source_file_index>
2715

> <i_lp_mmshare_version>
43012

> <i_f3d_flags>
0

> <s_epik_input>
W0NIM11jMW5jKFtjSF1zMSlbQ0gyXUMoPU8pW05IXVtDSDJdW0NIMl1DMj1bQ0hdW0NIMl1bQ0gyXVtDSDJdW0NIMl0y

> <s_epik_cmdline>
J2VwaWtfcHl0aG9uJywgJy1waCcsICc3LjAnLCAnLXRuJywgJzgnLCAnLW1hJywgJzIwMCcsICctbWV0YWxfYmluZGluZycsICctaW1hZScsICc8aW5maWxlLm1hZT4nLCAnLW9tYWUnLCAnPG91dGZpbGUubWFlPic=

> <r_lp_tautomer_probability>
1

> <r_epik_Ionization_Penalty>
5.73492e-05

> <r_epik_Ionization_Penalty_Charging>
0

> <r_epik_Ionization_Penalty_Neutral>
5.73492e-05

> <r_epik_State_Penalty>
-0

> <r_epik_Charging_Adjusted_Penalty>
0

> <i_epik_Tot_Q>
0

> <i_epik_Tot_abs_Q>
0

> <r_epik_Metal_State_Penalty>
-0

> <b_epik_Metal_Only>
0

> <s_lp_Force_Field>
OPLS_2005

> <r_lp_Energy>
6.36926

> <b_lp_Chiralities_Consistent>
1

> <s_lp_Variant>
AV-unprocessed.smi:2715-1

> <Gold.Version>
5.8.1

> <Gold.Id.Protein>
6NUR|6NUR_protein|mol2

> <Gold.PLP.Fitness>
50.4493

> <Gold.PLP.PLP>
-48.9474

> <Gold.PLP.part.hbond>
-1.0000

> <Gold.PLP.part.metal>
0.0000

> <Gold.PLP.part.buried>
-5.1582

> <Gold.PLP.part.nonpolar>
-42.2175

> <Gold.PLP.part.repulsive>
0.0586

> <Gold.PLP.ligand.clash>
0.0000

> <Gold.PLP.ligand.torsion>
0.7785

> <Gold.PLP.Chemscore.Hbond>
1.0000

> <Gold.PLP.Chemscore.CHOScore>
0.0000

> <Gold.PLP.Chemscore.Metal>
0.0000

> <Gold.Chemscore.Hbonds>
donor molecule, donor type, donor heavy atom, donor atom, acceptor molecule, acceptor atom, score
      P1  H  7997  8009       L1     7  1.00

> <Gold.PLP.Chemscore.Internal.Correction>
0.0589

> <Gold.Rescore>
     Score         DG    S(hbond)    S(metal)    S(lipo)     H(rot)  DE(clash)    DE(int)     intcor
     20.32     -20.96       1.00        0.00     136.55       1.50       0.03       0.61       ----

> <Gold.Chemscore.Fitness>
20.3211

> <Gold.Chemscore.DG>
-20.9645

> <Gold.Chemscore.ZeroCoef>
-5.4800

> <Gold.Chemscore.Hbond>
0.9997

> <Gold.Chemscore.Metal>
0.0000

> <Gold.Chemscore.Lipo>
136.5524

> <Gold.Chemscore.Internal_Hbond>
0.0000

> <Gold.Chemscore.DEClash>
0.0310

> <Gold.Chemscore.DEInternal>
0.6125

> <Gold.Chemscore.Rot>
1.4965

> <Gold.Chemscore.Internal.Correction>
   9.000000E+99

> <Gold.Chemscore.Hbonds>
donor molecule, donor type, donor heavy atom, donor atom, acceptor molecule, acceptor atom, score
      P1  H  7997  8009       L1     7  1.00

> <Gold.Chemscore.Hbond.Weighted>
-3.3390

> <Gold.Chemscore.Metal.Weighted>
-0.0000

> <Gold.Chemscore.Lipo.Weighted>
-15.9766

> <Gold.Chemscore.Internal_Hbond.Weighted>
0.0000

> <Gold.Chemscore.DEClash.Weighted>
0.0310

> <Gold.Chemscore.DEInternal.Weighted>
0.6125

> <Gold.Chemscore.Rot.Weighted>
3.8311

> <Gold.Chemscore.Internal.Correction.Weighted>
   9.000000E+99

> <Gold.Protein.RotatedTorsions>
[ 6907 6896 6895 6894 ] final  111.21 input  -60.11 | X-H torsion
[ 7974 7965 7964 7962 ] final  -15.91 input  175.53 | X-H torsion
[ 8008 7997 7996 7995 ] final  111.82 input   59.86 | X-H torsion
[ 10167 10162 10161 10158 ] final  143.43 input  -65.29 | X-H torsion
[ 10718 10713 10712 10709 ] final  -34.28 input   66.30 | X-H torsion
[ 10763 10752 10751 10750 ] final -172.93 input  -60.55 | X-H torsion
[ 11005 11000 10999 10996 ] final -178.53 input  -57.11 | X-H torsion

> <Gold.Protein.ActiveResidues>
 VAL166  LYS551  ARG553  GLY616  TRP617  ASP618  TYR619  PRO620  LYS621  CYS622 
 ASP623  PHE694  ASN695  SER759  ASP760  ASP761  ALA762  ILE779  LEU786  VAL792 
 PHE793  MET794  SER795  GLU796  ALA797  LYS798  CYS799  TRP800  GLU811  SER814 

> <Gold.Protein.RotatedAtoms>
  152.4981  133.8691  159.7288 H   0  0  0  0  0  0  0  0  0  0  0  0  # atno 6907 bound_to 6896
  150.9182  133.6904  159.2845 H   0  0  0  0  0  0  0  0  0  0  0  0  # atno 6908 bound_to 6896
  151.4290  135.1011  159.9689 H   0  0  0  0  0  0  0  0  0  0  0  0  # atno 6909 bound_to 6896
  146.2011  140.3560  142.8423 H   0  0  0  0  0  0  0  0  0  0  0  0  # atno 7974 bound_to 7965
  156.2150  140.3012  155.9818 H   0  0  0  0  0  0  0  0  0  0  0  0  # atno 8008 bound_to 7997
  155.2628  140.0430  157.3016 H   0  0  0  0  0  0  0  0  0  0  0  0  # atno 8009 bound_to 7997
  154.5754  140.2360  155.8138 H   0  0  0  0  0  0  0  0  0  0  0  0  # atno 8010 bound_to 7997
  139.4970  144.6040  151.6418 H   0  0  0  0  0  0  0  0  0  0  0  0  # atno 10167 bound_to 10162
  156.3525  130.4310  149.7692 H   0  0  0  0  0  0  0  0  0  0  0  0  # atno 10718 bound_to 10713
  154.6136  135.2867  155.0404 H   0  0  0  0  0  0  0  0  0  0  0  0  # atno 10763 bound_to 10752
  154.1625  135.6486  153.4993 H   0  0  0  0  0  0  0  0  0  0  0  0  # atno 10764 bound_to 10752
  153.0205  135.5381  154.6899 H   0  0  0  0  0  0  0  0  0  0  0  0  # atno 10765 bound_to 10752
  140.4287  134.6539  157.4701 H   0  0  0  0  0  0  0  0  0  0  0  0  # atno 11005 bound_to 11000
  144.8686  140.7241  143.6061 LP  0  0  0  0  0  0  0  0  0  0  0  0  # atno 17320 bound_to 7965
  145.3480  139.1714  143.4450 LP  0  0  0  0  0  0  0  0  0  0  0  0  # atno 17321 bound_to 7965
  140.5698  144.0129  150.6210 LP  0  0  0  0  0  0  0  0  0  0  0  0  # atno 17342 bound_to 10162
  140.3242  143.3118  152.0753 LP  0  0  0  0  0  0  0  0  0  0  0  0  # atno 17343 bound_to 10162
  156.4887  130.8075  151.3085 LP  0  0  0  0  0  0  0  0  0  0  0  0  # atno 17370 bound_to 10713
  157.7463  130.9982  150.2845 LP  0  0  0  0  0  0  0  0  0  0  0  0  # atno 17371 bound_to 10713
  140.0149  134.6634  155.9324 LP  0  0  0  0  0  0  0  0  0  0  0  0  # atno 17394 bound_to 11000
  141.1754  133.6540  156.4810 LP  0  0  0  0  0  0  0  0  0  0  0  0  # atno 17395 bound_to 11000

$$$$
