AV-unprocessed.smi:2944|AV-procd|sdf|11273|dock2
  -GOLD-   2272016163D 1   1.00000     0.00000
 Structure written by MMmdl.
 44 46  0  0  0  0  0  0  0  0  1 V2000
  151.7302  138.0977  154.7822 C   0  0  0  0  0  0  0  0  0  0  0  0
  152.3444  139.3223  155.1420 O   0  0  0  0  0  0  0  0  0  0  0  0
  151.4061  140.3715  155.3162 C   0  0  0  0  0  0  0  0  0  0  0  0
  150.5498  140.0959  156.5602 C   0  0  0  0  0  0  0  0  0  0  0  0
  151.3631  139.9109  157.7531 N   0  0  0  0  0  0  0  0  0  0  0  0
  151.5198  138.7801  158.4852 C   0  0  0  0  0  0  0  0  0  0  0  0
  150.6987  137.2752  158.0356 S   0  0  0  0  0  0  0  0  0  0  0  0
  149.1335  137.4529  158.9557 C   0  0  1  0  0  0  0  0  0  0  0  0
  148.0802  138.1172  158.0562 C   0  0  0  0  0  0  0  0  0  0  0  0
  148.6037  136.0956  159.4735 C   0  0  0  0  0  0  0  0  0  0  0  0
  149.0560  135.0761  158.9479 O   0  0  0  0  0  0  0  0  0  0  0  0
  147.7123  136.0087  160.4983 N   0  0  0  0  0  0  0  0  0  0  0  0
  147.4138  134.7167  161.1174 C   0  0  0  0  0  0  0  0  0  0  0  0
  146.4451  135.0507  162.2451 C   0  0  0  0  0  0  0  0  0  0  0  0
  146.2636  136.4700  162.0706 N   0  0  0  0  0  0  0  0  0  0  0  0
  146.9678  136.9902  161.0625 C   0  0  0  0  0  0  0  0  0  0  0  0
  146.8935  138.1746  160.7380 O   0  0  0  0  0  0  0  0  0  0  0  0
  152.3298  138.8920  159.5402 N   0  0  0  0  0  0  0  0  0  0  0  0
  152.7234  140.2136  159.4923 C   0  0  0  0  0  0  0  0  0  0  0  0
  153.5795  140.9482  160.3435 C   0  0  0  0  0  0  0  0  0  0  0  0
  153.8344  142.3126  160.0931 C   0  0  0  0  0  0  0  0  0  0  0  0
  153.2379  142.9598  158.9916 C   0  0  0  0  0  0  0  0  0  0  0  0
  152.3828  142.2450  158.1308 C   0  0  0  0  0  0  0  0  0  0  0  0
  152.1333  140.8826  158.3843 C   0  0  0  0  0  0  0  0  0  0  0  0
  152.4910  137.3246  154.6750 H   0  0  0  0  0  0  0  0  0  0  0  0
  151.2035  138.1860  153.8313 H   0  0  0  0  0  0  0  0  0  0  0  0
  151.0230  137.7712  155.5458 H   0  0  0  0  0  0  0  0  0  0  0  0
  151.9268  141.3244  155.4237 H   0  0  0  0  0  0  0  0  0  0  0  0
  150.7657  140.4489  154.4365 H   0  0  0  0  0  0  0  0  0  0  0  0
  149.8446  140.9101  156.7285 H   0  0  0  0  0  0  0  0  0  0  0  0
  149.9477  139.2002  156.4051 H   0  0  0  0  0  0  0  0  0  0  0  0
  149.3735  138.1338  159.7682 H   0  0  0  0  0  0  0  0  0  0  0  0
  147.1439  138.2780  158.5918 H   0  0  0  0  0  0  0  0  0  0  0  0
  147.8614  137.5082  157.1781 H   0  0  0  0  0  0  0  0  0  0  0  0
  148.4262  139.0902  157.7063 H   0  0  0  0  0  0  0  0  0  0  0  0
  146.9540  134.0406  160.3939 H   0  0  0  0  0  0  0  0  0  0  0  0
  148.3202  134.2457  161.5027 H   0  0  0  0  0  0  0  0  0  0  0  0
  145.4968  134.5218  162.1456 H   0  0  0  0  0  0  0  0  0  0  0  0
  146.8708  134.8399  163.2270 H   0  0  0  0  0  0  0  0  0  0  0  0
  145.6273  137.0062  162.6428 H   0  0  0  0  0  0  0  0  0  0  0  0
  154.0397  140.4617  161.1907 H   0  0  0  0  0  0  0  0  0  0  0  0
  154.4893  142.8658  160.7502 H   0  0  0  0  0  0  0  0  0  0  0  0
  153.4365  144.0057  158.8078 H   0  0  0  0  0  0  0  0  0  0  0  0
  151.9223  142.7392  157.2884 H   0  0  0  0  0  0  0  0  0  0  0  0
  1  2  1  0  0  0  0
  1 25  1  0  0  0  0
  1 26  1  0  0  0  0
  1 27  1  0  0  0  0
  2  3  1  0  0  0  0
  3  4  1  0  0  0  0
  3 28  1  0  0  0  0
  3 29  1  0  0  0  0
  4  5  1  0  0  0  0
  4 30  1  0  0  0  0
  4 31  1  0  0  0  0
  5 24  1  0  0  0  0
  5  6  1  0  0  0  0
  6  7  1  0  0  0  0
  6 18  2  0  0  0  0
  7  8  1  0  0  0  0
  8  9  1  0  0  0  0
  8 10  1  0  0  0  0
  8 32  1  0  0  0  0
  9 33  1  0  0  0  0
  9 34  1  0  0  0  0
  9 35  1  0  0  0  0
 10 11  2  0  0  0  0
 10 12  1  0  0  0  0
 12 16  1  0  0  0  0
 12 13  1  0  0  0  0
 13 14  1  0  0  0  0
 13 36  1  0  0  0  0
 13 37  1  0  0  0  0
 14 15  1  0  0  0  0
 14 38  1  0  0  0  0
 14 39  1  0  0  0  0
 15 16  1  0  0  0  0
 15 40  1  0  0  0  0
 16 17  2  0  0  0  0
 18 19  1  0  0  0  0
 19 24  2  0  0  0  0
 19 20  1  0  0  0  0
 20 21  2  0  0  0  0
 20 41  1  0  0  0  0
 21 22  1  0  0  0  0
 21 42  1  0  0  0  0
 22 23  2  0  0  0  0
 22 43  1  0  0  0  0
 23 24  1  0  0  0  0
 23 44  1  0  0  0  0
M  END
> <s_m_source_file>
AV-unprocessed.smi

> <i_m_source_file_index>
2944

> <i_lp_mmshare_version>
43012

> <i_f3d_flags>
0

> <s_epik_input>
W2NIXTFbY0hdW2NIXVtjSF1jKGMxMiluKFtDSDJdW0NIMl1PW0NIM10pYyhuMilTW0NASF0oW0NIM10pQyg9TylOM1tDSDJdW0NIMl1bTkhdQzM9Tw==

> <s_epik_cmdline>
J2VwaWtfcHl0aG9uJywgJy1waCcsICc3LjAnLCAnLXRuJywgJzgnLCAnLW1hJywgJzIwMCcsICctbWV0YWxfYmluZGluZycsICctaW1hZScsICc8aW5maWxlLm1hZT4nLCAnLW9tYWUnLCAnPG91dGZpbGUubWFlPic=

> <r_lp_tautomer_probability>
0.9999

> <r_epik_Ionization_Penalty>
0.0250226

> <r_epik_Ionization_Penalty_Charging>
0

> <r_epik_Ionization_Penalty_Neutral>
0.0250226

> <r_epik_State_Penalty>
0.0203222

> <r_epik_Charging_Adjusted_Penalty>
0.0203222

> <i_epik_Tot_Q>
0

> <i_epik_Tot_abs_Q>
0

> <r_epik_Metal_State_Penalty>
0.0194901

> <b_epik_Metal_Only>
0

> <s_lp_Force_Field>
OPLS_2005

> <r_lp_Energy>
41.7508

> <b_lp_Chiralities_Consistent>
1

> <s_lp_Variant>
AV-unprocessed.smi:2944-2

> <Gold.Version>
5.8.1

> <Gold.Id.Protein>
6NUR|6NUR_protein|mol2

> <Gold.PLP.Fitness>
53.2070

> <Gold.PLP.PLP>
-45.0617

> <Gold.PLP.part.hbond>
-3.8802

> <Gold.PLP.part.metal>
0.0000

> <Gold.PLP.part.buried>
-5.6765

> <Gold.PLP.part.nonpolar>
-35.0460

> <Gold.PLP.part.repulsive>
0.1555

> <Gold.PLP.ligand.clash>
0.0000

> <Gold.PLP.ligand.torsion>
1.4377

> <Gold.PLP.Chemscore.Hbond>
3.6037

> <Gold.PLP.Chemscore.CHOScore>
0.0000

> <Gold.PLP.Chemscore.Metal>
0.0000

> <Gold.Chemscore.Hbonds>
donor molecule, donor type, donor heavy atom, donor atom, acceptor molecule, acceptor atom, score
      P1  H  6896  6908       L1    11  1.00

> <Gold.PLP.Chemscore.Internal.Correction>
0.2096

> <Gold.Rescore>
     Score         DG    S(hbond)    S(metal)    S(lipo)     H(rot)  DE(clash)    DE(int)     intcor
     16.70     -20.30       2.93        0.00      91.82       2.24       0.00       3.59       ----

> <Gold.Chemscore.Fitness>
16.6983

> <Gold.Chemscore.DG>
-20.2953

> <Gold.Chemscore.ZeroCoef>
-5.4800

> <Gold.Chemscore.Hbond>
2.9327

> <Gold.Chemscore.Metal>
0.0000

> <Gold.Chemscore.Lipo>
91.8242

> <Gold.Chemscore.Internal_Hbond>
0.0000

> <Gold.Chemscore.DEClash>
0.0021

> <Gold.Chemscore.DEInternal>
3.5949

> <Gold.Chemscore.Rot>
2.2357

> <Gold.Chemscore.Internal.Correction>
   9.000000E+99

> <Gold.Chemscore.Hbonds>
donor molecule, donor type, donor heavy atom, donor atom, acceptor molecule, acceptor atom, score
      P1  H  6896  6908       L1    11  0.98

> <Gold.Chemscore.Hbond.Weighted>
-9.7953

> <Gold.Chemscore.Metal.Weighted>
-0.0000

> <Gold.Chemscore.Lipo.Weighted>
-10.7434

> <Gold.Chemscore.Internal_Hbond.Weighted>
0.0000

> <Gold.Chemscore.DEClash.Weighted>
0.0021

> <Gold.Chemscore.DEInternal.Weighted>
3.5949

> <Gold.Chemscore.Rot.Weighted>
5.7234

> <Gold.Chemscore.Internal.Correction.Weighted>
   9.000000E+99

> <Gold.Protein.RotatedTorsions>
[ 6907 6896 6895 6894 ] final  157.51 input  -60.11 | X-H torsion
[ 7974 7965 7964 7962 ] final -156.29 input  175.53 | X-H torsion
[ 8008 7997 7996 7995 ] final  -96.07 input   59.86 | X-H torsion
[ 10167 10162 10161 10158 ] final  -55.70 input  -65.29 | X-H torsion
[ 10718 10713 10712 10709 ] final -109.45 input   66.30 | X-H torsion
[ 10763 10752 10751 10750 ] final   87.64 input  -60.55 | X-H torsion
[ 11005 11000 10999 10996 ] final -164.99 input  -57.11 | X-H torsion

> <Gold.Protein.ActiveResidues>
 VAL166  LYS551  ARG553  GLY616  TRP617  ASP618  TYR619  PRO620  LYS621  CYS622 
 ASP623  PHE694  ASN695  SER759  ASP760  ASP761  ALA762  ILE779  LEU786  VAL792 
 PHE793  MET794  SER795  GLU796  ALA797  LYS798  CYS799  TRP800  GLU811  SER814 

> <Gold.Protein.RotatedAtoms>
  152.0141  133.3873  159.4231 H   0  0  0  0  0  0  0  0  0  0  0  0  # atno 6907 bound_to 6896
  150.6896  134.3698  159.4996 H   0  0  0  0  0  0  0  0  0  0  0  0  # atno 6908 bound_to 6896
  152.1463  134.9023  160.0601 H   0  0  0  0  0  0  0  0  0  0  0  0  # atno 6909 bound_to 6896
  144.7600  140.4130  143.5984 H   0  0  0  0  0  0  0  0  0  0  0  0  # atno 7974 bound_to 7965
  154.7696  140.0474  157.1040 H   0  0  0  0  0  0  0  0  0  0  0  0  # atno 8008 bound_to 7997
  154.9837  140.3104  155.4916 H   0  0  0  0  0  0  0  0  0  0  0  0  # atno 8009 bound_to 7997
  156.2919  140.2231  156.4938 H   0  0  0  0  0  0  0  0  0  0  0  0  # atno 8010 bound_to 7997
  140.6360  143.2482  151.5117 H   0  0  0  0  0  0  0  0  0  0  0  0  # atno 10167 bound_to 10162
  156.0538  130.5764  150.8102 H   0  0  0  0  0  0  0  0  0  0  0  0  # atno 10718 bound_to 10713
  153.1688  135.4536  154.9874 H   0  0  0  0  0  0  0  0  0  0  0  0  # atno 10763 bound_to 10752
  154.7951  135.3234  154.7688 H   0  0  0  0  0  0  0  0  0  0  0  0  # atno 10764 bound_to 10752
  153.8167  135.6950  153.4887 H   0  0  0  0  0  0  0  0  0  0  0  0  # atno 10765 bound_to 10752
  140.5807  134.5144  157.5178 H   0  0  0  0  0  0  0  0  0  0  0  0  # atno 11005 bound_to 11000
  145.6651  139.1588  143.2786 LP  0  0  0  0  0  0  0  0  0  0  0  0  # atno 17320 bound_to 7965
  146.1653  140.6728  142.9258 LP  0  0  0  0  0  0  0  0  0  0  0  0  # atno 17321 bound_to 7965
  139.5570  144.2250  152.1629 LP  0  0  0  0  0  0  0  0  0  0  0  0  # atno 17342 bound_to 10162
  140.1507  144.5117  150.6689 LP  0  0  0  0  0  0  0  0  0  0  0  0  # atno 17343 bound_to 10162
  157.5489  131.0943  150.9724 LP  0  0  0  0  0  0  0  0  0  0  0  0  # atno 17370 bound_to 10713
  156.9988  130.5592  149.5309 LP  0  0  0  0  0  0  0  0  0  0  0  0  # atno 17371 bound_to 10713
  139.9318  134.7948  156.0909 LP  0  0  0  0  0  0  0  0  0  0  0  0  # atno 17394 bound_to 11000
  141.0998  133.6681  156.2728 LP  0  0  0  0  0  0  0  0  0  0  0  0  # atno 17395 bound_to 11000

$$$$
