AV-unprocessed.smi:1389|AV-procd|sdf|5655|dock9
  -GOLD-   22720 5283D 1   1.00000     0.00000
 Structure written by MMmdl.
 52 54  0  0  0  0  0  0  0  0  4 V2000
  150.3166  135.2757  156.5521 C   0  0  0  0  0  0  0  0  0  0  0  0
  149.8222  135.3800  155.0898 C   0  0  1  0  0  0  0  0  0  0  0  0
  148.7076  134.3559  154.7402 C   0  0  0  0  0  0  0  0  0  0  0  0
  148.9073  133.0998  155.4710 N   0  5  0  0  0  0  0  0  0  0  0  0
  148.8546  131.8609  154.9126 C   0  0  0  0  0  0  0  0  0  0  0  0
  149.5529  130.8782  155.1862 O   0  0  0  0  0  0  0  0  0  0  0  0
  147.9030  131.7718  153.9680 N   0  0  0  0  0  0  0  0  0  0  0  0
  147.4967  130.6221  153.2359 C   0  0  0  0  0  0  0  0  0  0  0  0
  148.1847  129.3901  153.3749 C   0  0  0  0  0  0  0  0  0  0  0  0
  147.8122  128.2853  152.5864 C   0  0  0  0  0  0  0  0  0  0  0  0
  146.7687  128.4354  151.6565 C   0  0  0  0  0  0  0  0  0  0  0  0
  146.1443  129.6254  151.5374 N   0  3  0  0  0  0  0  0  0  0  0  0
  146.4464  130.7207  152.2789 C   0  0  0  0  0  0  0  0  0  0  0  0
  145.6985  131.8991  152.0555 N   0  0  0  0  0  0  0  0  0  0  0  0
  146.3685  133.1416  151.6893 C   0  0  0  0  0  0  0  0  0  0  0  0
  145.2578  134.0543  151.1769 C   0  0  0  0  0  0  0  0  0  0  0  0
  144.3165  133.0703  150.4887 C   0  0  0  0  0  0  0  0  0  0  0  0
  144.4265  131.8045  151.3448 C   0  0  0  0  0  0  0  0  0  0  0  0
  149.4206  136.7683  154.7005 N   0  3  0  0  0  0  0  0  0  0  0  0
  148.0980  137.2460  155.1893 C   0  0  0  0  0  0  0  0  0  0  0  0
  147.7648  138.6051  154.5541 C   0  0  0  0  0  0  0  0  0  0  0  0
  148.7924  139.5382  154.8663 O   0  0  0  0  0  0  0  0  0  0  0  0
  150.0546  139.1363  154.3474 C   0  0  0  0  0  0  0  0  0  0  0  0
  150.4666  137.7872  154.9603 C   0  0  0  0  0  0  0  0  0  0  0  0
  150.7339  134.2901  156.7672 H   0  0  0  0  0  0  0  0  0  0  0  0
  149.5252  135.4587  157.2812 H   0  0  0  0  0  0  0  0  0  0  0  0
  151.1107  135.9978  156.7440 H   0  0  0  0  0  0  0  0  0  0  0  0
  150.6772  135.1050  154.4700 H   0  0  0  0  0  0  0  0  0  0  0  0
  147.7336  134.7992  154.9508 H   0  0  0  0  0  0  0  0  0  0  0  0
  148.7160  134.1819  153.6641 H   0  0  0  0  0  0  0  0  0  0  0  0
  147.3122  132.5847  153.8709 H   0  0  0  0  0  0  0  0  0  0  0  0
  149.0092  129.2852  154.0641 H   0  0  0  0  0  0  0  0  0  0  0  0
  148.3282  127.3416  152.6854 H   0  0  0  0  0  0  0  0  0  0  0  0
  146.4191  127.6473  151.0054 H   0  0  0  0  0  0  0  0  0  0  0  0
  146.8910  133.5784  152.5410 H   0  0  0  0  0  0  0  0  0  0  0  0
  147.0928  132.9654  150.8929 H   0  0  0  0  0  0  0  0  0  0  0  0
  144.7481  134.5313  152.0155 H   0  0  0  0  0  0  0  0  0  0  0  0
  145.6229  134.8364  150.5106 H   0  0  0  0  0  0  0  0  0  0  0  0
  143.2942  133.4409  150.4095 H   0  0  0  0  0  0  0  0  0  0  0  0
  144.6781  132.8639  149.4803 H   0  0  0  0  0  0  0  0  0  0  0  0
  144.3611  130.9045  150.7319 H   0  0  0  0  0  0  0  0  0  0  0  0
  143.6175  131.7769  152.0758 H   0  0  0  0  0  0  0  0  0  0  0  0
  147.3158  136.5275  154.9432 H   0  0  0  0  0  0  0  0  0  0  0  0
  148.1116  137.3505  156.2747 H   0  0  0  0  0  0  0  0  0  0  0  0
  147.6524  138.5140  153.4724 H   0  0  0  0  0  0  0  0  0  0  0  0
  146.8179  138.9796  154.9432 H   0  0  0  0  0  0  0  0  0  0  0  0
  150.0078  139.0700  153.2591 H   0  0  0  0  0  0  0  0  0  0  0  0
  150.7948  139.8996  154.5878 H   0  0  0  0  0  0  0  0  0  0  0  0
  150.6229  137.8896  156.0350 H   0  0  0  0  0  0  0  0  0  0  0  0
  151.4147  137.4701  154.5240 H   0  0  0  0  0  0  0  0  0  0  0  0
  149.3448  136.7207  153.6934 H   0  0  0  0  0  0  0  0  0  0  0  0
  145.3920  129.7034  150.8531 H   0  0  0  0  0  0  0  0  0  0  0  0
  1  2  1  0  0  0  0
  1 25  1  0  0  0  0
  1 26  1  0  0  0  0
  1 27  1  0  0  0  0
  2  3  1  0  0  0  0
  2 19  1  0  0  0  0
  2 28  1  0  0  0  0
  3  4  1  0  0  0  0
  3 29  1  0  0  0  0
  3 30  1  0  0  0  0
  4  5  1  0  0  0  0
  5  6  2  0  0  0  0
  5  7  1  0  0  0  0
  7  8  1  0  0  0  0
  7 31  1  0  0  0  0
  8 13  1  0  0  0  0
  8  9  2  0  0  0  0
  9 10  1  0  0  0  0
  9 32  1  0  0  0  0
 10 11  2  0  0  0  0
 10 33  1  0  0  0  0
 11 12  1  0  0  0  0
 11 34  1  0  0  0  0
 12 13  2  0  0  0  0
 12 52  1  0  0  0  0
 13 14  1  0  0  0  0
 14 18  1  0  0  0  0
 14 15  1  0  0  0  0
 15 16  1  0  0  0  0
 15 35  1  0  0  0  0
 15 36  1  0  0  0  0
 16 17  1  0  0  0  0
 16 37  1  0  0  0  0
 16 38  1  0  0  0  0
 17 18  1  0  0  0  0
 17 39  1  0  0  0  0
 17 40  1  0  0  0  0
 18 41  1  0  0  0  0
 18 42  1  0  0  0  0
 19 24  1  0  0  0  0
 19 20  1  0  0  0  0
 19 51  1  0  0  0  0
 20 21  1  0  0  0  0
 20 43  1  0  0  0  0
 20 44  1  0  0  0  0
 21 22  1  0  0  0  0
 21 45  1  0  0  0  0
 21 46  1  0  0  0  0
 22 23  1  0  0  0  0
 23 24  1  0  0  0  0
 23 47  1  0  0  0  0
 23 48  1  0  0  0  0
 24 49  1  0  0  0  0
 24 50  1  0  0  0  0
M  CHG  1   4  -1
M  CHG  1  12   1
M  CHG  1  19   1
M  END
> <s_m_source_file>
AV-unprocessed.smi

> <i_m_source_file_index>
1389

> <i_lp_mmshare_version>
43012

> <i_f3d_flags>
0

> <s_epik_input>
W0NIMl0xW0NIMl1PW0NIMl1bQ0gyXU4xW0NASF0oW0NIM10pW0NIMl1bTkhdQyg9TylbTkhdYzJbY0hdW2NIXVtjSF1uYzJOM1tDSDJdW0NIMl1bQ0gyXVtDSDJdMw==

> <s_epik_cmdline>
J2VwaWtfcHl0aG9uJywgJy1waCcsICc3LjAnLCAnLXRuJywgJzgnLCAnLW1hJywgJzIwMCcsICctbWV0YWxfYmluZGluZycsICctaW1hZScsICc8aW5maWxlLm1hZT4nLCAnLW9tYWUnLCAnPG91dGZpbGUubWFlPic=

> <r_lp_tautomer_probability>
0.999994

> <r_epik_Ionization_Penalty>
8.58362

> <r_epik_Ionization_Penalty_Charging>
8.58361

> <r_epik_Ionization_Penalty_Neutral>
3.55275e-06

> <r_epik_State_Penalty>
8.57766

> <r_epik_Charging_Adjusted_Penalty>
17.1613

> <i_epik_Tot_Q>
1

> <i_epik_Tot_abs_Q>
3

> <r_epik_Metal_State_Penalty>
4.57399

> <b_epik_Metal_Only>
1

> <s_lp_Force_Field>
OPLS_2005

> <r_lp_Energy>
47.3553

> <b_lp_Chiralities_Consistent>
1

> <s_lp_Variant>
AV-unprocessed.smi:1389-10

> <Gold.Version>
5.8.1

> <Gold.Id.Protein>
6NUR|6NUR_protein|mol2

> <Gold.PLP.Fitness>
41.0898

> <Gold.PLP.PLP>
-37.5065

> <Gold.PLP.part.hbond>
-1.1943

> <Gold.PLP.part.metal>
0.0000

> <Gold.PLP.part.buried>
-5.7776

> <Gold.PLP.part.nonpolar>
-30.2710

> <Gold.PLP.part.repulsive>
0.3624

> <Gold.PLP.ligand.clash>
1.2895

> <Gold.PLP.ligand.torsion>
0.9049

> <Gold.PLP.Chemscore.Hbond>
2.0000

> <Gold.PLP.Chemscore.CHOScore>
0.0000

> <Gold.PLP.Chemscore.Metal>
0.0000

> <Gold.Chemscore.Hbonds>
donor molecule, donor type, donor heavy atom, donor atom, acceptor molecule, acceptor atom, score
      L1  H    19    51       P1  7948  2.00

> <Gold.PLP.Chemscore.Internal.Correction>
0.6825

> <Gold.Rescore>
     Score         DG    S(hbond)    S(metal)    S(lipo)     H(rot)  DE(clash)    DE(int)     intcor
     12.65     -15.28       0.94        0.00      92.51       1.63       0.18       2.45       ----

> <Gold.Chemscore.Fitness>
12.6460

> <Gold.Chemscore.DG>
-15.2780

> <Gold.Chemscore.ZeroCoef>
-5.4800

> <Gold.Chemscore.Hbond>
0.9427

> <Gold.Chemscore.Metal>
0.0000

> <Gold.Chemscore.Lipo>
92.5129

> <Gold.Chemscore.Internal_Hbond>
0.0000

> <Gold.Chemscore.DEClash>
0.1791

> <Gold.Chemscore.DEInternal>
2.4529

> <Gold.Chemscore.Rot>
1.6307

> <Gold.Chemscore.Internal.Correction>
   9.000000E+99

> <Gold.Chemscore.Hbonds>
donor molecule, donor type, donor heavy atom, donor atom, acceptor molecule, acceptor atom, score
      L1  H    19    51       P1  7948  0.94

> <Gold.Chemscore.Hbond.Weighted>
-3.1486

> <Gold.Chemscore.Metal.Weighted>
-0.0000

> <Gold.Chemscore.Lipo.Weighted>
-10.8240

> <Gold.Chemscore.Internal_Hbond.Weighted>
0.0000

> <Gold.Chemscore.DEClash.Weighted>
0.1791

> <Gold.Chemscore.DEInternal.Weighted>
2.4529

> <Gold.Chemscore.Rot.Weighted>
4.1746

> <Gold.Chemscore.Internal.Correction.Weighted>
   9.000000E+99

> <Gold.Protein.RotatedTorsions>
[ 6907 6896 6895 6894 ] final   10.49 input  -60.11 | X-H torsion
[ 7974 7965 7964 7962 ] final   66.64 input  175.53 | X-H torsion
[ 8008 7997 7996 7995 ] final  -38.76 input   59.86 | X-H torsion
[ 10167 10162 10161 10158 ] final -132.69 input  -65.29 | X-H torsion
[ 10718 10713 10712 10709 ] final -122.87 input   66.30 | X-H torsion
[ 10763 10752 10751 10750 ] final  -27.54 input  -60.55 | X-H torsion
[ 11005 11000 10999 10996 ] final   38.84 input  -57.11 | X-H torsion

> <Gold.Protein.ActiveResidues>
 VAL166  LYS551  ARG553  GLY616  TRP617  ASP618  TYR619  PRO620  LYS621  CYS622 
 ASP623  PHE694  ASN695  SER759  ASP760  ASP761  ALA762  ILE779  LEU786  VAL792 
 PHE793  MET794  SER795  GLU796  ALA797  LYS798  CYS799  TRP800  GLU811  SER814 

> <Gold.Protein.RotatedAtoms>
  151.7391  135.0858  160.0312 H   0  0  0  0  0  0  0  0  0  0  0  0  # atno 6907 bound_to 6896
  152.3491  133.6154  159.5940 H   0  0  0  0  0  0  0  0  0  0  0  0  # atno 6908 bound_to 6896
  150.7528  133.9518  159.3530 H   0  0  0  0  0  0  0  0  0  0  0  0  # atno 6909 bound_to 6896
  145.8241  139.3101  143.1026 H   0  0  0  0  0  0  0  0  0  0  0  0  # atno 7974 bound_to 7965
  154.4032  140.1569  156.2752 H   0  0  0  0  0  0  0  0  0  0  0  0  # atno 8008 bound_to 7997
  155.8918  140.3438  155.5940 H   0  0  0  0  0  0  0  0  0  0  0  0  # atno 8009 bound_to 7997
  155.7549  140.0810  157.2174 H   0  0  0  0  0  0  0  0  0  0  0  0  # atno 8010 bound_to 7997
  139.9060  143.6551  152.2585 H   0  0  0  0  0  0  0  0  0  0  0  0  # atno 10167 bound_to 10162
  156.1454  130.6496  150.9835 H   0  0  0  0  0  0  0  0  0  0  0  0  # atno 10718 bound_to 10713
  153.7338  135.6937  153.4983 H   0  0  0  0  0  0  0  0  0  0  0  0  # atno 10763 bound_to 10752
  153.2117  135.4400  155.0386 H   0  0  0  0  0  0  0  0  0  0  0  0  # atno 10764 bound_to 10752
  154.8244  135.3438  154.6866 H   0  0  0  0  0  0  0  0  0  0  0  0  # atno 10765 bound_to 10752
  140.2086  134.3782  155.8060 H   0  0  0  0  0  0  0  0  0  0  0  0  # atno 11005 bound_to 11000
  145.9642  140.8811  143.0195 LP  0  0  0  0  0  0  0  0  0  0  0  0  # atno 17320 bound_to 7965
  144.6745  140.1855  143.7401 LP  0  0  0  0  0  0  0  0  0  0  0  0  # atno 17321 bound_to 7965
  139.6984  144.7638  151.1316 LP  0  0  0  0  0  0  0  0  0  0  0  0  # atno 17342 bound_to 10162
  140.7696  143.5492  150.9224 LP  0  0  0  0  0  0  0  0  0  0  0  0  # atno 17343 bound_to 10162
  157.6612  131.0880  150.7833 LP  0  0  0  0  0  0  0  0  0  0  0  0  # atno 17370 bound_to 10713
  156.7905  130.4888  149.5385 LP  0  0  0  0  0  0  0  0  0  0  0  0  # atno 17371 bound_to 10713
  141.2226  133.7131  156.8380 LP  0  0  0  0  0  0  0  0  0  0  0  0  # atno 17394 bound_to 11000
  140.1975  134.8921  157.3131 LP  0  0  0  0  0  0  0  0  0  0  0  0  # atno 17395 bound_to 11000

$$$$
