AV-unprocessed.smi:1509|AV-procd|sdf|6093|dock5
  -GOLD-   22720 6223D 1   1.00000     0.00000
 Structure written by MMmdl.
 42 43  0  0  0  0  0  0  0  0  2 V2000
  146.6480  132.6083  153.6722 C   0  0  0  0  0  0  0  0  0  0  0  0
  146.5605  133.7923  152.6991 C   0  0  1  0  0  0  0  0  0  0  0  0
  145.5599  133.5137  151.5649 C   0  0  0  0  0  0  0  0  0  0  0  0
  145.4692  134.7232  150.6260 C   0  0  0  0  0  0  0  0  0  0  0  0
  145.1247  136.0014  151.4071 C   0  0  0  0  0  0  0  0  0  0  0  0
  146.1120  136.2476  152.4896 N   0  3  1  0  0  0  0  0  0  0  0  0
  145.8864  137.5460  153.1739 C   0  0  0  0  0  0  0  0  0  0  0  0
  146.5539  138.7185  152.4355 C   0  0  0  0  0  0  0  0  0  0  0  0
  147.6771  139.3645  153.2634 C   0  0  0  0  0  0  0  0  0  0  0  0
  148.8033  138.4559  153.4431 N   0  0  0  0  0  0  0  0  0  0  0  0
  149.9543  138.7695  154.0600 C   0  0  0  0  0  0  0  0  0  0  0  0
  150.1889  139.8854  154.5229 O   0  0  0  0  0  0  0  0  0  0  0  0
  151.0094  137.6651  154.1603 C   0  0  0  0  0  0  0  0  0  0  0  0
  152.1604  138.0902  154.9360 N   0  0  0  0  0  0  0  0  0  0  0  0
  152.2422  138.6978  156.1214 C   0  0  0  0  0  0  0  0  0  0  0  0
  153.4998  138.9191  156.4717 N   0  0  0  0  0  0  0  0  0  0  0  0
  154.2189  138.3976  155.4088 N   0  0  0  0  0  0  0  0  0  0  0  0
  153.4295  137.9037  154.4946 N   0  0  0  0  0  0  0  0  0  0  0  0
  146.1883  135.0978  153.4308 C   0  0  0  0  0  0  0  0  0  0  0  0
  145.6895  132.4213  154.1574 H   0  0  0  0  0  0  0  0  0  0  0  0
  147.3853  132.7948  154.4536 H   0  0  0  0  0  0  0  0  0  0  0  0
  146.9421  131.6951  153.1542 H   0  0  0  0  0  0  0  0  0  0  0  0
  147.5478  133.9251  152.2541 H   0  0  0  0  0  0  0  0  0  0  0  0
  145.8611  132.6292  151.0025 H   0  0  0  0  0  0  0  0  0  0  0  0
  144.5748  133.2983  151.9810 H   0  0  0  0  0  0  0  0  0  0  0  0
  146.4187  134.8561  150.1057 H   0  0  0  0  0  0  0  0  0  0  0  0
  144.7176  134.5423  149.8569 H   0  0  0  0  0  0  0  0  0  0  0  0
  145.1135  136.8464  150.7174 H   0  0  0  0  0  0  0  0  0  0  0  0
  144.1235  135.9261  151.8344 H   0  0  0  0  0  0  0  0  0  0  0  0
  144.8152  137.7478  153.2189 H   0  0  0  0  0  0  0  0  0  0  0  0
  146.2312  137.4879  154.2074 H   0  0  0  0  0  0  0  0  0  0  0  0
  146.9658  138.3850  151.4834 H   0  0  0  0  0  0  0  0  0  0  0  0
  145.7968  139.4675  152.1986 H   0  0  0  0  0  0  0  0  0  0  0  0
  148.0165  140.2904  152.7955 H   0  0  0  0  0  0  0  0  0  0  0  0
  147.3017  139.6364  154.2501 H   0  0  0  0  0  0  0  0  0  0  0  0
  148.6930  137.5162  153.0898 H   0  0  0  0  0  0  0  0  0  0  0  0
  150.5728  136.7821  154.6284 H   0  0  0  0  0  0  0  0  0  0  0  0
  151.3429  137.3704  153.1639 H   0  0  0  0  0  0  0  0  0  0  0  0
  151.3883  138.9797  156.7198 H   0  0  0  0  0  0  0  0  0  0  0  0
  145.2304  134.9835  153.9414 H   0  0  0  0  0  0  0  0  0  0  0  0
  146.9319  135.2962  154.2021 H   0  0  0  0  0  0  0  0  0  0  0  0
  147.0113  136.3172  152.0347 H   0  0  0  0  0  0  0  0  0  0  0  0
  1  2  1  0  0  0  0
  1 20  1  0  0  0  0
  1 21  1  0  0  0  0
  1 22  1  0  0  0  0
  2 19  1  0  0  0  0
  2  3  1  0  0  0  0
  2 23  1  0  0  0  0
  3  4  1  0  0  0  0
  3 24  1  0  0  0  0
  3 25  1  0  0  0  0
  4  5  1  0  0  0  0
  4 26  1  0  0  0  0
  4 27  1  0  0  0  0
  5  6  1  0  0  0  0
  5 28  1  0  0  0  0
  5 29  1  0  0  0  0
  6  7  1  0  0  0  0
  6 19  1  0  0  0  0
  6 42  1  0  0  0  0
  7  8  1  0  0  0  0
  7 30  1  0  0  0  0
  7 31  1  0  0  0  0
  8  9  1  0  0  0  0
  8 32  1  0  0  0  0
  8 33  1  0  0  0  0
  9 10  1  0  0  0  0
  9 34  1  0  0  0  0
  9 35  1  0  0  0  0
 10 11  1  0  0  0  0
 10 36  1  0  0  0  0
 11 12  2  0  0  0  0
 11 13  1  0  0  0  0
 13 14  1  0  0  0  0
 13 37  1  0  0  0  0
 13 38  1  0  0  0  0
 14 18  1  0  0  0  0
 14 15  1  0  0  0  0
 15 16  2  0  0  0  0
 15 39  1  0  0  0  0
 16 17  1  0  0  0  0
 17 18  2  0  0  0  0
 19 40  1  0  0  0  0
 19 41  1  0  0  0  0
M  CHG  1   6   1
M  END
> <s_m_source_file>
AV-unprocessed.smi

> <i_m_source_file_index>
1509

> <i_lp_mmshare_version>
43012

> <i_f3d_flags>
0

> <s_epik_input>
W0NIM11bQ0BASF0xW0NIMl1bQ0gyXVtDSDJdTihbQ0gyXTEpW0NIMl1bQ0gyXVtDSDJdW05IXUMoPU8pW0NIMl1uMltjSF1ubm4y

> <s_epik_cmdline>
J2VwaWtfcHl0aG9uJywgJy1waCcsICc3LjAnLCAnLXRuJywgJzgnLCAnLW1hJywgJzIwMCcsICctbWV0YWxfYmluZGluZycsICctaW1hZScsICc8aW5maWxlLm1hZT4nLCAnLW9tYWUnLCAnPG91dGZpbGUubWFlPic=

> <r_lp_tautomer_probability>
1

> <r_epik_Ionization_Penalty>
0.00044216

> <r_epik_Ionization_Penalty_Charging>
0.000440775

> <r_epik_Ionization_Penalty_Neutral>
1.38512e-06

> <r_epik_State_Penalty>
0.000271914

> <r_epik_Charging_Adjusted_Penalty>
0.000712689

> <i_epik_Tot_Q>
1

> <i_epik_Tot_abs_Q>
1

> <r_epik_Metal_State_Penalty>
-0

> <b_epik_Metal_Only>
0

> <s_lp_Force_Field>
OPLS_2005

> <r_lp_Energy>
20.7135

> <b_lp_Chiralities_Consistent>
1

> <s_lp_Variant>
AV-unprocessed.smi:1509-4

> <Gold.Version>
5.8.1

> <Gold.Id.Protein>
6NUR|6NUR_protein|mol2

> <Gold.PLP.Fitness>
45.5350

> <Gold.PLP.PLP>
-33.3262

> <Gold.PLP.part.hbond>
-6.1707

> <Gold.PLP.part.metal>
0.0000

> <Gold.PLP.part.buried>
-2.0148

> <Gold.PLP.part.nonpolar>
-26.1853

> <Gold.PLP.part.repulsive>
0.2175

> <Gold.PLP.ligand.clash>
0.0000

> <Gold.PLP.ligand.torsion>
0.8844

> <Gold.PLP.Chemscore.Hbond>
4.6446

> <Gold.PLP.Chemscore.CHOScore>
0.0000

> <Gold.PLP.Chemscore.Metal>
0.0000

> <Gold.Chemscore.Hbonds>
donor molecule, donor type, donor heavy atom, donor atom, acceptor molecule, acceptor atom, score
      L1  H     6    42       P1  7948  2.00
      L1  H    10    36       P1  7948  1.00
      P1  H  7989  7998       L1    12  1.00
      P1  H  7997  8008       L1    16  0.54
      P1  H  7997  8009       L1    17  0.01
      P1  H 10752 10764       L1    18  0.03

> <Gold.PLP.Chemscore.Internal.Correction>
0.0438

> <Gold.Rescore>
     Score         DG    S(hbond)    S(metal)    S(lipo)     H(rot)  DE(clash)    DE(int)     intcor
     12.06     -15.60       3.39        0.00      54.64       2.97       1.43       2.12       ----

> <Gold.Chemscore.Fitness>
12.0566

> <Gold.Chemscore.DG>
-15.6021

> <Gold.Chemscore.ZeroCoef>
-5.4800

> <Gold.Chemscore.Hbond>
3.3914

> <Gold.Chemscore.Metal>
0.0000

> <Gold.Chemscore.Lipo>
54.6405

> <Gold.Chemscore.Internal_Hbond>
0.0000

> <Gold.Chemscore.DEClash>
1.4264

> <Gold.Chemscore.DEInternal>
2.1190

> <Gold.Chemscore.Rot>
2.9680

> <Gold.Chemscore.Internal.Correction>
   9.000000E+99

> <Gold.Chemscore.Hbonds>
donor molecule, donor type, donor heavy atom, donor atom, acceptor molecule, acceptor atom, score
      L1  H     6    42       P1  7948  0.99
      L1  H    10    36       P1  7948  0.95
      P1  H  7989  7998       L1    12  0.77
      P1  H  7997  8008       L1    16  0.09
      P1  H 10752 10764       L1    18  0.01

> <Gold.Chemscore.Hbond.Weighted>
-11.3271

> <Gold.Chemscore.Metal.Weighted>
-0.0000

> <Gold.Chemscore.Lipo.Weighted>
-6.3929

> <Gold.Chemscore.Internal_Hbond.Weighted>
0.0000

> <Gold.Chemscore.DEClash.Weighted>
1.4264

> <Gold.Chemscore.DEInternal.Weighted>
2.1190

> <Gold.Chemscore.Rot.Weighted>
7.5980

> <Gold.Chemscore.Internal.Correction.Weighted>
   9.000000E+99

> <Gold.Protein.RotatedTorsions>
[ 6907 6896 6895 6894 ] final   50.53 input  -60.11 | X-H torsion
[ 7974 7965 7964 7962 ] final   81.36 input  175.53 | X-H torsion
[ 8008 7997 7996 7995 ] final  -80.16 input   59.86 | X-H torsion
[ 10167 10162 10161 10158 ] final -166.44 input  -65.29 | X-H torsion
[ 10718 10713 10712 10709 ] final   23.49 input   66.30 | X-H torsion
[ 10763 10752 10751 10750 ] final -123.03 input  -60.55 | X-H torsion
[ 11005 11000 10999 10996 ] final   19.13 input  -57.11 | X-H torsion

> <Gold.Protein.ActiveResidues>
 VAL166  LYS551  ARG553  GLY616  TRP617  ASP618  TYR619  PRO620  LYS621  CYS622 
 ASP623  PHE694  ASN695  SER759  ASP760  ASP761  ALA762  ILE779  LEU786  VAL792 
 PHE793  MET794  SER795  GLU796  ALA797  LYS798  CYS799  TRP800  GLU811  SER814 

> <Gold.Protein.RotatedAtoms>
  152.3028  134.7591  160.0353 H   0  0  0  0  0  0  0  0  0  0  0  0  # atno 6907 bound_to 6896
  151.8098  133.3375  159.3560 H   0  0  0  0  0  0  0  0  0  0  0  0  # atno 6908 bound_to 6896
  150.7282  134.5604  159.5884 H   0  0  0  0  0  0  0  0  0  0  0  0  # atno 6909 bound_to 6896
  145.6391  139.2421  143.2041 H   0  0  0  0  0  0  0  0  0  0  0  0  # atno 7974 bound_to 7965
  154.5856  140.0667  156.9166 H   0  0  0  0  0  0  0  0  0  0  0  0  # atno 8008 bound_to 7997
  155.2385  140.3343  155.4276 H   0  0  0  0  0  0  0  0  0  0  0  0  # atno 8009 bound_to 7997
  156.2220  140.1803  156.7438 H   0  0  0  0  0  0  0  0  0  0  0  0  # atno 8010 bound_to 7997
  139.6115  144.0806  152.1846 H   0  0  0  0  0  0  0  0  0  0  0  0  # atno 10167 bound_to 10162
  157.1668  130.6741  149.6063 H   0  0  0  0  0  0  0  0  0  0  0  0  # atno 10718 bound_to 10713
  154.8700  135.4112  154.2877 H   0  0  0  0  0  0  0  0  0  0  0  0  # atno 10763 bound_to 10752
  153.3759  135.7009  153.6608 H   0  0  0  0  0  0  0  0  0  0  0  0  # atno 10764 bound_to 10752
  153.5450  135.3640  155.2707 H   0  0  0  0  0  0  0  0  0  0  0  0  # atno 10765 bound_to 10752
  140.4172  134.1557  155.7670 H   0  0  0  0  0  0  0  0  0  0  0  0  # atno 11005 bound_to 11000
  146.1295  140.7204  142.9419 LP  0  0  0  0  0  0  0  0  0  0  0  0  # atno 17320 bound_to 7965
  144.7164  140.4224  143.7041 LP  0  0  0  0  0  0  0  0  0  0  0  0  # atno 17321 bound_to 7965
  140.0425  144.5996  150.7399 LP  0  0  0  0  0  0  0  0  0  0  0  0  # atno 17342 bound_to 10162
  140.7322  143.2703  151.3910 LP  0  0  0  0  0  0  0  0  0  0  0  0  # atno 17343 bound_to 10162
  155.9745  130.4693  150.6389 LP  0  0  0  0  0  0  0  0  0  0  0  0  # atno 17370 bound_to 10713
  157.4081  131.0819  151.1246 LP  0  0  0  0  0  0  0  0  0  0  0  0  # atno 17371 bound_to 10713
  141.1798  133.8437  157.1296 LP  0  0  0  0  0  0  0  0  0  0  0  0  # atno 17394 bound_to 11000
  140.0226  134.9939  157.0622 LP  0  0  0  0  0  0  0  0  0  0  0  0  # atno 17395 bound_to 11000

$$$$
