AV-unprocessed.smi:2591|AV-procd|sdf|10157|dock10
  -GOLD-   2272014173D 1   1.00000     0.00000
 Structure written by MMmdl.
 34 35  0  0  0  0  0  0  0  0  1 V2000
  157.6891  139.9639  167.5347 C   0  0  0  0  0  0  0  0  0  0  0  0
  156.7997  140.9267  166.9032 N   0  0  0  0  0  0  0  0  0  0  0  0
  157.4095  142.2463  166.8137 C   0  0  0  0  0  0  0  0  0  0  0  0
  156.4677  143.2597  166.1421 C   0  0  0  0  0  0  0  0  0  0  0  0
  156.0856  142.7789  164.8567 O   0  0  0  0  0  0  0  0  0  0  0  0
  155.4417  141.5043  164.8999 C   0  0  1  0  0  0  0  0  0  0  0  0
  155.0471  141.0988  163.4724 C   0  0  0  0  0  0  0  0  0  0  0  0
  155.3739  139.9961  163.0306 O   0  0  0  0  0  0  0  0  0  0  0  0
  154.3255  142.0069  162.7877 N   0  0  0  0  0  0  0  0  0  0  0  0
  153.8121  141.9126  161.4671 C   0  0  0  0  0  0  0  0  0  0  0  0
  153.0878  143.0420  161.0249 C   0  0  0  0  0  0  0  0  0  0  0  0
  152.5251  143.0500  159.7301 C   0  0  0  0  0  0  0  0  0  0  0  0
  151.7435  144.2534  159.2262 C   0  0  0  0  0  0  0  0  0  0  0  0
  150.4884  143.9141  158.9304 F   0  0  0  0  0  0  0  0  0  0  0  0
  151.7098  145.2164  160.1482 F   0  0  0  0  0  0  0  0  0  0  0  0
  152.3297  144.7298  158.1287 F   0  0  0  0  0  0  0  0  0  0  0  0
  152.7215  141.9206  158.9098 C   0  0  0  0  0  0  0  0  0  0  0  0
  153.4585  140.8398  159.4262 C   0  0  0  0  0  0  0  0  0  0  0  0
  153.9872  140.8321  160.6671 N   0  0  0  0  0  0  0  0  0  0  0  0
  156.3884  140.4861  165.5764 C   0  0  0  0  0  0  0  0  0  0  0  0
  157.9627  140.2907  168.5384 H   0  0  0  0  0  0  0  0  0  0  0  0
  158.6053  139.8353  166.9567 H   0  0  0  0  0  0  0  0  0  0  0  0
  157.2040  138.9913  167.6230 H   0  0  0  0  0  0  0  0  0  0  0  0
  157.6739  142.6008  167.8104 H   0  0  0  0  0  0  0  0  0  0  0  0
  158.3395  142.1869  166.2458 H   0  0  0  0  0  0  0  0  0  0  0  0
  155.5800  143.4263  166.7541 H   0  0  0  0  0  0  0  0  0  0  0  0
  156.9649  144.2230  166.0295 H   0  0  0  0  0  0  0  0  0  0  0  0
  154.5230  141.5919  165.4828 H   0  0  0  0  0  0  0  0  0  0  0  0
  154.1232  142.8682  163.2739 H   0  0  0  0  0  0  0  0  0  0  0  0
  152.9633  143.8961  161.6749 H   0  0  0  0  0  0  0  0  0  0  0  0
  152.3209  141.8795  157.9075 H   0  0  0  0  0  0  0  0  0  0  0  0
  153.6298  139.9580  158.8267 H   0  0  0  0  0  0  0  0  0  0  0  0
  157.2695  140.3334  164.9504 H   0  0  0  0  0  0  0  0  0  0  0  0
  155.8905  139.5185  165.6551 H   0  0  0  0  0  0  0  0  0  0  0  0
  1  2  1  0  0  0  0
  1 21  1  0  0  0  0
  1 22  1  0  0  0  0
  1 23  1  0  0  0  0
  2 20  1  0  0  0  0
  2  3  1  0  0  0  0
  3  4  1  0  0  0  0
  3 24  1  0  0  0  0
  3 25  1  0  0  0  0
  4  5  1  0  0  0  0
  4 26  1  0  0  0  0
  4 27  1  0  0  0  0
  5  6  1  0  0  0  0
  6  7  1  0  0  0  0
  6 20  1  0  0  0  0
  6 28  1  0  0  0  0
  7  8  2  0  0  0  0
  7  9  1  0  0  0  0
  9 10  1  0  0  0  0
  9 29  1  0  0  0  0
 10 19  1  0  0  0  0
 10 11  2  0  0  0  0
 11 12  1  0  0  0  0
 11 30  1  0  0  0  0
 12 13  1  0  0  0  0
 12 17  2  0  0  0  0
 13 14  1  0  0  0  0
 13 15  1  0  0  0  0
 13 16  1  0  0  0  0
 17 18  1  0  0  0  0
 17 31  1  0  0  0  0
 18 19  2  0  0  0  0
 18 32  1  0  0  0  0
 20 33  1  0  0  0  0
 20 34  1  0  0  0  0
M  END
> <s_m_source_file>
AV-unprocessed.smi

> <i_m_source_file_index>
2591

> <i_lp_mmshare_version>
43012

> <i_f3d_flags>
0

> <s_epik_input>
W0NIM11OMVtDSDJdW0NIMl1PW0NASF0oW0NIMl0xKUMoPU8pW05IXWMyW2NIXWMoQyhGKShGKUYpW2NIXVtjSF1uMg==

> <s_epik_cmdline>
J2VwaWtfcHl0aG9uJywgJy1waCcsICc3LjAnLCAnLXRuJywgJzgnLCAnLW1hJywgJzIwMCcsICctbWV0YWxfYmluZGluZycsICctaW1hZScsICc8aW5maWxlLm1hZT4nLCAnLW9tYWUnLCAnPG91dGZpbGUubWFlPic=

> <r_epik_Ionization_Penalty>
0.526245

> <r_epik_Ionization_Penalty_Charging>
0

> <r_epik_Ionization_Penalty_Neutral>
0.526245

> <r_epik_State_Penalty>
0.534659

> <r_epik_Charging_Adjusted_Penalty>
0.534659

> <i_epik_Tot_Q>
0

> <i_epik_Tot_abs_Q>
0

> <r_epik_Metal_State_Penalty>
0.534657

> <b_epik_Metal_Only>
0

> <s_lp_Force_Field>
OPLS_2005

> <r_lp_Energy>
21.9247

> <b_lp_Chiralities_Consistent>
1

> <s_lp_Variant>
AV-unprocessed.smi:2591-5

> <Gold.Version>
5.8.1

> <Gold.Id.Protein>
6NUR|6NUR_protein|mol2

> <Gold.PLP.Fitness>
41.6232

> <Gold.PLP.PLP>
-41.8437

> <Gold.PLP.part.hbond>
-2.0000

> <Gold.PLP.part.metal>
0.0000

> <Gold.PLP.part.buried>
-4.7776

> <Gold.PLP.part.nonpolar>
-34.2496

> <Gold.PLP.part.repulsive>
0.0256

> <Gold.PLP.ligand.clash>
1.1064

> <Gold.PLP.ligand.torsion>
0.1001

> <Gold.PLP.Chemscore.Hbond>
0.0000

> <Gold.PLP.Chemscore.CHOScore>
0.0000

> <Gold.PLP.Chemscore.Metal>
0.0000

> <Gold.PLP.Chemscore.Internal.Correction>
1.0861

> <Gold.Rescore>
     Score         DG    S(hbond)    S(metal)    S(lipo)     H(rot)  DE(clash)    DE(int)     intcor
      9.96     -11.99       0.00        0.00      77.51       1.00       0.66       1.36       ----

> <Gold.Chemscore.Fitness>
9.9640

> <Gold.Chemscore.DG>
-11.9883

> <Gold.Chemscore.ZeroCoef>
-5.4800

> <Gold.Chemscore.Hbond>
0.0000

> <Gold.Chemscore.Metal>
0.0000

> <Gold.Chemscore.Lipo>
77.5068

> <Gold.Chemscore.Internal_Hbond>
0.0000

> <Gold.Chemscore.DEClash>
0.6594

> <Gold.Chemscore.DEInternal>
1.3649

> <Gold.Chemscore.Rot>
1.0000

> <Gold.Chemscore.Internal.Correction>
   9.000000E+99

> <Gold.Chemscore.Hbond.Weighted>
-0.0000

> <Gold.Chemscore.Metal.Weighted>
-0.0000

> <Gold.Chemscore.Lipo.Weighted>
-9.0683

> <Gold.Chemscore.Internal_Hbond.Weighted>
0.0000

> <Gold.Chemscore.DEClash.Weighted>
0.6594

> <Gold.Chemscore.DEInternal.Weighted>
1.3649

> <Gold.Chemscore.Rot.Weighted>
2.5600

> <Gold.Chemscore.Internal.Correction.Weighted>
   9.000000E+99

> <Gold.Protein.RotatedTorsions>
[ 6907 6896 6895 6894 ] final  -15.68 input  -60.11 | X-H torsion
[ 7974 7965 7964 7962 ] final  103.91 input  175.53 | X-H torsion
[ 8008 7997 7996 7995 ] final   40.66 input   59.86 | X-H torsion
[ 10167 10162 10161 10158 ] final  163.70 input  -65.29 | X-H torsion
[ 10718 10713 10712 10709 ] final   10.89 input   66.30 | X-H torsion
[ 10763 10752 10751 10750 ] final   20.47 input  -60.55 | X-H torsion
[ 11005 11000 10999 10996 ] final  -92.89 input  -57.11 | X-H torsion

> <Gold.Protein.ActiveResidues>
 VAL166  LYS551  ARG553  GLY616  TRP617  ASP618  TYR619  PRO620  LYS621  CYS622 
 ASP623  PHE694  ASN695  SER759  ASP760  ASP761  ALA762  ILE779  LEU786  VAL792 
 PHE793  MET794  SER795  GLU796  ALA797  LYS798  CYS799  TRP800  GLU811  SER814 

> <Gold.Protein.RotatedAtoms>
  151.3202  135.0816  159.9302 H   0  0  0  0  0  0  0  0  0  0  0  0  # atno 6907 bound_to 6896
  152.5258  133.9647  159.7744 H   0  0  0  0  0  0  0  0  0  0  0  0  # atno 6908 bound_to 6896
  150.9966  133.6044  159.2731 H   0  0  0  0  0  0  0  0  0  0  0  0  # atno 6909 bound_to 6896
  145.3398  139.2465  143.3616 H   0  0  0  0  0  0  0  0  0  0  0  0  # atno 7974 bound_to 7965
  155.2568  140.3356  155.4277 H   0  0  0  0  0  0  0  0  0  0  0  0  # atno 8008 bound_to 7997
  156.2192  140.1802  156.7561 H   0  0  0  0  0  0  0  0  0  0  0  0  # atno 8009 bound_to 7997
  154.5799  140.0655  156.9073 H   0  0  0  0  0  0  0  0  0  0  0  0  # atno 8010 bound_to 7997
  139.4878  144.4310  151.9070 H   0  0  0  0  0  0  0  0  0  0  0  0  # atno 10167 bound_to 10162
  156.9875  130.6030  149.5682 H   0  0  0  0  0  0  0  0  0  0  0  0  # atno 10718 bound_to 10713
  153.1075  135.6688  153.9560 H   0  0  0  0  0  0  0  0  0  0  0  0  # atno 10763 bound_to 10752
  153.9113  135.3025  155.3450 H   0  0  0  0  0  0  0  0  0  0  0  0  # atno 10764 bound_to 10752
  154.7496  135.5041  153.9341 H   0  0  0  0  0  0  0  0  0  0  0  0  # atno 10765 bound_to 10752
  141.1511  133.7851  157.0084 H   0  0  0  0  0  0  0  0  0  0  0  0  # atno 11005 bound_to 11000
  146.3012  140.3992  142.8703 LP  0  0  0  0  0  0  0  0  0  0  0  0  # atno 17320 bound_to 7965
  144.8799  140.7387  143.5993 LP  0  0  0  0  0  0  0  0  0  0  0  0  # atno 17321 bound_to 7965
  140.3758  144.2799  150.5914 LP  0  0  0  0  0  0  0  0  0  0  0  0  # atno 17342 bound_to 10162
  140.5278  143.2250  151.8287 LP  0  0  0  0  0  0  0  0  0  0  0  0  # atno 17343 bound_to 10162
  156.0220  130.5314  150.8301 LP  0  0  0  0  0  0  0  0  0  0  0  0  # atno 17370 bound_to 10713
  157.5482  131.0943  150.9733 LP  0  0  0  0  0  0  0  0  0  0  0  0  # atno 17371 bound_to 10713
  140.0894  134.9601  157.1752 LP  0  0  0  0  0  0  0  0  0  0  0  0  # atno 17394 bound_to 11000
  140.3467  134.2644  155.7204 LP  0  0  0  0  0  0  0  0  0  0  0  0  # atno 17395 bound_to 11000

$$$$
