AV-unprocessed.smi:2986|AV-procd|sdf|11384|dock10
  -GOLD-   2272016313D 1   1.00000     0.00000
 Structure written by MMmdl.
 42 44  0  0  0  0  0  0  0  0  3 V2000
  152.8342  138.6875  154.7007 C   0  0  0  0  0  0  0  0  0  0  0  0
  152.9803  139.3902  155.9219 O   0  0  0  0  0  0  0  0  0  0  0  0
  152.3417  138.7354  157.0063 C   0  0  0  0  0  0  0  0  0  0  0  0
  152.0931  139.7325  158.1470 C   0  0  0  0  0  0  0  0  0  0  0  0
  151.5979  141.0272  157.6569 N   0  0  0  0  0  0  0  0  0  0  0  0
  150.8362  141.3201  156.5662 C   0  0  0  0  0  0  0  0  0  0  0  0
  150.2103  140.1654  155.3900 S   0  0  0  0  0  0  0  0  0  0  0  0
  149.2034  141.1460  154.2436 C   0  0  0  0  0  0  0  0  0  0  0  0
  147.9452  141.7058  154.9081 C   0  0  0  0  0  0  0  0  0  0  0  0
  147.8326  141.6305  156.1325 O   0  0  0  0  0  0  0  0  0  0  0  0
  147.0860  142.2353  154.0038 N   0  5  0  0  0  0  0  0  0  0  0  0
  146.0810  143.0197  154.4209 C   0  0  0  0  0  0  0  0  0  0  0  0
  145.3202  143.9055  153.6097 C   0  0  0  0  0  0  0  0  0  0  0  0
  144.4457  144.4670  154.4964 C   0  0  0  0  0  0  0  0  0  0  0  0
  143.3547  145.4709  154.3471 C   0  0  0  0  0  0  0  0  0  0  0  0
  144.6596  143.9751  155.7462 O   0  0  0  0  0  0  0  0  0  0  0  0
  145.7125  143.0540  155.6906 N   0  0  0  0  0  0  0  0  0  0  0  0
  150.6490  142.6685  156.5423 N   0  3  0  0  0  0  0  0  0  0  0  0
  151.3057  143.2496  157.6280 C   0  0  0  0  0  0  0  0  0  0  0  0
  151.4083  144.5797  158.0237 C   0  0  0  0  0  0  0  0  0  0  0  0
  152.1653  144.8379  159.1853 C   0  0  0  0  0  0  0  0  0  0  0  0
  152.7842  143.7953  159.9051 C   0  0  0  0  0  0  0  0  0  0  0  0
  152.6712  142.4503  159.4962 C   0  0  0  0  0  0  0  0  0  0  0  0
  151.9201  142.2022  158.3473 C   0  0  0  0  0  0  0  0  0  0  0  0
  153.3436  139.2291  153.9037 H   0  0  0  0  0  0  0  0  0  0  0  0
  151.7832  138.5922  154.4244 H   0  0  0  0  0  0  0  0  0  0  0  0
  153.2720  137.6904  154.7639 H   0  0  0  0  0  0  0  0  0  0  0  0
  151.3938  138.3061  156.6772 H   0  0  0  0  0  0  0  0  0  0  0  0
  152.9643  137.9141  157.3641 H   0  0  0  0  0  0  0  0  0  0  0  0
  151.3481  139.3324  158.8352 H   0  0  0  0  0  0  0  0  0  0  0  0
  152.9973  139.8908  158.7344 H   0  0  0  0  0  0  0  0  0  0  0  0
  149.8202  141.9406  153.8194 H   0  0  0  0  0  0  0  0  0  0  0  0
  148.9016  140.5081  153.4125 H   0  0  0  0  0  0  0  0  0  0  0  0
  145.4002  144.0933  152.5495 H   0  0  0  0  0  0  0  0  0  0  0  0
  143.4507  146.0118  153.4054 H   0  0  0  0  0  0  0  0  0  0  0  0
  143.3829  146.1983  155.1585 H   0  0  0  0  0  0  0  0  0  0  0  0
  142.3794  144.9844  154.3607 H   0  0  0  0  0  0  0  0  0  0  0  0
  150.9368  145.3799  157.4721 H   0  0  0  0  0  0  0  0  0  0  0  0
  152.2754  145.8559  159.5302 H   0  0  0  0  0  0  0  0  0  0  0  0
  153.3594  144.0314  160.7889 H   0  0  0  0  0  0  0  0  0  0  0  0
  153.1550  141.6608  160.0524 H   0  0  0  0  0  0  0  0  0  0  0  0
  150.1131  143.1508  155.8325 H   0  0  0  0  0  0  0  0  0  0  0  0
  1  2  1  0  0  0  0
  1 25  1  0  0  0  0
  1 26  1  0  0  0  0
  1 27  1  0  0  0  0
  2  3  1  0  0  0  0
  3  4  1  0  0  0  0
  3 28  1  0  0  0  0
  3 29  1  0  0  0  0
  4  5  1  0  0  0  0
  4 30  1  0  0  0  0
  4 31  1  0  0  0  0
  5 24  1  0  0  0  0
  5  6  1  0  0  0  0
  6  7  1  0  0  0  0
  6 18  2  0  0  0  0
  7  8  1  0  0  0  0
  8  9  1  0  0  0  0
  8 32  1  0  0  0  0
  8 33  1  0  0  0  0
  9 10  2  0  0  0  0
  9 11  1  0  0  0  0
 11 12  1  0  0  0  0
 12 17  2  0  0  0  0
 12 13  1  0  0  0  0
 13 14  2  0  0  0  0
 13 34  1  0  0  0  0
 14 15  1  0  0  0  0
 14 16  1  0  0  0  0
 15 35  1  0  0  0  0
 15 36  1  0  0  0  0
 15 37  1  0  0  0  0
 16 17  1  0  0  0  0
 18 19  1  0  0  0  0
 18 42  1  0  0  0  0
 19 24  2  0  0  0  0
 19 20  1  0  0  0  0
 20 21  2  0  0  0  0
 20 38  1  0  0  0  0
 21 22  1  0  0  0  0
 21 39  1  0  0  0  0
 22 23  2  0  0  0  0
 22 40  1  0  0  0  0
 23 24  1  0  0  0  0
 23 41  1  0  0  0  0
M  CHG  1  11  -1
M  CHG  1  18   1
M  END
> <s_m_source_file>
AV-unprocessed.smi

> <i_m_source_file_index>
2986

> <i_lp_mmshare_version>
43012

> <i_f3d_flags>
0

> <s_epik_input>
W2NIXTFbY0hdW2NIXVtjSF1jKGMxMiluKFtDSDJdW0NIMl1PW0NIM10pYyhuMilTW0NIMl1DKD1PKVtOSF1jM1tjSF1jKFtDSDNdKW9uMw==

> <s_epik_cmdline>
J2VwaWtfcHl0aG9uJywgJy1waCcsICc3LjAnLCAnLXRuJywgJzgnLCAnLW1hJywgJzIwMCcsICctbWV0YWxfYmluZGluZycsICctaW1hZScsICc8aW5maWxlLm1hZT4nLCAnLW9tYWUnLCAnPG91dGZpbGUubWFlPic=

> <r_epik_Ionization_Penalty>
5.85337

> <r_epik_Ionization_Penalty_Charging>
5.85335

> <r_epik_Ionization_Penalty_Neutral>
1.96301e-05

> <r_epik_State_Penalty>
6.06575

> <r_epik_Charging_Adjusted_Penalty>
11.9191

> <i_epik_Tot_Q>
0

> <i_epik_Tot_abs_Q>
2

> <r_epik_Metal_State_Penalty>
2.64129

> <b_epik_Metal_Only>
1

> <s_lp_Force_Field>
OPLS_2005

> <r_lp_Energy>
5.16942

> <b_lp_Chiralities_Consistent>
1

> <s_lp_Variant>
AV-unprocessed.smi:2986-4

> <Gold.Version>
5.8.1

> <Gold.Id.Protein>
6NUR|6NUR_protein|mol2

> <Gold.PLP.Fitness>
61.0364

> <Gold.PLP.PLP>
-54.4987

> <Gold.PLP.part.hbond>
-2.0000

> <Gold.PLP.part.metal>
0.0000

> <Gold.PLP.part.buried>
-6.8420

> <Gold.PLP.part.nonpolar>
-47.1835

> <Gold.PLP.part.repulsive>
0.6543

> <Gold.PLP.ligand.clash>
0.0000

> <Gold.PLP.ligand.torsion>
0.7769

> <Gold.PLP.Chemscore.Hbond>
2.6000

> <Gold.PLP.Chemscore.CHOScore>
0.0000

> <Gold.PLP.Chemscore.Metal>
0.0000

> <Gold.Chemscore.Hbonds>
donor molecule, donor type, donor heavy atom, donor atom, acceptor molecule, acceptor atom, score
      L1  H    18    42       P1  8028  1.60
      P1  H  7997  8009       L1     2  1.00

> <Gold.PLP.Chemscore.Internal.Correction>
0.2915

> <Gold.Rescore>
     Score         DG    S(hbond)    S(metal)    S(lipo)     H(rot)  DE(clash)    DE(int)     intcor
     16.85     -20.09       1.67        0.00     126.80       2.27       0.04       3.20       ----

> <Gold.Chemscore.Fitness>
16.8519

> <Gold.Chemscore.DG>
-20.0882

> <Gold.Chemscore.ZeroCoef>
-5.4800

> <Gold.Chemscore.Hbond>
1.6748

> <Gold.Chemscore.Metal>
0.0000

> <Gold.Chemscore.Lipo>
126.7957

> <Gold.Chemscore.Internal_Hbond>
0.0000

> <Gold.Chemscore.DEClash>
0.0356

> <Gold.Chemscore.DEInternal>
3.2007

> <Gold.Chemscore.Rot>
2.2738

> <Gold.Chemscore.Internal.Correction>
   9.000000E+99

> <Gold.Chemscore.Hbonds>
donor molecule, donor type, donor heavy atom, donor atom, acceptor molecule, acceptor atom, score
      L1  H    18    42       P1  8028  0.77
      P1  H  7997  8009       L1     2  0.83

> <Gold.Chemscore.Hbond.Weighted>
-5.5940

> <Gold.Chemscore.Metal.Weighted>
-0.0000

> <Gold.Chemscore.Lipo.Weighted>
-14.8351

> <Gold.Chemscore.Internal_Hbond.Weighted>
0.0000

> <Gold.Chemscore.DEClash.Weighted>
0.0356

> <Gold.Chemscore.DEInternal.Weighted>
3.2007

> <Gold.Chemscore.Rot.Weighted>
5.8209

> <Gold.Chemscore.Internal.Correction.Weighted>
   9.000000E+99

> <Gold.Protein.RotatedTorsions>
[ 6907 6896 6895 6894 ] final -116.44 input  -60.11 | X-H torsion
[ 7974 7965 7964 7962 ] final   66.20 input  175.53 | X-H torsion
[ 8008 7997 7996 7995 ] final -164.03 input   59.86 | X-H torsion
[ 10167 10162 10161 10158 ] final -148.65 input  -65.29 | X-H torsion
[ 10718 10713 10712 10709 ] final   90.50 input   66.30 | X-H torsion
[ 10763 10752 10751 10750 ] final  176.94 input  -60.55 | X-H torsion
[ 11005 11000 10999 10996 ] final  -55.93 input  -57.11 | X-H torsion

> <Gold.Protein.ActiveResidues>
 VAL166  LYS551  ARG553  GLY616  TRP617  ASP618  TYR619  PRO620  LYS621  CYS622 
 ASP623  PHE694  ASN695  SER759  ASP760  ASP761  ALA762  ILE779  LEU786  VAL792 
 PHE793  MET794  SER795  GLU796  ALA797  LYS798  CYS799  TRP800  GLU811  SER814 

> <Gold.Protein.RotatedAtoms>
  150.8056  133.8516  159.3206 H   0  0  0  0  0  0  0  0  0  0  0  0  # atno 6907 bound_to 6896
  151.6316  135.1020  160.0132 H   0  0  0  0  0  0  0  0  0  0  0  0  # atno 6908 bound_to 6896
  152.4146  133.6978  159.6463 H   0  0  0  0  0  0  0  0  0  0  0  0  # atno 6909 bound_to 6896
  145.8294  139.3130  143.0996 H   0  0  0  0  0  0  0  0  0  0  0  0  # atno 7974 bound_to 7965
  155.8298  140.0932  157.1799 H   0  0  0  0  0  0  0  0  0  0  0  0  # atno 8008 bound_to 7997
  154.3979  140.1421  156.3660 H   0  0  0  0  0  0  0  0  0  0  0  0  # atno 8009 bound_to 7997
  155.8178  140.3447  155.5498 H   0  0  0  0  0  0  0  0  0  0  0  0  # atno 8010 bound_to 7997
  139.7513  143.8514  152.2587 H   0  0  0  0  0  0  0  0  0  0  0  0  # atno 10167 bound_to 10162
  157.6959  131.0373  150.3586 H   0  0  0  0  0  0  0  0  0  0  0  0  # atno 10718 bound_to 10713
  154.4878  135.2777  155.1520 H   0  0  0  0  0  0  0  0  0  0  0  0  # atno 10763 bound_to 10752
  154.3204  135.6211  153.5509 H   0  0  0  0  0  0  0  0  0  0  0  0  # atno 10764 bound_to 10752
  152.9884  135.5741  154.5293 H   0  0  0  0  0  0  0  0  0  0  0  0  # atno 10765 bound_to 10752
  141.1097  133.6611  156.4543 H   0  0  0  0  0  0  0  0  0  0  0  0  # atno 11005 bound_to 11000
  145.9587  140.8852  143.0222 LP  0  0  0  0  0  0  0  0  0  0  0  0  # atno 17320 bound_to 7965
  144.6741  140.1782  143.7408 LP  0  0  0  0  0  0  0  0  0  0  0  0  # atno 17321 bound_to 7965
  139.8493  144.7172  150.9233 LP  0  0  0  0  0  0  0  0  0  0  0  0  # atno 17342 bound_to 10162
  140.7798  143.3913  151.1305 LP  0  0  0  0  0  0  0  0  0  0  0  0  # atno 17343 bound_to 10162
  156.4025  130.3918  149.6949 LP  0  0  0  0  0  0  0  0  0  0  0  0  # atno 17370 bound_to 10713
  156.4261  130.7792  151.2811 LP  0  0  0  0  0  0  0  0  0  0  0  0  # atno 17371 bound_to 10713
  140.4809  134.6665  157.5170 LP  0  0  0  0  0  0  0  0  0  0  0  0  # atno 17394 bound_to 11000
  139.9984  134.6875  155.9571 LP  0  0  0  0  0  0  0  0  0  0  0  0  # atno 17395 bound_to 11000

$$$$
