AV-unprocessed.smi:3072|AV-procd|sdf|11717|dock2
  -GOLD-   2272017123D 1   1.00000     0.00000
 Structure written by MMmdl.
 25 26  0  0  0  0  0  0  0  0  2 V2000
  151.8557  137.8931  155.2520 C   0  0  0  0  0  0  0  0  0  0  0  0
  151.4151  136.9805  154.4008 N   0  0  0  0  0  0  0  0  0  0  0  0
  150.4511  137.6223  153.7162 N   0  0  0  0  0  0  0  0  0  0  0  0
  150.2807  138.9236  154.1256 C   0  0  0  0  0  0  0  0  0  0  0  0
  151.1832  139.1453  155.1299 C   0  0  0  0  0  0  0  0  0  0  0  0
  151.4304  140.3995  155.9286 C   0  0  2  0  0  0  0  0  0  0  0  0
  151.4218  140.1138  157.4429 C   0  0  0  0  0  0  0  0  0  0  0  0
  151.6320  141.4121  158.2380 C   0  0  0  0  0  0  0  0  0  0  0  0
  150.5980  142.4769  157.8365 C   0  0  0  0  0  0  0  0  0  0  0  0
  150.6355  142.7175  156.3778 N   0  3  0  0  0  0  0  0  0  0  0  0
  150.3966  141.4918  155.5845 C   0  0  0  0  0  0  0  0  0  0  0  0
  149.9261  137.1655  152.9838 H   0  0  0  0  0  0  0  0  0  0  0  0
  152.6508  137.6230  155.9314 H   0  0  0  0  0  0  0  0  0  0  0  0
  149.5445  139.5726  153.6747 H   0  0  0  0  0  0  0  0  0  0  0  0
  152.4168  140.7925  155.6764 H   0  0  0  0  0  0  0  0  0  0  0  0
  150.4729  139.6612  157.7344 H   0  0  0  0  0  0  0  0  0  0  0  0
  152.2010  139.3937  157.6956 H   0  0  0  0  0  0  0  0  0  0  0  0
  151.5641  141.2098  159.3072 H   0  0  0  0  0  0  0  0  0  0  0  0
  152.6386  141.7926  158.0588 H   0  0  0  0  0  0  0  0  0  0  0  0
  149.5944  142.1591  158.1229 H   0  0  0  0  0  0  0  0  0  0  0  0
  150.7968  143.4136  158.3577 H   0  0  0  0  0  0  0  0  0  0  0  0
  149.9337  143.4039  156.1402 H   0  0  0  0  0  0  0  0  0  0  0  0
  150.4502  141.7449  154.5252 H   0  0  0  0  0  0  0  0  0  0  0  0
  149.3825  141.1383  155.7764 H   0  0  0  0  0  0  0  0  0  0  0  0
  151.5450  143.0843  156.1360 H   0  0  0  0  0  0  0  0  0  0  0  0
  1  5  1  0  0  0  0
  1  2  2  0  0  0  0
  1 13  1  0  0  0  0
  2  3  1  0  0  0  0
  3 12  1  0  0  0  0
  3  4  1  0  0  0  0
  4  5  2  0  0  0  0
  4 14  1  0  0  0  0
  5  6  1  0  0  0  0
  6 11  1  0  0  0  0
  6  7  1  0  0  0  0
  6 15  1  0  0  0  0
  7  8  1  0  0  0  0
  7 16  1  0  0  0  0
  7 17  1  0  0  0  0
  8  9  1  0  0  0  0
  8 18  1  0  0  0  0
  8 19  1  0  0  0  0
  9 10  1  0  0  0  0
  9 20  1  0  0  0  0
  9 21  1  0  0  0  0
 10 11  1  0  0  0  0
 10 22  1  0  0  0  0
 10 25  1  0  0  0  0
 11 23  1  0  0  0  0
 11 24  1  0  0  0  0
M  CHG  1  10   1
M  END
> <s_m_source_file>
AV-unprocessed.smi

> <i_m_source_file_index>
3072

> <i_lp_mmshare_version>
43012

> <i_f3d_flags>
0

> <s_epik_input>
W2NIXTFbbkhdbltjSF1jMVtDQEBIXTJbQ0gyXVtDSDJdW0NIMl1bTkhdW0NIMl0y

> <s_epik_cmdline>
J2VwaWtfcHl0aG9uJywgJy1waCcsICc3LjAnLCAnLXRuJywgJzgnLCAnLW1hJywgJzIwMCcsICctbWV0YWxfYmluZGluZycsICctaW1hZScsICc8aW5maWxlLm1hZT4nLCAnLW9tYWUnLCAnPG91dGZpbGUubWFlPic=

> <r_lp_tautomer_probability>
1

> <r_epik_Ionization_Penalty>
0.000160186

> <r_epik_Ionization_Penalty_Charging>
0.000157527

> <r_epik_Ionization_Penalty_Neutral>
2.65916e-06

> <r_epik_State_Penalty>
-0

> <r_epik_Charging_Adjusted_Penalty>
0.000157527

> <i_epik_Tot_Q>
1

> <i_epik_Tot_abs_Q>
1

> <r_epik_Metal_State_Penalty>
-0

> <b_epik_Metal_Only>
0

> <s_lp_Force_Field>
OPLS_2005

> <r_lp_Energy>
12.3326

> <b_lp_Chiralities_Consistent>
1

> <s_lp_Variant>
AV-unprocessed.smi:3072-1

> <Gold.Version>
5.8.1

> <Gold.Id.Protein>
6NUR|6NUR_protein|mol2

> <Gold.PLP.Fitness>
37.0379

> <Gold.PLP.PLP>
-23.2975

> <Gold.PLP.part.hbond>
-4.0000

> <Gold.PLP.part.metal>
0.0000

> <Gold.PLP.part.buried>
-2.5160

> <Gold.PLP.part.nonpolar>
-16.8736

> <Gold.PLP.part.repulsive>
0.5508

> <Gold.PLP.ligand.clash>
0.0000

> <Gold.PLP.ligand.torsion>
0.1148

> <Gold.PLP.Chemscore.Hbond>
3.9000

> <Gold.PLP.Chemscore.CHOScore>
0.7526

> <Gold.PLP.Chemscore.Metal>
0.0000

> <Gold.Chemscore.Hbonds>
donor molecule, donor type, donor heavy atom, donor atom, acceptor molecule, acceptor atom, score
      L1  H     3    12       P1  7948  0.90
      L1  H    10    22       P1  8028  2.00
      P1  H 10752 10764       L1     2  1.00
      L1  C     4    14       P1  7957  0.74

> <Gold.PLP.Chemscore.Internal.Correction>
0.0123

> <Gold.Rescore>
     Score         DG    S(hbond)    S(metal)    S(lipo)     H(rot)  DE(clash)    DE(int)     intcor
     17.41     -17.52       2.31        0.00      58.76       1.00       0.08       0.03       ----

> <Gold.Chemscore.Fitness>
17.4110

> <Gold.Chemscore.DG>
-17.5192

> <Gold.Chemscore.ZeroCoef>
-5.4800

> <Gold.Chemscore.Hbond>
2.3126

> <Gold.Chemscore.Metal>
0.0000

> <Gold.Chemscore.Lipo>
58.7627

> <Gold.Chemscore.Internal_Hbond>
0.0000

> <Gold.Chemscore.DEClash>
0.0812

> <Gold.Chemscore.DEInternal>
0.0270

> <Gold.Chemscore.Rot>
1.0000

> <Gold.Chemscore.Internal.Correction>
   9.000000E+99

> <Gold.Chemscore.Hbonds>
donor molecule, donor type, donor heavy atom, donor atom, acceptor molecule, acceptor atom, score
      L1  H     3    12       P1  7948  0.18
      L1  H    10    22       P1  8028  1.00
      P1  H 10752 10764       L1     2  0.42

> <Gold.Chemscore.Hbond.Weighted>
-7.7240

> <Gold.Chemscore.Metal.Weighted>
-0.0000

> <Gold.Chemscore.Lipo.Weighted>
-6.8752

> <Gold.Chemscore.Internal_Hbond.Weighted>
0.0000

> <Gold.Chemscore.DEClash.Weighted>
0.0812

> <Gold.Chemscore.DEInternal.Weighted>
0.0270

> <Gold.Chemscore.Rot.Weighted>
2.5600

> <Gold.Chemscore.Internal.Correction.Weighted>
   9.000000E+99

> <Gold.Protein.RotatedTorsions>
[ 6907 6896 6895 6894 ] final   37.62 input  -60.11 | X-H torsion
[ 7974 7965 7964 7962 ] final   80.48 input  175.53 | X-H torsion
[ 8008 7997 7996 7995 ] final -125.23 input   59.86 | X-H torsion
[ 10167 10162 10161 10158 ] final   62.08 input  -65.29 | X-H torsion
[ 10718 10713 10712 10709 ] final   51.55 input   66.30 | X-H torsion
[ 10763 10752 10751 10750 ] final  -78.16 input  -60.55 | X-H torsion
[ 11005 11000 10999 10996 ] final -116.67 input  -57.11 | X-H torsion

> <Gold.Protein.ActiveResidues>
 VAL166  LYS551  ARG553  GLY616  TRP617  ASP618  TYR619  PRO620  LYS621  CYS622 
 ASP623  PHE694  ASN695  SER759  ASP760  ASP761  ALA762  ILE779  LEU786  VAL792 
 PHE793  MET794  SER795  GLU796  ALA797  LYS798  CYS799  TRP800  GLU811  SER814 

> <Gold.Protein.RotatedAtoms>
  152.1456  134.9028  160.0550 H   0  0  0  0  0  0  0  0  0  0  0  0  # atno 6907 bound_to 6896
  152.0080  133.3845  159.4216 H   0  0  0  0  0  0  0  0  0  0  0  0  # atno 6908 bound_to 6896
  150.6870  134.3684  159.5025 H   0  0  0  0  0  0  0  0  0  0  0  0  # atno 6909 bound_to 6896
  145.6507  139.2447  143.1978 H   0  0  0  0  0  0  0  0  0  0  0  0  # atno 7974 bound_to 7965
  155.2099  140.0418  157.2931 H   0  0  0  0  0  0  0  0  0  0  0  0  # atno 8008 bound_to 7997
  154.6018  140.2454  155.7754 H   0  0  0  0  0  0  0  0  0  0  0  0  # atno 8009 bound_to 7997
  156.2326  140.2933  156.0236 H   0  0  0  0  0  0  0  0  0  0  0  0  # atno 8010 bound_to 7997
  140.1478  144.4492  150.6776 H   0  0  0  0  0  0  0  0  0  0  0  0  # atno 10167 bound_to 10162
  157.4991  130.8426  149.8295 H   0  0  0  0  0  0  0  0  0  0  0  0  # atno 10718 bound_to 10713
  154.5222  135.5739  153.6690 H   0  0  0  0  0  0  0  0  0  0  0  0  # atno 10763 bound_to 10752
  152.9920  135.6184  154.2739 H   0  0  0  0  0  0  0  0  0  0  0  0  # atno 10764 bound_to 10752
  154.2660  135.2854  155.2738 H   0  0  0  0  0  0  0  0  0  0  0  0  # atno 10765 bound_to 10752
  141.0407  133.9841  157.3000 H   0  0  0  0  0  0  0  0  0  0  0  0  # atno 11005 bound_to 11000
  146.1206  140.7313  142.9459 LP  0  0  0  0  0  0  0  0  0  0  0  0  # atno 17320 bound_to 7965
  144.7124  140.4086  143.7070 LP  0  0  0  0  0  0  0  0  0  0  0  0  # atno 17321 bound_to 7965
  140.6721  143.2290  151.5599 LP  0  0  0  0  0  0  0  0  0  0  0  0  # atno 17342 bound_to 10162
  139.5440  144.2570  152.1407 LP  0  0  0  0  0  0  0  0  0  0  0  0  # atno 17343 bound_to 10162
  156.0218  130.3793  150.1938 LP  0  0  0  0  0  0  0  0  0  0  0  0  # atno 17370 bound_to 10713
  157.0128  130.9956  151.3361 LP  0  0  0  0  0  0  0  0  0  0  0  0  # atno 17371 bound_to 10713
  139.9273  135.0201  156.8280 LP  0  0  0  0  0  0  0  0  0  0  0  0  # atno 17394 bound_to 11000
  140.6240  133.9967  155.7631 LP  0  0  0  0  0  0  0  0  0  0  0  0  # atno 17395 bound_to 11000

$$$$
