AV-unprocessed.smi:1120|AV-procd|sdf|4824|dock1
  -GOLD-   22720 3383D 1   1.00000     0.00000
 Structure written by MMmdl.
 48 49  0  0  0  0  0  0  0  0  3 V2000
  152.2701  144.0130  159.3830 C   0  0  0  0  0  0  0  0  0  0  0  0
  152.1786  142.7592  158.5024 C   0  0  2  0  0  0  0  0  0  0  0  0
  151.0344  142.8634  157.4670 C   0  0  0  0  0  0  0  0  0  0  0  0
  150.8923  141.5883  156.5983 C   0  0  0  0  0  0  0  0  0  0  0  0
  150.6923  140.3002  157.4319 C   0  0  1  0  0  0  0  0  0  0  0  0
  150.6929  139.1382  156.5550 N   0  5  0  0  0  0  0  0  0  0  0  0
  152.0159  138.7846  155.6884 S   0  0  0  0  0  0  0  0  0  0  0  0
  152.5586  139.9544  154.9766 O   0  0  0  0  0  0  0  0  0  0  0  0
  152.9790  137.9593  156.4356 O   0  0  0  0  0  0  0  0  0  0  0  0
  151.2927  137.6844  154.3948 C   0  0  0  0  0  0  0  0  0  0  0  0
  150.7537  136.4061  155.0336 C   0  0  0  0  0  0  0  0  0  0  0  0
  151.4277  135.8018  155.8678 O   0  0  0  0  0  0  0  0  0  0  0  0
  149.5395  136.0012  154.6280 N   0  0  0  0  0  0  0  0  0  0  0  0
  148.8498  134.7969  155.0822 C   0  0  0  0  0  0  0  0  0  0  0  0
  149.2022  133.5560  154.2389 C   0  0  0  0  0  0  0  0  0  0  0  0
  148.0412  133.0094  153.4257 C   0  0  0  0  0  0  0  0  0  0  0  0
  147.6216  131.6656  153.5310 C   0  0  0  0  0  0  0  0  0  0  0  0
  146.5528  131.2124  152.7296 C   0  0  0  0  0  0  0  0  0  0  0  0
  145.9249  132.1112  151.8426 C   0  0  0  0  0  0  0  0  0  0  0  0
  146.3840  133.4421  151.7781 C   0  0  0  0  0  0  0  0  0  0  0  0
  147.4122  133.8371  152.5598 N   0  3  0  0  0  0  0  0  0  0  0  0
  151.8326  140.2012  158.4756 C   0  0  0  0  0  0  0  0  0  0  0  0
  151.9791  141.4765  159.3435 C   0  0  0  0  0  0  0  0  0  0  0  0
  151.3544  144.1626  159.9559 H   0  0  0  0  0  0  0  0  0  0  0  0
  152.4346  144.9053  158.7784 H   0  0  0  0  0  0  0  0  0  0  0  0
  153.0966  143.9356  160.0895 H   0  0  0  0  0  0  0  0  0  0  0  0
  153.1195  142.6641  157.9583 H   0  0  0  0  0  0  0  0  0  0  0  0
  150.0928  143.0726  157.9791 H   0  0  0  0  0  0  0  0  0  0  0  0
  151.2123  143.7193  156.8152 H   0  0  0  0  0  0  0  0  0  0  0  0
  150.0568  141.7135  155.9085 H   0  0  0  0  0  0  0  0  0  0  0  0
  151.7848  141.4878  155.9785 H   0  0  0  0  0  0  0  0  0  0  0  0
  149.7462  140.3963  157.9664 H   0  0  0  0  0  0  0  0  0  0  0  0
  150.4925  138.2246  153.8884 H   0  0  0  0  0  0  0  0  0  0  0  0
  152.0635  137.4542  153.6591 H   0  0  0  0  0  0  0  0  0  0  0  0
  149.0644  136.5627  153.9354 H   0  0  0  0  0  0  0  0  0  0  0  0
  149.0590  134.6051  156.1358 H   0  0  0  0  0  0  0  0  0  0  0  0
  147.7779  134.9836  155.0178 H   0  0  0  0  0  0  0  0  0  0  0  0
  150.0187  133.7999  153.5584 H   0  0  0  0  0  0  0  0  0  0  0  0
  149.5794  132.7664  154.8903 H   0  0  0  0  0  0  0  0  0  0  0  0
  148.1183  130.9873  154.2096 H   0  0  0  0  0  0  0  0  0  0  0  0
  146.2216  130.1862  152.7916 H   0  0  0  0  0  0  0  0  0  0  0  0
  145.1091  131.7839  151.2148 H   0  0  0  0  0  0  0  0  0  0  0  0
  145.9748  134.1949  151.1197 H   0  0  0  0  0  0  0  0  0  0  0  0
  151.6675  139.3443  159.1292 H   0  0  0  0  0  0  0  0  0  0  0  0
  152.7791  140.0150  157.9655 H   0  0  0  0  0  0  0  0  0  0  0  0
  152.8265  141.3506  160.0181 H   0  0  0  0  0  0  0  0  0  0  0  0
  151.1040  141.5911  159.9866 H   0  0  0  0  0  0  0  0  0  0  0  0
  147.7388  134.8012  152.4790 H   0  0  0  0  0  0  0  0  0  0  0  0
  1  2  1  0  0  0  0
  1 24  1  0  0  0  0
  1 25  1  0  0  0  0
  1 26  1  0  0  0  0
  2 23  1  0  0  0  0
  2  3  1  0  0  0  0
  2 27  1  0  0  0  0
  3  4  1  0  0  0  0
  3 28  1  0  0  0  0
  3 29  1  0  0  0  0
  4  5  1  0  0  0  0
  4 30  1  0  0  0  0
  4 31  1  0  0  0  0
  5  6  1  0  0  0  0
  5 22  1  0  0  0  0
  5 32  1  0  0  0  0
  6  7  1  0  0  0  0
  7  8  2  0  0  0  0
  7  9  2  0  0  0  0
  7 10  1  0  0  0  0
 10 11  1  0  0  0  0
 10 33  1  0  0  0  0
 10 34  1  0  0  0  0
 11 12  2  0  0  0  0
 11 13  1  0  0  0  0
 13 14  1  0  0  0  0
 13 35  1  0  0  0  0
 14 15  1  0  0  0  0
 14 36  1  0  0  0  0
 14 37  1  0  0  0  0
 15 16  1  0  0  0  0
 15 38  1  0  0  0  0
 15 39  1  0  0  0  0
 16 21  1  0  0  0  0
 16 17  2  0  0  0  0
 17 18  1  0  0  0  0
 17 40  1  0  0  0  0
 18 19  2  0  0  0  0
 18 41  1  0  0  0  0
 19 20  1  0  0  0  0
 19 42  1  0  0  0  0
 20 21  2  0  0  0  0
 20 43  1  0  0  0  0
 21 48  1  0  0  0  0
 22 23  1  0  0  0  0
 22 44  1  0  0  0  0
 22 45  1  0  0  0  0
 23 46  1  0  0  0  0
 23 47  1  0  0  0  0
M  CHG  1   6  -1
M  CHG  1  21   1
M  END
> <s_m_source_file>
AV-unprocessed.smi

> <i_m_source_file_index>
1120

> <i_lp_mmshare_version>
43012

> <i_f3d_flags>
0

> <s_epik_input>
W0NIM11bQ0BASF0xW0NIMl1bQ0gyXVtDQEhdKFtDSDJdW0NIMl0xKVtOSF1TKD1PKSg9TylbQ0gyXUMoPU8pW05IXVtDSDJdW0NIMl1jMltjSF1bY0hdW2NIXVtjSF1uMg==

> <s_epik_cmdline>
J2VwaWtfcHl0aG9uJywgJy1waCcsICc3LjAnLCAnLXRuJywgJzgnLCAnLW1hJywgJzIwMCcsICctbWV0YWxfYmluZGluZycsICctaW1hZScsICc8aW5maWxlLm1hZT4nLCAnLW9tYWUnLCAnPG91dGZpbGUubWFlPic=

> <r_epik_Ionization_Penalty>
7.48373

> <r_epik_Ionization_Penalty_Charging>
7.48373

> <r_epik_Ionization_Penalty_Neutral>
1.58512e-08

> <r_epik_State_Penalty>
7.71683

> <r_epik_Charging_Adjusted_Penalty>
15.2006

> <i_epik_Tot_Q>
0

> <i_epik_Tot_abs_Q>
2

> <r_epik_Metal_State_Penalty>
3.7254

> <b_epik_Metal_Only>
1

> <s_lp_Force_Field>
OPLS_2005

> <r_lp_Energy>
6.08915

> <b_lp_Chiralities_Consistent>
1

> <s_lp_Variant>
AV-unprocessed.smi:1120-7

> <Gold.Version>
5.8.1

> <Gold.Id.Protein>
6NUR|6NUR_protein|mol2

> <Gold.PLP.Fitness>
58.5946

> <Gold.PLP.PLP>
-44.7995

> <Gold.PLP.part.hbond>
-5.0000

> <Gold.PLP.part.metal>
0.0000

> <Gold.PLP.part.buried>
-4.3693

> <Gold.PLP.part.nonpolar>
-36.6708

> <Gold.PLP.part.repulsive>
0.1190

> <Gold.PLP.ligand.clash>
0.0000

> <Gold.PLP.ligand.torsion>
1.4149

> <Gold.PLP.Chemscore.Hbond>
5.1475

> <Gold.PLP.Chemscore.CHOScore>
0.0000

> <Gold.PLP.Chemscore.Metal>
0.0000

> <Gold.Chemscore.Hbonds>
donor molecule, donor type, donor heavy atom, donor atom, acceptor molecule, acceptor atom, score
      L1  H    13    35       P1  7948  0.47
      L1  H    21    48       P1  7948  2.00
      P1  H  7989  7998       L1     8  0.56
      P1  H  7997  8010       L1     8  0.80
      P1  H 10752 10763       L1    12  1.00

> <Gold.PLP.Chemscore.Internal.Correction>
1.1823

> <Gold.Rescore>
     Score         DG    S(hbond)    S(metal)    S(lipo)     H(rot)  DE(clash)    DE(int)     intcor
     17.25     -21.98       2.69        0.00     107.72       1.98       0.20       4.54       ----

> <Gold.Chemscore.Fitness>
17.2454

> <Gold.Chemscore.DG>
-21.9826

> <Gold.Chemscore.ZeroCoef>
-5.4800

> <Gold.Chemscore.Hbond>
2.6876

> <Gold.Chemscore.Metal>
0.0000

> <Gold.Chemscore.Lipo>
107.7168

> <Gold.Chemscore.Internal_Hbond>
0.0000

> <Gold.Chemscore.DEClash>
0.1957

> <Gold.Chemscore.DEInternal>
4.5416

> <Gold.Chemscore.Rot>
1.9832

> <Gold.Chemscore.Internal.Correction>
   9.000000E+99

> <Gold.Chemscore.Hbonds>
donor molecule, donor type, donor heavy atom, donor atom, acceptor molecule, acceptor atom, score
      L1  H    13    35       P1  7948  0.45
      L1  H    21    48       P1  7948  0.85
      P1  H  7989  7998       L1     8  0.55
      P1  H  7997  8010       L1     8  0.24
      P1  H 10752 10763       L1    12  0.40

> <Gold.Chemscore.Hbond.Weighted>
-8.9766

> <Gold.Chemscore.Metal.Weighted>
-0.0000

> <Gold.Chemscore.Lipo.Weighted>
-12.6029

> <Gold.Chemscore.Internal_Hbond.Weighted>
0.0000

> <Gold.Chemscore.DEClash.Weighted>
0.1957

> <Gold.Chemscore.DEInternal.Weighted>
4.5416

> <Gold.Chemscore.Rot.Weighted>
5.0769

> <Gold.Chemscore.Internal.Correction.Weighted>
   9.000000E+99

> <Gold.Protein.RotatedTorsions>
[ 6907 6896 6895 6894 ] final   86.71 input  -60.11 | X-H torsion
[ 7974 7965 7964 7962 ] final -141.82 input  175.53 | X-H torsion
[ 8008 7997 7996 7995 ] final  100.41 input   59.86 | X-H torsion
[ 10167 10162 10161 10158 ] final  150.38 input  -65.29 | X-H torsion
[ 10718 10713 10712 10709 ] final   83.55 input   66.30 | X-H torsion
[ 10763 10752 10751 10750 ] final   82.87 input  -60.55 | X-H torsion
[ 11005 11000 10999 10996 ] final    2.95 input  -57.11 | X-H torsion

> <Gold.Protein.ActiveResidues>
 VAL166  LYS551  ARG553  GLY616  TRP617  ASP618  TYR619  PRO620  LYS621  CYS622 
 ASP623  PHE694  ASN695  SER759  ASP760  ASP761  ALA762  ILE779  LEU786  VAL792 
 PHE793  MET794  SER795  GLU796  ALA797  LYS798  CYS799  TRP800  GLU811  SER814 

> <Gold.Protein.RotatedAtoms>
  152.5399  134.2389  159.8853 H   0  0  0  0  0  0  0  0  0  0  0  0  # atno 6907 bound_to 6896
  151.2357  133.4419  159.2613 H   0  0  0  0  0  0  0  0  0  0  0  0  # atno 6908 bound_to 6896
  151.0674  134.9790  159.8347 H   0  0  0  0  0  0  0  0  0  0  0  0  # atno 6909 bound_to 6896
  144.8490  140.6033  143.5402 H   0  0  0  0  0  0  0  0  0  0  0  0  # atno 7974 bound_to 7965
  156.1200  140.3214  155.8194 H   0  0  0  0  0  0  0  0  0  0  0  0  # atno 8008 bound_to 7997
  155.4522  140.0533  157.3017 H   0  0  0  0  0  0  0  0  0  0  0  0  # atno 8009 bound_to 7997
  154.4820  140.2057  155.9754 H   0  0  0  0  0  0  0  0  0  0  0  0  # atno 8010 bound_to 7997
  139.4851  144.5526  151.7373 H   0  0  0  0  0  0  0  0  0  0  0  0  # atno 10167 bound_to 10162
  157.6881  131.0095  150.2540 H   0  0  0  0  0  0  0  0  0  0  0  0  # atno 10718 bound_to 10713
  153.1241  135.4712  154.9243 H   0  0  0  0  0  0  0  0  0  0  0  0  # atno 10763 bound_to 10752
  154.7603  135.3129  154.8393 H   0  0  0  0  0  0  0  0  0  0  0  0  # atno 10764 bound_to 10752
  153.8951  135.6881  153.4812 H   0  0  0  0  0  0  0  0  0  0  0  0  # atno 10765 bound_to 10752
  140.5985  133.9858  155.8121 H   0  0  0  0  0  0  0  0  0  0  0  0  # atno 11005 bound_to 11000
  145.4538  139.1520  143.3904 LP  0  0  0  0  0  0  0  0  0  0  0  0  # atno 17320 bound_to 7965
  146.2769  140.4665  142.8792 LP  0  0  0  0  0  0  0  0  0  0  0  0  # atno 17321 bound_to 7965
  140.5083  144.1064  150.5988 LP  0  0  0  0  0  0  0  0  0  0  0  0  # atno 17342 bound_to 10162
  140.3981  143.2718  151.9980 LP  0  0  0  0  0  0  0  0  0  0  0  0  # atno 17343 bound_to 10162
  156.3131  130.3775  149.7643 LP  0  0  0  0  0  0  0  0  0  0  0  0  # atno 17370 bound_to 10713
  156.5237  130.8226  151.3213 LP  0  0  0  0  0  0  0  0  0  0  0  0  # atno 17371 bound_to 10713
  141.0888  133.9949  157.3271 LP  0  0  0  0  0  0  0  0  0  0  0  0  # atno 17394 bound_to 11000
  139.9243  135.0201  156.8176 LP  0  0  0  0  0  0  0  0  0  0  0  0  # atno 17395 bound_to 11000

$$$$
