AV-unprocessed.smi:999|AV-procd|sdf|4354|dock5
  -GOLD-   22720 2253D 1   1.00000     0.00000
 Structure written by MMmdl.
 37 38  0  0  0  0  0  0  0  0  2 V2000
  153.4808  141.5248  161.2384 C   0  0  0  0  0  0  0  0  0  0  0  0
  153.3670  142.0656  159.7981 C   0  0  1  0  0  0  0  0  0  0  0  0
  152.6639  141.0845  158.8464 C   0  0  0  0  0  0  0  0  0  0  0  0
  153.1795  140.0026  158.5624 O   0  0  0  0  0  0  0  0  0  0  0  0
  151.4800  141.4849  158.3563 N   0  0  0  0  0  0  0  0  0  0  0  0
  150.6385  140.7226  157.4400 C   0  0  2  0  0  0  0  0  0  0  0  0
  150.4459  139.2818  157.9571 C   0  0  0  0  0  0  0  0  0  0  0  0
  149.6512  138.4239  156.9545 C   0  0  0  0  0  0  0  0  0  0  0  0
  150.2981  138.4084  155.5477 C   0  0  2  0  0  0  0  0  0  0  0  0
  151.6144  137.5966  155.5024 C   0  0  0  0  0  0  0  0  0  0  0  0
  151.6490  136.5824  154.7707 O   0  0  0  0  0  0  0  0  0  0  0  0
  152.5632  137.9787  156.2227 O   0  5  0  0  0  0  0  0  0  0  0  0
  150.4776  139.8623  155.0466 C   0  0  0  0  0  0  0  0  0  0  0  0
  151.2759  140.7306  156.0373 C   0  0  0  0  0  0  0  0  0  0  0  0
  152.7216  143.3727  159.7444 N   0  0  0  0  0  0  0  0  0  0  0  0
  152.6444  144.2354  158.6694 C   0  0  0  0  0  0  0  0  0  0  0  0
  151.9117  145.3183  159.0626 C   0  0  0  0  0  0  0  0  0  0  0  0
  151.5639  145.0196  160.4090 C   0  0  0  0  0  0  0  0  0  0  0  0
  152.0405  143.8531  160.8110 N   0  0  0  0  0  0  0  0  0  0  0  0
  154.0280  140.5816  161.2602 H   0  0  0  0  0  0  0  0  0  0  0  0
  152.5039  141.3494  161.6909 H   0  0  0  0  0  0  0  0  0  0  0  0
  154.0181  142.2280  161.8756 H   0  0  0  0  0  0  0  0  0  0  0  0
  154.3850  142.1985  159.4277 H   0  0  0  0  0  0  0  0  0  0  0  0
  151.1337  142.3904  158.6381 H   0  0  0  0  0  0  0  0  0  0  0  0
  149.6608  141.2032  157.3675 H   0  0  0  0  0  0  0  0  0  0  0  0
  151.4173  138.8233  158.1467 H   0  0  0  0  0  0  0  0  0  0  0  0
  149.9245  139.2940  158.9147 H   0  0  0  0  0  0  0  0  0  0  0  0
  149.5297  137.4121  157.3431 H   0  0  0  0  0  0  0  0  0  0  0  0
  148.6403  138.8243  156.8723 H   0  0  0  0  0  0  0  0  0  0  0  0
  149.6151  137.8979  154.8678 H   0  0  0  0  0  0  0  0  0  0  0  0
  150.9526  139.8848  154.0651 H   0  0  0  0  0  0  0  0  0  0  0  0
  149.4931  140.3078  154.9005 H   0  0  0  0  0  0  0  0  0  0  0  0
  151.3310  141.7529  155.6614 H   0  0  0  0  0  0  0  0  0  0  0  0
  152.3046  140.3716  156.0945 H   0  0  0  0  0  0  0  0  0  0  0  0
  153.1129  144.0082  157.7229 H   0  0  0  0  0  0  0  0  0  0  0  0
  151.6574  146.1885  158.4761 H   0  0  0  0  0  0  0  0  0  0  0  0
  150.9791  145.6091  161.0996 H   0  0  0  0  0  0  0  0  0  0  0  0
  1  2  1  0  0  0  0
  1 20  1  0  0  0  0
  1 21  1  0  0  0  0
  1 22  1  0  0  0  0
  2  3  1  0  0  0  0
  2 15  1  0  0  0  0
  2 23  1  0  0  0  0
  3  4  2  0  0  0  0
  3  5  1  0  0  0  0
  5  6  1  0  0  0  0
  5 24  1  0  0  0  0
  6 14  1  0  0  0  0
  6  7  1  0  0  0  0
  6 25  1  0  0  0  0
  7  8  1  0  0  0  0
  7 26  1  0  0  0  0
  7 27  1  0  0  0  0
  8  9  1  0  0  0  0
  8 28  1  0  0  0  0
  8 29  1  0  0  0  0
  9 10  1  0  0  0  0
  9 13  1  0  0  0  0
  9 30  1  0  0  0  0
 10 11  2  0  0  0  0
 10 12  1  0  0  0  0
 13 14  1  0  0  0  0
 13 31  1  0  0  0  0
 13 32  1  0  0  0  0
 14 33  1  0  0  0  0
 14 34  1  0  0  0  0
 15 19  1  0  0  0  0
 15 16  1  0  0  0  0
 16 17  2  0  0  0  0
 16 35  1  0  0  0  0
 17 18  1  0  0  0  0
 17 36  1  0  0  0  0
 18 19  2  0  0  0  0
 18 37  1  0  0  0  0
M  CHG  1  12  -1
M  END
> <s_m_source_file>
AV-unprocessed.smi

> <i_m_source_file_index>
999

> <i_lp_mmshare_version>
43012

> <i_f3d_flags>
0

> <s_epik_input>
bjFbY0hdW2NIXVtjSF1uMVtDQEhdKFtDSDNdKUMoPU8pW05IXVtDQEBIXTJbQ0gyXVtDSDJdW0NAQEhdKEMoPU8pW09IXSlbQ0gyXVtDSDJdMg==

> <s_epik_cmdline>
J2VwaWtfcHl0aG9uJywgJy1waCcsICc3LjAnLCAnLXRuJywgJzgnLCAnLW1hJywgJzIwMCcsICctbWV0YWxfYmluZGluZycsICctaW1hZScsICc8aW5maWxlLm1hZT4nLCAnLW9tYWUnLCAnPG91dGZpbGUubWFlPic=

> <r_lp_tautomer_probability>
1

> <r_epik_Ionization_Penalty>
0.00221712

> <r_epik_Ionization_Penalty_Charging>
0.00217268

> <r_epik_Ionization_Penalty_Neutral>
4.44343e-05

> <r_epik_State_Penalty>
0.0014925

> <r_epik_Charging_Adjusted_Penalty>
0.00366518

> <i_epik_Tot_Q>
-1

> <i_epik_Tot_abs_Q>
1

> <r_epik_Metal_State_Penalty>
-0

> <b_epik_Metal_Only>
0

> <s_lp_Force_Field>
OPLS_2005

> <r_lp_Energy>
8.81329

> <b_lp_Chiralities_Consistent>
1

> <s_lp_Variant>
AV-unprocessed.smi:999-4

> <Gold.Version>
5.8.1

> <Gold.Id.Protein>
6NUR|6NUR_protein|mol2

> <Gold.PLP.Fitness>
49.7479

> <Gold.PLP.PLP>
-41.5845

> <Gold.PLP.part.hbond>
-2.0000

> <Gold.PLP.part.metal>
0.0000

> <Gold.PLP.part.buried>
-5.1094

> <Gold.PLP.part.nonpolar>
-34.4970

> <Gold.PLP.part.repulsive>
0.3370

> <Gold.PLP.ligand.clash>
0.0000

> <Gold.PLP.ligand.torsion>
0.4898

> <Gold.PLP.Chemscore.Hbond>
3.0000

> <Gold.PLP.Chemscore.CHOScore>
0.0000

> <Gold.PLP.Chemscore.Metal>
0.0000

> <Gold.Chemscore.Hbonds>
donor molecule, donor type, donor heavy atom, donor atom, acceptor molecule, acceptor atom, score
      P1  H  7997  8008       L1     4  0.84
      P1  H 10752 10763       L1    11  2.00

> <Gold.PLP.Chemscore.Internal.Correction>
0.1429

> <Gold.Rescore>
     Score         DG    S(hbond)    S(metal)    S(lipo)     H(rot)  DE(clash)    DE(int)     intcor
     13.75     -17.32       1.93        0.00      89.36       1.98       0.05       3.53       ----

> <Gold.Chemscore.Fitness>
13.7456

> <Gold.Chemscore.DG>
-17.3237

> <Gold.Chemscore.ZeroCoef>
-5.4800

> <Gold.Chemscore.Hbond>
1.9313

> <Gold.Chemscore.Metal>
0.0000

> <Gold.Chemscore.Lipo>
89.3598

> <Gold.Chemscore.Internal_Hbond>
0.0000

> <Gold.Chemscore.DEClash>
0.0452

> <Gold.Chemscore.DEInternal>
3.5329

> <Gold.Chemscore.Rot>
1.9774

> <Gold.Chemscore.Internal.Correction>
   9.000000E+99

> <Gold.Chemscore.Hbonds>
donor molecule, donor type, donor heavy atom, donor atom, acceptor molecule, acceptor atom, score
      P1  H  7997  8008       L1     4  0.76
      P1  H 10752 10763       L1    11  0.99

> <Gold.Chemscore.Hbond.Weighted>
-6.4506

> <Gold.Chemscore.Metal.Weighted>
-0.0000

> <Gold.Chemscore.Lipo.Weighted>
-10.4551

> <Gold.Chemscore.Internal_Hbond.Weighted>
0.0000

> <Gold.Chemscore.DEClash.Weighted>
0.0452

> <Gold.Chemscore.DEInternal.Weighted>
3.5329

> <Gold.Chemscore.Rot.Weighted>
5.0620

> <Gold.Chemscore.Internal.Correction.Weighted>
   9.000000E+99

> <Gold.Protein.RotatedTorsions>
[ 6907 6896 6895 6894 ] final -142.33 input  -60.11 | X-H torsion
[ 7974 7965 7964 7962 ] final -113.10 input  175.53 | X-H torsion
[ 8008 7997 7996 7995 ] final  -96.41 input   59.86 | X-H torsion
[ 10167 10162 10161 10158 ] final   90.60 input  -65.29 | X-H torsion
[ 10718 10713 10712 10709 ] final  -62.78 input   66.30 | X-H torsion
[ 10763 10752 10751 10750 ] final   63.71 input  -60.55 | X-H torsion
[ 11005 11000 10999 10996 ] final -141.10 input  -57.11 | X-H torsion

> <Gold.Protein.ActiveResidues>
 VAL166  LYS551  ARG553  GLY616  TRP617  ASP618  TYR619  PRO620  LYS621  CYS622 
 ASP623  PHE694  ASN695  SER759  ASP760  ASP761  ALA762  ILE779  LEU786  VAL792 
 PHE793  MET794  SER795  GLU796  ALA797  LYS798  CYS799  TRP800  GLU811  SER814 

> <Gold.Protein.RotatedAtoms>
  151.0857  133.5355  159.2617 H   0  0  0  0  0  0  0  0  0  0  0  0  # atno 6907 bound_to 6896
  151.2242  135.0529  159.8971 H   0  0  0  0  0  0  0  0  0  0  0  0  # atno 6908 bound_to 6896
  152.5429  134.0655  159.8224 H   0  0  0  0  0  0  0  0  0  0  0  0  # atno 6909 bound_to 6896
  145.1361  140.8752  143.3729 H   0  0  0  0  0  0  0  0  0  0  0  0  # atno 7974 bound_to 7965
  154.7740  140.0471  157.1074 H   0  0  0  0  0  0  0  0  0  0  0  0  # atno 8008 bound_to 7997
  154.9785  140.3098  155.4937 H   0  0  0  0  0  0  0  0  0  0  0  0  # atno 8009 bound_to 7997
  156.2926  140.2240  156.4882 H   0  0  0  0  0  0  0  0  0  0  0  0  # atno 8010 bound_to 7997
  139.8457  144.6619  150.9229 H   0  0  0  0  0  0  0  0  0  0  0  0  # atno 10167 bound_to 10162
  156.0833  130.4213  150.1184 H   0  0  0  0  0  0  0  0  0  0  0  0  # atno 10718 bound_to 10713
  153.0028  135.5419  154.6394 H   0  0  0  0  0  0  0  0  0  0  0  0  # atno 10763 bound_to 10752
  154.5653  135.2837  155.0882 H   0  0  0  0  0  0  0  0  0  0  0  0  # atno 10764 bound_to 10752
  154.2069  135.6474  153.5156 H   0  0  0  0  0  0  0  0  0  0  0  0  # atno 10765 bound_to 10752
  140.8358  134.2462  157.4835 H   0  0  0  0  0  0  0  0  0  0  0  0  # atno 11005 bound_to 11000
  145.0583  139.3126  143.5893 LP  0  0  0  0  0  0  0  0  0  0  0  0  # atno 17320 bound_to 7965
  146.3509  140.0016  142.8675 LP  0  0  0  0  0  0  0  0  0  0  0  0  # atno 17321 bound_to 7965
  140.7793  143.3872  151.1373 LP  0  0  0  0  0  0  0  0  0  0  0  0  # atno 17342 bound_to 10162
  139.7514  143.8772  152.3078 LP  0  0  0  0  0  0  0  0  0  0  0  0  # atno 17343 bound_to 10162
  156.9211  130.9683  151.3548 LP  0  0  0  0  0  0  0  0  0  0  0  0  # atno 17370 bound_to 10713
  157.5958  130.8476  149.8726 LP  0  0  0  0  0  0  0  0  0  0  0  0  # atno 17371 bound_to 10713
  139.8704  134.9610  156.4381 LP  0  0  0  0  0  0  0  0  0  0  0  0  # atno 17394 bound_to 11000
  140.8949  133.7821  155.9614 LP  0  0  0  0  0  0  0  0  0  0  0  0  # atno 17395 bound_to 11000

$$$$
