AV-unprocessed.smi:861|AV-procd|sdf|3970|dock6
  -GOLD-   22720 1443D 1   1.00000     0.00000
 Structure written by MMmdl.
 43 44  0  0  0  0  0  0  0  0  1 V2000
  152.5051  142.4438  161.0112 C   0  0  0  0  0  0  0  0  0  0  0  0
  152.3032  142.8274  159.5358 C   0  0  0  0  0  0  0  0  0  0  0  0
  151.7483  144.2557  159.4256 C   0  0  0  0  0  0  0  0  0  0  0  0
  151.3963  141.8295  158.7876 C   0  0  0  0  0  0  0  0  0  0  0  0
  151.1112  142.2258  157.3258 C   0  0  0  0  0  0  0  0  0  0  0  0
  150.4212  141.2086  156.5336 N   0  0  0  0  0  0  0  0  0  0  0  0
  149.7508  141.8082  155.3854 C   0  0  0  0  0  0  0  0  0  0  0  0
  149.0239  140.7572  154.5301 C   0  0  0  0  0  0  0  0  0  0  0  0
  149.9511  139.7593  154.1155 O   0  0  0  0  0  0  0  0  0  0  0  0
  150.5883  139.1035  155.2082 C   0  0  1  0  0  0  0  0  0  0  0  0
  151.5393  138.0431  154.6348 C   0  0  0  0  0  0  0  0  0  0  0  0
  150.8281  136.8321  154.2481 N   0  0  0  0  0  0  0  0  0  0  0  0
  150.9980  135.6380  154.9603 C   0  0  0  0  0  0  0  0  0  0  0  0
  150.2125  134.5212  154.6124 C   0  0  0  0  0  0  0  0  0  0  0  0
  150.4027  133.3364  155.3443 C   0  0  0  0  0  0  0  0  0  0  0  0
  151.3657  133.3592  156.3694 C   0  0  0  0  0  0  0  0  0  0  0  0
  152.0934  134.4609  156.6607 N   0  0  0  0  0  0  0  0  0  0  0  0
  151.9109  135.5880  155.9630 N   0  0  0  0  0  0  0  0  0  0  0  0
  151.3225  140.1607  156.0605 C   0  0  0  0  0  0  0  0  0  0  0  0
  151.5535  142.3924  161.5412 H   0  0  0  0  0  0  0  0  0  0  0  0
  153.1307  143.1753  161.5237 H   0  0  0  0  0  0  0  0  0  0  0  0
  152.9963  141.4764  161.1121 H   0  0  0  0  0  0  0  0  0  0  0  0
  153.2807  142.8235  159.0519 H   0  0  0  0  0  0  0  0  0  0  0  0
  150.7671  144.3366  159.8940 H   0  0  0  0  0  0  0  0  0  0  0  0
  151.6462  144.5603  158.3837 H   0  0  0  0  0  0  0  0  0  0  0  0
  152.4094  144.9735  159.9123 H   0  0  0  0  0  0  0  0  0  0  0  0
  151.8466  140.8377  158.8321 H   0  0  0  0  0  0  0  0  0  0  0  0
  150.4443  141.7560  159.3153 H   0  0  0  0  0  0  0  0  0  0  0  0
  150.4982  143.1281  157.3412 H   0  0  0  0  0  0  0  0  0  0  0  0
  152.0414  142.5034  156.8287 H   0  0  0  0  0  0  0  0  0  0  0  0
  149.0324  142.5553  155.7247 H   0  0  0  0  0  0  0  0  0  0  0  0
  150.4786  142.3339  154.7653 H   0  0  0  0  0  0  0  0  0  0  0  0
  148.2085  140.2979  155.0907 H   0  0  0  0  0  0  0  0  0  0  0  0
  148.5843  141.2236  153.6486 H   0  0  0  0  0  0  0  0  0  0  0  0
  149.8219  138.6091  155.8083 H   0  0  0  0  0  0  0  0  0  0  0  0
  152.0416  138.4435  153.7532 H   0  0  0  0  0  0  0  0  0  0  0  0
  152.3142  137.8029  155.3640 H   0  0  0  0  0  0  0  0  0  0  0  0
  150.1816  136.8704  153.4734 H   0  0  0  0  0  0  0  0  0  0  0  0
  149.4877  134.5690  153.8130 H   0  0  0  0  0  0  0  0  0  0  0  0
  149.8329  132.4449  155.1286 H   0  0  0  0  0  0  0  0  0  0  0  0
  151.5568  132.4799  156.9662 H   0  0  0  0  0  0  0  0  0  0  0  0
  152.1290  140.6042  155.4744 H   0  0  0  0  0  0  0  0  0  0  0  0
  151.7910  139.6615  156.9078 H   0  0  0  0  0  0  0  0  0  0  0  0
  1  2  1  0  0  0  0
  1 20  1  0  0  0  0
  1 21  1  0  0  0  0
  1 22  1  0  0  0  0
  2  3  1  0  0  0  0
  2  4  1  0  0  0  0
  2 23  1  0  0  0  0
  3 24  1  0  0  0  0
  3 25  1  0  0  0  0
  3 26  1  0  0  0  0
  4  5  1  0  0  0  0
  4 27  1  0  0  0  0
  4 28  1  0  0  0  0
  5  6  1  0  0  0  0
  5 29  1  0  0  0  0
  5 30  1  0  0  0  0
  6 19  1  0  0  0  0
  6  7  1  0  0  0  0
  7  8  1  0  0  0  0
  7 31  1  0  0  0  0
  7 32  1  0  0  0  0
  8  9  1  0  0  0  0
  8 33  1  0  0  0  0
  8 34  1  0  0  0  0
  9 10  1  0  0  0  0
 10 11  1  0  0  0  0
 10 19  1  0  0  0  0
 10 35  1  0  0  0  0
 11 12  1  0  0  0  0
 11 36  1  0  0  0  0
 11 37  1  0  0  0  0
 12 13  1  0  0  0  0
 12 38  1  0  0  0  0
 13 18  1  0  0  0  0
 13 14  2  0  0  0  0
 14 15  1  0  0  0  0
 14 39  1  0  0  0  0
 15 16  2  0  0  0  0
 15 40  1  0  0  0  0
 16 17  1  0  0  0  0
 16 41  1  0  0  0  0
 17 18  2  0  0  0  0
 19 42  1  0  0  0  0
 19 43  1  0  0  0  0
M  END
> <s_m_source_file>
AV-unprocessed.smi

> <i_m_source_file_index>
861

> <i_lp_mmshare_version>
43012

> <i_f3d_flags>
0

> <s_epik_input>
W0NIM11bQ0hdKFtDSDNdKVtDSDJdW0NIMl1OMVtDSDJdW0NIMl1PW0NASF0oW0NIMl0xKVtDSDJdW05IXWMyW2NIXVtjSF1bY0hdbm4y

> <s_epik_cmdline>
J2VwaWtfcHl0aG9uJywgJy1waCcsICc3LjAnLCAnLXRuJywgJzgnLCAnLW1hJywgJzIwMCcsICctbWV0YWxfYmluZGluZycsICctaW1hZScsICc8aW5maWxlLm1hZT4nLCAnLW9tYWUnLCAnPG91dGZpbGUubWFlPic=

> <r_lp_tautomer_probability>
0.999978

> <r_epik_Ionization_Penalty>
1.1508

> <r_epik_Ionization_Penalty_Charging>
0

> <r_epik_Ionization_Penalty_Neutral>
1.1508

> <r_epik_State_Penalty>
1.22808

> <r_epik_Charging_Adjusted_Penalty>
1.22808

> <i_epik_Tot_Q>
0

> <i_epik_Tot_abs_Q>
0

> <r_epik_Metal_State_Penalty>
1.22149

> <b_epik_Metal_Only>
0

> <s_lp_Force_Field>
OPLS_2005

> <r_lp_Energy>
29.6071

> <b_lp_Chiralities_Consistent>
1

> <s_lp_Variant>
AV-unprocessed.smi:861-5

> <Gold.Version>
5.8.1

> <Gold.Id.Protein>
6NUR|6NUR_protein|mol2

> <Gold.PLP.Fitness>
49.0812

> <Gold.PLP.PLP>
-41.0925

> <Gold.PLP.part.hbond>
-4.7669

> <Gold.PLP.part.metal>
0.0000

> <Gold.PLP.part.buried>
-3.9711

> <Gold.PLP.part.nonpolar>
-33.4311

> <Gold.PLP.part.repulsive>
1.2975

> <Gold.PLP.ligand.clash>
0.0000

> <Gold.PLP.ligand.torsion>
0.4637

> <Gold.PLP.Chemscore.Hbond>
2.9424

> <Gold.PLP.Chemscore.CHOScore>
0.0000

> <Gold.PLP.Chemscore.Metal>
0.0000

> <Gold.Chemscore.Hbonds>
donor molecule, donor type, donor heavy atom, donor atom, acceptor molecule, acceptor atom, score
      L1  H    12    38       P1  7948  0.66
      P1  H  7989  7998       L1     9  0.70
      P1  H 10752 10765       L1    18  0.68

> <Gold.PLP.Chemscore.Internal.Correction>
0.0888

> <Gold.Rescore>
     Score         DG    S(hbond)    S(metal)    S(lipo)     H(rot)  DE(clash)    DE(int)     intcor
     15.21     -15.83       0.94        0.00      97.81       1.66       0.14       0.48       ----

> <Gold.Chemscore.Fitness>
15.2141

> <Gold.Chemscore.DG>
-15.8328

> <Gold.Chemscore.ZeroCoef>
-5.4800

> <Gold.Chemscore.Hbond>
0.9449

> <Gold.Chemscore.Metal>
0.0000

> <Gold.Chemscore.Lipo>
97.8134

> <Gold.Chemscore.Internal_Hbond>
0.0000

> <Gold.Chemscore.DEClash>
0.1372

> <Gold.Chemscore.DEInternal>
0.4815

> <Gold.Chemscore.Rot>
1.6591

> <Gold.Chemscore.Internal.Correction>
   9.000000E+99

> <Gold.Chemscore.Hbonds>
donor molecule, donor type, donor heavy atom, donor atom, acceptor molecule, acceptor atom, score
      L1  H    12    38       P1  7948  0.08
      P1  H  7989  7998       L1     9  0.05
      P1  H 10752 10765       L1    18  0.02

> <Gold.Chemscore.Hbond.Weighted>
-3.1560

> <Gold.Chemscore.Metal.Weighted>
-0.0000

> <Gold.Chemscore.Lipo.Weighted>
-11.4442

> <Gold.Chemscore.Internal_Hbond.Weighted>
0.0000

> <Gold.Chemscore.DEClash.Weighted>
0.1372

> <Gold.Chemscore.DEInternal.Weighted>
0.4815

> <Gold.Chemscore.Rot.Weighted>
4.2474

> <Gold.Chemscore.Internal.Correction.Weighted>
   9.000000E+99

> <Gold.Protein.RotatedTorsions>
[ 6907 6896 6895 6894 ] final  104.29 input  -60.11 | X-H torsion
[ 7974 7965 7964 7962 ] final -168.21 input  175.53 | X-H torsion
[ 8008 7997 7996 7995 ] final   -5.40 input   59.86 | X-H torsion
[ 10167 10162 10161 10158 ] final  -53.49 input  -65.29 | X-H torsion
[ 10718 10713 10712 10709 ] final -178.12 input   66.30 | X-H torsion
[ 10763 10752 10751 10750 ] final -151.71 input  -60.55 | X-H torsion
[ 11005 11000 10999 10996 ] final -171.09 input  -57.11 | X-H torsion

> <Gold.Protein.ActiveResidues>
 VAL166  LYS551  ARG553  GLY616  TRP617  ASP618  TYR619  PRO620  LYS621  CYS622 
 ASP623  PHE694  ASN695  SER759  ASP760  ASP761  ALA762  ILE779  LEU786  VAL792 
 PHE793  MET794  SER795  GLU796  ALA797  LYS798  CYS799  TRP800  GLU811  SER814 

> <Gold.Protein.RotatedAtoms>
  152.5269  133.9698  159.7756 H   0  0  0  0  0  0  0  0  0  0  0  0  # atno 6907 bound_to 6896
  150.9972  133.6083  159.2707 H   0  0  0  0  0  0  0  0  0  0  0  0  # atno 6908 bound_to 6896
  151.3205  135.0823  159.9357 H   0  0  0  0  0  0  0  0  0  0  0  0  # atno 6909 bound_to 6896
  144.7207  140.2404  143.6292 H   0  0  0  0  0  0  0  0  0  0  0  0  # atno 7974 bound_to 7965
  154.6043  140.2459  155.7751 H   0  0  0  0  0  0  0  0  0  0  0  0  # atno 8008 bound_to 7997
  156.2331  140.2959  156.0192 H   0  0  0  0  0  0  0  0  0  0  0  0  # atno 8009 bound_to 7997
  155.2158  140.0398  157.2931 H   0  0  0  0  0  0  0  0  0  0  0  0  # atno 8010 bound_to 7997
  140.6482  143.2548  151.4800 H   0  0  0  0  0  0  0  0  0  0  0  0  # atno 10167 bound_to 10162
  156.8396  130.9682  151.3101 H   0  0  0  0  0  0  0  0  0  0  0  0  # atno 10718 bound_to 10713
  154.8040  135.3253  154.7477 H   0  0  0  0  0  0  0  0  0  0  0  0  # atno 10763 bound_to 10752
  153.8139  135.6893  153.4841 H   0  0  0  0  0  0  0  0  0  0  0  0  # atno 10764 bound_to 10752
  153.1774  135.4599  154.9928 H   0  0  0  0  0  0  0  0  0  0  0  0  # atno 10765 bound_to 10752
  140.5121  134.5791  157.5022 H   0  0  0  0  0  0  0  0  0  0  0  0  # atno 11005 bound_to 11000
  145.8325  139.2092  143.1874 LP  0  0  0  0  0  0  0  0  0  0  0  0  # atno 17320 bound_to 7965
  146.0418  140.8157  142.9825 LP  0  0  0  0  0  0  0  0  0  0  0  0  # atno 17321 bound_to 7965
  139.5694  144.1965  152.1814 LP  0  0  0  0  0  0  0  0  0  0  0  0  # atno 17342 bound_to 10162
  140.1256  144.5334  150.6835 LP  0  0  0  0  0  0  0  0  0  0  0  0  # atno 17343 bound_to 10162
  157.6363  130.8769  149.9364 LP  0  0  0  0  0  0  0  0  0  0  0  0  # atno 17370 bound_to 10713
  156.0888  130.3665  150.0435 LP  0  0  0  0  0  0  0  0  0  0  0  0  # atno 17371 bound_to 10713
  139.9653  134.7383  156.0151 LP  0  0  0  0  0  0  0  0  0  0  0  0  # atno 17394 bound_to 11000
  141.1380  133.6571  156.3648 LP  0  0  0  0  0  0  0  0  0  0  0  0  # atno 17395 bound_to 11000

$$$$
