AV-unprocessed.smi:805|AV-procd|sdf|3797|dock9
  -GOLD-   22720 1233D 1   1.00000     0.00000
 Structure written by MMmdl.
 40 41  0  0  0  0  0  0  0  0  1 V2000
  151.0014  141.6199  157.0385 C   0  0  0  0  0  0  0  0  0  0  0  0
  151.3534  140.4035  156.1789 C   0  0  0  0  0  0  0  0  0  0  0  0
  150.5613  140.4275  155.0033 O   0  0  0  0  0  0  0  0  0  0  0  0
  149.2286  139.9936  155.2255 C   0  0  1  0  0  0  0  0  0  0  0  0
  148.3778  139.8677  153.9575 C   0  0  0  0  0  0  0  0  0  0  0  0
  147.7913  138.6139  154.6081 C   0  0  1  0  0  0  0  0  0  0  0  0
  147.5341  137.5478  153.6456 N   0  0  0  0  0  0  0  0  0  0  0  0
  146.3377  136.9767  153.4523 C   0  0  0  0  0  0  0  0  0  0  0  0
  145.3231  137.3069  154.0658 O   0  0  0  0  0  0  0  0  0  0  0  0
  146.4021  136.0252  152.5050 N   0  0  0  0  0  0  0  0  0  0  0  0
  145.3602  135.1942  152.0111 C   0  0  0  0  0  0  0  0  0  0  0  0
  144.2115  135.0303  152.8126 C   0  0  0  0  0  0  0  0  0  0  0  0
  143.1559  134.2256  152.3440 C   0  0  0  0  0  0  0  0  0  0  0  0
  143.2869  133.6193  151.0799 C   0  0  0  0  0  0  0  0  0  0  0  0
  144.3717  133.7774  150.2927 N   0  0  0  0  0  0  0  0  0  0  0  0
  145.3816  134.5494  150.7491 C   0  0  0  0  0  0  0  0  0  0  0  0
  149.1094  138.4607  155.4139 C   0  0  0  0  0  0  0  0  0  0  0  0
  150.2271  137.6136  154.7804 C   0  0  0  0  0  0  0  0  0  0  0  0
  148.9538  137.9832  156.8575 C   0  0  0  0  0  0  0  0  0  0  0  0
  151.5899  141.6328  157.9562 H   0  0  0  0  0  0  0  0  0  0  0  0
  149.9475  141.6099  157.3170 H   0  0  0  0  0  0  0  0  0  0  0  0
  151.1977  142.5481  156.5016 H   0  0  0  0  0  0  0  0  0  0  0  0
  152.4127  140.4260  155.9181 H   0  0  0  0  0  0  0  0  0  0  0  0
  151.1712  139.4868  156.7413 H   0  0  0  0  0  0  0  0  0  0  0  0
  148.7226  140.5488  156.0191 H   0  0  0  0  0  0  0  0  0  0  0  0
  147.6651  140.6784  153.8051 H   0  0  0  0  0  0  0  0  0  0  0  0
  148.9669  139.6708  153.0599 H   0  0  0  0  0  0  0  0  0  0  0  0
  146.9344  138.8562  155.2416 H   0  0  0  0  0  0  0  0  0  0  0  0
  148.3178  137.2240  153.0979 H   0  0  0  0  0  0  0  0  0  0  0  0
  147.2932  135.9216  152.0423 H   0  0  0  0  0  0  0  0  0  0  0  0
  144.1388  135.5107  153.7776 H   0  0  0  0  0  0  0  0  0  0  0  0
  142.2667  134.0767  152.9386 H   0  0  0  0  0  0  0  0  0  0  0  0
  142.4970  132.9951  150.6888 H   0  0  0  0  0  0  0  0  0  0  0  0
  146.2077  134.6569  150.0642 H   0  0  0  0  0  0  0  0  0  0  0  0
  149.9860  136.5502  154.8007 H   0  0  0  0  0  0  0  0  0  0  0  0
  151.1718  137.7413  155.3097 H   0  0  0  0  0  0  0  0  0  0  0  0
  150.4070  137.8829  153.7396 H   0  0  0  0  0  0  0  0  0  0  0  0
  148.7003  136.9237  156.9032 H   0  0  0  0  0  0  0  0  0  0  0  0
  148.1614  138.5251  157.3747 H   0  0  0  0  0  0  0  0  0  0  0  0
  149.8709  138.1300  157.4285 H   0  0  0  0  0  0  0  0  0  0  0  0
  1  2  1  0  0  0  0
  1 20  1  0  0  0  0
  1 21  1  0  0  0  0
  1 22  1  0  0  0  0
  2  3  1  0  0  0  0
  2 23  1  0  0  0  0
  2 24  1  0  0  0  0
  3  4  1  0  0  0  0
  4 17  1  0  0  0  0
  4  5  1  0  0  0  0
  4 25  1  0  0  0  0
  5  6  1  0  0  0  0
  5 26  1  0  0  0  0
  5 27  1  0  0  0  0
  6  7  1  0  0  0  0
  6 17  1  0  0  0  0
  6 28  1  0  0  0  0
  7  8  1  0  0  0  0
  7 29  1  0  0  0  0
  8  9  2  0  0  0  0
  8 10  1  0  0  0  0
 10 11  1  0  0  0  0
 10 30  1  0  0  0  0
 11 16  1  0  0  0  0
 11 12  2  0  0  0  0
 12 13  1  0  0  0  0
 12 31  1  0  0  0  0
 13 14  2  0  0  0  0
 13 32  1  0  0  0  0
 14 15  1  0  0  0  0
 14 33  1  0  0  0  0
 15 16  2  0  0  0  0
 16 34  1  0  0  0  0
 17 18  1  0  0  0  0
 17 19  1  0  0  0  0
 18 35  1  0  0  0  0
 18 36  1  0  0  0  0
 18 37  1  0  0  0  0
 19 38  1  0  0  0  0
 19 39  1  0  0  0  0
 19 40  1  0  0  0  0
M  END
> <s_m_source_file>
AV-unprocessed.smi

> <i_m_source_file_index>
805

> <i_lp_mmshare_version>
43012

> <i_f3d_flags>
0

> <s_epik_input>
W0NIM11bQ0gyXU9bQ0BASF0oQzEoW0NIM10pW0NIM10pW0NIMl1bQ0BIXTFbTkhdQyg9TylbTkhdYzJbY0hdW2NIXVtjSF1uW2NIXTI=

> <s_epik_cmdline>
J2VwaWtfcHl0aG9uJywgJy1waCcsICc3LjAnLCAnLXRuJywgJzgnLCAnLW1hJywgJzIwMCcsICctbWV0YWxfYmluZGluZycsICctaW1hZScsICc8aW5maWxlLm1hZT4nLCAnLW9tYWUnLCAnPG91dGZpbGUubWFlPic=

> <r_epik_Ionization_Penalty>
0.00485231

> <r_epik_Ionization_Penalty_Charging>
0

> <r_epik_Ionization_Penalty_Neutral>
0.00485231

> <r_epik_State_Penalty>
0.00349213

> <r_epik_Charging_Adjusted_Penalty>
0.00349213

> <i_epik_Tot_Q>
0

> <i_epik_Tot_abs_Q>
0

> <r_epik_Metal_State_Penalty>
-0

> <b_epik_Metal_Only>
0

> <s_lp_Force_Field>
OPLS_2005

> <r_lp_Energy>
21.475

> <b_lp_Chiralities_Consistent>
1

> <s_lp_Variant>
AV-unprocessed.smi:805-2

> <Gold.Version>
5.8.1

> <Gold.Id.Protein>
6NUR|6NUR_protein|mol2

> <Gold.PLP.Fitness>
36.4388

> <Gold.PLP.PLP>
-23.8148

> <Gold.PLP.part.hbond>
-3.0000

> <Gold.PLP.part.metal>
0.0000

> <Gold.PLP.part.buried>
0.7688

> <Gold.PLP.part.nonpolar>
-21.3238

> <Gold.PLP.part.repulsive>
0.4164

> <Gold.PLP.ligand.clash>
0.0000

> <Gold.PLP.ligand.torsion>
0.3535

> <Gold.PLP.Chemscore.Hbond>
2.8960

> <Gold.PLP.Chemscore.CHOScore>
1.4471

> <Gold.PLP.Chemscore.Metal>
0.0000

> <Gold.Chemscore.Hbonds>
donor molecule, donor type, donor heavy atom, donor atom, acceptor molecule, acceptor atom, score
      L1  H     7    29       P1  7948  1.00
      L1  H    10    30       P1  7948  1.00
      P1  H  7989  7998       L1     3  1.00
      L1  C    14    33       P1 10186  0.54
      L1  C    16    34       P1  7921  0.98

> <Gold.PLP.Chemscore.Internal.Correction>
0.3019

> <Gold.Rescore>
     Score         DG    S(hbond)    S(metal)    S(lipo)     H(rot)  DE(clash)    DE(int)     intcor
     16.08     -18.01       2.63        0.00      61.66       1.36       0.23       1.70       ----

> <Gold.Chemscore.Fitness>
16.0793

> <Gold.Chemscore.DG>
-18.0150

> <Gold.Chemscore.ZeroCoef>
-5.4800

> <Gold.Chemscore.Hbond>
2.6317

> <Gold.Chemscore.Metal>
0.0000

> <Gold.Chemscore.Lipo>
61.6604

> <Gold.Chemscore.Internal_Hbond>
0.0000

> <Gold.Chemscore.DEClash>
0.2345

> <Gold.Chemscore.DEInternal>
1.7012

> <Gold.Chemscore.Rot>
1.3551

> <Gold.Chemscore.Internal.Correction>
   9.000000E+99

> <Gold.Chemscore.Hbonds>
donor molecule, donor type, donor heavy atom, donor atom, acceptor molecule, acceptor atom, score
      L1  H     7    29       P1  7948  0.95
      L1  H    10    30       P1  7948  0.98
      P1  H  7989  7998       L1     3  0.72

> <Gold.Chemscore.Hbond.Weighted>
-8.7898

> <Gold.Chemscore.Metal.Weighted>
-0.0000

> <Gold.Chemscore.Lipo.Weighted>
-7.2143

> <Gold.Chemscore.Internal_Hbond.Weighted>
0.0000

> <Gold.Chemscore.DEClash.Weighted>
0.2345

> <Gold.Chemscore.DEInternal.Weighted>
1.7012

> <Gold.Chemscore.Rot.Weighted>
3.4691

> <Gold.Chemscore.Internal.Correction.Weighted>
   9.000000E+99

> <Gold.Protein.RotatedTorsions>
[ 6907 6896 6895 6894 ] final    8.14 input  -60.11 | X-H torsion
[ 7974 7965 7964 7962 ] final  -77.99 input  175.53 | X-H torsion
[ 8008 7997 7996 7995 ] final  173.54 input   59.86 | X-H torsion
[ 10167 10162 10161 10158 ] final   65.58 input  -65.29 | X-H torsion
[ 10718 10713 10712 10709 ] final   -5.34 input   66.30 | X-H torsion
[ 10763 10752 10751 10750 ] final  134.45 input  -60.55 | X-H torsion
[ 11005 11000 10999 10996 ] final  109.16 input  -57.11 | X-H torsion

> <Gold.Protein.ActiveResidues>
 VAL166  LYS551  ARG553  GLY616  TRP617  ASP618  TYR619  PRO620  LYS621  CYS622 
 ASP623  PHE694  ASN695  SER759  ASP760  ASP761  ALA762  ILE779  LEU786  VAL792 
 PHE793  MET794  SER795  GLU796  ALA797  LYS798  CYS799  TRP800  GLU811  SER814 

> <Gold.Protein.RotatedAtoms>
  151.7012  135.0930  160.0250 H   0  0  0  0  0  0  0  0  0  0  0  0  # atno 6907 bound_to 6896
  152.3719  133.6426  159.6102 H   0  0  0  0  0  0  0  0  0  0  0  0  # atno 6908 bound_to 6896
  150.7680  133.9172  159.3428 H   0  0  0  0  0  0  0  0  0  0  0  0  # atno 6909 bound_to 6896
  145.5924  140.9426  143.1285 H   0  0  0  0  0  0  0  0  0  0  0  0  # atno 7974 bound_to 7965
  156.1065  140.1457  156.9397 H   0  0  0  0  0  0  0  0  0  0  0  0  # atno 8008 bound_to 7997
  154.4737  140.0901  156.7254 H   0  0  0  0  0  0  0  0  0  0  0  0  # atno 8009 bound_to 7997
  155.4670  140.3440  155.4322 H   0  0  0  0  0  0  0  0  0  0  0  0  # atno 8010 bound_to 7997
  140.1097  144.4829  150.6985 H   0  0  0  0  0  0  0  0  0  0  0  0  # atno 10167 bound_to 10162
  156.7479  130.5230  149.5810 H   0  0  0  0  0  0  0  0  0  0  0  0  # atno 10718 bound_to 10713
  153.8237  135.3113  155.3412 H   0  0  0  0  0  0  0  0  0  0  0  0  # atno 10763 bound_to 10752
  154.8002  135.4731  154.0260 H   0  0  0  0  0  0  0  0  0  0  0  0  # atno 10764 bound_to 10752
  153.1677  135.6872  153.8741 H   0  0  0  0  0  0  0  0  0  0  0  0  # atno 10765 bound_to 10752
  139.8857  134.9450  156.6083 H   0  0  0  0  0  0  0  0  0  0  0  0  # atno 11005 bound_to 11000
  144.7345  139.7626  143.7334 LP  0  0  0  0  0  0  0  0  0  0  0  0  # atno 17320 bound_to 7965
  146.1637  139.4760  142.9972 LP  0  0  0  0  0  0  0  0  0  0  0  0  # atno 17321 bound_to 7965
  140.6932  143.2388  151.5073 LP  0  0  0  0  0  0  0  0  0  0  0  0  # atno 17342 bound_to 10162
  139.5626  144.2120  152.1715 LP  0  0  0  0  0  0  0  0  0  0  0  0  # atno 17343 bound_to 10162
  156.1420  130.6251  151.0481 LP  0  0  0  0  0  0  0  0  0  0  0  0  # atno 17370 bound_to 10713
  157.6790  131.0843  150.7420 LP  0  0  0  0  0  0  0  0  0  0  0  0  # atno 17371 bound_to 10713
  140.7831  133.8644  155.8584 LP  0  0  0  0  0  0  0  0  0  0  0  0  # atno 17394 bound_to 11000
  140.9743  134.1490  157.4549 LP  0  0  0  0  0  0  0  0  0  0  0  0  # atno 17395 bound_to 11000

$$$$
