AV-unprocessed.smi:2883|AV-procd|sdf|11076|dock5
  -GOLD-   2272015543D 1   1.00000     0.00000
 Structure written by MMmdl.
 40 42  0  0  0  0  0  0  0  0  2 V2000
  153.0447  138.9048  156.4737 C   0  0  0  0  0  0  0  0  0  0  0  0
  152.1746  138.6789  155.2154 C   0  0  0  0  0  0  0  0  0  0  0  0
  153.0373  138.8374  153.9504 C   0  0  0  0  0  0  0  0  0  0  0  0
  151.6496  137.2278  155.3062 C   0  0  0  0  0  0  0  0  0  0  0  0
  151.0110  139.6794  155.1691 C   0  0  0  0  0  0  0  0  0  0  0  0
  150.1182  139.6046  154.1657 N   0  3  0  0  0  0  0  0  0  0  0  0
  149.1471  140.5423  154.0469 C   0  0  0  0  0  0  0  0  0  0  0  0
  149.0838  141.6199  154.9485 C   0  0  0  0  0  0  0  0  0  0  0  0
  150.0711  141.6703  155.9461 C   0  0  0  0  0  0  0  0  0  0  0  0
  150.0741  142.7290  156.8644 N   0  0  0  0  0  0  0  0  0  0  0  0
  150.6797  142.5759  158.1844 C   0  0  1  0  0  0  0  0  0  0  0  0
  152.1575  142.1828  158.1258 C   0  0  0  0  0  0  0  0  0  0  0  0
  152.8051  143.2603  159.0072 C   0  0  1  0  0  0  0  0  0  0  0  0
  152.8783  144.6104  158.2828 C   0  0  0  0  0  0  0  0  0  0  0  0
  151.4151  145.0480  158.2946 C   0  0  0  0  0  0  0  0  0  0  0  0
  150.7360  143.8722  159.0179 C   0  0  2  0  0  0  0  0  0  0  0  0
  151.7609  143.5197  159.9309 O   0  0  0  0  0  0  0  0  0  0  0  0
  151.0224  140.7148  156.0228 N   0  0  0  0  0  0  0  0  0  0  0  0
  153.8484  138.1704  156.5376 H   0  0  0  0  0  0  0  0  0  0  0  0
  152.4534  138.8227  157.3864 H   0  0  0  0  0  0  0  0  0  0  0  0
  153.5165  139.8883  156.4740 H   0  0  0  0  0  0  0  0  0  0  0  0
  153.4496  139.8444  153.8756 H   0  0  0  0  0  0  0  0  0  0  0  0
  152.4544  138.6539  153.0471 H   0  0  0  0  0  0  0  0  0  0  0  0
  153.8747  138.1388  153.9490 H   0  0  0  0  0  0  0  0  0  0  0  0
  152.4706  136.5139  155.3837 H   0  0  0  0  0  0  0  0  0  0  0  0
  151.0706  136.9463  154.4258 H   0  0  0  0  0  0  0  0  0  0  0  0
  151.0129  137.0890  156.1809 H   0  0  0  0  0  0  0  0  0  0  0  0
  148.4569  140.4038  153.2276 H   0  0  0  0  0  0  0  0  0  0  0  0
  148.3166  142.3763  154.8667 H   0  0  0  0  0  0  0  0  0  0  0  0
  149.4694  143.5219  156.7061 H   0  0  0  0  0  0  0  0  0  0  0  0
  150.1408  141.8088  158.7426 H   0  0  0  0  0  0  0  0  0  0  0  0
  152.3011  141.1907  158.5552 H   0  0  0  0  0  0  0  0  0  0  0  0
  152.5735  142.1770  157.1172 H   0  0  0  0  0  0  0  0  0  0  0  0
  153.7458  142.9526  159.4644 H   0  0  0  0  0  0  0  0  0  0  0  0
  153.4938  145.3175  158.8402 H   0  0  0  0  0  0  0  0  0  0  0  0
  153.2871  144.5209  157.2758 H   0  0  0  0  0  0  0  0  0  0  0  0
  151.3013  145.9673  158.8699 H   0  0  0  0  0  0  0  0  0  0  0  0
  151.0153  145.2264  157.2963 H   0  0  0  0  0  0  0  0  0  0  0  0
  149.7912  144.1354  159.4944 H   0  0  0  0  0  0  0  0  0  0  0  0
  150.1616  138.8394  153.4923 H   0  0  0  0  0  0  0  0  0  0  0  0
  1  2  1  0  0  0  0
  1 19  1  0  0  0  0
  1 20  1  0  0  0  0
  1 21  1  0  0  0  0
  2  3  1  0  0  0  0
  2  4  1  0  0  0  0
  2  5  1  0  0  0  0
  3 22  1  0  0  0  0
  3 23  1  0  0  0  0
  3 24  1  0  0  0  0
  4 25  1  0  0  0  0
  4 26  1  0  0  0  0
  4 27  1  0  0  0  0
  5 18  1  0  0  0  0
  5  6  2  0  0  0  0
  6  7  1  0  0  0  0
  6 40  1  0  0  0  0
  7  8  2  0  0  0  0
  7 28  1  0  0  0  0
  8  9  1  0  0  0  0
  8 29  1  0  0  0  0
  9 10  1  0  0  0  0
  9 18  2  0  0  0  0
 10 11  1  0  0  0  0
 10 30  1  0  0  0  0
 11 16  1  0  0  0  0
 11 12  1  0  0  0  0
 11 31  1  0  0  0  0
 12 13  1  0  0  0  0
 12 32  1  0  0  0  0
 12 33  1  0  0  0  0
 13 17  1  0  0  0  0
 13 14  1  0  0  0  0
 13 34  1  0  0  0  0
 14 15  1  0  0  0  0
 14 35  1  0  0  0  0
 14 36  1  0  0  0  0
 15 16  1  0  0  0  0
 15 37  1  0  0  0  0
 15 38  1  0  0  0  0
 16 17  1  0  0  0  0
 16 39  1  0  0  0  0
M  CHG  1   6   1
M  END
> <s_m_source_file>
AV-unprocessed.smi

> <i_m_source_file_index>
2883

> <i_lp_mmshare_version>
43012

> <i_f3d_flags>
0

> <s_epik_input>
W0NIM11DKFtDSDNdKShbQ0gzXSljMW5bY0hdW2NIXWMobjEpW05IXVtDQEhdKFtDSDJdW0NAQEhdMjMpW0NAQEhdKE8zKVtDSDJdW0NIMl0y

> <s_epik_cmdline>
J2VwaWtfcHl0aG9uJywgJy1waCcsICc3LjAnLCAnLXRuJywgJzgnLCAnLW1hJywgJzIwMCcsICctbWV0YWxfYmluZGluZycsICctaW1hZScsICc8aW5maWxlLm1hZT4nLCAnLW9tYWUnLCAnPG91dGZpbGUubWFlPic=

> <r_lp_tautomer_probability>
0.999336

> <r_epik_Ionization_Penalty>
0.371831

> <r_epik_Ionization_Penalty_Charging>
0.371821

> <r_epik_Ionization_Penalty_Neutral>
1.06897e-05

> <r_epik_State_Penalty>
0.369311

> <r_epik_Charging_Adjusted_Penalty>
0.741132

> <i_epik_Tot_Q>
1

> <i_epik_Tot_abs_Q>
1

> <r_epik_Metal_State_Penalty>
0.621338

> <b_epik_Metal_Only>
0

> <s_lp_Force_Field>
OPLS_2005

> <r_lp_Energy>
39.2266

> <b_lp_Chiralities_Consistent>
1

> <s_lp_Variant>
AV-unprocessed.smi:2883-2

> <Gold.Version>
5.8.1

> <Gold.Id.Protein>
6NUR|6NUR_protein|mol2

> <Gold.PLP.Fitness>
40.2486

> <Gold.PLP.PLP>
-37.7292

> <Gold.PLP.part.hbond>
-2.1865

> <Gold.PLP.part.metal>
0.0000

> <Gold.PLP.part.buried>
-2.2405

> <Gold.PLP.part.nonpolar>
-33.6531

> <Gold.PLP.part.repulsive>
0.4539

> <Gold.PLP.ligand.clash>
0.0000

> <Gold.PLP.ligand.torsion>
0.3121

> <Gold.PLP.Chemscore.Hbond>
1.0000

> <Gold.PLP.Chemscore.CHOScore>
0.0000

> <Gold.PLP.Chemscore.Metal>
0.0000

> <Gold.Chemscore.Hbonds>
donor molecule, donor type, donor heavy atom, donor atom, acceptor molecule, acceptor atom, score
      L1  H    10    30       P1  8028  0.99

> <Gold.PLP.Chemscore.Internal.Correction>
0.1437

> <Gold.Rescore>
     Score         DG    S(hbond)    S(metal)    S(lipo)     H(rot)  DE(clash)    DE(int)     intcor
     16.81     -18.58       0.98        0.00     109.30       1.16       0.17       1.60       ----

> <Gold.Chemscore.Fitness>
16.8121

> <Gold.Chemscore.DG>
-18.5807

> <Gold.Chemscore.ZeroCoef>
-5.4800

> <Gold.Chemscore.Hbond>
0.9847

> <Gold.Chemscore.Metal>
0.0000

> <Gold.Chemscore.Lipo>
109.2991

> <Gold.Chemscore.Internal_Hbond>
0.0000

> <Gold.Chemscore.DEClash>
0.1713

> <Gold.Chemscore.DEInternal>
1.5974

> <Gold.Chemscore.Rot>
1.1626

> <Gold.Chemscore.Internal.Correction>
   9.000000E+99

> <Gold.Chemscore.Hbonds>
donor molecule, donor type, donor heavy atom, donor atom, acceptor molecule, acceptor atom, score
      L1  H    10    30       P1  8028  0.93

> <Gold.Chemscore.Hbond.Weighted>
-3.2890

> <Gold.Chemscore.Metal.Weighted>
-0.0000

> <Gold.Chemscore.Lipo.Weighted>
-12.7880

> <Gold.Chemscore.Internal_Hbond.Weighted>
0.0000

> <Gold.Chemscore.DEClash.Weighted>
0.1713

> <Gold.Chemscore.DEInternal.Weighted>
1.5974

> <Gold.Chemscore.Rot.Weighted>
2.9763

> <Gold.Chemscore.Internal.Correction.Weighted>
   9.000000E+99

> <Gold.Protein.RotatedTorsions>
[ 6907 6896 6895 6894 ] final  106.77 input  -60.11 | X-H torsion
[ 7974 7965 7964 7962 ] final  149.42 input  175.53 | X-H torsion
[ 8008 7997 7996 7995 ] final   69.56 input   59.86 | X-H torsion
[ 10167 10162 10161 10158 ] final   10.69 input  -65.29 | X-H torsion
[ 10718 10713 10712 10709 ] final  144.38 input   66.30 | X-H torsion
[ 10763 10752 10751 10750 ] final  -27.89 input  -60.55 | X-H torsion
[ 11005 11000 10999 10996 ] final   79.05 input  -57.11 | X-H torsion

> <Gold.Protein.ActiveResidues>
 VAL166  LYS551  ARG553  GLY616  TRP617  ASP618  TYR619  PRO620  LYS621  CYS622 
 ASP623  PHE694  ASN695  SER759  ASP760  ASP761  ALA762  ILE779  LEU786  VAL792 
 PHE793  MET794  SER795  GLU796  ALA797  LYS798  CYS799  TRP800  GLU811  SER814 

> <Gold.Protein.RotatedAtoms>
  152.5181  133.9332  159.7590 H   0  0  0  0  0  0  0  0  0  0  0  0  # atno 6907 bound_to 6896
  150.9678  133.6368  159.2750 H   0  0  0  0  0  0  0  0  0  0  0  0  # atno 6908 bound_to 6896
  151.3590  135.0905  159.9481 H   0  0  0  0  0  0  0  0  0  0  0  0  # atno 6909 bound_to 6896
  144.8440  139.6278  143.6004 H   0  0  0  0  0  0  0  0  0  0  0  0  # atno 7974 bound_to 7965
  155.7254  140.3492  155.5035 H   0  0  0  0  0  0  0  0  0  0  0  0  # atno 8008 bound_to 7997
  155.9231  140.1071  157.1213 H   0  0  0  0  0  0  0  0  0  0  0  0  # atno 8009 bound_to 7997
  154.4073  140.1245  156.4692 H   0  0  0  0  0  0  0  0  0  0  0  0  # atno 8010 bound_to 7997
  140.6178  143.8270  150.7139 H   0  0  0  0  0  0  0  0  0  0  0  0  # atno 10167 bound_to 10162
  157.3579  131.0960  151.0942 H   0  0  0  0  0  0  0  0  0  0  0  0  # atno 10718 bound_to 10713
  153.7395  135.6933  153.4970 H   0  0  0  0  0  0  0  0  0  0  0  0  # atno 10763 bound_to 10752
  153.2079  135.4413  155.0343 H   0  0  0  0  0  0  0  0  0  0  0  0  # atno 10764 bound_to 10752
  154.8225  135.3429  154.6921 H   0  0  0  0  0  0  0  0  0  0  0  0  # atno 10765 bound_to 10752
  139.9188  134.7812  156.1728 H   0  0  0  0  0  0  0  0  0  0  0  0  # atno 11005 bound_to 11000
  146.2727  139.6676  142.9284 LP  0  0  0  0  0  0  0  0  0  0  0  0  # atno 17320 bound_to 7965
  145.4636  141.0434  143.2738 LP  0  0  0  0  0  0  0  0  0  0  0  0  # atno 17321 bound_to 7965
  140.1853  143.4081  152.1903 LP  0  0  0  0  0  0  0  0  0  0  0  0  # atno 17342 bound_to 10162
  139.5413  144.7259  151.4725 LP  0  0  0  0  0  0  0  0  0  0  0  0  # atno 17343 bound_to 10162
  157.2092  130.6430  149.5768 LP  0  0  0  0  0  0  0  0  0  0  0  0  # atno 17370 bound_to 10713
  155.9732  130.4665  150.6292 LP  0  0  0  0  0  0  0  0  0  0  0  0  # atno 17371 bound_to 10713
  141.0690  133.6806  156.2102 LP  0  0  0  0  0  0  0  0  0  0  0  0  # atno 17394 bound_to 11000
  140.6538  134.5039  157.5579 LP  0  0  0  0  0  0  0  0  0  0  0  0  # atno 17395 bound_to 11000

$$$$
