AV-unprocessed.smi:3278|AV-procd|sdf|12547|dock6
  -GOLD-   2272018463D 1   1.00000     0.00000
 Structure written by MMmdl.
 38 39  0  0  0  0  0  0  0  0  1 V2000
  154.4001  138.5689  154.3778 C   0  0  0  0  0  0  0  0  0  0  0  0
  152.9568  138.6737  154.3662 N   0  0  0  0  0  0  0  0  0  0  0  0
  152.1686  139.7427  154.7321 C   0  0  0  0  0  0  0  0  0  0  0  0
  150.8621  139.3773  154.5510 C   0  0  0  0  0  0  0  0  0  0  0  0
  149.5962  140.1761  154.7853 C   0  0  2  0  0  0  0  0  0  0  0  0
  148.3273  139.3135  154.6357 C   0  0  0  0  0  0  0  0  0  0  0  0
  149.4732  141.2031  153.8223 O   0  0  0  0  0  0  0  0  0  0  0  0
  149.6363  140.8883  156.1546 C   0  0  0  0  0  0  0  0  0  0  0  0
  150.3798  142.1499  156.0982 N   0  0  0  0  0  0  0  0  0  0  0  0
  150.9524  142.6065  157.3675 C   0  0  1  0  0  0  0  0  0  0  0  0
  151.9572  141.5855  157.9509 C   0  0  0  0  0  0  0  0  0  0  0  0
  152.5365  142.0252  159.3057 C   0  0  0  0  0  0  0  0  0  0  0  0
  153.2972  143.3545  159.2205 C   0  0  0  0  0  0  0  0  0  0  0  0
  152.1976  144.6998  158.7088 S   0  0  0  0  0  0  0  0  0  0  0  0
  151.6122  143.9806  157.1508 C   0  0  0  0  0  0  0  0  0  0  0  0
  150.9676  138.0440  154.0563 C   0  0  0  0  0  0  0  0  0  0  0  0
  152.2181  137.6265  153.9487 N   0  0  0  0  0  0  0  0  0  0  0  0
  154.8349  139.4446  154.8603 H   0  0  0  0  0  0  0  0  0  0  0  0
  154.7722  138.5058  153.3550 H   0  0  0  0  0  0  0  0  0  0  0  0
  154.7030  137.6764  154.9262 H   0  0  0  0  0  0  0  0  0  0  0  0
  152.5992  140.6679  155.0858 H   0  0  0  0  0  0  0  0  0  0  0  0
  148.3040  138.5009  155.3623 H   0  0  0  0  0  0  0  0  0  0  0  0
  148.2645  138.8672  153.6426 H   0  0  0  0  0  0  0  0  0  0  0  0
  147.4244  139.9068  154.7873 H   0  0  0  0  0  0  0  0  0  0  0  0
  149.5383  140.8166  152.9625 H   0  0  0  0  0  0  0  0  0  0  0  0
  148.6148  141.0870  156.4823 H   0  0  0  0  0  0  0  0  0  0  0  0
  150.0742  140.2187  156.8946 H   0  0  0  0  0  0  0  0  0  0  0  0
  149.7762  142.8745  155.7224 H   0  0  0  0  0  0  0  0  0  0  0  0
  150.1412  142.7397  158.0848 H   0  0  0  0  0  0  0  0  0  0  0  0
  151.4771  140.6189  158.0985 H   0  0  0  0  0  0  0  0  0  0  0  0
  152.7696  141.4185  157.2420 H   0  0  0  0  0  0  0  0  0  0  0  0
  151.7338  142.1076  160.0395 H   0  0  0  0  0  0  0  0  0  0  0  0
  153.2094  141.2510  159.6757 H   0  0  0  0  0  0  0  0  0  0  0  0
  153.7292  143.6052  160.1894 H   0  0  0  0  0  0  0  0  0  0  0  0
  154.1219  143.2777  158.5112 H   0  0  0  0  0  0  0  0  0  0  0  0
  152.4536  143.8987  156.4615 H   0  0  0  0  0  0  0  0  0  0  0  0
  150.9018  144.6775  156.7046 H   0  0  0  0  0  0  0  0  0  0  0  0
  150.1720  137.3715  153.7708 H   0  0  0  0  0  0  0  0  0  0  0  0
  1  2  1  0  0  0  0
  1 18  1  0  0  0  0
  1 19  1  0  0  0  0
  1 20  1  0  0  0  0
  2 17  1  0  0  0  0
  2  3  1  0  0  0  0
  3  4  2  0  0  0  0
  3 21  1  0  0  0  0
  4  5  1  0  0  0  0
  4 16  1  0  0  0  0
  5  6  1  0  0  0  0
  5  7  1  0  0  0  0
  5  8  1  0  0  0  0
  6 22  1  0  0  0  0
  6 23  1  0  0  0  0
  6 24  1  0  0  0  0
  7 25  1  0  0  0  0
  8  9  1  0  0  0  0
  8 26  1  0  0  0  0
  8 27  1  0  0  0  0
  9 10  1  0  0  0  0
  9 28  1  0  0  0  0
 10 15  1  0  0  0  0
 10 11  1  0  0  0  0
 10 29  1  0  0  0  0
 11 12  1  0  0  0  0
 11 30  1  0  0  0  0
 11 31  1  0  0  0  0
 12 13  1  0  0  0  0
 12 32  1  0  0  0  0
 12 33  1  0  0  0  0
 13 14  1  0  0  0  0
 13 34  1  0  0  0  0
 13 35  1  0  0  0  0
 14 15  1  0  0  0  0
 15 36  1  0  0  0  0
 15 37  1  0  0  0  0
 16 17  2  0  0  0  0
 16 38  1  0  0  0  0
M  END
> <s_m_source_file>
AV-unprocessed.smi

> <i_m_source_file_index>
3278

> <i_lp_mmshare_version>
43012

> <i_f3d_flags>
0

> <s_epik_input>
W0NIM11uMVtjSF1jKFtjSF1uMSlbQ0BAXShbQ0gzXSkoW09IXSlbQ0gyXVtOSF1bQ0BASF0yW0NIMl1bQ0gyXVtDSDJdU1tDSDJdMg==

> <s_epik_cmdline>
J2VwaWtfcHl0aG9uJywgJy1waCcsICc3LjAnLCAnLXRuJywgJzgnLCAnLW1hJywgJzIwMCcsICctbWV0YWxfYmluZGluZycsICctaW1hZScsICc8aW5maWxlLm1hZT4nLCAnLW9tYWUnLCAnPG91dGZpbGUubWFlPic=

> <r_lp_tautomer_probability>
1

> <r_epik_Ionization_Penalty>
2.06123

> <r_epik_Ionization_Penalty_Charging>
0

> <r_epik_Ionization_Penalty_Neutral>
2.06123

> <r_epik_State_Penalty>
2.1944

> <r_epik_Charging_Adjusted_Penalty>
2.1944

> <i_epik_Tot_Q>
0

> <i_epik_Tot_abs_Q>
0

> <r_epik_Metal_State_Penalty>
2.19434

> <b_epik_Metal_Only>
0

> <s_lp_Force_Field>
OPLS_2005

> <r_lp_Energy>
8.30166

> <b_lp_Chiralities_Consistent>
1

> <s_lp_Variant>
AV-unprocessed.smi:3278-8

> <Gold.Version>
5.8.1

> <Gold.Id.Protein>
6NUR|6NUR_protein|mol2

> <Gold.PLP.Fitness>
49.9961

> <Gold.PLP.PLP>
-39.9795

> <Gold.PLP.part.hbond>
-5.0000

> <Gold.PLP.part.metal>
0.0000

> <Gold.PLP.part.buried>
2.4611

> <Gold.PLP.part.nonpolar>
-38.3907

> <Gold.PLP.part.repulsive>
0.1626

> <Gold.PLP.ligand.clash>
0.0000

> <Gold.PLP.ligand.torsion>
0.8886

> <Gold.PLP.Chemscore.Hbond>
2.9120

> <Gold.PLP.Chemscore.CHOScore>
1.0000

> <Gold.PLP.Chemscore.Metal>
0.0000

> <Gold.Chemscore.Hbonds>
donor molecule, donor type, donor heavy atom, donor atom, acceptor molecule, acceptor atom, score
      L1  H     7    25       P1  7957  1.00
      L1  H     9    28       P1  8028  0.96
      P1  H 10752 10763       L1    17  0.68
      L1  C    16    38       P1  7948  1.00
      L1  C    16    38       P1  7949  0.03

> <Gold.PLP.Chemscore.Internal.Correction>
0.0579

> <Gold.Rescore>
     Score         DG    S(hbond)    S(metal)    S(lipo)     H(rot)  DE(clash)    DE(int)     intcor
     20.22     -23.03       2.69        0.00     115.39       1.93       1.49       1.32       ----

> <Gold.Chemscore.Fitness>
20.2157

> <Gold.Chemscore.DG>
-23.0287

> <Gold.Chemscore.ZeroCoef>
-5.4800

> <Gold.Chemscore.Hbond>
2.6936

> <Gold.Chemscore.Metal>
0.0000

> <Gold.Chemscore.Lipo>
115.3872

> <Gold.Chemscore.Internal_Hbond>
0.0000

> <Gold.Chemscore.DEClash>
1.4895

> <Gold.Chemscore.DEInternal>
1.3234

> <Gold.Chemscore.Rot>
1.9329

> <Gold.Chemscore.Internal.Correction>
   9.000000E+99

> <Gold.Chemscore.Hbonds>
donor molecule, donor type, donor heavy atom, donor atom, acceptor molecule, acceptor atom, score
      L1  H     7    25       P1  7957  0.99
      L1  H     9    28       P1  8028  0.89
      P1  H 10752 10763       L1    17  0.63

> <Gold.Chemscore.Hbond.Weighted>
-8.9966

> <Gold.Chemscore.Metal.Weighted>
-0.0000

> <Gold.Chemscore.Lipo.Weighted>
-13.5003

> <Gold.Chemscore.Internal_Hbond.Weighted>
0.0000

> <Gold.Chemscore.DEClash.Weighted>
1.4895

> <Gold.Chemscore.DEInternal.Weighted>
1.3234

> <Gold.Chemscore.Rot.Weighted>
4.9483

> <Gold.Chemscore.Internal.Correction.Weighted>
   9.000000E+99

> <Gold.Protein.RotatedTorsions>
[ 6907 6896 6895 6894 ] final -170.70 input  -60.11 | X-H torsion
[ 7974 7965 7964 7962 ] final   33.45 input  175.53 | X-H torsion
[ 8008 7997 7996 7995 ] final  157.36 input   59.86 | X-H torsion
[ 10167 10162 10161 10158 ] final  179.45 input  -65.29 | X-H torsion
[ 10718 10713 10712 10709 ] final -132.61 input   66.30 | X-H torsion
[ 10763 10752 10751 10750 ] final   36.52 input  -60.55 | X-H torsion
[ 11005 11000 10999 10996 ] final -153.92 input  -57.11 | X-H torsion

> <Gold.Protein.ActiveResidues>
 VAL166  LYS551  ARG553  GLY616  TRP617  ASP618  TYR619  PRO620  LYS621  CYS622 
 ASP623  PHE694  ASN695  SER759  ASP760  ASP761  ALA762  ILE779  LEU786  VAL792 
 PHE793  MET794  SER795  GLU796  ALA797  LYS798  CYS799  TRP800  GLU811  SER814 

> <Gold.Protein.RotatedAtoms>
  151.5120  133.3483  159.2886 H   0  0  0  0  0  0  0  0  0  0  0  0  # atno 6907 bound_to 6896
  150.8706  134.8081  159.7163 H   0  0  0  0  0  0  0  0  0  0  0  0  # atno 6908 bound_to 6896
  152.4695  134.5003  159.9774 H   0  0  0  0  0  0  0  0  0  0  0  0  # atno 6909 bound_to 6896
  146.1419  139.6395  142.9157 H   0  0  0  0  0  0  0  0  0  0  0  0  # atno 7974 bound_to 7965
  156.2368  140.1887  156.7096 H   0  0  0  0  0  0  0  0  0  0  0  0  # atno 8008 bound_to 7997
  154.6122  140.0620  156.9535 H   0  0  0  0  0  0  0  0  0  0  0  0  # atno 8009 bound_to 7997
  155.1997  140.3291  155.4347 H   0  0  0  0  0  0  0  0  0  0  0  0  # atno 8010 bound_to 7997
  139.5337  144.2560  152.0746 H   0  0  0  0  0  0  0  0  0  0  0  0  # atno 10167 bound_to 10162
  156.2364  130.7069  151.0911 H   0  0  0  0  0  0  0  0  0  0  0  0  # atno 10718 bound_to 10713
  153.0073  135.6303  154.1999 H   0  0  0  0  0  0  0  0  0  0  0  0  # atno 10763 bound_to 10752
  154.1742  135.2816  155.3073 H   0  0  0  0  0  0  0  0  0  0  0  0  # atno 10764 bound_to 10752
  154.5885  135.5625  153.7314 H   0  0  0  0  0  0  0  0  0  0  0  0  # atno 10765 bound_to 10752
  140.7029  134.3917  157.5207 H   0  0  0  0  0  0  0  0  0  0  0  0  # atno 11005 bound_to 11000
  145.5026  141.0437  143.2532 LP  0  0  0  0  0  0  0  0  0  0  0  0  # atno 17320 bound_to 7965
  144.7802  139.6541  143.7157 LP  0  0  0  0  0  0  0  0  0  0  0  0  # atno 17321 bound_to 7965
  140.2027  144.4642  150.6423 LP  0  0  0  0  0  0  0  0  0  0  0  0  # atno 17342 bound_to 10162
  140.6531  143.2230  151.6032 LP  0  0  0  0  0  0  0  0  0  0  0  0  # atno 17343 bound_to 10162
  157.7156  131.0711  150.6339 LP  0  0  0  0  0  0  0  0  0  0  0  0  # atno 17370 bound_to 10713
  156.6410  130.4458  149.5752 LP  0  0  0  0  0  0  0  0  0  0  0  0  # atno 17371 bound_to 10713
  139.8892  134.8837  156.2434 LP  0  0  0  0  0  0  0  0  0  0  0  0  # atno 17394 bound_to 11000
  141.0149  133.7074  156.1171 LP  0  0  0  0  0  0  0  0  0  0  0  0  # atno 17395 bound_to 11000

$$$$
