AV-unprocessed.smi:1912|AV-procd|sdf|7749|dock7
  -GOLD-   22720 9483D 1   1.00000     0.00000
 Structure written by MMmdl.
 43 45  0  0  0  0  0  0  0  0  1 V2000
  143.7837  145.2986  157.8963 C   0  0  0  0  0  0  0  0  0  0  0  0
  144.8802  144.5068  158.3285 O   0  0  0  0  0  0  0  0  0  0  0  0
  145.5341  143.7367  157.3908 C   0  0  0  0  0  0  0  0  0  0  0  0
  145.1337  143.6159  156.0395 C   0  0  0  0  0  0  0  0  0  0  0  0
  145.8564  142.7970  155.1527 C   0  0  0  0  0  0  0  0  0  0  0  0
  146.9966  142.0798  155.5911 C   0  0  0  0  0  0  0  0  0  0  0  0
  147.7251  141.2438  154.7694 O   0  0  0  0  0  0  0  0  0  0  0  0
  147.3260  141.1165  153.4132 C   0  0  0  0  0  0  0  0  0  0  0  0
  147.4064  142.2061  156.9413 C   0  0  0  0  0  0  0  0  0  0  0  0
  148.6068  141.4180  157.4653 C   0  0  1  0  0  0  0  0  0  0  0  0
  148.3430  140.0333  157.5736 O   0  0  0  0  0  0  0  0  0  0  0  0
  149.8572  141.5965  156.5779 C   0  0  0  0  0  0  0  0  0  0  0  0
  151.0679  141.0866  157.2080 N   0  0  0  0  0  0  0  0  0  0  0  0
  151.8039  140.0067  156.8478 C   0  0  0  0  0  0  0  0  0  0  0  0
  151.4445  139.1653  155.6647 C   0  0  0  0  0  0  0  0  0  0  0  0
  152.8605  139.7398  157.6155 N   0  0  0  0  0  0  0  0  0  0  0  0
  152.8065  140.7429  158.5639 C   0  0  0  0  0  0  0  0  0  0  0  0
  153.6472  141.0080  159.6686 C   0  0  0  0  0  0  0  0  0  0  0  0
  153.3878  142.1048  160.5162 C   0  0  0  0  0  0  0  0  0  0  0  0
  152.2873  142.9513  160.2715 C   0  0  0  0  0  0  0  0  0  0  0  0
  151.4386  142.7065  159.1753 C   0  0  0  0  0  0  0  0  0  0  0  0
  151.7000  141.6086  158.3334 C   0  0  0  0  0  0  0  0  0  0  0  0
  146.6704  143.0280  157.8238 C   0  0  0  0  0  0  0  0  0  0  0  0
  143.3692  145.8337  158.7506 H   0  0  0  0  0  0  0  0  0  0  0  0
  142.9881  144.6818  157.4763 H   0  0  0  0  0  0  0  0  0  0  0  0
  144.0925  146.0421  157.1603 H   0  0  0  0  0  0  0  0  0  0  0  0
  144.2705  144.1391  155.6571 H   0  0  0  0  0  0  0  0  0  0  0  0
  145.5096  142.7338  154.1327 H   0  0  0  0  0  0  0  0  0  0  0  0
  147.9305  140.3470  152.9333 H   0  0  0  0  0  0  0  0  0  0  0  0
  147.4774  142.0465  152.8642 H   0  0  0  0  0  0  0  0  0  0  0  0
  146.2817  140.8114  153.3322 H   0  0  0  0  0  0  0  0  0  0  0  0
  148.8357  141.7452  158.4791 H   0  0  0  0  0  0  0  0  0  0  0  0
  148.6562  139.6071  156.7905 H   0  0  0  0  0  0  0  0  0  0  0  0
  149.7226  141.0820  155.6258 H   0  0  0  0  0  0  0  0  0  0  0  0
  150.0047  142.6491  156.3329 H   0  0  0  0  0  0  0  0  0  0  0  0
  152.1431  138.3345  155.5608 H   0  0  0  0  0  0  0  0  0  0  0  0
  151.4823  139.7605  154.7522 H   0  0  0  0  0  0  0  0  0  0  0  0
  150.4413  138.7553  155.7794 H   0  0  0  0  0  0  0  0  0  0  0  0
  154.4923  140.3651  159.8649 H   0  0  0  0  0  0  0  0  0  0  0  0
  154.0361  142.2972  161.3584 H   0  0  0  0  0  0  0  0  0  0  0  0
  152.0939  143.7878  160.9270 H   0  0  0  0  0  0  0  0  0  0  0  0
  150.5913  143.3499  158.9899 H   0  0  0  0  0  0  0  0  0  0  0  0
  146.9696  143.1094  158.8585 H   0  0  0  0  0  0  0  0  0  0  0  0
  1  2  1  0  0  0  0
  1 24  1  0  0  0  0
  1 25  1  0  0  0  0
  1 26  1  0  0  0  0
  2  3  1  0  0  0  0
  3 23  1  0  0  0  0
  3  4  2  0  0  0  0
  4  5  1  0  0  0  0
  4 27  1  0  0  0  0
  5  6  2  0  0  0  0
  5 28  1  0  0  0  0
  6  7  1  0  0  0  0
  6  9  1  0  0  0  0
  7  8  1  0  0  0  0
  8 29  1  0  0  0  0
  8 30  1  0  0  0  0
  8 31  1  0  0  0  0
  9 10  1  0  0  0  0
  9 23  2  0  0  0  0
 10 11  1  0  0  0  0
 10 12  1  0  0  0  0
 10 32  1  0  0  0  0
 11 33  1  0  0  0  0
 12 13  1  0  0  0  0
 12 34  1  0  0  0  0
 12 35  1  0  0  0  0
 13 22  1  0  0  0  0
 13 14  1  0  0  0  0
 14 15  1  0  0  0  0
 14 16  2  0  0  0  0
 15 36  1  0  0  0  0
 15 37  1  0  0  0  0
 15 38  1  0  0  0  0
 16 17  1  0  0  0  0
 17 22  2  0  0  0  0
 17 18  1  0  0  0  0
 18 19  2  0  0  0  0
 18 39  1  0  0  0  0
 19 20  1  0  0  0  0
 19 40  1  0  0  0  0
 20 21  2  0  0  0  0
 20 41  1  0  0  0  0
 21 22  1  0  0  0  0
 21 42  1  0  0  0  0
 23 43  1  0  0  0  0
M  END
> <s_m_source_file>
AV-unprocessed.smi

> <i_m_source_file_index>
1912

> <i_lp_mmshare_version>
43012

> <i_f3d_flags>
0

> <s_epik_input>
W0NIM11PYzFbY0hdW2NIXWMoT1tDSDNdKWMoW2NIXTEpW0NASF0oW09IXSlbQ0gyXW4oYyhuMilbQ0gzXSljKGMyMylbY0hdW2NIXVtjSF1bY0hdMw==

> <s_epik_cmdline>
J2VwaWtfcHl0aG9uJywgJy1waCcsICc3LjAnLCAnLXRuJywgJzgnLCAnLW1hJywgJzIwMCcsICctbWV0YWxfYmluZGluZycsICctaW1hZScsICc8aW5maWxlLm1hZT4nLCAnLW9tYWUnLCAnPG91dGZpbGUubWFlPic=

> <r_lp_tautomer_probability>
1

> <r_epik_Ionization_Penalty>
0.129663

> <r_epik_Ionization_Penalty_Charging>
0

> <r_epik_Ionization_Penalty_Neutral>
0.129663

> <r_epik_State_Penalty>
0.119073

> <r_epik_Charging_Adjusted_Penalty>
0.119073

> <i_epik_Tot_Q>
0

> <i_epik_Tot_abs_Q>
0

> <r_epik_Metal_State_Penalty>
0.000131867

> <b_epik_Metal_Only>
0

> <s_lp_Force_Field>
OPLS_2005

> <r_lp_Energy>
18.0714

> <b_lp_Chiralities_Consistent>
1

> <s_lp_Variant>
AV-unprocessed.smi:1912-2

> <Gold.Version>
5.8.1

> <Gold.Id.Protein>
6NUR|6NUR_protein|mol2

> <Gold.PLP.Fitness>
40.9926

> <Gold.PLP.PLP>
-38.6158

> <Gold.PLP.part.hbond>
-1.0000

> <Gold.PLP.part.metal>
0.0000

> <Gold.PLP.part.buried>
-4.7112

> <Gold.PLP.part.nonpolar>
-32.9154

> <Gold.PLP.part.repulsive>
0.1955

> <Gold.PLP.ligand.clash>
0.0000

> <Gold.PLP.ligand.torsion>
0.3455

> <Gold.PLP.Chemscore.Hbond>
1.0000

> <Gold.PLP.Chemscore.CHOScore>
0.0000

> <Gold.PLP.Chemscore.Metal>
0.0000

> <Gold.Chemscore.Hbonds>
donor molecule, donor type, donor heavy atom, donor atom, acceptor molecule, acceptor atom, score
      P1  H  7997  8009       L1    16  0.95

> <Gold.PLP.Chemscore.Internal.Correction>
0.0678

> <Gold.Rescore>
     Score         DG    S(hbond)    S(metal)    S(lipo)     H(rot)  DE(clash)    DE(int)     intcor
     13.35     -14.58       0.74        0.00     104.05       2.17       0.13       1.10       ----

> <Gold.Chemscore.Fitness>
13.3541

> <Gold.Chemscore.DG>
-14.5821

> <Gold.Chemscore.ZeroCoef>
-5.4800

> <Gold.Chemscore.Hbond>
0.7427

> <Gold.Chemscore.Metal>
0.0000

> <Gold.Chemscore.Lipo>
104.0513

> <Gold.Chemscore.Internal_Hbond>
0.0000

> <Gold.Chemscore.DEClash>
0.1273

> <Gold.Chemscore.DEInternal>
1.1007

> <Gold.Chemscore.Rot>
2.1690

> <Gold.Chemscore.Internal.Correction>
   9.000000E+99

> <Gold.Chemscore.Hbonds>
donor molecule, donor type, donor heavy atom, donor atom, acceptor molecule, acceptor atom, score
      P1  H  7997  8009       L1    16  0.21

> <Gold.Chemscore.Hbond.Weighted>
-2.4807

> <Gold.Chemscore.Metal.Weighted>
-0.0000

> <Gold.Chemscore.Lipo.Weighted>
-12.1740

> <Gold.Chemscore.Internal_Hbond.Weighted>
0.0000

> <Gold.Chemscore.DEClash.Weighted>
0.1273

> <Gold.Chemscore.DEInternal.Weighted>
1.1007

> <Gold.Chemscore.Rot.Weighted>
5.5526

> <Gold.Chemscore.Internal.Correction.Weighted>
   9.000000E+99

> <Gold.Protein.RotatedTorsions>
[ 6907 6896 6895 6894 ] final  101.04 input  -60.11 | X-H torsion
[ 7974 7965 7964 7962 ] final  -83.48 input  175.53 | X-H torsion
[ 8008 7997 7996 7995 ] final  160.29 input   59.86 | X-H torsion
[ 10167 10162 10161 10158 ] final -102.14 input  -65.29 | X-H torsion
[ 10718 10713 10712 10709 ] final  170.62 input   66.30 | X-H torsion
[ 10763 10752 10751 10750 ] final   93.52 input  -60.55 | X-H torsion
[ 11005 11000 10999 10996 ] final  154.00 input  -57.11 | X-H torsion

> <Gold.Protein.ActiveResidues>
 VAL166  LYS551  ARG553  GLY616  TRP617  ASP618  TYR619  PRO620  LYS621  CYS622 
 ASP623  PHE694  ASN695  SER759  ASP760  ASP761  ALA762  ILE779  LEU786  VAL792 
 PHE793  MET794  SER795  GLU796  ALA797  LYS798  CYS799  TRP800  GLU811  SER814 

> <Gold.Protein.RotatedAtoms>
  152.5358  134.0186  159.7970 H   0  0  0  0  0  0  0  0  0  0  0  0  # atno 6907 bound_to 6896
  151.0376  133.5727  159.2661 H   0  0  0  0  0  0  0  0  0  0  0  0  # atno 6908 bound_to 6896
  151.2708  135.0691  159.9187 H   0  0  0  0  0  0  0  0  0  0  0  0  # atno 6909 bound_to 6896
  145.5194  140.9533  143.1664 H   0  0  0  0  0  0  0  0  0  0  0  0  # atno 7974 bound_to 7965
  156.2182  140.1808  156.7540 H   0  0  0  0  0  0  0  0  0  0  0  0  # atno 8008 bound_to 7997
  154.5824  140.0664  156.9151 H   0  0  0  0  0  0  0  0  0  0  0  0  # atno 8009 bound_to 7997
  155.2479  140.3327  155.4287 H   0  0  0  0  0  0  0  0  0  0  0  0  # atno 8010 bound_to 7997
  140.2339  143.3587  152.0862 H   0  0  0  0  0  0  0  0  0  0  0  0  # atno 10167 bound_to 10162
  157.0055  131.0188  151.2818 H   0  0  0  0  0  0  0  0  0  0  0  0  # atno 10718 bound_to 10713
  153.2312  135.4322  155.0597 H   0  0  0  0  0  0  0  0  0  0  0  0  # atno 10763 bound_to 10752
  154.8298  135.3380  154.6784 H   0  0  0  0  0  0  0  0  0  0  0  0  # atno 10764 bound_to 10752
  153.7211  135.7017  153.5069 H   0  0  0  0  0  0  0  0  0  0  0  0  # atno 10765 bound_to 10752
  140.1449  134.8714  157.2380 H   0  0  0  0  0  0  0  0  0  0  0  0  # atno 11005 bound_to 11000
  144.7684  139.6791  143.7205 LP  0  0  0  0  0  0  0  0  0  0  0  0  # atno 17320 bound_to 7965
  146.2116  139.5476  142.9677 LP  0  0  0  0  0  0  0  0  0  0  0  0  # atno 17321 bound_to 7965
  139.5100  144.6877  151.5842 LP  0  0  0  0  0  0  0  0  0  0  0  0  # atno 17342 bound_to 10162
  140.6165  143.9340  150.6492 LP  0  0  0  0  0  0  0  0  0  0  0  0  # atno 17343 bound_to 10162
  157.5359  130.8088  149.7971 LP  0  0  0  0  0  0  0  0  0  0  0  0  # atno 17370 bound_to 10713
  156.0155  130.3815  150.2124 LP  0  0  0  0  0  0  0  0  0  0  0  0  # atno 17371 bound_to 10713
  140.2676  134.3498  155.7384 LP  0  0  0  0  0  0  0  0  0  0  0  0  # atno 17394 bound_to 11000
  141.2191  133.7405  156.9174 LP  0  0  0  0  0  0  0  0  0  0  0  0  # atno 17395 bound_to 11000

$$$$
