AV-unprocessed.smi:1051|AV-procd|sdf|4614|dock1
  -GOLD-   22720 3113D 1   1.00000     0.00000
 Structure written by MMmdl.
 45 47  0  0  0  0  0  0  0  0  1 V2000
  151.6708  145.5248  160.1490 C   0  0  0  0  0  0  0  0  0  0  0  0
  151.6711  144.3750  159.1427 C   0  0  0  0  0  0  0  0  0  0  0  0
  151.1597  144.5573  158.0385 O   0  0  0  0  0  0  0  0  0  0  0  0
  152.2968  143.0870  159.5580 C   0  0  0  0  0  0  0  0  0  0  0  0
  152.8198  142.8999  160.8586 C   0  0  0  0  0  0  0  0  0  0  0  0
  153.4035  141.6716  161.2189 C   0  0  0  0  0  0  0  0  0  0  0  0
  153.4733  140.6180  160.2893 C   0  0  0  0  0  0  0  0  0  0  0  0
  152.9563  140.7847  158.9814 C   0  0  0  0  0  0  0  0  0  0  0  0
  152.9834  139.8097  158.0073 O   0  0  0  0  0  0  0  0  0  0  0  0
  152.0503  139.8985  156.9365 C   0  0  0  0  0  0  0  0  0  0  0  0
  152.2356  138.7144  155.9721 C   0  0  2  0  0  0  0  0  0  0  0  0
  153.6073  138.6369  155.6401 O   0  0  0  0  0  0  0  0  0  0  0  0
  151.3794  138.8315  154.6948 C   0  0  0  0  0  0  0  0  0  0  0  0
  149.9654  138.5863  154.9707 N   0  0  0  0  0  0  0  0  0  0  0  0
  149.4284  137.4512  155.4771 C   0  0  0  0  0  0  0  0  0  0  0  0
  150.0497  136.4358  155.7899 O   0  0  0  0  0  0  0  0  0  0  0  0
  148.0926  137.6357  155.5946 N   0  0  0  0  0  0  0  0  0  0  0  0
  147.1156  136.6796  156.1011 C   0  0  0  0  0  0  0  0  0  0  0  0
  147.7690  138.9319  155.1743 C   0  0  0  0  0  0  0  0  0  0  0  0
  146.5356  139.6034  155.1208 C   0  0  0  0  0  0  0  0  0  0  0  0
  146.5463  140.9359  154.6456 C   0  0  0  0  0  0  0  0  0  0  0  0
  147.7590  141.5555  154.2456 C   0  0  0  0  0  0  0  0  0  0  0  0
  148.9868  140.8557  154.3105 C   0  0  0  0  0  0  0  0  0  0  0  0
  148.9471  139.5322  154.7831 C   0  0  0  0  0  0  0  0  0  0  0  0
  152.3722  142.0201  158.6329 C   0  0  0  0  0  0  0  0  0  0  0  0
  151.1239  145.2446  161.0493 H   0  0  0  0  0  0  0  0  0  0  0  0
  151.1927  146.4063  159.7209 H   0  0  0  0  0  0  0  0  0  0  0  0
  152.6911  145.7915  160.4252 H   0  0  0  0  0  0  0  0  0  0  0  0
  152.7845  143.6856  161.5983 H   0  0  0  0  0  0  0  0  0  0  0  0
  153.8004  141.5371  162.2145 H   0  0  0  0  0  0  0  0  0  0  0  0
  153.9287  139.6920  160.6053 H   0  0  0  0  0  0  0  0  0  0  0  0
  151.0243  139.9290  157.3079 H   0  0  0  0  0  0  0  0  0  0  0  0
  152.2306  140.8247  156.3882 H   0  0  0  0  0  0  0  0  0  0  0  0
  151.9777  137.8020  156.5120 H   0  0  0  0  0  0  0  0  0  0  0  0
  153.8170  137.7392  155.4312 H   0  0  0  0  0  0  0  0  0  0  0  0
  151.4658  139.8383  154.2845 H   0  0  0  0  0  0  0  0  0  0  0  0
  151.7468  138.1649  153.9124 H   0  0  0  0  0  0  0  0  0  0  0  0
  146.2793  136.5897  155.4074 H   0  0  0  0  0  0  0  0  0  0  0  0
  146.7279  137.0129  157.0643 H   0  0  0  0  0  0  0  0  0  0  0  0
  147.5464  135.6862  156.2340 H   0  0  0  0  0  0  0  0  0  0  0  0
  145.6178  139.1259  155.4303 H   0  0  0  0  0  0  0  0  0  0  0  0
  145.6202  141.4889  154.5881 H   0  0  0  0  0  0  0  0  0  0  0  0
  147.7445  142.5748  153.8880 H   0  0  0  0  0  0  0  0  0  0  0  0
  149.9129  141.3234  154.0105 H   0  0  0  0  0  0  0  0  0  0  0  0
  151.9799  142.1393  157.6330 H   0  0  0  0  0  0  0  0  0  0  0  0
  1  2  1  0  0  0  0
  1 26  1  0  0  0  0
  1 27  1  0  0  0  0
  1 28  1  0  0  0  0
  2  3  2  0  0  0  0
  2  4  1  0  0  0  0
  4 25  1  0  0  0  0
  4  5  2  0  0  0  0
  5  6  1  0  0  0  0
  5 29  1  0  0  0  0
  6  7  2  0  0  0  0
  6 30  1  0  0  0  0
  7  8  1  0  0  0  0
  7 31  1  0  0  0  0
  8  9  1  0  0  0  0
  8 25  2  0  0  0  0
  9 10  1  0  0  0  0
 10 11  1  0  0  0  0
 10 32  1  0  0  0  0
 10 33  1  0  0  0  0
 11 12  1  0  0  0  0
 11 13  1  0  0  0  0
 11 34  1  0  0  0  0
 12 35  1  0  0  0  0
 13 14  1  0  0  0  0
 13 36  1  0  0  0  0
 13 37  1  0  0  0  0
 14 24  1  0  0  0  0
 14 15  1  0  0  0  0
 15 16  2  0  0  0  0
 15 17  1  0  0  0  0
 17 18  1  0  0  0  0
 17 19  1  0  0  0  0
 18 38  1  0  0  0  0
 18 39  1  0  0  0  0
 18 40  1  0  0  0  0
 19 24  2  0  0  0  0
 19 20  1  0  0  0  0
 20 21  2  0  0  0  0
 20 41  1  0  0  0  0
 21 22  1  0  0  0  0
 21 42  1  0  0  0  0
 22 23  2  0  0  0  0
 22 43  1  0  0  0  0
 23 24  1  0  0  0  0
 23 44  1  0  0  0  0
 25 45  1  0  0  0  0
M  END
> <s_m_source_file>
AV-unprocessed.smi

> <i_m_source_file_index>
1051

> <i_lp_mmshare_version>
43012

> <i_f3d_flags>
0

> <s_epik_input>
W0NIM11DKD1PKWMxW2NIXVtjSF1bY0hdYyhbY0hdMSlPW0NIMl1bQ0BIXShbT0hdKVtDSDJdbihjKD1PKW4yW0NIM10pYyhjMjMpW2NIXVtjSF1bY0hdW2NIXTM=

> <s_epik_cmdline>
J2VwaWtfcHl0aG9uJywgJy1waCcsICc3LjAnLCAnLXRuJywgJzgnLCAnLW1hJywgJzIwMCcsICctbWV0YWxfYmluZGluZycsICctaW1hZScsICc8aW5maWxlLm1hZT4nLCAnLW9tYWUnLCAnPG91dGZpbGUubWFlPic=

> <r_lp_tautomer_probability>
1

> <r_epik_Ionization_Penalty>
2.40143e-06

> <r_epik_Ionization_Penalty_Charging>
2.1343e-09

> <r_epik_Ionization_Penalty_Neutral>
2.3993e-06

> <r_epik_State_Penalty>
-0

> <r_epik_Charging_Adjusted_Penalty>
2.1343e-09

> <i_epik_Tot_Q>
0

> <i_epik_Tot_abs_Q>
0

> <r_epik_Metal_State_Penalty>
-0

> <b_epik_Metal_Only>
0

> <s_lp_Force_Field>
OPLS_2005

> <r_lp_Energy>
56.3875

> <b_lp_Chiralities_Consistent>
1

> <s_lp_Variant>
AV-unprocessed.smi:1051-1

> <Gold.Version>
5.8.1

> <Gold.Id.Protein>
6NUR|6NUR_protein|mol2

> <Gold.PLP.Fitness>
52.9212

> <Gold.PLP.PLP>
-51.0514

> <Gold.PLP.part.hbond>
-1.8795

> <Gold.PLP.part.metal>
0.0000

> <Gold.PLP.part.buried>
-2.5757

> <Gold.PLP.part.nonpolar>
-43.6658

> <Gold.PLP.part.repulsive>
0.2365

> <Gold.PLP.ligand.clash>
0.5260

> <Gold.PLP.ligand.torsion>
0.4458

> <Gold.PLP.Chemscore.Hbond>
1.0032

> <Gold.PLP.Chemscore.CHOScore>
0.0000

> <Gold.PLP.Chemscore.Metal>
0.0000

> <Gold.Chemscore.Hbonds>
donor molecule, donor type, donor heavy atom, donor atom, acceptor molecule, acceptor atom, score
      P1  H  7997  8009       L1     9  0.43
      P1  H  7997  8010       L1    12  0.46

> <Gold.PLP.Chemscore.Internal.Correction>
0.2776

> <Gold.Rescore>
     Score         DG    S(hbond)    S(metal)    S(lipo)     H(rot)  DE(clash)    DE(int)     intcor
     15.83     -16.23       0.63        0.00     124.06       2.30       0.07       0.32       ----

> <Gold.Chemscore.Fitness>
15.8310

> <Gold.Chemscore.DG>
-16.2265

> <Gold.Chemscore.ZeroCoef>
-5.4800

> <Gold.Chemscore.Hbond>
0.6334

> <Gold.Chemscore.Metal>
0.0000

> <Gold.Chemscore.Lipo>
124.0575

> <Gold.Chemscore.Internal_Hbond>
0.0000

> <Gold.Chemscore.DEClash>
0.0707

> <Gold.Chemscore.DEInternal>
0.3247

> <Gold.Chemscore.Rot>
2.2984

> <Gold.Chemscore.Internal.Correction>
   9.000000E+99

> <Gold.Chemscore.Hbonds>
donor molecule, donor type, donor heavy atom, donor atom, acceptor molecule, acceptor atom, score
      P1  H  7997  8009       L1     9  0.09
      P1  H  7997  8010       L1    12  0.45

> <Gold.Chemscore.Hbond.Weighted>
-2.1156

> <Gold.Chemscore.Metal.Weighted>
-0.0000

> <Gold.Chemscore.Lipo.Weighted>
-14.5147

> <Gold.Chemscore.Internal_Hbond.Weighted>
0.0000

> <Gold.Chemscore.DEClash.Weighted>
0.0707

> <Gold.Chemscore.DEInternal.Weighted>
0.3247

> <Gold.Chemscore.Rot.Weighted>
5.8839

> <Gold.Chemscore.Internal.Correction.Weighted>
   9.000000E+99

> <Gold.Protein.RotatedTorsions>
[ 6907 6896 6895 6894 ] final -151.23 input  -60.11 | X-H torsion
[ 7974 7965 7964 7962 ] final -112.77 input  175.53 | X-H torsion
[ 8008 7997 7996 7995 ] final  126.16 input   59.86 | X-H torsion
[ 10167 10162 10161 10158 ] final  156.17 input  -65.29 | X-H torsion
[ 10718 10713 10712 10709 ] final  -82.40 input   66.30 | X-H torsion
[ 10763 10752 10751 10750 ] final  -99.89 input  -60.55 | X-H torsion
[ 11005 11000 10999 10996 ] final    0.19 input  -57.11 | X-H torsion

> <Gold.Protein.ActiveResidues>
 VAL166  LYS551  ARG553  GLY616  TRP617  ASP618  TYR619  PRO620  LYS621  CYS622 
 ASP623  PHE694  ASN695  SER759  ASP760  ASP761  ALA762  ILE779  LEU786  VAL792 
 PHE793  MET794  SER795  GLU796  ALA797  LYS798  CYS799  TRP800  GLU811  SER814 

> <Gold.Protein.RotatedAtoms>
  151.2101  133.4561  159.2597 H   0  0  0  0  0  0  0  0  0  0  0  0  # atno 6907 bound_to 6896
  151.0985  134.9958  159.8447 H   0  0  0  0  0  0  0  0  0  0  0  0  # atno 6908 bound_to 6896
  152.5441  134.2030  159.8772 H   0  0  0  0  0  0  0  0  0  0  0  0  # atno 6909 bound_to 6896
  145.1401  140.8773  143.3707 H   0  0  0  0  0  0  0  0  0  0  0  0  # atno 7974 bound_to 7965
  156.2855  140.2699  156.2065 H   0  0  0  0  0  0  0  0  0  0  0  0  # atno 8008 bound_to 7997
  155.0307  140.0386  157.2491 H   0  0  0  0  0  0  0  0  0  0  0  0  # atno 8009 bound_to 7997
  154.7356  140.2715  155.6422 H   0  0  0  0  0  0  0  0  0  0  0  0  # atno 8010 bound_to 7997
  139.4821  144.5032  151.8136 H   0  0  0  0  0  0  0  0  0  0  0  0  # atno 10167 bound_to 10162
  156.0034  130.4633  150.4099 H   0  0  0  0  0  0  0  0  0  0  0  0  # atno 10718 bound_to 10713
  154.7534  135.4955  153.9331 H   0  0  0  0  0  0  0  0  0  0  0  0  # atno 10763 bound_to 10752
  153.1169  135.6722  153.9410 H   0  0  0  0  0  0  0  0  0  0  0  0  # atno 10764 bound_to 10752
  153.9153  135.3094  155.3427 H   0  0  0  0  0  0  0  0  0  0  0  0  # atno 10765 bound_to 10752
  140.6293  133.9589  155.8266 H   0  0  0  0  0  0  0  0  0  0  0  0  # atno 11005 bound_to 11000
  145.0542  139.3157  143.5913 LP  0  0  0  0  0  0  0  0  0  0  0  0  # atno 17320 bound_to 7965
  146.3506  139.9961  142.8681 LP  0  0  0  0  0  0  0  0  0  0  0  0  # atno 17321 bound_to 7965
  140.4528  144.1831  150.5899 LP  0  0  0  0  0  0  0  0  0  0  0  0  # atno 17342 bound_to 10162
  140.4567  143.2465  151.9275 LP  0  0  0  0  0  0  0  0  0  0  0  0  # atno 17343 bound_to 10162
  157.2162  131.0472  151.2572 LP  0  0  0  0  0  0  0  0  0  0  0  0  # atno 17370 bound_to 10713
  157.3843  130.7248  149.6652 LP  0  0  0  0  0  0  0  0  0  0  0  0  # atno 17371 bound_to 10713
  141.0687  134.0239  157.3558 LP  0  0  0  0  0  0  0  0  0  0  0  0  # atno 17394 bound_to 11000
  139.9122  135.0192  156.7739 LP  0  0  0  0  0  0  0  0  0  0  0  0  # atno 17395 bound_to 11000

$$$$
