AV-unprocessed.smi:1803|AV-procd|sdf|7288|dock10
  -GOLD-   22720 8543D 1   1.00000     0.00000
 Structure written by MMmdl.
 35 37  0  0  0  0  0  0  0  0  3 V2000
  143.0899  136.3550  154.3104 O   0  0  0  0  0  0  0  0  0  0  0  0
  143.2076  135.1823  154.6634 C   0  0  0  0  0  0  0  0  0  0  0  0
  143.2932  134.7982  155.9634 N   0  5  0  0  0  0  0  0  0  0  0  0
  143.3984  135.6801  156.9749 C   0  0  0  0  0  0  0  0  0  0  0  0
  143.4554  137.0066  156.7719 N   0  0  0  0  0  0  0  0  0  0  0  0
  143.5517  137.7349  157.9496 N   0  0  0  0  0  0  0  0  0  0  0  0
  143.5798  136.9347  159.0150 C   0  0  0  0  0  0  0  0  0  0  0  0
  143.4834  135.2193  158.6765 S   0  0  0  0  0  0  0  0  0  0  0  0
  143.2432  134.2211  153.7207 N   0  0  0  0  0  0  0  0  0  0  0  0
  143.1087  134.4307  152.2827 C   0  0  1  0  0  0  0  0  0  0  0  0
  144.0481  135.5160  151.7408 C   0  0  0  0  0  0  0  0  0  0  0  0
  144.4000  135.0646  150.3122 C   0  0  0  0  0  0  0  0  0  0  0  0
  143.6972  133.7794  150.1017 N   0  3  1  0  0  0  0  0  0  0  0  0
  144.2791  132.8646  149.0867 C   0  0  0  0  0  0  0  0  0  0  0  0
  145.5007  132.0919  149.6125 C   0  0  0  0  0  0  0  0  0  0  0  0
  145.1626  131.3698  150.9206 C   0  0  0  0  0  0  0  0  0  0  0  0
  144.6729  132.3875  151.9559 C   0  0  0  0  0  0  0  0  0  0  0  0
  143.4532  133.1929  151.4379 C   0  0  1  0  0  0  0  0  0  0  0  0
  143.6558  137.3569  160.0059 H   0  0  0  0  0  0  0  0  0  0  0  0
  143.3397  133.2666  154.0356 H   0  0  0  0  0  0  0  0  0  0  0  0
  142.0836  134.7335  152.0586 H   0  0  0  0  0  0  0  0  0  0  0  0
  143.5758  136.4988  151.7578 H   0  0  0  0  0  0  0  0  0  0  0  0
  144.9582  135.5795  152.3396 H   0  0  0  0  0  0  0  0  0  0  0  0
  144.0824  135.7916  149.5644 H   0  0  0  0  0  0  0  0  0  0  0  0
  145.4793  134.9394  150.2177 H   0  0  0  0  0  0  0  0  0  0  0  0
  143.5046  132.1534  148.7971 H   0  0  0  0  0  0  0  0  0  0  0  0
  144.5351  133.4260  148.1874 H   0  0  0  0  0  0  0  0  0  0  0  0
  145.8319  131.3706  148.8650 H   0  0  0  0  0  0  0  0  0  0  0  0
  146.3374  132.7726  149.7728 H   0  0  0  0  0  0  0  0  0  0  0  0
  144.3939  130.6161  150.7453 H   0  0  0  0  0  0  0  0  0  0  0  0
  146.0395  130.8431  151.2976 H   0  0  0  0  0  0  0  0  0  0  0  0
  144.4156  131.8687  152.8801 H   0  0  0  0  0  0  0  0  0  0  0  0
  145.4931  133.0620  152.2047 H   0  0  0  0  0  0  0  0  0  0  0  0
  142.5935  132.5243  151.3766 H   0  0  0  0  0  0  0  0  0  0  0  0
  142.7844  134.0400  149.7568 H   0  0  0  0  0  0  0  0  0  0  0  0
  1  2  2  0  0  0  0
  2  3  1  0  0  0  0
  2  9  1  0  0  0  0
  3  4  1  0  0  0  0
  4  8  1  0  0  0  0
  4  5  2  0  0  0  0
  5  6  1  0  0  0  0
  6  7  2  0  0  0  0
  7  8  1  0  0  0  0
  7 19  1  0  0  0  0
  9 10  1  0  0  0  0
  9 20  1  0  0  0  0
 10 18  1  0  0  0  0
 10 11  1  0  0  0  0
 10 21  1  0  0  0  0
 11 12  1  0  0  0  0
 11 22  1  0  0  0  0
 11 23  1  0  0  0  0
 12 13  1  0  0  0  0
 12 24  1  0  0  0  0
 12 25  1  0  0  0  0
 13 18  1  0  0  0  0
 13 14  1  0  0  0  0
 13 35  1  0  0  0  0
 14 15  1  0  0  0  0
 14 26  1  0  0  0  0
 14 27  1  0  0  0  0
 15 16  1  0  0  0  0
 15 28  1  0  0  0  0
 15 29  1  0  0  0  0
 16 17  1  0  0  0  0
 16 30  1  0  0  0  0
 16 31  1  0  0  0  0
 17 18  1  0  0  0  0
 17 32  1  0  0  0  0
 17 33  1  0  0  0  0
 18 34  1  0  0  0  0
M  CHG  1   3  -1
M  CHG  1  13   1
M  END
> <s_m_source_file>
AV-unprocessed.smi

> <i_m_source_file_index>
1803

> <i_lp_mmshare_version>
43012

> <i_f3d_flags>
0

> <s_epik_input>
czFbY0hdbm5jMVtOSF1DKD1PKVtOSF1bQ0BIXShbQ0gyXVtDSDJdMilbQ0BASF0oTjIzKVtDSDJdW0NIMl1bQ0gyXVtDSDJdMw==

> <s_epik_cmdline>
J2VwaWtfcHl0aG9uJywgJy1waCcsICc3LjAnLCAnLXRuJywgJzgnLCAnLW1hJywgJzIwMCcsICctbWV0YWxfYmluZGluZycsICctaW1hZScsICc8aW5maWxlLm1hZT4nLCAnLW9tYWUnLCAnPG91dGZpbGUubWFlPic=

> <r_lp_tautomer_probability>
1

> <r_epik_Ionization_Penalty>
3.78828

> <r_epik_Ionization_Penalty_Charging>
3.7591

> <r_epik_Ionization_Penalty_Neutral>
0.0291838

> <r_epik_State_Penalty>
3.757

> <r_epik_Charging_Adjusted_Penalty>
7.51609

> <i_epik_Tot_Q>
0

> <i_epik_Tot_abs_Q>
2

> <r_epik_Metal_State_Penalty>
0.558016

> <b_epik_Metal_Only>
1

> <s_lp_Force_Field>
OPLS_2005

> <r_lp_Energy>
30.1197

> <b_lp_Chiralities_Consistent>
1

> <s_lp_Variant>
AV-unprocessed.smi:1803-10

> <Gold.Version>
5.8.1

> <Gold.Id.Protein>
6NUR|6NUR_protein|mol2

> <Gold.PLP.Fitness>
35.6565

> <Gold.PLP.PLP>
-26.8873

> <Gold.PLP.part.hbond>
-2.5328

> <Gold.PLP.part.metal>
0.0000

> <Gold.PLP.part.buried>
-3.3934

> <Gold.PLP.part.nonpolar>
-20.0993

> <Gold.PLP.part.repulsive>
0.1547

> <Gold.PLP.ligand.clash>
0.0000

> <Gold.PLP.ligand.torsion>
0.1053

> <Gold.PLP.Chemscore.Hbond>
2.9920

> <Gold.PLP.Chemscore.CHOScore>
0.0000

> <Gold.PLP.Chemscore.Metal>
0.0000

> <Gold.Chemscore.Hbonds>
donor molecule, donor type, donor heavy atom, donor atom, acceptor molecule, acceptor atom, score
      L1  H     9    20       P1 10957  1.00
      L1  H    13    35       P1 10186  2.00

> <Gold.PLP.Chemscore.Internal.Correction>
0.0038

> <Gold.Rescore>
     Score         DG    S(hbond)    S(metal)    S(lipo)     H(rot)  DE(clash)    DE(int)     intcor
     14.42     -17.58       1.98        0.00      68.71       1.00       0.03       3.13       ----

> <Gold.Chemscore.Fitness>
14.4250

> <Gold.Chemscore.DG>
-17.5796

> <Gold.Chemscore.ZeroCoef>
-5.4800

> <Gold.Chemscore.Hbond>
1.9824

> <Gold.Chemscore.Metal>
0.0000

> <Gold.Chemscore.Lipo>
68.7051

> <Gold.Chemscore.Internal_Hbond>
0.0000

> <Gold.Chemscore.DEClash>
0.0260

> <Gold.Chemscore.DEInternal>
3.1286

> <Gold.Chemscore.Rot>
1.0000

> <Gold.Chemscore.Internal.Correction>
   9.000000E+99

> <Gold.Chemscore.Hbonds>
donor molecule, donor type, donor heavy atom, donor atom, acceptor molecule, acceptor atom, score
      L1  H     9    20       P1 10957  0.95
      L1  H    13    35       P1 10186  1.00

> <Gold.Chemscore.Hbond.Weighted>
-6.6211

> <Gold.Chemscore.Metal.Weighted>
-0.0000

> <Gold.Chemscore.Lipo.Weighted>
-8.0385

> <Gold.Chemscore.Internal_Hbond.Weighted>
0.0000

> <Gold.Chemscore.DEClash.Weighted>
0.0260

> <Gold.Chemscore.DEInternal.Weighted>
3.1286

> <Gold.Chemscore.Rot.Weighted>
2.5600

> <Gold.Chemscore.Internal.Correction.Weighted>
   9.000000E+99

> <Gold.Protein.RotatedTorsions>
[ 6907 6896 6895 6894 ] final  113.90 input  -60.11 | X-H torsion
[ 7974 7965 7964 7962 ] final   32.61 input  175.53 | X-H torsion
[ 8008 7997 7996 7995 ] final -145.66 input   59.86 | X-H torsion
[ 10167 10162 10161 10158 ] final -149.12 input  -65.29 | X-H torsion
[ 10718 10713 10712 10709 ] final -154.36 input   66.30 | X-H torsion
[ 10763 10752 10751 10750 ] final -119.53 input  -60.55 | X-H torsion
[ 11005 11000 10999 10996 ] final -170.67 input  -57.11 | X-H torsion

> <Gold.Protein.ActiveResidues>
 VAL166  LYS551  ARG553  GLY616  TRP617  ASP618  TYR619  PRO620  LYS621  CYS622 
 ASP623  PHE694  ASN695  SER759  ASP760  ASP761  ALA762  ILE779  LEU786  VAL792 
 PHE793  MET794  SER795  GLU796  ALA797  LYS798  CYS799  TRP800  GLU811  SER814 

> <Gold.Protein.RotatedAtoms>
  152.4834  133.8310  159.7103 H   0  0  0  0  0  0  0  0  0  0  0  0  # atno 6907 bound_to 6896
  150.8901  133.7246  159.2914 H   0  0  0  0  0  0  0  0  0  0  0  0  # atno 6908 bound_to 6896
  151.4721  135.1050  159.9806 H   0  0  0  0  0  0  0  0  0  0  0  0  # atno 6909 bound_to 6896
  146.1475  139.6504  142.9121 H   0  0  0  0  0  0  0  0  0  0  0  0  # atno 7974 bound_to 7965
  155.5468  140.0613  157.2858 H   0  0  0  0  0  0  0  0  0  0  0  0  # atno 8008 bound_to 7997
  154.4434  140.1909  156.0690 H   0  0  0  0  0  0  0  0  0  0  0  0  # atno 8009 bound_to 7997
  156.0545  140.3280  155.7393 H   0  0  0  0  0  0  0  0  0  0  0  0  # atno 8010 bound_to 7997
  139.7471  143.8575  152.2577 H   0  0  0  0  0  0  0  0  0  0  0  0  # atno 10167 bound_to 10162
  156.4983  130.8379  151.2598 H   0  0  0  0  0  0  0  0  0  0  0  0  # atno 10718 bound_to 10713
  154.8619  135.4235  154.2313 H   0  0  0  0  0  0  0  0  0  0  0  0  # atno 10763 bound_to 10752
  153.3297  135.6987  153.6964 H   0  0  0  0  0  0  0  0  0  0  0  0  # atno 10764 bound_to 10752
  153.5985  135.3541  155.2910 H   0  0  0  0  0  0  0  0  0  0  0  0  # atno 10765 bound_to 10752
  140.5169  134.5747  157.5036 H   0  0  0  0  0  0  0  0  0  0  0  0  # atno 11005 bound_to 11000
  145.4902  141.0438  143.2597 LP  0  0  0  0  0  0  0  0  0  0  0  0  # atno 17320 bound_to 7965
  144.7864  139.6418  143.7132 LP  0  0  0  0  0  0  0  0  0  0  0  0  # atno 17321 bound_to 7965
  139.8542  144.7149  150.9177 LP  0  0  0  0  0  0  0  0  0  0  0  0  # atno 17342 bound_to 10162
  140.7793  143.3873  151.1371 LP  0  0  0  0  0  0  0  0  0  0  0  0  # atno 17343 bound_to 10162
  157.7466  130.9990  150.2874 LP  0  0  0  0  0  0  0  0  0  0  0  0  # atno 17370 bound_to 10713
  156.3358  130.3807  149.7451 LP  0  0  0  0  0  0  0  0  0  0  0  0  # atno 17371 bound_to 10713
  139.9627  134.7424  156.0202 LP  0  0  0  0  0  0  0  0  0  0  0  0  # atno 17394 bound_to 11000
  141.1355  133.6576  156.3583 LP  0  0  0  0  0  0  0  0  0  0  0  0  # atno 17395 bound_to 11000

$$$$
