AV-unprocessed.smi:2695|AV-procd|sdf|10411|dock9
  -GOLD-   2272014443D 1   1.00000     0.00000
 Structure written by MMmdl.
 42 43  0  0  0  0  0  0  0  0  1 V2000
  149.1519  141.1995  154.5898 C   0  0  0  0  0  0  0  0  0  0  0  0
  150.1219  140.1086  155.0265 C   0  0  0  0  0  0  0  0  0  0  0  0
  151.1351  140.4188  155.8683 C   0  0  0  0  0  0  0  0  0  0  0  0
  152.1140  139.3982  156.2818 C   0  0  0  0  0  0  0  0  0  0  0  0
  153.0247  139.6474  157.0691 O   0  0  0  0  0  0  0  0  0  0  0  0
  151.9384  138.0650  155.6891 C   0  0  0  0  0  0  0  0  0  0  0  0
  150.8970  137.8477  154.8628 C   0  0  0  0  0  0  0  0  0  0  0  0
  150.7071  136.6544  154.2794 O   0  0  0  0  0  0  0  0  0  0  0  0
  149.9258  138.8069  154.5131 N   0  0  0  0  0  0  0  0  0  0  0  0
  148.7664  138.4644  153.6690 C   0  0  0  0  0  0  0  0  0  0  0  0
  147.7503  137.5504  154.3682 C   0  0  0  0  0  0  0  0  0  0  0  0
  147.3995  137.7616  155.5300 O   0  0  0  0  0  0  0  0  0  0  0  0
  147.2938  136.5237  153.6347 N   0  0  0  0  0  0  0  0  0  0  0  0
  146.3112  135.5260  154.0627 C   0  0  2  0  0  0  0  0  0  0  0  0
  146.9931  134.1369  154.1728 C   0  0  0  0  0  0  0  0  0  0  0  0
  148.2392  134.0937  155.0657 C   0  0  0  0  0  0  0  0  0  0  0  0
  149.0064  132.8361  154.6426 C   0  0  0  0  0  0  0  0  0  0  0  0
  148.5272  132.4949  153.2250 C   0  0  0  0  0  0  0  0  0  0  0  0
  147.5203  133.5831  152.8417 C   0  0  0  0  0  0  0  0  0  0  0  0
  145.1145  135.5628  153.0845 C   0  0  0  0  0  0  0  0  0  0  0  0
  145.5603  135.6391  151.8295 F   0  0  0  0  0  0  0  0  0  0  0  0
  144.3732  134.4611  153.2078 F   0  0  0  0  0  0  0  0  0  0  0  0
  144.3461  136.6284  153.3057 F   0  0  0  0  0  0  0  0  0  0  0  0
  149.5567  142.1889  154.8055 H   0  0  0  0  0  0  0  0  0  0  0  0
  148.2066  141.1051  155.1246 H   0  0  0  0  0  0  0  0  0  0  0  0
  148.9576  141.1669  153.5179 H   0  0  0  0  0  0  0  0  0  0  0  0
  151.2605  141.4238  156.2447 H   0  0  0  0  0  0  0  0  0  0  0  0
  152.6543  137.2895  155.9206 H   0  0  0  0  0  0  0  0  0  0  0  0
  148.2536  139.3669  153.3342 H   0  0  0  0  0  0  0  0  0  0  0  0
  149.0834  137.9922  152.7397 H   0  0  0  0  0  0  0  0  0  0  0  0
  147.6418  136.4313  152.6914 H   0  0  0  0  0  0  0  0  0  0  0  0
  145.9277  135.7941  155.0487 H   0  0  0  0  0  0  0  0  0  0  0  0
  146.2718  133.4194  154.5677 H   0  0  0  0  0  0  0  0  0  0  0  0
  148.8577  134.9736  154.8829 H   0  0  0  0  0  0  0  0  0  0  0  0
  147.9937  134.0770  156.1278 H   0  0  0  0  0  0  0  0  0  0  0  0
  150.0840  132.9992  154.6802 H   0  0  0  0  0  0  0  0  0  0  0  0
  148.7787  132.0105  155.3178 H   0  0  0  0  0  0  0  0  0  0  0  0
  149.3526  132.4467  152.5141 H   0  0  0  0  0  0  0  0  0  0  0  0
  148.0408  131.5187  153.2265 H   0  0  0  0  0  0  0  0  0  0  0  0
  146.7260  133.1988  152.2009 H   0  0  0  0  0  0  0  0  0  0  0  0
  148.0337  134.3723  152.2903 H   0  0  0  0  0  0  0  0  0  0  0  0
  151.0383  136.7136  153.3964 H   0  0  0  0  0  0  0  0  0  0  0  0
  1  2  1  0  0  0  0
  1 24  1  0  0  0  0
  1 25  1  0  0  0  0
  1 26  1  0  0  0  0
  2  9  1  0  0  0  0
  2  3  2  0  0  0  0
  3  4  1  0  0  0  0
  3 27  1  0  0  0  0
  4  5  2  0  0  0  0
  4  6  1  0  0  0  0
  6  7  2  0  0  0  0
  6 28  1  0  0  0  0
  7  8  1  0  0  0  0
  7  9  1  0  0  0  0
  8 42  1  0  0  0  0
  9 10  1  0  0  0  0
 10 11  1  0  0  0  0
 10 29  1  0  0  0  0
 10 30  1  0  0  0  0
 11 12  2  0  0  0  0
 11 13  1  0  0  0  0
 13 14  1  0  0  0  0
 13 31  1  0  0  0  0
 14 15  1  0  0  0  0
 14 20  1  0  0  0  0
 14 32  1  0  0  0  0
 15 19  1  0  0  0  0
 15 16  1  0  0  0  0
 15 33  1  0  0  0  0
 16 17  1  0  0  0  0
 16 34  1  0  0  0  0
 16 35  1  0  0  0  0
 17 18  1  0  0  0  0
 17 36  1  0  0  0  0
 17 37  1  0  0  0  0
 18 19  1  0  0  0  0
 18 38  1  0  0  0  0
 18 39  1  0  0  0  0
 19 40  1  0  0  0  0
 19 41  1  0  0  0  0
 20 21  1  0  0  0  0
 20 22  1  0  0  0  0
 20 23  1  0  0  0  0
M  END
> <s_m_source_file>
AV-unprocessed.smi

> <i_m_source_file_index>
2695

> <i_lp_mmshare_version>
43012

> <i_f3d_flags>
0

> <s_epik_input>
W0NIM11jMVtjSF1jKFtPSF0pW2NIXWMoPU8pbjFbQ0gyXUMoPU8pW05IXVtDQEBIXShDKEYpKEYpRilbQ0hdMltDSDJdW0NIMl1bQ0gyXVtDSDJdMg==

> <s_epik_cmdline>
J2VwaWtfcHl0aG9uJywgJy1waCcsICc3LjAnLCAnLXRuJywgJzgnLCAnLW1hJywgJzIwMCcsICctbWV0YWxfYmluZGluZycsICctaW1hZScsICc8aW5maWxlLm1hZT4nLCAnLW9tYWUnLCAnPG91dGZpbGUubWFlPic=

> <r_epik_Ionization_Penalty>
1.35977e-07

> <r_epik_Ionization_Penalty_Charging>
0

> <r_epik_Ionization_Penalty_Neutral>
1.35977e-07

> <r_epik_State_Penalty>
2.53185

> <r_epik_Charging_Adjusted_Penalty>
2.53185

> <i_epik_Tot_Q>
0

> <i_epik_Tot_abs_Q>
0

> <r_epik_Metal_State_Penalty>
2.53184

> <b_epik_Metal_Only>
0

> <s_lp_Force_Field>
OPLS_2005

> <r_lp_Energy>
25.5635

> <b_lp_Chiralities_Consistent>
1

> <s_lp_Variant>
AV-unprocessed.smi:2695-5

> <Gold.Version>
5.8.1

> <Gold.Id.Protein>
6NUR|6NUR_protein|mol2

> <Gold.PLP.Fitness>
39.2962

> <Gold.PLP.PLP>
-31.9378

> <Gold.PLP.part.hbond>
-3.5050

> <Gold.PLP.part.metal>
0.0000

> <Gold.PLP.part.buried>
2.7560

> <Gold.PLP.part.nonpolar>
-31.2727

> <Gold.PLP.part.repulsive>
0.0366

> <Gold.PLP.ligand.clash>
0.0000

> <Gold.PLP.ligand.torsion>
0.7601

> <Gold.PLP.Chemscore.Hbond>
2.8713

> <Gold.PLP.Chemscore.CHOScore>
0.0000

> <Gold.PLP.Chemscore.Metal>
0.0000

> <Gold.Chemscore.Hbonds>
donor molecule, donor type, donor heavy atom, donor atom, acceptor molecule, acceptor atom, score
      L1  H     8    42       P1  7949  0.98
      L1  H    13    31       P1  7948  0.86
      P1  H  7997  8008       L1     5  0.94

> <Gold.PLP.Chemscore.Internal.Correction>
0.2648

> <Gold.Rescore>
     Score         DG    S(hbond)    S(metal)    S(lipo)     H(rot)  DE(clash)    DE(int)     intcor
     11.00     -13.50       2.16        0.00      60.54       2.45       0.74       1.76       ----

> <Gold.Chemscore.Fitness>
10.9992

> <Gold.Chemscore.DG>
-13.5038

> <Gold.Chemscore.ZeroCoef>
-5.4800

> <Gold.Chemscore.Hbond>
2.1603

> <Gold.Chemscore.Metal>
0.0000

> <Gold.Chemscore.Lipo>
60.5446

> <Gold.Chemscore.Internal_Hbond>
0.0000

> <Gold.Chemscore.DEClash>
0.7409

> <Gold.Chemscore.DEInternal>
1.7637

> <Gold.Chemscore.Rot>
2.4512

> <Gold.Chemscore.Internal.Correction>
   9.000000E+99

> <Gold.Chemscore.Hbonds>
donor molecule, donor type, donor heavy atom, donor atom, acceptor molecule, acceptor atom, score
      L1  H     8    42       P1  7949  0.26
      L1  H    13    31       P1  7948  0.83
      P1  H  7997  8008       L1     5  0.90

> <Gold.Chemscore.Hbond.Weighted>
-7.2153

> <Gold.Chemscore.Metal.Weighted>
-0.0000

> <Gold.Chemscore.Lipo.Weighted>
-7.0837

> <Gold.Chemscore.Internal_Hbond.Weighted>
0.0000

> <Gold.Chemscore.DEClash.Weighted>
0.7409

> <Gold.Chemscore.DEInternal.Weighted>
1.7637

> <Gold.Chemscore.Rot.Weighted>
6.2752

> <Gold.Chemscore.Internal.Correction.Weighted>
   9.000000E+99

> <Gold.Protein.RotatedTorsions>
[ 6907 6896 6895 6894 ] final   -5.32 input  -60.11 | X-H torsion
[ 7974 7965 7964 7962 ] final   20.16 input  175.53 | X-H torsion
[ 8008 7997 7996 7995 ] final  -82.68 input   59.86 | X-H torsion
[ 10167 10162 10161 10158 ] final  -86.11 input  -65.29 | X-H torsion
[ 10718 10713 10712 10709 ] final -115.05 input   66.30 | X-H torsion
[ 10763 10752 10751 10750 ] final   24.18 input  -60.55 | X-H torsion
[ 11005 11000 10999 10996 ] final   68.86 input  -57.11 | X-H torsion

> <Gold.Protein.ActiveResidues>
 VAL166  LYS551  ARG553  GLY616  TRP617  ASP618  TYR619  PRO620  LYS621  CYS622 
 ASP623  PHE694  ASN695  SER759  ASP760  ASP761  ALA762  ILE779  LEU786  VAL792 
 PHE793  MET794  SER795  GLU796  ALA797  LYS798  CYS799  TRP800  GLU811  SER814 

> <Gold.Protein.RotatedAtoms>
  151.4835  135.1053  159.9783 H   0  0  0  0  0  0  0  0  0  0  0  0  # atno 6907 bound_to 6896
  152.4769  133.8157  159.7037 H   0  0  0  0  0  0  0  0  0  0  0  0  # atno 6908 bound_to 6896
  150.8814  133.7305  159.2957 H   0  0  0  0  0  0  0  0  0  0  0  0  # atno 6909 bound_to 6896
  146.2122  139.8209  142.8680 H   0  0  0  0  0  0  0  0  0  0  0  0  # atno 7974 bound_to 7965
  154.6111  140.0630  156.9494 H   0  0  0  0  0  0  0  0  0  0  0  0  # atno 8008 bound_to 7997
  155.1972  140.3312  155.4330 H   0  0  0  0  0  0  0  0  0  0  0  0  # atno 8009 bound_to 7997
  156.2377  140.1871  156.7058 H   0  0  0  0  0  0  0  0  0  0  0  0  # atno 8010 bound_to 7997
  140.3973  143.2678  151.9188 H   0  0  0  0  0  0  0  0  0  0  0  0  # atno 10167 bound_to 10162
  156.0870  130.6060  150.8855 H   0  0  0  0  0  0  0  0  0  0  0  0  # atno 10718 bound_to 10713
  153.0783  135.6611  154.0099 H   0  0  0  0  0  0  0  0  0  0  0  0  # atno 10763 bound_to 10752
  153.9728  135.2963  155.3427 H   0  0  0  0  0  0  0  0  0  0  0  0  # atno 10764 bound_to 10752
  154.7176  135.5178  153.8833 H   0  0  0  0  0  0  0  0  0  0  0  0  # atno 10765 bound_to 10752
  139.9687  134.6937  156.0492 H   0  0  0  0  0  0  0  0  0  0  0  0  # atno 11005 bound_to 11000
  145.3097  141.0216  143.3561 LP  0  0  0  0  0  0  0  0  0  0  0  0  # atno 17320 bound_to 7965
  144.8945  139.4731  143.6662 LP  0  0  0  0  0  0  0  0  0  0  0  0  # atno 17321 bound_to 7965
  139.4786  144.5669  151.8151 LP  0  0  0  0  0  0  0  0  0  0  0  0  # atno 17342 bound_to 10162
  140.4777  144.1494  150.5927 LP  0  0  0  0  0  0  0  0  0  0  0  0  # atno 17343 bound_to 10162
  157.6008  131.0941  150.8964 LP  0  0  0  0  0  0  0  0  0  0  0  0  # atno 17370 bound_to 10713
  156.9122  130.5284  149.5280 LP  0  0  0  0  0  0  0  0  0  0  0  0  # atno 17371 bound_to 10713
  141.1367  133.6573  156.3613 LP  0  0  0  0  0  0  0  0  0  0  0  0  # atno 17394 bound_to 11000
  140.5340  134.6185  157.5359 LP  0  0  0  0  0  0  0  0  0  0  0  0  # atno 17395 bound_to 11000

$$$$
