AV-unprocessed.smi:958|AV-procd|sdf|4268|dock6
  -GOLD-   22720 2173D 1   1.00000     0.00000
 Structure written by MMmdl.
 31 33  0  0  0  0  0  0  0  0  2 V2000
  153.1172  142.8284  160.6638 C   0  0  0  0  0  0  0  0  0  0  0  0
  153.7098  141.6991  160.2807 N   0  0  0  0  0  0  0  0  0  0  0  0
  153.0543  141.3396  159.1215 N   0  0  0  0  0  0  0  0  0  0  0  0
  152.1232  142.2820  158.9228 C   0  0  0  0  0  0  0  0  0  0  0  0
  151.1651  142.2656  157.7646 C   0  0  1  0  0  0  0  0  0  0  0  0
  151.3960  141.0519  156.8440 C   0  0  0  0  0  0  0  0  0  0  0  0
  150.3986  141.0657  155.6755 C   0  0  0  0  0  0  0  0  0  0  0  0
  148.9515  141.1507  156.1892 C   0  0  0  0  0  0  0  0  0  0  0  0
  148.7756  142.3281  157.0673 N   0  3  0  0  0  0  0  0  0  0  0  0
  149.6948  142.3293  158.2269 C   0  0  0  0  0  0  0  0  0  0  0  0
  152.1390  143.2617  159.8526 N   0  0  0  0  0  0  0  0  0  0  0  0
  151.2867  144.4290  160.0070 C   0  0  0  0  0  0  0  0  0  0  0  0
  151.2175  145.3169  158.7854 C   0  0  0  0  0  0  0  0  0  0  0  0
  152.0133  145.7554  159.9946 C   0  0  0  0  0  0  0  0  0  0  0  0
  153.4075  143.3563  161.5604 H   0  0  0  0  0  0  0  0  0  0  0  0
  151.3410  143.1600  157.1670 H   0  0  0  0  0  0  0  0  0  0  0  0
  152.4170  141.0562  156.4610 H   0  0  0  0  0  0  0  0  0  0  0  0
  151.2799  140.1263  157.4097 H   0  0  0  0  0  0  0  0  0  0  0  0
  150.6083  141.9162  155.0254 H   0  0  0  0  0  0  0  0  0  0  0  0
  150.5267  140.1709  155.0654 H   0  0  0  0  0  0  0  0  0  0  0  0
  148.2568  141.2242  155.3522 H   0  0  0  0  0  0  0  0  0  0  0  0
  148.6912  140.2469  156.7419 H   0  0  0  0  0  0  0  0  0  0  0  0
  148.9451  143.1619  156.5232 H   0  0  0  0  0  0  0  0  0  0  0  0
  149.4544  141.4809  158.8693 H   0  0  0  0  0  0  0  0  0  0  0  0
  149.5200  143.2324  158.8126 H   0  0  0  0  0  0  0  0  0  0  0  0
  150.4157  144.2645  160.6382 H   0  0  0  0  0  0  0  0  0  0  0  0
  151.7763  145.0200  157.8997 H   0  0  0  0  0  0  0  0  0  0  0  0
  150.2778  145.8297  158.5914 H   0  0  0  0  0  0  0  0  0  0  0  0
  151.5992  146.5585  160.6009 H   0  0  0  0  0  0  0  0  0  0  0  0
  153.0978  145.7577  159.9003 H   0  0  0  0  0  0  0  0  0  0  0  0
  147.8233  142.3469  157.4039 H   0  0  0  0  0  0  0  0  0  0  0  0
  1 11  1  0  0  0  0
  1  2  2  0  0  0  0
  1 15  1  0  0  0  0
  2  3  1  0  0  0  0
  3  4  2  0  0  0  0
  4  5  1  0  0  0  0
  4 11  1  0  0  0  0
  5 10  1  0  0  0  0
  5  6  1  0  0  0  0
  5 16  1  0  0  0  0
  6  7  1  0  0  0  0
  6 17  1  0  0  0  0
  6 18  1  0  0  0  0
  7  8  1  0  0  0  0
  7 19  1  0  0  0  0
  7 20  1  0  0  0  0
  8  9  1  0  0  0  0
  8 21  1  0  0  0  0
  8 22  1  0  0  0  0
  9 10  1  0  0  0  0
  9 23  1  0  0  0  0
  9 31  1  0  0  0  0
 10 24  1  0  0  0  0
 10 25  1  0  0  0  0
 11 12  1  0  0  0  0
 12 14  1  0  0  0  0
 12 13  1  0  0  0  0
 12 26  1  0  0  0  0
 13 14  1  0  0  0  0
 13 27  1  0  0  0  0
 13 28  1  0  0  0  0
 14 29  1  0  0  0  0
 14 30  1  0  0  0  0
M  CHG  1   9   1
M  END
> <s_m_source_file>
AV-unprocessed.smi

> <i_m_source_file_index>
958

> <i_lp_mmshare_version>
43012

> <i_f3d_flags>
0

> <s_epik_input>
W0NIMl0xW0NIMl1bQ0hdMW4yW2NIXW5uYzJbQ0BASF0zW0NIMl1bQ0gyXVtDSDJdW05IXVtDSDJdMw==

> <s_epik_cmdline>
J2VwaWtfcHl0aG9uJywgJy1waCcsICc3LjAnLCAnLXRuJywgJzgnLCAnLW1hJywgJzIwMCcsICctbWV0YWxfYmluZGluZycsICctaW1hZScsICc8aW5maWxlLm1hZT4nLCAnLW9tYWUnLCAnPG91dGZpbGUubWFlPic=

> <r_lp_tautomer_probability>
1

> <r_epik_Ionization_Penalty>
0.000442722

> <r_epik_Ionization_Penalty_Charging>
0.000426856

> <r_epik_Ionization_Penalty_Neutral>
1.58656e-05

> <r_epik_State_Penalty>
-0

> <r_epik_Charging_Adjusted_Penalty>
0.000426856

> <i_epik_Tot_Q>
1

> <i_epik_Tot_abs_Q>
1

> <r_epik_Metal_State_Penalty>
-0

> <b_epik_Metal_Only>
0

> <s_lp_Force_Field>
OPLS_2005

> <r_lp_Energy>
27.2192

> <b_lp_Chiralities_Consistent>
1

> <s_lp_Variant>
AV-unprocessed.smi:958-2

> <Gold.Version>
5.8.1

> <Gold.Id.Protein>
6NUR|6NUR_protein|mol2

> <Gold.PLP.Fitness>
39.3120

> <Gold.PLP.PLP>
-33.3784

> <Gold.PLP.part.hbond>
-1.0000

> <Gold.PLP.part.metal>
0.0000

> <Gold.PLP.part.buried>
-4.9753

> <Gold.PLP.part.nonpolar>
-26.6681

> <Gold.PLP.part.repulsive>
0.0199

> <Gold.PLP.ligand.clash>
0.0000

> <Gold.PLP.ligand.torsion>
0.0804

> <Gold.PLP.Chemscore.Hbond>
2.0000

> <Gold.PLP.Chemscore.CHOScore>
0.0000

> <Gold.PLP.Chemscore.Metal>
0.0000

> <Gold.Chemscore.Hbonds>
donor molecule, donor type, donor heavy atom, donor atom, acceptor molecule, acceptor atom, score
      L1  H     9    23       P1  8028  2.00

> <Gold.PLP.Chemscore.Internal.Correction>
0.0943

> <Gold.Rescore>
     Score         DG    S(hbond)    S(metal)    S(lipo)     H(rot)  DE(clash)    DE(int)     intcor
     13.20     -13.40       1.00        0.00      66.59       1.25       0.12       0.08       ----

> <Gold.Chemscore.Fitness>
13.2005

> <Gold.Chemscore.DG>
-13.4010

> <Gold.Chemscore.ZeroCoef>
-5.4800

> <Gold.Chemscore.Hbond>
0.9963

> <Gold.Chemscore.Metal>
0.0000

> <Gold.Chemscore.Lipo>
66.5905

> <Gold.Chemscore.Internal_Hbond>
0.0000

> <Gold.Chemscore.DEClash>
0.1210

> <Gold.Chemscore.DEInternal>
0.0795

> <Gold.Chemscore.Rot>
1.2491

> <Gold.Chemscore.Internal.Correction>
   9.000000E+99

> <Gold.Chemscore.Hbonds>
donor molecule, donor type, donor heavy atom, donor atom, acceptor molecule, acceptor atom, score
      L1  H     9    23       P1  8028  0.98

> <Gold.Chemscore.Hbond.Weighted>
-3.3276

> <Gold.Chemscore.Metal.Weighted>
-0.0000

> <Gold.Chemscore.Lipo.Weighted>
-7.7911

> <Gold.Chemscore.Internal_Hbond.Weighted>
0.0000

> <Gold.Chemscore.DEClash.Weighted>
0.1210

> <Gold.Chemscore.DEInternal.Weighted>
0.0795

> <Gold.Chemscore.Rot.Weighted>
3.1977

> <Gold.Chemscore.Internal.Correction.Weighted>
   9.000000E+99

> <Gold.Protein.RotatedTorsions>
[ 6907 6896 6895 6894 ] final  -78.14 input  -60.11 | X-H torsion
[ 7974 7965 7964 7962 ] final   56.81 input  175.53 | X-H torsion
[ 8008 7997 7996 7995 ] final  -12.61 input   59.86 | X-H torsion
[ 10167 10162 10161 10158 ] final  -74.90 input  -65.29 | X-H torsion
[ 10718 10713 10712 10709 ] final  -76.44 input   66.30 | X-H torsion
[ 10763 10752 10751 10750 ] final  -11.51 input  -60.55 | X-H torsion
[ 11005 11000 10999 10996 ] final  -84.66 input  -57.11 | X-H torsion

> <Gold.Protein.ActiveResidues>
 VAL166  LYS551  ARG553  GLY616  TRP617  ASP618  TYR619  PRO620  LYS621  CYS622 
 ASP623  PHE694  ASN695  SER759  ASP760  ASP761  ALA762  ILE779  LEU786  VAL792 
 PHE793  MET794  SER795  GLU796  ALA797  LYS798  CYS799  TRP800  GLU811  SER814 

> <Gold.Protein.RotatedAtoms>
  150.6980  134.4316  159.5250 H   0  0  0  0  0  0  0  0  0  0  0  0  # atno 6907 bound_to 6896
  152.2042  134.8558  160.0514 H   0  0  0  0  0  0  0  0  0  0  0  0  # atno 6908 bound_to 6896
  151.9467  133.3619  159.4022 H   0  0  0  0  0  0  0  0  0  0  0  0  # atno 6909 bound_to 6896
  145.9358  139.3846  143.0393 H   0  0  0  0  0  0  0  0  0  0  0  0  # atno 7974 bound_to 7965
  154.5362  140.2271  155.8718 H   0  0  0  0  0  0  0  0  0  0  0  0  # atno 8008 bound_to 7997
  156.1814  140.3099  155.9118 H   0  0  0  0  0  0  0  0  0  0  0  0  # atno 8009 bound_to 7997
  155.3349  140.0447  157.3034 H   0  0  0  0  0  0  0  0  0  0  0  0  # atno 8010 bound_to 7997
  140.4988  143.2365  151.7787 H   0  0  0  0  0  0  0  0  0  0  0  0  # atno 10167 bound_to 10162
  156.0175  130.4466  150.3194 H   0  0  0  0  0  0  0  0  0  0  0  0  # atno 10718 bound_to 10713
  153.4848  135.7017  153.5917 H   0  0  0  0  0  0  0  0  0  0  0  0  # atno 10763 bound_to 10752
  153.4115  135.3847  155.2053 H   0  0  0  0  0  0  0  0  0  0  0  0  # atno 10764 bound_to 10752
  154.8720  135.3906  154.4301 H   0  0  0  0  0  0  0  0  0  0  0  0  # atno 10765 bound_to 10752
  141.1648  133.7358  156.8901 H   0  0  0  0  0  0  0  0  0  0  0  0  # atno 11005 bound_to 11000
  145.8366  140.9603  143.0821 LP  0  0  0  0  0  0  0  0  0  0  0  0  # atno 17320 bound_to 7965
  144.6771  140.0230  143.7483 LP  0  0  0  0  0  0  0  0  0  0  0  0  # atno 17321 bound_to 7965
  139.4867  144.4550  151.9608 LP  0  0  0  0  0  0  0  0  0  0  0  0  # atno 17342 bound_to 10162
  140.3639  144.2939  150.5929 LP  0  0  0  0  0  0  0  0  0  0  0  0  # atno 17343 bound_to 10162
  157.1295  131.0268  151.2975 LP  0  0  0  0  0  0  0  0  0  0  0  0  # atno 17370 bound_to 10713
  157.4562  130.7627  149.7195 LP  0  0  0  0  0  0  0  0  0  0  0  0  # atno 17371 bound_to 10713
  140.1654  134.9136  157.2768 LP  0  0  0  0  0  0  0  0  0  0  0  0  # atno 17394 bound_to 11000
  140.2562  134.3624  155.7423 LP  0  0  0  0  0  0  0  0  0  0  0  0  # atno 17395 bound_to 11000

$$$$
