AV-unprocessed.smi:912|AV-procd|sdf|4147|dock9
  -GOLD-   22720 2 53D 1   1.00000     0.00000
 Structure written by MMmdl.
 26 26  0  0  0  0  0  0  0  0  3 V2000
  146.8127  138.7740  151.8663 C   0  0  0  0  0  0  0  0  0  0  0  0
  148.0296  138.3694  152.6073 N   0  3  0  0  0  0  0  0  0  0  0  0
  148.0008  138.4550  154.0979 C   0  0  2  0  0  0  0  0  0  0  0  0
  146.7545  137.7256  154.6584 C   0  0  0  0  0  0  0  0  0  0  0  0
  147.9939  139.9655  154.4843 C   0  0  0  0  0  0  0  0  0  0  0  0
  148.9845  140.6774  153.9001 N   0  5  0  0  0  0  0  0  0  0  0  0
  147.1366  140.4020  155.2511 O   0  0  0  0  0  0  0  0  0  0  0  0
  149.2475  137.7450  154.6730 C   0  0  0  0  0  0  0  0  0  0  0  0
  149.1423  136.6198  155.5295 C   0  0  0  0  0  0  0  0  0  0  0  0
  150.3155  135.9956  155.9966 C   0  0  0  0  0  0  0  0  0  0  0  0
  151.5564  136.4009  155.6585 N   0  0  0  0  0  0  0  0  0  0  0  0
  151.6643  137.4548  154.8248 C   0  0  0  0  0  0  0  0  0  0  0  0
  150.5550  138.1495  154.3029 C   0  0  0  0  0  0  0  0  0  0  0  0
  147.0200  138.7555  150.7968 H   0  0  0  0  0  0  0  0  0  0  0  0
  146.4960  139.7845  152.1248 H   0  0  0  0  0  0  0  0  0  0  0  0
  145.9862  138.0882  152.0517 H   0  0  0  0  0  0  0  0  0  0  0  0
  148.2434  137.4156  152.3565 H   0  0  0  0  0  0  0  0  0  0  0  0
  146.7682  137.7037  155.7493 H   0  0  0  0  0  0  0  0  0  0  0  0
  146.7163  136.6909  154.3164 H   0  0  0  0  0  0  0  0  0  0  0  0
  145.8203  138.2045  154.3634 H   0  0  0  0  0  0  0  0  0  0  0  0
  149.1200  140.6061  152.8848 H   0  0  0  0  0  0  0  0  0  0  0  0
  148.1825  136.2267  155.8309 H   0  0  0  0  0  0  0  0  0  0  0  0
  150.2537  135.1409  156.6538 H   0  0  0  0  0  0  0  0  0  0  0  0
  152.6679  137.7517  154.5576 H   0  0  0  0  0  0  0  0  0  0  0  0
  150.7265  138.9729  153.6263 H   0  0  0  0  0  0  0  0  0  0  0  0
  148.7910  138.9594  152.3019 H   0  0  0  0  0  0  0  0  0  0  0  0
  1  2  1  0  0  0  0
  1 14  1  0  0  0  0
  1 15  1  0  0  0  0
  1 16  1  0  0  0  0
  2  3  1  0  0  0  0
  2 17  1  0  0  0  0
  2 26  1  0  0  0  0
  3  4  1  0  0  0  0
  3  5  1  0  0  0  0
  3  8  1  0  0  0  0
  4 18  1  0  0  0  0
  4 19  1  0  0  0  0
  4 20  1  0  0  0  0
  5  6  1  0  0  0  0
  5  7  2  0  0  0  0
  6 21  1  0  0  0  0
  8 13  1  0  0  0  0
  8  9  2  0  0  0  0
  9 10  1  0  0  0  0
  9 22  1  0  0  0  0
 10 11  2  0  0  0  0
 10 23  1  0  0  0  0
 11 12  1  0  0  0  0
 12 13  2  0  0  0  0
 12 24  1  0  0  0  0
 13 25  1  0  0  0  0
M  CHG  1   2   1
M  CHG  1   6  -1
M  END
> <s_m_source_file>
AV-unprocessed.smi

> <i_m_source_file_index>
912

> <i_lp_mmshare_version>
43012

> <i_f3d_flags>
0

> <s_epik_input>
W0NIM11bTkhdW0NAQF0oW0NIM10pKEMoPU8pW05IMl0pYzFbY0hdW2NIXW5bY0hdW2NIXTE=

> <s_epik_cmdline>
J2VwaWtfcHl0aG9uJywgJy1waCcsICc3LjAnLCAnLXRuJywgJzgnLCAnLW1hJywgJzIwMCcsICctbWV0YWxfYmluZGluZycsICctaW1hZScsICc8aW5maWxlLm1hZT4nLCAnLW9tYWUnLCAnPG91dGZpbGUubWFlPic=

> <r_epik_Ionization_Penalty>
6.88213

> <r_epik_Ionization_Penalty_Charging>
6.88153

> <r_epik_Ionization_Penalty_Neutral>
0.000601258

> <r_epik_State_Penalty>
7.02604

> <r_epik_Charging_Adjusted_Penalty>
13.9076

> <i_epik_Tot_Q>
0

> <i_epik_Tot_abs_Q>
2

> <r_epik_Metal_State_Penalty>
3.10652

> <b_epik_Metal_Only>
1

> <s_lp_Force_Field>
OPLS_2005

> <r_lp_Energy>
7.66147

> <b_lp_Chiralities_Consistent>
1

> <s_lp_Variant>
AV-unprocessed.smi:912-8

> <Gold.Version>
5.8.1

> <Gold.Id.Protein>
6NUR|6NUR_protein|mol2

> <Gold.PLP.Fitness>
38.3654

> <Gold.PLP.PLP>
-24.1497

> <Gold.PLP.part.hbond>
-5.9562

> <Gold.PLP.part.metal>
0.0000

> <Gold.PLP.part.buried>
-4.0892

> <Gold.PLP.part.nonpolar>
-14.4018

> <Gold.PLP.part.repulsive>
0.2050

> <Gold.PLP.ligand.clash>
0.0000

> <Gold.PLP.ligand.torsion>
0.2329

> <Gold.PLP.Chemscore.Hbond>
4.8844

> <Gold.PLP.Chemscore.CHOScore>
0.0000

> <Gold.PLP.Chemscore.Metal>
0.0000

> <Gold.Chemscore.Hbonds>
donor molecule, donor type, donor heavy atom, donor atom, acceptor molecule, acceptor atom, score
      L1  H     2    17       P1  7948  1.59
      L1  H     2    26       P1  7957  1.00
      L1  H     6    21       P1  7957  1.00
      P1  H 10752 10763       L1    11  0.45

> <Gold.PLP.Chemscore.Internal.Correction>
0.0284

> <Gold.Rescore>
     Score         DG    S(hbond)    S(metal)    S(lipo)     H(rot)  DE(clash)    DE(int)     intcor
     16.86     -18.09       3.62        0.00      44.00       1.80       0.05       1.18       ----

> <Gold.Chemscore.Fitness>
16.8611

> <Gold.Chemscore.DG>
-18.0922

> <Gold.Chemscore.ZeroCoef>
-5.4800

> <Gold.Chemscore.Hbond>
3.6174

> <Gold.Chemscore.Metal>
0.0000

> <Gold.Chemscore.Lipo>
43.9967

> <Gold.Chemscore.Internal_Hbond>
0.0000

> <Gold.Chemscore.DEClash>
0.0500

> <Gold.Chemscore.DEInternal>
1.1811

> <Gold.Chemscore.Rot>
1.8037

> <Gold.Chemscore.Internal.Correction>
   9.000000E+99

> <Gold.Chemscore.Hbonds>
donor molecule, donor type, donor heavy atom, donor atom, acceptor molecule, acceptor atom, score
      L1  H     2    17       P1  7948  0.78
      L1  H     2    26       P1  7957  0.95
      L1  H     6    21       P1  7957  1.00
      P1  H 10752 10763       L1    11  0.02

> <Gold.Chemscore.Hbond.Weighted>
-12.0820

> <Gold.Chemscore.Metal.Weighted>
-0.0000

> <Gold.Chemscore.Lipo.Weighted>
-5.1476

> <Gold.Chemscore.Internal_Hbond.Weighted>
0.0000

> <Gold.Chemscore.DEClash.Weighted>
0.0500

> <Gold.Chemscore.DEInternal.Weighted>
1.1811

> <Gold.Chemscore.Rot.Weighted>
4.6174

> <Gold.Chemscore.Internal.Correction.Weighted>
   9.000000E+99

> <Gold.Protein.RotatedTorsions>
[ 6907 6896 6895 6894 ] final   26.49 input  -60.11 | X-H torsion
[ 7974 7965 7964 7962 ] final  165.95 input  175.53 | X-H torsion
[ 8008 7997 7996 7995 ] final -169.87 input   59.86 | X-H torsion
[ 10167 10162 10161 10158 ] final  -83.92 input  -65.29 | X-H torsion
[ 10718 10713 10712 10709 ] final -166.11 input   66.30 | X-H torsion
[ 10763 10752 10751 10750 ] final   66.02 input  -60.55 | X-H torsion
[ 11005 11000 10999 10996 ] final  -88.97 input  -57.11 | X-H torsion

> <Gold.Protein.ActiveResidues>
 VAL166  LYS551  ARG553  GLY616  TRP617  ASP618  TYR619  PRO620  LYS621  CYS622 
 ASP623  PHE694  ASN695  SER759  ASP760  ASP761  ALA762  ILE779  LEU786  VAL792 
 PHE793  MET794  SER795  GLU796  ALA797  LYS798  CYS799  TRP800  GLU811  SER814 

> <Gold.Protein.RotatedAtoms>
  151.9882  134.9993  160.0560 H   0  0  0  0  0  0  0  0  0  0  0  0  # atno 6907 bound_to 6896
  152.1633  133.4591  159.4880 H   0  0  0  0  0  0  0  0  0  0  0  0  # atno 6908 bound_to 6896
  150.6891  134.1962  159.4347 H   0  0  0  0  0  0  0  0  0  0  0  0  # atno 6909 bound_to 6896
  144.7482  139.8545  143.6375 H   0  0  0  0  0  0  0  0  0  0  0  0  # atno 7974 bound_to 7965
  155.9107  140.1057  157.1281 H   0  0  0  0  0  0  0  0  0  0  0  0  # atno 8008 bound_to 7997
  154.4039  140.1275  156.4619 H   0  0  0  0  0  0  0  0  0  0  0  0  # atno 8009 bound_to 7997
  155.7313  140.3468  155.5063 H   0  0  0  0  0  0  0  0  0  0  0  0  # atno 8010 bound_to 7997
  140.4181  143.2595  151.8927 H   0  0  0  0  0  0  0  0  0  0  0  0  # atno 10167 bound_to 10162
  156.6632  130.9054  151.3032 H   0  0  0  0  0  0  0  0  0  0  0  0  # atno 10718 bound_to 10713
  153.0121  135.5335  154.6758 H   0  0  0  0  0  0  0  0  0  0  0  0  # atno 10763 bound_to 10752
  154.5931  135.2861  155.0617 H   0  0  0  0  0  0  0  0  0  0  0  0  # atno 10764 bound_to 10752
  154.1702  135.6533  153.5060 H   0  0  0  0  0  0  0  0  0  0  0  0  # atno 10765 bound_to 10752
  141.1593  133.7602  156.9528 H   0  0  0  0  0  0  0  0  0  0  0  0  # atno 11005 bound_to 11000
  146.1392  139.4445  143.0119 LP  0  0  0  0  0  0  0  0  0  0  0  0  # atno 17320 bound_to 7965
  145.7044  141.0126  143.1487 LP  0  0  0  0  0  0  0  0  0  0  0  0  # atno 17321 bound_to 7965
  139.4782  144.5466  151.8449 LP  0  0  0  0  0  0  0  0  0  0  0  0  # atno 17342 bound_to 10162
  140.4564  144.1784  150.5902 LP  0  0  0  0  0  0  0  0  0  0  0  0  # atno 17343 bound_to 10162
  157.7102  130.9432  150.1065 LP  0  0  0  0  0  0  0  0  0  0  0  0  # atno 17370 bound_to 10713
  156.1995  130.3659  149.8806 LP  0  0  0  0  0  0  0  0  0  0  0  0  # atno 17371 bound_to 10713
  140.1245  134.9395  157.2251 LP  0  0  0  0  0  0  0  0  0  0  0  0  # atno 17394 bound_to 11000
  140.3030  134.3110  155.7285 LP  0  0  0  0  0  0  0  0  0  0  0  0  # atno 17395 bound_to 11000

$$$$
