AV-unprocessed.smi:292|AV-procd|sdf|2249|dock5
  -GOLD-   2262022133D 1   1.00000     0.00000
 Structure written by MMmdl.
 33 34  0  0  0  0  0  0  0  0  1 V2000
  145.0089  143.7818  155.9347 N   0  0  0  0  0  0  0  0  0  0  0  0
  145.7616  143.0495  155.4485 C   0  0  0  0  0  0  0  0  0  0  0  0
  146.7065  142.1298  154.8380 C   0  0  0  0  0  0  0  0  0  0  0  0
  146.5906  141.7521  153.5317 N   0  0  0  0  0  0  0  0  0  0  0  0
  147.6374  140.9398  153.4587 C   0  0  0  0  0  0  0  0  0  0  0  0
  148.3214  140.8300  154.6026 N   0  0  0  0  0  0  0  0  0  0  0  0
  149.4948  140.0336  154.9275 C   0  0  0  0  0  0  0  0  0  0  0  0
  150.4844  140.7555  155.8539 C   0  0  0  0  0  0  0  0  0  0  0  0
  151.6823  140.7548  155.5729 O   0  0  0  0  0  0  0  0  0  0  0  0
  149.9917  141.3487  156.9547 N   0  0  0  0  0  0  0  0  0  0  0  0
  150.7556  142.1008  157.9480 C   0  0  2  0  0  0  0  0  0  0  0  0
  151.1157  143.5086  157.4065 C   0  0  0  0  0  0  0  0  0  0  0  0
  152.3838  144.1603  157.9963 C   0  0  0  0  0  0  0  0  0  0  0  0
  152.4232  144.2655  159.5343 C   0  0  0  0  0  0  0  0  0  0  0  0
  152.2050  142.9536  160.3246 C   0  0  0  0  0  0  0  0  0  0  0  0
  152.5684  141.7422  159.5904 N   0  0  0  0  0  0  0  0  0  0  0  0
  151.9354  141.2764  158.4997 C   0  0  0  0  0  0  0  0  0  0  0  0
  152.2922  140.2376  157.9448 O   0  0  0  0  0  0  0  0  0  0  0  0
  147.7217  141.6168  155.5298 N   0  0  0  0  0  0  0  0  0  0  0  0
  147.9063  140.4077  152.5579 H   0  0  0  0  0  0  0  0  0  0  0  0
  149.1694  139.1095  155.4065 H   0  0  0  0  0  0  0  0  0  0  0  0
  149.9976  139.7546  154.0003 H   0  0  0  0  0  0  0  0  0  0  0  0
  148.9939  141.3042  157.1046 H   0  0  0  0  0  0  0  0  0  0  0  0
  150.0876  142.2403  158.7992 H   0  0  0  0  0  0  0  0  0  0  0  0
  151.2518  143.4545  156.3255 H   0  0  0  0  0  0  0  0  0  0  0  0
  150.2647  144.1734  157.5601 H   0  0  0  0  0  0  0  0  0  0  0  0
  153.2641  143.6173  157.6497 H   0  0  0  0  0  0  0  0  0  0  0  0
  152.4880  145.1611  157.5764 H   0  0  0  0  0  0  0  0  0  0  0  0
  153.3958  144.6746  159.8096 H   0  0  0  0  0  0  0  0  0  0  0  0
  151.6927  145.0032  159.8683 H   0  0  0  0  0  0  0  0  0  0  0  0
  152.7852  142.9845  161.2471 H   0  0  0  0  0  0  0  0  0  0  0  0
  151.1649  142.8786  160.6440 H   0  0  0  0  0  0  0  0  0  0  0  0
  153.3486  141.2088  159.9463 H   0  0  0  0  0  0  0  0  0  0  0  0
  1  2  3  0  0  0  0
  2  3  1  0  0  0  0
  3 19  2  0  0  0  0
  3  4  1  0  0  0  0
  4  5  2  0  0  0  0
  5  6  1  0  0  0  0
  5 20  1  0  0  0  0
  6  7  1  0  0  0  0
  6 19  1  0  0  0  0
  7  8  1  0  0  0  0
  7 21  1  0  0  0  0
  7 22  1  0  0  0  0
  8  9  2  0  0  0  0
  8 10  1  0  0  0  0
 10 11  1  0  0  0  0
 10 23  1  0  0  0  0
 11 17  1  0  0  0  0
 11 12  1  0  0  0  0
 11 24  1  0  0  0  0
 12 13  1  0  0  0  0
 12 25  1  0  0  0  0
 12 26  1  0  0  0  0
 13 14  1  0  0  0  0
 13 27  1  0  0  0  0
 13 28  1  0  0  0  0
 14 15  1  0  0  0  0
 14 29  1  0  0  0  0
 14 30  1  0  0  0  0
 15 16  1  0  0  0  0
 15 31  1  0  0  0  0
 15 32  1  0  0  0  0
 16 17  1  0  0  0  0
 16 33  1  0  0  0  0
 17 18  2  0  0  0  0
M  END
> <s_m_source_file>
AV-unprocessed.smi

> <i_m_source_file_index>
292

> <i_lp_mmshare_version>
43012

> <i_f3d_flags>
0

> <s_epik_input>
TiNDYzFuW2NIXW4objEpW0NIMl1DKD1PKVtOSF1bQ0BASF0yW0NIMl1bQ0gyXVtDSDJdW0NIMl1bTkhdQzI9Tw==

> <s_epik_cmdline>
J2VwaWtfcHl0aG9uJywgJy1waCcsICc3LjAnLCAnLXRuJywgJzgnLCAnLW1hJywgJzIwMCcsICctbWV0YWxfYmluZGluZycsICctaW1hZScsICc8aW5maWxlLm1hZT4nLCAnLW9tYWUnLCAnPG91dGZpbGUubWFlPic=

> <r_lp_tautomer_probability>
1

> <r_epik_Ionization_Penalty>
1.99744e-07

> <r_epik_Ionization_Penalty_Charging>
0

> <r_epik_Ionization_Penalty_Neutral>
1.99744e-07

> <r_epik_State_Penalty>
-0

> <r_epik_Charging_Adjusted_Penalty>
0

> <i_epik_Tot_Q>
0

> <i_epik_Tot_abs_Q>
0

> <r_epik_Metal_State_Penalty>
-0

> <b_epik_Metal_Only>
0

> <s_lp_Force_Field>
OPLS_2005

> <r_lp_Energy>
19.194

> <b_lp_Chiralities_Consistent>
1

> <s_lp_Variant>
AV-unprocessed.smi:292-1

> <Gold.Version>
5.8.1

> <Gold.Id.Protein>
6NUR|6NUR_protein|mol2

> <Gold.PLP.Fitness>
37.4295

> <Gold.PLP.PLP>
-33.5217

> <Gold.PLP.part.hbond>
-1.0000

> <Gold.PLP.part.metal>
0.0000

> <Gold.PLP.part.buried>
-1.9725

> <Gold.PLP.part.nonpolar>
-30.7879

> <Gold.PLP.part.repulsive>
0.5851

> <Gold.PLP.ligand.clash>
0.0000

> <Gold.PLP.ligand.torsion>
0.5569

> <Gold.PLP.Chemscore.Hbond>
0.6560

> <Gold.PLP.Chemscore.CHOScore>
1.0000

> <Gold.PLP.Chemscore.Metal>
0.0000

> <Gold.Chemscore.Hbonds>
donor molecule, donor type, donor heavy atom, donor atom, acceptor molecule, acceptor atom, score
      P1  H  7989  7998       L1     9  0.59
      L1  C     5    20       P1  7957  1.00

> <Gold.PLP.Chemscore.Internal.Correction>
0.0535

> <Gold.Rescore>
     Score         DG    S(hbond)    S(metal)    S(lipo)     H(rot)  DE(clash)    DE(int)     intcor
      3.91     -10.40       0.90        0.00      63.31       2.14       0.34       6.15       ----

> <Gold.Chemscore.Fitness>
3.9097

> <Gold.Chemscore.DG>
-10.4034

> <Gold.Chemscore.ZeroCoef>
-5.4800

> <Gold.Chemscore.Hbond>
0.9000

> <Gold.Chemscore.Metal>
0.0000

> <Gold.Chemscore.Lipo>
63.3080

> <Gold.Chemscore.Internal_Hbond>
0.0000

> <Gold.Chemscore.DEClash>
0.3443

> <Gold.Chemscore.DEInternal>
6.1493

> <Gold.Chemscore.Rot>
2.1444

> <Gold.Chemscore.Internal.Correction>
   9.000000E+99

> <Gold.Chemscore.Hbonds>
donor molecule, donor type, donor heavy atom, donor atom, acceptor molecule, acceptor atom, score
      P1  H  7989  7998       L1     9  0.22

> <Gold.Chemscore.Hbond.Weighted>
-3.0060

> <Gold.Chemscore.Metal.Weighted>
-0.0000

> <Gold.Chemscore.Lipo.Weighted>
-7.4070

> <Gold.Chemscore.Internal_Hbond.Weighted>
0.0000

> <Gold.Chemscore.DEClash.Weighted>
0.3443

> <Gold.Chemscore.DEInternal.Weighted>
6.1493

> <Gold.Chemscore.Rot.Weighted>
5.4896

> <Gold.Chemscore.Internal.Correction.Weighted>
   9.000000E+99

> <Gold.Protein.RotatedTorsions>
[ 6907 6896 6895 6894 ] final  -84.68 input  -60.11 | X-H torsion
[ 7974 7965 7964 7962 ] final   18.34 input  175.53 | X-H torsion
[ 8008 7997 7996 7995 ] final  -98.77 input   59.86 | X-H torsion
[ 10167 10162 10161 10158 ] final  -68.80 input  -65.29 | X-H torsion
[ 10718 10713 10712 10709 ] final   85.45 input   66.30 | X-H torsion
[ 10763 10752 10751 10750 ] final   89.46 input  -60.55 | X-H torsion
[ 11005 11000 10999 10996 ] final  -97.77 input  -57.11 | X-H torsion

> <Gold.Protein.ActiveResidues>
 VAL166  LYS551  ARG553  GLY616  TRP617  ASP618  TYR619  PRO620  LYS621  CYS622 
 ASP623  PHE694  ASN695  SER759  ASP760  ASP761  ALA762  ILE779  LEU786  VAL792 
 PHE793  MET794  SER795  GLU796  ALA797  LYS798  CYS799  TRP800  GLU811  SER814 

> <Gold.Protein.RotatedAtoms>
  150.6875  134.3322  159.4831 H   0  0  0  0  0  0  0  0  0  0  0  0  # atno 6907 bound_to 6896
  152.1185  134.9220  160.0573 H   0  0  0  0  0  0  0  0  0  0  0  0  # atno 6908 bound_to 6896
  152.0435  133.3953  159.4384 H   0  0  0  0  0  0  0  0  0  0  0  0  # atno 6909 bound_to 6896
  146.2188  139.8472  142.8629 H   0  0  0  0  0  0  0  0  0  0  0  0  # atno 7974 bound_to 7965
  154.8058  140.0452  157.1306 H   0  0  0  0  0  0  0  0  0  0  0  0  # atno 8008 bound_to 7997
  154.9426  140.3054  155.5093 H   0  0  0  0  0  0  0  0  0  0  0  0  # atno 8009 bound_to 7997
  156.2966  140.2303  156.4497 H   0  0  0  0  0  0  0  0  0  0  0  0  # atno 8010 bound_to 7997
  140.5480  143.2312  151.6965 H   0  0  0  0  0  0  0  0  0  0  0  0  # atno 10167 bound_to 10162
  157.6915  131.0175  150.2824 H   0  0  0  0  0  0  0  0  0  0  0  0  # atno 10718 bound_to 10713
  153.1873  135.4469  155.0105 H   0  0  0  0  0  0  0  0  0  0  0  0  # atno 10763 bound_to 10752
  154.8068  135.3278  154.7411 H   0  0  0  0  0  0  0  0  0  0  0  0  # atno 10764 bound_to 10752
  153.7869  135.6973  153.4933 H   0  0  0  0  0  0  0  0  0  0  0  0  # atno 10765 bound_to 10752
  141.1368  133.8195  157.0750 H   0  0  0  0  0  0  0  0  0  0  0  0  # atno 11005 bound_to 11000
  145.2839  141.0147  143.3702 LP  0  0  0  0  0  0  0  0  0  0  0  0  # atno 17320 bound_to 7965
  144.9129  139.4506  143.6578 LP  0  0  0  0  0  0  0  0  0  0  0  0  # atno 17321 bound_to 7965
  139.5015  144.3864  152.0324 LP  0  0  0  0  0  0  0  0  0  0  0  0  # atno 17342 bound_to 10162
  140.2978  144.3681  150.6069 LP  0  0  0  0  0  0  0  0  0  0  0  0  # atno 17343 bound_to 10162
  156.3369  130.3809  149.7442 LP  0  0  0  0  0  0  0  0  0  0  0  0  # atno 17370 bound_to 10713
  156.4964  130.8108  151.3115 LP  0  0  0  0  0  0  0  0  0  0  0  0  # atno 17371 bound_to 10713
  140.0487  134.9817  157.1097 LP  0  0  0  0  0  0  0  0  0  0  0  0  # atno 17394 bound_to 11000
  140.4022  134.2070  155.7163 LP  0  0  0  0  0  0  0  0  0  0  0  0  # atno 17395 bound_to 11000

$$$$
