AV-unprocessed.smi:307|AV-procd|sdf|2284|dock5
  -GOLD-   2262022183D 1   1.00000     0.00000
 Structure written by MMmdl.
 38 39  0  0  0  0  0  0  0  0  1 V2000
  146.2796  139.0634  153.9207 O   0  0  0  0  0  0  0  0  0  0  0  0
  147.1501  138.4648  153.2931 C   0  0  0  0  0  0  0  0  0  0  0  0
  148.4759  138.6264  153.4733 N   0  0  0  0  0  0  0  0  0  0  0  0
  149.1570  139.5141  154.3496 C   0  0  0  0  0  0  0  0  0  0  0  0
  148.5422  140.5833  155.0440 C   0  0  0  0  0  0  0  0  0  0  0  0
  149.3341  141.4010  155.8730 C   0  0  0  0  0  0  0  0  0  0  0  0
  150.7133  141.1340  155.9779 C   0  0  0  0  0  0  0  0  0  0  0  0
  151.4808  141.9375  156.7952 O   0  0  0  0  0  0  0  0  0  0  0  0
  150.8189  142.7940  157.7224 C   0  0  0  0  0  0  0  0  0  0  0  0
  151.8637  143.6267  158.4742 C   0  0  0  0  0  0  0  0  0  0  0  0
  151.2612  144.3266  159.4349 F   0  0  0  0  0  0  0  0  0  0  0  0
  152.7736  142.8290  159.0328 F   0  0  0  0  0  0  0  0  0  0  0  0
  152.4641  144.4751  157.6399 F   0  0  0  0  0  0  0  0  0  0  0  0
  151.3119  140.1210  155.3041 N   0  0  0  0  0  0  0  0  0  0  0  0
  150.5470  139.3408  154.5116 C   0  0  0  0  0  0  0  0  0  0  0  0
  146.8276  137.5523  152.3580 N   0  0  0  0  0  0  0  0  0  0  0  0
  145.4955  137.1335  151.9152 C   0  0  0  0  0  0  0  0  0  0  0  0
  144.6040  136.7627  153.1143 C   0  0  0  0  0  0  0  0  0  0  0  0
  143.2697  136.1675  152.6365 C   0  0  0  0  0  0  0  0  0  0  0  0
  143.5093  135.0393  151.8022 O   0  0  0  0  0  0  0  0  0  0  0  0
  144.2291  135.3683  150.6190 C   0  0  0  0  0  0  0  0  0  0  0  0
  145.6182  135.9178  150.9839 C   0  0  0  0  0  0  0  0  0  0  0  0
  149.0692  138.0055  152.9428 H   0  0  0  0  0  0  0  0  0  0  0  0
  147.4904  140.8025  154.9509 H   0  0  0  0  0  0  0  0  0  0  0  0
  148.8904  142.2217  156.4172 H   0  0  0  0  0  0  0  0  0  0  0  0
  150.1297  143.4587  157.1987 H   0  0  0  0  0  0  0  0  0  0  0  0
  150.2385  142.2038  158.4338 H   0  0  0  0  0  0  0  0  0  0  0  0
  151.0646  138.5476  153.9920 H   0  0  0  0  0  0  0  0  0  0  0  0
  147.6015  137.0856  151.9073 H   0  0  0  0  0  0  0  0  0  0  0  0
  145.0236  137.9395  151.3503 H   0  0  0  0  0  0  0  0  0  0  0  0
  145.1160  136.0339  153.7444 H   0  0  0  0  0  0  0  0  0  0  0  0
  144.4157  137.6361  153.7391 H   0  0  0  0  0  0  0  0  0  0  0  0
  142.6732  135.8521  153.4927 H   0  0  0  0  0  0  0  0  0  0  0  0
  142.6829  136.9131  152.0978 H   0  0  0  0  0  0  0  0  0  0  0  0
  144.3300  134.4714  150.0076 H   0  0  0  0  0  0  0  0  0  0  0  0
  143.6667  136.0934  150.0289 H   0  0  0  0  0  0  0  0  0  0  0  0
  146.1622  136.1873  150.0780 H   0  0  0  0  0  0  0  0  0  0  0  0
  146.1954  135.1316  151.4728 H   0  0  0  0  0  0  0  0  0  0  0  0
  1  2  2  0  0  0  0
  2  3  1  0  0  0  0
  2 16  1  0  0  0  0
  3  4  1  0  0  0  0
  3 23  1  0  0  0  0
  4 15  1  0  0  0  0
  4  5  2  0  0  0  0
  5  6  1  0  0  0  0
  5 24  1  0  0  0  0
  6  7  2  0  0  0  0
  6 25  1  0  0  0  0
  7  8  1  0  0  0  0
  7 14  1  0  0  0  0
  8  9  1  0  0  0  0
  9 10  1  0  0  0  0
  9 26  1  0  0  0  0
  9 27  1  0  0  0  0
 10 11  1  0  0  0  0
 10 12  1  0  0  0  0
 10 13  1  0  0  0  0
 14 15  2  0  0  0  0
 15 28  1  0  0  0  0
 16 17  1  0  0  0  0
 16 29  1  0  0  0  0
 17 22  1  0  0  0  0
 17 18  1  0  0  0  0
 17 30  1  0  0  0  0
 18 19  1  0  0  0  0
 18 31  1  0  0  0  0
 18 32  1  0  0  0  0
 19 20  1  0  0  0  0
 19 33  1  0  0  0  0
 19 34  1  0  0  0  0
 20 21  1  0  0  0  0
 21 22  1  0  0  0  0
 21 35  1  0  0  0  0
 21 36  1  0  0  0  0
 22 37  1  0  0  0  0
 22 38  1  0  0  0  0
M  END
> <s_m_source_file>
AV-unprocessed.smi

> <i_m_source_file_index>
307

> <i_lp_mmshare_version>
43012

> <i_f3d_flags>
0

> <s_epik_input>
W0NIMl0xW0NIMl1PW0NIMl1bQ0gyXVtDSF0xW05IXUMoPU8pW05IXWMyW2NIXVtjSF1jKG5bY0hdMilPW0NIMl1DKEYpKEYpRg==

> <s_epik_cmdline>
J2VwaWtfcHl0aG9uJywgJy1waCcsICc3LjAnLCAnLXRuJywgJzgnLCAnLW1hJywgJzIwMCcsICctbWV0YWxfYmluZGluZycsICctaW1hZScsICc8aW5maWxlLm1hZT4nLCAnLW9tYWUnLCAnPG91dGZpbGUubWFlPic=

> <r_lp_tautomer_probability>
1

> <r_epik_Ionization_Penalty>
3.97058e-05

> <r_epik_Ionization_Penalty_Charging>
0

> <r_epik_Ionization_Penalty_Neutral>
3.97058e-05

> <r_epik_State_Penalty>
-0

> <r_epik_Charging_Adjusted_Penalty>
0

> <i_epik_Tot_Q>
0

> <i_epik_Tot_abs_Q>
0

> <r_epik_Metal_State_Penalty>
-0

> <b_epik_Metal_Only>
0

> <s_lp_Force_Field>
OPLS_2005

> <r_lp_Energy>
20.0098

> <b_lp_Chiralities_Consistent>
1

> <s_lp_Variant>
AV-unprocessed.smi:307-1

> <Gold.Version>
5.8.1

> <Gold.Id.Protein>
6NUR|6NUR_protein|mol2

> <Gold.PLP.Fitness>
47.3805

> <Gold.PLP.PLP>
-42.5455

> <Gold.PLP.part.hbond>
-4.0000

> <Gold.PLP.part.metal>
0.0000

> <Gold.PLP.part.buried>
-2.5031

> <Gold.PLP.part.nonpolar>
-37.9869

> <Gold.PLP.part.repulsive>
0.5425

> <Gold.PLP.ligand.clash>
0.0000

> <Gold.PLP.ligand.torsion>
0.3041

> <Gold.PLP.Chemscore.Hbond>
1.7977

> <Gold.PLP.Chemscore.CHOScore>
0.0000

> <Gold.PLP.Chemscore.Metal>
0.0000

> <Gold.Chemscore.Hbonds>
donor molecule, donor type, donor heavy atom, donor atom, acceptor molecule, acceptor atom, score
      L1  H     3    23       P1  7948  0.80
      L1  H    16    29       P1  7948  1.00

> <Gold.PLP.Chemscore.Internal.Correction>
0.0501

> <Gold.Rescore>
     Score         DG    S(hbond)    S(metal)    S(lipo)     H(rot)  DE(clash)    DE(int)     intcor
     11.89     -15.54       1.87        0.00      70.15       1.71       0.81       2.85       ----

> <Gold.Chemscore.Fitness>
11.8865

> <Gold.Chemscore.DG>
-15.5429

> <Gold.Chemscore.ZeroCoef>
-5.4800

> <Gold.Chemscore.Hbond>
1.8684

> <Gold.Chemscore.Metal>
0.0000

> <Gold.Chemscore.Lipo>
70.1549

> <Gold.Chemscore.Internal_Hbond>
0.0000

> <Gold.Chemscore.DEClash>
0.8107

> <Gold.Chemscore.DEInternal>
2.8457

> <Gold.Chemscore.Rot>
1.7132

> <Gold.Chemscore.Internal.Correction>
   9.000000E+99

> <Gold.Chemscore.Hbonds>
donor molecule, donor type, donor heavy atom, donor atom, acceptor molecule, acceptor atom, score
      L1  H     3    23       P1  7948  0.73
      L1  H    16    29       P1  7948  0.96

> <Gold.Chemscore.Hbond.Weighted>
-6.2406

> <Gold.Chemscore.Metal.Weighted>
-0.0000

> <Gold.Chemscore.Lipo.Weighted>
-8.2081

> <Gold.Chemscore.Internal_Hbond.Weighted>
0.0000

> <Gold.Chemscore.DEClash.Weighted>
0.8107

> <Gold.Chemscore.DEInternal.Weighted>
2.8457

> <Gold.Chemscore.Rot.Weighted>
4.3858

> <Gold.Chemscore.Internal.Correction.Weighted>
   9.000000E+99

> <Gold.Protein.RotatedTorsions>
[ 6907 6896 6895 6894 ] final  150.15 input  -60.11 | X-H torsion
[ 7974 7965 7964 7962 ] final   15.76 input  175.53 | X-H torsion
[ 8008 7997 7996 7995 ] final  126.30 input   59.86 | X-H torsion
[ 10167 10162 10161 10158 ] final  170.61 input  -65.29 | X-H torsion
[ 10718 10713 10712 10709 ] final   70.76 input   66.30 | X-H torsion
[ 10763 10752 10751 10750 ] final -141.71 input  -60.55 | X-H torsion
[ 11005 11000 10999 10996 ] final   41.49 input  -57.11 | X-H torsion

> <Gold.Protein.ActiveResidues>
 VAL166  LYS551  ARG553  GLY616  TRP617  ASP618  TYR619  PRO620  LYS621  CYS622 
 ASP623  PHE694  ASN695  SER759  ASP760  ASP761  ALA762  ILE779  LEU786  VAL792 
 PHE793  MET794  SER795  GLU796  ALA797  LYS798  CYS799  TRP800  GLU811  SER814 

> <Gold.Protein.RotatedAtoms>
  152.1183  133.4339  159.4663 H   0  0  0  0  0  0  0  0  0  0  0  0  # atno 6907 bound_to 6896
  150.6870  134.2565  159.4541 H   0  0  0  0  0  0  0  0  0  0  0  0  # atno 6908 bound_to 6896
  152.0440  134.9694  160.0625 H   0  0  0  0  0  0  0  0  0  0  0  0  # atno 6909 bound_to 6896
  146.2269  139.8847  142.8565 H   0  0  0  0  0  0  0  0  0  0  0  0  # atno 7974 bound_to 7965
  156.2860  140.2696  156.2089 H   0  0  0  0  0  0  0  0  0  0  0  0  # atno 8008 bound_to 7997
  155.0284  140.0386  157.2483 H   0  0  0  0  0  0  0  0  0  0  0  0  # atno 8009 bound_to 7997
  154.7375  140.2718  155.6407 H   0  0  0  0  0  0  0  0  0  0  0  0  # atno 8010 bound_to 7997
  139.5023  144.3577  151.9857 H   0  0  0  0  0  0  0  0  0  0  0  0  # atno 10167 bound_to 10162
  157.6417  130.9493  150.0695 H   0  0  0  0  0  0  0  0  0  0  0  0  # atno 10718 bound_to 10713
  154.8535  135.3516  154.5912 H   0  0  0  0  0  0  0  0  0  0  0  0  # atno 10763 bound_to 10752
  153.6522  135.6993  153.5210 H   0  0  0  0  0  0  0  0  0  0  0  0  # atno 10764 bound_to 10752
  153.2885  135.4242  155.1103 H   0  0  0  0  0  0  0  0  0  0  0  0  # atno 10765 bound_to 10752
  140.1829  134.4081  155.8190 H   0  0  0  0  0  0  0  0  0  0  0  0  # atno 11005 bound_to 11000
  145.2477  141.0032  143.3899 LP  0  0  0  0  0  0  0  0  0  0  0  0  # atno 17320 bound_to 7965
  144.9400  139.4200  143.6453 LP  0  0  0  0  0  0  0  0  0  0  0  0  # atno 17321 bound_to 7965
  140.3013  144.3643  150.6059 LP  0  0  0  0  0  0  0  0  0  0  0  0  # atno 17342 bound_to 10162
  140.5871  143.2169  151.7322 LP  0  0  0  0  0  0  0  0  0  0  0  0  # atno 17343 bound_to 10162
  156.1703  130.3646  149.9174 LP  0  0  0  0  0  0  0  0  0  0  0  0  # atno 17370 bound_to 10713
  156.7151  130.8985  151.3613 LP  0  0  0  0  0  0  0  0  0  0  0  0  # atno 17371 bound_to 10713
  141.2224  133.7009  156.7962 LP  0  0  0  0  0  0  0  0  0  0  0  0  # atno 17394 bound_to 11000
  140.2247  134.8731  157.3414 LP  0  0  0  0  0  0  0  0  0  0  0  0  # atno 17395 bound_to 11000

$$$$
