AV-unprocessed.smi:1644|AV-procd|sdf|6585|dock1
  -GOLD-   22720 7273D 1   1.00000     0.00000
 Structure written by MMmdl.
 49 51  0  0  0  0  0  0  0  0  1 V2000
  146.7381  142.1582  154.3473 C   0  0  0  0  0  0  0  0  0  0  0  0
  147.2942  141.1733  153.3130 C   0  0  0  0  0  0  0  0  0  0  0  0
  147.1902  139.7110  153.7794 C   0  0  0  0  0  0  0  0  0  0  0  0
  148.1627  139.3361  154.9184 C   0  0  1  0  0  0  0  0  0  0  0  0
  148.2075  137.9016  155.1206 N   0  0  0  0  0  0  0  0  0  0  0  0
  149.4302  137.3886  154.9350 C   0  0  0  0  0  0  0  0  0  0  0  0
  149.7199  136.1968  155.0263 O   0  0  0  0  0  0  0  0  0  0  0  0
  150.2684  138.3941  154.6294 N   0  0  0  0  0  0  0  0  0  0  0  0
  151.6912  138.2207  154.3216 C   0  0  0  0  0  0  0  0  0  0  0  0
  152.5858  138.8249  155.4238 C   0  0  2  0  0  0  0  0  0  0  0  0
  153.9278  138.8183  154.9761 O   0  0  0  0  0  0  0  0  0  0  0  0
  152.5103  138.0189  156.7340 C   0  0  0  0  0  0  0  0  0  0  0  0
  153.0516  138.7560  157.8609 N   0  0  0  0  0  0  0  0  0  0  0  0
  153.9992  138.3477  158.7266 C   0  0  0  0  0  0  0  0  0  0  0  0
  154.3478  139.1953  159.6910 N   0  0  0  0  0  0  0  0  0  0  0  0
  153.5313  140.2798  159.4176 C   0  0  0  0  0  0  0  0  0  0  0  0
  153.4087  141.5246  160.0729 C   0  0  0  0  0  0  0  0  0  0  0  0
  152.4951  142.4995  159.6121 C   0  0  0  0  0  0  0  0  0  0  0  0
  152.3963  143.8246  160.3470 C   0  0  0  0  0  0  0  0  0  0  0  0
  151.6852  142.2356  158.4782 C   0  0  0  0  0  0  0  0  0  0  0  0
  150.6971  143.2678  157.9645 C   0  0  0  0  0  0  0  0  0  0  0  0
  151.7947  140.9971  157.8121 C   0  0  0  0  0  0  0  0  0  0  0  0
  152.7076  140.0357  158.2803 C   0  0  0  0  0  0  0  0  0  0  0  0
  149.6284  139.5703  154.5885 C   0  0  0  0  0  0  0  0  0  0  0  0
  150.1161  140.6700  154.3277 O   0  0  0  0  0  0  0  0  0  0  0  0
  146.8317  143.1856  153.9943 H   0  0  0  0  0  0  0  0  0  0  0  0
  147.2739  142.0816  155.2937 H   0  0  0  0  0  0  0  0  0  0  0  0
  145.6819  141.9691  154.5426 H   0  0  0  0  0  0  0  0  0  0  0  0
  146.7557  141.3126  152.3760 H   0  0  0  0  0  0  0  0  0  0  0  0
  148.3373  141.4176  153.1089 H   0  0  0  0  0  0  0  0  0  0  0  0
  146.1692  139.5238  154.1154 H   0  0  0  0  0  0  0  0  0  0  0  0
  147.3487  139.0499  152.9256 H   0  0  0  0  0  0  0  0  0  0  0  0
  147.8977  139.8311  155.8534 H   0  0  0  0  0  0  0  0  0  0  0  0
  147.3918  137.3567  155.3600 H   0  0  0  0  0  0  0  0  0  0  0  0
  151.8861  137.1501  154.2374 H   0  0  0  0  0  0  0  0  0  0  0  0
  151.9420  138.6315  153.3415 H   0  0  0  0  0  0  0  0  0  0  0  0
  152.2899  139.8550  155.6277 H   0  0  0  0  0  0  0  0  0  0  0  0
  154.3912  138.1265  155.4232 H   0  0  0  0  0  0  0  0  0  0  0  0
  151.4732  137.7724  156.9651 H   0  0  0  0  0  0  0  0  0  0  0  0
  153.0435  137.0717  156.6380 H   0  0  0  0  0  0  0  0  0  0  0  0
  154.4614  137.3751  158.6419 H   0  0  0  0  0  0  0  0  0  0  0  0
  154.0256  141.7255  160.9365 H   0  0  0  0  0  0  0  0  0  0  0  0
  151.3956  143.9586  160.7583 H   0  0  0  0  0  0  0  0  0  0  0  0
  152.6073  144.6539  159.6715 H   0  0  0  0  0  0  0  0  0  0  0  0
  153.1071  143.8770  161.1720 H   0  0  0  0  0  0  0  0  0  0  0  0
  150.1474  142.8961  157.0994 H   0  0  0  0  0  0  0  0  0  0  0  0
  151.2169  144.1779  157.6649 H   0  0  0  0  0  0  0  0  0  0  0  0
  149.9722  143.5212  158.7381 H   0  0  0  0  0  0  0  0  0  0  0  0
  151.1857  140.7821  156.9462 H   0  0  0  0  0  0  0  0  0  0  0  0
  1  2  1  0  0  0  0
  1 26  1  0  0  0  0
  1 27  1  0  0  0  0
  1 28  1  0  0  0  0
  2  3  1  0  0  0  0
  2 29  1  0  0  0  0
  2 30  1  0  0  0  0
  3  4  1  0  0  0  0
  3 31  1  0  0  0  0
  3 32  1  0  0  0  0
  4 24  1  0  0  0  0
  4  5  1  0  0  0  0
  4 33  1  0  0  0  0
  5  6  1  0  0  0  0
  5 34  1  0  0  0  0
  6  7  2  0  0  0  0
  6  8  1  0  0  0  0
  8  9  1  0  0  0  0
  8 24  1  0  0  0  0
  9 10  1  0  0  0  0
  9 35  1  0  0  0  0
  9 36  1  0  0  0  0
 10 11  1  0  0  0  0
 10 12  1  0  0  0  0
 10 37  1  0  0  0  0
 11 38  1  0  0  0  0
 12 13  1  0  0  0  0
 12 39  1  0  0  0  0
 12 40  1  0  0  0  0
 13 23  1  0  0  0  0
 13 14  1  0  0  0  0
 14 15  2  0  0  0  0
 14 41  1  0  0  0  0
 15 16  1  0  0  0  0
 16 23  2  0  0  0  0
 16 17  1  0  0  0  0
 17 18  2  0  0  0  0
 17 42  1  0  0  0  0
 18 19  1  0  0  0  0
 18 20  1  0  0  0  0
 19 43  1  0  0  0  0
 19 44  1  0  0  0  0
 19 45  1  0  0  0  0
 20 21  1  0  0  0  0
 20 22  2  0  0  0  0
 21 46  1  0  0  0  0
 21 47  1  0  0  0  0
 21 48  1  0  0  0  0
 22 23  1  0  0  0  0
 22 49  1  0  0  0  0
 24 25  2  0  0  0  0
M  END
> <s_m_source_file>
AV-unprocessed.smi

> <i_m_source_file_index>
1644

> <i_lp_mmshare_version>
43012

> <i_f3d_flags>
0

> <s_epik_input>
W0NIM11bQ0gyXVtDSDJdW0NAQEhdMVtOSF1DKD1PKU4oQzE9TylbQ0gyXVtDQEhdKFtPSF0pW0NIMl1uKFtjSF1uMiljKGMyMylbY0hdYyhbQ0gzXSljKFtjSF0zKVtDSDNd

> <s_epik_cmdline>
J2VwaWtfcHl0aG9uJywgJy1waCcsICc3LjAnLCAnLXRuJywgJzgnLCAnLW1hJywgJzIwMCcsICctbWV0YWxfYmluZGluZycsICctaW1hZScsICc8aW5maWxlLm1hZT4nLCAnLW9tYWUnLCAnPG91dGZpbGUubWFlPic=

> <r_lp_tautomer_probability>
1

> <r_epik_Ionization_Penalty>
0.10693

> <r_epik_Ionization_Penalty_Charging>
0

> <r_epik_Ionization_Penalty_Neutral>
0.10693

> <r_epik_State_Penalty>
0.096713

> <r_epik_Charging_Adjusted_Penalty>
0.096713

> <i_epik_Tot_Q>
0

> <i_epik_Tot_abs_Q>
0

> <r_epik_Metal_State_Penalty>
0.102757

> <b_epik_Metal_Only>
0

> <s_lp_Force_Field>
OPLS_2005

> <r_lp_Energy>
21.5813

> <b_lp_Chiralities_Consistent>
1

> <s_lp_Variant>
AV-unprocessed.smi:1644-2

> <Gold.Version>
5.8.1

> <Gold.Id.Protein>
6NUR|6NUR_protein|mol2

> <Gold.PLP.Fitness>
49.3491

> <Gold.PLP.PLP>
-44.9597

> <Gold.PLP.part.hbond>
-1.9718

> <Gold.PLP.part.metal>
0.0000

> <Gold.PLP.part.buried>
-6.5552

> <Gold.PLP.part.nonpolar>
-36.4763

> <Gold.PLP.part.repulsive>
0.2808

> <Gold.PLP.ligand.clash>
0.0000

> <Gold.PLP.ligand.torsion>
0.3628

> <Gold.PLP.Chemscore.Hbond>
1.6000

> <Gold.PLP.Chemscore.CHOScore>
0.0000

> <Gold.PLP.Chemscore.Metal>
0.0000

> <Gold.Chemscore.Hbonds>
donor molecule, donor type, donor heavy atom, donor atom, acceptor molecule, acceptor atom, score
      P1  H  7989  7998       L1    25  0.77
      P1  H  7997  8009       L1    11  0.83

> <Gold.PLP.Chemscore.Internal.Correction>
0.3150

> <Gold.Rescore>
     Score         DG    S(hbond)    S(metal)    S(lipo)     H(rot)  DE(clash)    DE(int)     intcor
     15.61     -16.16       1.26        0.00     114.97       2.72       0.01       0.54       ----

> <Gold.Chemscore.Fitness>
15.6127

> <Gold.Chemscore.DG>
-16.1617

> <Gold.Chemscore.ZeroCoef>
-5.4800

> <Gold.Chemscore.Hbond>
1.2564

> <Gold.Chemscore.Metal>
0.0000

> <Gold.Chemscore.Lipo>
114.9704

> <Gold.Chemscore.Internal_Hbond>
0.0000

> <Gold.Chemscore.DEClash>
0.0063

> <Gold.Chemscore.DEInternal>
0.5427

> <Gold.Chemscore.Rot>
2.7212

> <Gold.Chemscore.Internal.Correction>
   9.000000E+99

> <Gold.Chemscore.Hbonds>
donor molecule, donor type, donor heavy atom, donor atom, acceptor molecule, acceptor atom, score
      P1  H  7989  7998       L1    25  0.75
      P1  H  7997  8009       L1    11  0.09

> <Gold.Chemscore.Hbond.Weighted>
-4.1964

> <Gold.Chemscore.Metal.Weighted>
-0.0000

> <Gold.Chemscore.Lipo.Weighted>
-13.4515

> <Gold.Chemscore.Internal_Hbond.Weighted>
0.0000

> <Gold.Chemscore.DEClash.Weighted>
0.0063

> <Gold.Chemscore.DEInternal.Weighted>
0.5427

> <Gold.Chemscore.Rot.Weighted>
6.9663

> <Gold.Chemscore.Internal.Correction.Weighted>
   9.000000E+99

> <Gold.Protein.RotatedTorsions>
[ 6907 6896 6895 6894 ] final -112.16 input  -60.11 | X-H torsion
[ 7974 7965 7964 7962 ] final   46.00 input  175.53 | X-H torsion
[ 8008 7997 7996 7995 ] final -126.70 input   59.86 | X-H torsion
[ 10167 10162 10161 10158 ] final   62.22 input  -65.29 | X-H torsion
[ 10718 10713 10712 10709 ] final   90.89 input   66.30 | X-H torsion
[ 10763 10752 10751 10750 ] final -130.19 input  -60.55 | X-H torsion
[ 11005 11000 10999 10996 ] final  141.68 input  -57.11 | X-H torsion

> <Gold.Protein.ActiveResidues>
 VAL166  LYS551  ARG553  GLY616  TRP617  ASP618  TYR619  PRO620  LYS621  CYS622 
 ASP623  PHE694  ASN695  SER759  ASP760  ASP761  ALA762  ILE779  LEU786  VAL792 
 PHE793  MET794  SER795  GLU796  ALA797  LYS798  CYS799  TRP800  GLU811  SER814 

> <Gold.Protein.RotatedAtoms>
  150.7739  133.9130  159.3374 H   0  0  0  0  0  0  0  0  0  0  0  0  # atno 6907 bound_to 6896
  151.7009  135.0928  160.0260 H   0  0  0  0  0  0  0  0  0  0  0  0  # atno 6908 bound_to 6896
  152.3768  133.6454  159.6165 H   0  0  0  0  0  0  0  0  0  0  0  0  # atno 6909 bound_to 6896
  146.0429  139.4903  142.9767 H   0  0  0  0  0  0  0  0  0  0  0  0  # atno 7974 bound_to 7965
  155.2341  140.0426  157.2966 H   0  0  0  0  0  0  0  0  0  0  0  0  # atno 8008 bound_to 7997
  154.5870  140.2416  155.7944 H   0  0  0  0  0  0  0  0  0  0  0  0  # atno 8009 bound_to 7997
  156.2233  140.2963  156.0013 H   0  0  0  0  0  0  0  0  0  0  0  0  # atno 8010 bound_to 7997
  140.1463  144.4505  150.6783 H   0  0  0  0  0  0  0  0  0  0  0  0  # atno 10167 bound_to 10162
  157.6960  131.0387  150.3646 H   0  0  0  0  0  0  0  0  0  0  0  0  # atno 10718 bound_to 10713
  154.8756  135.3870  154.4043 H   0  0  0  0  0  0  0  0  0  0  0  0  # atno 10763 bound_to 10752
  153.4764  135.7030  153.5969 H   0  0  0  0  0  0  0  0  0  0  0  0  # atno 10764 bound_to 10752
  153.4403  135.3857  155.2192 H   0  0  0  0  0  0  0  0  0  0  0  0  # atno 10765 bound_to 10752
  140.0419  134.9300  157.0859 H   0  0  0  0  0  0  0  0  0  0  0  0  # atno 11005 bound_to 11000
  145.6854  141.0179  143.1584 LP  0  0  0  0  0  0  0  0  0  0  0  0  # atno 17320 bound_to 7965
  144.7083  139.8470  143.7423 LP  0  0  0  0  0  0  0  0  0  0  0  0  # atno 17321 bound_to 7965
  140.6730  143.2293  151.5578 LP  0  0  0  0  0  0  0  0  0  0  0  0  # atno 17342 bound_to 10162
  139.5447  144.2552  152.1420 LP  0  0  0  0  0  0  0  0  0  0  0  0  # atno 17343 bound_to 10162
  156.4078  130.3928  149.6913 LP  0  0  0  0  0  0  0  0  0  0  0  0  # atno 17370 bound_to 10713
  156.4208  130.7768  151.2785 LP  0  0  0  0  0  0  0  0  0  0  0  0  # atno 17371 bound_to 10713
  140.4055  134.2037  155.7163 LP  0  0  0  0  0  0  0  0  0  0  0  0  # atno 17394 bound_to 11000
  141.1887  133.8253  157.0983 LP  0  0  0  0  0  0  0  0  0  0  0  0  # atno 17395 bound_to 11000

$$$$
