AV-unprocessed.smi:1007|AV-procd|sdf|4408|dock2
  -GOLD-   22720 2353D 1   1.00000     0.00000
 Structure written by MMmdl.
 57 59  0  0  0  0  0  0  0  0  3 V2000
  155.5523  131.0316  165.8867 C   0  0  0  0  0  0  0  0  0  0  0  0
  154.2626  130.9018  165.3142 O   0  0  0  0  0  0  0  0  0  0  0  0
  153.7367  132.1416  164.8705 C   0  0  0  0  0  0  0  0  0  0  0  0
  154.6441  132.6940  163.7605 C   0  0  0  0  0  0  0  0  0  0  0  0
  154.3161  134.0981  163.4050 N   0  3  2  0  0  0  0  0  0  0  0  0
  155.1565  134.6081  162.2928 C   0  0  0  0  0  0  0  0  0  0  0  0
  154.7256  136.0280  161.8775 C   0  0  0  0  0  0  0  0  0  0  0  0
  154.7571  136.9693  163.0246 N   0  3  2  0  0  0  0  0  0  0  0  0
  156.1335  137.3918  163.3987 C   0  0  0  0  0  0  0  0  0  0  0  0
  156.5914  138.6701  162.6612 C   0  0  2  0  0  0  0  0  0  0  0  0
  157.7893  139.1321  163.2510 O   0  0  0  0  0  0  0  0  0  0  0  0
  155.5617  139.8161  162.7188 C   0  0  0  0  0  0  0  0  0  0  0  0
  154.9993  140.1198  161.4155 N   0  0  0  0  0  0  0  0  0  0  0  0
  155.1801  139.4271  160.2747 C   0  0  0  0  0  0  0  0  0  0  0  0
  154.5491  139.8665  159.1901 N   0  0  0  0  0  0  0  0  0  0  0  0
  153.8908  140.9810  159.6807 C   0  0  0  0  0  0  0  0  0  0  0  0
  153.0350  141.8998  159.0350 C   0  0  0  0  0  0  0  0  0  0  0  0
  152.4566  142.9751  159.7467 C   0  0  0  0  0  0  0  0  0  0  0  0
  151.5415  143.9394  159.0124 C   0  0  0  0  0  0  0  0  0  0  0  0
  152.7330  143.1443  161.1274 C   0  0  0  0  0  0  0  0  0  0  0  0
  152.1243  144.2929  161.9123 C   0  0  0  0  0  0  0  0  0  0  0  0
  153.5874  142.2368  161.7872 C   0  0  0  0  0  0  0  0  0  0  0  0
  154.1550  141.1697  161.0688 C   0  0  0  0  0  0  0  0  0  0  0  0
  153.9337  136.4561  164.1517 C   0  0  0  0  0  0  0  0  0  0  0  0
  154.3337  135.0247  164.5669 C   0  0  0  0  0  0  0  0  0  0  0  0
  155.9100  130.0538  166.2096 H   0  0  0  0  0  0  0  0  0  0  0  0
  155.5329  131.6870  166.7585 H   0  0  0  0  0  0  0  0  0  0  0  0
  156.2667  131.4299  165.1648 H   0  0  0  0  0  0  0  0  0  0  0  0
  152.7089  132.0243  164.5264 H   0  0  0  0  0  0  0  0  0  0  0  0
  153.7148  132.8462  165.7030 H   0  0  0  0  0  0  0  0  0  0  0  0
  155.6928  132.6224  164.0527 H   0  0  0  0  0  0  0  0  0  0  0  0
  154.5265  132.0564  162.8830 H   0  0  0  0  0  0  0  0  0  0  0  0
  156.2063  134.5971  162.5906 H   0  0  0  0  0  0  0  0  0  0  0  0
  155.0669  133.9434  161.4327 H   0  0  0  0  0  0  0  0  0  0  0  0
  155.3509  136.3973  161.0637 H   0  0  0  0  0  0  0  0  0  0  0  0
  153.7079  135.9975  161.4861 H   0  0  0  0  0  0  0  0  0  0  0  0
  156.1804  137.5256  164.4779 H   0  0  0  0  0  0  0  0  0  0  0  0
  156.8396  136.5928  163.1671 H   0  0  0  0  0  0  0  0  0  0  0  0
  156.7975  138.4531  161.6138 H   0  0  0  0  0  0  0  0  0  0  0  0
  158.0385  138.5371  163.9423 H   0  0  0  0  0  0  0  0  0  0  0  0
  154.7462  139.5664  163.3991 H   0  0  0  0  0  0  0  0  0  0  0  0
  156.0258  140.7229  163.1098 H   0  0  0  0  0  0  0  0  0  0  0  0
  155.8020  138.5441  160.2411 H   0  0  0  0  0  0  0  0  0  0  0  0
  152.8250  141.7716  157.9831 H   0  0  0  0  0  0  0  0  0  0  0  0
  151.9233  144.9582  159.0818 H   0  0  0  0  0  0  0  0  0  0  0  0
  150.5390  143.9149  159.4396 H   0  0  0  0  0  0  0  0  0  0  0  0
  151.4608  143.6853  157.9552 H   0  0  0  0  0  0  0  0  0  0  0  0
  152.4174  144.2572  162.9618 H   0  0  0  0  0  0  0  0  0  0  0  0
  151.0357  144.2536  161.8677 H   0  0  0  0  0  0  0  0  0  0  0  0
  152.4535  145.2494  161.5054 H   0  0  0  0  0  0  0  0  0  0  0  0
  153.8062  142.3559  162.8380 H   0  0  0  0  0  0  0  0  0  0  0  0
  153.9785  137.1249  165.0101 H   0  0  0  0  0  0  0  0  0  0  0  0
  152.8911  136.4550  163.8312 H   0  0  0  0  0  0  0  0  0  0  0  0
  153.6405  134.6787  165.3328 H   0  0  0  0  0  0  0  0  0  0  0  0
  155.3240  135.0208  165.0242 H   0  0  0  0  0  0  0  0  0  0  0  0
  154.3077  137.8148  162.7007 H   0  0  0  0  0  0  0  0  0  0  0  0
  153.3687  134.0821  163.0540 H   0  0  0  0  0  0  0  0  0  0  0  0
  1  2  1  0  0  0  0
  1 26  1  0  0  0  0
  1 27  1  0  0  0  0
  1 28  1  0  0  0  0
  2  3  1  0  0  0  0
  3  4  1  0  0  0  0
  3 29  1  0  0  0  0
  3 30  1  0  0  0  0
  4  5  1  0  0  0  0
  4 31  1  0  0  0  0
  4 32  1  0  0  0  0
  5 25  1  0  0  0  0
  5  6  1  0  0  0  0
  5 57  1  0  0  0  0
  6  7  1  0  0  0  0
  6 33  1  0  0  0  0
  6 34  1  0  0  0  0
  7  8  1  0  0  0  0
  7 35  1  0  0  0  0
  7 36  1  0  0  0  0
  8  9  1  0  0  0  0
  8 24  1  0  0  0  0
  8 56  1  0  0  0  0
  9 10  1  0  0  0  0
  9 37  1  0  0  0  0
  9 38  1  0  0  0  0
 10 11  1  0  0  0  0
 10 12  1  0  0  0  0
 10 39  1  0  0  0  0
 11 40  1  0  0  0  0
 12 13  1  0  0  0  0
 12 41  1  0  0  0  0
 12 42  1  0  0  0  0
 13 23  1  0  0  0  0
 13 14  1  0  0  0  0
 14 15  2  0  0  0  0
 14 43  1  0  0  0  0
 15 16  1  0  0  0  0
 16 23  2  0  0  0  0
 16 17  1  0  0  0  0
 17 18  2  0  0  0  0
 17 44  1  0  0  0  0
 18 19  1  0  0  0  0
 18 20  1  0  0  0  0
 19 45  1  0  0  0  0
 19 46  1  0  0  0  0
 19 47  1  0  0  0  0
 20 21  1  0  0  0  0
 20 22  2  0  0  0  0
 21 48  1  0  0  0  0
 21 49  1  0  0  0  0
 21 50  1  0  0  0  0
 22 23  1  0  0  0  0
 22 51  1  0  0  0  0
 24 25  1  0  0  0  0
 24 52  1  0  0  0  0
 24 53  1  0  0  0  0
 25 54  1  0  0  0  0
 25 55  1  0  0  0  0
M  CHG  1   5   1
M  CHG  1   8   1
M  END
> <s_m_source_file>
AV-unprocessed.smi

> <i_m_source_file_index>
1007

> <i_lp_mmshare_version>
43012

> <i_f3d_flags>
0

> <s_epik_input>
W0NIM11PW0NIMl1bQ0gyXU4xW0NIMl1bQ0gyXU4oW0NIMl1bQ0gyXTEpW0NIMl1bQ0BIXShbT0hdKVtDSDJdbihbY0hdbjIpYyhjMjMpW2NIXWMoW0NIM10pYyhbY0hdMylbQ0gzXQ==

> <s_epik_cmdline>
J2VwaWtfcHl0aG9uJywgJy1waCcsICc3LjAnLCAnLXRuJywgJzgnLCAnLW1hJywgJzIwMCcsICctbWV0YWxfYmluZGluZycsICctaW1hZScsICc8aW5maWxlLm1hZT4nLCAnLW9tYWUnLCAnPG91dGZpbGUubWFlPic=

> <r_epik_Ionization_Penalty>
3.88944

> <r_epik_Ionization_Penalty_Charging>
3.80608

> <r_epik_Ionization_Penalty_Neutral>
0.0833653

> <r_epik_State_Penalty>
2.70739

> <r_epik_Charging_Adjusted_Penalty>
6.51347

> <i_epik_Tot_Q>
2

> <i_epik_Tot_abs_Q>
2

> <r_epik_Metal_State_Penalty>
2.62239

> <b_epik_Metal_Only>
0

> <s_lp_Force_Field>
OPLS_2005

> <r_lp_Energy>
30.4149

> <b_lp_Chiralities_Consistent>
1

> <s_lp_Variant>
AV-unprocessed.smi:1007-11

> <Gold.Version>
5.8.1

> <Gold.Id.Protein>
6NUR|6NUR_protein|mol2

> <Gold.PLP.Fitness>
49.7566

> <Gold.PLP.PLP>
-49.2262

> <Gold.PLP.part.hbond>
-1.0000

> <Gold.PLP.part.metal>
0.0000

> <Gold.PLP.part.buried>
-2.1747

> <Gold.PLP.part.nonpolar>
-44.1091

> <Gold.PLP.part.repulsive>
0.0335

> <Gold.PLP.ligand.clash>
0.0000

> <Gold.PLP.ligand.torsion>
1.3482

> <Gold.PLP.Chemscore.Hbond>
1.0000

> <Gold.PLP.Chemscore.CHOScore>
0.0000

> <Gold.PLP.Chemscore.Metal>
0.0000

> <Gold.Chemscore.Hbonds>
donor molecule, donor type, donor heavy atom, donor atom, acceptor molecule, acceptor atom, score
      P1  H  7997  8010       L1    15  1.00

> <Gold.PLP.Chemscore.Internal.Correction>
0.2267

> <Gold.Rescore>
     Score         DG    S(hbond)    S(metal)    S(lipo)     H(rot)  DE(clash)    DE(int)     intcor
     18.05     -19.48       0.91        0.00     151.37       2.63       0.07       1.35       ----

> <Gold.Chemscore.Fitness>
18.0546

> <Gold.Chemscore.DG>
-19.4774

> <Gold.Chemscore.ZeroCoef>
-5.4800

> <Gold.Chemscore.Hbond>
0.9078

> <Gold.Chemscore.Metal>
0.0000

> <Gold.Chemscore.Lipo>
151.3686

> <Gold.Chemscore.Internal_Hbond>
0.0000

> <Gold.Chemscore.DEClash>
0.0694

> <Gold.Chemscore.DEInternal>
1.3535

> <Gold.Chemscore.Rot>
2.6347

> <Gold.Chemscore.Internal.Correction>
   9.000000E+99

> <Gold.Chemscore.Hbonds>
donor molecule, donor type, donor heavy atom, donor atom, acceptor molecule, acceptor atom, score
      P1  H  7997  8010       L1    15  0.86

> <Gold.Chemscore.Hbond.Weighted>
-3.0320

> <Gold.Chemscore.Metal.Weighted>
-0.0000

> <Gold.Chemscore.Lipo.Weighted>
-17.7101

> <Gold.Chemscore.Internal_Hbond.Weighted>
0.0000

> <Gold.Chemscore.DEClash.Weighted>
0.0694

> <Gold.Chemscore.DEInternal.Weighted>
1.3535

> <Gold.Chemscore.Rot.Weighted>
6.7448

> <Gold.Chemscore.Internal.Correction.Weighted>
   9.000000E+99

> <Gold.Protein.RotatedTorsions>
[ 6907 6896 6895 6894 ] final -166.99 input  -60.11 | X-H torsion
[ 7974 7965 7964 7962 ] final -136.54 input  175.53 | X-H torsion
[ 8008 7997 7996 7995 ] final   -2.66 input   59.86 | X-H torsion
[ 10167 10162 10161 10158 ] final  179.23 input  -65.29 | X-H torsion
[ 10718 10713 10712 10709 ] final   -7.79 input   66.30 | X-H torsion
[ 10763 10752 10751 10750 ] final   25.69 input  -60.55 | X-H torsion
[ 11005 11000 10999 10996 ] final   22.49 input  -57.11 | X-H torsion

> <Gold.Protein.ActiveResidues>
 VAL166  LYS551  ARG553  GLY616  TRP617  ASP618  TYR619  PRO620  LYS621  CYS622 
 ASP623  PHE694  ASN695  SER759  ASP760  ASP761  ALA762  ILE779  LEU786  VAL792 
 PHE793  MET794  SER795  GLU796  ALA797  LYS798  CYS799  TRP800  GLU811  SER814 

> <Gold.Protein.RotatedAtoms>
  151.4524  133.3614  159.2796 H   0  0  0  0  0  0  0  0  0  0  0  0  # atno 6907 bound_to 6896
  150.9082  134.8499  159.7417 H   0  0  0  0  0  0  0  0  0  0  0  0  # atno 6908 bound_to 6896
  152.4917  134.4451  159.9608 H   0  0  0  0  0  0  0  0  0  0  0  0  # atno 6909 bound_to 6896
  144.8918  140.6653  143.5140 H   0  0  0  0  0  0  0  0  0  0  0  0  # atno 7974 bound_to 7965
  154.6334  140.2529  155.7407 H   0  0  0  0  0  0  0  0  0  0  0  0  # atno 8008 bound_to 7997
  156.2491  140.2902  156.0615 H   0  0  0  0  0  0  0  0  0  0  0  0  # atno 8009 bound_to 7997
  155.1710  140.0386  157.2853 H   0  0  0  0  0  0  0  0  0  0  0  0  # atno 8010 bound_to 7997
  139.5327  144.2586  152.0726 H   0  0  0  0  0  0  0  0  0  0  0  0  # atno 10167 bound_to 10162
  156.7120  130.5125  149.5889 H   0  0  0  0  0  0  0  0  0  0  0  0  # atno 10718 bound_to 10713
  153.0674  135.6577  154.0323 H   0  0  0  0  0  0  0  0  0  0  0  0  # atno 10763 bound_to 10752
  153.9976  135.2940  155.3407 H   0  0  0  0  0  0  0  0  0  0  0  0  # atno 10764 bound_to 10752
  154.7037  135.5234  153.8633 H   0  0  0  0  0  0  0  0  0  0  0  0  # atno 10765 bound_to 10752
  140.3800  134.1931  155.7664 H   0  0  0  0  0  0  0  0  0  0  0  0  # atno 11005 bound_to 11000
  145.3769  139.1645  143.4301 LP  0  0  0  0  0  0  0  0  0  0  0  0  # atno 17320 bound_to 7965
  146.3058  140.3846  142.8687 LP  0  0  0  0  0  0  0  0  0  0  0  0  # atno 17321 bound_to 7965
  140.2052  144.4618  150.6412 LP  0  0  0  0  0  0  0  0  0  0  0  0  # atno 17342 bound_to 10162
  140.6516  143.2226  151.6065 LP  0  0  0  0  0  0  0  0  0  0  0  0  # atno 17343 bound_to 10162
  156.1654  130.6402  151.0771 LP  0  0  0  0  0  0  0  0  0  0  0  0  # atno 17370 bound_to 10713
  157.6932  131.0803  150.7046 LP  0  0  0  0  0  0  0  0  0  0  0  0  # atno 17371 bound_to 10713
  141.1926  133.8168  157.0831 LP  0  0  0  0  0  0  0  0  0  0  0  0  # atno 17394 bound_to 11000
  140.0486  134.9817  157.1094 LP  0  0  0  0  0  0  0  0  0  0  0  0  # atno 17395 bound_to 11000

$$$$
