AV-unprocessed.smi:1244|AV-procd|sdf|5237|dock4
  -GOLD-   22720 4343D 1   1.00000     0.00000
 Structure written by MMmdl.
 55 57  0  0  0  0  0  0  0  0  4 V2000
  145.0728  132.3496  149.7734 C   0  0  0  0  0  0  0  0  0  0  0  0
  145.5929  132.8562  151.1231 C   0  0  2  0  0  0  0  0  0  0  0  0
  146.4927  134.0984  150.9690 C   0  0  0  0  0  0  0  0  0  0  0  0
  147.0365  134.5294  152.2803 N   0  3  1  0  0  0  0  0  0  0  0  0
  146.0547  135.2619  153.1281 C   0  0  0  0  0  0  0  0  0  0  0  0
  146.6017  135.5314  154.5451 C   0  0  0  0  0  0  0  0  0  0  0  0
  146.7479  136.9691  154.7681 N   0  5  0  0  0  0  0  0  0  0  0  0
  147.9119  137.5897  155.0986 C   0  0  0  0  0  0  0  0  0  0  0  0
  149.0392  137.0885  155.1853 O   0  0  0  0  0  0  0  0  0  0  0  0
  147.7356  138.9007  155.3334 N   0  0  0  0  0  0  0  0  0  0  0  0
  148.7286  139.8846  155.5901 C   0  0  0  0  0  0  0  0  0  0  0  0
  150.0133  139.5085  156.0556 C   0  0  0  0  0  0  0  0  0  0  0  0
  150.9597  140.4986  156.3802 C   0  0  0  0  0  0  0  0  0  0  0  0
  150.5992  141.8509  156.2503 C   0  0  0  0  0  0  0  0  0  0  0  0
  149.3634  142.1760  155.8170 N   0  3  0  0  0  0  0  0  0  0  0  0
  148.4137  141.2693  155.4744 C   0  0  0  0  0  0  0  0  0  0  0  0
  147.1654  141.7585  155.0254 N   0  0  0  0  0  0  0  0  0  0  0  0
  146.3015  142.5167  155.9225 C   0  0  0  0  0  0  0  0  0  0  0  0
  145.2443  143.1431  155.0172 C   0  0  0  0  0  0  0  0  0  0  0  0
  146.0328  143.4370  153.7444 C   0  0  0  0  0  0  0  0  0  0  0  0
  147.0466  142.2903  153.6710 C   0  0  0  0  0  0  0  0  0  0  0  0
  147.7205  133.3913  152.9523 C   0  0  0  0  0  0  0  0  0  0  0  0
  146.8108  132.1457  153.0308 C   0  0  2  0  0  0  0  0  0  0  0  0
  147.5513  130.9301  153.5989 C   0  0  0  0  0  0  0  0  0  0  0  0
  146.3529  131.8131  151.7242 O   0  0  0  0  0  0  0  0  0  0  0  0
  144.4742  133.1110  149.2726 H   0  0  0  0  0  0  0  0  0  0  0  0
  144.4452  131.4676  149.9044 H   0  0  0  0  0  0  0  0  0  0  0  0
  145.8943  132.0783  149.1097 H   0  0  0  0  0  0  0  0  0  0  0  0
  144.7355  133.0909  151.7565 H   0  0  0  0  0  0  0  0  0  0  0  0
  147.3315  133.8625  150.3123 H   0  0  0  0  0  0  0  0  0  0  0  0
  145.9539  134.9175  150.4910 H   0  0  0  0  0  0  0  0  0  0  0  0
  145.8236  136.2253  152.6710 H   0  0  0  0  0  0  0  0  0  0  0  0
  145.1097  134.7204  153.1730 H   0  0  0  0  0  0  0  0  0  0  0  0
  145.9430  135.0684  155.2811 H   0  0  0  0  0  0  0  0  0  0  0  0
  147.5587  135.0204  154.6537 H   0  0  0  0  0  0  0  0  0  0  0  0
  146.8061  139.2509  155.1529 H   0  0  0  0  0  0  0  0  0  0  0  0
  150.2752  138.4691  156.1872 H   0  0  0  0  0  0  0  0  0  0  0  0
  151.9419  140.2238  156.7358 H   0  0  0  0  0  0  0  0  0  0  0  0
  151.2547  142.6776  156.4826 H   0  0  0  0  0  0  0  0  0  0  0  0
  145.8549  141.8758  156.6833 H   0  0  0  0  0  0  0  0  0  0  0  0
  146.8699  143.3027  156.4219 H   0  0  0  0  0  0  0  0  0  0  0  0
  144.4559  142.4189  154.8069 H   0  0  0  0  0  0  0  0  0  0  0  0
  144.7839  144.0310  155.4514 H   0  0  0  0  0  0  0  0  0  0  0  0
  145.4020  143.5009  152.8573 H   0  0  0  0  0  0  0  0  0  0  0  0
  146.5600  144.3859  153.8513 H   0  0  0  0  0  0  0  0  0  0  0  0
  148.0044  142.6337  153.2778 H   0  0  0  0  0  0  0  0  0  0  0  0
  146.6726  141.5033  153.0153 H   0  0  0  0  0  0  0  0  0  0  0  0
  148.6156  133.1510  152.3771 H   0  0  0  0  0  0  0  0  0  0  0  0
  148.0654  133.6783  153.9465 H   0  0  0  0  0  0  0  0  0  0  0  0
  145.9491  132.3450  153.6691 H   0  0  0  0  0  0  0  0  0  0  0  0
  147.9142  131.1281  154.6077 H   0  0  0  0  0  0  0  0  0  0  0  0
  148.4091  130.6642  152.9804 H   0  0  0  0  0  0  0  0  0  0  0  0
  146.8941  130.0615  153.6471 H   0  0  0  0  0  0  0  0  0  0  0  0
  147.7494  135.2138  152.0703 H   0  0  0  0  0  0  0  0  0  0  0  0
  149.1318  143.1658  155.7347 H   0  0  0  0  0  0  0  0  0  0  0  0
  1  2  1  0  0  0  0
  1 26  1  0  0  0  0
  1 27  1  0  0  0  0
  1 28  1  0  0  0  0
  2 25  1  0  0  0  0
  2  3  1  0  0  0  0
  2 29  1  0  0  0  0
  3  4  1  0  0  0  0
  3 30  1  0  0  0  0
  3 31  1  0  0  0  0
  4  5  1  0  0  0  0
  4 22  1  0  0  0  0
  4 54  1  0  0  0  0
  5  6  1  0  0  0  0
  5 32  1  0  0  0  0
  5 33  1  0  0  0  0
  6  7  1  0  0  0  0
  6 34  1  0  0  0  0
  6 35  1  0  0  0  0
  7  8  1  0  0  0  0
  8  9  2  0  0  0  0
  8 10  1  0  0  0  0
 10 11  1  0  0  0  0
 10 36  1  0  0  0  0
 11 16  1  0  0  0  0
 11 12  2  0  0  0  0
 12 13  1  0  0  0  0
 12 37  1  0  0  0  0
 13 14  2  0  0  0  0
 13 38  1  0  0  0  0
 14 15  1  0  0  0  0
 14 39  1  0  0  0  0
 15 16  2  0  0  0  0
 15 55  1  0  0  0  0
 16 17  1  0  0  0  0
 17 21  1  0  0  0  0
 17 18  1  0  0  0  0
 18 19  1  0  0  0  0
 18 40  1  0  0  0  0
 18 41  1  0  0  0  0
 19 20  1  0  0  0  0
 19 42  1  0  0  0  0
 19 43  1  0  0  0  0
 20 21  1  0  0  0  0
 20 44  1  0  0  0  0
 20 45  1  0  0  0  0
 21 46  1  0  0  0  0
 21 47  1  0  0  0  0
 22 23  1  0  0  0  0
 22 48  1  0  0  0  0
 22 49  1  0  0  0  0
 23 24  1  0  0  0  0
 23 25  1  0  0  0  0
 23 50  1  0  0  0  0
 24 51  1  0  0  0  0
 24 52  1  0  0  0  0
 24 53  1  0  0  0  0
M  CHG  1   4   1
M  CHG  1   7  -1
M  CHG  1  15   1
M  END
> <s_m_source_file>
AV-unprocessed.smi

> <i_m_source_file_index>
1244

> <i_lp_mmshare_version>
43012

> <i_f3d_flags>
0

> <s_epik_input>
W0NIM11bQ0BASF0xW0NIMl1OKFtDSDJdW0NASF0oTzEpW0NIM10pW0NIMl1bQ0gyXVtOSF1DKD1PKVtOSF1jMltjSF1bY0hdW2NIXW5jMk4zW0NIMl1bQ0gyXVtDSDJdW0NIMl0z

> <s_epik_cmdline>
J2VwaWtfcHl0aG9uJywgJy1waCcsICc3LjAnLCAnLXRuJywgJzgnLCAnLW1hJywgJzIwMCcsICctbWV0YWxfYmluZGluZycsICctaW1hZScsICc8aW5maWxlLm1hZT4nLCAnLW9tYWUnLCAnPG91dGZpbGUubWFlPic=

> <r_lp_tautomer_probability>
0.999994

> <r_epik_Ionization_Penalty>
8.60539

> <r_epik_Ionization_Penalty_Charging>
8.60539

> <r_epik_Ionization_Penalty_Neutral>
3.60441e-06

> <r_epik_State_Penalty>
8.59967

> <r_epik_Charging_Adjusted_Penalty>
17.2051

> <i_epik_Tot_Q>
1

> <i_epik_Tot_abs_Q>
3

> <r_epik_Metal_State_Penalty>
4.59489

> <b_epik_Metal_Only>
1

> <s_lp_Force_Field>
OPLS_2005

> <r_lp_Energy>
45.4407

> <b_lp_Chiralities_Consistent>
1

> <s_lp_Variant>
AV-unprocessed.smi:1244-17

> <Gold.Version>
5.8.1

> <Gold.Id.Protein>
6NUR|6NUR_protein|mol2

> <Gold.PLP.Fitness>
48.4699

> <Gold.PLP.PLP>
-37.2362

> <Gold.PLP.part.hbond>
-2.0000

> <Gold.PLP.part.metal>
0.0000

> <Gold.PLP.part.buried>
-7.5579

> <Gold.PLP.part.nonpolar>
-28.1746

> <Gold.PLP.part.repulsive>
1.1553

> <Gold.PLP.ligand.clash>
0.0023

> <Gold.PLP.ligand.torsion>
0.7628

> <Gold.PLP.Chemscore.Hbond>
4.0000

> <Gold.PLP.Chemscore.CHOScore>
0.0000

> <Gold.PLP.Chemscore.Metal>
0.0000

> <Gold.Chemscore.Hbonds>
donor molecule, donor type, donor heavy atom, donor atom, acceptor molecule, acceptor atom, score
      L1  H     4    54       P1  7948  2.00
      L1  H    15    55       P1  8028  2.00

> <Gold.PLP.Chemscore.Internal.Correction>
0.7616

> <Gold.Rescore>
     Score         DG    S(hbond)    S(metal)    S(lipo)     H(rot)  DE(clash)    DE(int)     intcor
     15.75     -17.97       1.99        0.00      84.98       1.60       0.05       2.17       ----

> <Gold.Chemscore.Fitness>
15.7509

> <Gold.Chemscore.DG>
-17.9725

> <Gold.Chemscore.ZeroCoef>
-5.4800

> <Gold.Chemscore.Hbond>
1.9881

> <Gold.Chemscore.Metal>
0.0000

> <Gold.Chemscore.Lipo>
84.9797

> <Gold.Chemscore.Internal_Hbond>
0.0000

> <Gold.Chemscore.DEClash>
0.0522

> <Gold.Chemscore.DEInternal>
2.1693

> <Gold.Chemscore.Rot>
1.5978

> <Gold.Chemscore.Internal.Correction>
   9.000000E+99

> <Gold.Chemscore.Hbonds>
donor molecule, donor type, donor heavy atom, donor atom, acceptor molecule, acceptor atom, score
      L1  H     4    54       P1  7948  0.90
      L1  H    15    55       P1  8028  0.97

> <Gold.Chemscore.Hbond.Weighted>
-6.6403

> <Gold.Chemscore.Metal.Weighted>
-0.0000

> <Gold.Chemscore.Lipo.Weighted>
-9.9426

> <Gold.Chemscore.Internal_Hbond.Weighted>
0.0000

> <Gold.Chemscore.DEClash.Weighted>
0.0522

> <Gold.Chemscore.DEInternal.Weighted>
2.1693

> <Gold.Chemscore.Rot.Weighted>
4.0905

> <Gold.Chemscore.Internal.Correction.Weighted>
   9.000000E+99

> <Gold.Protein.RotatedTorsions>
[ 6907 6896 6895 6894 ] final -108.90 input  -60.11 | X-H torsion
[ 7974 7965 7964 7962 ] final  -93.43 input  175.53 | X-H torsion
[ 8008 7997 7996 7995 ] final  102.77 input   59.86 | X-H torsion
[ 10167 10162 10161 10158 ] final   50.39 input  -65.29 | X-H torsion
[ 10718 10713 10712 10709 ] final  -40.55 input   66.30 | X-H torsion
[ 10763 10752 10751 10750 ] final  -44.49 input  -60.55 | X-H torsion
[ 11005 11000 10999 10996 ] final   89.45 input  -57.11 | X-H torsion

> <Gold.Protein.ActiveResidues>
 VAL166  LYS551  ARG553  GLY616  TRP617  ASP618  TYR619  PRO620  LYS621  CYS622 
 ASP623  PHE694  ASN695  SER759  ASP760  ASP761  ALA762  ILE779  LEU786  VAL792 
 PHE793  MET794  SER795  GLU796  ALA797  LYS798  CYS799  TRP800  GLU811  SER814 

> <Gold.Protein.RotatedAtoms>
  150.7529  133.9608  159.3514 H   0  0  0  0  0  0  0  0  0  0  0  0  # atno 6907 bound_to 6896
  151.7534  135.0825  160.0344 H   0  0  0  0  0  0  0  0  0  0  0  0  # atno 6908 bound_to 6896
  152.3451  133.6076  159.5940 H   0  0  0  0  0  0  0  0  0  0  0  0  # atno 6909 bound_to 6896
  145.3867  140.9524  143.2363 H   0  0  0  0  0  0  0  0  0  0  0  0  # atno 7974 bound_to 7965
  156.1423  140.3176  155.8515 H   0  0  0  0  0  0  0  0  0  0  0  0  # atno 8008 bound_to 7997
  155.4130  140.0507  157.3047 H   0  0  0  0  0  0  0  0  0  0  0  0  # atno 8009 bound_to 7997
  154.4987  140.2121  155.9405 H   0  0  0  0  0  0  0  0  0  0  0  0  # atno 8010 bound_to 7997
  140.2729  144.3245  150.6285 H   0  0  0  0  0  0  0  0  0  0  0  0  # atno 10167 bound_to 10162
  156.2801  130.4216  149.8345 H   0  0  0  0  0  0  0  0  0  0  0  0  # atno 10718 bound_to 10713
  154.0130  135.6679  153.4766 H   0  0  0  0  0  0  0  0  0  0  0  0  # atno 10763 bound_to 10752
  153.0613  135.5026  154.8095 H   0  0  0  0  0  0  0  0  0  0  0  0  # atno 10764 bound_to 10752
  154.6984  135.3074  154.9341 H   0  0  0  0  0  0  0  0  0  0  0  0  # atno 10765 bound_to 10752
  139.8875  134.8552  156.3144 H   0  0  0  0  0  0  0  0  0  0  0  0  # atno 11005 bound_to 11000
  144.8469  139.5383  143.6874 LP  0  0  0  0  0  0  0  0  0  0  0  0  # atno 17320 bound_to 7965
  146.2817  139.6894  142.9224 LP  0  0  0  0  0  0  0  0  0  0  0  0  # atno 17321 bound_to 7965
  140.5875  143.2169  151.7315 LP  0  0  0  0  0  0  0  0  0  0  0  0  # atno 17342 bound_to 10162
  139.4984  144.3989  152.0202 LP  0  0  0  0  0  0  0  0  0  0  0  0  # atno 17343 bound_to 10162
  156.5796  130.8460  151.3379 LP  0  0  0  0  0  0  0  0  0  0  0  0  # atno 17370 bound_to 10713
  157.7312  130.9696  150.1867 LP  0  0  0  0  0  0  0  0  0  0  0  0  # atno 17371 bound_to 10713
  140.9829  133.7256  156.0698 LP  0  0  0  0  0  0  0  0  0  0  0  0  # atno 17394 bound_to 11000
  140.7726  134.3815  157.5504 LP  0  0  0  0  0  0  0  0  0  0  0  0  # atno 17395 bound_to 11000

$$$$
