AV-unprocessed.smi:2542|AV-procd|sdf|9991|dock3
  -GOLD-   2272014 43D 1   1.00000     0.00000
 Structure written by MMmdl.
 41 42  0  0  0  0  0  0  0  0  1 V2000
  152.0989  144.3463  157.7336 C   0  0  0  0  0  0  0  0  0  0  0  0
  151.5184  144.2344  159.1588 C   0  0  0  0  0  0  0  0  0  0  0  0
  151.6687  145.6239  159.8245 C   0  0  0  0  0  0  0  0  0  0  0  0
  150.0071  143.9014  159.0623 C   0  0  0  0  0  0  0  0  0  0  0  0
  149.7458  142.8322  158.1044 N   0  0  0  0  0  0  0  0  0  0  0  0
  148.6550  142.0515  158.0917 C   0  0  0  0  0  0  0  0  0  0  0  0
  147.7560  142.1628  158.9266 O   0  0  0  0  0  0  0  0  0  0  0  0
  148.5546  140.9834  156.9758 C   0  0  0  0  0  0  0  0  0  0  0  0
  147.4110  140.0736  157.1945 C   0  0  0  0  0  0  0  0  0  0  0  0
  146.5153  139.3607  157.3667 N   0  0  0  0  0  0  0  0  0  0  0  0
  148.4500  141.6635  155.5843 C   0  0  0  0  0  0  0  0  0  0  0  0
  149.6870  141.2521  154.7761 C   0  0  0  0  0  0  0  0  0  0  0  0
  150.7142  140.8157  155.8137 C   0  0  0  0  0  0  0  0  0  0  0  0
  149.8642  140.1636  156.9029 C   0  0  0  0  0  0  0  0  0  0  0  0
  152.2603  143.1260  159.9318 C   0  0  0  0  0  0  0  0  0  0  0  0
  152.6367  143.2577  161.2914 C   0  0  0  0  0  0  0  0  0  0  0  0
  153.2947  142.1856  161.9262 C   0  0  0  0  0  0  0  0  0  0  0  0
  153.5936  141.0249  161.3078 N   0  0  0  0  0  0  0  0  0  0  0  0
  153.2368  140.8956  160.0138 C   0  0  0  0  0  0  0  0  0  0  0  0
  152.5745  141.9056  159.2888 C   0  0  0  0  0  0  0  0  0  0  0  0
  151.6081  145.1381  157.1666 H   0  0  0  0  0  0  0  0  0  0  0  0
  151.9740  143.4241  157.1659 H   0  0  0  0  0  0  0  0  0  0  0  0
  153.1652  144.5737  157.7586 H   0  0  0  0  0  0  0  0  0  0  0  0
  151.1405  146.3914  159.2576 H   0  0  0  0  0  0  0  0  0  0  0  0
  152.7134  145.9322  159.8797 H   0  0  0  0  0  0  0  0  0  0  0  0
  151.2606  145.6412  160.8358 H   0  0  0  0  0  0  0  0  0  0  0  0
  149.6188  143.6262  160.0446 H   0  0  0  0  0  0  0  0  0  0  0  0
  149.4418  144.7788  158.7450 H   0  0  0  0  0  0  0  0  0  0  0  0
  150.4427  142.6867  157.3875 H   0  0  0  0  0  0  0  0  0  0  0  0
  147.5399  141.3724  155.0586 H   0  0  0  0  0  0  0  0  0  0  0  0
  148.4158  142.7516  155.6640 H   0  0  0  0  0  0  0  0  0  0  0  0
  149.4379  140.4054  154.1349 H   0  0  0  0  0  0  0  0  0  0  0  0
  150.0545  142.0540  154.1353 H   0  0  0  0  0  0  0  0  0  0  0  0
  151.4642  140.1387  155.4040 H   0  0  0  0  0  0  0  0  0  0  0  0
  151.2338  141.6872  156.2135 H   0  0  0  0  0  0  0  0  0  0  0  0
  150.3974  140.1112  157.8535 H   0  0  0  0  0  0  0  0  0  0  0  0
  149.6435  139.1351  156.6130 H   0  0  0  0  0  0  0  0  0  0  0  0
  152.4339  144.1495  161.8637 H   0  0  0  0  0  0  0  0  0  0  0  0
  153.5883  142.2638  162.9628 H   0  0  0  0  0  0  0  0  0  0  0  0
  153.4838  139.9569  159.5405 H   0  0  0  0  0  0  0  0  0  0  0  0
  152.3111  141.7346  158.2557 H   0  0  0  0  0  0  0  0  0  0  0  0
  1  2  1  0  0  0  0
  1 21  1  0  0  0  0
  1 22  1  0  0  0  0
  1 23  1  0  0  0  0
  2  3  1  0  0  0  0
  2  4  1  0  0  0  0
  2 15  1  0  0  0  0
  3 24  1  0  0  0  0
  3 25  1  0  0  0  0
  3 26  1  0  0  0  0
  4  5  1  0  0  0  0
  4 27  1  0  0  0  0
  4 28  1  0  0  0  0
  5  6  1  0  0  0  0
  5 29  1  0  0  0  0
  6  7  2  0  0  0  0
  6  8  1  0  0  0  0
  8 14  1  0  0  0  0
  8  9  1  0  0  0  0
  8 11  1  0  0  0  0
  9 10  3  0  0  0  0
 11 12  1  0  0  0  0
 11 30  1  0  0  0  0
 11 31  1  0  0  0  0
 12 13  1  0  0  0  0
 12 32  1  0  0  0  0
 12 33  1  0  0  0  0
 13 14  1  0  0  0  0
 13 34  1  0  0  0  0
 13 35  1  0  0  0  0
 14 36  1  0  0  0  0
 14 37  1  0  0  0  0
 15 20  1  0  0  0  0
 15 16  2  0  0  0  0
 16 17  1  0  0  0  0
 16 38  1  0  0  0  0
 17 18  2  0  0  0  0
 17 39  1  0  0  0  0
 18 19  1  0  0  0  0
 19 20  2  0  0  0  0
 19 40  1  0  0  0  0
 20 41  1  0  0  0  0
M  END
> <s_m_source_file>
AV-unprocessed.smi

> <i_m_source_file_index>
2542

> <i_lp_mmshare_version>
43012

> <i_f3d_flags>
0

> <s_epik_input>
W2NIXTFbY0hdbltjSF1bY0hdYzFDKFtDSDNdKShbQ0gzXSlbQ0gyXVtOSF1DKD1PKUMyKEMjTilbQ0gyXVtDSDJdW0NIMl1bQ0gyXTI=

> <s_epik_cmdline>
J2VwaWtfcHl0aG9uJywgJy1waCcsICc3LjAnLCAnLXRuJywgJzgnLCAnLW1hJywgJzIwMCcsICctbWV0YWxfYmluZGluZycsICctaW1hZScsICc8aW5maWxlLm1hZT4nLCAnLW9tYWUnLCAnPG91dGZpbGUubWFlPic=

> <r_epik_Ionization_Penalty>
0.0480096

> <r_epik_Ionization_Penalty_Charging>
0

> <r_epik_Ionization_Penalty_Neutral>
0.0480096

> <r_epik_State_Penalty>
0.04092

> <r_epik_Charging_Adjusted_Penalty>
0.04092

> <i_epik_Tot_Q>
0

> <i_epik_Tot_abs_Q>
0

> <r_epik_Metal_State_Penalty>
0.0377989

> <b_epik_Metal_Only>
0

> <s_lp_Force_Field>
OPLS_2005

> <r_lp_Energy>
29.6926

> <b_lp_Chiralities_Consistent>
1

> <s_lp_Variant>
AV-unprocessed.smi:2542-1

> <Gold.Version>
5.8.1

> <Gold.Id.Protein>
6NUR|6NUR_protein|mol2

> <Gold.PLP.Fitness>
41.9932

> <Gold.PLP.PLP>
-44.0266

> <Gold.PLP.part.hbond>
-2.3172

> <Gold.PLP.part.metal>
0.0000

> <Gold.PLP.part.buried>
-3.4944

> <Gold.PLP.part.nonpolar>
-38.9517

> <Gold.PLP.part.repulsive>
0.1525

> <Gold.PLP.ligand.clash>
0.0000

> <Gold.PLP.ligand.torsion>
1.2879

> <Gold.PLP.Chemscore.Hbond>
0.1674

> <Gold.PLP.Chemscore.CHOScore>
0.0000

> <Gold.PLP.Chemscore.Metal>
0.0000

> <Gold.Chemscore.Hbonds>
donor molecule, donor type, donor heavy atom, donor atom, acceptor molecule, acceptor atom, score
      P1  H  6934  6946       L1     7  0.08

> <Gold.PLP.Chemscore.Internal.Correction>
0.0400

> <Gold.Rescore>
     Score         DG    S(hbond)    S(metal)    S(lipo)     H(rot)  DE(clash)    DE(int)     intcor
     16.24     -17.00       0.52        0.00     116.24       1.49       0.01       0.75       ----

> <Gold.Chemscore.Fitness>
16.2416

> <Gold.Chemscore.DG>
-17.0021

> <Gold.Chemscore.ZeroCoef>
-5.4800

> <Gold.Chemscore.Hbond>
0.5195

> <Gold.Chemscore.Metal>
0.0000

> <Gold.Chemscore.Lipo>
116.2444

> <Gold.Chemscore.Internal_Hbond>
0.0000

> <Gold.Chemscore.DEClash>
0.0130

> <Gold.Chemscore.DEInternal>
0.7475

> <Gold.Chemscore.Rot>
1.4897

> <Gold.Chemscore.Internal.Correction>
   9.000000E+99

> <Gold.Chemscore.Hbonds>
donor molecule, donor type, donor heavy atom, donor atom, acceptor molecule, acceptor atom, score
      P1  H  6934  6946       L1     7  0.09

> <Gold.Chemscore.Hbond.Weighted>
-1.7350

> <Gold.Chemscore.Metal.Weighted>
-0.0000

> <Gold.Chemscore.Lipo.Weighted>
-13.6006

> <Gold.Chemscore.Internal_Hbond.Weighted>
0.0000

> <Gold.Chemscore.DEClash.Weighted>
0.0130

> <Gold.Chemscore.DEInternal.Weighted>
0.7475

> <Gold.Chemscore.Rot.Weighted>
3.8136

> <Gold.Chemscore.Internal.Correction.Weighted>
   9.000000E+99

> <Gold.Protein.RotatedTorsions>
[ 6907 6896 6895 6894 ] final   45.19 input  -60.11 | X-H torsion
[ 7974 7965 7964 7962 ] final -120.17 input  175.53 | X-H torsion
[ 8008 7997 7996 7995 ] final   -7.97 input   59.86 | X-H torsion
[ 10167 10162 10161 10158 ] final  -83.00 input  -65.29 | X-H torsion
[ 10718 10713 10712 10709 ] final    9.11 input   66.30 | X-H torsion
[ 10763 10752 10751 10750 ] final  -13.28 input  -60.55 | X-H torsion
[ 11005 11000 10999 10996 ] final  -98.68 input  -57.11 | X-H torsion

> <Gold.Protein.ActiveResidues>
 VAL166  LYS551  ARG553  GLY616  TRP617  ASP618  TYR619  PRO620  LYS621  CYS622 
 ASP623  PHE694  ASN695  SER759  ASP760  ASP761  ALA762  ILE779  LEU786  VAL792 
 PHE793  MET794  SER795  GLU796  ALA797  LYS798  CYS799  TRP800  GLU811  SER814 

> <Gold.Protein.RotatedAtoms>
  152.2416  134.8223  160.0459 H   0  0  0  0  0  0  0  0  0  0  0  0  # atno 6907 bound_to 6896
  151.8935  133.3516  159.3814 H   0  0  0  0  0  0  0  0  0  0  0  0  # atno 6908 bound_to 6896
  150.7055  134.4826  159.5521 H   0  0  0  0  0  0  0  0  0  0  0  0  # atno 6909 bound_to 6896
  145.0543  140.8242  143.4190 H   0  0  0  0  0  0  0  0  0  0  0  0  # atno 7974 bound_to 7965
  154.5786  140.2393  155.8086 H   0  0  0  0  0  0  0  0  0  0  0  0  # atno 8008 bound_to 7997
  156.2162  140.3011  155.9801 H   0  0  0  0  0  0  0  0  0  0  0  0  # atno 8009 bound_to 7997
  155.2582  140.0413  157.2985 H   0  0  0  0  0  0  0  0  0  0  0  0  # atno 8010 bound_to 7997
  140.4268  143.2563  151.8815 H   0  0  0  0  0  0  0  0  0  0  0  0  # atno 10167 bound_to 10162
  156.9615  130.5934  149.5662 H   0  0  0  0  0  0  0  0  0  0  0  0  # atno 10718 bound_to 10713
  153.5109  135.7016  153.5781 H   0  0  0  0  0  0  0  0  0  0  0  0  # atno 10763 bound_to 10752
  153.3872  135.3905  155.1898 H   0  0  0  0  0  0  0  0  0  0  0  0  # atno 10764 bound_to 10752
  154.8703  135.3849  154.4589 H   0  0  0  0  0  0  0  0  0  0  0  0  # atno 10765 bound_to 10752
  141.1336  133.8264  157.0872 H   0  0  0  0  0  0  0  0  0  0  0  0  # atno 11005 bound_to 11000
  145.1488  139.2527  143.5452 LP  0  0  0  0  0  0  0  0  0  0  0  0  # atno 17320 bound_to 7965
  146.3520  140.1185  142.8601 LP  0  0  0  0  0  0  0  0  0  0  0  0  # atno 17321 bound_to 7965
  139.4783  144.5378  151.8572 LP  0  0  0  0  0  0  0  0  0  0  0  0  # atno 17342 bound_to 10162
  140.4472  144.1904  150.5895 LP  0  0  0  0  0  0  0  0  0  0  0  0  # atno 17343 bound_to 10162
  156.0320  130.5411  150.8559 LP  0  0  0  0  0  0  0  0  0  0  0  0  # atno 17370 bound_to 10713
  157.5655  131.0946  150.9496 LP  0  0  0  0  0  0  0  0  0  0  0  0  # atno 17371 bound_to 10713
  140.0415  134.9852  157.0970 LP  0  0  0  0  0  0  0  0  0  0  0  0  # atno 17394 bound_to 11000
  140.4129  134.1962  155.7163 LP  0  0  0  0  0  0  0  0  0  0  0  0  # atno 17395 bound_to 11000

$$$$
