AV-unprocessed.smi:1629|AV-procd|sdf|6524|dock9
  -GOLD-   22720 7203D 1   1.00000     0.00000
 Structure written by MMmdl.
 44 45  0  0  0  0  0  0  0  0  3 V2000
  142.9763  137.3946  152.6397 C   0  0  0  0  0  0  0  0  0  0  0  0
  144.2023  136.0375  152.4708 S   0  0  0  0  0  0  0  0  0  0  0  0
  143.7513  134.9753  153.3842 O   0  0  0  0  0  0  0  0  0  0  0  0
  144.2482  135.7155  151.0354 O   0  0  0  0  0  0  0  0  0  0  0  0
  145.5463  136.7838  152.9874 N   0  5  0  0  0  0  0  0  0  0  0  0
  145.5954  138.2380  153.0303 C   0  0  0  0  0  0  0  0  0  0  0  0
  146.6746  138.7871  152.0576 C   0  0  0  0  0  0  0  0  0  0  0  0
  146.9492  140.3058  152.2387 C   0  0  0  0  0  0  0  0  0  0  0  0
  147.3392  140.6053  153.6342 N   0  0  0  0  0  0  0  0  0  0  0  0
  148.5674  140.9722  154.0771 C   0  0  0  0  0  0  0  0  0  0  0  0
  149.5808  140.9256  153.3781 O   0  0  0  0  0  0  0  0  0  0  0  0
  148.6002  141.3991  155.3508 N   0  0  0  0  0  0  0  0  0  0  0  0
  149.7879  141.8768  156.0486 C   0  0  0  0  0  0  0  0  0  0  0  0
  149.4898  142.1858  157.5256 C   0  0  0  0  0  0  0  0  0  0  0  0
  150.5495  143.0709  158.1513 C   0  0  0  0  0  0  0  0  0  0  0  0
  151.3908  142.6157  159.1898 C   0  0  0  0  0  0  0  0  0  0  0  0
  152.3515  143.4941  159.7332 C   0  0  0  0  0  0  0  0  0  0  0  0
  152.4498  144.8073  159.2284 C   0  0  0  0  0  0  0  0  0  0  0  0
  151.5830  145.2099  158.1920 C   0  0  0  0  0  0  0  0  0  0  0  0
  150.6754  144.3390  157.6977 N   0  3  0  0  0  0  0  0  0  0  0  0
  146.2397  140.2429  154.5479 C   0  0  0  0  0  0  0  0  0  0  0  0
  145.9367  138.7203  154.4650 C   0  0  0  0  0  0  0  0  0  0  0  0
  141.9994  137.0404  152.3120 H   0  0  0  0  0  0  0  0  0  0  0  0
  143.2821  138.2391  152.0232 H   0  0  0  0  0  0  0  0  0  0  0  0
  142.9193  137.7052  153.6824 H   0  0  0  0  0  0  0  0  0  0  0  0
  144.6367  138.6812  152.7578 H   0  0  0  0  0  0  0  0  0  0  0  0
  147.6104  138.2454  152.2051 H   0  0  0  0  0  0  0  0  0  0  0  0
  146.3746  138.5979  151.0267 H   0  0  0  0  0  0  0  0  0  0  0  0
  147.6906  140.6208  151.5049 H   0  0  0  0  0  0  0  0  0  0  0  0
  146.0578  140.8871  151.9926 H   0  0  0  0  0  0  0  0  0  0  0  0
  147.7316  141.4061  155.8658 H   0  0  0  0  0  0  0  0  0  0  0  0
  150.5540  141.1045  155.9751 H   0  0  0  0  0  0  0  0  0  0  0  0
  150.1861  142.7592  155.5447 H   0  0  0  0  0  0  0  0  0  0  0  0
  148.5204  142.6765  157.6226 H   0  0  0  0  0  0  0  0  0  0  0  0
  149.4215  141.2581  158.0958 H   0  0  0  0  0  0  0  0  0  0  0  0
  151.3013  141.6072  159.5673 H   0  0  0  0  0  0  0  0  0  0  0  0
  153.0047  143.1644  160.5279 H   0  0  0  0  0  0  0  0  0  0  0  0
  153.1791  145.4953  159.6308 H   0  0  0  0  0  0  0  0  0  0  0  0
  151.5877  146.1943  157.7470 H   0  0  0  0  0  0  0  0  0  0  0  0
  146.4628  140.5056  155.5826 H   0  0  0  0  0  0  0  0  0  0  0  0
  145.3545  140.8293  154.2922 H   0  0  0  0  0  0  0  0  0  0  0  0
  145.1151  138.4750  155.1393 H   0  0  0  0  0  0  0  0  0  0  0  0
  146.8064  138.1763  154.8373 H   0  0  0  0  0  0  0  0  0  0  0  0
  150.0583  144.6513  156.9477 H   0  0  0  0  0  0  0  0  0  0  0  0
  1  2  1  0  0  0  0
  1 23  1  0  0  0  0
  1 24  1  0  0  0  0
  1 25  1  0  0  0  0
  2  3  2  0  0  0  0
  2  4  2  0  0  0  0
  2  5  1  0  0  0  0
  5  6  1  0  0  0  0
  6 22  1  0  0  0  0
  6  7  1  0  0  0  0
  6 26  1  0  0  0  0
  7  8  1  0  0  0  0
  7 27  1  0  0  0  0
  7 28  1  0  0  0  0
  8  9  1  0  0  0  0
  8 29  1  0  0  0  0
  8 30  1  0  0  0  0
  9 10  1  0  0  0  0
  9 21  1  0  0  0  0
 10 11  2  0  0  0  0
 10 12  1  0  0  0  0
 12 13  1  0  0  0  0
 12 31  1  0  0  0  0
 13 14  1  0  0  0  0
 13 32  1  0  0  0  0
 13 33  1  0  0  0  0
 14 15  1  0  0  0  0
 14 34  1  0  0  0  0
 14 35  1  0  0  0  0
 15 20  1  0  0  0  0
 15 16  2  0  0  0  0
 16 17  1  0  0  0  0
 16 36  1  0  0  0  0
 17 18  2  0  0  0  0
 17 37  1  0  0  0  0
 18 19  1  0  0  0  0
 18 38  1  0  0  0  0
 19 20  2  0  0  0  0
 19 39  1  0  0  0  0
 20 44  1  0  0  0  0
 21 22  1  0  0  0  0
 21 40  1  0  0  0  0
 21 41  1  0  0  0  0
 22 42  1  0  0  0  0
 22 43  1  0  0  0  0
M  CHG  1   5  -1
M  CHG  1  20   1
M  END
> <s_m_source_file>
AV-unprocessed.smi

> <i_m_source_file_index>
1629

> <i_lp_mmshare_version>
43012

> <i_f3d_flags>
0

> <s_epik_input>
W0NIM11TKD1PKSg9TylbTkhdW0NIXTFbQ0gyXVtDSDJdTihbQ0gyXVtDSDJdMSlDKD1PKVtOSF1bQ0gyXVtDSDJdYzJbY0hdW2NIXVtjSF1bY0hdbjI=

> <s_epik_cmdline>
J2VwaWtfcHl0aG9uJywgJy1waCcsICc3LjAnLCAnLXRuJywgJzgnLCAnLW1hJywgJzIwMCcsICctbWV0YWxfYmluZGluZycsICctaW1hZScsICc8aW5maWxlLm1hZT4nLCAnLW9tYWUnLCAnPG91dGZpbGUubWFlPic=

> <r_epik_Ionization_Penalty>
8.25917

> <r_epik_Ionization_Penalty_Charging>
8.2591

> <r_epik_Ionization_Penalty_Neutral>
6.17235e-05

> <r_epik_State_Penalty>
8.35449

> <r_epik_Charging_Adjusted_Penalty>
16.6136

> <i_epik_Tot_Q>
0

> <i_epik_Tot_abs_Q>
2

> <r_epik_Metal_State_Penalty>
4.3175

> <b_epik_Metal_Only>
1

> <s_lp_Force_Field>
OPLS_2005

> <r_lp_Energy>
28.7999

> <b_lp_Chiralities_Consistent>
1

> <s_lp_Variant>
AV-unprocessed.smi:1629-4

> <Gold.Version>
5.8.1

> <Gold.Id.Protein>
6NUR|6NUR_protein|mol2

> <Gold.PLP.Fitness>
44.8913

> <Gold.PLP.PLP>
-35.9898

> <Gold.PLP.part.hbond>
-3.0000

> <Gold.PLP.part.metal>
0.0000

> <Gold.PLP.part.buried>
-2.9808

> <Gold.PLP.part.nonpolar>
-35.6598

> <Gold.PLP.part.repulsive>
5.4754

> <Gold.PLP.ligand.clash>
0.0581

> <Gold.PLP.ligand.torsion>
0.8755

> <Gold.PLP.Chemscore.Hbond>
3.2220

> <Gold.PLP.Chemscore.CHOScore>
0.0000

> <Gold.PLP.Chemscore.Metal>
0.0000

> <Gold.Chemscore.Hbonds>
donor molecule, donor type, donor heavy atom, donor atom, acceptor molecule, acceptor atom, score
      L1  H    20    44       P1  8028  2.00
      P1  H  7989  7998       L1    11  0.24
      P1  H  8011  8017       L1    11  1.00

> <Gold.PLP.Chemscore.Internal.Correction>
1.0445

> <Gold.Rescore>
     Score         DG    S(hbond)    S(metal)    S(lipo)     H(rot)  DE(clash)    DE(int)     intcor
     16.76     -19.95       2.16        0.00     100.76       1.77       2.37       0.82       ----

> <Gold.Chemscore.Fitness>
16.7638

> <Gold.Chemscore.DG>
-19.9511

> <Gold.Chemscore.ZeroCoef>
-5.4800

> <Gold.Chemscore.Hbond>
2.1566

> <Gold.Chemscore.Metal>
0.0000

> <Gold.Chemscore.Lipo>
100.7636

> <Gold.Chemscore.Internal_Hbond>
0.0000

> <Gold.Chemscore.DEClash>
2.3699

> <Gold.Chemscore.DEInternal>
0.8174

> <Gold.Chemscore.Rot>
1.7661

> <Gold.Chemscore.Internal.Correction>
   9.000000E+99

> <Gold.Chemscore.Hbonds>
donor molecule, donor type, donor heavy atom, donor atom, acceptor molecule, acceptor atom, score
      L1  H    20    44       P1  8028  0.50
      P1  H  7989  7998       L1    11  0.23
      P1  H  8011  8017       L1    11  0.85

> <Gold.Chemscore.Hbond.Weighted>
-7.2029

> <Gold.Chemscore.Metal.Weighted>
-0.0000

> <Gold.Chemscore.Lipo.Weighted>
-11.7893

> <Gold.Chemscore.Internal_Hbond.Weighted>
0.0000

> <Gold.Chemscore.DEClash.Weighted>
2.3699

> <Gold.Chemscore.DEInternal.Weighted>
0.8174

> <Gold.Chemscore.Rot.Weighted>
4.5211

> <Gold.Chemscore.Internal.Correction.Weighted>
   9.000000E+99

> <Gold.Protein.RotatedTorsions>
[ 6907 6896 6895 6894 ] final  132.29 input  -60.11 | X-H torsion
[ 7974 7965 7964 7962 ] final -117.43 input  175.53 | X-H torsion
[ 8008 7997 7996 7995 ] final -114.61 input   59.86 | X-H torsion
[ 10167 10162 10161 10158 ] final   80.97 input  -65.29 | X-H torsion
[ 10718 10713 10712 10709 ] final  165.48 input   66.30 | X-H torsion
[ 10763 10752 10751 10750 ] final  -89.86 input  -60.55 | X-H torsion
[ 11005 11000 10999 10996 ] final  111.52 input  -57.11 | X-H torsion

> <Gold.Protein.ActiveResidues>
 VAL166  LYS551  ARG553  GLY616  TRP617  ASP618  TYR619  PRO620  LYS621  CYS622 
 ASP623  PHE694  ASN695  SER759  ASP760  ASP761  ALA762  ILE779  LEU786  VAL792 
 PHE793  MET794  SER795  GLU796  ALA797  LYS798  CYS799  TRP800  GLU811  SER814 

> <Gold.Protein.RotatedAtoms>
  152.3339  133.5990  159.5828 H   0  0  0  0  0  0  0  0  0  0  0  0  # atno 6907 bound_to 6896
  150.7439  133.9825  159.3590 H   0  0  0  0  0  0  0  0  0  0  0  0  # atno 6908 bound_to 6896
  151.7697  135.0790  160.0409 H   0  0  0  0  0  0  0  0  0  0  0  0  # atno 6909 bound_to 6896
  145.0853  140.8453  143.4014 H   0  0  0  0  0  0  0  0  0  0  0  0  # atno 7974 bound_to 7965
  155.0391  140.0392  157.2502 H   0  0  0  0  0  0  0  0  0  0  0  0  # atno 8008 bound_to 7997
  154.7232  140.2716  155.6499 H   0  0  0  0  0  0  0  0  0  0  0  0  # atno 8009 bound_to 7997
  156.2822  140.2699  156.1910 H   0  0  0  0  0  0  0  0  0  0  0  0  # atno 8010 bound_to 7997
  139.9442  144.6070  150.8223 H   0  0  0  0  0  0  0  0  0  0  0  0  # atno 10167 bound_to 10162
  157.0795  131.0388  151.2580 H   0  0  0  0  0  0  0  0  0  0  0  0  # atno 10718 bound_to 10713
  154.6598  135.5325  153.8003 H   0  0  0  0  0  0  0  0  0  0  0  0  # atno 10763 bound_to 10752
  153.0435  135.6503  154.0890 H   0  0  0  0  0  0  0  0  0  0  0  0  # atno 10764 bound_to 10752
  154.0800  135.2948  155.3272 H   0  0  0  0  0  0  0  0  0  0  0  0  # atno 10765 bound_to 10752
  139.8906  134.9510  156.6445 H   0  0  0  0  0  0  0  0  0  0  0  0  # atno 11005 bound_to 11000
  145.1130  139.2744  143.5628 LP  0  0  0  0  0  0  0  0  0  0  0  0  # atno 17320 bound_to 7965
  146.3531  140.0731  142.8622 LP  0  0  0  0  0  0  0  0  0  0  0  0  # atno 17321 bound_to 7965
  140.7602  143.3146  151.2763 LP  0  0  0  0  0  0  0  0  0  0  0  0  # atno 17342 bound_to 10162
  139.6680  144.0070  152.2735 LP  0  0  0  0  0  0  0  0  0  0  0  0  # atno 17343 bound_to 10162
  157.4812  130.7766  149.7416 LP  0  0  0  0  0  0  0  0  0  0  0  0  # atno 17370 bound_to 10713
  155.9927  130.3929  150.2929 LP  0  0  0  0  0  0  0  0  0  0  0  0  # atno 17371 bound_to 10713
  140.7568  133.8851  155.8388 LP  0  0  0  0  0  0  0  0  0  0  0  0  # atno 17394 bound_to 11000
  140.9955  134.1220  157.4367 LP  0  0  0  0  0  0  0  0  0  0  0  0  # atno 17395 bound_to 11000

$$$$
