AV-unprocessed.smi:1560|AV-procd|sdf|6278|dock2
  -GOLD-   22720 6473D 1   1.00000     0.00000
 Structure written by MMmdl.
 48 49  0  0  0  0  0  0  0  0  2 V2000
  150.4929  133.3821  155.1843 C   0  0  0  0  0  0  0  0  0  0  0  0
  149.4814  133.3728  154.0243 C   0  0  0  0  0  0  0  0  0  0  0  0
  148.1089  134.0507  154.3231 C   0  0  2  0  0  0  0  0  0  0  0  0
  148.4016  135.4013  155.0292 C   0  0  0  0  0  0  0  0  0  0  0  0
  147.2894  133.1432  155.2881 C   0  0  0  0  0  0  0  0  0  0  0  0
  147.8739  133.0606  156.6234 N   0  0  0  0  0  0  0  0  0  0  0  0
  147.2850  132.4751  157.6757 C   0  0  0  0  0  0  0  0  0  0  0  0
  146.1766  131.9413  157.6116 O   0  0  0  0  0  0  0  0  0  0  0  0
  148.0869  132.4822  158.9855 C   0  0  0  0  0  0  0  0  0  0  0  0
  147.9205  133.7196  159.7619 N   0  0  0  0  0  0  0  0  0  0  0  0
  147.5234  133.6634  161.0904 C   0  0  0  0  0  0  0  0  0  0  0  0
  147.3422  134.7615  161.8618 C   0  0  0  0  0  0  0  0  0  0  0  0
  147.5637  136.0948  161.3125 C   0  0  0  0  0  0  0  0  0  0  0  0
  147.4287  137.1483  161.9309 O   0  0  0  0  0  0  0  0  0  0  0  0
  147.9590  136.1100  159.9721 N   0  0  0  0  0  0  0  0  0  0  0  0
  148.1446  134.9823  159.1707 C   0  0  0  0  0  0  0  0  0  0  0  0
  148.4892  135.1080  157.9962 O   0  0  0  0  0  0  0  0  0  0  0  0
  147.3534  134.2839  153.0377 N   0  3  0  0  0  0  0  0  0  0  0  0
  147.2003  133.0970  152.1486 C   0  0  0  0  0  0  0  0  0  0  0  0
  146.6074  133.5133  150.7931 C   0  0  0  0  0  0  0  0  0  0  0  0
  145.3498  134.1406  150.9997 O   0  0  0  0  0  0  0  0  0  0  0  0
  145.4739  135.3229  151.7771 C   0  0  0  0  0  0  0  0  0  0  0  0
  146.0416  134.9804  153.1655 C   0  0  0  0  0  0  0  0  0  0  0  0
  148.1213  137.0116  159.5475 H   0  0  0  0  0  0  0  0  0  0  0  0
  151.4165  132.8858  154.8863 H   0  0  0  0  0  0  0  0  0  0  0  0
  150.1119  132.8555  156.0589 H   0  0  0  0  0  0  0  0  0  0  0  0
  150.7548  134.3954  155.4882 H   0  0  0  0  0  0  0  0  0  0  0  0
  149.9465  133.8222  153.1472 H   0  0  0  0  0  0  0  0  0  0  0  0
  149.3212  132.3324  153.7388 H   0  0  0  0  0  0  0  0  0  0  0  0
  149.1365  135.2903  155.8272 H   0  0  0  0  0  0  0  0  0  0  0  0
  147.5093  135.8214  155.4938 H   0  0  0  0  0  0  0  0  0  0  0  0
  148.7929  136.1454  154.3350 H   0  0  0  0  0  0  0  0  0  0  0  0
  146.2688  133.5117  155.3955 H   0  0  0  0  0  0  0  0  0  0  0  0
  147.2174  132.1302  154.8909 H   0  0  0  0  0  0  0  0  0  0  0  0
  148.7846  133.4765  156.7563 H   0  0  0  0  0  0  0  0  0  0  0  0
  147.7743  131.6221  159.5795 H   0  0  0  0  0  0  0  0  0  0  0  0
  149.1434  132.3111  158.7678 H   0  0  0  0  0  0  0  0  0  0  0  0
  147.3435  132.6964  161.5384 H   0  0  0  0  0  0  0  0  0  0  0  0
  147.0306  134.6525  162.8906 H   0  0  0  0  0  0  0  0  0  0  0  0
  148.1543  132.6077  151.9633 H   0  0  0  0  0  0  0  0  0  0  0  0
  146.5441  132.3587  152.6098 H   0  0  0  0  0  0  0  0  0  0  0  0
  147.2835  134.1833  150.2594 H   0  0  0  0  0  0  0  0  0  0  0  0
  146.4633  132.6367  150.1613 H   0  0  0  0  0  0  0  0  0  0  0  0
  146.1108  136.0452  151.2637 H   0  0  0  0  0  0  0  0  0  0  0  0
  144.4905  135.7826  151.8777 H   0  0  0  0  0  0  0  0  0  0  0  0
  145.3322  134.3522  153.7044 H   0  0  0  0  0  0  0  0  0  0  0  0
  146.1326  135.9126  153.7196 H   0  0  0  0  0  0  0  0  0  0  0  0
  147.9367  134.9256  152.5199 H   0  0  0  0  0  0  0  0  0  0  0  0
  1  2  1  0  0  0  0
  1 25  1  0  0  0  0
  1 26  1  0  0  0  0
  1 27  1  0  0  0  0
  2  3  1  0  0  0  0
  2 28  1  0  0  0  0
  2 29  1  0  0  0  0
  3  4  1  0  0  0  0
  3  5  1  0  0  0  0
  3 18  1  0  0  0  0
  4 30  1  0  0  0  0
  4 31  1  0  0  0  0
  4 32  1  0  0  0  0
  5  6  1  0  0  0  0
  5 33  1  0  0  0  0
  5 34  1  0  0  0  0
  6  7  1  0  0  0  0
  6 35  1  0  0  0  0
  7  8  2  0  0  0  0
  7  9  1  0  0  0  0
  9 10  1  0  0  0  0
  9 36  1  0  0  0  0
  9 37  1  0  0  0  0
 10 16  1  0  0  0  0
 10 11  1  0  0  0  0
 11 12  2  0  0  0  0
 11 38  1  0  0  0  0
 12 13  1  0  0  0  0
 12 39  1  0  0  0  0
 13 14  2  0  0  0  0
 13 15  1  0  0  0  0
 15 24  1  0  0  0  0
 15 16  1  0  0  0  0
 16 17  2  0  0  0  0
 18 23  1  0  0  0  0
 18 19  1  0  0  0  0
 18 48  1  0  0  0  0
 19 20  1  0  0  0  0
 19 40  1  0  0  0  0
 19 41  1  0  0  0  0
 20 21  1  0  0  0  0
 20 42  1  0  0  0  0
 20 43  1  0  0  0  0
 21 22  1  0  0  0  0
 22 23  1  0  0  0  0
 22 44  1  0  0  0  0
 22 45  1  0  0  0  0
 23 46  1  0  0  0  0
 23 47  1  0  0  0  0
M  CHG  1  18   1
M  END
> <s_m_source_file>
AV-unprocessed.smi

> <i_m_source_file_index>
1560

> <i_lp_mmshare_version>
43012

> <i_f3d_flags>
0

> <s_epik_input>
W0NIMl0xW0NIMl1PW0NIMl1bQ0gyXU4xW0NAQF0oW0NIM10pKFtDSDJdW0NIM10pW0NIMl1bTkhdQyg9TylbQ0gyXW4yW2NIXVtjSF1jKD1PKVtuSF1jMj1P

> <s_epik_cmdline>
J2VwaWtfcHl0aG9uJywgJy1waCcsICc3LjAnLCAnLXRuJywgJzgnLCAnLW1hJywgJzIwMCcsICctbWV0YWxfYmluZGluZycsICctaW1hZScsICc8aW5maWxlLm1hZT4nLCAnLW9tYWUnLCAnPG91dGZpbGUubWFlPic=

> <r_lp_tautomer_probability>
0.999537

> <r_epik_Ionization_Penalty>
0.523885

> <r_epik_Ionization_Penalty_Charging>
0.523885

> <r_epik_Ionization_Penalty_Neutral>
8.70177e-08

> <r_epik_State_Penalty>
0.572334

> <r_epik_Charging_Adjusted_Penalty>
1.09622

> <i_epik_Tot_Q>
1

> <i_epik_Tot_abs_Q>
1

> <r_epik_Metal_State_Penalty>
0.938906

> <b_epik_Metal_Only>
0

> <s_lp_Force_Field>
OPLS_2005

> <r_lp_Energy>
29.9369

> <b_lp_Chiralities_Consistent>
1

> <s_lp_Variant>
AV-unprocessed.smi:1560-4

> <Gold.Version>
5.8.1

> <Gold.Id.Protein>
6NUR|6NUR_protein|mol2

> <Gold.PLP.Fitness>
40.5036

> <Gold.PLP.PLP>
-30.7677

> <Gold.PLP.part.hbond>
-3.0000

> <Gold.PLP.part.metal>
0.0000

> <Gold.PLP.part.buried>
-4.4245

> <Gold.PLP.part.nonpolar>
-23.1292

> <Gold.PLP.part.repulsive>
0.3713

> <Gold.PLP.ligand.clash>
0.0000

> <Gold.PLP.ligand.torsion>
0.6777

> <Gold.PLP.Chemscore.Hbond>
3.6069

> <Gold.PLP.Chemscore.CHOScore>
0.0000

> <Gold.PLP.Chemscore.Metal>
0.0000

> <Gold.Chemscore.Hbonds>
donor molecule, donor type, donor heavy atom, donor atom, acceptor molecule, acceptor atom, score
      L1  H    18    48       P1  7948  2.00
      P1  H  6931  6943       L1    14  0.93
      P1  H  6934  6947       L1    14  0.55

> <Gold.PLP.Chemscore.Internal.Correction>
0.2706

> <Gold.Rescore>
     Score         DG    S(hbond)    S(metal)    S(lipo)     H(rot)  DE(clash)    DE(int)     intcor
     14.82     -16.31       3.31        0.00      54.10       2.56       0.06       1.43       ----

> <Gold.Chemscore.Fitness>
14.8219

> <Gold.Chemscore.DG>
-16.3052

> <Gold.Chemscore.ZeroCoef>
-5.4800

> <Gold.Chemscore.Hbond>
3.3106

> <Gold.Chemscore.Metal>
0.0000

> <Gold.Chemscore.Lipo>
54.1034

> <Gold.Chemscore.Internal_Hbond>
0.0000

> <Gold.Chemscore.DEClash>
0.0552

> <Gold.Chemscore.DEInternal>
1.4281

> <Gold.Chemscore.Rot>
2.5634

> <Gold.Chemscore.Internal.Correction>
   9.000000E+99

> <Gold.Chemscore.Hbonds>
donor molecule, donor type, donor heavy atom, donor atom, acceptor molecule, acceptor atom, score
      L1  H    18    48       P1  7948  0.85
      P1  H  6931  6943       L1    14  0.80
      P1  H  6934  6947       L1    14  0.55

> <Gold.Chemscore.Hbond.Weighted>
-11.0575

> <Gold.Chemscore.Metal.Weighted>
-0.0000

> <Gold.Chemscore.Lipo.Weighted>
-6.3301

> <Gold.Chemscore.Internal_Hbond.Weighted>
0.0000

> <Gold.Chemscore.DEClash.Weighted>
0.0552

> <Gold.Chemscore.DEInternal.Weighted>
1.4281

> <Gold.Chemscore.Rot.Weighted>
6.5624

> <Gold.Chemscore.Internal.Correction.Weighted>
   9.000000E+99

> <Gold.Protein.RotatedTorsions>
[ 6907 6896 6895 6894 ] final    6.68 input  -60.11 | X-H torsion
[ 7974 7965 7964 7962 ] final  -55.10 input  175.53 | X-H torsion
[ 8008 7997 7996 7995 ] final  -33.38 input   59.86 | X-H torsion
[ 10167 10162 10161 10158 ] final  -12.52 input  -65.29 | X-H torsion
[ 10718 10713 10712 10709 ] final  -49.91 input   66.30 | X-H torsion
[ 10763 10752 10751 10750 ] final   41.34 input  -60.55 | X-H torsion
[ 11005 11000 10999 10996 ] final  133.54 input  -57.11 | X-H torsion

> <Gold.Protein.ActiveResidues>
 VAL166  LYS551  ARG553  GLY616  TRP617  ASP618  TYR619  PRO620  LYS621  CYS622 
 ASP623  PHE694  ASN695  SER759  ASP760  ASP761  ALA762  ILE779  LEU786  VAL792 
 PHE793  MET794  SER795  GLU796  ALA797  LYS798  CYS799  TRP800  GLU811  SER814 

> <Gold.Protein.RotatedAtoms>
  151.6776  135.0966  160.0209 H   0  0  0  0  0  0  0  0  0  0  0  0  # atno 6907 bound_to 6896
  152.3854  133.6600  159.6203 H   0  0  0  0  0  0  0  0  0  0  0  0  # atno 6908 bound_to 6896
  150.7781  133.8960  159.3368 H   0  0  0  0  0  0  0  0  0  0  0  0  # atno 6909 bound_to 6896
  145.8781  140.8166  142.9854 H   0  0  0  0  0  0  0  0  0  0  0  0  # atno 7974 bound_to 7965
  154.4151  140.1712  156.1878 H   0  0  0  0  0  0  0  0  0  0  0  0  # atno 8008 bound_to 7997
  155.9628  140.3392  155.6482 H   0  0  0  0  0  0  0  0  0  0  0  0  # atno 8009 bound_to 7997
  155.6726  140.0713  157.2505 H   0  0  0  0  0  0  0  0  0  0  0  0  # atno 8010 bound_to 7997
  140.7163  143.5523  150.9287 H   0  0  0  0  0  0  0  0  0  0  0  0  # atno 10167 bound_to 10162
  156.1850  130.4151  149.9453 H   0  0  0  0  0  0  0  0  0  0  0  0  # atno 10718 bound_to 10713
  152.9911  135.6164  154.2772 H   0  0  0  0  0  0  0  0  0  0  0  0  # atno 10763 bound_to 10752
  154.2503  135.2785  155.2821 H   0  0  0  0  0  0  0  0  0  0  0  0  # atno 10764 bound_to 10752
  154.5294  135.5792  153.6804 H   0  0  0  0  0  0  0  0  0  0  0  0  # atno 10765 bound_to 10752
  139.9858  134.9533  156.9739 H   0  0  0  0  0  0  0  0  0  0  0  0  # atno 11005 bound_to 11000
  144.6726  140.1341  143.7441 LP  0  0  0  0  0  0  0  0  0  0  0  0  # atno 17320 bound_to 7965
  145.9057  139.2457  143.1467 LP  0  0  0  0  0  0  0  0  0  0  0  0  # atno 17321 bound_to 7965
  139.9248  143.6563  152.3089 LP  0  0  0  0  0  0  0  0  0  0  0  0  # atno 17342 bound_to 10162
  139.6993  144.7637  151.1301 LP  0  0  0  0  0  0  0  0  0  0  0  0  # atno 17343 bound_to 10162
  156.7211  130.9007  151.3618 LP  0  0  0  0  0  0  0  0  0  0  0  0  # atno 17370 bound_to 10713
  157.6893  130.9217  150.0469 LP  0  0  0  0  0  0  0  0  0  0  0  0  # atno 17371 bound_to 10713
  140.5006  134.1101  155.7250 LP  0  0  0  0  0  0  0  0  0  0  0  0  # atno 17394 bound_to 11000
  141.1523  133.8946  157.2067 LP  0  0  0  0  0  0  0  0  0  0  0  0  # atno 17395 bound_to 11000

$$$$
