AV-unprocessed.smi:1076|AV-procd|sdf|4697|dock7
  -GOLD-   22720 3213D 1   1.00000     0.00000
 Structure written by MMmdl.
 45 46  0  0  0  0  0  0  0  0  2 V2000
  143.3698  132.4425  151.0264 C   0  0  0  0  0  0  0  0  0  0  0  0
  144.3108  133.6093  151.1024 C   0  0  0  0  0  0  0  0  0  0  0  0
  145.5885  133.6603  151.7277 C   0  0  0  0  0  0  0  0  0  0  0  0
  146.1602  134.8493  151.6313 N   0  0  0  0  0  0  0  0  0  0  0  0
  145.2742  135.5951  150.9367 N   0  0  0  0  0  0  0  0  0  0  0  0
  145.5624  136.9947  150.6687 C   0  0  0  0  0  0  0  0  0  0  0  0
  146.0256  137.7356  151.9381 C   0  0  2  0  0  0  0  0  0  0  0  0
  145.0951  137.4601  153.1282 C   0  0  0  0  0  0  0  0  0  0  0  0
  146.1148  139.1864  151.6645 N   0  3  0  0  0  0  0  0  0  0  0  0
  147.3472  139.8583  152.1311 C   0  0  0  0  0  0  0  0  0  0  0  0
  147.6399  139.5093  153.6045 C   0  0  0  0  0  0  0  0  0  0  0  0
  149.0260  139.9792  154.0933 C   0  0  0  0  0  0  0  0  0  0  0  0
  149.4224  141.0993  153.7664 O   0  0  0  0  0  0  0  0  0  0  0  0
  149.7599  139.1642  154.8869 N   0  0  0  0  0  0  0  0  0  0  0  0
  149.4007  137.7681  155.1494 C   0  0  0  0  0  0  0  0  0  0  0  0
  150.4734  136.8717  154.5037 C   0  0  0  0  0  0  0  0  0  0  0  0
  151.7579  137.2022  155.0283 O   0  0  0  0  0  0  0  0  0  0  0  0
  152.1164  138.5678  154.8258 C   0  0  0  0  0  0  0  0  0  0  0  0
  151.0621  139.4770  155.4812 C   0  0  0  0  0  0  0  0  0  0  0  0
  144.1503  134.8703  150.6020 C   0  0  0  0  0  0  0  0  0  0  0  0
  143.8854  131.4955  151.1880 H   0  0  0  0  0  0  0  0  0  0  0  0
  142.8813  132.3794  150.0541 H   0  0  0  0  0  0  0  0  0  0  0  0
  142.5840  132.5129  151.7785 H   0  0  0  0  0  0  0  0  0  0  0  0
  146.1104  132.8739  152.2527 H   0  0  0  0  0  0  0  0  0  0  0  0
  146.3194  137.0588  149.8850 H   0  0  0  0  0  0  0  0  0  0  0  0
  144.6588  137.4568  150.2697 H   0  0  0  0  0  0  0  0  0  0  0  0
  147.0223  137.3654  152.1833 H   0  0  0  0  0  0  0  0  0  0  0  0
  145.0318  136.3913  153.3350 H   0  0  0  0  0  0  0  0  0  0  0  0
  144.0843  137.8208  152.9341 H   0  0  0  0  0  0  0  0  0  0  0  0
  145.4550  137.9466  154.0352 H   0  0  0  0  0  0  0  0  0  0  0  0
  146.1059  139.2778  150.6576 H   0  0  0  0  0  0  0  0  0  0  0  0
  148.1779  139.5511  151.4955 H   0  0  0  0  0  0  0  0  0  0  0  0
  147.2603  140.9407  152.0248 H   0  0  0  0  0  0  0  0  0  0  0  0
  146.8615  139.9597  154.2213 H   0  0  0  0  0  0  0  0  0  0  0  0
  147.5752  138.4296  153.7431 H   0  0  0  0  0  0  0  0  0  0  0  0
  149.3616  137.5964  156.2260 H   0  0  0  0  0  0  0  0  0  0  0  0
  148.4166  137.4990  154.7632 H   0  0  0  0  0  0  0  0  0  0  0  0
  150.2652  135.8221  154.7113 H   0  0  0  0  0  0  0  0  0  0  0  0
  150.4755  136.9891  153.4189 H   0  0  0  0  0  0  0  0  0  0  0  0
  153.0969  138.7447  155.2680 H   0  0  0  0  0  0  0  0  0  0  0  0
  152.2025  138.7777  153.7583 H   0  0  0  0  0  0  0  0  0  0  0  0
  151.3497  140.5229  155.3870 H   0  0  0  0  0  0  0  0  0  0  0  0
  151.0213  139.2828  156.5541 H   0  0  0  0  0  0  0  0  0  0  0  0
  143.3321  135.3107  150.0511 H   0  0  0  0  0  0  0  0  0  0  0  0
  145.3004  139.6588  152.0298 H   0  0  0  0  0  0  0  0  0  0  0  0
  1  2  1  0  0  0  0
  1 21  1  0  0  0  0
  1 22  1  0  0  0  0
  1 23  1  0  0  0  0
  2 20  2  0  0  0  0
  2  3  1  0  0  0  0
  3  4  2  0  0  0  0
  3 24  1  0  0  0  0
  4  5  1  0  0  0  0
  5  6  1  0  0  0  0
  5 20  1  0  0  0  0
  6  7  1  0  0  0  0
  6 25  1  0  0  0  0
  6 26  1  0  0  0  0
  7  8  1  0  0  0  0
  7  9  1  0  0  0  0
  7 27  1  0  0  0  0
  8 28  1  0  0  0  0
  8 29  1  0  0  0  0
  8 30  1  0  0  0  0
  9 10  1  0  0  0  0
  9 31  1  0  0  0  0
  9 45  1  0  0  0  0
 10 11  1  0  0  0  0
 10 32  1  0  0  0  0
 10 33  1  0  0  0  0
 11 12  1  0  0  0  0
 11 34  1  0  0  0  0
 11 35  1  0  0  0  0
 12 13  2  0  0  0  0
 12 14  1  0  0  0  0
 14 19  1  0  0  0  0
 14 15  1  0  0  0  0
 15 16  1  0  0  0  0
 15 36  1  0  0  0  0
 15 37  1  0  0  0  0
 16 17  1  0  0  0  0
 16 38  1  0  0  0  0
 16 39  1  0  0  0  0
 17 18  1  0  0  0  0
 18 19  1  0  0  0  0
 18 40  1  0  0  0  0
 18 41  1  0  0  0  0
 19 42  1  0  0  0  0
 19 43  1  0  0  0  0
 20 44  1  0  0  0  0
M  CHG  1   9   1
M  END
> <s_m_source_file>
AV-unprocessed.smi

> <i_m_source_file_index>
1076

> <i_lp_mmshare_version>
43012

> <i_f3d_flags>
0

> <s_epik_input>
W0NIM11jMVtjSF1ubihbY0hdMSlbQ0gyXVtDQEhdKFtDSDNdKVtOSF1bQ0gyXVtDSDJdQyg9TylOMltDSDJdW0NIMl1PW0NIMl1bQ0gyXTI=

> <s_epik_cmdline>
J2VwaWtfcHl0aG9uJywgJy1waCcsICc3LjAnLCAnLXRuJywgJzgnLCAnLW1hJywgJzIwMCcsICctbWV0YWxfYmluZGluZycsICctaW1hZScsICc8aW5maWxlLm1hZT4nLCAnLW9tYWUnLCAnPG91dGZpbGUubWFlPic=

> <r_lp_tautomer_probability>
1

> <r_epik_Ionization_Penalty>
0.00797518

> <r_epik_Ionization_Penalty_Charging>
0.0079672

> <r_epik_Ionization_Penalty_Neutral>
7.97619e-06

> <r_epik_State_Penalty>
0.00597998

> <r_epik_Charging_Adjusted_Penalty>
0.0139472

> <i_epik_Tot_Q>
1

> <i_epik_Tot_abs_Q>
1

> <r_epik_Metal_State_Penalty>
0.00598062

> <b_epik_Metal_Only>
0

> <s_lp_Force_Field>
OPLS_2005

> <r_lp_Energy>
21.8291

> <b_lp_Chiralities_Consistent>
1

> <s_lp_Variant>
AV-unprocessed.smi:1076-1

> <Gold.Version>
5.8.1

> <Gold.Id.Protein>
6NUR|6NUR_protein|mol2

> <Gold.PLP.Fitness>
46.8839

> <Gold.PLP.PLP>
-33.9695

> <Gold.PLP.part.hbond>
-5.0000

> <Gold.PLP.part.metal>
0.0000

> <Gold.PLP.part.buried>
8.2550

> <Gold.PLP.part.nonpolar>
-40.2953

> <Gold.PLP.part.repulsive>
2.9888

> <Gold.PLP.ligand.clash>
0.0000

> <Gold.PLP.ligand.torsion>
1.1201

> <Gold.PLP.Chemscore.Hbond>
4.0760

> <Gold.PLP.Chemscore.CHOScore>
0.9179

> <Gold.PLP.Chemscore.Metal>
0.0000

> <Gold.Chemscore.Hbonds>
donor molecule, donor type, donor heavy atom, donor atom, acceptor molecule, acceptor atom, score
      L1  H     9    45       P1 10175  2.00
      P1  H  7989  7998       L1    13  0.18
      P1  H  8011  8017       L1    13  0.94
      P1  H 10752 10763       L1    17  0.99
      L1  C    20    44       P1 10186  0.95

> <Gold.PLP.Chemscore.Internal.Correction>
0.1730

> <Gold.Rescore>
     Score         DG    S(hbond)    S(metal)    S(lipo)     H(rot)  DE(clash)    DE(int)     intcor
     12.34     -17.12       1.82        0.00      90.81       1.98       3.72       1.06       ----

> <Gold.Chemscore.Fitness>
12.3405

> <Gold.Chemscore.DG>
-17.1182

> <Gold.Chemscore.ZeroCoef>
-5.4800

> <Gold.Chemscore.Hbond>
1.8237

> <Gold.Chemscore.Metal>
0.0000

> <Gold.Chemscore.Lipo>
90.8144

> <Gold.Chemscore.Internal_Hbond>
0.0000

> <Gold.Chemscore.DEClash>
3.7176

> <Gold.Chemscore.DEInternal>
1.0600

> <Gold.Chemscore.Rot>
1.9837

> <Gold.Chemscore.Internal.Correction>
   9.000000E+99

> <Gold.Chemscore.Hbonds>
donor molecule, donor type, donor heavy atom, donor atom, acceptor molecule, acceptor atom, score
      L1  H     9    31       P1 10171  0.01
      L1  H     9    45       P1 10175  0.91
      P1  H  7989  7998       L1    13  0.10
      P1  H  8011  8017       L1    13  0.89
      P1  H 10752 10763       L1    17  0.44

> <Gold.Chemscore.Hbond.Weighted>
-6.0911

> <Gold.Chemscore.Metal.Weighted>
-0.0000

> <Gold.Chemscore.Lipo.Weighted>
-10.6253

> <Gold.Chemscore.Internal_Hbond.Weighted>
0.0000

> <Gold.Chemscore.DEClash.Weighted>
3.7176

> <Gold.Chemscore.DEInternal.Weighted>
1.0600

> <Gold.Chemscore.Rot.Weighted>
5.0782

> <Gold.Chemscore.Internal.Correction.Weighted>
   9.000000E+99

> <Gold.Protein.RotatedTorsions>
[ 6907 6896 6895 6894 ] final -114.18 input  -60.11 | X-H torsion
[ 7974 7965 7964 7962 ] final   23.88 input  175.53 | X-H torsion
[ 8008 7997 7996 7995 ] final   71.12 input   59.86 | X-H torsion
[ 10167 10162 10161 10158 ] final -138.37 input  -65.29 | X-H torsion
[ 10718 10713 10712 10709 ] final -175.06 input   66.30 | X-H torsion
[ 10763 10752 10751 10750 ] final   58.82 input  -60.55 | X-H torsion
[ 11005 11000 10999 10996 ] final   61.10 input  -57.11 | X-H torsion

> <Gold.Protein.ActiveResidues>
 VAL166  LYS551  ARG553  GLY616  TRP617  ASP618  TYR619  PRO620  LYS621  CYS622 
 ASP623  PHE694  ASN695  SER759  ASP760  ASP761  ALA762  ILE779  LEU786  VAL792 
 PHE793  MET794  SER795  GLU796  ALA797  LYS798  CYS799  TRP800  GLU811  SER814 

> <Gold.Protein.RotatedAtoms>
  150.7883  133.8838  159.3293 H   0  0  0  0  0  0  0  0  0  0  0  0  # atno 6907 bound_to 6896
  151.6683  135.0978  160.0202 H   0  0  0  0  0  0  0  0  0  0  0  0  # atno 6908 bound_to 6896
  152.3952  133.6697  159.6305 H   0  0  0  0  0  0  0  0  0  0  0  0  # atno 6909 bound_to 6896
  146.1963  139.7682  142.8794 H   0  0  0  0  0  0  0  0  0  0  0  0  # atno 7974 bound_to 7965
  155.7491  140.3489  155.5141 H   0  0  0  0  0  0  0  0  0  0  0  0  # atno 8008 bound_to 7997
  155.9022  140.1036  157.1363 H   0  0  0  0  0  0  0  0  0  0  0  0  # atno 8009 bound_to 7997
  154.4045  140.1284  156.4437 H   0  0  0  0  0  0  0  0  0  0  0  0  # atno 8010 bound_to 7997
  139.8484  143.7230  152.2659 H   0  0  0  0  0  0  0  0  0  0  0  0  # atno 10167 bound_to 10162
  156.7942  130.9529  151.3120 H   0  0  0  0  0  0  0  0  0  0  0  0  # atno 10718 bound_to 10713
  152.9879  135.5593  154.5613 H   0  0  0  0  0  0  0  0  0  0  0  0  # atno 10763 bound_to 10752
  154.5031  135.2798  155.1406 H   0  0  0  0  0  0  0  0  0  0  0  0  # atno 10764 bound_to 10752
  154.2828  135.6341  153.5407 H   0  0  0  0  0  0  0  0  0  0  0  0  # atno 10765 bound_to 10752
  140.0185  134.6189  155.9674 H   0  0  0  0  0  0  0  0  0  0  0  0  # atno 11005 bound_to 11000
  145.3631  141.0329  143.3273 LP  0  0  0  0  0  0  0  0  0  0  0  0  # atno 17320 bound_to 7965
  144.8588  139.5208  143.6822 LP  0  0  0  0  0  0  0  0  0  0  0  0  # atno 17321 bound_to 7965
  139.7489  144.7539  151.0537 LP  0  0  0  0  0  0  0  0  0  0  0  0  # atno 17342 bound_to 10162
  140.7790  143.4883  150.9926 LP  0  0  0  0  0  0  0  0  0  0  0  0  # atno 17343 bound_to 10162
  157.6585  130.8946  149.9780 LP  0  0  0  0  0  0  0  0  0  0  0  0  # atno 17370 bound_to 10713
  156.1140  130.3648  150.0000 LP  0  0  0  0  0  0  0  0  0  0  0  0  # atno 17371 bound_to 10713
  141.1758  133.6540  156.4825 LP  0  0  0  0  0  0  0  0  0  0  0  0  # atno 17394 bound_to 11000
  140.4429  134.6999  157.5001 LP  0  0  0  0  0  0  0  0  0  0  0  0  # atno 17395 bound_to 11000

$$$$
