AV-unprocessed.smi:3115|AV-procd|sdf|11859|dock3
  -GOLD-   2272017243D 1   1.00000     0.00000
 Structure written by MMmdl.
 33 34  0  0  0  0  0  0  0  0  2 V2000
  152.0788  145.1946  159.5284 C   0  0  0  0  0  0  0  0  0  0  0  0
  151.9344  143.6752  159.6622 C   0  0  1  0  0  0  0  0  0  0  0  0
  151.7596  142.9868  158.2945 C   0  0  0  0  0  0  0  0  0  0  0  0
  151.7168  141.5392  158.4628 N   0  0  0  0  0  0  0  0  0  0  0  0
  151.4416  140.8464  157.2754 C   0  0  0  0  0  0  0  0  0  0  0  0
  150.3465  141.2537  156.4841 C   0  0  0  0  0  0  0  0  0  0  0  0
  150.0785  140.5582  155.2873 C   0  0  0  0  0  0  0  0  0  0  0  0
  148.9121  140.9546  154.4065 C   0  0  0  0  0  0  0  0  0  0  0  0
  148.1992  142.1084  154.9774 N   0  3  0  0  0  0  0  0  0  0  0  0
  150.9127  139.4798  154.9303 C   0  0  0  0  0  0  0  0  0  0  0  0
  151.9799  139.1464  155.7869 C   0  0  0  0  0  0  0  0  0  0  0  0
  152.2428  139.8092  156.9330 N   0  0  0  0  0  0  0  0  0  0  0  0
  152.8810  141.0292  159.1761 C   0  0  0  0  0  0  0  0  0  0  0  0
  153.0367  141.7617  160.5195 C   0  0  0  0  0  0  0  0  0  0  0  0
  153.1084  143.1666  160.2919 O   0  0  0  0  0  0  0  0  0  0  0  0
  151.1974  145.6328  159.0596 H   0  0  0  0  0  0  0  0  0  0  0  0
  152.9461  145.4564  158.9218 H   0  0  0  0  0  0  0  0  0  0  0  0
  152.2022  145.6618  160.5057 H   0  0  0  0  0  0  0  0  0  0  0  0
  151.0700  143.4626  160.2940 H   0  0  0  0  0  0  0  0  0  0  0  0
  150.8399  143.3274  157.8170 H   0  0  0  0  0  0  0  0  0  0  0  0
  152.5855  143.2569  157.6345 H   0  0  0  0  0  0  0  0  0  0  0  0
  149.7286  142.0856  156.7904 H   0  0  0  0  0  0  0  0  0  0  0  0
  149.2659  141.2066  153.4062 H   0  0  0  0  0  0  0  0  0  0  0  0
  148.2215  140.1168  154.3040 H   0  0  0  0  0  0  0  0  0  0  0  0
  148.0266  141.9483  155.9594 H   0  0  0  0  0  0  0  0  0  0  0  0
  147.3204  142.2313  154.4949 H   0  0  0  0  0  0  0  0  0  0  0  0
  150.7430  138.9183  154.0232 H   0  0  0  0  0  0  0  0  0  0  0  0
  152.6391  138.3256  155.5455 H   0  0  0  0  0  0  0  0  0  0  0  0
  152.7717  139.9571  159.3441 H   0  0  0  0  0  0  0  0  0  0  0  0
  153.7775  141.1728  158.5712 H   0  0  0  0  0  0  0  0  0  0  0  0
  152.2048  141.5331  161.1876 H   0  0  0  0  0  0  0  0  0  0  0  0
  153.9478  141.4361  161.0216 H   0  0  0  0  0  0  0  0  0  0  0  0
  148.7627  142.9388  154.8641 H   0  0  0  0  0  0  0  0  0  0  0  0
  1  2  1  0  0  0  0
  1 16  1  0  0  0  0
  1 17  1  0  0  0  0
  1 18  1  0  0  0  0
  2 15  1  0  0  0  0
  2  3  1  0  0  0  0
  2 19  1  0  0  0  0
  3  4  1  0  0  0  0
  3 20  1  0  0  0  0
  3 21  1  0  0  0  0
  4  5  1  0  0  0  0
  4 13  1  0  0  0  0
  5 12  1  0  0  0  0
  5  6  2  0  0  0  0
  6  7  1  0  0  0  0
  6 22  1  0  0  0  0
  7  8  1  0  0  0  0
  7 10  2  0  0  0  0
  8  9  1  0  0  0  0
  8 23  1  0  0  0  0
  8 24  1  0  0  0  0
  9 25  1  0  0  0  0
  9 26  1  0  0  0  0
  9 33  1  0  0  0  0
 10 11  1  0  0  0  0
 10 27  1  0  0  0  0
 11 12  2  0  0  0  0
 11 28  1  0  0  0  0
 13 14  1  0  0  0  0
 13 29  1  0  0  0  0
 13 30  1  0  0  0  0
 14 15  1  0  0  0  0
 14 31  1  0  0  0  0
 14 32  1  0  0  0  0
M  CHG  1   9   1
M  END
> <s_m_source_file>
AV-unprocessed.smi

> <i_m_source_file_index>
3115

> <i_lp_mmshare_version>
43012

> <i_f3d_flags>
0

> <s_epik_input>
W0NIM11bQ0BASF0xW0NIMl1OKFtDSDJdW0NIMl1PMSljMltjSF1jKFtDSDJdW05IMl0pW2NIXVtjSF1uMg==

> <s_epik_cmdline>
J2VwaWtfcHl0aG9uJywgJy1waCcsICc3LjAnLCAnLXRuJywgJzgnLCAnLW1hJywgJzIwMCcsICctbWV0YWxfYmluZGluZycsICctaW1hZScsICc8aW5maWxlLm1hZT4nLCAnLW9tYWUnLCAnPG91dGZpbGUubWFlPic=

> <r_lp_tautomer_probability>
1

> <r_epik_Ionization_Penalty>
0.0768907

> <r_epik_Ionization_Penalty_Charging>
0.0768864

> <r_epik_Ionization_Penalty_Neutral>
4.339e-06

> <r_epik_State_Penalty>
0.0093217

> <r_epik_Charging_Adjusted_Penalty>
0.0862081

> <i_epik_Tot_Q>
1

> <i_epik_Tot_abs_Q>
1

> <r_epik_Metal_State_Penalty>
0.0096683

> <b_epik_Metal_Only>
0

> <s_lp_Force_Field>
OPLS_2005

> <r_lp_Energy>
14.3897

> <b_lp_Chiralities_Consistent>
1

> <s_lp_Variant>
AV-unprocessed.smi:3115-2

> <Gold.Version>
5.8.1

> <Gold.Id.Protein>
6NUR|6NUR_protein|mol2

> <Gold.PLP.Fitness>
43.1776

> <Gold.PLP.PLP>
-34.4304

> <Gold.PLP.part.hbond>
-2.0000

> <Gold.PLP.part.metal>
0.0000

> <Gold.PLP.part.buried>
-2.4593

> <Gold.PLP.part.nonpolar>
-29.7870

> <Gold.PLP.part.repulsive>
0.1242

> <Gold.PLP.ligand.clash>
0.0000

> <Gold.PLP.ligand.torsion>
0.1035

> <Gold.PLP.Chemscore.Hbond>
2.9520

> <Gold.PLP.Chemscore.CHOScore>
0.0000

> <Gold.PLP.Chemscore.Metal>
0.0000

> <Gold.Chemscore.Hbonds>
donor molecule, donor type, donor heavy atom, donor atom, acceptor molecule, acceptor atom, score
      L1  H     9    33       P1  8028  1.50
      P1  H  7997  8009       L1    12  0.41

> <Gold.PLP.Chemscore.Internal.Correction>
0.0983

> <Gold.Rescore>
     Score         DG    S(hbond)    S(metal)    S(lipo)     H(rot)  DE(clash)    DE(int)     intcor
     17.60     -18.06       1.69        0.00      87.84       1.30       0.40       0.06       ----

> <Gold.Chemscore.Fitness>
17.5971

> <Gold.Chemscore.DG>
-18.0616

> <Gold.Chemscore.ZeroCoef>
-5.4800

> <Gold.Chemscore.Hbond>
1.6898

> <Gold.Chemscore.Metal>
0.0000

> <Gold.Chemscore.Lipo>
87.8392

> <Gold.Chemscore.Internal_Hbond>
0.0000

> <Gold.Chemscore.DEClash>
0.4041

> <Gold.Chemscore.DEInternal>
0.0604

> <Gold.Chemscore.Rot>
1.3045

> <Gold.Chemscore.Internal.Correction>
   9.000000E+99

> <Gold.Chemscore.Hbonds>
donor molecule, donor type, donor heavy atom, donor atom, acceptor molecule, acceptor atom, score
      L1  H     9    33       P1  8028  0.75
      P1  H  7997  8009       L1    12  0.03

> <Gold.Chemscore.Hbond.Weighted>
-5.6439

> <Gold.Chemscore.Metal.Weighted>
-0.0000

> <Gold.Chemscore.Lipo.Weighted>
-10.2772

> <Gold.Chemscore.Internal_Hbond.Weighted>
0.0000

> <Gold.Chemscore.DEClash.Weighted>
0.4041

> <Gold.Chemscore.DEInternal.Weighted>
0.0604

> <Gold.Chemscore.Rot.Weighted>
3.3395

> <Gold.Chemscore.Internal.Correction.Weighted>
   9.000000E+99

> <Gold.Protein.RotatedTorsions>
[ 6907 6896 6895 6894 ] final  -72.41 input  -60.11 | X-H torsion
[ 7974 7965 7964 7962 ] final  179.30 input  175.53 | X-H torsion
[ 8008 7997 7996 7995 ] final -165.22 input   59.86 | X-H torsion
[ 10167 10162 10161 10158 ] final  147.83 input  -65.29 | X-H torsion
[ 10718 10713 10712 10709 ] final   42.17 input   66.30 | X-H torsion
[ 10763 10752 10751 10750 ] final -110.18 input  -60.55 | X-H torsion
[ 11005 11000 10999 10996 ] final -127.68 input  -57.11 | X-H torsion

> <Gold.Protein.ActiveResidues>
 VAL166  LYS551  ARG553  GLY616  TRP617  ASP618  TYR619  PRO620  LYS621  CYS622 
 ASP623  PHE694  ASN695  SER759  ASP760  ASP761  ALA762  ILE779  LEU786  VAL792 
 PHE793  MET794  SER795  GLU796  ALA797  LYS798  CYS799  TRP800  GLU811  SER814 

> <Gold.Protein.RotatedAtoms>
  150.7171  134.5167  159.5633 H   0  0  0  0  0  0  0  0  0  0  0  0  # atno 6907 bound_to 6896
  152.2731  134.7908  160.0419 H   0  0  0  0  0  0  0  0  0  0  0  0  # atno 6908 bound_to 6896
  151.8581  133.3417  159.3731 H   0  0  0  0  0  0  0  0  0  0  0  0  # atno 6909 bound_to 6896
  144.7147  140.0527  143.6435 H   0  0  0  0  0  0  0  0  0  0  0  0  # atno 7974 bound_to 7965
  155.8467  140.0957  157.1700 H   0  0  0  0  0  0  0  0  0  0  0  0  # atno 8008 bound_to 7997
  154.3984  140.1391  156.3856 H   0  0  0  0  0  0  0  0  0  0  0  0  # atno 8009 bound_to 7997
  155.8005  140.3453  155.5403 H   0  0  0  0  0  0  0  0  0  0  0  0  # atno 8010 bound_to 7997
  139.4884  144.5725  151.7027 H   0  0  0  0  0  0  0  0  0  0  0  0  # atno 10167 bound_to 10162
  157.4018  130.7864  149.7355 H   0  0  0  0  0  0  0  0  0  0  0  0  # atno 10718 bound_to 10713
  154.8234  135.4574  154.0845 H   0  0  0  0  0  0  0  0  0  0  0  0  # atno 10763 bound_to 10752
  153.2180  135.6890  153.8040 H   0  0  0  0  0  0  0  0  0  0  0  0  # atno 10764 bound_to 10752
  153.7468  135.3304  155.3290 H   0  0  0  0  0  0  0  0  0  0  0  0  # atno 10765 bound_to 10752
  140.9579  134.0976  157.3997 H   0  0  0  0  0  0  0  0  0  0  0  0  # atno 11005 bound_to 11000
  145.9931  139.3030  143.0973 LP  0  0  0  0  0  0  0  0  0  0  0  0  # atno 17320 bound_to 7965
  145.8880  140.9321  143.0566 LP  0  0  0  0  0  0  0  0  0  0  0  0  # atno 17321 bound_to 7965
  140.5315  144.0722  150.6055 LP  0  0  0  0  0  0  0  0  0  0  0  0  # atno 17342 bound_to 10162
  140.3714  143.2852  152.0274 LP  0  0  0  0  0  0  0  0  0  0  0  0  # atno 17343 bound_to 10162
  155.9825  130.4009  150.3412 LP  0  0  0  0  0  0  0  0  0  0  0  0  # atno 17370 bound_to 10713
  157.1540  131.0328  151.2872 LP  0  0  0  0  0  0  0  0  0  0  0  0  # atno 17371 bound_to 10713
  139.8868  135.0085  156.6523 LP  0  0  0  0  0  0  0  0  0  0  0  0  # atno 17394 bound_to 11000
  140.7509  133.8898  155.8346 LP  0  0  0  0  0  0  0  0  0  0  0  0  # atno 17395 bound_to 11000

$$$$
