AV-unprocessed.smi:1248|AV-procd|sdf|5251|dock3
  -GOLD-   22720 4363D 1   1.00000     0.00000
 Structure written by MMmdl.
 44 46  0  0  0  0  0  0  0  0  2 V2000
  150.8856  142.2322  157.2171 C   0  0  0  0  0  0  0  0  0  0  0  0
  151.0046  141.6493  155.8042 C   0  0  0  0  0  0  0  0  0  0  0  0
  149.9968  140.6372  155.5547 N   0  0  0  0  0  0  0  0  0  0  0  0
  149.7769  139.9177  154.3969 C   0  0  0  0  0  0  0  0  0  0  0  0
  148.7226  139.0970  154.6638 C   0  0  0  0  0  0  0  0  0  0  0  0
  148.1563  138.1813  153.7421 N   0  0  0  0  0  0  0  0  0  0  0  0
  146.8542  138.0124  153.4617 C   0  0  0  0  0  0  0  0  0  0  0  0
  145.9293  138.6280  153.9916 O   0  0  0  0  0  0  0  0  0  0  0  0
  146.6754  137.0784  152.5163 N   0  0  0  0  0  0  0  0  0  0  0  0
  145.3820  136.6601  151.9828 C   0  0  2  0  0  0  0  0  0  0  0  0
  144.6476  135.7904  153.0174 C   0  0  0  0  0  0  0  0  0  0  0  0
  143.3195  135.2494  152.4532 C   0  0  0  0  0  0  0  0  0  0  0  0
  143.5124  134.5108  151.1787 N   0  3  2  0  0  0  0  0  0  0  0  0
  144.1155  133.1698  151.3631 C   0  0  0  0  0  0  0  0  0  0  0  0
  144.8372  132.6552  150.1395 C   0  0  0  0  0  0  0  0  0  0  0  0
  143.4803  132.0981  150.5082 C   0  0  0  0  0  0  0  0  0  0  0  0
  144.2086  135.3341  150.1573 C   0  0  0  0  0  0  0  0  0  0  0  0
  145.5569  135.8740  150.6690 C   0  0  0  0  0  0  0  0  0  0  0  0
  148.3502  139.3687  156.0108 C   0  0  0  0  0  0  0  0  0  0  0  0
  149.1283  140.3010  156.5400 N   0  0  0  0  0  0  0  0  0  0  0  0
  151.6485  142.9915  157.3888 H   0  0  0  0  0  0  0  0  0  0  0  0
  151.0111  141.4572  157.9736 H   0  0  0  0  0  0  0  0  0  0  0  0
  149.9118  142.6982  157.3716 H   0  0  0  0  0  0  0  0  0  0  0  0
  150.9037  142.4388  155.0581 H   0  0  0  0  0  0  0  0  0  0  0  0
  151.9897  141.2032  155.6620 H   0  0  0  0  0  0  0  0  0  0  0  0
  150.3753  140.0510  153.5077 H   0  0  0  0  0  0  0  0  0  0  0  0
  148.8119  137.6045  153.2358 H   0  0  0  0  0  0  0  0  0  0  0  0
  147.4939  136.6229  152.1395 H   0  0  0  0  0  0  0  0  0  0  0  0
  144.7746  137.5465  151.7888 H   0  0  0  0  0  0  0  0  0  0  0  0
  145.2831  134.9592  153.3256 H   0  0  0  0  0  0  0  0  0  0  0  0
  144.4504  136.3718  153.9189 H   0  0  0  0  0  0  0  0  0  0  0  0
  142.8285  134.6066  153.1846 H   0  0  0  0  0  0  0  0  0  0  0  0
  142.6376  136.0806  152.2687 H   0  0  0  0  0  0  0  0  0  0  0  0
  144.4878  132.9299  152.3572 H   0  0  0  0  0  0  0  0  0  0  0  0
  144.8944  133.2996  149.2642 H   0  0  0  0  0  0  0  0  0  0  0  0
  145.7003  132.0123  150.3004 H   0  0  0  0  0  0  0  0  0  0  0  0
  143.4496  131.0874  150.9101 H   0  0  0  0  0  0  0  0  0  0  0  0
  142.6375  132.3728  149.8763 H   0  0  0  0  0  0  0  0  0  0  0  0
  144.3528  134.7539  149.2452 H   0  0  0  0  0  0  0  0  0  0  0  0
  143.5608  136.1696  149.8893 H   0  0  0  0  0  0  0  0  0  0  0  0
  146.0025  136.5124  149.9052 H   0  0  0  0  0  0  0  0  0  0  0  0
  146.2537  135.0484  150.8180 H   0  0  0  0  0  0  0  0  0  0  0  0
  147.5650  138.9394  156.6148 H   0  0  0  0  0  0  0  0  0  0  0  0
  142.5867  134.3371  150.8138 H   0  0  0  0  0  0  0  0  0  0  0  0
  1  2  1  0  0  0  0
  1 21  1  0  0  0  0
  1 22  1  0  0  0  0
  1 23  1  0  0  0  0
  2  3  1  0  0  0  0
  2 24  1  0  0  0  0
  2 25  1  0  0  0  0
  3 20  1  0  0  0  0
  3  4  1  0  0  0  0
  4  5  2  0  0  0  0
  4 26  1  0  0  0  0
  5  6  1  0  0  0  0
  5 19  1  0  0  0  0
  6  7  1  0  0  0  0
  6 27  1  0  0  0  0
  7  8  2  0  0  0  0
  7  9  1  0  0  0  0
  9 10  1  0  0  0  0
  9 28  1  0  0  0  0
 10 18  1  0  0  0  0
 10 11  1  0  0  0  0
 10 29  1  0  0  0  0
 11 12  1  0  0  0  0
 11 30  1  0  0  0  0
 11 31  1  0  0  0  0
 12 13  1  0  0  0  0
 12 32  1  0  0  0  0
 12 33  1  0  0  0  0
 13 14  1  0  0  0  0
 13 17  1  0  0  0  0
 13 44  1  0  0  0  0
 14 16  1  0  0  0  0
 14 15  1  0  0  0  0
 14 34  1  0  0  0  0
 15 16  1  0  0  0  0
 15 35  1  0  0  0  0
 15 36  1  0  0  0  0
 16 37  1  0  0  0  0
 16 38  1  0  0  0  0
 17 18  1  0  0  0  0
 17 39  1  0  0  0  0
 17 40  1  0  0  0  0
 18 41  1  0  0  0  0
 18 42  1  0  0  0  0
 19 20  2  0  0  0  0
 19 43  1  0  0  0  0
M  CHG  1  13   1
M  END
> <s_m_source_file>
AV-unprocessed.smi

> <i_m_source_file_index>
1248

> <i_lp_mmshare_version>
43012

> <i_f3d_flags>
0

> <s_epik_input>
W0NIM11bQ0gyXW4xW2NIXWMoW2NIXW4xKVtOSF1DKD1PKVtOSF1bQ0hdMltDSDJdW0NIMl1OKFtDSDJdW0NIMl0yKVtDSF0zW0NIMl1bQ0gyXTM=

> <s_epik_cmdline>
J2VwaWtfcHl0aG9uJywgJy1waCcsICc3LjAnLCAnLXRuJywgJzgnLCAnLW1hJywgJzIwMCcsICctbWV0YWxfYmluZGluZycsICctaW1hZScsICc8aW5maWxlLm1hZT4nLCAnLW9tYWUnLCAnPG91dGZpbGUubWFlPic=

> <r_lp_tautomer_probability>
1

> <r_epik_Ionization_Penalty>
0.115699

> <r_epik_Ionization_Penalty_Charging>
0.115549

> <r_epik_Ionization_Penalty_Neutral>
0.00014958

> <r_epik_State_Penalty>
0.105184

> <r_epik_Charging_Adjusted_Penalty>
0.220733

> <i_epik_Tot_Q>
1

> <i_epik_Tot_abs_Q>
1

> <r_epik_Metal_State_Penalty>
0.105189

> <b_epik_Metal_Only>
0

> <s_lp_Force_Field>
OPLS_2005

> <r_lp_Energy>
31.7182

> <b_lp_Chiralities_Consistent>
1

> <s_lp_Variant>
AV-unprocessed.smi:1248-2

> <Gold.Version>
5.8.1

> <Gold.Id.Protein>
6NUR|6NUR_protein|mol2

> <Gold.PLP.Fitness>
45.5820

> <Gold.PLP.PLP>
-32.5415

> <Gold.PLP.part.hbond>
-2.9603

> <Gold.PLP.part.metal>
0.0000

> <Gold.PLP.part.buried>
-3.4919

> <Gold.PLP.part.nonpolar>
-25.8214

> <Gold.PLP.part.repulsive>
0.1982

> <Gold.PLP.ligand.clash>
0.0000

> <Gold.PLP.ligand.torsion>
1.4606

> <Gold.PLP.Chemscore.Hbond>
3.8960

> <Gold.PLP.Chemscore.CHOScore>
1.0000

> <Gold.PLP.Chemscore.Metal>
0.0000

> <Gold.Chemscore.Hbonds>
donor molecule, donor type, donor heavy atom, donor atom, acceptor molecule, acceptor atom, score
      L1  H     6    27       P1  7948  0.90
      L1  H     9    28       P1  7948  0.98
      L1  H    13    44       P1 10186  2.00
      L1  C     4    26       P1  7957  0.97

> <Gold.PLP.Chemscore.Internal.Correction>
1.2738

> <Gold.Rescore>
     Score         DG    S(hbond)    S(metal)    S(lipo)     H(rot)  DE(clash)    DE(int)     intcor
     19.19     -20.89       2.72        0.00      83.50       1.34       0.31       1.39       ----

> <Gold.Chemscore.Fitness>
19.1870

> <Gold.Chemscore.DG>
-20.8854

> <Gold.Chemscore.ZeroCoef>
-5.4800

> <Gold.Chemscore.Hbond>
2.7174

> <Gold.Chemscore.Metal>
0.0000

> <Gold.Chemscore.Lipo>
83.4985

> <Gold.Chemscore.Internal_Hbond>
0.0000

> <Gold.Chemscore.DEClash>
0.3133

> <Gold.Chemscore.DEInternal>
1.3851

> <Gold.Chemscore.Rot>
1.3438

> <Gold.Chemscore.Internal.Correction>
   9.000000E+99

> <Gold.Chemscore.Hbonds>
donor molecule, donor type, donor heavy atom, donor atom, acceptor molecule, acceptor atom, score
      L1  H     6    27       P1  7948  0.88
      L1  H     9    28       P1  7948  0.92
      L1  H    13    44       P1 10186  0.28

> <Gold.Chemscore.Hbond.Weighted>
-9.0762

> <Gold.Chemscore.Metal.Weighted>
-0.0000

> <Gold.Chemscore.Lipo.Weighted>
-9.7693

> <Gold.Chemscore.Internal_Hbond.Weighted>
0.0000

> <Gold.Chemscore.DEClash.Weighted>
0.3133

> <Gold.Chemscore.DEInternal.Weighted>
1.3851

> <Gold.Chemscore.Rot.Weighted>
3.4401

> <Gold.Chemscore.Internal.Correction.Weighted>
   9.000000E+99

> <Gold.Protein.RotatedTorsions>
[ 6907 6896 6895 6894 ] final    0.01 input  -60.11 | X-H torsion
[ 7974 7965 7964 7962 ] final  -16.90 input  175.53 | X-H torsion
[ 8008 7997 7996 7995 ] final   76.85 input   59.86 | X-H torsion
[ 10167 10162 10161 10158 ] final   94.30 input  -65.29 | X-H torsion
[ 10718 10713 10712 10709 ] final   63.69 input   66.30 | X-H torsion
[ 10763 10752 10751 10750 ] final  -20.76 input  -60.55 | X-H torsion
[ 11005 11000 10999 10996 ] final   10.06 input  -57.11 | X-H torsion

> <Gold.Protein.ActiveResidues>
 VAL166  LYS551  ARG553  GLY616  TRP617  ASP618  TYR619  PRO620  LYS621  CYS622 
 ASP623  PHE694  ASN695  SER759  ASP760  ASP761  ALA762  ILE779  LEU786  VAL792 
 PHE793  MET794  SER795  GLU796  ALA797  LYS798  CYS799  TRP800  GLU811  SER814 

> <Gold.Protein.RotatedAtoms>
  151.5695  135.1063  159.9991 H   0  0  0  0  0  0  0  0  0  0  0  0  # atno 6907 bound_to 6896
  152.4408  133.7440  159.6667 H   0  0  0  0  0  0  0  0  0  0  0  0  # atno 6908 bound_to 6896
  150.8313  133.8018  159.3121 H   0  0  0  0  0  0  0  0  0  0  0  0  # atno 6909 bound_to 6896
  146.1966  140.3703  142.8438 H   0  0  0  0  0  0  0  0  0  0  0  0  # atno 7974 bound_to 7965
  155.8333  140.3465  155.5586 H   0  0  0  0  0  0  0  0  0  0  0  0  # atno 8008 bound_to 7997
  155.8219  140.0914  157.1864 H   0  0  0  0  0  0  0  0  0  0  0  0  # atno 8009 bound_to 7997
  154.4004  140.1428  156.3497 H   0  0  0  0  0  0  0  0  0  0  0  0  # atno 8010 bound_to 7997
  139.8097  144.6779  150.9657 H   0  0  0  0  0  0  0  0  0  0  0  0  # atno 10167 bound_to 10162
  157.5989  130.9119  149.9749 H   0  0  0  0  0  0  0  0  0  0  0  0  # atno 10718 bound_to 10713
  153.6255  135.6991  153.5295 H   0  0  0  0  0  0  0  0  0  0  0  0  # atno 10763 bound_to 10752
  153.2903  135.4159  155.1160 H   0  0  0  0  0  0  0  0  0  0  0  0  # atno 10764 bound_to 10752
  154.8534  135.3623  154.5796 H   0  0  0  0  0  0  0  0  0  0  0  0  # atno 10765 bound_to 10752
  140.5188  134.0580  155.7838 H   0  0  0  0  0  0  0  0  0  0  0  0  # atno 11005 bound_to 11000
  144.8593  140.7116  143.6117 LP  0  0  0  0  0  0  0  0  0  0  0  0  # atno 17320 bound_to 7965
  145.3623  139.1678  143.4376 LP  0  0  0  0  0  0  0  0  0  0  0  0  # atno 17321 bound_to 7965
  140.7818  143.4198  151.0860 LP  0  0  0  0  0  0  0  0  0  0  0  0  # atno 17342 bound_to 10162
  139.7865  143.8280  152.3145 LP  0  0  0  0  0  0  0  0  0  0  0  0  # atno 17343 bound_to 10162
  156.1057  130.3653  150.0138 LP  0  0  0  0  0  0  0  0  0  0  0  0  # atno 17370 bound_to 10713
  156.8245  130.9370  151.3640 LP  0  0  0  0  0  0  0  0  0  0  0  0  # atno 17371 bound_to 10713
  141.1346  133.9244  157.2462 LP  0  0  0  0  0  0  0  0  0  0  0  0  # atno 17394 bound_to 11000
  139.9617  135.0152  156.9280 LP  0  0  0  0  0  0  0  0  0  0  0  0  # atno 17395 bound_to 11000

$$$$
