AV-unprocessed.smi:2099|AV-procd|sdf|8569|dock4
  -GOLD-   2272011303D 1   1.00000     0.00000
 Structure written by MMmdl.
 32 33  0  0  0  0  0  0  0  0  1 V2000
  146.7670  138.7577  151.7242 C   0  0  0  0  0  0  0  0  0  0  0  0
  147.5484  139.7494  152.5981 C   0  0  2  0  0  0  0  0  0  0  0  0
  148.2239  139.0426  153.7891 C   0  0  0  0  0  0  0  0  0  0  0  0
  149.0032  140.0338  154.6691 C   0  0  0  0  0  0  0  0  0  0  0  0
  148.0993  141.1767  155.1659 C   0  0  1  0  0  0  0  0  0  0  0  0
  148.8877  142.1229  155.9509 N   0  0  0  0  0  0  0  0  0  0  0  0
  149.7459  141.7916  156.9271 C   0  0  0  0  0  0  0  0  0  0  0  0
  149.9633  140.6304  157.2746 O   0  0  0  0  0  0  0  0  0  0  0  0
  150.3208  142.8836  157.4615 N   0  0  0  0  0  0  0  0  0  0  0  0
  151.2708  142.9521  158.5151 C   0  0  0  0  0  0  0  0  0  0  0  0
  151.4758  141.9624  159.3985 N   0  0  0  0  0  0  0  0  0  0  0  0
  152.4583  142.2877  160.3249 N   0  0  0  0  0  0  0  0  0  0  0  0
  152.9549  143.5082  160.1044 C   0  0  0  0  0  0  0  0  0  0  0  0
  152.2722  144.3791  158.7421 S   0  0  0  0  0  0  0  0  0  0  0  0
  147.4208  141.8869  153.9770 C   0  0  0  0  0  0  0  0  0  0  0  0
  146.6450  140.8935  153.0968 C   0  0  0  0  0  0  0  0  0  0  0  0
  145.9654  138.2786  152.2872 H   0  0  0  0  0  0  0  0  0  0  0  0
  147.4199  137.9732  151.3406 H   0  0  0  0  0  0  0  0  0  0  0  0
  146.3175  139.2595  150.8669 H   0  0  0  0  0  0  0  0  0  0  0  0
  148.3322  140.1863  151.9774 H   0  0  0  0  0  0  0  0  0  0  0  0
  147.4695  138.5371  154.3938 H   0  0  0  0  0  0  0  0  0  0  0  0
  148.8997  138.2664  153.4284 H   0  0  0  0  0  0  0  0  0  0  0  0
  149.4377  139.5050  155.5182 H   0  0  0  0  0  0  0  0  0  0  0  0
  149.8387  140.4427  154.0991 H   0  0  0  0  0  0  0  0  0  0  0  0
  147.3277  140.7426  155.8047 H   0  0  0  0  0  0  0  0  0  0  0  0
  148.7684  143.1017  155.7341 H   0  0  0  0  0  0  0  0  0  0  0  0
  150.0440  143.7720  157.0709 H   0  0  0  0  0  0  0  0  0  0  0  0
  153.7291  143.8979  160.7485 H   0  0  0  0  0  0  0  0  0  0  0  0
  146.7413  142.6602  154.3370 H   0  0  0  0  0  0  0  0  0  0  0  0
  148.1731  142.3951  153.3719 H   0  0  0  0  0  0  0  0  0  0  0  0
  146.2102  141.4224  152.2480 H   0  0  0  0  0  0  0  0  0  0  0  0
  145.8087  140.4828  153.6643 H   0  0  0  0  0  0  0  0  0  0  0  0
  1  2  1  0  0  0  0
  1 17  1  0  0  0  0
  1 18  1  0  0  0  0
  1 19  1  0  0  0  0
  2 16  1  0  0  0  0
  2  3  1  0  0  0  0
  2 20  1  0  0  0  0
  3  4  1  0  0  0  0
  3 21  1  0  0  0  0
  3 22  1  0  0  0  0
  4  5  1  0  0  0  0
  4 23  1  0  0  0  0
  4 24  1  0  0  0  0
  5  6  1  0  0  0  0
  5 15  1  0  0  0  0
  5 25  1  0  0  0  0
  6  7  1  0  0  0  0
  6 26  1  0  0  0  0
  7  8  2  0  0  0  0
  7  9  1  0  0  0  0
  9 10  1  0  0  0  0
  9 27  1  0  0  0  0
 10 14  1  0  0  0  0
 10 11  2  0  0  0  0
 11 12  1  0  0  0  0
 12 13  2  0  0  0  0
 13 14  1  0  0  0  0
 13 28  1  0  0  0  0
 15 16  1  0  0  0  0
 15 29  1  0  0  0  0
 15 30  1  0  0  0  0
 16 31  1  0  0  0  0
 16 32  1  0  0  0  0
M  END
> <s_m_source_file>
AV-unprocessed.smi

> <i_m_source_file_index>
2099

> <i_lp_mmshare_version>
43012

> <i_f3d_flags>
0

> <s_epik_input>
W0NIM11bQ0BASF0xW0NIMl1bQ0gyXVtDQEhdKFtDSDJdW0NIMl0xKVtOSF1DKD1PKVtOSF1jMm5uW2NIXXMy

> <s_epik_cmdline>
J2VwaWtfcHl0aG9uJywgJy1waCcsICc3LjAnLCAnLXRuJywgJzgnLCAnLW1hJywgJzIwMCcsICctbWV0YWxfYmluZGluZycsICctaW1hZScsICc8aW5maWxlLm1hZT4nLCAnLW9tYWUnLCAnPG91dGZpbGUubWFlPic=

> <r_lp_tautomer_probability>
1

> <r_epik_Ionization_Penalty>
0.000322846

> <r_epik_Ionization_Penalty_Charging>
0

> <r_epik_Ionization_Penalty_Neutral>
0.000322846

> <r_epik_State_Penalty>
-0

> <r_epik_Charging_Adjusted_Penalty>
0

> <i_epik_Tot_Q>
0

> <i_epik_Tot_abs_Q>
0

> <r_epik_Metal_State_Penalty>
0.17121

> <b_epik_Metal_Only>
0

> <s_lp_Force_Field>
OPLS_2005

> <r_lp_Energy>
7.94157

> <b_lp_Chiralities_Consistent>
1

> <s_lp_Variant>
AV-unprocessed.smi:2099-1

> <Gold.Version>
5.8.1

> <Gold.Id.Protein>
6NUR|6NUR_protein|mol2

> <Gold.PLP.Fitness>
34.9872

> <Gold.PLP.PLP>
-29.5959

> <Gold.PLP.part.hbond>
-2.6480

> <Gold.PLP.part.metal>
0.0000

> <Gold.PLP.part.buried>
2.3916

> <Gold.PLP.part.nonpolar>
-28.7335

> <Gold.PLP.part.repulsive>
0.1537

> <Gold.PLP.ligand.clash>
0.0000

> <Gold.PLP.ligand.torsion>
0.1978

> <Gold.PLP.Chemscore.Hbond>
1.9280

> <Gold.PLP.Chemscore.CHOScore>
0.0000

> <Gold.PLP.Chemscore.Metal>
0.0000

> <Gold.Chemscore.Hbonds>
donor molecule, donor type, donor heavy atom, donor atom, acceptor molecule, acceptor atom, score
      L1  H     6    26       P1  8028  1.00
      L1  H     9    27       P1  8028  0.92

> <Gold.PLP.Chemscore.Internal.Correction>
0.0029

> <Gold.Rescore>
     Score         DG    S(hbond)    S(metal)    S(lipo)     H(rot)  DE(clash)    DE(int)     intcor
     14.00     -18.49       1.91        0.00      78.63       1.00       1.83       2.66       ----

> <Gold.Chemscore.Fitness>
14.0001

> <Gold.Chemscore.DG>
-18.4871

> <Gold.Chemscore.ZeroCoef>
-5.4800

> <Gold.Chemscore.Hbond>
1.9064

> <Gold.Chemscore.Metal>
0.0000

> <Gold.Chemscore.Lipo>
78.6294

> <Gold.Chemscore.Internal_Hbond>
0.0000

> <Gold.Chemscore.DEClash>
1.8266

> <Gold.Chemscore.DEInternal>
2.6604

> <Gold.Chemscore.Rot>
1.0000

> <Gold.Chemscore.Internal.Correction>
   9.000000E+99

> <Gold.Chemscore.Hbonds>
donor molecule, donor type, donor heavy atom, donor atom, acceptor molecule, acceptor atom, score
      L1  H     6    26       P1  8028  0.99
      L1  H     9    27       P1  8028  0.80

> <Gold.Chemscore.Hbond.Weighted>
-6.3675

> <Gold.Chemscore.Metal.Weighted>
-0.0000

> <Gold.Chemscore.Lipo.Weighted>
-9.1996

> <Gold.Chemscore.Internal_Hbond.Weighted>
0.0000

> <Gold.Chemscore.DEClash.Weighted>
1.8266

> <Gold.Chemscore.DEInternal.Weighted>
2.6604

> <Gold.Chemscore.Rot.Weighted>
2.5600

> <Gold.Chemscore.Internal.Correction.Weighted>
   9.000000E+99

> <Gold.Protein.RotatedTorsions>
[ 6907 6896 6895 6894 ] final   24.95 input  -60.11 | X-H torsion
[ 7974 7965 7964 7962 ] final   62.94 input  175.53 | X-H torsion
[ 8008 7997 7996 7995 ] final    7.49 input   59.86 | X-H torsion
[ 10167 10162 10161 10158 ] final  159.09 input  -65.29 | X-H torsion
[ 10718 10713 10712 10709 ] final  142.35 input   66.30 | X-H torsion
[ 10763 10752 10751 10750 ] final   13.33 input  -60.55 | X-H torsion
[ 11005 11000 10999 10996 ] final  153.11 input  -57.11 | X-H torsion

> <Gold.Protein.ActiveResidues>
 VAL166  LYS551  ARG553  GLY616  TRP617  ASP618  TYR619  PRO620  LYS621  CYS622 
 ASP623  PHE694  ASN695  SER759  ASP760  ASP761  ALA762  ILE779  LEU786  VAL792 
 PHE793  MET794  SER795  GLU796  ALA797  LYS798  CYS799  TRP800  GLU811  SER814 

> <Gold.Protein.RotatedAtoms>
  151.9652  135.0104  160.0549 H   0  0  0  0  0  0  0  0  0  0  0  0  # atno 6907 bound_to 6896
  152.1833  133.4717  159.4977 H   0  0  0  0  0  0  0  0  0  0  0  0  # atno 6908 bound_to 6896
  150.6921  134.1723  159.4260 H   0  0  0  0  0  0  0  0  0  0  0  0  # atno 6909 bound_to 6896
  145.8676  139.3356  143.0781 H   0  0  0  0  0  0  0  0  0  0  0  0  # atno 7974 bound_to 7965
  154.7545  140.2773  155.6265 H   0  0  0  0  0  0  0  0  0  0  0  0  # atno 8008 bound_to 7997
  156.2903  140.2672  156.2234 H   0  0  0  0  0  0  0  0  0  0  0  0  # atno 8009 bound_to 7997
  155.0095  140.0372  157.2383 H   0  0  0  0  0  0  0  0  0  0  0  0  # atno 8010 bound_to 7997
  139.4830  144.4763  151.8506 H   0  0  0  0  0  0  0  0  0  0  0  0  # atno 10167 bound_to 10162
  157.3816  131.0993  151.0733 H   0  0  0  0  0  0  0  0  0  0  0  0  # atno 10718 bound_to 10713
  153.1732  135.6816  153.8579 H   0  0  0  0  0  0  0  0  0  0  0  0  # atno 10763 bound_to 10752
  153.7936  135.3165  155.3382 H   0  0  0  0  0  0  0  0  0  0  0  0  # atno 10764 bound_to 10752
  154.8012  135.4777  154.0372 H   0  0  0  0  0  0  0  0  0  0  0  0  # atno 10765 bound_to 10752
  140.1368  134.8765  157.2278 H   0  0  0  0  0  0  0  0  0  0  0  0  # atno 11005 bound_to 11000
  145.9175  140.9138  143.0422 LP  0  0  0  0  0  0  0  0  0  0  0  0  # atno 17320 bound_to 7965
  144.6726  140.1243  143.7448 LP  0  0  0  0  0  0  0  0  0  0  0  0  # atno 17321 bound_to 7965
  140.4236  144.2210  150.5887 LP  0  0  0  0  0  0  0  0  0  0  0  0  # atno 17342 bound_to 10162
  140.4849  143.2366  151.8902 LP  0  0  0  0  0  0  0  0  0  0  0  0  # atno 17343 bound_to 10162
  157.1800  130.6305  149.5668 LP  0  0  0  0  0  0  0  0  0  0  0  0  # atno 17370 bound_to 10713
  155.9777  130.4756  150.6610 LP  0  0  0  0  0  0  0  0  0  0  0  0  # atno 17371 bound_to 10713
  140.2772  134.3392  155.7354 LP  0  0  0  0  0  0  0  0  0  0  0  0  # atno 17394 bound_to 11000
  141.2179  133.7457  156.9310 LP  0  0  0  0  0  0  0  0  0  0  0  0  # atno 17395 bound_to 11000

$$$$
