AV-unprocessed.smi:2252|AV-procd|sdf|9112|dock5
  -GOLD-   2272012313D 1   1.00000     0.00000
 Structure written by MMmdl.
 44 46  0  0  0  0  0  0  0  0  3 V2000
  147.3536  133.8080  161.7602 C   0  0  0  0  0  0  0  0  0  0  0  0
  147.2889  135.2484  161.9199 N   0  0  0  0  0  0  0  0  0  0  0  0
  147.1122  135.9237  163.1205 C   0  0  0  0  0  0  0  0  0  0  0  0
  147.1145  137.2645  162.8231 C   0  0  0  0  0  0  0  0  0  0  0  0
  147.2905  137.4329  161.4544 N   0  0  0  0  0  0  0  0  0  0  0  0
  147.3855  136.1973  160.9641 C   0  0  0  0  0  0  0  0  0  0  0  0
  147.5911  135.8866  159.5052 C   0  0  0  0  0  0  0  0  0  0  0  0
  148.7828  136.6261  158.8560 C   0  0  0  0  0  0  0  0  0  0  0  0
  149.0126  136.1250  157.5025 N   0  5  0  0  0  0  0  0  0  0  0  0
  150.2380  136.0807  156.9049 C   0  0  0  0  0  0  0  0  0  0  0  0
  151.3635  136.2742  157.3749 O   0  0  0  0  0  0  0  0  0  0  0  0
  150.1272  135.7291  155.4085 C   0  0  1  0  0  0  0  0  0  0  0  0
  149.0942  134.5952  155.2069 C   0  0  0  0  0  0  0  0  0  0  0  0
  149.4317  133.1668  155.5781 C   0  0  0  0  0  0  0  0  0  0  0  0
  149.2753  133.5482  154.1288 C   0  0  0  0  0  0  0  0  0  0  0  0
  149.8151  136.9226  154.5712 N   0  3  0  0  0  0  0  0  0  0  0  0
  148.5952  137.6667  154.9512 C   0  0  0  0  0  0  0  0  0  0  0  0
  148.7327  139.0141  154.2521 C   0  0  0  0  0  0  0  0  0  0  0  0
  150.2305  139.3020  154.3260 C   0  0  0  0  0  0  0  0  0  0  0  0
  150.9005  137.9257  154.4546 C   0  0  0  0  0  0  0  0  0  0  0  0
  147.1880  133.3151  162.7182 H   0  0  0  0  0  0  0  0  0  0  0  0
  148.3353  133.5224  161.3821 H   0  0  0  0  0  0  0  0  0  0  0  0
  146.5874  133.4781  161.0583 H   0  0  0  0  0  0  0  0  0  0  0  0
  147.0035  135.4081  164.0632 H   0  0  0  0  0  0  0  0  0  0  0  0
  147.0051  138.1132  163.4819 H   0  0  0  0  0  0  0  0  0  0  0  0
  147.7366  134.8094  159.4133 H   0  0  0  0  0  0  0  0  0  0  0  0
  146.6731  136.1065  158.9594 H   0  0  0  0  0  0  0  0  0  0  0  0
  148.5635  137.6939  158.8362 H   0  0  0  0  0  0  0  0  0  0  0  0
  149.6649  136.5231  159.4892 H   0  0  0  0  0  0  0  0  0  0  0  0
  151.1032  135.3577  155.0905 H   0  0  0  0  0  0  0  0  0  0  0  0
  148.0682  134.8946  155.4150 H   0  0  0  0  0  0  0  0  0  0  0  0
  150.4384  132.9598  155.9363 H   0  0  0  0  0  0  0  0  0  0  0  0
  148.6439  132.5689  156.0315 H   0  0  0  0  0  0  0  0  0  0  0  0
  148.3826  133.2040  153.6107 H   0  0  0  0  0  0  0  0  0  0  0  0
  150.1788  133.5892  153.5238 H   0  0  0  0  0  0  0  0  0  0  0  0
  147.6847  137.1433  154.6574 H   0  0  0  0  0  0  0  0  0  0  0  0
  148.5717  137.8103  156.0327 H   0  0  0  0  0  0  0  0  0  0  0  0
  148.4255  138.9197  153.2097 H   0  0  0  0  0  0  0  0  0  0  0  0
  148.1260  139.7946  154.7122 H   0  0  0  0  0  0  0  0  0  0  0  0
  150.5831  139.8557  153.4551 H   0  0  0  0  0  0  0  0  0  0  0  0
  150.4508  139.9023  155.2097 H   0  0  0  0  0  0  0  0  0  0  0  0
  151.5374  137.9177  155.3398 H   0  0  0  0  0  0  0  0  0  0  0  0
  151.5250  137.6958  153.5908 H   0  0  0  0  0  0  0  0  0  0  0  0
  149.6454  136.5742  153.6380 H   0  0  0  0  0  0  0  0  0  0  0  0
  1  2  1  0  0  0  0
  1 21  1  0  0  0  0
  1 22  1  0  0  0  0
  1 23  1  0  0  0  0
  2  6  1  0  0  0  0
  2  3  1  0  0  0  0
  3  4  2  0  0  0  0
  3 24  1  0  0  0  0
  4  5  1  0  0  0  0
  4 25  1  0  0  0  0
  5  6  2  0  0  0  0
  6  7  1  0  0  0  0
  7  8  1  0  0  0  0
  7 26  1  0  0  0  0
  7 27  1  0  0  0  0
  8  9  1  0  0  0  0
  8 28  1  0  0  0  0
  8 29  1  0  0  0  0
  9 10  1  0  0  0  0
 10 11  2  0  0  0  0
 10 12  1  0  0  0  0
 12 13  1  0  0  0  0
 12 16  1  0  0  0  0
 12 30  1  0  0  0  0
 13 15  1  0  0  0  0
 13 14  1  0  0  0  0
 13 31  1  0  0  0  0
 14 15  1  0  0  0  0
 14 32  1  0  0  0  0
 14 33  1  0  0  0  0
 15 34  1  0  0  0  0
 15 35  1  0  0  0  0
 16 20  1  0  0  0  0
 16 17  1  0  0  0  0
 16 44  1  0  0  0  0
 17 18  1  0  0  0  0
 17 36  1  0  0  0  0
 17 37  1  0  0  0  0
 18 19  1  0  0  0  0
 18 38  1  0  0  0  0
 18 39  1  0  0  0  0
 19 20  1  0  0  0  0
 19 40  1  0  0  0  0
 19 41  1  0  0  0  0
 20 42  1  0  0  0  0
 20 43  1  0  0  0  0
M  CHG  1   9  -1
M  CHG  1  16   1
M  END
> <s_m_source_file>
AV-unprocessed.smi

> <i_m_source_file_index>
2252

> <i_lp_mmshare_version>
43012

> <i_f3d_flags>
0

> <s_epik_input>
W0NIM11uMVtjSF1bY0hdbmMxW0NIMl1bQ0gyXVtOSF1DKD1PKVtDQEhdKFtDSF0yW0NIMl1bQ0gyXTIpTjNbQ0gyXVtDSDJdW0NIMl1bQ0gyXTM=

> <s_epik_cmdline>
J2VwaWtfcHl0aG9uJywgJy1waCcsICc3LjAnLCAnLXRuJywgJzgnLCAnLW1hJywgJzIwMCcsICctbWV0YWxfYmluZGluZycsICctaW1hZScsICc8aW5maWxlLm1hZT4nLCAnLW9tYWUnLCAnPG91dGZpbGUubWFlPic=

> <r_lp_tautomer_probability>
1

> <r_epik_Ionization_Penalty>
7.86289

> <r_epik_Ionization_Penalty_Charging>
7.86289

> <r_epik_Ionization_Penalty_Neutral>
4.79398e-13

> <r_epik_State_Penalty>
7.18546

> <r_epik_Charging_Adjusted_Penalty>
15.0484

> <i_epik_Tot_Q>
0

> <i_epik_Tot_abs_Q>
2

> <r_epik_Metal_State_Penalty>
3.4294

> <b_epik_Metal_Only>
1

> <s_lp_Force_Field>
OPLS_2005

> <r_lp_Energy>
30.1163

> <b_lp_Chiralities_Consistent>
1

> <s_lp_Variant>
AV-unprocessed.smi:2252-10

> <Gold.Version>
5.8.1

> <Gold.Id.Protein>
6NUR|6NUR_protein|mol2

> <Gold.PLP.Fitness>
50.4505

> <Gold.PLP.PLP>
-42.2627

> <Gold.PLP.part.hbond>
-3.5786

> <Gold.PLP.part.metal>
0.0000

> <Gold.PLP.part.buried>
-4.5024

> <Gold.PLP.part.nonpolar>
-34.3219

> <Gold.PLP.part.repulsive>
0.0477

> <Gold.PLP.ligand.clash>
0.0000

> <Gold.PLP.ligand.torsion>
1.4806

> <Gold.PLP.Chemscore.Hbond>
3.2820

> <Gold.PLP.Chemscore.CHOScore>
0.0000

> <Gold.PLP.Chemscore.Metal>
0.0000

> <Gold.Chemscore.Hbonds>
donor molecule, donor type, donor heavy atom, donor atom, acceptor molecule, acceptor atom, score
      L1  H    16    44       P1  7948  2.00
      P1  H  6931  6943       L1     5  0.23
      P1  H  6934  6947       L1     5  0.93

> <Gold.PLP.Chemscore.Internal.Correction>
1.3030

> <Gold.Rescore>
     Score         DG    S(hbond)    S(metal)    S(lipo)     H(rot)  DE(clash)    DE(int)     intcor
     13.08     -15.94       1.79        0.00      79.58       1.88       0.00       2.85       ----

> <Gold.Chemscore.Fitness>
13.0831

> <Gold.Chemscore.DG>
-15.9424

> <Gold.Chemscore.ZeroCoef>
-5.4800

> <Gold.Chemscore.Hbond>
1.7868

> <Gold.Chemscore.Metal>
0.0000

> <Gold.Chemscore.Lipo>
79.5792

> <Gold.Chemscore.Internal_Hbond>
0.0000

> <Gold.Chemscore.DEClash>
0.0048

> <Gold.Chemscore.DEInternal>
2.8544

> <Gold.Chemscore.Rot>
1.8814

> <Gold.Chemscore.Internal.Correction>
   9.000000E+99

> <Gold.Chemscore.Hbonds>
donor molecule, donor type, donor heavy atom, donor atom, acceptor molecule, acceptor atom, score
      L1  H    16    44       P1  7948  0.60
      P1  H  6934  6947       L1     5  0.79

> <Gold.Chemscore.Hbond.Weighted>
-5.9679

> <Gold.Chemscore.Metal.Weighted>
-0.0000

> <Gold.Chemscore.Lipo.Weighted>
-9.3108

> <Gold.Chemscore.Internal_Hbond.Weighted>
0.0000

> <Gold.Chemscore.DEClash.Weighted>
0.0048

> <Gold.Chemscore.DEInternal.Weighted>
2.8544

> <Gold.Chemscore.Rot.Weighted>
4.8163

> <Gold.Chemscore.Internal.Correction.Weighted>
   9.000000E+99

> <Gold.Protein.RotatedTorsions>
[ 6907 6896 6895 6894 ] final   50.26 input  -60.11 | X-H torsion
[ 7974 7965 7964 7962 ] final  -36.20 input  175.53 | X-H torsion
[ 8008 7997 7996 7995 ] final   48.24 input   59.86 | X-H torsion
[ 10167 10162 10161 10158 ] final -178.60 input  -65.29 | X-H torsion
[ 10718 10713 10712 10709 ] final  128.71 input   66.30 | X-H torsion
[ 10763 10752 10751 10750 ] final  -33.98 input  -60.55 | X-H torsion
[ 11005 11000 10999 10996 ] final  148.50 input  -57.11 | X-H torsion

> <Gold.Protein.ActiveResidues>
 VAL166  LYS551  ARG553  GLY616  TRP617  ASP618  TYR619  PRO620  LYS621  CYS622 
 ASP623  PHE694  ASN695  SER759  ASP760  ASP761  ALA762  ILE779  LEU786  VAL792 
 PHE793  MET794  SER795  GLU796  ALA797  LYS798  CYS799  TRP800  GLU811  SER814 

> <Gold.Protein.RotatedAtoms>
  152.2999  134.7623  160.0359 H   0  0  0  0  0  0  0  0  0  0  0  0  # atno 6907 bound_to 6896
  151.8140  133.3380  159.3572 H   0  0  0  0  0  0  0  0  0  0  0  0  # atno 6908 bound_to 6896
  150.7269  134.5566  159.5866 H   0  0  0  0  0  0  0  0  0  0  0  0  # atno 6909 bound_to 6896
  146.0682  140.6250  142.8965 H   0  0  0  0  0  0  0  0  0  0  0  0  # atno 7974 bound_to 7965
  155.3824  140.3429  155.4247 H   0  0  0  0  0  0  0  0  0  0  0  0  # atno 8008 bound_to 7997
  156.1603  140.1598  156.8657 H   0  0  0  0  0  0  0  0  0  0  0  0  # atno 8009 bound_to 7997
  154.5133  140.0784  156.8014 H   0  0  0  0  0  0  0  0  0  0  0  0  # atno 8010 bound_to 7997
  139.5425  144.2325  152.0923 H   0  0  0  0  0  0  0  0  0  0  0  0  # atno 10167 bound_to 10162
  157.5220  131.1098  150.9140 H   0  0  0  0  0  0  0  0  0  0  0  0  # atno 10718 bound_to 10713
  153.8392  135.6859  153.4805 H   0  0  0  0  0  0  0  0  0  0  0  0  # atno 10763 bound_to 10752
  153.1464  135.4636  154.9570 H   0  0  0  0  0  0  0  0  0  0  0  0  # atno 10764 bound_to 10752
  154.7852  135.3282  154.7848 H   0  0  0  0  0  0  0  0  0  0  0  0  # atno 10765 bound_to 10752
  140.0965  134.9009  157.1731 H   0  0  0  0  0  0  0  0  0  0  0  0  # atno 11005 bound_to 11000
  144.7215  140.4389  143.7004 LP  0  0  0  0  0  0  0  0  0  0  0  0  # atno 17320 bound_to 7965
  145.6439  139.1554  143.2900 LP  0  0  0  0  0  0  0  0  0  0  0  0  # atno 17321 bound_to 7965
  140.1806  144.4848  150.6530 LP  0  0  0  0  0  0  0  0  0  0  0  0  # atno 17342 bound_to 10162
  140.6660  143.2268  151.5741 LP  0  0  0  0  0  0  0  0  0  0  0  0  # atno 17343 bound_to 10162
  156.9747  130.5504  149.5292 LP  0  0  0  0  0  0  0  0  0  0  0  0  # atno 17370 bound_to 10713
  156.0360  130.5447  150.8654 LP  0  0  0  0  0  0  0  0  0  0  0  0  # atno 17371 bound_to 10713
  140.3279  134.2842  155.7233 LP  0  0  0  0  0  0  0  0  0  0  0  0  # atno 17394 bound_to 11000
  141.2093  133.7752  157.0003 LP  0  0  0  0  0  0  0  0  0  0  0  0  # atno 17395 bound_to 11000

$$$$
