AV-unprocessed.smi:283|AV-procd|sdf|2146|dock4
  -GOLD-   2262021483D 1   1.00000     0.00000
 Structure written by MMmdl.
 48 51  0  0  0  0  0  0  0  0  1 V2000
  150.8049  141.9006  156.7480 C   0  0  0  0  0  0  0  0  0  0  0  0
  151.0311  141.1642  158.0751 C   0  0  1  0  0  0  0  0  0  0  0  0
  152.1216  140.2030  157.9247 N   0  0  0  0  0  0  0  0  0  0  0  0
  152.1179  139.2861  156.9318 C   0  0  0  0  0  0  0  0  0  0  0  0
  152.9239  139.5637  155.8794 N   0  0  0  0  0  0  0  0  0  0  0  0
  153.0085  138.7109  154.8550 C   0  0  0  0  0  0  0  0  0  0  0  0
  152.3814  137.5460  154.6861 N   0  0  0  0  0  0  0  0  0  0  0  0
  151.5553  137.2646  155.7352 C   0  0  0  0  0  0  0  0  0  0  0  0
  151.3604  138.0780  156.8882 C   0  0  0  0  0  0  0  0  0  0  0  0
  150.4322  137.4684  157.7252 N   0  0  0  0  0  0  0  0  0  0  0  0
  150.1182  136.3596  157.1131 C   0  0  0  0  0  0  0  0  0  0  0  0
  150.7474  136.1584  155.9064 N   0  0  0  0  0  0  0  0  0  0  0  0
  150.6052  134.9901  154.9809 C   0  0  2  0  0  0  0  0  0  0  0  0
  149.2585  134.8895  154.6313 O   0  0  0  0  0  0  0  0  0  0  0  0
  148.8841  133.5218  154.5450 C   0  0  1  0  0  0  0  0  0  0  0  0
  149.1591  133.0466  153.1006 C   0  0  0  0  0  0  0  0  0  0  0  0
  148.2423  133.6225  152.1941 O   0  0  0  0  0  0  0  0  0  0  0  0
  149.7254  132.8672  155.6529 C   0  0  1  0  0  0  0  0  0  0  0  0
  149.9313  131.4833  155.4425 O   0  0  0  0  0  0  0  0  0  0  0  0
  151.0348  133.6463  155.6158 C   0  0  2  0  0  0  0  0  0  0  0  0
  151.5978  133.7566  156.9114 O   0  0  0  0  0  0  0  0  0  0  0  0
  151.2137  142.1697  159.2162 C   0  0  0  0  0  0  0  0  0  0  0  0
  150.3982  143.3240  159.2778 C   0  0  0  0  0  0  0  0  0  0  0  0
  150.5534  144.2593  160.3181 C   0  0  0  0  0  0  0  0  0  0  0  0
  151.5213  144.0462  161.3157 C   0  0  0  0  0  0  0  0  0  0  0  0
  152.3283  142.8946  161.2733 C   0  0  0  0  0  0  0  0  0  0  0  0
  152.1772  141.9547  160.2341 C   0  0  0  0  0  0  0  0  0  0  0  0
  153.1864  140.5506  160.2425 Cl  0  0  0  0  0  0  0  0  0  0  0  0
  151.2050  135.2533  154.1086 H   0  0  0  0  0  0  0  0  0  0  0  0
  147.8179  133.4375  154.7597 H   0  0  0  0  0  0  0  0  0  0  0  0
  149.2256  133.0167  156.6112 H   0  0  0  0  0  0  0  0  0  0  0  0
  151.7531  133.1758  154.9426 H   0  0  0  0  0  0  0  0  0  0  0  0
  149.9361  142.5569  156.8069 H   0  0  0  0  0  0  0  0  0  0  0  0
  150.6293  141.1978  155.9329 H   0  0  0  0  0  0  0  0  0  0  0  0
  151.6667  142.5132  156.4810 H   0  0  0  0  0  0  0  0  0  0  0  0
  150.1354  140.5744  158.2617 H   0  0  0  0  0  0  0  0  0  0  0  0
  152.7039  140.0970  158.7425 H   0  0  0  0  0  0  0  0  0  0  0  0
  153.6763  139.0017  154.0575 H   0  0  0  0  0  0  0  0  0  0  0  0
  149.4127  135.6554  157.5291 H   0  0  0  0  0  0  0  0  0  0  0  0
  150.1568  133.3628  152.7947 H   0  0  0  0  0  0  0  0  0  0  0  0
  149.1309  131.9599  153.0180 H   0  0  0  0  0  0  0  0  0  0  0  0
  148.4168  134.5501  152.1411 H   0  0  0  0  0  0  0  0  0  0  0  0
  150.7702  131.2472  155.8081 H   0  0  0  0  0  0  0  0  0  0  0  0
  152.0889  134.5624  156.9576 H   0  0  0  0  0  0  0  0  0  0  0  0
  149.6465  143.5022  158.5231 H   0  0  0  0  0  0  0  0  0  0  0  0
  149.9284  145.1394  160.3507 H   0  0  0  0  0  0  0  0  0  0  0  0
  151.6414  144.7623  162.1151 H   0  0  0  0  0  0  0  0  0  0  0  0
  153.0661  142.7307  162.0449 H   0  0  0  0  0  0  0  0  0  0  0  0
  1  2  1  0  0  0  0
  1 33  1  0  0  0  0
  1 34  1  0  0  0  0
  1 35  1  0  0  0  0
  2  3  1  0  0  0  0
  2 22  1  0  0  0  0
  2 36  1  0  0  0  0
  3  4  1  0  0  0  0
  3 37  1  0  0  0  0
  4  9  1  0  0  0  0
  4  5  2  0  0  0  0
  5  6  1  0  0  0  0
  6  7  2  0  0  0  0
  6 38  1  0  0  0  0
  7  8  1  0  0  0  0
  8 12  1  0  0  0  0
  8  9  2  0  0  0  0
  9 10  1  0  0  0  0
 10 11  2  0  0  0  0
 11 12  1  0  0  0  0
 11 39  1  0  0  0  0
 12 13  1  0  0  0  0
 13 29  1  0  0  0  0
 13 20  1  0  0  0  0
 13 14  1  0  0  0  0
 14 15  1  0  0  0  0
 15 30  1  0  0  0  0
 15 16  1  0  0  0  0
 15 18  1  0  0  0  0
 16 17  1  0  0  0  0
 16 40  1  0  0  0  0
 16 41  1  0  0  0  0
 17 42  1  0  0  0  0
 18 31  1  0  0  0  0
 18 19  1  0  0  0  0
 18 20  1  0  0  0  0
 19 43  1  0  0  0  0
 20 32  1  0  0  0  0
 20 21  1  0  0  0  0
 21 44  1  0  0  0  0
 22 27  1  0  0  0  0
 22 23  2  0  0  0  0
 23 24  1  0  0  0  0
 23 45  1  0  0  0  0
 24 25  2  0  0  0  0
 24 46  1  0  0  0  0
 25 26  1  0  0  0  0
 25 47  1  0  0  0  0
 26 27  2  0  0  0  0
 26 48  1  0  0  0  0
 27 28  1  0  0  0  0
M  END
> <s_m_source_file>
AV-unprocessed.smi

> <i_m_source_file_index>
283

> <i_lp_mmshare_version>
43012

> <i_f3d_flags>
0

> <s_epik_input>
Q2xjMVtjSF1bY0hdW2NIXVtjSF1jMVtDQEhdKFtDSDNdKVtOSF1jKG5bY0hdbjIpYyhjMjMpbltjSF1uM1tDQEBIXTRPW0NASF0oW0NIMl1bT0hdKVtDQEBIXShbT0hdKVtDQEhdNFtPSF0=

> <s_epik_cmdline>
J2VwaWtfcHl0aG9uJywgJy1waCcsICc3LjAnLCAnLXRuJywgJzgnLCAnLW1hJywgJzIwMCcsICctbWV0YWxfYmluZGluZycsICctaW1hZScsICc8aW5maWxlLm1hZT4nLCAnLW9tYWUnLCAnPG91dGZpbGUubWFlPic=

> <r_lp_tautomer_probability>
1

> <r_epik_Ionization_Penalty>
0.000266407

> <r_epik_Ionization_Penalty_Charging>
0

> <r_epik_Ionization_Penalty_Neutral>
0.000266407

> <r_epik_State_Penalty>
-0

> <r_epik_Charging_Adjusted_Penalty>
0

> <i_epik_Tot_Q>
0

> <i_epik_Tot_abs_Q>
0

> <r_epik_Metal_State_Penalty>
-0

> <b_epik_Metal_Only>
0

> <s_epik_Chemistry_Notes>
This compound contains an acetal/aminal-like group ( X-CH(R)-Y where X, Y are N, S, or O) that may be acid/base labile, releasing an aldehyde.

> <s_lp_Force_Field>
OPLS_2005

> <r_lp_Energy>
50.6684

> <b_lp_Chiralities_Consistent>
1

> <s_lp_Variant>
AV-unprocessed.smi:283-22

> <Gold.Version>
5.8.1

> <Gold.Id.Protein>
6NUR|6NUR_protein|mol2

> <Gold.PLP.Fitness>
56.6459

> <Gold.PLP.PLP>
-49.7888

> <Gold.PLP.part.hbond>
-4.0000

> <Gold.PLP.part.metal>
0.0000

> <Gold.PLP.part.buried>
-8.1284

> <Gold.PLP.part.nonpolar>
-37.5740

> <Gold.PLP.part.repulsive>
0.3306

> <Gold.PLP.ligand.clash>
0.0000

> <Gold.PLP.ligand.torsion>
1.2457

> <Gold.PLP.Chemscore.Hbond>
3.0408

> <Gold.PLP.Chemscore.CHOScore>
0.0000

> <Gold.PLP.Chemscore.Metal>
0.0000

> <Gold.Chemscore.Hbonds>
donor molecule, donor type, donor heavy atom, donor atom, acceptor molecule, acceptor atom, score
      L1  H    17    42       P1  7948  0.50
      P1  H  6896  6908       L1    21  0.08
      P1  H  7997  8009       L1     5  1.00
      P1  H 10752 10764       L1     7  0.54

> <Gold.PLP.Chemscore.Internal.Correction>
0.2260

> <Gold.Rescore>
     Score         DG    S(hbond)    S(metal)    S(lipo)     H(rot)  DE(clash)    DE(int)     intcor
     12.47     -16.06       2.58        0.00     106.30       4.10       0.08       3.50       ----

> <Gold.Chemscore.Fitness>
12.4724

> <Gold.Chemscore.DG>
-16.0587

> <Gold.Chemscore.ZeroCoef>
-5.4800

> <Gold.Chemscore.Hbond>
2.5835

> <Gold.Chemscore.Metal>
0.0000

> <Gold.Chemscore.Lipo>
106.3043

> <Gold.Chemscore.Internal_Hbond>
0.0000

> <Gold.Chemscore.DEClash>
0.0824

> <Gold.Chemscore.DEInternal>
3.5038

> <Gold.Chemscore.Rot>
4.0968

> <Gold.Chemscore.Internal.Correction>
   9.000000E+99

> <Gold.Chemscore.Hbonds>
donor molecule, donor type, donor heavy atom, donor atom, acceptor molecule, acceptor atom, score
      L1  H    17    42       P1  7948  0.02
      P1  H  6896  6908       L1    21  0.02
      P1  H  7997  8009       L1     5  0.49
      P1  H 10752 10764       L1     7  0.09

> <Gold.Chemscore.Hbond.Weighted>
-8.6290

> <Gold.Chemscore.Metal.Weighted>
-0.0000

> <Gold.Chemscore.Lipo.Weighted>
-12.4376

> <Gold.Chemscore.Internal_Hbond.Weighted>
0.0000

> <Gold.Chemscore.DEClash.Weighted>
0.0824

> <Gold.Chemscore.DEInternal.Weighted>
3.5038

> <Gold.Chemscore.Rot.Weighted>
10.4879

> <Gold.Chemscore.Internal.Correction.Weighted>
   9.000000E+99

> <Gold.Protein.RotatedTorsions>
[ 6907 6896 6895 6894 ] final   97.87 input  -60.11 | X-H torsion
[ 7974 7965 7964 7962 ] final  -30.27 input  175.53 | X-H torsion
[ 8008 7997 7996 7995 ] final -143.38 input   59.86 | X-H torsion
[ 10167 10162 10161 10158 ] final   78.60 input  -65.29 | X-H torsion
[ 10718 10713 10712 10709 ] final  -77.25 input   66.30 | X-H torsion
[ 10763 10752 10751 10750 ] final  -76.52 input  -60.55 | X-H torsion
[ 11005 11000 10999 10996 ] final -142.23 input  -57.11 | X-H torsion

> <Gold.Protein.ActiveResidues>
 VAL166  LYS551  ARG553  GLY616  TRP617  ASP618  TYR619  PRO620  LYS621  CYS622 
 ASP623  PHE694  ASN695  SER759  ASP760  ASP761  ALA762  ILE779  LEU786  VAL792 
 PHE793  MET794  SER795  GLU796  ALA797  LYS798  CYS799  TRP800  GLU811  SER814 

> <Gold.Protein.RotatedAtoms>
  152.5417  134.0667  159.8175 H   0  0  0  0  0  0  0  0  0  0  0  0  # atno 6907 bound_to 6896
  151.0787  133.5400  159.2629 H   0  0  0  0  0  0  0  0  0  0  0  0  # atno 6908 bound_to 6896
  151.2235  135.0536  159.9013 H   0  0  0  0  0  0  0  0  0  0  0  0  # atno 6909 bound_to 6896
  146.1155  140.5519  142.8759 H   0  0  0  0  0  0  0  0  0  0  0  0  # atno 7974 bound_to 7965
  155.5097  140.0582  157.2925 H   0  0  0  0  0  0  0  0  0  0  0  0  # atno 8008 bound_to 7997
  154.4556  140.1971  156.0337 H   0  0  0  0  0  0  0  0  0  0  0  0  # atno 8009 bound_to 7997
  156.0793  140.3249  155.7677 H   0  0  0  0  0  0  0  0  0  0  0  0  # atno 8010 bound_to 7997
  139.9692  144.5907  150.8001 H   0  0  0  0  0  0  0  0  0  0  0  0  # atno 10167 bound_to 10162
  156.0150  130.4486  150.3317 H   0  0  0  0  0  0  0  0  0  0  0  0  # atno 10718 bound_to 10713
  154.5009  135.5795  153.6530 H   0  0  0  0  0  0  0  0  0  0  0  0  # atno 10763 bound_to 10752
  152.9878  135.6135  154.3004 H   0  0  0  0  0  0  0  0  0  0  0  0  # atno 10764 bound_to 10752
  154.2911  135.2848  155.2633 H   0  0  0  0  0  0  0  0  0  0  0  0  # atno 10765 bound_to 10752
  140.8246  134.2590  157.4885 H   0  0  0  0  0  0  0  0  0  0  0  0  # atno 11005 bound_to 11000
  144.7549  140.5283  143.6776 LP  0  0  0  0  0  0  0  0  0  0  0  0  # atno 17320 bound_to 7965
  145.5575  139.1478  143.3359 LP  0  0  0  0  0  0  0  0  0  0  0  0  # atno 17321 bound_to 7965
  140.7528  143.2996  151.3114 LP  0  0  0  0  0  0  0  0  0  0  0  0  # atno 17342 bound_to 10162
  139.6494  144.0390  152.2615 LP  0  0  0  0  0  0  0  0  0  0  0  0  # atno 17343 bound_to 10162
  157.1415  131.0297  151.2926 LP  0  0  0  0  0  0  0  0  0  0  0  0  # atno 17370 bound_to 10713
  157.4468  130.7575  149.7116 LP  0  0  0  0  0  0  0  0  0  0  0  0  # atno 17371 bound_to 10713
  139.8707  134.9554  156.4204 LP  0  0  0  0  0  0  0  0  0  0  0  0  # atno 17394 bound_to 11000
  140.9063  133.7744  155.9738 LP  0  0  0  0  0  0  0  0  0  0  0  0  # atno 17395 bound_to 11000

$$$$
