AV-unprocessed.smi:1937|AV-procd|sdf|7833|dock9
  -GOLD-   22720 9583D 1   1.00000     0.00000
 Structure written by MMmdl.
 40 41  0  0  0  0  0  0  0  0  1 V2000
  144.7276  136.6177  153.0543 O   0  0  0  0  0  0  0  0  0  0  0  0
  145.8793  136.3280  152.7311 C   0  0  0  0  0  0  0  0  0  0  0  0
  146.9450  137.0755  153.0510 N   0  0  0  0  0  0  0  0  0  0  0  0
  146.8935  138.3261  153.7980 C   0  0  0  0  0  0  0  0  0  0  0  0
  148.0366  139.2743  153.3898 C   0  0  0  0  0  0  0  0  0  0  0  0
  148.7653  139.7650  154.5662 N   0  0  0  0  0  0  0  0  0  0  0  0
  148.9861  138.7928  155.6500 C   0  0  0  0  0  0  0  0  0  0  0  0
  150.4624  138.3592  155.8084 C   0  0  0  0  0  0  0  0  0  0  0  0
  151.5274  139.3987  155.4074 C   0  0  0  0  0  0  0  0  0  0  0  0
  151.3647  140.7859  156.0631 C   0  0  0  0  0  0  0  0  0  0  0  0
  149.9870  141.4706  155.8974 C   0  0  0  0  0  0  0  0  0  0  0  0
  149.2128  141.0429  154.6399 C   0  0  0  0  0  0  0  0  0  0  0  0
  149.0301  141.8707  153.7467 O   0  0  0  0  0  0  0  0  0  0  0  0
  146.2437  135.2366  152.0362 N   0  0  0  0  0  0  0  0  0  0  0  0
  145.4229  134.2089  151.4973 C   0  0  0  0  0  0  0  0  0  0  0  0
  145.8746  133.2089  150.6019 C   0  0  0  0  0  0  0  0  0  0  0  0
  144.9608  132.2362  150.1523 C   0  0  0  0  0  0  0  0  0  0  0  0
  143.6331  132.2933  150.6185 C   0  0  0  0  0  0  0  0  0  0  0  0
  143.1922  133.2316  151.4825 N   0  0  0  0  0  0  0  0  0  0  0  0
  144.0739  134.1609  151.9091 C   0  0  0  0  0  0  0  0  0  0  0  0
  147.8567  136.7609  152.7522 H   0  0  0  0  0  0  0  0  0  0  0  0
  145.9254  138.8086  153.6519 H   0  0  0  0  0  0  0  0  0  0  0  0
  146.9611  138.0861  154.8594 H   0  0  0  0  0  0  0  0  0  0  0  0
  148.7217  138.7615  152.7123 H   0  0  0  0  0  0  0  0  0  0  0  0
  147.6407  140.1085  152.8100 H   0  0  0  0  0  0  0  0  0  0  0  0
  148.6238  139.2158  156.5872 H   0  0  0  0  0  0  0  0  0  0  0  0
  148.3772  137.8990  155.5125 H   0  0  0  0  0  0  0  0  0  0  0  0
  150.6277  138.0451  156.8395 H   0  0  0  0  0  0  0  0  0  0  0  0
  150.6275  137.4682  155.2017 H   0  0  0  0  0  0  0  0  0  0  0  0
  152.5130  139.0050  155.6578 H   0  0  0  0  0  0  0  0  0  0  0  0
  151.5357  139.5076  154.3218 H   0  0  0  0  0  0  0  0  0  0  0  0
  151.5829  140.7015  157.1282 H   0  0  0  0  0  0  0  0  0  0  0  0
  152.1340  141.4450  155.6596 H   0  0  0  0  0  0  0  0  0  0  0  0
  149.3675  141.2839  156.7743 H   0  0  0  0  0  0  0  0  0  0  0  0
  150.1257  142.5524  155.8809 H   0  0  0  0  0  0  0  0  0  0  0  0
  147.2369  135.1017  151.9149 H   0  0  0  0  0  0  0  0  0  0  0  0
  146.8971  133.1575  150.2622 H   0  0  0  0  0  0  0  0  0  0  0  0
  145.2727  131.4613  149.4677 H   0  0  0  0  0  0  0  0  0  0  0  0
  142.9075  131.5623  150.2932 H   0  0  0  0  0  0  0  0  0  0  0  0
  143.6861  134.8942  152.6012 H   0  0  0  0  0  0  0  0  0  0  0  0
  1  2  2  0  0  0  0
  2  3  1  0  0  0  0
  2 14  1  0  0  0  0
  3  4  1  0  0  0  0
  3 21  1  0  0  0  0
  4  5  1  0  0  0  0
  4 22  1  0  0  0  0
  4 23  1  0  0  0  0
  5  6  1  0  0  0  0
  5 24  1  0  0  0  0
  5 25  1  0  0  0  0
  6 12  1  0  0  0  0
  6  7  1  0  0  0  0
  7  8  1  0  0  0  0
  7 26  1  0  0  0  0
  7 27  1  0  0  0  0
  8  9  1  0  0  0  0
  8 28  1  0  0  0  0
  8 29  1  0  0  0  0
  9 10  1  0  0  0  0
  9 30  1  0  0  0  0
  9 31  1  0  0  0  0
 10 11  1  0  0  0  0
 10 32  1  0  0  0  0
 10 33  1  0  0  0  0
 11 12  1  0  0  0  0
 11 34  1  0  0  0  0
 11 35  1  0  0  0  0
 12 13  2  0  0  0  0
 14 15  1  0  0  0  0
 14 36  1  0  0  0  0
 15 20  1  0  0  0  0
 15 16  2  0  0  0  0
 16 17  1  0  0  0  0
 16 37  1  0  0  0  0
 17 18  2  0  0  0  0
 17 38  1  0  0  0  0
 18 19  1  0  0  0  0
 18 39  1  0  0  0  0
 19 20  2  0  0  0  0
 20 40  1  0  0  0  0
M  END
> <s_m_source_file>
AV-unprocessed.smi

> <i_m_source_file_index>
1937

> <i_lp_mmshare_version>
43012

> <i_f3d_flags>
0

> <s_epik_input>
W2NIXTFuW2NIXVtjSF1bY0hdYzFbTkhdQyg9TylbTkhdW0NIMl1bQ0gyXU4yW0NIMl1bQ0gyXVtDSDJdW0NIMl1bQ0gyXUMyPU8=

> <s_epik_cmdline>
J2VwaWtfcHl0aG9uJywgJy1waCcsICc3LjAnLCAnLXRuJywgJzgnLCAnLW1hJywgJzIwMCcsICctbWV0YWxfYmluZGluZycsICctaW1hZScsICc8aW5maWxlLm1hZT4nLCAnLW9tYWUnLCAnPG91dGZpbGUubWFlPic=

> <r_epik_Ionization_Penalty>
0.00465308

> <r_epik_Ionization_Penalty_Charging>
0

> <r_epik_Ionization_Penalty_Neutral>
0.00465308

> <r_epik_State_Penalty>
0.00334133

> <r_epik_Charging_Adjusted_Penalty>
0.00334133

> <i_epik_Tot_Q>
0

> <i_epik_Tot_abs_Q>
0

> <r_epik_Metal_State_Penalty>
-0

> <b_epik_Metal_Only>
0

> <s_lp_Force_Field>
OPLS_2005

> <r_lp_Energy>
23.2929

> <b_lp_Chiralities_Consistent>
1

> <s_lp_Variant>
AV-unprocessed.smi:1937-1

> <Gold.Version>
5.8.1

> <Gold.Id.Protein>
6NUR|6NUR_protein|mol2

> <Gold.PLP.Fitness>
41.5200

> <Gold.PLP.PLP>
-33.2203

> <Gold.PLP.part.hbond>
-3.0379

> <Gold.PLP.part.metal>
0.0000

> <Gold.PLP.part.buried>
-1.9467

> <Gold.PLP.part.nonpolar>
-27.5886

> <Gold.PLP.part.repulsive>
0.6429

> <Gold.PLP.ligand.clash>
0.0000

> <Gold.PLP.ligand.torsion>
0.8732

> <Gold.PLP.Chemscore.Hbond>
2.3437

> <Gold.PLP.Chemscore.CHOScore>
1.0000

> <Gold.PLP.Chemscore.Metal>
0.0000

> <Gold.Chemscore.Hbonds>
donor molecule, donor type, donor heavy atom, donor atom, acceptor molecule, acceptor atom, score
      L1  H     3    21       P1  7948  0.94
      L1  H    14    36       P1  7948  0.80
      P1  H  8011  8017       L1    13  0.54
      L1  C    18    39       P1 10952  1.00

> <Gold.PLP.Chemscore.Internal.Correction>
0.0150

> <Gold.Rescore>
     Score         DG    S(hbond)    S(metal)    S(lipo)     H(rot)  DE(clash)    DE(int)     intcor
     15.23     -17.67       2.23        0.00      73.82       1.52       0.12       2.32       ----

> <Gold.Chemscore.Fitness>
15.2309

> <Gold.Chemscore.DG>
-17.6716

> <Gold.Chemscore.ZeroCoef>
-5.4800

> <Gold.Chemscore.Hbond>
2.2290

> <Gold.Chemscore.Metal>
0.0000

> <Gold.Chemscore.Lipo>
73.8195

> <Gold.Chemscore.Internal_Hbond>
0.0000

> <Gold.Chemscore.DEClash>
0.1199

> <Gold.Chemscore.DEInternal>
2.3209

> <Gold.Chemscore.Rot>
1.5195

> <Gold.Chemscore.Internal.Correction>
   9.000000E+99

> <Gold.Chemscore.Hbonds>
donor molecule, donor type, donor heavy atom, donor atom, acceptor molecule, acceptor atom, score
      L1  H     3    21       P1  7948  0.90
      L1  H    14    36       P1  7948  0.73
      P1  H  8011  8017       L1    13  0.54

> <Gold.Chemscore.Hbond.Weighted>
-7.4447

> <Gold.Chemscore.Metal.Weighted>
-0.0000

> <Gold.Chemscore.Lipo.Weighted>
-8.6369

> <Gold.Chemscore.Internal_Hbond.Weighted>
0.0000

> <Gold.Chemscore.DEClash.Weighted>
0.1199

> <Gold.Chemscore.DEInternal.Weighted>
2.3209

> <Gold.Chemscore.Rot.Weighted>
3.8900

> <Gold.Chemscore.Internal.Correction.Weighted>
   9.000000E+99

> <Gold.Protein.RotatedTorsions>
[ 6907 6896 6895 6894 ] final   84.55 input  -60.11 | X-H torsion
[ 7974 7965 7964 7962 ] final -137.76 input  175.53 | X-H torsion
[ 8008 7997 7996 7995 ] final   36.77 input   59.86 | X-H torsion
[ 10167 10162 10161 10158 ] final -102.04 input  -65.29 | X-H torsion
[ 10718 10713 10712 10709 ] final  -19.59 input   66.30 | X-H torsion
[ 10763 10752 10751 10750 ] final -146.21 input  -60.55 | X-H torsion
[ 11005 11000 10999 10996 ] final -116.33 input  -57.11 | X-H torsion

> <Gold.Protein.ActiveResidues>
 VAL166  LYS551  ARG553  GLY616  TRP617  ASP618  TYR619  PRO620  LYS621  CYS622 
 ASP623  PHE694  ASN695  SER759  ASP760  ASP761  ALA762  ILE779  LEU786  VAL792 
 PHE793  MET794  SER795  GLU796  ALA797  LYS798  CYS799  TRP800  GLU811  SER814 

> <Gold.Protein.RotatedAtoms>
  152.5355  134.2723  159.8976 H   0  0  0  0  0  0  0  0  0  0  0  0  # atno 6907 bound_to 6896
  151.2680  133.4262  159.2627 H   0  0  0  0  0  0  0  0  0  0  0  0  # atno 6908 bound_to 6896
  151.0393  134.9610  159.8210 H   0  0  0  0  0  0  0  0  0  0  0  0  # atno 6909 bound_to 6896
  144.8815  140.6514  143.5203 H   0  0  0  0  0  0  0  0  0  0  0  0  # atno 7974 bound_to 7965
  155.1929  140.3309  155.4355 H   0  0  0  0  0  0  0  0  0  0  0  0  # atno 8008 bound_to 7997
  156.2435  140.1907  156.6971 H   0  0  0  0  0  0  0  0  0  0  0  0  # atno 8009 bound_to 7997
  154.6193  140.0597  156.9581 H   0  0  0  0  0  0  0  0  0  0  0  0  # atno 8010 bound_to 7997
  140.2349  143.3580  152.0853 H   0  0  0  0  0  0  0  0  0  0  0  0  # atno 10167 bound_to 10162
  156.5435  130.4684  149.6487 H   0  0  0  0  0  0  0  0  0  0  0  0  # atno 10718 bound_to 10713
  154.8347  135.3392  154.6626 H   0  0  0  0  0  0  0  0  0  0  0  0  # atno 10763 bound_to 10752
  153.7242  135.6956  153.5010 H   0  0  0  0  0  0  0  0  0  0  0  0  # atno 10764 bound_to 10752
  153.2359  135.4400  155.0599 H   0  0  0  0  0  0  0  0  0  0  0  0  # atno 10765 bound_to 10752
  141.0429  133.9808  157.2965 H   0  0  0  0  0  0  0  0  0  0  0  0  # atno 11005 bound_to 11000
  145.3946  139.1610  143.4211 LP  0  0  0  0  0  0  0  0  0  0  0  0  # atno 17320 bound_to 7965
  146.2997  140.4037  142.8708 LP  0  0  0  0  0  0  0  0  0  0  0  0  # atno 17321 bound_to 7965
  139.5097  144.6872  151.5857 LP  0  0  0  0  0  0  0  0  0  0  0  0  # atno 17342 bound_to 10162
  140.6157  143.9353  150.6487 LP  0  0  0  0  0  0  0  0  0  0  0  0  # atno 17343 bound_to 10162
  156.2949  130.7145  151.2003 LP  0  0  0  0  0  0  0  0  0  0  0  0  # atno 17370 bound_to 10713
  157.7401  131.0521  150.5190 LP  0  0  0  0  0  0  0  0  0  0  0  0  # atno 17371 bound_to 10713
  139.9289  135.0200  156.8333 LP  0  0  0  0  0  0  0  0  0  0  0  0  # atno 17394 bound_to 11000
  140.6201  134.0002  155.7614 LP  0  0  0  0  0  0  0  0  0  0  0  0  # atno 17395 bound_to 11000

$$$$
