AV-unprocessed.smi:1349|AV-procd|sdf|5518|dock5
  -GOLD-   22720 5103D 1   1.00000     0.00000
 Structure written by MMmdl.
 42 44  0  0  0  0  0  0  0  0  1 V2000
  151.5814  136.9444  153.8359 O   0  0  0  0  0  0  0  0  0  0  0  0
  150.9258  138.1951  153.8695 C   0  0  0  0  0  0  0  0  0  0  0  0
  151.7051  139.1942  154.7370 C   0  0  0  0  0  0  0  0  0  0  0  0
  151.7510  138.8039  156.2241 C   0  0  0  0  0  0  0  0  0  0  0  0
  151.9598  139.9880  157.1242 C   0  0  0  0  0  0  0  0  0  0  0  0
  152.8579  139.9448  158.1102 N   0  0  0  0  0  0  0  0  0  0  0  0
  152.7330  141.1875  158.6967 C   0  0  0  0  0  0  0  0  0  0  0  0
  153.4061  141.7527  159.8035 C   0  0  0  0  0  0  0  0  0  0  0  0
  153.1053  143.0632  160.2290 C   0  0  0  0  0  0  0  0  0  0  0  0
  152.1298  143.8256  159.5546 C   0  0  0  0  0  0  0  0  0  0  0  0
  151.4492  143.2815  158.4482 C   0  0  0  0  0  0  0  0  0  0  0  0
  151.7526  141.9721  158.0278 C   0  0  0  0  0  0  0  0  0  0  0  0
  151.2805  141.1604  156.9999 N   0  0  0  0  0  0  0  0  0  0  0  0
  150.2702  141.5511  156.0241 C   0  0  0  0  0  0  0  0  0  0  0  0
  148.9123  140.8845  156.2821 C   0  0  0  0  0  0  0  0  0  0  0  0
  148.1147  140.9195  155.1060 O   0  0  0  0  0  0  0  0  0  0  0  0
  147.1210  141.8726  155.0236 C   0  0  0  0  0  0  0  0  0  0  0  0
  146.5545  142.3191  156.2359 C   0  0  0  0  0  0  0  0  0  0  0  0
  145.5343  143.2896  156.2429 C   0  0  0  0  0  0  0  0  0  0  0  0
  145.0679  143.8284  155.0301 C   0  0  0  0  0  0  0  0  0  0  0  0
  145.6234  143.3938  153.8127 C   0  0  0  0  0  0  0  0  0  0  0  0
  146.6431  142.4219  153.8063 C   0  0  0  0  0  0  0  0  0  0  0  0
  151.3005  136.4781  153.0634 H   0  0  0  0  0  0  0  0  0  0  0  0
  150.8480  138.5695  152.8485 H   0  0  0  0  0  0  0  0  0  0  0  0
  149.9100  138.0649  154.2442 H   0  0  0  0  0  0  0  0  0  0  0  0
  152.7168  139.3093  154.3488 H   0  0  0  0  0  0  0  0  0  0  0  0
  151.2364  140.1744  154.6428 H   0  0  0  0  0  0  0  0  0  0  0  0
  150.8132  138.3237  156.5057 H   0  0  0  0  0  0  0  0  0  0  0  0
  152.5247  138.0564  156.3798 H   0  0  0  0  0  0  0  0  0  0  0  0
  154.1549  141.1760  160.3260 H   0  0  0  0  0  0  0  0  0  0  0  0
  153.6256  143.4849  161.0766 H   0  0  0  0  0  0  0  0  0  0  0  0
  151.9044  144.8286  159.8866 H   0  0  0  0  0  0  0  0  0  0  0  0
  150.7018  143.8636  157.9299 H   0  0  0  0  0  0  0  0  0  0  0  0
  150.1522  142.6336  156.0788 H   0  0  0  0  0  0  0  0  0  0  0  0
  150.6191  141.3521  155.0126 H   0  0  0  0  0  0  0  0  0  0  0  0
  149.0688  139.8535  156.6031 H   0  0  0  0  0  0  0  0  0  0  0  0
  148.4046  141.4139  157.0896 H   0  0  0  0  0  0  0  0  0  0  0  0
  146.9020  141.9122  157.1733 H   0  0  0  0  0  0  0  0  0  0  0  0
  145.1097  143.6198  157.1794 H   0  0  0  0  0  0  0  0  0  0  0  0
  144.2856  144.5732  155.0335 H   0  0  0  0  0  0  0  0  0  0  0  0
  145.2671  143.8068  152.8805 H   0  0  0  0  0  0  0  0  0  0  0  0
  147.0423  142.1156  152.8516 H   0  0  0  0  0  0  0  0  0  0  0  0
  1  2  1  0  0  0  0
  1 23  1  0  0  0  0
  2  3  1  0  0  0  0
  2 24  1  0  0  0  0
  2 25  1  0  0  0  0
  3  4  1  0  0  0  0
  3 26  1  0  0  0  0
  3 27  1  0  0  0  0
  4  5  1  0  0  0  0
  4 28  1  0  0  0  0
  4 29  1  0  0  0  0
  5 13  1  0  0  0  0
  5  6  2  0  0  0  0
  6  7  1  0  0  0  0
  7 12  2  0  0  0  0
  7  8  1  0  0  0  0
  8  9  2  0  0  0  0
  8 30  1  0  0  0  0
  9 10  1  0  0  0  0
  9 31  1  0  0  0  0
 10 11  2  0  0  0  0
 10 32  1  0  0  0  0
 11 12  1  0  0  0  0
 11 33  1  0  0  0  0
 12 13  1  0  0  0  0
 13 14  1  0  0  0  0
 14 15  1  0  0  0  0
 14 34  1  0  0  0  0
 14 35  1  0  0  0  0
 15 16  1  0  0  0  0
 15 36  1  0  0  0  0
 15 37  1  0  0  0  0
 16 17  1  0  0  0  0
 17 22  1  0  0  0  0
 17 18  2  0  0  0  0
 18 19  1  0  0  0  0
 18 38  1  0  0  0  0
 19 20  2  0  0  0  0
 19 39  1  0  0  0  0
 20 21  1  0  0  0  0
 20 40  1  0  0  0  0
 21 22  2  0  0  0  0
 21 41  1  0  0  0  0
 22 42  1  0  0  0  0
M  END
> <s_m_source_file>
AV-unprocessed.smi

> <i_m_source_file_index>
1349

> <i_lp_mmshare_version>
43012

> <i_f3d_flags>
0

> <s_epik_input>
W09IXVtDSDJdW0NIMl1bQ0gyXWMobjEpbihjKGMxMilbY0hdW2NIXVtjSF1bY0hdMilbQ0gyXVtDSDJdT2MzW2NIXVtjSF1bY0hdW2NIXVtjSF0z

> <s_epik_cmdline>
J2VwaWtfcHl0aG9uJywgJy1waCcsICc3LjAnLCAnLXRuJywgJzgnLCAnLW1hJywgJzIwMCcsICctbWV0YWxfYmluZGluZycsICctaW1hZScsICc8aW5maWxlLm1hZT4nLCAnLW9tYWUnLCAnPG91dGZpbGUubWFlPic=

> <r_lp_tautomer_probability>
1

> <r_epik_Ionization_Penalty>
0.159315

> <r_epik_Ionization_Penalty_Charging>
0

> <r_epik_Ionization_Penalty_Neutral>
0.159315

> <r_epik_State_Penalty>
0.148622

> <r_epik_Charging_Adjusted_Penalty>
0.148622

> <i_epik_Tot_Q>
0

> <i_epik_Tot_abs_Q>
0

> <r_epik_Metal_State_Penalty>
0.0001689

> <b_epik_Metal_Only>
0

> <s_lp_Force_Field>
OPLS_2005

> <r_lp_Energy>
15.4549

> <b_lp_Chiralities_Consistent>
1

> <s_lp_Variant>
AV-unprocessed.smi:1349-1

> <Gold.Version>
5.8.1

> <Gold.Id.Protein>
6NUR|6NUR_protein|mol2

> <Gold.PLP.Fitness>
53.7672

> <Gold.PLP.PLP>
-47.5261

> <Gold.PLP.part.hbond>
-3.1994

> <Gold.PLP.part.metal>
0.0000

> <Gold.PLP.part.buried>
-5.1832

> <Gold.PLP.part.nonpolar>
-38.6801

> <Gold.PLP.part.repulsive>
0.0914

> <Gold.PLP.ligand.clash>
0.0000

> <Gold.PLP.ligand.torsion>
1.2324

> <Gold.PLP.Chemscore.Hbond>
2.8664

> <Gold.PLP.Chemscore.CHOScore>
0.0000

> <Gold.PLP.Chemscore.Metal>
0.0000

> <Gold.Chemscore.Hbonds>
donor molecule, donor type, donor heavy atom, donor atom, acceptor molecule, acceptor atom, score
      L1  H     1    23       P1  7949  1.00
      P1  H  7997  8008       L1     6  0.94
      P1  H 10752 10764       L1     1  0.82

> <Gold.PLP.Chemscore.Internal.Correction>
0.1067

> <Gold.Rescore>
     Score         DG    S(hbond)    S(metal)    S(lipo)     H(rot)  DE(clash)    DE(int)     intcor
     16.08     -17.42       0.93        0.00     128.30       2.42       0.18       1.15       ----

> <Gold.Chemscore.Fitness>
16.0796

> <Gold.Chemscore.DG>
-17.4162

> <Gold.Chemscore.ZeroCoef>
-5.4800

> <Gold.Chemscore.Hbond>
0.9344

> <Gold.Chemscore.Metal>
0.0000

> <Gold.Chemscore.Lipo>
128.2975

> <Gold.Chemscore.Internal_Hbond>
0.0000

> <Gold.Chemscore.DEClash>
0.1844

> <Gold.Chemscore.DEInternal>
1.1522

> <Gold.Chemscore.Rot>
2.4201

> <Gold.Chemscore.Internal.Correction>
   9.000000E+99

> <Gold.Chemscore.Hbonds>
donor molecule, donor type, donor heavy atom, donor atom, acceptor molecule, acceptor atom, score
      L1  H     1    23       P1  7949  0.70
      P1  H  7997  8008       L1     6  0.10
      P1  H 10752 10764       L1     1  0.15

> <Gold.Chemscore.Hbond.Weighted>
-3.1208

> <Gold.Chemscore.Metal.Weighted>
-0.0000

> <Gold.Chemscore.Lipo.Weighted>
-15.0108

> <Gold.Chemscore.Internal_Hbond.Weighted>
0.0000

> <Gold.Chemscore.DEClash.Weighted>
0.1844

> <Gold.Chemscore.DEInternal.Weighted>
1.1522

> <Gold.Chemscore.Rot.Weighted>
6.1954

> <Gold.Chemscore.Internal.Correction.Weighted>
   9.000000E+99

> <Gold.Protein.RotatedTorsions>
[ 6907 6896 6895 6894 ] final -156.60 input  -60.11 | X-H torsion
[ 7974 7965 7964 7962 ] final  -10.40 input  175.53 | X-H torsion
[ 8008 7997 7996 7995 ] final  -82.57 input   59.86 | X-H torsion
[ 10167 10162 10161 10158 ] final  147.31 input  -65.29 | X-H torsion
[ 10718 10713 10712 10709 ] final  103.92 input   66.30 | X-H torsion
[ 10763 10752 10751 10750 ] final  -64.19 input  -60.55 | X-H torsion
[ 11005 11000 10999 10996 ] final -110.52 input  -57.11 | X-H torsion

> <Gold.Protein.ActiveResidues>
 VAL166  LYS551  ARG553  GLY616  TRP617  ASP618  TYR619  PRO620  LYS621  CYS622 
 ASP623  PHE694  ASN695  SER759  ASP760  ASP761  ALA762  ILE779  LEU786  VAL792 
 PHE793  MET794  SER795  GLU796  ALA797  LYS798  CYS799  TRP800  GLU811  SER814 

> <Gold.Protein.RotatedAtoms>
  151.2902  133.4169  159.2632 H   0  0  0  0  0  0  0  0  0  0  0  0  # atno 6907 bound_to 6896
  151.0284  134.9522  159.8108 H   0  0  0  0  0  0  0  0  0  0  0  0  # atno 6908 bound_to 6896
  152.5340  134.2863  159.9079 H   0  0  0  0  0  0  0  0  0  0  0  0  # atno 6909 bound_to 6896
  146.2222  140.2759  142.8359 H   0  0  0  0  0  0  0  0  0  0  0  0  # atno 7974 bound_to 7965
  154.6099  140.0631  156.9480 H   0  0  0  0  0  0  0  0  0  0  0  0  # atno 8008 bound_to 7997
  155.1990  140.3313  155.4328 H   0  0  0  0  0  0  0  0  0  0  0  0  # atno 8009 bound_to 7997
  156.2370  140.1868  156.7074 H   0  0  0  0  0  0  0  0  0  0  0  0  # atno 8010 bound_to 7997
  139.4892  144.5765  151.6955 H   0  0  0  0  0  0  0  0  0  0  0  0  # atno 10167 bound_to 10162
  157.6757  131.0791  150.5628 H   0  0  0  0  0  0  0  0  0  0  0  0  # atno 10718 bound_to 10713
  154.3263  135.6186  153.5531 H   0  0  0  0  0  0  0  0  0  0  0  0  # atno 10763 bound_to 10752
  152.9815  135.5736  154.5012 H   0  0  0  0  0  0  0  0  0  0  0  0  # atno 10764 bound_to 10752
  154.4690  135.2858  155.1633 H   0  0  0  0  0  0  0  0  0  0  0  0  # atno 10765 bound_to 10752
  141.0787  133.9257  157.2335 H   0  0  0  0  0  0  0  0  0  0  0  0  # atno 11005 bound_to 11000
  144.9233  140.7893  143.5734 LP  0  0  0  0  0  0  0  0  0  0  0  0  # atno 17320 bound_to 7965
  145.2697  139.1959  143.4848 LP  0  0  0  0  0  0  0  0  0  0  0  0  # atno 17321 bound_to 7965
  140.5362  144.0652  150.6071 LP  0  0  0  0  0  0  0  0  0  0  0  0  # atno 17342 bound_to 10162
  140.3659  143.2882  152.0333 LP  0  0  0  0  0  0  0  0  0  0  0  0  # atno 17343 bound_to 10162
  156.5931  130.4334  149.5928 LP  0  0  0  0  0  0  0  0  0  0  0  0  # atno 17370 bound_to 10713
  156.2567  130.6939  151.1694 LP  0  0  0  0  0  0  0  0  0  0  0  0  # atno 17371 bound_to 10713
  139.9600  135.0156  156.9235 LP  0  0  0  0  0  0  0  0  0  0  0  0  # atno 17394 bound_to 11000
  140.5516  134.0622  155.7371 LP  0  0  0  0  0  0  0  0  0  0  0  0  # atno 17395 bound_to 11000

$$$$
