AV-unprocessed.smi:2741|AV-procd|sdf|10561|dock3
  -GOLD-   2272015 13D 1   1.00000     0.00000
 Structure written by MMmdl.
 39 40  0  0  0  0  0  0  0  0  1 V2000
  148.9104  140.5590  156.9289 O   0  0  0  0  0  0  0  0  0  0  0  0
  149.3078  141.1601  155.9297 C   0  0  0  0  0  0  0  0  0  0  0  0
  150.7383  141.7122  155.8546 C   0  0  0  0  0  0  0  0  0  0  0  0
  151.3937  141.8301  157.1682 N   0  0  0  0  0  0  0  0  0  0  0  0
  151.1698  143.0182  157.8915 C   0  0  0  0  0  0  0  0  0  0  0  0
  151.7148  143.2538  159.1006 C   0  0  0  0  0  0  0  0  0  0  0  0
  151.4176  144.5233  159.8836 C   0  0  0  0  0  0  0  0  0  0  0  0
  150.1033  144.7059  160.0131 F   0  0  0  0  0  0  0  0  0  0  0  0
  151.9455  144.4366  161.1037 F   0  0  0  0  0  0  0  0  0  0  0  0
  151.9326  145.5969  159.2830 F   0  0  0  0  0  0  0  0  0  0  0  0
  152.5338  142.1947  159.6564 C   0  0  0  0  0  0  0  0  0  0  0  0
  152.7578  141.0523  158.9781 C   0  0  0  0  0  0  0  0  0  0  0  0
  152.1802  140.8223  157.6519 C   0  0  0  0  0  0  0  0  0  0  0  0
  152.3868  139.7876  157.0173 O   0  0  0  0  0  0  0  0  0  0  0  0
  148.5487  141.3575  154.8415 N   0  0  0  0  0  0  0  0  0  0  0  0
  147.1757  140.8923  154.6763 C   0  0  0  0  0  0  0  0  0  0  0  0
  147.1137  139.4680  154.0905 C   0  0  1  0  0  0  0  0  0  0  0  0
  145.8097  138.7295  154.4122 C   0  0  0  0  0  0  0  0  0  0  0  0
  145.7225  137.6519  153.3345 C   0  0  0  0  0  0  0  0  0  0  0  0
  146.2172  138.3659  152.0751 C   0  0  2  0  0  0  0  0  0  0  0  0
  146.7595  137.4625  151.1350 O   0  0  0  0  0  0  0  0  0  0  0  0
  147.2506  139.3978  152.5563 C   0  0  0  0  0  0  0  0  0  0  0  0
  151.3180  141.0615  155.1983 H   0  0  0  0  0  0  0  0  0  0  0  0
  150.7238  142.6809  155.3516 H   0  0  0  0  0  0  0  0  0  0  0  0
  150.5276  143.7309  157.3950 H   0  0  0  0  0  0  0  0  0  0  0  0
  152.9802  142.3221  160.6317 H   0  0  0  0  0  0  0  0  0  0  0  0
  153.3768  140.2861  159.4218 H   0  0  0  0  0  0  0  0  0  0  0  0
  148.9552  141.8598  154.0656 H   0  0  0  0  0  0  0  0  0  0  0  0
  146.6505  140.9330  155.6320 H   0  0  0  0  0  0  0  0  0  0  0  0
  146.6626  141.5903  154.0140 H   0  0  0  0  0  0  0  0  0  0  0  0
  147.9268  138.8790  154.5188 H   0  0  0  0  0  0  0  0  0  0  0  0
  145.8016  138.3145  155.4206 H   0  0  0  0  0  0  0  0  0  0  0  0
  144.9583  139.4058  154.3224 H   0  0  0  0  0  0  0  0  0  0  0  0
  146.3877  136.8262  153.5930 H   0  0  0  0  0  0  0  0  0  0  0  0
  144.7163  137.2476  153.2207 H   0  0  0  0  0  0  0  0  0  0  0  0
  145.3802  138.8899  151.6116 H   0  0  0  0  0  0  0  0  0  0  0  0
  147.1217  136.7243  151.6011 H   0  0  0  0  0  0  0  0  0  0  0  0
  147.0533  140.3628  152.0875 H   0  0  0  0  0  0  0  0  0  0  0  0
  148.2693  139.1143  152.2873 H   0  0  0  0  0  0  0  0  0  0  0  0
  1  2  2  0  0  0  0
  2  3  1  0  0  0  0
  2 15  1  0  0  0  0
  3  4  1  0  0  0  0
  3 23  1  0  0  0  0
  3 24  1  0  0  0  0
  4 13  1  0  0  0  0
  4  5  1  0  0  0  0
  5  6  2  0  0  0  0
  5 25  1  0  0  0  0
  6  7  1  0  0  0  0
  6 11  1  0  0  0  0
  7  8  1  0  0  0  0
  7  9  1  0  0  0  0
  7 10  1  0  0  0  0
 11 12  2  0  0  0  0
 11 26  1  0  0  0  0
 12 13  1  0  0  0  0
 12 27  1  0  0  0  0
 13 14  2  0  0  0  0
 15 16  1  0  0  0  0
 15 28  1  0  0  0  0
 16 17  1  0  0  0  0
 16 29  1  0  0  0  0
 16 30  1  0  0  0  0
 17 22  1  0  0  0  0
 17 18  1  0  0  0  0
 17 31  1  0  0  0  0
 18 19  1  0  0  0  0
 18 32  1  0  0  0  0
 18 33  1  0  0  0  0
 19 20  1  0  0  0  0
 19 34  1  0  0  0  0
 19 35  1  0  0  0  0
 20 21  1  0  0  0  0
 20 22  1  0  0  0  0
 20 36  1  0  0  0  0
 21 37  1  0  0  0  0
 22 38  1  0  0  0  0
 22 39  1  0  0  0  0
M  END
> <s_m_source_file>
AV-unprocessed.smi

> <i_m_source_file_index>
2741

> <i_lp_mmshare_version>
43012

> <i_f3d_flags>
0

> <s_epik_input>
W09IXVtDQEBIXShbQ0gyXTEpW0NIMl1bQ0gyXVtDQEhdMVtDSDJdW05IXUMoPU8pW0NIMl1uMltjSF1jKEMoRikoRilGKVtjSF1bY0hdYzI9Tw==

> <s_epik_cmdline>
J2VwaWtfcHl0aG9uJywgJy1waCcsICc3LjAnLCAnLXRuJywgJzgnLCAnLW1hJywgJzIwMCcsICctbWV0YWxfYmluZGluZycsICctaW1hZScsICc8aW5maWxlLm1hZT4nLCAnLW9tYWUnLCAnPG91dGZpbGUubWFlPic=

> <r_lp_tautomer_probability>
1

> <r_epik_Ionization_Penalty>
1.17551e-06

> <r_epik_Ionization_Penalty_Charging>
1.78841e-08

> <r_epik_Ionization_Penalty_Neutral>
1.15762e-06

> <r_epik_State_Penalty>
-0

> <r_epik_Charging_Adjusted_Penalty>
1.78841e-08

> <i_epik_Tot_Q>
0

> <i_epik_Tot_abs_Q>
0

> <r_epik_Metal_State_Penalty>
-0

> <b_epik_Metal_Only>
0

> <s_lp_Force_Field>
OPLS_2005

> <r_lp_Energy>
34.082

> <b_lp_Chiralities_Consistent>
1

> <s_lp_Variant>
AV-unprocessed.smi:2741-4

> <Gold.Version>
5.8.1

> <Gold.Id.Protein>
6NUR|6NUR_protein|mol2

> <Gold.PLP.Fitness>
50.8117

> <Gold.PLP.PLP>
-43.0720

> <Gold.PLP.part.hbond>
-3.0000

> <Gold.PLP.part.metal>
0.0000

> <Gold.PLP.part.buried>
-3.3171

> <Gold.PLP.part.nonpolar>
-36.8783

> <Gold.PLP.part.repulsive>
0.1744

> <Gold.PLP.ligand.clash>
0.6322

> <Gold.PLP.ligand.torsion>
1.1218

> <Gold.PLP.Chemscore.Hbond>
2.6153

> <Gold.PLP.Chemscore.CHOScore>
0.9096

> <Gold.PLP.Chemscore.Metal>
0.0000

> <Gold.Chemscore.Hbonds>
donor molecule, donor type, donor heavy atom, donor atom, acceptor molecule, acceptor atom, score
      L1  H    21    37       P1  7948  0.58
      P1  H  7954  7966       L1    21  1.00
      P1  H  7997  8009       L1    14  0.93
      L1  C     5    25       P1  8028  0.91

> <Gold.PLP.Chemscore.Internal.Correction>
0.0411

> <Gold.Rescore>
     Score         DG    S(hbond)    S(metal)    S(lipo)     H(rot)  DE(clash)    DE(int)     intcor
     14.14     -17.16       2.22        0.00      90.82       2.48       2.11       0.92       ----

> <Gold.Chemscore.Fitness>
14.1379

> <Gold.Chemscore.DG>
-17.1587

> <Gold.Chemscore.ZeroCoef>
-5.4800

> <Gold.Chemscore.Hbond>
2.2167

> <Gold.Chemscore.Metal>
0.0000

> <Gold.Chemscore.Lipo>
90.8185

> <Gold.Chemscore.Internal_Hbond>
0.0000

> <Gold.Chemscore.DEClash>
2.1055

> <Gold.Chemscore.DEInternal>
0.9154

> <Gold.Chemscore.Rot>
2.4807

> <Gold.Chemscore.Internal.Correction>
   9.000000E+99

> <Gold.Chemscore.Hbonds>
donor molecule, donor type, donor heavy atom, donor atom, acceptor molecule, acceptor atom, score
      L1  H    21    37       P1  7948  0.58
      P1  H  7954  7966       L1    21  0.30
      P1  H  7997  8009       L1    14  0.20

> <Gold.Chemscore.Hbond.Weighted>
-7.4036

> <Gold.Chemscore.Metal.Weighted>
-0.0000

> <Gold.Chemscore.Lipo.Weighted>
-10.6258

> <Gold.Chemscore.Internal_Hbond.Weighted>
0.0000

> <Gold.Chemscore.DEClash.Weighted>
2.1055

> <Gold.Chemscore.DEInternal.Weighted>
0.9154

> <Gold.Chemscore.Rot.Weighted>
6.3507

> <Gold.Chemscore.Internal.Correction.Weighted>
   9.000000E+99

> <Gold.Protein.RotatedTorsions>
[ 6907 6896 6895 6894 ] final   45.52 input  -60.11 | X-H torsion
[ 7974 7965 7964 7962 ] final  -32.74 input  175.53 | X-H torsion
[ 8008 7997 7996 7995 ] final -174.22 input   59.86 | X-H torsion
[ 10167 10162 10161 10158 ] final  -60.78 input  -65.29 | X-H torsion
[ 10718 10713 10712 10709 ] final   -0.74 input   66.30 | X-H torsion
[ 10763 10752 10751 10750 ] final  177.31 input  -60.55 | X-H torsion
[ 11005 11000 10999 10996 ] final   51.82 input  -57.11 | X-H torsion

> <Gold.Protein.ActiveResidues>
 VAL166  LYS551  ARG553  GLY616  TRP617  ASP618  TYR619  PRO620  LYS621  CYS622 
 ASP623  PHE694  ASN695  SER759  ASP760  ASP761  ALA762  ILE779  LEU786  VAL792 
 PHE793  MET794  SER795  GLU796  ALA797  LYS798  CYS799  TRP800  GLU811  SER814 

> <Gold.Protein.RotatedAtoms>
  152.2455  134.8186  160.0453 H   0  0  0  0  0  0  0  0  0  0  0  0  # atno 6907 bound_to 6896
  151.8885  133.3505  159.3798 H   0  0  0  0  0  0  0  0  0  0  0  0  # atno 6908 bound_to 6896
  150.7067  134.4874  159.5543 H   0  0  0  0  0  0  0  0  0  0  0  0  # atno 6909 bound_to 6896
  146.0966  140.5830  142.8840 H   0  0  0  0  0  0  0  0  0  0  0  0  # atno 7974 bound_to 7965
  155.9674  140.1156  157.0843 H   0  0  0  0  0  0  0  0  0  0  0  0  # atno 8008 bound_to 7997
  154.4147  140.1170  156.5327 H   0  0  0  0  0  0  0  0  0  0  0  0  # atno 8009 bound_to 7997
  155.6642  140.3473  155.4796 H   0  0  0  0  0  0  0  0  0  0  0  0  # atno 8010 bound_to 7997
  140.6049  143.2371  151.5844 H   0  0  0  0  0  0  0  0  0  0  0  0  # atno 10167 bound_to 10162
  156.8159  130.5440  149.5703 H   0  0  0  0  0  0  0  0  0  0  0  0  # atno 10718 bound_to 10713
  154.4928  135.2780  155.1483 H   0  0  0  0  0  0  0  0  0  0  0  0  # atno 10763 bound_to 10752
  154.3147  135.6222  153.5485 H   0  0  0  0  0  0  0  0  0  0  0  0  # atno 10764 bound_to 10752
  152.9890  135.5728  154.5354 H   0  0  0  0  0  0  0  0  0  0  0  0  # atno 10765 bound_to 10752
  140.0900  134.5222  155.8861 H   0  0  0  0  0  0  0  0  0  0  0  0  # atno 11005 bound_to 11000
  144.7400  140.4915  143.6876 LP  0  0  0  0  0  0  0  0  0  0  0  0  # atno 17320 bound_to 7965
  145.5937  139.1498  143.3168 LP  0  0  0  0  0  0  0  0  0  0  0  0  # atno 17321 bound_to 7965
  139.5317  144.2896  152.1163 LP  0  0  0  0  0  0  0  0  0  0  0  0  # atno 17342 bound_to 10162
  140.2083  144.4588  150.6398 LP  0  0  0  0  0  0  0  0  0  0  0  0  # atno 17343 bound_to 10162
  156.1017  130.5974  150.9904 LP  0  0  0  0  0  0  0  0  0  0  0  0  # atno 17370 bound_to 10713
  157.6482  131.0901  150.8109 LP  0  0  0  0  0  0  0  0  0  0  0  0  # atno 17371 bound_to 10713
  141.2075  133.6664  156.6309 LP  0  0  0  0  0  0  0  0  0  0  0  0  # atno 17394 bound_to 11000
  140.3365  134.7885  157.4366 LP  0  0  0  0  0  0  0  0  0  0  0  0  # atno 17395 bound_to 11000

$$$$
