AV-unprocessed.smi:17|AV-procd|sdf|105|dock3
  -GOLD-   2262015263D 1   1.00000     0.00000
 Structure written by MMmdl.
 57 59  0  0  0  0  0  0  0  0  1 V2000
  150.3503  134.3386  154.9331 C   0  0  0  0  0  0  0  0  0  0  0  0
  149.0355  135.0868  155.2091 C   0  0  0  0  0  0  0  0  0  0  0  0
  149.1427  136.0654  156.2958 N   0  0  0  0  0  0  0  0  0  0  0  0
  149.7730  137.2420  156.0261 C   0  0  0  0  0  0  0  0  0  0  0  0
  149.7773  137.7142  154.7505 N   0  0  0  0  0  0  0  0  0  0  0  0
  150.4059  138.8531  154.4475 C   0  0  0  0  0  0  0  0  0  0  0  0
  151.0863  139.6692  155.2531 N   0  0  0  0  0  0  0  0  0  0  0  0
  151.0840  139.2080  156.5357 C   0  0  0  0  0  0  0  0  0  0  0  0
  150.4597  138.0171  157.0067 C   0  0  0  0  0  0  0  0  0  0  0  0
  150.6692  137.8926  158.3760 N   0  0  0  0  0  0  0  0  0  0  0  0
  151.3796  138.9399  158.6926 C   0  0  0  0  0  0  0  0  0  0  0  0
  151.6798  139.7794  157.6452 N   0  0  0  0  0  0  0  0  0  0  0  0
  152.4535  141.0066  157.7058 C   0  0  0  0  0  0  0  0  0  0  0  0
  151.7231  142.1398  158.4730 C   0  0  2  0  0  0  0  0  0  0  0  0
  151.1558  143.2408  157.5460 C   0  0  0  0  0  0  0  0  0  0  0  0
  150.1427  143.9943  158.1799 O   0  0  0  0  0  0  0  0  0  0  0  0
  152.5141  142.7336  159.6700 C   0  0  1  0  0  0  0  0  0  0  0  0
  151.6908  143.4776  160.7056 C   0  0  0  0  0  0  0  0  0  0  0  0
  152.6893  143.6057  161.8506 C   0  0  0  0  0  0  0  0  0  0  0  0
  153.4766  142.4197  161.8045 O   0  0  0  0  0  0  0  0  0  0  0  0
  153.2998  141.7580  160.5540 C   0  0  0  0  0  0  0  0  0  0  0  0
  148.2683  135.9757  157.4745 C   0  0  1  0  0  0  0  0  0  0  0  0
  146.9013  135.3619  157.1255 C   0  0  0  0  0  0  0  0  0  0  0  0
  148.9361  135.2386  158.6561 C   0  0  0  0  0  0  0  0  0  0  0  0
  148.0567  135.4935  160.2663 S   0  0  0  0  0  0  0  0  0  0  0  0
  148.6209  134.0598  161.2733 C   0  0  0  0  0  0  0  0  0  0  0  0
  148.5538  136.7230  160.9030 O   0  0  0  0  0  0  0  0  0  0  0  0
  146.6155  135.3258  160.0255 O   0  0  0  0  0  0  0  0  0  0  0  0
  150.2343  133.6599  154.0882 H   0  0  0  0  0  0  0  0  0  0  0  0
  150.6617  133.7416  155.7906 H   0  0  0  0  0  0  0  0  0  0  0  0
  151.1603  135.0273  154.6940 H   0  0  0  0  0  0  0  0  0  0  0  0
  148.7360  135.5966  154.2945 H   0  0  0  0  0  0  0  0  0  0  0  0
  148.2353  134.3781  155.4153 H   0  0  0  0  0  0  0  0  0  0  0  0
  150.3588  139.1513  153.4106 H   0  0  0  0  0  0  0  0  0  0  0  0
  151.7122  139.1272  159.7033 H   0  0  0  0  0  0  0  0  0  0  0  0
  153.4074  140.7682  158.1742 H   0  0  0  0  0  0  0  0  0  0  0  0
  152.6779  141.3109  156.6838 H   0  0  0  0  0  0  0  0  0  0  0  0
  150.8446  141.6755  158.9233 H   0  0  0  0  0  0  0  0  0  0  0  0
  151.9448  143.9228  157.2277 H   0  0  0  0  0  0  0  0  0  0  0  0
  150.7483  142.8012  156.6353 H   0  0  0  0  0  0  0  0  0  0  0  0
  149.6472  144.4500  157.5164 H   0  0  0  0  0  0  0  0  0  0  0  0
  153.2286  143.4545  159.2685 H   0  0  0  0  0  0  0  0  0  0  0  0
  151.3276  144.4429  160.3522 H   0  0  0  0  0  0  0  0  0  0  0  0
  150.8347  142.8900  161.0359 H   0  0  0  0  0  0  0  0  0  0  0  0
  153.3435  144.4636  161.6894 H   0  0  0  0  0  0  0  0  0  0  0  0
  152.2040  143.7267  162.8192 H   0  0  0  0  0  0  0  0  0  0  0  0
  152.7452  140.8397  160.7411 H   0  0  0  0  0  0  0  0  0  0  0  0
  154.2616  141.4866  160.1184 H   0  0  0  0  0  0  0  0  0  0  0  0
  148.0638  136.9822  157.8394 H   0  0  0  0  0  0  0  0  0  0  0  0
  146.2284  135.3969  157.9824 H   0  0  0  0  0  0  0  0  0  0  0  0
  146.9932  134.3189  156.8221 H   0  0  0  0  0  0  0  0  0  0  0  0
  146.4203  135.9061  156.3124 H   0  0  0  0  0  0  0  0  0  0  0  0
  148.9050  134.1660  158.4631 H   0  0  0  0  0  0  0  0  0  0  0  0
  149.9865  135.4978  158.7804 H   0  0  0  0  0  0  0  0  0  0  0  0
  148.0640  134.0388  162.2098 H   0  0  0  0  0  0  0  0  0  0  0  0
  149.6807  134.1546  161.4983 H   0  0  0  0  0  0  0  0  0  0  0  0
  148.4422  133.1335  160.7280 H   0  0  0  0  0  0  0  0  0  0  0  0
  1  2  1  0  0  0  0
  1 29  1  0  0  0  0
  1 30  1  0  0  0  0
  1 31  1  0  0  0  0
  2  3  1  0  0  0  0
  2 32  1  0  0  0  0
  2 33  1  0  0  0  0
  3  4  1  0  0  0  0
  3 22  1  0  0  0  0
  4  9  1  0  0  0  0
  4  5  2  0  0  0  0
  5  6  1  0  0  0  0
  6  7  2  0  0  0  0
  6 34  1  0  0  0  0
  7  8  1  0  0  0  0
  8 12  1  0  0  0  0
  8  9  2  0  0  0  0
  9 10  1  0  0  0  0
 10 11  2  0  0  0  0
 11 12  1  0  0  0  0
 11 35  1  0  0  0  0
 12 13  1  0  0  0  0
 13 14  1  0  0  0  0
 13 36  1  0  0  0  0
 13 37  1  0  0  0  0
 14 15  1  0  0  0  0
 14 17  1  0  0  0  0
 14 38  1  0  0  0  0
 15 16  1  0  0  0  0
 15 39  1  0  0  0  0
 15 40  1  0  0  0  0
 16 41  1  0  0  0  0
 17 21  1  0  0  0  0
 17 18  1  0  0  0  0
 17 42  1  0  0  0  0
 18 19  1  0  0  0  0
 18 43  1  0  0  0  0
 18 44  1  0  0  0  0
 19 20  1  0  0  0  0
 19 45  1  0  0  0  0
 19 46  1  0  0  0  0
 20 21  1  0  0  0  0
 21 47  1  0  0  0  0
 21 48  1  0  0  0  0
 22 23  1  0  0  0  0
 22 24  1  0  0  0  0
 22 49  1  0  0  0  0
 23 50  1  0  0  0  0
 23 51  1  0  0  0  0
 23 52  1  0  0  0  0
 24 25  1  0  0  0  0
 24 53  1  0  0  0  0
 24 54  1  0  0  0  0
 25 26  1  0  0  0  0
 25 27  2  0  0  0  0
 25 28  2  0  0  0  0
 26 55  1  0  0  0  0
 26 56  1  0  0  0  0
 26 57  1  0  0  0  0
M  END
> <s_m_source_file>
AV-unprocessed.smi

> <i_m_source_file_index>
17

> <i_lp_mmshare_version>
43012

> <i_f3d_flags>
0

> <s_epik_input>
W0NIM11TKD1PKSg9TylbQ0gyXVtDQEBIXShbQ0gzXSlOKFtDSDJdW0NIM10pYyhuW2NIXW4xKWMoYzEyKW5bY0hdbjJbQ0gyXVtDQEhdKFtDSDJdW09IXSlbQ0BASF0zW0NIMl1bQ0gyXU9bQ0gyXTM=

> <s_epik_cmdline>
J2VwaWtfcHl0aG9uJywgJy1waCcsICc3LjAnLCAnLXRuJywgJzgnLCAnLW1hJywgJzIwMCcsICctbWV0YWxfYmluZGluZycsICctaW1hZScsICc8aW5maWxlLm1hZT4nLCAnLW9tYWUnLCAnPG91dGZpbGUubWFlPic=

> <r_lp_tautomer_probability>
1

> <r_epik_Ionization_Penalty>
0.00119955

> <r_epik_Ionization_Penalty_Charging>
0

> <r_epik_Ionization_Penalty_Neutral>
0.00119955

> <r_epik_State_Penalty>
0.000665399

> <r_epik_Charging_Adjusted_Penalty>
0.000665399

> <i_epik_Tot_Q>
0

> <i_epik_Tot_abs_Q>
0

> <r_epik_Metal_State_Penalty>
-0

> <b_epik_Metal_Only>
0

> <s_lp_Force_Field>
OPLS_2005

> <r_lp_Energy>
34.6832

> <b_lp_Chiralities_Consistent>
1

> <s_lp_Variant>
AV-unprocessed.smi:17-7

> <Gold.Version>
5.8.1

> <Gold.Id.Protein>
6NUR|6NUR_protein|mol2

> <Gold.PLP.Fitness>
46.4949

> <Gold.PLP.PLP>
-39.1756

> <Gold.PLP.part.hbond>
-4.3006

> <Gold.PLP.part.metal>
0.0000

> <Gold.PLP.part.buried>
-6.3460

> <Gold.PLP.part.nonpolar>
-28.3043

> <Gold.PLP.part.repulsive>
0.2651

> <Gold.PLP.ligand.clash>
0.0000

> <Gold.PLP.ligand.torsion>
2.7837

> <Gold.PLP.Chemscore.Hbond>
2.9235

> <Gold.PLP.Chemscore.CHOScore>
1.0000

> <Gold.PLP.Chemscore.Metal>
0.0000

> <Gold.Chemscore.Hbonds>
donor molecule, donor type, donor heavy atom, donor atom, acceptor molecule, acceptor atom, score
      L1  H    16    41       P1  8028  0.70
      P1  H  6931  6943       L1    27  1.00
      P1  H  7989  7998       L1     7  0.26
      L1  C     6    34       P1  7957  1.00

> <Gold.PLP.Chemscore.Internal.Correction>
1.1163

> <Gold.Rescore>
     Score         DG    S(hbond)    S(metal)    S(lipo)     H(rot)  DE(clash)    DE(int)     intcor
     11.84     -16.31       2.66        0.00      93.49       3.51       0.10       4.37       ----

> <Gold.Chemscore.Fitness>
11.8438

> <Gold.Chemscore.DG>
-16.3145

> <Gold.Chemscore.ZeroCoef>
-5.4800

> <Gold.Chemscore.Hbond>
2.6560

> <Gold.Chemscore.Metal>
0.0000

> <Gold.Chemscore.Lipo>
93.4901

> <Gold.Chemscore.Internal_Hbond>
0.0000

> <Gold.Chemscore.DEClash>
0.1004

> <Gold.Chemscore.DEInternal>
4.3704

> <Gold.Chemscore.Rot>
3.5059

> <Gold.Chemscore.Internal.Correction>
   9.000000E+99

> <Gold.Chemscore.Hbonds>
donor molecule, donor type, donor heavy atom, donor atom, acceptor molecule, acceptor atom, score
      L1  H    16    41       P1  8028  0.07
      P1  H  6931  6943       L1    27  0.97
      P1  H  7989  7998       L1     7  0.01

> <Gold.Chemscore.Hbond.Weighted>
-8.8711

> <Gold.Chemscore.Metal.Weighted>
-0.0000

> <Gold.Chemscore.Lipo.Weighted>
-10.9383

> <Gold.Chemscore.Internal_Hbond.Weighted>
0.0000

> <Gold.Chemscore.DEClash.Weighted>
0.1004

> <Gold.Chemscore.DEInternal.Weighted>
4.3704

> <Gold.Chemscore.Rot.Weighted>
8.9750

> <Gold.Chemscore.Internal.Correction.Weighted>
   9.000000E+99

> <Gold.Protein.RotatedTorsions>
[ 6907 6896 6895 6894 ] final  -42.57 input  -60.11 | X-H torsion
[ 7974 7965 7964 7962 ] final  141.46 input  175.53 | X-H torsion
[ 8008 7997 7996 7995 ] final  123.39 input   59.86 | X-H torsion
[ 10167 10162 10161 10158 ] final   45.46 input  -65.29 | X-H torsion
[ 10718 10713 10712 10709 ] final -144.92 input   66.30 | X-H torsion
[ 10763 10752 10751 10750 ] final  -39.10 input  -60.55 | X-H torsion
[ 11005 11000 10999 10996 ] final  168.56 input  -57.11 | X-H torsion

> <Gold.Protein.ActiveResidues>
 VAL166  LYS551  ARG553  GLY616  TRP617  ASP618  TYR619  PRO620  LYS621  CYS622 
 ASP623  PHE694  ASN695  SER759  ASP760  ASP761  ALA762  ILE779  LEU786  VAL792 
 PHE793  MET794  SER795  GLU796  ALA797  LYS798  CYS799  TRP800  GLU811  SER814 

> <Gold.Protein.RotatedAtoms>
  150.9537  134.8934  159.7687 H   0  0  0  0  0  0  0  0  0  0  0  0  # atno 6907 bound_to 6896
  152.5129  134.3771  159.9348 H   0  0  0  0  0  0  0  0  0  0  0  0  # atno 6908 bound_to 6896
  151.3785  133.3789  159.2742 H   0  0  0  0  0  0  0  0  0  0  0  0  # atno 6909 bound_to 6896
  144.9094  139.5313  143.5716 H   0  0  0  0  0  0  0  0  0  0  0  0  # atno 7974 bound_to 7965
  156.2764  140.2764  156.1621 H   0  0  0  0  0  0  0  0  0  0  0  0  # atno 8008 bound_to 7997
  155.0743  140.0387  157.2636 H   0  0  0  0  0  0  0  0  0  0  0  0  # atno 8009 bound_to 7997
  154.7015  140.2650  155.6721 H   0  0  0  0  0  0  0  0  0  0  0  0  # atno 8010 bound_to 7997
  140.3239  144.2672  150.6178 H   0  0  0  0  0  0  0  0  0  0  0  0  # atno 10167 bound_to 10162
  156.3760  130.7812  151.1999 H   0  0  0  0  0  0  0  0  0  0  0  0  # atno 10718 bound_to 10713
  153.9238  135.6779  153.4747 H   0  0  0  0  0  0  0  0  0  0  0  0  # atno 10763 bound_to 10752
  153.1015  135.4826  154.8872 H   0  0  0  0  0  0  0  0  0  0  0  0  # atno 10764 bound_to 10752
  154.7464  135.3173  154.8594 H   0  0  0  0  0  0  0  0  0  0  0  0  # atno 10765 bound_to 10752
  140.2885  134.7692  157.3819 H   0  0  0  0  0  0  0  0  0  0  0  0  # atno 11005 bound_to 11000
  146.3151  139.7889  142.8990 LP  0  0  0  0  0  0  0  0  0  0  0  0  # atno 17320 bound_to 7965
  145.3479  141.0301  143.3355 LP  0  0  0  0  0  0  0  0  0  0  0  0  # atno 17321 bound_to 7965
  140.5459  143.2215  151.8008 LP  0  0  0  0  0  0  0  0  0  0  0  0  # atno 17342 bound_to 10162
  139.4869  144.4540  151.9620 LP  0  0  0  0  0  0  0  0  0  0  0  0  # atno 17343 bound_to 10162
  157.7488  131.0358  150.4380 LP  0  0  0  0  0  0  0  0  0  0  0  0  # atno 17370 bound_to 10713
  156.4616  130.4033  149.6573 LP  0  0  0  0  0  0  0  0  0  0  0  0  # atno 17371 bound_to 10713
  140.1217  134.5211  155.8178 LP  0  0  0  0  0  0  0  0  0  0  0  0  # atno 17394 bound_to 11000
  141.2150  133.6758  156.6878 LP  0  0  0  0  0  0  0  0  0  0  0  0  # atno 17395 bound_to 11000

$$$$
