AV-unprocessed.smi:1093|AV-procd|sdf|4743|dock10
  -GOLD-   22720 3283D 1   1.00000     0.00000
 Structure written by MMmdl.
 47 48  0  0  0  0  0  0  0  0  2 V2000
  145.4863  135.2786  151.6749 C   0  0  0  0  0  0  0  0  0  0  0  0
  146.3605  134.0314  151.4791 C   0  0  0  0  0  0  0  0  0  0  0  0
  147.5179  134.0027  152.4075 N   0  3  2  0  0  0  0  0  0  0  0  0
  148.4487  132.8799  152.1215 C   0  0  0  0  0  0  0  0  0  0  0  0
  149.7123  132.9668  152.9959 C   0  0  0  0  0  0  0  0  0  0  0  0
  149.3581  133.0477  154.4909 C   0  0  0  0  0  0  0  0  0  0  0  0
  148.3547  134.1839  154.7587 C   0  0  1  0  0  0  0  0  0  0  0  0
  149.0073  135.4795  154.5637 N   0  0  0  0  0  0  0  0  0  0  0  0
  149.3593  136.3276  155.5406 C   0  0  0  0  0  0  0  0  0  0  0  0
  149.1732  136.0983  156.7350 O   0  0  0  0  0  0  0  0  0  0  0  0
  149.9401  137.4309  155.0397 N   0  0  0  0  0  0  0  0  0  0  0  0
  150.3789  138.5942  155.7285 C   0  0  0  0  0  0  0  0  0  0  0  0
  150.6719  139.8305  155.1078 C   0  0  0  0  0  0  0  0  0  0  0  0
  151.1243  140.9033  155.8997 C   0  0  0  0  0  0  0  0  0  0  0  0
  151.2817  140.7196  157.2959 C   0  0  0  0  0  0  0  0  0  0  0  0
  151.7349  141.7661  158.1315 N   0  0  0  0  0  0  0  0  0  0  0  0
  152.6166  141.4683  159.2558 C   0  0  0  0  0  0  0  0  0  0  0  0
  151.3316  143.1419  157.8684 C   0  0  0  0  0  0  0  0  0  0  0  0
  151.0081  139.5287  157.8824 N   0  0  0  0  0  0  0  0  0  0  0  0
  150.5752  138.5033  157.1202 C   0  0  0  0  0  0  0  0  0  0  0  0
  147.1228  134.0160  153.8409 C   0  0  0  0  0  0  0  0  0  0  0  0
  144.7003  135.3172  150.9203 H   0  0  0  0  0  0  0  0  0  0  0  0
  146.0756  136.1913  151.5831 H   0  0  0  0  0  0  0  0  0  0  0  0
  144.9980  135.2909  152.6487 H   0  0  0  0  0  0  0  0  0  0  0  0
  145.7681  133.1219  151.5877 H   0  0  0  0  0  0  0  0  0  0  0  0
  146.7243  134.0417  150.4509 H   0  0  0  0  0  0  0  0  0  0  0  0
  147.9374  131.9308  152.2908 H   0  0  0  0  0  0  0  0  0  0  0  0
  148.7411  132.8992  151.0709 H   0  0  0  0  0  0  0  0  0  0  0  0
  150.3503  132.1018  152.8125 H   0  0  0  0  0  0  0  0  0  0  0  0
  150.2956  133.8417  152.7064 H   0  0  0  0  0  0  0  0  0  0  0  0
  148.9221  132.0994  154.8082 H   0  0  0  0  0  0  0  0  0  0  0  0
  150.2609  133.1834  155.0878 H   0  0  0  0  0  0  0  0  0  0  0  0
  148.0340  134.1212  155.8001 H   0  0  0  0  0  0  0  0  0  0  0  0
  149.2161  135.7439  153.6119 H   0  0  0  0  0  0  0  0  0  0  0  0
  150.1113  137.4313  154.0447 H   0  0  0  0  0  0  0  0  0  0  0  0
  150.5761  139.9774  154.0437 H   0  0  0  0  0  0  0  0  0  0  0  0
  151.3461  141.8433  155.4176 H   0  0  0  0  0  0  0  0  0  0  0  0
  153.5378  141.0005  158.9069 H   0  0  0  0  0  0  0  0  0  0  0  0
  152.1277  140.7911  159.9569 H   0  0  0  0  0  0  0  0  0  0  0  0
  152.8883  142.3727  159.8002 H   0  0  0  0  0  0  0  0  0  0  0  0
  151.6714  143.4589  156.8819 H   0  0  0  0  0  0  0  0  0  0  0  0
  151.7559  143.8273  158.6021 H   0  0  0  0  0  0  0  0  0  0  0  0
  150.2464  143.2387  157.9130 H   0  0  0  0  0  0  0  0  0  0  0  0
  150.3785  137.5785  157.6426 H   0  0  0  0  0  0  0  0  0  0  0  0
  146.4087  134.8154  154.0334 H   0  0  0  0  0  0  0  0  0  0  0  0
  146.6048  133.0858  154.0808 H   0  0  0  0  0  0  0  0  0  0  0  0
  148.0382  134.8518  152.2384 H   0  0  0  0  0  0  0  0  0  0  0  0
  1  2  1  0  0  0  0
  1 22  1  0  0  0  0
  1 23  1  0  0  0  0
  1 24  1  0  0  0  0
  2  3  1  0  0  0  0
  2 25  1  0  0  0  0
  2 26  1  0  0  0  0
  3 21  1  0  0  0  0
  3  4  1  0  0  0  0
  3 47  1  0  0  0  0
  4  5  1  0  0  0  0
  4 27  1  0  0  0  0
  4 28  1  0  0  0  0
  5  6  1  0  0  0  0
  5 29  1  0  0  0  0
  5 30  1  0  0  0  0
  6  7  1  0  0  0  0
  6 31  1  0  0  0  0
  6 32  1  0  0  0  0
  7  8  1  0  0  0  0
  7 21  1  0  0  0  0
  7 33  1  0  0  0  0
  8  9  1  0  0  0  0
  8 34  1  0  0  0  0
  9 10  2  0  0  0  0
  9 11  1  0  0  0  0
 11 12  1  0  0  0  0
 11 35  1  0  0  0  0
 12 20  1  0  0  0  0
 12 13  2  0  0  0  0
 13 14  1  0  0  0  0
 13 36  1  0  0  0  0
 14 15  2  0  0  0  0
 14 37  1  0  0  0  0
 15 16  1  0  0  0  0
 15 19  1  0  0  0  0
 16 17  1  0  0  0  0
 16 18  1  0  0  0  0
 17 38  1  0  0  0  0
 17 39  1  0  0  0  0
 17 40  1  0  0  0  0
 18 41  1  0  0  0  0
 18 42  1  0  0  0  0
 18 43  1  0  0  0  0
 19 20  2  0  0  0  0
 20 44  1  0  0  0  0
 21 45  1  0  0  0  0
 21 46  1  0  0  0  0
M  CHG  1   3   1
M  END
> <s_m_source_file>
AV-unprocessed.smi

> <i_m_source_file_index>
1093

> <i_lp_mmshare_version>
43012

> <i_f3d_flags>
0

> <s_epik_input>
W0NIM11bQ0gyXU4xW0NIMl1bQ0gyXVtDSDJdW0NASF0oW0NIMl0xKVtOSF1DKD1PKVtOSF1jMltjSF1bY0hdYyhOKFtDSDNdKVtDSDNdKW5bY0hdMg==

> <s_epik_cmdline>
J2VwaWtfcHl0aG9uJywgJy1waCcsICc3LjAnLCAnLXRuJywgJzgnLCAnLW1hJywgJzIwMCcsICctbWV0YWxfYmluZGluZycsICctaW1hZScsICc8aW5maWxlLm1hZT4nLCAnLW9tYWUnLCAnPG91dGZpbGUubWFlPic=

> <r_lp_tautomer_probability>
1

> <r_epik_Ionization_Penalty>
0.489418

> <r_epik_Ionization_Penalty_Charging>
0.00268196

> <r_epik_Ionization_Penalty_Neutral>
0.486736

> <r_epik_State_Penalty>
0.491157

> <r_epik_Charging_Adjusted_Penalty>
0.493839

> <i_epik_Tot_Q>
1

> <i_epik_Tot_abs_Q>
1

> <r_epik_Metal_State_Penalty>
0.266953

> <b_epik_Metal_Only>
0

> <s_lp_Force_Field>
OPLS_2005

> <r_lp_Energy>
27.714

> <b_lp_Chiralities_Consistent>
1

> <s_lp_Variant>
AV-unprocessed.smi:1093-6

> <Gold.Version>
5.8.1

> <Gold.Id.Protein>
6NUR|6NUR_protein|mol2

> <Gold.PLP.Fitness>
39.2426

> <Gold.PLP.PLP>
-31.6878

> <Gold.PLP.part.hbond>
-2.0000

> <Gold.PLP.part.metal>
0.0000

> <Gold.PLP.part.buried>
-2.4760

> <Gold.PLP.part.nonpolar>
-26.3914

> <Gold.PLP.part.repulsive>
0.0282

> <Gold.PLP.ligand.clash>
0.0000

> <Gold.PLP.ligand.torsion>
0.7326

> <Gold.PLP.Chemscore.Hbond>
3.0000

> <Gold.PLP.Chemscore.CHOScore>
0.0000

> <Gold.PLP.Chemscore.Metal>
0.0000

> <Gold.Chemscore.Hbonds>
donor molecule, donor type, donor heavy atom, donor atom, acceptor molecule, acceptor atom, score
      L1  H     3    47       P1  7948  2.00
      L1  H     8    34       P1  7948  1.00

> <Gold.PLP.Chemscore.Internal.Correction>
0.0200

> <Gold.Rescore>
     Score         DG    S(hbond)    S(metal)    S(lipo)     H(rot)  DE(clash)    DE(int)     intcor
     15.53     -17.64       1.97        0.00      73.55       1.18       0.05       2.05       ----

> <Gold.Chemscore.Fitness>
15.5343

> <Gold.Chemscore.DG>
-17.6353

> <Gold.Chemscore.ZeroCoef>
-5.4800

> <Gold.Chemscore.Hbond>
1.9705

> <Gold.Chemscore.Metal>
0.0000

> <Gold.Chemscore.Lipo>
73.5525

> <Gold.Chemscore.Internal_Hbond>
0.0000

> <Gold.Chemscore.DEClash>
0.0531

> <Gold.Chemscore.DEInternal>
2.0479

> <Gold.Chemscore.Rot>
1.1842

> <Gold.Chemscore.Internal.Correction>
   9.000000E+99

> <Gold.Chemscore.Hbonds>
donor molecule, donor type, donor heavy atom, donor atom, acceptor molecule, acceptor atom, score
      L1  H     3    47       P1  7948  0.55
      L1  H     8    34       P1  7948  0.65

> <Gold.Chemscore.Hbond.Weighted>
-6.5813

> <Gold.Chemscore.Metal.Weighted>
-0.0000

> <Gold.Chemscore.Lipo.Weighted>
-8.6056

> <Gold.Chemscore.Internal_Hbond.Weighted>
0.0000

> <Gold.Chemscore.DEClash.Weighted>
0.0531

> <Gold.Chemscore.DEInternal.Weighted>
2.0479

> <Gold.Chemscore.Rot.Weighted>
3.0317

> <Gold.Chemscore.Internal.Correction.Weighted>
   9.000000E+99

> <Gold.Protein.RotatedTorsions>
[ 6907 6896 6895 6894 ] final  109.91 input  -60.11 | X-H torsion
[ 7974 7965 7964 7962 ] final  -35.63 input  175.53 | X-H torsion
[ 8008 7997 7996 7995 ] final  -60.80 input   59.86 | X-H torsion
[ 10167 10162 10161 10158 ] final  107.14 input  -65.29 | X-H torsion
[ 10718 10713 10712 10709 ] final  127.90 input   66.30 | X-H torsion
[ 10763 10752 10751 10750 ] final   53.31 input  -60.55 | X-H torsion
[ 11005 11000 10999 10996 ] final   38.67 input  -57.11 | X-H torsion

> <Gold.Protein.ActiveResidues>
 VAL166  LYS551  ARG553  GLY616  TRP617  ASP618  TYR619  PRO620  LYS621  CYS622 
 ASP623  PHE694  ASN695  SER759  ASP760  ASP761  ALA762  ILE779  LEU786  VAL792 
 PHE793  MET794  SER795  GLU796  ALA797  LYS798  CYS799  TRP800  GLU811  SER814 

> <Gold.Protein.RotatedAtoms>
  152.5045  133.8875  159.7377 H   0  0  0  0  0  0  0  0  0  0  0  0  # atno 6907 bound_to 6896
  150.9322  133.6744  159.2815 H   0  0  0  0  0  0  0  0  0  0  0  0  # atno 6908 bound_to 6896
  151.4085  135.0986  159.9630 H   0  0  0  0  0  0  0  0  0  0  0  0  # atno 6909 bound_to 6896
  146.0730  140.6182  142.8943 H   0  0  0  0  0  0  0  0  0  0  0  0  # atno 7974 bound_to 7965
  154.4416  140.1031  156.6330 H   0  0  0  0  0  0  0  0  0  0  0  0  # atno 8008 bound_to 7997
  155.5584  140.3487  155.4466 H   0  0  0  0  0  0  0  0  0  0  0  0  # atno 8009 bound_to 7997
  156.0478  140.1297  157.0073 H   0  0  0  0  0  0  0  0  0  0  0  0  # atno 8010 bound_to 7997
  139.6952  144.7102  151.1280 H   0  0  0  0  0  0  0  0  0  0  0  0  # atno 10167 bound_to 10162
  157.5292  131.1098  150.9035 H   0  0  0  0  0  0  0  0  0  0  0  0  # atno 10718 bound_to 10713
  152.9794  135.5783  154.4720 H   0  0  0  0  0  0  0  0  0  0  0  0  # atno 10763 bound_to 10752
  154.4281  135.2773  155.1932 H   0  0  0  0  0  0  0  0  0  0  0  0  # atno 10764 bound_to 10752
  154.3652  135.6180  153.5765 H   0  0  0  0  0  0  0  0  0  0  0  0  # atno 10765 bound_to 10752
  140.2103  134.3763  155.8052 H   0  0  0  0  0  0  0  0  0  0  0  0  # atno 11005 bound_to 11000
  144.7244  140.4477  143.6984 LP  0  0  0  0  0  0  0  0  0  0  0  0  # atno 17320 bound_to 7965
  145.6356  139.1542  143.2944 LP  0  0  0  0  0  0  0  0  0  0  0  0  # atno 17321 bound_to 7965
  140.7694  143.5502  150.9213 LP  0  0  0  0  0  0  0  0  0  0  0  0  # atno 17342 bound_to 10162
  139.9182  143.6638  152.3102 LP  0  0  0  0  0  0  0  0  0  0  0  0  # atno 17343 bound_to 10162
  156.9621  130.5459  149.5286 LP  0  0  0  0  0  0  0  0  0  0  0  0  # atno 17370 bound_to 10713
  156.0410  130.5492  150.8770 LP  0  0  0  0  0  0  0  0  0  0  0  0  # atno 17371 bound_to 10713
  141.2226  133.7139  156.8406 LP  0  0  0  0  0  0  0  0  0  0  0  0  # atno 17394 bound_to 11000
  140.1958  134.8933  157.3113 LP  0  0  0  0  0  0  0  0  0  0  0  0  # atno 17395 bound_to 11000

$$$$
