AV-unprocessed.smi:414|AV-procd|sdf|2514|dock1
  -GOLD-   2262022463D 1   1.00000     0.00000
 Structure written by MMmdl.
 38 39  0  0  0  0  0  0  0  0  1 V2000
  152.8015  143.6277  161.5869 C   0  0  0  0  0  0  0  0  0  0  0  0
  152.1096  143.1334  160.3086 C   0  0  2  0  0  0  0  0  0  0  0  0
  152.4665  141.6656  160.0057 C   0  0  0  0  0  0  0  0  0  0  0  0
  151.7773  141.1685  158.7247 C   0  0  0  0  0  0  0  0  0  0  0  0
  152.1164  142.0633  157.5189 C   0  0  1  0  0  0  0  0  0  0  0  0
  151.3981  141.5889  156.3400 N   0  0  0  0  0  0  0  0  0  0  0  0
  151.5719  140.3946  155.7532 C   0  0  0  0  0  0  0  0  0  0  0  0
  152.3889  139.5616  156.1483 O   0  0  0  0  0  0  0  0  0  0  0  0
  150.7021  140.1178  154.5186 C   0  0  0  0  0  0  0  0  0  0  0  0
  149.7617  141.2081  154.2211 N   0  0  0  0  0  0  0  0  0  0  0  0
  149.9191  141.9759  153.0760 C   0  0  0  0  0  0  0  0  0  0  0  0
  149.0844  142.9863  152.7352 C   0  0  0  0  0  0  0  0  0  0  0  0
  147.9463  143.3224  153.5841 C   0  0  0  0  0  0  0  0  0  0  0  0
  147.1361  144.2193  153.3618 O   0  0  0  0  0  0  0  0  0  0  0  0
  147.8205  142.5259  154.7254 N   0  0  0  0  0  0  0  0  0  0  0  0
  148.6762  141.4821  155.0816 C   0  0  0  0  0  0  0  0  0  0  0  0
  148.4717  140.8386  156.1103 O   0  0  0  0  0  0  0  0  0  0  0  0
  151.7630  143.5341  157.8179 C   0  0  0  0  0  0  0  0  0  0  0  0
  152.4505  144.0276  159.1013 C   0  0  0  0  0  0  0  0  0  0  0  0
  147.0449  142.7197  155.3420 H   0  0  0  0  0  0  0  0  0  0  0  0
  153.8871  143.5959  161.4881 H   0  0  0  0  0  0  0  0  0  0  0  0
  152.5268  143.0132  162.4449 H   0  0  0  0  0  0  0  0  0  0  0  0
  152.5178  144.6556  161.8146 H   0  0  0  0  0  0  0  0  0  0  0  0
  151.0328  143.1903  160.4754 H   0  0  0  0  0  0  0  0  0  0  0  0
  153.5474  141.5629  159.8989 H   0  0  0  0  0  0  0  0  0  0  0  0
  152.1783  141.0306  160.8443 H   0  0  0  0  0  0  0  0  0  0  0  0
  152.0786  140.1397  158.5229 H   0  0  0  0  0  0  0  0  0  0  0  0
  150.6976  141.1491  158.8806 H   0  0  0  0  0  0  0  0  0  0  0  0
  153.1901  141.9883  157.3341 H   0  0  0  0  0  0  0  0  0  0  0  0
  150.7105  142.2139  155.9450 H   0  0  0  0  0  0  0  0  0  0  0  0
  151.3390  139.9247  153.6527 H   0  0  0  0  0  0  0  0  0  0  0  0
  150.1595  139.1867  154.6893 H   0  0  0  0  0  0  0  0  0  0  0  0
  150.7461  141.7597  152.4146 H   0  0  0  0  0  0  0  0  0  0  0  0
  149.2589  143.5480  151.8289 H   0  0  0  0  0  0  0  0  0  0  0  0
  152.0560  144.1704  156.9818 H   0  0  0  0  0  0  0  0  0  0  0  0
  150.6823  143.6410  157.9226 H   0  0  0  0  0  0  0  0  0  0  0  0
  152.1508  145.0566  159.3022 H   0  0  0  0  0  0  0  0  0  0  0  0
  153.5305  144.0455  158.9485 H   0  0  0  0  0  0  0  0  0  0  0  0
  1  2  1  0  0  0  0
  1 21  1  0  0  0  0
  1 22  1  0  0  0  0
  1 23  1  0  0  0  0
  2 19  1  0  0  0  0
  2  3  1  0  0  0  0
  2 24  1  0  0  0  0
  3  4  1  0  0  0  0
  3 25  1  0  0  0  0
  3 26  1  0  0  0  0
  4  5  1  0  0  0  0
  4 27  1  0  0  0  0
  4 28  1  0  0  0  0
  5  6  1  0  0  0  0
  5 18  1  0  0  0  0
  5 29  1  0  0  0  0
  6  7  1  0  0  0  0
  6 30  1  0  0  0  0
  7  8  2  0  0  0  0
  7  9  1  0  0  0  0
  9 10  1  0  0  0  0
  9 31  1  0  0  0  0
  9 32  1  0  0  0  0
 10 16  1  0  0  0  0
 10 11  1  0  0  0  0
 11 12  2  0  0  0  0
 11 33  1  0  0  0  0
 12 13  1  0  0  0  0
 12 34  1  0  0  0  0
 13 14  2  0  0  0  0
 13 15  1  0  0  0  0
 15 20  1  0  0  0  0
 15 16  1  0  0  0  0
 16 17  2  0  0  0  0
 18 19  1  0  0  0  0
 18 35  1  0  0  0  0
 18 36  1  0  0  0  0
 19 37  1  0  0  0  0
 19 38  1  0  0  0  0
M  END
> <s_m_source_file>
AV-unprocessed.smi

> <i_m_source_file_index>
414

> <i_lp_mmshare_version>
43012

> <i_f3d_flags>
0

> <s_epik_input>
W0NIM11bQ0BASF0xW0NIMl1bQ0gyXVtDQEhdKFtDSDJdW0NIMl0xKVtOSF1DKD1PKVtDSDJdbjJbY0hdW2NIXWMoPU8pW25IXWMyPU8=

> <s_epik_cmdline>
J2VwaWtfcHl0aG9uJywgJy1waCcsICc3LjAnLCAnLXRuJywgJzgnLCAnLW1hJywgJzIwMCcsICctbWV0YWxfYmluZGluZycsICctaW1hZScsICc8aW5maWxlLm1hZT4nLCAnLW9tYWUnLCAnPG91dGZpbGUubWFlPic=

> <r_lp_tautomer_probability>
0.999537

> <r_epik_Ionization_Penalty>
0.00309124

> <r_epik_Ionization_Penalty_Charging>
0.00309122

> <r_epik_Ionization_Penalty_Neutral>
1.90469e-08

> <r_epik_State_Penalty>
0.00217484

> <r_epik_Charging_Adjusted_Penalty>
0.00526606

> <i_epik_Tot_Q>
0

> <i_epik_Tot_abs_Q>
0

> <r_epik_Metal_State_Penalty>
0.362537

> <b_epik_Metal_Only>
0

> <s_lp_Force_Field>
OPLS_2005

> <r_lp_Energy>
8.30971

> <b_lp_Chiralities_Consistent>
1

> <s_lp_Variant>
AV-unprocessed.smi:414-1

> <Gold.Version>
5.8.1

> <Gold.Id.Protein>
6NUR|6NUR_protein|mol2

> <Gold.PLP.Fitness>
41.7891

> <Gold.PLP.PLP>
-35.9686

> <Gold.PLP.part.hbond>
-1.0000

> <Gold.PLP.part.metal>
0.0000

> <Gold.PLP.part.buried>
-4.5971

> <Gold.PLP.part.nonpolar>
-30.4602

> <Gold.PLP.part.repulsive>
0.2421

> <Gold.PLP.ligand.clash>
0.0000

> <Gold.PLP.ligand.torsion>
0.0929

> <Gold.PLP.Chemscore.Hbond>
1.0000

> <Gold.PLP.Chemscore.CHOScore>
1.0000

> <Gold.PLP.Chemscore.Metal>
0.0000

> <Gold.Chemscore.Hbonds>
donor molecule, donor type, donor heavy atom, donor atom, acceptor molecule, acceptor atom, score
      P1  H  7997  8010       L1     8  0.99
      L1  C    11    33       P1  7957  0.34

> <Gold.PLP.Chemscore.Internal.Correction>
0.0064

> <Gold.Rescore>
     Score         DG    S(hbond)    S(metal)    S(lipo)     H(rot)  DE(clash)    DE(int)     intcor
     15.10     -15.53       1.00        0.00      94.25       1.69       0.04       0.38       ----

> <Gold.Chemscore.Fitness>
15.1034

> <Gold.Chemscore.DG>
-15.5270

> <Gold.Chemscore.ZeroCoef>
-5.4800

> <Gold.Chemscore.Hbond>
1.0000

> <Gold.Chemscore.Metal>
0.0000

> <Gold.Chemscore.Lipo>
94.2467

> <Gold.Chemscore.Internal_Hbond>
0.0000

> <Gold.Chemscore.DEClash>
0.0447

> <Gold.Chemscore.DEInternal>
0.3789

> <Gold.Chemscore.Rot>
1.6874

> <Gold.Chemscore.Internal.Correction>
   9.000000E+99

> <Gold.Chemscore.Hbonds>
donor molecule, donor type, donor heavy atom, donor atom, acceptor molecule, acceptor atom, score
      P1  H  7997  8010       L1     8  0.88

> <Gold.Chemscore.Hbond.Weighted>
-3.3400

> <Gold.Chemscore.Metal.Weighted>
-0.0000

> <Gold.Chemscore.Lipo.Weighted>
-11.0269

> <Gold.Chemscore.Internal_Hbond.Weighted>
0.0000

> <Gold.Chemscore.DEClash.Weighted>
0.0447

> <Gold.Chemscore.DEInternal.Weighted>
0.3789

> <Gold.Chemscore.Rot.Weighted>
4.3198

> <Gold.Chemscore.Internal.Correction.Weighted>
   9.000000E+99

> <Gold.Protein.RotatedTorsions>
[ 6907 6896 6895 6894 ] final -163.63 input  -60.11 | X-H torsion
[ 7974 7965 7964 7962 ] final   11.76 input  175.53 | X-H torsion
[ 8008 7997 7996 7995 ] final   81.31 input   59.86 | X-H torsion
[ 10167 10162 10161 10158 ] final  -15.55 input  -65.29 | X-H torsion
[ 10718 10713 10712 10709 ] final  -62.04 input   66.30 | X-H torsion
[ 10763 10752 10751 10750 ] final   12.43 input  -60.55 | X-H torsion
[ 11005 11000 10999 10996 ] final -123.02 input  -57.11 | X-H torsion

> <Gold.Protein.ActiveResidues>
 VAL166  LYS551  ARG553  GLY616  TRP617  ASP618  TYR619  PRO620  LYS621  CYS622 
 ASP623  PHE694  ASN695  SER759  ASP760  ASP761  ALA762  ILE779  LEU786  VAL792 
 PHE793  MET794  SER795  GLU796  ALA797  LYS798  CYS799  TRP800  GLU811  SER814 

> <Gold.Protein.RotatedAtoms>
  151.3990  133.3764  159.2729 H   0  0  0  0  0  0  0  0  0  0  0  0  # atno 6907 bound_to 6896
  150.9448  134.8855  159.7645 H   0  0  0  0  0  0  0  0  0  0  0  0  # atno 6908 bound_to 6896
  152.5087  134.3942  159.9446 H   0  0  0  0  0  0  0  0  0  0  0  0  # atno 6909 bound_to 6896
  146.2365  139.9437  142.8480 H   0  0  0  0  0  0  0  0  0  0  0  0  # atno 7974 bound_to 7965
  155.8953  140.3436  155.5986 H   0  0  0  0  0  0  0  0  0  0  0  0  # atno 8008 bound_to 7997
  155.7563  140.0826  157.2196 H   0  0  0  0  0  0  0  0  0  0  0  0  # atno 8009 bound_to 7997
  154.4037  140.1544  156.2768 H   0  0  0  0  0  0  0  0  0  0  0  0  # atno 8010 bound_to 7997
  140.7220  143.5206  150.9638 H   0  0  0  0  0  0  0  0  0  0  0  0  # atno 10167 bound_to 10162
  156.0882  130.4204  150.1078 H   0  0  0  0  0  0  0  0  0  0  0  0  # atno 10718 bound_to 10713
  153.1824  135.6830  153.8460 H   0  0  0  0  0  0  0  0  0  0  0  0  # atno 10763 bound_to 10752
  153.7788  135.3185  155.3364 H   0  0  0  0  0  0  0  0  0  0  0  0  # atno 10764 bound_to 10752
  154.8068  135.4743  154.0507 H   0  0  0  0  0  0  0  0  0  0  0  0  # atno 10765 bound_to 10752
  140.9951  134.0483  157.3607 H   0  0  0  0  0  0  0  0  0  0  0  0  # atno 11005 bound_to 11000
  145.1928  140.9819  143.4201 LP  0  0  0  0  0  0  0  0  0  0  0  0  # atno 17320 bound_to 7965
  144.9842  139.3753  143.6247 LP  0  0  0  0  0  0  0  0  0  0  0  0  # atno 17321 bound_to 7965
  139.8923  143.6937  152.3143 LP  0  0  0  0  0  0  0  0  0  0  0  0  # atno 17342 bound_to 10162
  139.7258  144.7593  151.0882 LP  0  0  0  0  0  0  0  0  0  0  0  0  # atno 17343 bound_to 10162
  156.9095  130.9647  151.3565 LP  0  0  0  0  0  0  0  0  0  0  0  0  # atno 17370 bound_to 10713
  157.6023  130.8521  149.8820 LP  0  0  0  0  0  0  0  0  0  0  0  0  # atno 17371 bound_to 10713
  139.9011  135.0164  156.7271 LP  0  0  0  0  0  0  0  0  0  0  0  0  # atno 17394 bound_to 11000
  140.6979  133.9332  155.8006 LP  0  0  0  0  0  0  0  0  0  0  0  0  # atno 17395 bound_to 11000

$$$$
