AV-unprocessed.smi:261|AV-procd|sdf|1994|dock5
  -GOLD-   2262021183D 1   1.00000     0.00000
 Structure written by MMmdl.
 51 54  0  0  0  0  0  0  0  0  1 V2000
  148.0514  132.1376  153.4864 C   0  0  0  0  0  0  0  0  0  0  0  0
  148.5510  133.3823  153.9480 O   0  0  0  0  0  0  0  0  0  0  0  0
  149.9230  133.3498  154.3219 C   0  0  2  0  0  0  0  0  0  0  0  0
  150.1257  132.7306  155.7115 C   0  0  0  0  0  0  0  0  0  0  0  0
  149.8766  133.8809  156.7007 C   0  0  2  0  0  0  0  0  0  0  0  0
  148.4012  133.9330  157.1532 C   0  0  0  0  0  0  0  0  0  0  0  0
  147.6867  135.0354  156.9028 N   0  0  0  0  0  0  0  0  0  0  0  0
  147.9120  132.9718  157.7423 O   0  0  0  0  0  0  0  0  0  0  0  0
  150.3198  135.0559  155.9488 N   0  0  0  0  0  0  0  0  0  0  0  0
  150.6745  136.2544  156.4913 C   0  0  0  0  0  0  0  0  0  0  0  0
  151.0094  136.2778  157.8089 N   0  0  0  0  0  0  0  0  0  0  0  0
  151.3731  137.4165  158.4037 C   0  0  0  0  0  0  0  0  0  0  0  0
  151.4710  138.6361  157.8761 N   0  0  0  0  0  0  0  0  0  0  0  0
  151.1363  138.6298  156.5551 C   0  0  0  0  0  0  0  0  0  0  0  0
  150.7303  137.4975  155.7886 C   0  0  0  0  0  0  0  0  0  0  0  0
  150.4774  137.8978  154.4804 N   0  0  0  0  0  0  0  0  0  0  0  0
  150.7207  139.1786  154.4736 C   0  0  0  0  0  0  0  0  0  0  0  0
  151.1151  139.7030  155.6819 N   0  0  0  0  0  0  0  0  0  0  0  0
  151.4444  141.0927  155.9587 C   0  0  0  0  0  0  0  0  0  0  0  0
  150.5488  141.7435  157.0366 C   0  0  2  0  0  0  0  0  0  0  0  0
  149.3032  142.0807  156.4591 O   0  0  0  0  0  0  0  0  0  0  0  0
  151.1524  143.0117  157.6748 C   0  0  1  0  0  0  0  0  0  0  0  0
  150.2329  143.7215  158.6694 C   0  0  0  0  0  0  0  0  0  0  0  0
  151.1972  144.4585  159.5863 C   0  0  0  0  0  0  0  0  0  0  0  0
  152.5571  143.8205  159.2891 C   0  0  0  0  0  0  0  0  0  0  0  0
  152.2640  142.6818  158.4927 O   0  0  0  0  0  0  0  0  0  0  0  0
  150.3993  134.7932  154.5147 C   0  0  0  0  0  0  0  0  0  0  0  0
  150.5127  132.8474  153.5533 H   0  0  0  0  0  0  0  0  0  0  0  0
  150.5048  133.7206  157.5766 H   0  0  0  0  0  0  0  0  0  0  0  0
  146.9999  132.2451  153.2205 H   0  0  0  0  0  0  0  0  0  0  0  0
  148.1232  131.3615  154.2483 H   0  0  0  0  0  0  0  0  0  0  0  0
  148.5881  131.8043  152.5974 H   0  0  0  0  0  0  0  0  0  0  0  0
  149.5054  131.8529  155.8944 H   0  0  0  0  0  0  0  0  0  0  0  0
  151.1624  132.4040  155.8051 H   0  0  0  0  0  0  0  0  0  0  0  0
  146.7233  135.0864  157.2002 H   0  0  0  0  0  0  0  0  0  0  0  0
  148.1159  135.8143  156.4251 H   0  0  0  0  0  0  0  0  0  0  0  0
  151.6220  137.3385  159.4518 H   0  0  0  0  0  0  0  0  0  0  0  0
  150.6104  139.7810  153.5834 H   0  0  0  0  0  0  0  0  0  0  0  0
  152.4945  141.1529  156.2474 H   0  0  0  0  0  0  0  0  0  0  0  0
  151.3554  141.6505  155.0259 H   0  0  0  0  0  0  0  0  0  0  0  0
  150.3586  141.0038  157.8150 H   0  0  0  0  0  0  0  0  0  0  0  0
  149.4091  142.8780  155.9624 H   0  0  0  0  0  0  0  0  0  0  0  0
  151.4763  143.7187  156.9085 H   0  0  0  0  0  0  0  0  0  0  0  0
  149.5201  144.3865  158.1812 H   0  0  0  0  0  0  0  0  0  0  0  0
  149.6672  142.9909  159.2491 H   0  0  0  0  0  0  0  0  0  0  0  0
  151.2185  145.5273  159.3703 H   0  0  0  0  0  0  0  0  0  0  0  0
  150.9119  144.3326  160.6313 H   0  0  0  0  0  0  0  0  0  0  0  0
  153.1856  144.5048  158.7172 H   0  0  0  0  0  0  0  0  0  0  0  0
  153.0957  143.5390  160.1941 H   0  0  0  0  0  0  0  0  0  0  0  0
  151.4386  134.8898  154.1974 H   0  0  0  0  0  0  0  0  0  0  0  0
  149.8017  135.4984  153.9350 H   0  0  0  0  0  0  0  0  0  0  0  0
  1  2  1  0  0  0  0
  1 30  1  0  0  0  0
  1 31  1  0  0  0  0
  1 32  1  0  0  0  0
  2  3  1  0  0  0  0
  3 28  1  0  0  0  0
  3 27  1  0  0  0  0
  3  4  1  0  0  0  0
  4  5  1  0  0  0  0
  4 33  1  0  0  0  0
  4 34  1  0  0  0  0
  5 29  1  0  0  0  0
  5  6  1  0  0  0  0
  5  9  1  0  0  0  0
  6  7  1  0  0  0  0
  6  8  2  0  0  0  0
  7 35  1  0  0  0  0
  7 36  1  0  0  0  0
  9 10  1  0  0  0  0
  9 27  1  0  0  0  0
 10 15  1  0  0  0  0
 10 11  2  0  0  0  0
 11 12  1  0  0  0  0
 12 13  2  0  0  0  0
 12 37  1  0  0  0  0
 13 14  1  0  0  0  0
 14 18  1  0  0  0  0
 14 15  2  0  0  0  0
 15 16  1  0  0  0  0
 16 17  2  0  0  0  0
 17 18  1  0  0  0  0
 17 38  1  0  0  0  0
 18 19  1  0  0  0  0
 19 20  1  0  0  0  0
 19 39  1  0  0  0  0
 19 40  1  0  0  0  0
 20 21  1  0  0  0  0
 20 22  1  0  0  0  0
 20 41  1  0  0  0  0
 21 42  1  0  0  0  0
 22 26  1  0  0  0  0
 22 23  1  0  0  0  0
 22 43  1  0  0  0  0
 23 24  1  0  0  0  0
 23 44  1  0  0  0  0
 23 45  1  0  0  0  0
 24 25  1  0  0  0  0
 24 46  1  0  0  0  0
 24 47  1  0  0  0  0
 25 26  1  0  0  0  0
 25 48  1  0  0  0  0
 25 49  1  0  0  0  0
 27 50  1  0  0  0  0
 27 51  1  0  0  0  0
M  END
> <s_m_source_file>
AV-unprocessed.smi

> <i_m_source_file_index>
261

> <i_lp_mmshare_version>
43012

> <i_f3d_flags>
0

> <s_epik_input>
W0NIM11PW0NASF0xW0NIMl1bQ0BASF0oQyg9TylbTkgyXSlOKFtDSDJdMSljKG5bY0hdbjIpYyhjMjMpbltjSF1uM1tDSDJdW0NASF0oW09IXSlbQ0BASF00W0NIMl1bQ0gyXVtDSDJdTzQ=

> <s_epik_cmdline>
J2VwaWtfcHl0aG9uJywgJy1waCcsICc3LjAnLCAnLXRuJywgJzgnLCAnLW1hJywgJzIwMCcsICctbWV0YWxfYmluZGluZycsICctaW1hZScsICc8aW5maWxlLm1hZT4nLCAnLW9tYWUnLCAnPG91dGZpbGUubWFlPic=

> <r_lp_tautomer_probability>
1

> <r_epik_Ionization_Penalty>
0.000713824

> <r_epik_Ionization_Penalty_Charging>
0

> <r_epik_Ionization_Penalty_Neutral>
0.000713824

> <r_epik_State_Penalty>
0.000402132

> <r_epik_Charging_Adjusted_Penalty>
0.000402132

> <i_epik_Tot_Q>
0

> <i_epik_Tot_abs_Q>
0

> <r_epik_Metal_State_Penalty>
-0

> <b_epik_Metal_Only>
0

> <s_lp_Force_Field>
OPLS_2005

> <r_lp_Energy>
42.3495

> <b_lp_Chiralities_Consistent>
1

> <s_lp_Variant>
AV-unprocessed.smi:261-12

> <Gold.Version>
5.8.1

> <Gold.Id.Protein>
6NUR|6NUR_protein|mol2

> <Gold.PLP.Fitness>
43.8362

> <Gold.PLP.PLP>
-38.8564

> <Gold.PLP.part.hbond>
-1.8918

> <Gold.PLP.part.metal>
0.0000

> <Gold.PLP.part.buried>
-5.4005

> <Gold.PLP.part.nonpolar>
-30.9782

> <Gold.PLP.part.repulsive>
0.3376

> <Gold.PLP.ligand.clash>
0.0000

> <Gold.PLP.ligand.torsion>
0.5583

> <Gold.PLP.Chemscore.Hbond>
1.0000

> <Gold.PLP.Chemscore.CHOScore>
1.0000

> <Gold.PLP.Chemscore.Metal>
0.0000

> <Gold.Chemscore.Hbonds>
donor molecule, donor type, donor heavy atom, donor atom, acceptor molecule, acceptor atom, score
      L1  H    21    42       P1  8028  0.98
      L1  C    17    38       P1  7957  0.77

> <Gold.PLP.Chemscore.Internal.Correction>
0.0963

> <Gold.Rescore>
     Score         DG    S(hbond)    S(metal)    S(lipo)     H(rot)  DE(clash)    DE(int)     intcor
     10.07     -10.74       0.98        0.00      86.76       3.18       0.09       0.58       ----

> <Gold.Chemscore.Fitness>
10.0696

> <Gold.Chemscore.DG>
-10.7405

> <Gold.Chemscore.ZeroCoef>
-5.4800

> <Gold.Chemscore.Hbond>
0.9756

> <Gold.Chemscore.Metal>
0.0000

> <Gold.Chemscore.Lipo>
86.7570

> <Gold.Chemscore.Internal_Hbond>
0.0000

> <Gold.Chemscore.DEClash>
0.0883

> <Gold.Chemscore.DEInternal>
0.5826

> <Gold.Chemscore.Rot>
3.1831

> <Gold.Chemscore.Internal.Correction>
   9.000000E+99

> <Gold.Chemscore.Hbonds>
donor molecule, donor type, donor heavy atom, donor atom, acceptor molecule, acceptor atom, score
      L1  H    21    42       P1  8028  0.93

> <Gold.Chemscore.Hbond.Weighted>
-3.2586

> <Gold.Chemscore.Metal.Weighted>
-0.0000

> <Gold.Chemscore.Lipo.Weighted>
-10.1506

> <Gold.Chemscore.Internal_Hbond.Weighted>
0.0000

> <Gold.Chemscore.DEClash.Weighted>
0.0883

> <Gold.Chemscore.DEInternal.Weighted>
0.5826

> <Gold.Chemscore.Rot.Weighted>
8.1486

> <Gold.Chemscore.Internal.Correction.Weighted>
   9.000000E+99

> <Gold.Protein.RotatedTorsions>
[ 6907 6896 6895 6894 ] final  157.37 input  -60.11 | X-H torsion
[ 7974 7965 7964 7962 ] final   -1.96 input  175.53 | X-H torsion
[ 8008 7997 7996 7995 ] final  -88.70 input   59.86 | X-H torsion
[ 10167 10162 10161 10158 ] final   61.23 input  -65.29 | X-H torsion
[ 10718 10713 10712 10709 ] final  136.09 input   66.30 | X-H torsion
[ 10763 10752 10751 10750 ] final   71.34 input  -60.55 | X-H torsion
[ 11005 11000 10999 10996 ] final   -3.93 input  -57.11 | X-H torsion

> <Gold.Protein.ActiveResidues>
 VAL166  LYS551  ARG553  GLY616  TRP617  ASP618  TYR619  PRO620  LYS621  CYS622 
 ASP623  PHE694  ASN695  SER759  ASP760  ASP761  ALA762  ILE779  LEU786  VAL792 
 PHE793  MET794  SER795  GLU796  ALA797  LYS798  CYS799  TRP800  GLU811  SER814 

> <Gold.Protein.RotatedAtoms>
  152.0160  133.3880  159.4238 H   0  0  0  0  0  0  0  0  0  0  0  0  # atno 6907 bound_to 6896
  150.6895  134.3678  159.4988 H   0  0  0  0  0  0  0  0  0  0  0  0  # atno 6908 bound_to 6896
  152.1445  134.9036  160.0602 H   0  0  0  0  0  0  0  0  0  0  0  0  # atno 6909 bound_to 6896
  146.2411  140.1498  142.8334 H   0  0  0  0  0  0  0  0  0  0  0  0  # atno 7974 bound_to 7965
  154.6779  140.0550  157.0235 H   0  0  0  0  0  0  0  0  0  0  0  0  # atno 8008 bound_to 7997
  155.0994  140.3227  155.4532 H   0  0  0  0  0  0  0  0  0  0  0  0  # atno 8009 bound_to 7997
  156.2683  140.2034  156.6120 H   0  0  0  0  0  0  0  0  0  0  0  0  # atno 8010 bound_to 7997
  140.1570  144.4408  150.6729 H   0  0  0  0  0  0  0  0  0  0  0  0  # atno 10167 bound_to 10162
  157.4503  131.1065  151.0041 H   0  0  0  0  0  0  0  0  0  0  0  0  # atno 10718 bound_to 10713
  153.0393  135.5140  154.7579 H   0  0  0  0  0  0  0  0  0  0  0  0  # atno 10763 bound_to 10752
  154.6529  135.2927  154.9966 H   0  0  0  0  0  0  0  0  0  0  0  0  # atno 10764 bound_to 10752
  154.0844  135.6659  153.4895 H   0  0  0  0  0  0  0  0  0  0  0  0  # atno 10765 bound_to 10752
  140.6748  133.9205  155.8517 H   0  0  0  0  0  0  0  0  0  0  0  0  # atno 11005 bound_to 11000
  145.0177  140.8767  143.5186 LP  0  0  0  0  0  0  0  0  0  0  0  0  # atno 17320 bound_to 7965
  145.1542  139.2496  143.5425 LP  0  0  0  0  0  0  0  0  0  0  0  0  # atno 17321 bound_to 7965
  140.6667  143.2270  151.5725 LP  0  0  0  0  0  0  0  0  0  0  0  0  # atno 17342 bound_to 10162
  139.5399  144.2677  152.1329 LP  0  0  0  0  0  0  0  0  0  0  0  0  # atno 17343 bound_to 10162
  157.0873  130.5928  149.5432 LP  0  0  0  0  0  0  0  0  0  0  0  0  # atno 17370 bound_to 10713
  155.9984  130.5058  150.7571 LP  0  0  0  0  0  0  0  0  0  0  0  0  # atno 17371 bound_to 10713
  141.0364  134.0683  157.3954 LP  0  0  0  0  0  0  0  0  0  0  0  0  # atno 17394 bound_to 11000
  139.8970  135.0148  156.7080 LP  0  0  0  0  0  0  0  0  0  0  0  0  # atno 17395 bound_to 11000

$$$$
