AV-unprocessed.smi:3274|AV-procd|sdf|12524|dock10
  -GOLD-   2272018443D 1   1.00000     0.00000
 Structure written by MMmdl.
 43 44  0  0  0  0  0  0  0  0  2 V2000
  152.3491  139.4254  157.7887 C   0  0  0  0  0  0  0  0  0  0  0  0
  152.3660  140.7621  158.5120 C   0  0  0  0  0  0  0  0  0  0  0  0
  152.9474  140.8585  159.7230 C   0  0  0  0  0  0  0  0  0  0  0  0
  153.0899  142.1466  160.5007 C   0  0  0  0  0  0  0  0  0  0  0  0
  152.9578  143.3626  159.5810 C   0  0  0  0  0  0  0  0  0  0  0  0
  151.7105  143.2571  158.6888 C   0  0  1  0  0  0  0  0  0  0  0  0
  151.5610  144.5491  157.8613 C   0  0  0  0  0  0  0  0  0  0  0  0
  151.7271  141.9734  157.8020 C   0  0  2  0  0  0  0  0  0  0  0  0
  150.3021  141.6768  157.2659 C   0  0  0  0  0  0  0  0  0  0  0  0
  150.0787  142.2042  155.9019 N   0  3  0  0  0  0  0  0  0  0  0  0
  149.1246  141.4276  155.0787 C   0  0  2  0  0  0  0  0  0  0  0  0
  149.8509  140.2294  154.4533 C   0  0  0  0  0  0  0  0  0  0  0  0
  148.4850  142.3119  153.9878 C   0  0  0  0  0  0  0  0  0  0  0  0
  147.1166  142.6867  154.2955 N   0  0  0  0  0  0  0  0  0  0  0  0
  146.2469  143.4367  153.6172 C   0  0  0  0  0  0  0  0  0  0  0  0
  145.0656  143.5502  154.2078 N   0  0  0  0  0  0  0  0  0  0  0  0
  145.2953  142.8024  155.3278 C   0  0  0  0  0  0  0  0  0  0  0  0
  146.5075  142.2563  155.4256 N   0  0  0  0  0  0  0  0  0  0  0  0
  152.7332  139.5350  156.7742 H   0  0  0  0  0  0  0  0  0  0  0  0
  151.3392  139.0179  157.7454 H   0  0  0  0  0  0  0  0  0  0  0  0
  152.9730  138.6910  158.2991 H   0  0  0  0  0  0  0  0  0  0  0  0
  153.3633  139.9790  160.1934 H   0  0  0  0  0  0  0  0  0  0  0  0
  152.3318  142.1679  161.2843 H   0  0  0  0  0  0  0  0  0  0  0  0
  154.0621  142.1615  160.9941 H   0  0  0  0  0  0  0  0  0  0  0  0
  152.9207  144.2692  160.1862 H   0  0  0  0  0  0  0  0  0  0  0  0
  153.8478  143.4455  158.9553 H   0  0  0  0  0  0  0  0  0  0  0  0
  150.8507  143.1944  159.3580 H   0  0  0  0  0  0  0  0  0  0  0  0
  152.3646  144.6481  157.1309 H   0  0  0  0  0  0  0  0  0  0  0  0
  151.5922  145.4294  158.5040 H   0  0  0  0  0  0  0  0  0  0  0  0
  150.6159  144.5909  157.3233 H   0  0  0  0  0  0  0  0  0  0  0  0
  152.3736  142.1823  156.9480 H   0  0  0  0  0  0  0  0  0  0  0  0
  150.1159  140.6020  157.2760 H   0  0  0  0  0  0  0  0  0  0  0  0
  149.5477  142.1193  157.9126 H   0  0  0  0  0  0  0  0  0  0  0  0
  149.7411  143.1540  155.9693 H   0  0  0  0  0  0  0  0  0  0  0  0
  148.3354  141.0296  155.7190 H   0  0  0  0  0  0  0  0  0  0  0  0
  149.1651  139.6172  153.8668 H   0  0  0  0  0  0  0  0  0  0  0  0
  150.2867  139.5895  155.2214 H   0  0  0  0  0  0  0  0  0  0  0  0
  150.6562  140.5522  153.7924 H   0  0  0  0  0  0  0  0  0  0  0  0
  149.0729  143.2184  153.8340 H   0  0  0  0  0  0  0  0  0  0  0  0
  148.4785  141.7819  153.0345 H   0  0  0  0  0  0  0  0  0  0  0  0
  146.4790  143.9029  152.6706 H   0  0  0  0  0  0  0  0  0  0  0  0
  144.5443  142.6482  156.0886 H   0  0  0  0  0  0  0  0  0  0  0  0
  150.9711  142.2151  155.4290 H   0  0  0  0  0  0  0  0  0  0  0  0
  1  2  1  0  0  0  0
  1 19  1  0  0  0  0
  1 20  1  0  0  0  0
  1 21  1  0  0  0  0
  2  8  1  0  0  0  0
  2  3  2  0  0  0  0
  3  4  1  0  0  0  0
  3 22  1  0  0  0  0
  4  5  1  0  0  0  0
  4 23  1  0  0  0  0
  4 24  1  0  0  0  0
  5  6  1  0  0  0  0
  5 25  1  0  0  0  0
  5 26  1  0  0  0  0
  6  7  1  0  0  0  0
  6  8  1  0  0  0  0
  6 27  1  0  0  0  0
  7 28  1  0  0  0  0
  7 29  1  0  0  0  0
  7 30  1  0  0  0  0
  8  9  1  0  0  0  0
  8 31  1  0  0  0  0
  9 10  1  0  0  0  0
  9 32  1  0  0  0  0
  9 33  1  0  0  0  0
 10 11  1  0  0  0  0
 10 34  1  0  0  0  0
 10 43  1  0  0  0  0
 11 12  1  0  0  0  0
 11 13  1  0  0  0  0
 11 35  1  0  0  0  0
 12 36  1  0  0  0  0
 12 37  1  0  0  0  0
 12 38  1  0  0  0  0
 13 14  1  0  0  0  0
 13 39  1  0  0  0  0
 13 40  1  0  0  0  0
 14 18  1  0  0  0  0
 14 15  1  0  0  0  0
 15 16  2  0  0  0  0
 15 41  1  0  0  0  0
 16 17  1  0  0  0  0
 17 18  2  0  0  0  0
 17 42  1  0  0  0  0
M  CHG  1  10   1
M  END
> <s_m_source_file>
AV-unprocessed.smi

> <i_m_source_file_index>
3274

> <i_lp_mmshare_version>
43012

> <i_f3d_flags>
0

> <s_epik_input>
W0NIM11DMT1bQ0hdW0NIMl1bQ0gyXVtDQEBIXShbQ0gzXSlbQ0BIXTFbQ0gyXVtOSF1bQ0BIXShbQ0gzXSlbQ0gyXW4yW2NIXW5bY0hdbjI=

> <s_epik_cmdline>
J2VwaWtfcHl0aG9uJywgJy1waCcsICc3LjAnLCAnLXRuJywgJzgnLCAnLW1hJywgJzIwMCcsICctbWV0YWxfYmluZGluZycsICctaW1hZScsICc8aW5maWxlLm1hZT4nLCAnLW9tYWUnLCAnPG91dGZpbGUubWFlPic=

> <r_lp_tautomer_probability>
1

> <r_epik_Ionization_Penalty>
0.0017527

> <r_epik_Ionization_Penalty_Charging>
0.00175191

> <r_epik_Ionization_Penalty_Neutral>
7.94565e-07

> <r_epik_State_Penalty>
0.00118605

> <r_epik_Charging_Adjusted_Penalty>
0.00293796

> <i_epik_Tot_Q>
1

> <i_epik_Tot_abs_Q>
1

> <r_epik_Metal_State_Penalty>
-0

> <b_epik_Metal_Only>
0

> <s_lp_Force_Field>
OPLS_2005

> <r_lp_Energy>
18.1094

> <b_lp_Chiralities_Consistent>
1

> <s_lp_Variant>
AV-unprocessed.smi:3274-3

> <Gold.Version>
5.8.1

> <Gold.Id.Protein>
6NUR|6NUR_protein|mol2

> <Gold.PLP.Fitness>
43.2527

> <Gold.PLP.PLP>
-40.4663

> <Gold.PLP.part.hbond>
-1.0000

> <Gold.PLP.part.metal>
0.0000

> <Gold.PLP.part.buried>
-3.6735

> <Gold.PLP.part.nonpolar>
-35.8819

> <Gold.PLP.part.repulsive>
0.4487

> <Gold.PLP.ligand.clash>
0.0000

> <Gold.PLP.ligand.torsion>
1.6512

> <Gold.PLP.Chemscore.Hbond>
2.0000

> <Gold.PLP.Chemscore.CHOScore>
0.0000

> <Gold.PLP.Chemscore.Metal>
0.0000

> <Gold.Chemscore.Hbonds>
donor molecule, donor type, donor heavy atom, donor atom, acceptor molecule, acceptor atom, score
      L1  H    10    34       P1  8028  2.00

> <Gold.PLP.Chemscore.Internal.Correction>
0.0887

> <Gold.Rescore>
     Score         DG    S(hbond)    S(metal)    S(lipo)     H(rot)  DE(clash)    DE(int)     intcor
     13.02     -14.81       1.00        0.00     102.84       2.36       0.00       1.78       ----

> <Gold.Chemscore.Fitness>
13.0250

> <Gold.Chemscore.DG>
-14.8071

> <Gold.Chemscore.ZeroCoef>
-5.4800

> <Gold.Chemscore.Hbond>
1.0000

> <Gold.Chemscore.Metal>
0.0000

> <Gold.Chemscore.Lipo>
102.8418

> <Gold.Chemscore.Internal_Hbond>
0.0000

> <Gold.Chemscore.DEClash>
0.0004

> <Gold.Chemscore.DEInternal>
1.7817

> <Gold.Chemscore.Rot>
2.3615

> <Gold.Chemscore.Internal.Correction>
   9.000000E+99

> <Gold.Chemscore.Hbonds>
donor molecule, donor type, donor heavy atom, donor atom, acceptor molecule, acceptor atom, score
      L1  H    10    34       P1  8028  1.00

> <Gold.Chemscore.Hbond.Weighted>
-3.3400

> <Gold.Chemscore.Metal.Weighted>
-0.0000

> <Gold.Chemscore.Lipo.Weighted>
-12.0325

> <Gold.Chemscore.Internal_Hbond.Weighted>
0.0000

> <Gold.Chemscore.DEClash.Weighted>
0.0004

> <Gold.Chemscore.DEInternal.Weighted>
1.7817

> <Gold.Chemscore.Rot.Weighted>
6.0454

> <Gold.Chemscore.Internal.Correction.Weighted>
   9.000000E+99

> <Gold.Protein.RotatedTorsions>
[ 6907 6896 6895 6894 ] final -103.62 input  -60.11 | X-H torsion
[ 7974 7965 7964 7962 ] final  133.90 input  175.53 | X-H torsion
[ 8008 7997 7996 7995 ] final   46.20 input   59.86 | X-H torsion
[ 10167 10162 10161 10158 ] final    8.84 input  -65.29 | X-H torsion
[ 10718 10713 10712 10709 ] final  -74.92 input   66.30 | X-H torsion
[ 10763 10752 10751 10750 ] final  -71.90 input  -60.55 | X-H torsion
[ 11005 11000 10999 10996 ] final    8.23 input  -57.11 | X-H torsion

> <Gold.Protein.ActiveResidues>
 VAL166  LYS551  ARG553  GLY616  TRP617  ASP618  TYR619  PRO620  LYS621  CYS622 
 ASP623  PHE694  ASN695  SER759  ASP760  ASP761  ALA762  ILE779  LEU786  VAL792 
 PHE793  MET794  SER795  GLU796  ALA797  LYS798  CYS799  TRP800  GLU811  SER814 

> <Gold.Protein.RotatedAtoms>
  150.7248  134.0402  159.3762 H   0  0  0  0  0  0  0  0  0  0  0  0  # atno 6907 bound_to 6896
  151.8375  135.0599  160.0453 H   0  0  0  0  0  0  0  0  0  0  0  0  # atno 6908 bound_to 6896
  152.2887  133.5504  159.5580 H   0  0  0  0  0  0  0  0  0  0  0  0  # atno 6909 bound_to 6896
  144.9818  139.4496  143.5382 H   0  0  0  0  0  0  0  0  0  0  0  0  # atno 7974 bound_to 7965
  155.3485  140.3412  155.4239 H   0  0  0  0  0  0  0  0  0  0  0  0  # atno 8008 bound_to 7997
  156.1776  140.1653  156.8369 H   0  0  0  0  0  0  0  0  0  0  0  0  # atno 8009 bound_to 7997
  154.5299  140.0747  156.8308 H   0  0  0  0  0  0  0  0  0  0  0  0  # atno 8010 bound_to 7997
  140.6290  143.8036  150.7271 H   0  0  0  0  0  0  0  0  0  0  0  0  # atno 10167 bound_to 10162
  156.0225  130.4428  150.2965 H   0  0  0  0  0  0  0  0  0  0  0  0  # atno 10718 bound_to 10713
  154.4383  135.5947  153.6112 H   0  0  0  0  0  0  0  0  0  0  0  0  # atno 10763 bound_to 10752
  152.9803  135.5992  154.3754 H   0  0  0  0  0  0  0  0  0  0  0  0  # atno 10764 bound_to 10752
  154.3601  135.2841  155.2303 H   0  0  0  0  0  0  0  0  0  0  0  0  # atno 10765 bound_to 10752
  140.5393  134.0390  155.7899 H   0  0  0  0  0  0  0  0  0  0  0  0  # atno 11005 bound_to 11000
  146.3410  139.9096  142.8782 LP  0  0  0  0  0  0  0  0  0  0  0  0  # atno 17320 bound_to 7965
  145.2410  141.0009  143.3936 LP  0  0  0  0  0  0  0  0  0  0  0  0  # atno 17321 bound_to 7965
  140.1643  143.4249  152.2045 LP  0  0  0  0  0  0  0  0  0  0  0  0  # atno 17342 bound_to 10162
  139.5507  144.7335  151.4445 LP  0  0  0  0  0  0  0  0  0  0  0  0  # atno 17343 bound_to 10162
  157.1068  131.0210  151.3064 LP  0  0  0  0  0  0  0  0  0  0  0  0  # atno 17370 bound_to 10713
  157.4736  130.7723  149.7347 LP  0  0  0  0  0  0  0  0  0  0  0  0  # atno 17371 bound_to 10713
  141.1236  133.9420  157.2680 LP  0  0  0  0  0  0  0  0  0  0  0  0  # atno 17394 bound_to 11000
  139.9512  135.0175  156.8999 LP  0  0  0  0  0  0  0  0  0  0  0  0  # atno 17395 bound_to 11000

$$$$
