AV-unprocessed.smi:2849|AV-procd|sdf|10961|dock2
  -GOLD-   2272015413D 1   1.00000     0.00000
 Structure written by MMmdl.
 56 59  0  0  0  0  0  0  0  0  3 V2000
  143.2286  133.8790  151.9718 C   0  0  0  0  0  0  0  0  0  0  0  0
  144.0010  135.1373  151.8369 N   0  3  2  0  0  0  0  0  0  0  0  0
  145.3040  134.9980  151.1434 C   0  0  2  0  0  0  0  0  0  0  0  0
  146.3253  134.2185  152.0091 C   0  0  0  0  0  0  0  0  0  0  0  0
  146.4806  134.7612  153.4410 C   0  0  0  0  0  0  0  0  0  0  0  0
  145.1364  135.1681  154.0706 C   0  0  0  0  0  0  0  0  0  0  0  0
  144.1754  135.8966  153.0980 C   0  0  1  0  0  0  0  0  0  0  0  0
  144.5622  137.3547  152.7595 C   0  0  0  0  0  0  0  0  0  0  0  0
  145.7037  137.5273  151.7187 C   0  0  1  0  0  0  0  0  0  0  0  0
  147.0066  137.7824  152.3317 N   0  0  0  0  0  0  0  0  0  0  0  0
  147.3255  138.8554  153.0716 C   0  0  0  0  0  0  0  0  0  0  0  0
  146.5435  139.7789  153.2937 O   0  0  0  0  0  0  0  0  0  0  0  0
  148.5917  138.7816  153.5184 N   0  0  0  0  0  0  0  0  0  0  0  0
  149.2785  139.6575  154.4048 C   0  0  0  0  0  0  0  0  0  0  0  0
  150.2986  139.1055  155.2100 C   0  0  0  0  0  0  0  0  0  0  0  0
  150.9973  139.9259  156.1196 C   0  0  0  0  0  0  0  0  0  0  0  0
  150.6614  141.2961  156.2165 C   0  0  0  0  0  0  0  0  0  0  0  0
  151.2856  142.1958  157.0918 N   0  0  0  0  0  0  0  0  0  0  0  0
  152.2024  141.5995  158.0492 C   0  0  0  0  0  0  0  0  0  0  0  0
  152.4203  142.6649  159.1275 C   0  0  0  0  0  0  0  0  0  0  0  0
  151.2197  143.6101  158.9975 C   0  0  0  0  0  0  0  0  0  0  0  0
  150.3722  143.0145  157.8706 C   0  0  0  0  0  0  0  0  0  0  0  0
  149.6738  141.7855  155.4364 N   0  3  0  0  0  0  0  0  0  0  0  0
  148.9814  141.0352  154.5522 C   0  0  0  0  0  0  0  0  0  0  0  0
  145.7756  136.3918  150.6650 C   0  0  0  0  0  0  0  0  0  0  0  0
  143.7330  133.1484  152.6037 H   0  0  0  0  0  0  0  0  0  0  0  0
  143.0676  133.4248  150.9938 H   0  0  0  0  0  0  0  0  0  0  0  0
  142.2489  134.0801  152.4062 H   0  0  0  0  0  0  0  0  0  0  0  0
  145.1366  134.4073  150.2412 H   0  0  0  0  0  0  0  0  0  0  0  0
  146.0090  133.1768  152.0700 H   0  0  0  0  0  0  0  0  0  0  0  0
  147.2973  134.1964  151.5155 H   0  0  0  0  0  0  0  0  0  0  0  0
  146.9597  134.0062  154.0652 H   0  0  0  0  0  0  0  0  0  0  0  0
  147.1706  135.5976  153.4555 H   0  0  0  0  0  0  0  0  0  0  0  0
  144.6446  134.2673  154.4388 H   0  0  0  0  0  0  0  0  0  0  0  0
  145.3133  135.7816  154.9547 H   0  0  0  0  0  0  0  0  0  0  0  0
  143.2036  135.9473  153.5914 H   0  0  0  0  0  0  0  0  0  0  0  0
  143.6740  137.8273  152.3375 H   0  0  0  0  0  0  0  0  0  0  0  0
  144.7663  137.9129  153.6739 H   0  0  0  0  0  0  0  0  0  0  0  0
  145.4823  138.4380  151.1579 H   0  0  0  0  0  0  0  0  0  0  0  0
  147.7164  137.0783  152.1918 H   0  0  0  0  0  0  0  0  0  0  0  0
  149.1318  137.9961  153.1860 H   0  0  0  0  0  0  0  0  0  0  0  0
  150.5483  138.0571  155.1348 H   0  0  0  0  0  0  0  0  0  0  0  0
  151.7763  139.5013  156.7356 H   0  0  0  0  0  0  0  0  0  0  0  0
  151.7688  140.7026  158.4930 H   0  0  0  0  0  0  0  0  0  0  0  0
  153.1404  141.3172  157.5699 H   0  0  0  0  0  0  0  0  0  0  0  0
  152.4923  142.2198  160.1204 H   0  0  0  0  0  0  0  0  0  0  0  0
  153.3455  143.2117  158.9410 H   0  0  0  0  0  0  0  0  0  0  0  0
  150.6536  143.6959  159.9256 H   0  0  0  0  0  0  0  0  0  0  0  0
  151.5633  144.6087  158.7246 H   0  0  0  0  0  0  0  0  0  0  0  0
  149.9178  143.7922  157.2559 H   0  0  0  0  0  0  0  0  0  0  0  0
  149.5713  142.4016  158.2862 H   0  0  0  0  0  0  0  0  0  0  0  0
  148.2153  141.5726  154.0153 H   0  0  0  0  0  0  0  0  0  0  0  0
  146.7716  136.3298  150.2246 H   0  0  0  0  0  0  0  0  0  0  0  0
  145.1217  136.6797  149.8401 H   0  0  0  0  0  0  0  0  0  0  0  0
  143.4332  135.7225  151.2406 H   0  0  0  0  0  0  0  0  0  0  0  0
  149.4357  142.7741  155.5206 H   0  0  0  0  0  0  0  0  0  0  0  0
  1  2  1  0  0  0  0
  1 26  1  0  0  0  0
  1 27  1  0  0  0  0
  1 28  1  0  0  0  0
  2  7  1  0  0  0  0
  2  3  1  0  0  0  0
  2 55  1  0  0  0  0
  3 25  1  0  0  0  0
  3  4  1  0  0  0  0
  3 29  1  0  0  0  0
  4  5  1  0  0  0  0
  4 30  1  0  0  0  0
  4 31  1  0  0  0  0
  5  6  1  0  0  0  0
  5 32  1  0  0  0  0
  5 33  1  0  0  0  0
  6  7  1  0  0  0  0
  6 34  1  0  0  0  0
  6 35  1  0  0  0  0
  7  8  1  0  0  0  0
  7 36  1  0  0  0  0
  8  9  1  0  0  0  0
  8 37  1  0  0  0  0
  8 38  1  0  0  0  0
  9 10  1  0  0  0  0
  9 25  1  0  0  0  0
  9 39  1  0  0  0  0
 10 11  1  0  0  0  0
 10 40  1  0  0  0  0
 11 12  2  0  0  0  0
 11 13  1  0  0  0  0
 13 14  1  0  0  0  0
 13 41  1  0  0  0  0
 14 24  1  0  0  0  0
 14 15  2  0  0  0  0
 15 16  1  0  0  0  0
 15 42  1  0  0  0  0
 16 17  2  0  0  0  0
 16 43  1  0  0  0  0
 17 18  1  0  0  0  0
 17 23  1  0  0  0  0
 18 22  1  0  0  0  0
 18 19  1  0  0  0  0
 19 20  1  0  0  0  0
 19 44  1  0  0  0  0
 19 45  1  0  0  0  0
 20 21  1  0  0  0  0
 20 46  1  0  0  0  0
 20 47  1  0  0  0  0
 21 22  1  0  0  0  0
 21 48  1  0  0  0  0
 21 49  1  0  0  0  0
 22 50  1  0  0  0  0
 22 51  1  0  0  0  0
 23 24  2  0  0  0  0
 23 56  1  0  0  0  0
 24 52  1  0  0  0  0
 25 53  1  0  0  0  0
 25 54  1  0  0  0  0
M  CHG  1   2   1
M  CHG  1  23   1
M  END
> <s_m_source_file>
AV-unprocessed.smi

> <i_m_source_file_index>
2849

> <i_lp_mmshare_version>
43012

> <i_f3d_flags>
0

> <s_epik_input>
W0NIMl0xW0NIMl1bQ0gyXVtDQEhdKE4oW0NIM10pW0NIXTEyKVtDSDJdW0NASF0oW0NIMl0yKVtOSF1DKD1PKVtOSF1jM1tjSF1bY0hdYyhuW2NIXTMpTjRbQ0gyXVtDSDJdW0NIMl1bQ0gyXTQ=

> <s_epik_cmdline>
J2VwaWtfcHl0aG9uJywgJy1waCcsICc3LjAnLCAnLXRuJywgJzgnLCAnLW1hJywgJzIwMCcsICctbWV0YWxfYmluZGluZycsICctaW1hZScsICc8aW5maWxlLm1hZT4nLCAnLW9tYWUnLCAnPG91dGZpbGUubWFlPic=

> <r_lp_tautomer_probability>
0.999994

> <r_epik_Ionization_Penalty>
1.2404

> <r_epik_Ionization_Penalty_Charging>
1.24038

> <r_epik_Ionization_Penalty_Neutral>
1.86921e-05

> <r_epik_State_Penalty>
1.30821

> <r_epik_Charging_Adjusted_Penalty>
2.54859

> <i_epik_Tot_Q>
2

> <i_epik_Tot_abs_Q>
2

> <r_epik_Metal_State_Penalty>
1.37823

> <b_epik_Metal_Only>
0

> <s_lp_Force_Field>
OPLS_2005

> <r_lp_Energy>
74.5028

> <b_lp_Chiralities_Consistent>
1

> <s_lp_Variant>
AV-unprocessed.smi:2849-5

> <Gold.Version>
5.8.1

> <Gold.Id.Protein>
6NUR|6NUR_protein|mol2

> <Gold.PLP.Fitness>
48.1784

> <Gold.PLP.PLP>
-38.4450

> <Gold.PLP.part.hbond>
-3.8932

> <Gold.PLP.part.metal>
0.0000

> <Gold.PLP.part.buried>
-0.5144

> <Gold.PLP.part.nonpolar>
-35.8108

> <Gold.PLP.part.repulsive>
1.0439

> <Gold.PLP.ligand.clash>
0.0000

> <Gold.PLP.ligand.torsion>
0.4533

> <Gold.PLP.Chemscore.Hbond>
3.5236

> <Gold.PLP.Chemscore.CHOScore>
0.0000

> <Gold.PLP.Chemscore.Metal>
0.0000

> <Gold.Chemscore.Hbonds>
donor molecule, donor type, donor heavy atom, donor atom, acceptor molecule, acceptor atom, score
      L1  H    10    40       P1  7948  0.98
      L1  H    13    41       P1  7948  0.51
      L1  H    23    56       P1  8028  2.00

> <Gold.PLP.Chemscore.Internal.Correction>
0.0690

> <Gold.Rescore>
     Score         DG    S(hbond)    S(metal)    S(lipo)     H(rot)  DE(clash)    DE(int)     intcor
     19.76     -22.00       2.22        0.00     103.69       1.19       0.73       1.51       ----

> <Gold.Chemscore.Fitness>
19.7625

> <Gold.Chemscore.DG>
-21.9997

> <Gold.Chemscore.ZeroCoef>
-5.4800

> <Gold.Chemscore.Hbond>
2.2244

> <Gold.Chemscore.Metal>
0.0000

> <Gold.Chemscore.Lipo>
103.6853

> <Gold.Chemscore.Internal_Hbond>
0.0000

> <Gold.Chemscore.DEClash>
0.7322

> <Gold.Chemscore.DEInternal>
1.5050

> <Gold.Chemscore.Rot>
1.1879

> <Gold.Chemscore.Internal.Correction>
   9.000000E+99

> <Gold.Chemscore.Hbonds>
donor molecule, donor type, donor heavy atom, donor atom, acceptor molecule, acceptor atom, score
      L1  H    10    40       P1  7948  0.91
      L1  H    13    41       P1  7948  0.50
      L1  H    23    56       P1  8028  0.93

> <Gold.Chemscore.Hbond.Weighted>
-7.4296

> <Gold.Chemscore.Metal.Weighted>
-0.0000

> <Gold.Chemscore.Lipo.Weighted>
-12.1312

> <Gold.Chemscore.Internal_Hbond.Weighted>
0.0000

> <Gold.Chemscore.DEClash.Weighted>
0.7322

> <Gold.Chemscore.DEInternal.Weighted>
1.5050

> <Gold.Chemscore.Rot.Weighted>
3.0410

> <Gold.Chemscore.Internal.Correction.Weighted>
   9.000000E+99

> <Gold.Protein.RotatedTorsions>
[ 6907 6896 6895 6894 ] final   86.73 input  -60.11 | X-H torsion
[ 7974 7965 7964 7962 ] final -131.85 input  175.53 | X-H torsion
[ 8008 7997 7996 7995 ] final  -90.76 input   59.86 | X-H torsion
[ 10167 10162 10161 10158 ] final   91.18 input  -65.29 | X-H torsion
[ 10718 10713 10712 10709 ] final -166.90 input   66.30 | X-H torsion
[ 10763 10752 10751 10750 ] final  -14.68 input  -60.55 | X-H torsion
[ 11005 11000 10999 10996 ] final   71.65 input  -57.11 | X-H torsion

> <Gold.Protein.ActiveResidues>
 VAL166  LYS551  ARG553  GLY616  TRP617  ASP618  TYR619  PRO620  LYS621  CYS622 
 ASP623  PHE694  ASN695  SER759  ASP760  ASP761  ALA762  ILE779  LEU786  VAL792 
 PHE793  MET794  SER795  GLU796  ALA797  LYS798  CYS799  TRP800  GLU811  SER814 

> <Gold.Protein.RotatedAtoms>
  152.5399  134.2386  159.8852 H   0  0  0  0  0  0  0  0  0  0  0  0  # atno 6907 bound_to 6896
  151.2355  133.4421  159.2613 H   0  0  0  0  0  0  0  0  0  0  0  0  # atno 6908 bound_to 6896
  151.0675  134.9791  159.8348 H   0  0  0  0  0  0  0  0  0  0  0  0  # atno 6909 bound_to 6896
  144.9340  140.7162  143.4888 H   0  0  0  0  0  0  0  0  0  0  0  0  # atno 7974 bound_to 7965
  154.7025  140.0527  157.0472 H   0  0  0  0  0  0  0  0  0  0  0  0  # atno 8008 bound_to 7997
  155.0665  140.3195  155.4625 H   0  0  0  0  0  0  0  0  0  0  0  0  # atno 8009 bound_to 7997
  156.2764  140.2089  156.5792 H   0  0  0  0  0  0  0  0  0  0  0  0  # atno 8010 bound_to 7997
  139.8400  144.6646  150.9295 H   0  0  0  0  0  0  0  0  0  0  0  0  # atno 10167 bound_to 10162
  156.6745  130.9097  151.3048 H   0  0  0  0  0  0  0  0  0  0  0  0  # atno 10718 bound_to 10713
  153.5319  135.7014  153.5679 H   0  0  0  0  0  0  0  0  0  0  0  0  # atno 10763 bound_to 10752
  153.3683  135.3951  155.1769 H   0  0  0  0  0  0  0  0  0  0  0  0  # atno 10764 bound_to 10752
  154.8683  135.3805  154.4816 H   0  0  0  0  0  0  0  0  0  0  0  0  # atno 10765 bound_to 10752
  139.9532  134.7190  156.0813 H   0  0  0  0  0  0  0  0  0  0  0  0  # atno 11005 bound_to 11000
  145.3096  139.1823  143.4646 LP  0  0  0  0  0  0  0  0  0  0  0  0  # atno 17320 bound_to 7965
  146.3259  140.3098  142.8626 LP  0  0  0  0  0  0  0  0  0  0  0  0  # atno 17321 bound_to 7965
  140.7799  143.3921  151.1292 LP  0  0  0  0  0  0  0  0  0  0  0  0  # atno 17342 bound_to 10162
  139.7568  143.8695  152.3091 LP  0  0  0  0  0  0  0  0  0  0  0  0  # atno 17343 bound_to 10162
  157.7065  130.9391  150.0949 LP  0  0  0  0  0  0  0  0  0  0  0  0  # atno 17370 bound_to 10713
  156.1913  130.3655  149.8906 LP  0  0  0  0  0  0  0  0  0  0  0  0  # atno 17371 bound_to 10713
  141.1199  133.6616  156.3188 LP  0  0  0  0  0  0  0  0  0  0  0  0  # atno 17394 bound_to 11000
  140.5670  134.5878  157.5448 LP  0  0  0  0  0  0  0  0  0  0  0  0  # atno 17395 bound_to 11000

$$$$
