AV-unprocessed.smi:2091|AV-procd|sdf|8541|dock10
  -GOLD-   2272011263D 1   1.00000     0.00000
 Structure written by MMmdl.
 35 36  0  0  0  0  0  0  0  0  2 V2000
  148.0826  132.0645  153.7204 O   0  0  0  0  0  0  0  0  0  0  0  0
  148.4448  133.2189  153.4883 C   0  0  0  0  0  0  0  0  0  0  0  0
  149.7821  133.7439  154.0273 C   0  0  0  0  0  0  0  0  0  0  0  0
  150.3077  132.9388  155.1417 N   0  0  0  0  0  0  0  0  0  0  0  0
  150.6748  131.6085  154.8721 C   0  0  0  0  0  0  0  0  0  0  0  0
  151.1655  130.7989  155.8297 C   0  0  0  0  0  0  0  0  0  0  0  0
  151.3137  131.3344  157.1774 C   0  0  0  0  0  0  0  0  0  0  0  0
  151.7659  130.6112  158.0629 O   0  0  0  0  0  0  0  0  0  0  0  0
  150.9379  132.6295  157.3904 N   0  5  0  0  0  0  0  0  0  0  0  0
  150.4372  133.4406  156.4070 C   0  0  0  0  0  0  0  0  0  0  0  0
  150.1015  134.6060  156.6215 O   0  0  0  0  0  0  0  0  0  0  0  0
  147.7328  134.0773  152.7410 N   0  0  0  0  0  0  0  0  0  0  0  0
  146.4429  133.7894  152.1100 C   0  0  1  0  0  0  0  0  0  0  0  0
  146.6400  132.5666  151.1848 C   0  0  0  0  0  0  0  0  0  0  0  0
  145.5867  132.4555  150.0686 C   0  0  0  0  0  0  0  0  0  0  0  0
  144.1509  132.2043  150.5536 C   0  0  0  0  0  0  0  0  0  0  0  0
  143.5858  133.3377  151.4266 C   0  0  0  0  0  0  0  0  0  0  0  0
  144.0996  133.2883  152.7893 N   0  0  0  0  0  0  0  0  0  0  0  0
  145.3740  133.4521  153.1762 C   0  0  0  0  0  0  0  0  0  0  0  0
  145.6835  133.3299  154.3615 O   0  0  0  0  0  0  0  0  0  0  0  0
  150.4942  133.7634  153.2013 H   0  0  0  0  0  0  0  0  0  0  0  0
  149.6747  134.7856  154.3366 H   0  0  0  0  0  0  0  0  0  0  0  0
  150.5278  131.2885  153.8511 H   0  0  0  0  0  0  0  0  0  0  0  0
  151.4401  129.7785  155.6067 H   0  0  0  0  0  0  0  0  0  0  0  0
  148.1137  135.0005  152.5944 H   0  0  0  0  0  0  0  0  0  0  0  0
  146.1309  134.6569  151.5256 H   0  0  0  0  0  0  0  0  0  0  0  0
  147.6125  132.6443  150.6964 H   0  0  0  0  0  0  0  0  0  0  0  0
  146.6779  131.6411  151.7621 H   0  0  0  0  0  0  0  0  0  0  0  0
  145.6104  133.3591  149.4582 H   0  0  0  0  0  0  0  0  0  0  0  0
  145.8729  131.6413  149.4022 H   0  0  0  0  0  0  0  0  0  0  0  0
  143.5128  132.0941  149.6762 H   0  0  0  0  0  0  0  0  0  0  0  0
  144.0927  131.2539  151.0859 H   0  0  0  0  0  0  0  0  0  0  0  0
  143.7766  134.3146  150.9802 H   0  0  0  0  0  0  0  0  0  0  0  0
  142.5023  133.2353  151.4889 H   0  0  0  0  0  0  0  0  0  0  0  0
  143.4255  133.0803  153.5118 H   0  0  0  0  0  0  0  0  0  0  0  0
  1  2  2  0  0  0  0
  2  3  1  0  0  0  0
  2 12  1  0  0  0  0
  3  4  1  0  0  0  0
  3 21  1  0  0  0  0
  3 22  1  0  0  0  0
  4 10  1  0  0  0  0
  4  5  1  0  0  0  0
  5  6  2  0  0  0  0
  5 23  1  0  0  0  0
  6  7  1  0  0  0  0
  6 24  1  0  0  0  0
  7  8  2  0  0  0  0
  7  9  1  0  0  0  0
  9 10  1  0  0  0  0
 10 11  2  0  0  0  0
 12 13  1  0  0  0  0
 12 25  1  0  0  0  0
 13 19  1  0  0  0  0
 13 14  1  0  0  0  0
 13 26  1  0  0  0  0
 14 15  1  0  0  0  0
 14 27  1  0  0  0  0
 14 28  1  0  0  0  0
 15 16  1  0  0  0  0
 15 29  1  0  0  0  0
 15 30  1  0  0  0  0
 16 17  1  0  0  0  0
 16 31  1  0  0  0  0
 16 32  1  0  0  0  0
 17 18  1  0  0  0  0
 17 33  1  0  0  0  0
 17 34  1  0  0  0  0
 18 19  1  0  0  0  0
 18 35  1  0  0  0  0
 19 20  2  0  0  0  0
M  CHG  1   9  -1
M  END
> <s_m_source_file>
AV-unprocessed.smi

> <i_m_source_file_index>
2091

> <i_lp_mmshare_version>
43012

> <i_f3d_flags>
0

> <s_epik_input>
Tz1jMVtuSF1jKD1PKVtjSF1bY0hdbjFbQ0gyXUMoPU8pW05IXVtDQEBIXTJbQ0gyXVtDSDJdW0NIMl1bQ0gyXVtOSF1DMj1P

> <s_epik_cmdline>
J2VwaWtfcHl0aG9uJywgJy1waCcsICc3LjAnLCAnLXRuJywgJzgnLCAnLW1hJywgJzIwMCcsICctbWV0YWxfYmluZGluZycsICctaW1hZScsICc8aW5maWxlLm1hZT4nLCAnLW9tYWUnLCAnPG91dGZpbGUubWFlPic=

> <r_lp_tautomer_probability>
0.999537

> <r_epik_Ionization_Penalty>
3.03155

> <r_epik_Ionization_Penalty_Charging>
2.38195e-08

> <r_epik_Ionization_Penalty_Neutral>
3.03155

> <r_epik_State_Penalty>
3.03052

> <r_epik_Charging_Adjusted_Penalty>
3.03052

> <i_epik_Tot_Q>
-1

> <i_epik_Tot_abs_Q>
1

> <r_epik_Metal_State_Penalty>
0.455936

> <b_epik_Metal_Only>
1

> <s_lp_Force_Field>
OPLS_2005

> <r_lp_Energy>
21.0556

> <b_lp_Chiralities_Consistent>
1

> <s_lp_Variant>
AV-unprocessed.smi:2091-4

> <Gold.Version>
5.8.1

> <Gold.Id.Protein>
6NUR|6NUR_protein|mol2

> <Gold.PLP.Fitness>
41.3078

> <Gold.PLP.PLP>
-30.0778

> <Gold.PLP.part.hbond>
-3.0000

> <Gold.PLP.part.metal>
0.0000

> <Gold.PLP.part.buried>
-2.9835

> <Gold.PLP.part.nonpolar>
-22.9526

> <Gold.PLP.part.repulsive>
0.1954

> <Gold.PLP.ligand.clash>
0.0000

> <Gold.PLP.ligand.torsion>
0.2780

> <Gold.PLP.Chemscore.Hbond>
3.9280

> <Gold.PLP.Chemscore.CHOScore>
0.0000

> <Gold.PLP.Chemscore.Metal>
0.0000

> <Gold.Chemscore.Hbonds>
donor molecule, donor type, donor heavy atom, donor atom, acceptor molecule, acceptor atom, score
      L1  H    12    25       P1  7948  1.00
      L1  H    18    35       P1 10957  0.96
      P1  H  6896  6909       L1     9  2.00

> <Gold.PLP.Chemscore.Internal.Correction>
0.0021

> <Gold.Rescore>
     Score         DG    S(hbond)    S(metal)    S(lipo)     H(rot)  DE(clash)    DE(int)     intcor
     10.60     -16.14       2.71        0.00      54.33       1.85       0.15       5.38       ----

> <Gold.Chemscore.Fitness>
10.6047

> <Gold.Chemscore.DG>
-16.1389

> <Gold.Chemscore.ZeroCoef>
-5.4800

> <Gold.Chemscore.Hbond>
2.7075

> <Gold.Chemscore.Metal>
0.0000

> <Gold.Chemscore.Lipo>
54.3302

> <Gold.Chemscore.Internal_Hbond>
0.0000

> <Gold.Chemscore.DEClash>
0.1516

> <Gold.Chemscore.DEInternal>
5.3826

> <Gold.Chemscore.Rot>
1.8519

> <Gold.Chemscore.Internal.Correction>
   9.000000E+99

> <Gold.Chemscore.Hbonds>
donor molecule, donor type, donor heavy atom, donor atom, acceptor molecule, acceptor atom, score
      L1  H    12    25       P1  7948  0.81
      L1  H    18    35       P1 10957  0.84
      P1  H  6896  6909       L1     9  0.88

> <Gold.Chemscore.Hbond.Weighted>
-9.0431

> <Gold.Chemscore.Metal.Weighted>
-0.0000

> <Gold.Chemscore.Lipo.Weighted>
-6.3566

> <Gold.Chemscore.Internal_Hbond.Weighted>
0.0000

> <Gold.Chemscore.DEClash.Weighted>
0.1516

> <Gold.Chemscore.DEInternal.Weighted>
5.3826

> <Gold.Chemscore.Rot.Weighted>
4.7408

> <Gold.Chemscore.Internal.Correction.Weighted>
   9.000000E+99

> <Gold.Protein.RotatedTorsions>
[ 6907 6896 6895 6894 ] final  -36.30 input  -60.11 | X-H torsion
[ 7974 7965 7964 7962 ] final   -2.45 input  175.53 | X-H torsion
[ 8008 7997 7996 7995 ] final   28.90 input   59.86 | X-H torsion
[ 10167 10162 10161 10158 ] final  110.25 input  -65.29 | X-H torsion
[ 10718 10713 10712 10709 ] final -153.50 input   66.30 | X-H torsion
[ 10763 10752 10751 10750 ] final  -61.27 input  -60.55 | X-H torsion
[ 11005 11000 10999 10996 ] final  -98.94 input  -57.11 | X-H torsion

> <Gold.Protein.ActiveResidues>
 VAL166  LYS551  ARG553  GLY616  TRP617  ASP618  TYR619  PRO620  LYS621  CYS622 
 ASP623  PHE694  ASN695  SER759  ASP760  ASP761  ALA762  ILE779  LEU786  VAL792 
 PHE793  MET794  SER795  GLU796  ALA797  LYS798  CYS799  TRP800  GLU811  SER814 

> <Gold.Protein.RotatedAtoms>
  151.0289  134.9524  159.8099 H   0  0  0  0  0  0  0  0  0  0  0  0  # atno 6907 bound_to 6896
  152.5341  134.2806  159.9016 H   0  0  0  0  0  0  0  0  0  0  0  0  # atno 6908 bound_to 6896
  151.2815  133.4165  159.2661 H   0  0  0  0  0  0  0  0  0  0  0  0  # atno 6909 bound_to 6896
  146.2404  140.1573  142.8333 H   0  0  0  0  0  0  0  0  0  0  0  0  # atno 7974 bound_to 7965
  155.0660  140.3195  155.4645 H   0  0  0  0  0  0  0  0  0  0  0  0  # atno 8008 bound_to 7997
  156.2802  140.2120  156.5732 H   0  0  0  0  0  0  0  0  0  0  0  0  # atno 8009 bound_to 7997
  154.7093  140.0499  157.0522 H   0  0  0  0  0  0  0  0  0  0  0  0  # atno 8010 bound_to 7997
  139.6703  144.7125  151.1700 H   0  0  0  0  0  0  0  0  0  0  0  0  # atno 10167 bound_to 10162
  156.4867  130.8328  151.2553 H   0  0  0  0  0  0  0  0  0  0  0  0  # atno 10718 bound_to 10713
  154.2820  135.6270  153.5350 H   0  0  0  0  0  0  0  0  0  0  0  0  # atno 10763 bound_to 10752
  152.9864  135.5635  154.5485 H   0  0  0  0  0  0  0  0  0  0  0  0  # atno 10764 bound_to 10752
  154.5078  135.2875  155.1344 H   0  0  0  0  0  0  0  0  0  0  0  0  # atno 10765 bound_to 10752
  141.1327  133.8283  157.0906 H   0  0  0  0  0  0  0  0  0  0  0  0  # atno 11005 bound_to 11000
  145.0118  140.8721  143.5219 LP  0  0  0  0  0  0  0  0  0  0  0  0  # atno 17320 bound_to 7965
  145.1608  139.2460  143.5393 LP  0  0  0  0  0  0  0  0  0  0  0  0  # atno 17321 bound_to 7965
  140.7615  143.5855  150.8851 LP  0  0  0  0  0  0  0  0  0  0  0  0  # atno 17342 bound_to 10162
  139.9519  143.6262  152.3026 LP  0  0  0  0  0  0  0  0  0  0  0  0  # atno 17343 bound_to 10162
  157.7478  131.0027  150.3011 LP  0  0  0  0  0  0  0  0  0  0  0  0  # atno 17370 bound_to 10713
  156.3468  130.3824  149.7363 LP  0  0  0  0  0  0  0  0  0  0  0  0  # atno 17371 bound_to 10713
  140.0395  134.9861  157.0934 LP  0  0  0  0  0  0  0  0  0  0  0  0  # atno 17394 bound_to 11000
  140.4158  134.1933  155.7163 LP  0  0  0  0  0  0  0  0  0  0  0  0  # atno 17395 bound_to 11000

$$$$
