AV-unprocessed.smi:1177|AV-procd|sdf|4955|dock8
  -GOLD-   22720 3543D 1   1.00000     0.00000
 Structure written by MMmdl.
 31 32  0  0  0  0  0  0  0  0  2 V2000
  146.5511  140.9212  155.8506 O   0  0  0  0  0  0  0  0  0  0  0  0
  147.2339  141.9418  155.7567 C   0  0  0  0  0  0  0  0  0  0  0  0
  148.4077  142.1149  156.3806 N   0  0  0  0  0  0  0  0  0  0  0  0
  149.0388  141.1307  157.2519 C   0  0  0  0  0  0  0  0  0  0  0  0
  150.5728  141.1943  157.1599 C   0  0  0  0  0  0  0  0  0  0  0  0
  151.1555  142.2810  158.0415 C   0  0  0  0  0  0  0  0  0  0  0  0
  152.0718  141.9990  159.0780 C   0  0  0  0  0  0  0  0  0  0  0  0
  152.5716  143.0595  159.8625 C   0  0  0  0  0  0  0  0  0  0  0  0
  152.1434  144.3767  159.5961 C   0  0  0  0  0  0  0  0  0  0  0  0
  151.2251  144.6009  158.5501 C   0  0  0  0  0  0  0  0  0  0  0  0
  150.7704  143.5588  157.8200 N   0  3  0  0  0  0  0  0  0  0  0  0
  146.8954  143.0131  155.0272 N   0  0  0  0  0  0  0  0  0  0  0  0
  145.7037  143.1421  154.2525 C   0  0  0  0  0  0  0  0  0  0  0  0
  145.5452  144.3894  153.4102 C   0  0  0  0  0  0  0  0  0  0  0  0
  144.7172  144.2174  154.6536 C   0  0  0  0  0  0  0  0  0  0  0  0
  148.8987  142.9864  156.2424 H   0  0  0  0  0  0  0  0  0  0  0  0
  148.7075  141.2819  158.2808 H   0  0  0  0  0  0  0  0  0  0  0  0
  148.6895  140.1413  156.9556 H   0  0  0  0  0  0  0  0  0  0  0  0
  151.0034  140.2330  157.4438 H   0  0  0  0  0  0  0  0  0  0  0  0
  150.8856  141.3778  156.1309 H   0  0  0  0  0  0  0  0  0  0  0  0
  152.3885  140.9844  159.2719 H   0  0  0  0  0  0  0  0  0  0  0  0
  153.2738  142.8647  160.6598 H   0  0  0  0  0  0  0  0  0  0  0  0
  152.5138  145.2026  160.1858 H   0  0  0  0  0  0  0  0  0  0  0  0
  150.8435  145.5740  158.2774 H   0  0  0  0  0  0  0  0  0  0  0  0
  147.5281  143.7997  155.0174 H   0  0  0  0  0  0  0  0  0  0  0  0
  145.2747  142.2302  153.8390 H   0  0  0  0  0  0  0  0  0  0  0  0
  146.3438  145.1285  153.4375 H   0  0  0  0  0  0  0  0  0  0  0  0
  145.0398  144.2861  152.4522 H   0  0  0  0  0  0  0  0  0  0  0  0
  143.6588  143.9990  154.5263 H   0  0  0  0  0  0  0  0  0  0  0  0
  144.9634  144.8421  155.5102 H   0  0  0  0  0  0  0  0  0  0  0  0
  150.1060  143.7437  157.0676 H   0  0  0  0  0  0  0  0  0  0  0  0
  1  2  2  0  0  0  0
  2  3  1  0  0  0  0
  2 12  1  0  0  0  0
  3  4  1  0  0  0  0
  3 16  1  0  0  0  0
  4  5  1  0  0  0  0
  4 17  1  0  0  0  0
  4 18  1  0  0  0  0
  5  6  1  0  0  0  0
  5 19  1  0  0  0  0
  5 20  1  0  0  0  0
  6 11  1  0  0  0  0
  6  7  2  0  0  0  0
  7  8  1  0  0  0  0
  7 21  1  0  0  0  0
  8  9  2  0  0  0  0
  8 22  1  0  0  0  0
  9 10  1  0  0  0  0
  9 23  1  0  0  0  0
 10 11  2  0  0  0  0
 10 24  1  0  0  0  0
 11 31  1  0  0  0  0
 12 13  1  0  0  0  0
 12 25  1  0  0  0  0
 13 15  1  0  0  0  0
 13 14  1  0  0  0  0
 13 26  1  0  0  0  0
 14 15  1  0  0  0  0
 14 27  1  0  0  0  0
 14 28  1  0  0  0  0
 15 29  1  0  0  0  0
 15 30  1  0  0  0  0
M  CHG  1  11   1
M  END
> <s_m_source_file>
AV-unprocessed.smi

> <i_m_source_file_index>
1177

> <i_lp_mmshare_version>
43012

> <i_f3d_flags>
0

> <s_epik_input>
W0NIMl0xW0NIMl1bQ0hdMVtOSF1DKD1PKVtOSF1bQ0gyXVtDSDJdYzJbY0hdW2NIXVtjSF1bY0hdbjI=

> <s_epik_cmdline>
J2VwaWtfcHl0aG9uJywgJy1waCcsICc3LjAnLCAnLXRuJywgJzgnLCAnLW1hJywgJzIwMCcsICctbWV0YWxfYmluZGluZycsICctaW1hZScsICc8aW5maWxlLm1hZT4nLCAnLW9tYWUnLCAnPG91dGZpbGUubWFlPic=

> <r_epik_Ionization_Penalty>
1.56288

> <r_epik_Ionization_Penalty_Charging>
1.56282

> <r_epik_Ionization_Penalty_Neutral>
5.89877e-05

> <r_epik_State_Penalty>
1.65797

> <r_epik_Charging_Adjusted_Penalty>
3.22079

> <i_epik_Tot_Q>
1

> <i_epik_Tot_abs_Q>
1

> <r_epik_Metal_State_Penalty>
1.69932

> <b_epik_Metal_Only>
0

> <s_lp_Force_Field>
OPLS_2005

> <r_lp_Energy>
17.5296

> <b_lp_Chiralities_Consistent>
1

> <s_lp_Variant>
AV-unprocessed.smi:1177-2

> <Gold.Version>
5.8.1

> <Gold.Id.Protein>
6NUR|6NUR_protein|mol2

> <Gold.PLP.Fitness>
44.2058

> <Gold.PLP.PLP>
-33.2963

> <Gold.PLP.part.hbond>
-3.0000

> <Gold.PLP.part.metal>
0.0000

> <Gold.PLP.part.buried>
-4.4066

> <Gold.PLP.part.nonpolar>
-26.8200

> <Gold.PLP.part.repulsive>
0.1878

> <Gold.PLP.ligand.clash>
0.0000

> <Gold.PLP.ligand.torsion>
0.3175

> <Gold.PLP.Chemscore.Hbond>
3.8352

> <Gold.PLP.Chemscore.CHOScore>
0.0000

> <Gold.PLP.Chemscore.Metal>
0.0000

> <Gold.Chemscore.Hbonds>
donor molecule, donor type, donor heavy atom, donor atom, acceptor molecule, acceptor atom, score
      L1  H     3    16       P1  8028  0.98
      L1  H    11    31       P1  8028  1.72
      L1  H    12    25       P1  8028  0.55

> <Gold.PLP.Chemscore.Internal.Correction>
0.0389

> <Gold.Rescore>
     Score         DG    S(hbond)    S(metal)    S(lipo)     H(rot)  DE(clash)    DE(int)     intcor
     17.78     -18.25       2.12        0.00      85.77       1.70       0.12       0.35       ----

> <Gold.Chemscore.Fitness>
17.7760

> <Gold.Chemscore.DG>
-18.2466

> <Gold.Chemscore.ZeroCoef>
-5.4800

> <Gold.Chemscore.Hbond>
2.1224

> <Gold.Chemscore.Metal>
0.0000

> <Gold.Chemscore.Lipo>
85.7651

> <Gold.Chemscore.Internal_Hbond>
0.0000

> <Gold.Chemscore.DEClash>
0.1247

> <Gold.Chemscore.DEInternal>
0.3459

> <Gold.Chemscore.Rot>
1.7019

> <Gold.Chemscore.Internal.Correction>
   9.000000E+99

> <Gold.Chemscore.Hbonds>
donor molecule, donor type, donor heavy atom, donor atom, acceptor molecule, acceptor atom, score
      L1  H     3    16       P1  8028  0.93
      L1  H    11    31       P1  8028  0.82
      L1  H    12    25       P1  8028  0.03

> <Gold.Chemscore.Hbond.Weighted>
-7.0889

> <Gold.Chemscore.Metal.Weighted>
-0.0000

> <Gold.Chemscore.Lipo.Weighted>
-10.0345

> <Gold.Chemscore.Internal_Hbond.Weighted>
0.0000

> <Gold.Chemscore.DEClash.Weighted>
0.1247

> <Gold.Chemscore.DEInternal.Weighted>
0.3459

> <Gold.Chemscore.Rot.Weighted>
4.3568

> <Gold.Chemscore.Internal.Correction.Weighted>
   9.000000E+99

> <Gold.Protein.RotatedTorsions>
[ 6907 6896 6895 6894 ] final  -84.68 input  -60.11 | X-H torsion
[ 7974 7965 7964 7962 ] final   85.43 input  175.53 | X-H torsion
[ 8008 7997 7996 7995 ] final  -43.73 input   59.86 | X-H torsion
[ 10167 10162 10161 10158 ] final -121.42 input  -65.29 | X-H torsion
[ 10718 10713 10712 10709 ] final   -6.96 input   66.30 | X-H torsion
[ 10763 10752 10751 10750 ] final   91.07 input  -60.55 | X-H torsion
[ 11005 11000 10999 10996 ] final  -76.31 input  -57.11 | X-H torsion

> <Gold.Protein.ActiveResidues>
 VAL166  LYS551  ARG553  GLY616  TRP617  ASP618  TYR619  PRO620  LYS621  CYS622 
 ASP623  PHE694  ASN695  SER759  ASP760  ASP761  ALA762  ILE779  LEU786  VAL792 
 PHE793  MET794  SER795  GLU796  ALA797  LYS798  CYS799  TRP800  GLU811  SER814 

> <Gold.Protein.RotatedAtoms>
  150.6875  134.3321  159.4831 H   0  0  0  0  0  0  0  0  0  0  0  0  # atno 6907 bound_to 6896
  152.1184  134.9221  160.0573 H   0  0  0  0  0  0  0  0  0  0  0  0  # atno 6908 bound_to 6896
  152.0436  133.3953  159.4384 H   0  0  0  0  0  0  0  0  0  0  0  0  # atno 6909 bound_to 6896
  145.5857  139.2331  143.2328 H   0  0  0  0  0  0  0  0  0  0  0  0  # atno 7974 bound_to 7965
  154.3997  140.1440  156.3566 H   0  0  0  0  0  0  0  0  0  0  0  0  # atno 8008 bound_to 7997
  155.8219  140.3469  155.5499 H   0  0  0  0  0  0  0  0  0  0  0  0  # atno 8009 bound_to 7997
  155.8278  140.0907  157.1801 H   0  0  0  0  0  0  0  0  0  0  0  0  # atno 8010 bound_to 7997
  140.0252  143.5303  152.2202 H   0  0  0  0  0  0  0  0  0  0  0  0  # atno 10167 bound_to 10162
  156.7242  130.5160  149.5861 H   0  0  0  0  0  0  0  0  0  0  0  0  # atno 10718 bound_to 10713
  153.2043  135.4411  155.0303 H   0  0  0  0  0  0  0  0  0  0  0  0  # atno 10763 bound_to 10752
  154.8164  135.3317  154.7165 H   0  0  0  0  0  0  0  0  0  0  0  0  # atno 10764 bound_to 10752
  153.7608  135.6991  153.4981 H   0  0  0  0  0  0  0  0  0  0  0  0  # atno 10765 bound_to 10752
  141.1653  133.6979  156.7650 H   0  0  0  0  0  0  0  0  0  0  0  0  # atno 11005 bound_to 11000
  146.1684  140.6683  142.9245 LP  0  0  0  0  0  0  0  0  0  0  0  0  # atno 17320 bound_to 7965
  144.7374  140.4846  143.6894 LP  0  0  0  0  0  0  0  0  0  0  0  0  # atno 17321 bound_to 7965
  139.6113  144.7609  151.2946 LP  0  0  0  0  0  0  0  0  0  0  0  0  # atno 17342 bound_to 10162
  140.7325  143.6820  150.7993 LP  0  0  0  0  0  0  0  0  0  0  0  0  # atno 17343 bound_to 10162
  156.1573  130.6350  151.0673 LP  0  0  0  0  0  0  0  0  0  0  0  0  # atno 17370 bound_to 10713
  157.6885  131.0817  150.7174 LP  0  0  0  0  0  0  0  0  0  0  0  0  # atno 17371 bound_to 10713
  140.2506  134.8543  157.3663 LP  0  0  0  0  0  0  0  0  0  0  0  0  # atno 17394 bound_to 11000
  140.1706  134.4613  155.7834 LP  0  0  0  0  0  0  0  0  0  0  0  0  # atno 17395 bound_to 11000

$$$$
