AV-unprocessed.smi:3042|AV-procd|sdf|11602|dock4
  -GOLD-   2272016583D 1   1.00000     0.00000
 Structure written by MMmdl.
 32 33  0  0  0  0  0  0  0  0  1 V2000
  148.2018  142.0832  155.1499 N   0  0  0  0  0  0  0  0  0  0  0  0
  148.7064  141.5127  156.4099 C   0  0  0  0  0  0  0  0  0  0  0  0
  150.2025  141.1135  156.3438 C   0  0  1  0  0  0  0  0  0  0  0  0
  150.9495  141.8030  157.4849 C   0  0  0  0  0  0  0  0  0  0  0  0
  151.4725  141.0536  158.5599 C   0  0  0  0  0  0  0  0  0  0  0  0
  152.1569  141.7265  159.5903 C   0  0  0  0  0  0  0  0  0  0  0  0
  152.2925  143.1262  159.5022 C   0  0  0  0  0  0  0  0  0  0  0  0
  151.7985  143.8561  158.4794 N   0  0  0  0  0  0  0  0  0  0  0  0
  151.1437  143.2026  157.4953 C   0  0  0  0  0  0  0  0  0  0  0  0
  150.4441  139.6555  156.3431 N   0  0  0  0  0  0  0  0  0  0  0  0
  151.8579  139.3348  156.1151 C   0  0  0  0  0  0  0  0  0  0  0  0
  152.1259  137.8202  156.1065 C   0  0  0  0  0  0  0  0  0  0  0  0
  151.3172  137.2000  155.1152 O   0  0  0  0  0  0  0  0  0  0  0  0
  149.9309  137.4311  155.3293 C   0  0  0  0  0  0  0  0  0  0  0  0
  149.6508  138.9441  155.3370 C   0  0  0  0  0  0  0  0  0  0  0  0
  147.2720  141.7219  154.9425 H   0  0  0  0  0  0  0  0  0  0  0  0
  148.1188  143.0959  155.2258 H   0  0  0  0  0  0  0  0  0  0  0  0
  148.5514  142.2253  157.2205 H   0  0  0  0  0  0  0  0  0  0  0  0
  148.0935  140.6449  156.6475 H   0  0  0  0  0  0  0  0  0  0  0  0
  150.5982  141.5173  155.4102 H   0  0  0  0  0  0  0  0  0  0  0  0
  151.3520  139.9808  158.5972 H   0  0  0  0  0  0  0  0  0  0  0  0
  152.5688  141.1829  160.4276 H   0  0  0  0  0  0  0  0  0  0  0  0
  152.8126  143.6739  160.2742 H   0  0  0  0  0  0  0  0  0  0  0  0
  150.7616  143.8161  156.6927 H   0  0  0  0  0  0  0  0  0  0  0  0
  152.1838  139.7621  155.1655 H   0  0  0  0  0  0  0  0  0  0  0  0
  152.4834  139.7825  156.8871 H   0  0  0  0  0  0  0  0  0  0  0  0
  153.1744  137.6225  155.8836 H   0  0  0  0  0  0  0  0  0  0  0  0
  151.9179  137.3840  157.0848 H   0  0  0  0  0  0  0  0  0  0  0  0
  149.3628  136.9450  154.5361 H   0  0  0  0  0  0  0  0  0  0  0  0
  149.6195  136.9762  156.2710 H   0  0  0  0  0  0  0  0  0  0  0  0
  148.5865  139.0744  155.5244 H   0  0  0  0  0  0  0  0  0  0  0  0
  149.8527  139.3555  154.3470 H   0  0  0  0  0  0  0  0  0  0  0  0
  1  2  1  0  0  0  0
  1 16  1  0  0  0  0
  1 17  1  0  0  0  0
  2  3  1  0  0  0  0
  2 18  1  0  0  0  0
  2 19  1  0  0  0  0
  3  4  1  0  0  0  0
  3 10  1  0  0  0  0
  3 20  1  0  0  0  0
  4  9  1  0  0  0  0
  4  5  2  0  0  0  0
  5  6  1  0  0  0  0
  5 21  1  0  0  0  0
  6  7  2  0  0  0  0
  6 22  1  0  0  0  0
  7  8  1  0  0  0  0
  7 23  1  0  0  0  0
  8  9  2  0  0  0  0
  9 24  1  0  0  0  0
 10 15  1  0  0  0  0
 10 11  1  0  0  0  0
 11 12  1  0  0  0  0
 11 25  1  0  0  0  0
 11 26  1  0  0  0  0
 12 13  1  0  0  0  0
 12 27  1  0  0  0  0
 12 28  1  0  0  0  0
 13 14  1  0  0  0  0
 14 15  1  0  0  0  0
 14 29  1  0  0  0  0
 14 30  1  0  0  0  0
 15 31  1  0  0  0  0
 15 32  1  0  0  0  0
M  END
> <s_m_source_file>
AV-unprocessed.smi

> <i_m_source_file_index>
3042

> <i_lp_mmshare_version>
43012

> <i_f3d_flags>
0

> <s_epik_input>
W0NIMl0xW0NIMl1PW0NIMl1bQ0gyXU4xW0NASF0oW0NIMl1bTkgyXSljMltjSF1bY0hdW2NIXW5bY0hdMg==

> <s_epik_cmdline>
J2VwaWtfcHl0aG9uJywgJy1waCcsICc3LjAnLCAnLXRuJywgJzgnLCAnLW1hJywgJzIwMCcsICctbWV0YWxfYmluZGluZycsICctaW1hZScsICc8aW5maWxlLm1hZT4nLCAnLW9tYWUnLCAnPG91dGZpbGUubWFlPic=

> <r_epik_Ionization_Penalty>
2.62143

> <r_epik_Ionization_Penalty_Charging>
0

> <r_epik_Ionization_Penalty_Neutral>
2.62143

> <r_epik_State_Penalty>
2.72742

> <r_epik_Charging_Adjusted_Penalty>
2.72742

> <i_epik_Tot_Q>
0

> <i_epik_Tot_abs_Q>
0

> <r_epik_Metal_State_Penalty>
2.72081

> <b_epik_Metal_Only>
0

> <s_lp_Force_Field>
OPLS_2005

> <r_lp_Energy>
27.4396

> <b_lp_Chiralities_Consistent>
1

> <s_lp_Variant>
AV-unprocessed.smi:3042-4

> <Gold.Version>
5.8.1

> <Gold.Id.Protein>
6NUR|6NUR_protein|mol2

> <Gold.PLP.Fitness>
38.0690

> <Gold.PLP.PLP>
-31.4964

> <Gold.PLP.part.hbond>
-3.0000

> <Gold.PLP.part.metal>
0.0000

> <Gold.PLP.part.buried>
-2.4956

> <Gold.PLP.part.nonpolar>
-26.1722

> <Gold.PLP.part.repulsive>
0.2082

> <Gold.PLP.ligand.clash>
0.0000

> <Gold.PLP.ligand.torsion>
1.0329

> <Gold.PLP.Chemscore.Hbond>
1.8527

> <Gold.PLP.Chemscore.CHOScore>
1.0000

> <Gold.PLP.Chemscore.Metal>
0.0000

> <Gold.Chemscore.Hbonds>
donor molecule, donor type, donor heavy atom, donor atom, acceptor molecule, acceptor atom, score
      L1  H     1    17       P1  8028  1.00
      P1  H 10752 10765       L1    13  0.06
      L1  C     9    24       P1  8028  1.00

> <Gold.PLP.Chemscore.Internal.Correction>
0.0803

> <Gold.Rescore>
     Score         DG    S(hbond)    S(metal)    S(lipo)     H(rot)  DE(clash)    DE(int)     intcor
     14.43     -16.37       1.29        0.00      87.65       1.44       0.80       1.14       ----

> <Gold.Chemscore.Fitness>
14.4272

> <Gold.Chemscore.DG>
-16.3723

> <Gold.Chemscore.ZeroCoef>
-5.4800

> <Gold.Chemscore.Hbond>
1.2913

> <Gold.Chemscore.Metal>
0.0000

> <Gold.Chemscore.Lipo>
87.6510

> <Gold.Chemscore.Internal_Hbond>
0.0000

> <Gold.Chemscore.DEClash>
0.8047

> <Gold.Chemscore.DEInternal>
1.1404

> <Gold.Chemscore.Rot>
1.4359

> <Gold.Chemscore.Internal.Correction>
   9.000000E+99

> <Gold.Chemscore.Hbonds>
donor molecule, donor type, donor heavy atom, donor atom, acceptor molecule, acceptor atom, score
      L1  H     1    17       P1  8028  0.88
      P1  H 10752 10765       L1    13  0.02

> <Gold.Chemscore.Hbond.Weighted>
-4.3130

> <Gold.Chemscore.Metal.Weighted>
-0.0000

> <Gold.Chemscore.Lipo.Weighted>
-10.2552

> <Gold.Chemscore.Internal_Hbond.Weighted>
0.0000

> <Gold.Chemscore.DEClash.Weighted>
0.8047

> <Gold.Chemscore.DEInternal.Weighted>
1.1404

> <Gold.Chemscore.Rot.Weighted>
3.6759

> <Gold.Chemscore.Internal.Correction.Weighted>
   9.000000E+99

> <Gold.Protein.RotatedTorsions>
[ 6907 6896 6895 6894 ] final -155.25 input  -60.11 | X-H torsion
[ 7974 7965 7964 7962 ] final  132.65 input  175.53 | X-H torsion
[ 8008 7997 7996 7995 ] final  -28.89 input   59.86 | X-H torsion
[ 10167 10162 10161 10158 ] final -118.50 input  -65.29 | X-H torsion
[ 10718 10713 10712 10709 ] final  -95.72 input   66.30 | X-H torsion
[ 10763 10752 10751 10750 ] final  157.24 input  -60.55 | X-H torsion
[ 11005 11000 10999 10996 ] final  135.68 input  -57.11 | X-H torsion

> <Gold.Protein.ActiveResidues>
 VAL166  LYS551  ARG553  GLY616  TRP617  ASP618  TYR619  PRO620  LYS621  CYS622 
 ASP623  PHE694  ASN695  SER759  ASP760  ASP761  ALA762  ILE779  LEU786  VAL792 
 PHE793  MET794  SER795  GLU796  ALA797  LYS798  CYS799  TRP800  GLU811  SER814 

> <Gold.Protein.RotatedAtoms>
  151.2696  133.4261  159.2620 H   0  0  0  0  0  0  0  0  0  0  0  0  # atno 6907 bound_to 6896
  151.0457  134.9638  159.8195 H   0  0  0  0  0  0  0  0  0  0  0  0  # atno 6908 bound_to 6896
  152.5373  134.2653  159.9003 H   0  0  0  0  0  0  0  0  0  0  0  0  # atno 6909 bound_to 6896
  144.9947  139.4372  143.5322 H   0  0  0  0  0  0  0  0  0  0  0  0  # atno 7974 bound_to 7965
  154.4313  140.1833  156.1161 H   0  0  0  0  0  0  0  0  0  0  0  0  # atno 8008 bound_to 7997
  156.0179  140.3344  155.6983 H   0  0  0  0  0  0  0  0  0  0  0  0  # atno 8009 bound_to 7997
  155.6017  140.0641  157.2722 H   0  0  0  0  0  0  0  0  0  0  0  0  # atno 8010 bound_to 7997
  140.0568  143.5007  152.2053 H   0  0  0  0  0  0  0  0  0  0  0  0  # atno 10167 bound_to 10162
  156.0048  130.5121  150.6119 H   0  0  0  0  0  0  0  0  0  0  0  0  # atno 10718 bound_to 10713
  154.1971  135.2792  155.3003 H   0  0  0  0  0  0  0  0  0  0  0  0  # atno 10763 bound_to 10752
  154.5883  135.5568  153.7257 H   0  0  0  0  0  0  0  0  0  0  0  0  # atno 10764 bound_to 10752
  153.0097  135.6362  154.2110 H   0  0  0  0  0  0  0  0  0  0  0  0  # atno 10765 bound_to 10752
  139.9995  134.9484  157.0041 H   0  0  0  0  0  0  0  0  0  0  0  0  # atno 11005 bound_to 11000
  146.3439  139.9299  142.8755 LP  0  0  0  0  0  0  0  0  0  0  0  0  # atno 17320 bound_to 7965
  145.2237  140.9945  143.4031 LP  0  0  0  0  0  0  0  0  0  0  0  0  # atno 17321 bound_to 7965
  139.5919  144.7553  151.3381 LP  0  0  0  0  0  0  0  0  0  0  0  0  # atno 17342 bound_to 10162
  140.7191  143.7186  150.7714 LP  0  0  0  0  0  0  0  0  0  0  0  0  # atno 17343 bound_to 10162
  157.3950  131.0801  151.1360 LP  0  0  0  0  0  0  0  0  0  0  0  0  # atno 17370 bound_to 10713
  157.2040  130.6407  149.5749 LP  0  0  0  0  0  0  0  0  0  0  0  0  # atno 17371 bound_to 10713
  140.4754  134.1344  155.7209 LP  0  0  0  0  0  0  0  0  0  0  0  0  # atno 17394 bound_to 11000
  141.1631  133.8755  157.1792 LP  0  0  0  0  0  0  0  0  0  0  0  0  # atno 17395 bound_to 11000

$$$$
