AV-unprocessed.smi:170|AV-procd|sdf|1406|dock7
  -GOLD-   2262019163D 1   1.00000     0.00000
 Structure written by MMmdl.
 57 61  0  0  0  0  0  0  0  0  1 V2000
  152.1135  141.1098  158.1239 O   0  0  0  0  0  0  0  0  0  0  0  0
  150.9193  141.7900  157.7858 C   0  0  2  0  0  0  0  0  0  0  0  0
  150.8461  141.9590  156.2554 C   0  0  0  0  0  0  0  0  0  0  0  0
  150.1596  140.8578  155.6030 N   0  0  0  0  0  0  0  0  0  0  0  0
  150.5414  139.5357  155.5948 C   0  0  0  0  0  0  0  0  0  0  0  0
  149.7554  138.7351  154.9279 N   0  0  0  0  0  0  0  0  0  0  0  0
  148.7580  139.5692  154.4361 C   0  0  0  0  0  0  0  0  0  0  0  0
  147.5988  139.3737  153.6313 C   0  0  0  0  0  0  0  0  0  0  0  0
  147.2021  138.1895  153.1118 N   0  0  0  0  0  0  0  0  0  0  0  0
  146.4012  138.3925  151.9106 C   0  0  0  0  0  0  0  0  0  0  0  0
  146.1283  137.0485  151.2220 C   0  0  0  0  0  0  0  0  0  0  0  0
  145.4933  136.1755  152.1465 O   0  0  0  0  0  0  0  0  0  0  0  0
  146.3174  135.9046  153.2750 C   0  0  0  0  0  0  0  0  0  0  0  0
  146.6293  137.2099  154.0442 C   0  0  1  0  0  0  0  0  0  0  0  0
  147.5532  136.9460  155.2627 C   0  0  0  0  0  0  0  0  0  0  0  0
  148.8099  136.1322  154.9447 C   0  0  0  0  0  0  0  0  0  0  0  0
  148.6863  134.6143  154.7248 C   0  0  0  0  0  0  0  0  0  0  0  0
  149.1470  134.4096  156.1690 C   0  0  0  0  0  0  0  0  0  0  0  0
  149.7734  135.8037  156.0963 C   0  0  0  0  0  0  0  0  0  0  0  0
  146.8253  140.4530  153.3581 N   0  0  0  0  0  0  0  0  0  0  0  0
  147.1692  141.6572  153.8247 C   0  0  0  0  0  0  0  0  0  0  0  0
  148.2236  141.9947  154.5707 N   0  0  0  0  0  0  0  0  0  0  0  0
  148.9959  140.9077  154.8573 C   0  0  0  0  0  0  0  0  0  0  0  0
  150.8450  143.1452  158.5195 C   0  0  2  0  0  0  0  0  0  0  0  0
  151.7834  144.2569  158.0381 C   0  0  0  0  0  0  0  0  0  0  0  0
  151.8623  145.1269  159.2723 C   0  0  0  0  0  0  0  0  0  0  0  0
  151.8763  144.0850  160.3884 C   0  0  0  0  0  0  0  0  0  0  0  0
  151.0954  142.9905  159.9139 O   0  0  0  0  0  0  0  0  0  0  0  0
  152.6631  141.0757  157.3556 H   0  0  0  0  0  0  0  0  0  0  0  0
  150.0792  141.1738  158.1087 H   0  0  0  0  0  0  0  0  0  0  0  0
  150.3221  142.8813  156.0018 H   0  0  0  0  0  0  0  0  0  0  0  0
  151.8477  142.0439  155.8319 H   0  0  0  0  0  0  0  0  0  0  0  0
  151.4258  139.1809  156.1039 H   0  0  0  0  0  0  0  0  0  0  0  0
  145.4580  138.8722  152.1770 H   0  0  0  0  0  0  0  0  0  0  0  0
  146.9193  139.0606  151.2210 H   0  0  0  0  0  0  0  0  0  0  0  0
  145.4758  137.1914  150.3607 H   0  0  0  0  0  0  0  0  0  0  0  0
  147.0534  136.6020  150.8539 H   0  0  0  0  0  0  0  0  0  0  0  0
  145.7821  135.1995  153.9097 H   0  0  0  0  0  0  0  0  0  0  0  0
  147.2361  135.4106  152.9537 H   0  0  0  0  0  0  0  0  0  0  0  0
  145.6800  137.6067  154.4021 H   0  0  0  0  0  0  0  0  0  0  0  0
  147.8397  137.9006  155.7055 H   0  0  0  0  0  0  0  0  0  0  0  0
  147.0008  136.4221  156.0424 H   0  0  0  0  0  0  0  0  0  0  0  0
  149.3739  136.5817  154.1272 H   0  0  0  0  0  0  0  0  0  0  0  0
  147.6791  134.2501  154.5216 H   0  0  0  0  0  0  0  0  0  0  0  0
  149.4040  134.2331  153.9963 H   0  0  0  0  0  0  0  0  0  0  0  0
  148.3153  134.3541  156.8735 H   0  0  0  0  0  0  0  0  0  0  0  0
  149.8569  133.5947  156.3124 H   0  0  0  0  0  0  0  0  0  0  0  0
  150.8181  135.7797  155.7814 H   0  0  0  0  0  0  0  0  0  0  0  0
  149.6391  136.4073  156.9947 H   0  0  0  0  0  0  0  0  0  0  0  0
  146.5059  142.4672  153.5593 H   0  0  0  0  0  0  0  0  0  0  0  0
  149.8212  143.5173  158.4534 H   0  0  0  0  0  0  0  0  0  0  0  0
  152.7762  143.8756  157.7982 H   0  0  0  0  0  0  0  0  0  0  0  0
  151.4018  144.7873  157.1654 H   0  0  0  0  0  0  0  0  0  0  0  0
  152.7370  145.7778  159.2858 H   0  0  0  0  0  0  0  0  0  0  0  0
  150.9699  145.7495  159.3494 H   0  0  0  0  0  0  0  0  0  0  0  0
  152.8930  143.7318  160.5632 H   0  0  0  0  0  0  0  0  0  0  0  0
  151.4879  144.4763  161.3288 H   0  0  0  0  0  0  0  0  0  0  0  0
  1  2  1  0  0  0  0
  1 29  1  0  0  0  0
  2  3  1  0  0  0  0
  2 24  1  0  0  0  0
  2 30  1  0  0  0  0
  3  4  1  0  0  0  0
  3 31  1  0  0  0  0
  3 32  1  0  0  0  0
  4 23  1  0  0  0  0
  4  5  1  0  0  0  0
  5  6  2  0  0  0  0
  5 33  1  0  0  0  0
  6  7  1  0  0  0  0
  7 23  2  0  0  0  0
  7  8  1  0  0  0  0
  8  9  1  0  0  0  0
  8 20  2  0  0  0  0
  9 14  1  0  0  0  0
  9 10  1  0  0  0  0
 10 11  1  0  0  0  0
 10 34  1  0  0  0  0
 10 35  1  0  0  0  0
 11 12  1  0  0  0  0
 11 36  1  0  0  0  0
 11 37  1  0  0  0  0
 12 13  1  0  0  0  0
 13 14  1  0  0  0  0
 13 38  1  0  0  0  0
 13 39  1  0  0  0  0
 14 15  1  0  0  0  0
 14 40  1  0  0  0  0
 15 16  1  0  0  0  0
 15 41  1  0  0  0  0
 15 42  1  0  0  0  0
 16 19  1  0  0  0  0
 16 17  1  0  0  0  0
 16 43  1  0  0  0  0
 17 18  1  0  0  0  0
 17 44  1  0  0  0  0
 17 45  1  0  0  0  0
 18 19  1  0  0  0  0
 18 46  1  0  0  0  0
 18 47  1  0  0  0  0
 19 48  1  0  0  0  0
 19 49  1  0  0  0  0
 20 21  1  0  0  0  0
 21 22  2  0  0  0  0
 21 50  1  0  0  0  0
 22 23  1  0  0  0  0
 24 28  1  0  0  0  0
 24 25  1  0  0  0  0
 24 51  1  0  0  0  0
 25 26  1  0  0  0  0
 25 52  1  0  0  0  0
 25 53  1  0  0  0  0
 26 27  1  0  0  0  0
 26 54  1  0  0  0  0
 26 55  1  0  0  0  0
 27 28  1  0  0  0  0
 27 56  1  0  0  0  0
 27 57  1  0  0  0  0
M  END
> <s_m_source_file>
AV-unprocessed.smi

> <i_m_source_file_index>
170

> <i_lp_mmshare_version>
43012

> <i_f3d_flags>
0

> <s_epik_input>
TzFbQ0gyXVtDSDJdW0NIMl1bQ0BIXTFbQ0BIXShbT0hdKVtDSDJdbihbY0hdbjIpYyhjMjMpbltjSF1uYzNONFtDSDJdW0NIMl1PW0NIMl1bQ0BIXTRbQ0gyXVtDSF01W0NIMl1bQ0gyXVtDSDJdNQ==

> <s_epik_cmdline>
J2VwaWtfcHl0aG9uJywgJy1waCcsICc3LjAnLCAnLXRuJywgJzgnLCAnLW1hJywgJzIwMCcsICctbWV0YWxfYmluZGluZycsICctaW1hZScsICc8aW5maWxlLm1hZT4nLCAnLW9tYWUnLCAnPG91dGZpbGUubWFlPic=

> <r_lp_tautomer_probability>
1

> <r_epik_Ionization_Penalty>
4.98275e-05

> <r_epik_Ionization_Penalty_Charging>
0

> <r_epik_Ionization_Penalty_Neutral>
4.98275e-05

> <r_epik_State_Penalty>
-0

> <r_epik_Charging_Adjusted_Penalty>
0

> <i_epik_Tot_Q>
0

> <i_epik_Tot_abs_Q>
0

> <r_epik_Metal_State_Penalty>
-0

> <b_epik_Metal_Only>
0

> <s_lp_Force_Field>
OPLS_2005

> <r_lp_Energy>
54.7181

> <b_lp_Chiralities_Consistent>
1

> <s_lp_Variant>
AV-unprocessed.smi:170-1

> <Gold.Version>
5.8.1

> <Gold.Id.Protein>
6NUR|6NUR_protein|mol2

> <Gold.PLP.Fitness>
40.3239

> <Gold.PLP.PLP>
-42.2318

> <Gold.PLP.part.hbond>
-0.6457

> <Gold.PLP.part.metal>
0.0000

> <Gold.PLP.part.buried>
-3.3733

> <Gold.PLP.part.nonpolar>
-41.2062

> <Gold.PLP.part.repulsive>
3.0332

> <Gold.PLP.ligand.clash>
0.0000

> <Gold.PLP.ligand.torsion>
1.1564

> <Gold.PLP.Chemscore.Hbond>
0.0000

> <Gold.PLP.Chemscore.CHOScore>
0.0000

> <Gold.PLP.Chemscore.Metal>
0.0000

> <Gold.PLP.Chemscore.Internal.Correction>
0.4049

> <Gold.Rescore>
     Score         DG    S(hbond)    S(metal)    S(lipo)     H(rot)  DE(clash)    DE(int)     intcor
      7.43      -9.84       0.00        0.00      94.49       2.61       1.03       1.39       ----

> <Gold.Chemscore.Fitness>
7.4263

> <Gold.Chemscore.DG>
-9.8423

> <Gold.Chemscore.ZeroCoef>
-5.4800

> <Gold.Chemscore.Hbond>
0.0000

> <Gold.Chemscore.Metal>
0.0000

> <Gold.Chemscore.Lipo>
94.4890

> <Gold.Chemscore.Internal_Hbond>
0.0000

> <Gold.Chemscore.DEClash>
1.0270

> <Gold.Chemscore.DEInternal>
1.3889

> <Gold.Chemscore.Rot>
2.6144

> <Gold.Chemscore.Internal.Correction>
   9.000000E+99

> <Gold.Chemscore.Hbond.Weighted>
-0.0000

> <Gold.Chemscore.Metal.Weighted>
-0.0000

> <Gold.Chemscore.Lipo.Weighted>
-11.0552

> <Gold.Chemscore.Internal_Hbond.Weighted>
0.0000

> <Gold.Chemscore.DEClash.Weighted>
1.0270

> <Gold.Chemscore.DEInternal.Weighted>
1.3889

> <Gold.Chemscore.Rot.Weighted>
6.6929

> <Gold.Chemscore.Internal.Correction.Weighted>
   9.000000E+99

> <Gold.Protein.RotatedTorsions>
[ 6907 6896 6895 6894 ] final   83.09 input  -60.11 | X-H torsion
[ 7974 7965 7964 7962 ] final    0.36 input  175.53 | X-H torsion
[ 8008 7997 7996 7995 ] final -117.34 input   59.86 | X-H torsion
[ 10167 10162 10161 10158 ] final  -50.12 input  -65.29 | X-H torsion
[ 10718 10713 10712 10709 ] final -149.93 input   66.30 | X-H torsion
[ 10763 10752 10751 10750 ] final  -67.59 input  -60.55 | X-H torsion
[ 11005 11000 10999 10996 ] final  147.40 input  -57.11 | X-H torsion

> <Gold.Protein.ActiveResidues>
 VAL166  LYS551  ARG553  GLY616  TRP617  ASP618  TYR619  PRO620  LYS621  CYS622 
 ASP623  PHE694  ASN695  SER759  ASP760  ASP761  ALA762  ILE779  LEU786  VAL792 
 PHE793  MET794  SER795  GLU796  ALA797  LYS798  CYS799  TRP800  GLU811  SER814 

> <Gold.Protein.RotatedAtoms>
  152.5318  134.2948  159.9056 H   0  0  0  0  0  0  0  0  0  0  0  0  # atno 6907 bound_to 6896
  151.2900  133.4163  159.2640 H   0  0  0  0  0  0  0  0  0  0  0  0  # atno 6908 bound_to 6896
  151.0209  134.9484  159.8116 H   0  0  0  0  0  0  0  0  0  0  0  0  # atno 6909 bound_to 6896
  146.2434  140.1149  142.8342 H   0  0  0  0  0  0  0  0  0  0  0  0  # atno 7974 bound_to 7965
  155.0822  140.0394  157.2643 H   0  0  0  0  0  0  0  0  0  0  0  0  # atno 8008 bound_to 7997
  154.6898  140.2651  155.6799 H   0  0  0  0  0  0  0  0  0  0  0  0  # atno 8009 bound_to 7997
  156.2724  140.2762  156.1472 H   0  0  0  0  0  0  0  0  0  0  0  0  # atno 8010 bound_to 7997
  140.6653  143.2670  151.4313 H   0  0  0  0  0  0  0  0  0  0  0  0  # atno 10167 bound_to 10162
  156.4395  130.8115  151.2344 H   0  0  0  0  0  0  0  0  0  0  0  0  # atno 10718 bound_to 10713
  154.3767  135.6083  153.5769 H   0  0  0  0  0  0  0  0  0  0  0  0  # atno 10763 bound_to 10752
  152.9789  135.5851  154.4458 H   0  0  0  0  0  0  0  0  0  0  0  0  # atno 10764 bound_to 10752
  154.4221  135.2846  155.1946 H   0  0  0  0  0  0  0  0  0  0  0  0  # atno 10765 bound_to 10752
  140.0872  134.9062  157.1594 H   0  0  0  0  0  0  0  0  0  0  0  0  # atno 11005 bound_to 11000
  145.0455  140.8978  143.5026 LP  0  0  0  0  0  0  0  0  0  0  0  0  # atno 17320 bound_to 7965
  145.1237  139.2676  143.5575 LP  0  0  0  0  0  0  0  0  0  0  0  0  # atno 17321 bound_to 7965
  139.5899  144.1521  152.2076 LP  0  0  0  0  0  0  0  0  0  0  0  0  # atno 17342 bound_to 10162
  140.0873  144.5651  150.7080 LP  0  0  0  0  0  0  0  0  0  0  0  0  # atno 17343 bound_to 10162
  157.7506  131.0172  150.3578 LP  0  0  0  0  0  0  0  0  0  0  0  0  # atno 17370 bound_to 10713
  156.3932  130.3902  149.7014 LP  0  0  0  0  0  0  0  0  0  0  0  0  # atno 17371 bound_to 10713
  140.3403  134.2711  155.7213 LP  0  0  0  0  0  0  0  0  0  0  0  0  # atno 17394 bound_to 11000
  141.2066  133.7828  157.0165 LP  0  0  0  0  0  0  0  0  0  0  0  0  # atno 17395 bound_to 11000

$$$$
