AV-unprocessed.smi:1289|AV-procd|sdf|5385|dock9
  -GOLD-   22720 4533D 1   1.00000     0.00000
 Structure written by MMmdl.
 37 39  0  0  0  0  0  0  0  0  1 V2000
  154.6767  132.8694  165.5103 N   0  0  0  0  0  0  0  0  0  0  0  0
  154.6026  133.6248  164.6369 C   0  0  0  0  0  0  0  0  0  0  0  0
  154.5095  134.5734  163.5397 C   0  0  0  0  0  0  0  0  0  0  0  0
  154.8876  134.1891  162.2383 C   0  0  0  0  0  0  0  0  0  0  0  0
  154.7931  135.1093  161.1766 C   0  0  0  0  0  0  0  0  0  0  0  0
  154.3211  136.4197  161.3953 C   0  0  0  0  0  0  0  0  0  0  0  0
  154.2591  137.2522  160.2987 O   0  0  0  0  0  0  0  0  0  0  0  0
  153.3284  138.3276  160.3191 C   0  0  0  0  0  0  0  0  0  0  0  0
  153.9105  139.5423  159.5779 C   0  0  2  0  0  0  0  0  0  0  0  0
  154.6636  139.0951  158.4677 O   0  0  0  0  0  0  0  0  0  0  0  0
  154.7352  140.4821  160.4789 C   0  0  0  0  0  0  0  0  0  0  0  0
  153.9256  141.5390  161.0573 N   0  0  0  0  0  0  0  0  0  0  0  0
  153.6813  141.7459  162.3656 C   0  0  0  0  0  0  0  0  0  0  0  0
  152.9042  142.7768  162.6852 N   0  0  0  0  0  0  0  0  0  0  0  0
  152.6111  143.3025  161.4386 C   0  0  0  0  0  0  0  0  0  0  0  0
  151.8211  144.4171  161.0763 C   0  0  0  0  0  0  0  0  0  0  0  0
  151.6622  144.7694  159.7198 C   0  0  0  0  0  0  0  0  0  0  0  0
  152.2877  144.0139  158.7066 C   0  0  0  0  0  0  0  0  0  0  0  0
  153.0787  142.8983  159.0430 C   0  0  0  0  0  0  0  0  0  0  0  0
  153.2359  142.5510  160.3977 C   0  0  0  0  0  0  0  0  0  0  0  0
  153.9446  136.7999  162.7085 C   0  0  0  0  0  0  0  0  0  0  0  0
  154.0394  135.8811  163.7722 C   0  0  0  0  0  0  0  0  0  0  0  0
  155.2503  133.1895  162.0460 H   0  0  0  0  0  0  0  0  0  0  0  0
  155.0841  134.8050  160.1818 H   0  0  0  0  0  0  0  0  0  0  0  0
  152.3764  138.0331  159.8734 H   0  0  0  0  0  0  0  0  0  0  0  0
  153.1363  138.6102  161.3553 H   0  0  0  0  0  0  0  0  0  0  0  0
  153.0734  140.1072  159.1657 H   0  0  0  0  0  0  0  0  0  0  0  0
  154.2482  138.3228  158.1152 H   0  0  0  0  0  0  0  0  0  0  0  0
  155.1909  139.9163  161.2926 H   0  0  0  0  0  0  0  0  0  0  0  0
  155.5533  140.9383  159.9203 H   0  0  0  0  0  0  0  0  0  0  0  0
  154.0957  141.1004  163.1261 H   0  0  0  0  0  0  0  0  0  0  0  0
  151.3360  145.0018  161.8438 H   0  0  0  0  0  0  0  0  0  0  0  0
  151.0563  145.6236  159.4548 H   0  0  0  0  0  0  0  0  0  0  0  0
  152.1596  144.2907  157.6704 H   0  0  0  0  0  0  0  0  0  0  0  0
  153.5571  142.3159  158.2695 H   0  0  0  0  0  0  0  0  0  0  0  0
  153.5797  137.7917  162.9273 H   0  0  0  0  0  0  0  0  0  0  0  0
  153.7481  136.1877  164.7668 H   0  0  0  0  0  0  0  0  0  0  0  0
  1  2  3  0  0  0  0
  2  3  1  0  0  0  0
  3 22  1  0  0  0  0
  3  4  2  0  0  0  0
  4  5  1  0  0  0  0
  4 23  1  0  0  0  0
  5  6  2  0  0  0  0
  5 24  1  0  0  0  0
  6  7  1  0  0  0  0
  6 21  1  0  0  0  0
  7  8  1  0  0  0  0
  8  9  1  0  0  0  0
  8 25  1  0  0  0  0
  8 26  1  0  0  0  0
  9 10  1  0  0  0  0
  9 11  1  0  0  0  0
  9 27  1  0  0  0  0
 10 28  1  0  0  0  0
 11 12  1  0  0  0  0
 11 29  1  0  0  0  0
 11 30  1  0  0  0  0
 12 20  1  0  0  0  0
 12 13  1  0  0  0  0
 13 14  2  0  0  0  0
 13 31  1  0  0  0  0
 14 15  1  0  0  0  0
 15 20  2  0  0  0  0
 15 16  1  0  0  0  0
 16 17  2  0  0  0  0
 16 32  1  0  0  0  0
 17 18  1  0  0  0  0
 17 33  1  0  0  0  0
 18 19  2  0  0  0  0
 18 34  1  0  0  0  0
 19 20  1  0  0  0  0
 19 35  1  0  0  0  0
 21 22  2  0  0  0  0
 21 36  1  0  0  0  0
 22 37  1  0  0  0  0
M  END
> <s_m_source_file>
AV-unprocessed.smi

> <i_m_source_file_index>
1289

> <i_lp_mmshare_version>
43012

> <i_f3d_flags>
0

> <s_epik_input>
TiNDYzFbY0hdW2NIXWMoW2NIXVtjSF0xKU9bQ0gyXVtDQEhdKFtPSF0pW0NIMl1uKFtjSF1uMiljKGMyMylbY0hdW2NIXVtjSF1bY0hdMw==

> <s_epik_cmdline>
J2VwaWtfcHl0aG9uJywgJy1waCcsICc3LjAnLCAnLXRuJywgJzgnLCAnLW1hJywgJzIwMCcsICctbWV0YWxfYmluZGluZycsICctaW1hZScsICc8aW5maWxlLm1hZT4nLCAnLW9tYWUnLCAnPG91dGZpbGUubWFlPic=

> <r_epik_Ionization_Penalty>
0.0590811

> <r_epik_Ionization_Penalty_Charging>
0

> <r_epik_Ionization_Penalty_Neutral>
0.0590811

> <r_epik_State_Penalty>
0.0511328

> <r_epik_Charging_Adjusted_Penalty>
0.0511328

> <i_epik_Tot_Q>
0

> <i_epik_Tot_abs_Q>
0

> <r_epik_Metal_State_Penalty>
5.34017e-05

> <b_epik_Metal_Only>
0

> <s_lp_Force_Field>
OPLS_2005

> <r_lp_Energy>
15.8446

> <b_lp_Chiralities_Consistent>
1

> <s_lp_Variant>
AV-unprocessed.smi:1289-1

> <Gold.Version>
5.8.1

> <Gold.Id.Protein>
6NUR|6NUR_protein|mol2

> <Gold.PLP.Fitness>
55.5791

> <Gold.PLP.PLP>
-55.1672

> <Gold.PLP.part.hbond>
-1.0000

> <Gold.PLP.part.metal>
0.0000

> <Gold.PLP.part.buried>
-6.9570

> <Gold.PLP.part.nonpolar>
-47.9603

> <Gold.PLP.part.repulsive>
0.2124

> <Gold.PLP.ligand.clash>
0.0000

> <Gold.PLP.ligand.torsion>
1.3330

> <Gold.PLP.Chemscore.Hbond>
1.0000

> <Gold.PLP.Chemscore.CHOScore>
0.0000

> <Gold.PLP.Chemscore.Metal>
0.0000

> <Gold.Chemscore.Hbonds>
donor molecule, donor type, donor heavy atom, donor atom, acceptor molecule, acceptor atom, score
      P1  H  7997  8010       L1    10  1.00

> <Gold.PLP.Chemscore.Internal.Correction>
0.0778

> <Gold.Rescore>
     Score         DG    S(hbond)    S(metal)    S(lipo)     H(rot)  DE(clash)    DE(int)     intcor
     16.96     -18.23       0.93        0.00     137.05       2.50       0.00       1.26       ----

> <Gold.Chemscore.Fitness>
16.9623

> <Gold.Chemscore.DG>
-18.2288

> <Gold.Chemscore.ZeroCoef>
-5.4800

> <Gold.Chemscore.Hbond>
0.9287

> <Gold.Chemscore.Metal>
0.0000

> <Gold.Chemscore.Lipo>
137.0534

> <Gold.Chemscore.Internal_Hbond>
0.0000

> <Gold.Chemscore.DEClash>
0.0021

> <Gold.Chemscore.DEInternal>
1.2644

> <Gold.Chemscore.Rot>
2.4954

> <Gold.Chemscore.Internal.Correction>
   9.000000E+99

> <Gold.Chemscore.Hbonds>
donor molecule, donor type, donor heavy atom, donor atom, acceptor molecule, acceptor atom, score
      P1  H  7997  8010       L1    10  0.46

> <Gold.Chemscore.Hbond.Weighted>
-3.1019

> <Gold.Chemscore.Metal.Weighted>
-0.0000

> <Gold.Chemscore.Lipo.Weighted>
-16.0352

> <Gold.Chemscore.Internal_Hbond.Weighted>
0.0000

> <Gold.Chemscore.DEClash.Weighted>
0.0021

> <Gold.Chemscore.DEInternal.Weighted>
1.2644

> <Gold.Chemscore.Rot.Weighted>
6.3883

> <Gold.Chemscore.Internal.Correction.Weighted>
   9.000000E+99

> <Gold.Protein.RotatedTorsions>
[ 6907 6896 6895 6894 ] final  -14.06 input  -60.11 | X-H torsion
[ 7974 7965 7964 7962 ] final -101.08 input  175.53 | X-H torsion
[ 8008 7997 7996 7995 ] final   14.08 input   59.86 | X-H torsion
[ 10167 10162 10161 10158 ] final  -40.19 input  -65.29 | X-H torsion
[ 10718 10713 10712 10709 ] final -179.21 input   66.30 | X-H torsion
[ 10763 10752 10751 10750 ] final -153.96 input  -60.55 | X-H torsion
[ 11005 11000 10999 10996 ] final  -27.47 input  -57.11 | X-H torsion

> <Gold.Protein.ActiveResidues>
 VAL166  LYS551  ARG553  GLY616  TRP617  ASP618  TYR619  PRO620  LYS621  CYS622 
 ASP623  PHE694  ASN695  SER759  ASP760  ASP761  ALA762  ILE779  LEU786  VAL792 
 PHE793  MET794  SER795  GLU796  ALA797  LYS798  CYS799  TRP800  GLU811  SER814 

> <Gold.Protein.RotatedAtoms>
  151.3453  135.0872  159.9384 H   0  0  0  0  0  0  0  0  0  0  0  0  # atno 6907 bound_to 6896
  152.5201  133.9407  159.7635 H   0  0  0  0  0  0  0  0  0  0  0  0  # atno 6908 bound_to 6896
  150.9771  133.6230  159.2758 H   0  0  0  0  0  0  0  0  0  0  0  0  # atno 6909 bound_to 6896
  145.2862  140.9340  143.2904 H   0  0  0  0  0  0  0  0  0  0  0  0  # atno 7974 bound_to 7965
  154.8435  140.2918  155.5644 H   0  0  0  0  0  0  0  0  0  0  0  0  # atno 8008 bound_to 7997
  156.3013  140.2509  156.3313 H   0  0  0  0  0  0  0  0  0  0  0  0  # atno 8009 bound_to 7997
  154.9099  140.0389  157.1930 H   0  0  0  0  0  0  0  0  0  0  0  0  # atno 8010 bound_to 7997
  140.7042  143.3168  151.2889 H   0  0  0  0  0  0  0  0  0  0  0  0  # atno 10167 bound_to 10162
  156.8557  130.9734  151.3088 H   0  0  0  0  0  0  0  0  0  0  0  0  # atno 10718 bound_to 10713
  154.7892  135.3201  154.7817 H   0  0  0  0  0  0  0  0  0  0  0  0  # atno 10763 bound_to 10752
  153.8509  135.6862  153.4797 H   0  0  0  0  0  0  0  0  0  0  0  0  # atno 10764 bound_to 10752
  153.1555  135.4682  154.9638 H   0  0  0  0  0  0  0  0  0  0  0  0  # atno 10765 bound_to 10752
  140.9122  133.7453  156.0686 H   0  0  0  0  0  0  0  0  0  0  0  0  # atno 11005 bound_to 11000
  144.9211  139.4410  143.6540 LP  0  0  0  0  0  0  0  0  0  0  0  0  # atno 17320 bound_to 7965
  146.3200  139.8072  142.8953 LP  0  0  0  0  0  0  0  0  0  0  0  0  # atno 17321 bound_to 7965
  139.6610  144.0190  152.2692 LP  0  0  0  0  0  0  0  0  0  0  0  0  # atno 17342 bound_to 10162
  139.9757  144.6463  150.7947 LP  0  0  0  0  0  0  0  0  0  0  0  0  # atno 17343 bound_to 10162
  157.6278  130.8705  149.9221 LP  0  0  0  0  0  0  0  0  0  0  0  0  # atno 17370 bound_to 10713
  156.0804  130.3674  150.0592 LP  0  0  0  0  0  0  0  0  0  0  0  0  # atno 17371 bound_to 10713
  140.8095  134.3416  157.5416 LP  0  0  0  0  0  0  0  0  0  0  0  0  # atno 17394 bound_to 11000
  139.8759  134.9246  156.3353 LP  0  0  0  0  0  0  0  0  0  0  0  0  # atno 17395 bound_to 11000

$$$$
