AV-unprocessed.smi:937|AV-procd|sdf|4216|dock5
  -GOLD-   22720 2123D 1   1.00000     0.00000
 Structure written by MMmdl.
 46 47  0  0  0  0  0  0  0  0  2 V2000
  151.7043  144.1392  158.3096 C   0  0  0  0  0  0  0  0  0  0  0  0
  151.4268  142.7895  157.6824 C   0  0  0  0  0  0  0  0  0  0  0  0
  151.9620  141.5909  158.2015 C   0  0  0  0  0  0  0  0  0  0  0  0
  151.6646  140.3698  157.5612 C   0  0  0  0  0  0  0  0  0  0  0  0
  150.8379  140.3713  156.4162 C   0  0  0  0  0  0  0  0  0  0  0  0
  150.5082  139.0782  155.6961 C   0  0  0  0  0  0  0  0  0  0  0  0
  150.1668  139.3146  154.2189 C   0  0  0  0  0  0  0  0  0  0  0  0
  149.3138  138.2496  153.7105 N   0  0  0  0  0  0  0  0  0  0  0  0
  148.1923  137.8205  154.3116 C   0  0  0  0  0  0  0  0  0  0  0  0
  147.7634  138.2971  155.3605 O   0  0  0  0  0  0  0  0  0  0  0  0
  147.5666  136.8085  153.6842 N   0  0  0  0  0  0  0  0  0  0  0  0
  146.3330  136.1150  154.0693 C   0  0  1  0  0  0  0  0  0  0  0  0
  145.0924  136.7218  153.3781 C   0  0  0  0  0  0  0  0  0  0  0  0
  145.0738  136.4345  151.8683 C   0  0  0  0  0  0  0  0  0  0  0  0
  145.1774  134.9278  151.5863 C   0  0  0  0  0  0  0  0  0  0  0  0
  146.4346  134.3112  152.2347 C   0  0  2  0  0  0  0  0  0  0  0  0
  146.5532  132.8006  151.9446 C   0  0  0  0  0  0  0  0  0  0  0  0
  147.6089  132.2780  152.5695 F   0  0  0  0  0  0  0  0  0  0  0  0
  145.4535  132.1685  152.3547 F   0  0  0  0  0  0  0  0  0  0  0  0
  146.6844  132.5974  150.6335 F   0  0  0  0  0  0  0  0  0  0  0  0
  146.4535  134.6106  153.7519 C   0  0  0  0  0  0  0  0  0  0  0  0
  150.3299  141.6004  155.9439 C   0  0  0  0  0  0  0  0  0  0  0  0
  150.6388  142.7488  156.5847 N   0  3  0  0  0  0  0  0  0  0  0  0
  152.3428  144.0412  159.1881 H   0  0  0  0  0  0  0  0  0  0  0  0
  150.7726  144.6150  158.6171 H   0  0  0  0  0  0  0  0  0  0  0  0
  152.2062  144.7929  157.5956 H   0  0  0  0  0  0  0  0  0  0  0  0
  152.5948  141.6041  159.0773 H   0  0  0  0  0  0  0  0  0  0  0  0
  152.0706  139.4449  157.9448 H   0  0  0  0  0  0  0  0  0  0  0  0
  151.3527  138.3928  155.7817 H   0  0  0  0  0  0  0  0  0  0  0  0
  149.6691  138.5985  156.2021 H   0  0  0  0  0  0  0  0  0  0  0  0
  149.6645  140.2771  154.1069 H   0  0  0  0  0  0  0  0  0  0  0  0
  151.0781  139.3546  153.6206 H   0  0  0  0  0  0  0  0  0  0  0  0
  149.5953  137.8013  152.8507 H   0  0  0  0  0  0  0  0  0  0  0  0
  148.0158  136.4602  152.8496 H   0  0  0  0  0  0  0  0  0  0  0  0
  146.2121  136.2080  155.1498 H   0  0  0  0  0  0  0  0  0  0  0  0
  144.1938  136.2990  153.8292 H   0  0  0  0  0  0  0  0  0  0  0  0
  145.0357  137.7966  153.5523 H   0  0  0  0  0  0  0  0  0  0  0  0
  144.1580  136.8303  151.4286 H   0  0  0  0  0  0  0  0  0  0  0  0
  145.8980  136.9577  151.3816 H   0  0  0  0  0  0  0  0  0  0  0  0
  144.2842  134.4265  151.9612 H   0  0  0  0  0  0  0  0  0  0  0  0
  145.1920  134.7637  150.5086 H   0  0  0  0  0  0  0  0  0  0  0  0
  147.3054  134.7923  151.7865 H   0  0  0  0  0  0  0  0  0  0  0  0
  147.3635  134.2125  154.2026 H   0  0  0  0  0  0  0  0  0  0  0  0
  145.6276  134.0829  154.2305 H   0  0  0  0  0  0  0  0  0  0  0  0
  149.6947  141.7002  155.0757 H   0  0  0  0  0  0  0  0  0  0  0  0
  150.2624  143.6249  156.2221 H   0  0  0  0  0  0  0  0  0  0  0  0
  1  2  1  0  0  0  0
  1 24  1  0  0  0  0
  1 25  1  0  0  0  0
  1 26  1  0  0  0  0
  2 23  1  0  0  0  0
  2  3  2  0  0  0  0
  3  4  1  0  0  0  0
  3 27  1  0  0  0  0
  4  5  2  0  0  0  0
  4 28  1  0  0  0  0
  5  6  1  0  0  0  0
  5 22  1  0  0  0  0
  6  7  1  0  0  0  0
  6 29  1  0  0  0  0
  6 30  1  0  0  0  0
  7  8  1  0  0  0  0
  7 31  1  0  0  0  0
  7 32  1  0  0  0  0
  8  9  1  0  0  0  0
  8 33  1  0  0  0  0
  9 10  2  0  0  0  0
  9 11  1  0  0  0  0
 11 12  1  0  0  0  0
 11 34  1  0  0  0  0
 12 21  1  0  0  0  0
 12 13  1  0  0  0  0
 12 35  1  0  0  0  0
 13 14  1  0  0  0  0
 13 36  1  0  0  0  0
 13 37  1  0  0  0  0
 14 15  1  0  0  0  0
 14 38  1  0  0  0  0
 14 39  1  0  0  0  0
 15 16  1  0  0  0  0
 15 40  1  0  0  0  0
 15 41  1  0  0  0  0
 16 17  1  0  0  0  0
 16 21  1  0  0  0  0
 16 42  1  0  0  0  0
 17 18  1  0  0  0  0
 17 19  1  0  0  0  0
 17 20  1  0  0  0  0
 21 43  1  0  0  0  0
 21 44  1  0  0  0  0
 22 23  2  0  0  0  0
 22 45  1  0  0  0  0
 23 46  1  0  0  0  0
M  CHG  1  23   1
M  END
> <s_m_source_file>
AV-unprocessed.smi

> <i_m_source_file_index>
937

> <i_lp_mmshare_version>
43012

> <i_f3d_flags>
0

> <s_epik_input>
W0NIM11jMVtjSF1bY0hdYyhbY0hdbjEpW0NIMl1bQ0gyXVtOSF1DKD1PKVtOSF1bQ0BASF0yW0NIMl1bQ0gyXVtDSDJdW0NAQEhdKEMoRikoRilGKVtDSDJdMg==

> <s_epik_cmdline>
J2VwaWtfcHl0aG9uJywgJy1waCcsICc3LjAnLCAnLXRuJywgJzgnLCAnLW1hJywgJzIwMCcsICctbWV0YWxfYmluZGluZycsICctaW1hZScsICc8aW5maWxlLm1hZT4nLCAnLW9tYWUnLCAnPG91dGZpbGUubWFlPic=

> <r_epik_Ionization_Penalty>
1.4226

> <r_epik_Ionization_Penalty_Charging>
1.42255

> <r_epik_Ionization_Penalty_Neutral>
5.16456e-05

> <r_epik_State_Penalty>
1.50646

> <r_epik_Charging_Adjusted_Penalty>
2.92901

> <i_epik_Tot_Q>
1

> <i_epik_Tot_abs_Q>
1

> <r_epik_Metal_State_Penalty>
1.55846

> <b_epik_Metal_Only>
0

> <s_lp_Force_Field>
OPLS_2005

> <r_lp_Energy>
25.1059

> <b_lp_Chiralities_Consistent>
1

> <s_lp_Variant>
AV-unprocessed.smi:937-8

> <Gold.Version>
5.8.1

> <Gold.Id.Protein>
6NUR|6NUR_protein|mol2

> <Gold.PLP.Fitness>
45.9514

> <Gold.PLP.PLP>
-36.4980

> <Gold.PLP.part.hbond>
-3.9223

> <Gold.PLP.part.metal>
0.0000

> <Gold.PLP.part.buried>
-0.0724

> <Gold.PLP.part.nonpolar>
-33.2081

> <Gold.PLP.part.repulsive>
0.1534

> <Gold.PLP.ligand.clash>
0.0000

> <Gold.PLP.ligand.torsion>
0.9254

> <Gold.PLP.Chemscore.Hbond>
3.7520

> <Gold.PLP.Chemscore.CHOScore>
0.0000

> <Gold.PLP.Chemscore.Metal>
0.0000

> <Gold.Chemscore.Hbonds>
donor molecule, donor type, donor heavy atom, donor atom, acceptor molecule, acceptor atom, score
      L1  H     8    33       P1  7948  0.72
      L1  H    11    34       P1  7948  0.62
      L1  H    23    46       P1  8028  2.00

> <Gold.PLP.Chemscore.Internal.Correction>
0.0482

> <Gold.Rescore>
     Score         DG    S(hbond)    S(metal)    S(lipo)     H(rot)  DE(clash)    DE(int)     intcor
     18.27     -20.66       2.73        0.00      88.03       1.66       0.55       1.85       ----

> <Gold.Chemscore.Fitness>
18.2664

> <Gold.Chemscore.DG>
-20.6638

> <Gold.Chemscore.ZeroCoef>
-5.4800

> <Gold.Chemscore.Hbond>
2.7334

> <Gold.Chemscore.Metal>
0.0000

> <Gold.Chemscore.Lipo>
88.0346

> <Gold.Chemscore.Internal_Hbond>
0.0000

> <Gold.Chemscore.DEClash>
0.5512

> <Gold.Chemscore.DEInternal>
1.8463

> <Gold.Chemscore.Rot>
1.6585

> <Gold.Chemscore.Internal.Correction>
   9.000000E+99

> <Gold.Chemscore.Hbonds>
donor molecule, donor type, donor heavy atom, donor atom, acceptor molecule, acceptor atom, score
      L1  H     8    33       P1  7948  0.50
      L1  H    11    34       P1  7948  0.62
      L1  H    23    46       P1  8028  0.98

> <Gold.Chemscore.Hbond.Weighted>
-9.1295

> <Gold.Chemscore.Metal.Weighted>
-0.0000

> <Gold.Chemscore.Lipo.Weighted>
-10.3000

> <Gold.Chemscore.Internal_Hbond.Weighted>
0.0000

> <Gold.Chemscore.DEClash.Weighted>
0.5512

> <Gold.Chemscore.DEInternal.Weighted>
1.8463

> <Gold.Chemscore.Rot.Weighted>
4.2457

> <Gold.Chemscore.Internal.Correction.Weighted>
   9.000000E+99

> <Gold.Protein.RotatedTorsions>
[ 6907 6896 6895 6894 ] final  127.19 input  -60.11 | X-H torsion
[ 7974 7965 7964 7962 ] final  152.02 input  175.53 | X-H torsion
[ 8008 7997 7996 7995 ] final  -86.58 input   59.86 | X-H torsion
[ 10167 10162 10161 10158 ] final -130.41 input  -65.29 | X-H torsion
[ 10718 10713 10712 10709 ] final  178.05 input   66.30 | X-H torsion
[ 10763 10752 10751 10750 ] final  -37.97 input  -60.55 | X-H torsion
[ 11005 11000 10999 10996 ] final    8.93 input  -57.11 | X-H torsion

> <Gold.Protein.ActiveResidues>
 VAL166  LYS551  ARG553  GLY616  TRP617  ASP618  TYR619  PRO620  LYS621  CYS622 
 ASP623  PHE694  ASN695  SER759  ASP760  ASP761  ALA762  ILE779  LEU786  VAL792 
 PHE793  MET794  SER795  GLU796  ALA797  LYS798  CYS799  TRP800  GLU811  SER814 

> <Gold.Protein.RotatedAtoms>
  152.3835  133.6579  159.6179 H   0  0  0  0  0  0  0  0  0  0  0  0  # atno 6907 bound_to 6896
  150.7760  133.9074  159.3368 H   0  0  0  0  0  0  0  0  0  0  0  0  # atno 6908 bound_to 6896
  151.6875  135.0953  160.0279 H   0  0  0  0  0  0  0  0  0  0  0  0  # atno 6909 bound_to 6896
  144.8251  139.6614  143.6083 H   0  0  0  0  0  0  0  0  0  0  0  0  # atno 7974 bound_to 7965
  154.6535  140.0576  156.9982 H   0  0  0  0  0  0  0  0  0  0  0  0  # atno 8008 bound_to 7997
  155.1336  140.3259  155.4450 H   0  0  0  0  0  0  0  0  0  0  0  0  # atno 8009 bound_to 7997
  156.2586  140.1976  156.6454 H   0  0  0  0  0  0  0  0  0  0  0  0  # atno 8010 bound_to 7997
  139.9296  143.6287  152.2533 H   0  0  0  0  0  0  0  0  0  0  0  0  # atno 10167 bound_to 10162
  156.8963  130.9864  151.3042 H   0  0  0  0  0  0  0  0  0  0  0  0  # atno 10718 bound_to 10713
  153.9051  135.6798  153.4753 H   0  0  0  0  0  0  0  0  0  0  0  0  # atno 10763 bound_to 10752
  153.1108  135.4784  154.9030 H   0  0  0  0  0  0  0  0  0  0  0  0  # atno 10764 bound_to 10752
  154.7556  135.3196  154.8431 H   0  0  0  0  0  0  0  0  0  0  0  0  # atno 10765 bound_to 10752
  140.5314  134.0462  155.7875 H   0  0  0  0  0  0  0  0  0  0  0  0  # atno 11005 bound_to 11000
  146.2556  139.6296  142.9397 LP  0  0  0  0  0  0  0  0  0  0  0  0  # atno 17320 bound_to 7965
  145.5018  141.0437  143.2536 LP  0  0  0  0  0  0  0  0  0  0  0  0  # atno 17321 bound_to 7965
  139.6793  144.7656  151.1638 LP  0  0  0  0  0  0  0  0  0  0  0  0  # atno 17342 bound_to 10162
  140.7641  143.5748  150.8957 LP  0  0  0  0  0  0  0  0  0  0  0  0  # atno 17343 bound_to 10162
  157.6053  130.8543  149.8866 LP  0  0  0  0  0  0  0  0  0  0  0  0  # atno 17370 bound_to 10713
  156.0604  130.3701  150.0995 LP  0  0  0  0  0  0  0  0  0  0  0  0  # atno 17371 bound_to 10713
  141.1279  133.9352  157.2597 LP  0  0  0  0  0  0  0  0  0  0  0  0  # atno 17394 bound_to 11000
  139.9552  135.0167  156.9107 LP  0  0  0  0  0  0  0  0  0  0  0  0  # atno 17395 bound_to 11000

$$$$
