AV-unprocessed.smi:1464|AV-procd|sdf|5942|dock6
  -GOLD-   22720 6 23D 1   1.00000     0.00000
 Structure written by MMmdl.
 40 41  0  0  0  0  0  0  0  0  2 V2000
  151.0256  141.8144  156.4621 C   0  0  0  0  0  0  0  0  0  0  0  0
  150.4776  140.3801  156.3554 C   0  0  1  0  0  0  0  0  0  0  0  0
  150.3645  139.9733  154.8712 C   0  0  0  0  0  0  0  0  0  0  0  0
  149.8108  138.5523  154.6994 C   0  0  0  0  0  0  0  0  0  0  0  0
  150.6634  137.5352  155.4718 C   0  0  0  0  0  0  0  0  0  0  0  0
  150.7800  137.9051  156.9637 C   0  0  2  0  0  0  0  0  0  0  0  0
  149.4901  137.7642  157.6326 N   0  0  0  0  0  0  0  0  0  0  0  0
  148.9523  136.6365  158.1236 C   0  0  0  0  0  0  0  0  0  0  0  0
  149.5176  135.5446  158.0708 O   0  0  0  0  0  0  0  0  0  0  0  0
  147.5575  136.7412  158.7658 C   0  0  0  0  0  0  0  0  0  0  0  0
  147.4692  136.1625  160.1178 N   0  0  0  0  0  0  0  0  0  0  0  0
  147.3772  137.1581  161.1825 N   0  5  0  0  0  0  0  0  0  0  0  0
  147.1840  136.7432  162.4625 C   0  0  0  0  0  0  0  0  0  0  0  0
  147.0570  137.5228  163.4037 O   0  0  0  0  0  0  0  0  0  0  0  0
  147.1312  135.3131  162.7173 C   0  0  0  0  0  0  0  0  0  0  0  0
  147.2474  134.4157  161.7188 C   0  0  0  0  0  0  0  0  0  0  0  0
  147.4193  134.8157  160.3275 C   0  0  0  0  0  0  0  0  0  0  0  0
  147.4931  134.0018  159.4071 O   0  0  0  0  0  0  0  0  0  0  0  0
  151.3273  139.3449  157.1467 C   0  0  2  0  0  0  0  0  0  0  0  0
  151.4678  139.7002  158.6414 C   0  0  0  0  0  0  0  0  0  0  0  0
  152.0616  141.8702  156.1270 H   0  0  0  0  0  0  0  0  0  0  0  0
  150.9813  142.1884  157.4845 H   0  0  0  0  0  0  0  0  0  0  0  0
  150.4417  142.5022  155.8497 H   0  0  0  0  0  0  0  0  0  0  0  0
  149.4697  140.3889  156.7739 H   0  0  0  0  0  0  0  0  0  0  0  0
  149.7210  140.6759  154.3407 H   0  0  0  0  0  0  0  0  0  0  0  0
  151.3450  140.0376  154.3973 H   0  0  0  0  0  0  0  0  0  0  0  0
  148.7777  138.5145  155.0480 H   0  0  0  0  0  0  0  0  0  0  0  0
  149.7874  138.2883  153.6421 H   0  0  0  0  0  0  0  0  0  0  0  0
  150.2449  136.5345  155.3577 H   0  0  0  0  0  0  0  0  0  0  0  0
  151.6608  137.4966  155.0324 H   0  0  0  0  0  0  0  0  0  0  0  0
  151.4819  137.2131  157.4324 H   0  0  0  0  0  0  0  0  0  0  0  0
  148.9471  138.6095  157.7402 H   0  0  0  0  0  0  0  0  0  0  0  0
  147.2560  137.7899  158.7838 H   0  0  0  0  0  0  0  0  0  0  0  0
  146.8446  136.2467  158.1037 H   0  0  0  0  0  0  0  0  0  0  0  0
  147.0003  134.9624  163.7306 H   0  0  0  0  0  0  0  0  0  0  0  0
  147.2050  133.3628  161.9549 H   0  0  0  0  0  0  0  0  0  0  0  0
  152.3334  139.3564  156.7250 H   0  0  0  0  0  0  0  0  0  0  0  0
  150.4957  139.8414  159.1160 H   0  0  0  0  0  0  0  0  0  0  0  0
  152.0429  140.6143  158.7852 H   0  0  0  0  0  0  0  0  0  0  0  0
  151.9890  138.9107  159.1834 H   0  0  0  0  0  0  0  0  0  0  0  0
  1  2  1  0  0  0  0
  1 21  1  0  0  0  0
  1 22  1  0  0  0  0
  1 23  1  0  0  0  0
  2 19  1  0  0  0  0
  2  3  1  0  0  0  0
  2 24  1  0  0  0  0
  3  4  1  0  0  0  0
  3 25  1  0  0  0  0
  3 26  1  0  0  0  0
  4  5  1  0  0  0  0
  4 27  1  0  0  0  0
  4 28  1  0  0  0  0
  5  6  1  0  0  0  0
  5 29  1  0  0  0  0
  5 30  1  0  0  0  0
  6  7  1  0  0  0  0
  6 19  1  0  0  0  0
  6 31  1  0  0  0  0
  7  8  1  0  0  0  0
  7 32  1  0  0  0  0
  8  9  2  0  0  0  0
  8 10  1  0  0  0  0
 10 33  1  0  0  0  0
 10 34  1  0  0  0  0
 10 11  1  0  0  0  0
 11 12  1  0  0  0  0
 11 17  1  0  0  0  0
 12 13  1  0  0  0  0
 13 14  2  0  0  0  0
 13 15  1  0  0  0  0
 15 35  1  0  0  0  0
 15 16  2  0  0  0  0
 16 36  1  0  0  0  0
 16 17  1  0  0  0  0
 17 18  2  0  0  0  0
 19 20  1  0  0  0  0
 19 37  1  0  0  0  0
 20 38  1  0  0  0  0
 20 39  1  0  0  0  0
 20 40  1  0  0  0  0
M  CHG  1  12  -1
M  END
> <s_m_source_file>
AV-unprocessed.smi

> <i_m_source_file_index>
1464

> <i_lp_mmshare_version>
43012

> <i_f3d_flags>
0

> <s_epik_input>
W0NIM11bQ0BASF0xW0NIMl1bQ0gyXVtDSDJdW0NASF0oW0NASF0xW0NIM10pW05IXUMoPU8pW0NIMl1uMltuSF1jKD1PKVtjSF1bY0hdYzI9Tw==

> <s_epik_cmdline>
J2VwaWtfcHl0aG9uJywgJy1waCcsICc3LjAnLCAnLXRuJywgJzgnLCAnLW1hJywgJzIwMCcsICctbWV0YWxfYmluZGluZycsICctaW1hZScsICc8aW5maWxlLm1hZT4nLCAnLW9tYWUnLCAnPG91dGZpbGUubWFlPic=

> <r_lp_tautomer_probability>
1

> <r_epik_Ionization_Penalty>
0.101366

> <r_epik_Ionization_Penalty_Charging>
0.101366

> <r_epik_Ionization_Penalty_Neutral>
1.90469e-08

> <r_epik_State_Penalty>
0.035861

> <r_epik_Charging_Adjusted_Penalty>
0.137227

> <i_epik_Tot_Q>
-1

> <i_epik_Tot_abs_Q>
1

> <r_epik_Metal_State_Penalty>
0.035861

> <b_epik_Metal_Only>
0

> <s_lp_Force_Field>
OPLS_2005

> <r_lp_Energy>
23.814

> <b_lp_Chiralities_Consistent>
1

> <s_lp_Variant>
AV-unprocessed.smi:1464-8

> <Gold.Version>
5.8.1

> <Gold.Id.Protein>
6NUR|6NUR_protein|mol2

> <Gold.PLP.Fitness>
41.8331

> <Gold.PLP.PLP>
-32.8198

> <Gold.PLP.part.hbond>
-4.0419

> <Gold.PLP.part.metal>
0.0000

> <Gold.PLP.part.buried>
-2.3978

> <Gold.PLP.part.nonpolar>
-27.3726

> <Gold.PLP.part.repulsive>
0.0676

> <Gold.PLP.ligand.clash>
0.0000

> <Gold.PLP.ligand.torsion>
0.5880

> <Gold.PLP.Chemscore.Hbond>
3.3920

> <Gold.PLP.Chemscore.CHOScore>
0.0000

> <Gold.PLP.Chemscore.Metal>
0.0000

> <Gold.Chemscore.Hbonds>
donor molecule, donor type, donor heavy atom, donor atom, acceptor molecule, acceptor atom, score
      P1  H  6896  6908       L1     9  0.80
      P1  H  6931  6943       L1    12  0.50
      P1  H  6934  6947       L1    12  2.00

> <Gold.PLP.Chemscore.Internal.Correction>
0.0133

> <Gold.Rescore>
     Score         DG    S(hbond)    S(metal)    S(lipo)     H(rot)  DE(clash)    DE(int)     intcor
     12.72     -15.14       1.88        0.00      64.96       1.64       0.43       1.98       ----

> <Gold.Chemscore.Fitness>
12.7238

> <Gold.Chemscore.DG>
-15.1356

> <Gold.Chemscore.ZeroCoef>
-5.4800

> <Gold.Chemscore.Hbond>
1.8754

> <Gold.Chemscore.Metal>
0.0000

> <Gold.Chemscore.Lipo>
64.9561

> <Gold.Chemscore.Internal_Hbond>
0.0000

> <Gold.Chemscore.DEClash>
0.4310

> <Gold.Chemscore.DEInternal>
1.9808

> <Gold.Chemscore.Rot>
1.6438

> <Gold.Chemscore.Internal.Correction>
   9.000000E+99

> <Gold.Chemscore.Hbonds>
donor molecule, donor type, donor heavy atom, donor atom, acceptor molecule, acceptor atom, score
      P1  H  6896  6908       L1     9  0.77
      P1  H  6934  6947       L1    12  0.84

> <Gold.Chemscore.Hbond.Weighted>
-6.2637

> <Gold.Chemscore.Metal.Weighted>
-0.0000

> <Gold.Chemscore.Lipo.Weighted>
-7.5999

> <Gold.Chemscore.Internal_Hbond.Weighted>
0.0000

> <Gold.Chemscore.DEClash.Weighted>
0.4310

> <Gold.Chemscore.DEInternal.Weighted>
1.9808

> <Gold.Chemscore.Rot.Weighted>
4.2080

> <Gold.Chemscore.Internal.Correction.Weighted>
   9.000000E+99

> <Gold.Protein.RotatedTorsions>
[ 6907 6896 6895 6894 ] final  173.21 input  -60.11 | X-H torsion
[ 7974 7965 7964 7962 ] final  161.22 input  175.53 | X-H torsion
[ 8008 7997 7996 7995 ] final -145.13 input   59.86 | X-H torsion
[ 10167 10162 10161 10158 ] final   90.91 input  -65.29 | X-H torsion
[ 10718 10713 10712 10709 ] final   18.57 input   66.30 | X-H torsion
[ 10763 10752 10751 10750 ] final  -77.90 input  -60.55 | X-H torsion
[ 11005 11000 10999 10996 ] final -153.24 input  -57.11 | X-H torsion

> <Gold.Protein.ActiveResidues>
 VAL166  LYS551  ARG553  GLY616  TRP617  ASP618  TYR619  PRO620  LYS621  CYS622 
 ASP623  PHE694  ASN695  SER759  ASP760  ASP761  ALA762  ILE779  LEU786  VAL792 
 PHE793  MET794  SER795  GLU796  ALA797  LYS798  CYS799  TRP800  GLU811  SER814 

> <Gold.Protein.RotatedAtoms>
  151.7719  133.3342  159.3446 H   0  0  0  0  0  0  0  0  0  0  0  0  # atno 6907 bound_to 6896
  150.7458  134.6010  159.6046 H   0  0  0  0  0  0  0  0  0  0  0  0  # atno 6908 bound_to 6896
  152.3335  134.7230  160.0334 H   0  0  0  0  0  0  0  0  0  0  0  0  # atno 6909 bound_to 6896
  144.7697  139.7867  143.6302 H   0  0  0  0  0  0  0  0  0  0  0  0  # atno 7974 bound_to 7965
  155.5382  140.0605  157.2875 H   0  0  0  0  0  0  0  0  0  0  0  0  # atno 8008 bound_to 7997
  154.4461  140.1924  156.0608 H   0  0  0  0  0  0  0  0  0  0  0  0  # atno 8009 bound_to 7997
  156.0603  140.3273  155.7458 H   0  0  0  0  0  0  0  0  0  0  0  0  # atno 8010 bound_to 7997
  139.8427  144.6633  150.9264 H   0  0  0  0  0  0  0  0  0  0  0  0  # atno 10167 bound_to 10162
  157.0982  130.6456  149.5865 H   0  0  0  0  0  0  0  0  0  0  0  0  # atno 10718 bound_to 10713
  154.5190  135.5748  153.6665 H   0  0  0  0  0  0  0  0  0  0  0  0  # atno 10763 bound_to 10752
  152.9913  135.6177  154.2779 H   0  0  0  0  0  0  0  0  0  0  0  0  # atno 10764 bound_to 10752
  154.2699  135.2853  155.2722 H   0  0  0  0  0  0  0  0  0  0  0  0  # atno 10765 bound_to 10752
  140.7103  134.3840  157.5198 H   0  0  0  0  0  0  0  0  0  0  0  0  # atno 11005 bound_to 11000
  146.1833  139.5036  142.9852 LP  0  0  0  0  0  0  0  0  0  0  0  0  # atno 17320 bound_to 7965
  145.6362  141.0294  143.1836 LP  0  0  0  0  0  0  0  0  0  0  0  0  # atno 17321 bound_to 7965
  140.7796  143.3898  151.1330 LP  0  0  0  0  0  0  0  0  0  0  0  0  # atno 17342 bound_to 10162
  139.7543  143.8731  152.3085 LP  0  0  0  0  0  0  0  0  0  0  0  0  # atno 17343 bound_to 10162
  155.9880  130.4922  150.7152 LP  0  0  0  0  0  0  0  0  0  0  0  0  # atno 17370 bound_to 10713
  157.4663  131.0888  151.0691 LP  0  0  0  0  0  0  0  0  0  0  0  0  # atno 17371 bound_to 10713
  139.8873  134.8885  156.2534 LP  0  0  0  0  0  0  0  0  0  0  0  0  # atno 17394 bound_to 11000
  141.0090  133.7107  156.1081 LP  0  0  0  0  0  0  0  0  0  0  0  0  # atno 17395 bound_to 11000

$$$$
