AV-unprocessed.smi:498|AV-procd|sdf|2728|dock4
  -GOLD-   2262023173D 1   1.00000     0.00000
 Structure written by MMmdl.
 42 44  0  0  0  0  0  0  0  0  1 V2000
  154.2154  136.9748  161.9713 C   0  0  0  0  0  0  0  0  0  0  0  0
  154.3052  138.4976  161.8541 C   0  0  0  0  0  0  0  0  0  0  0  0
  154.7965  138.8264  160.5667 O   0  0  0  0  0  0  0  0  0  0  0  0
  154.3654  140.1028  160.1231 C   0  0  0  0  0  0  0  0  0  0  0  0
  152.9297  140.0081  159.5888 C   0  0  0  0  0  0  0  0  0  0  0  0
  152.3955  141.3086  159.2070 N   0  0  0  0  0  0  0  0  0  0  0  0
  151.8726  141.6982  158.0150 C   0  0  0  0  0  0  0  0  0  0  0  0
  151.7700  140.7822  156.8266 C   0  0  0  0  0  0  0  0  0  0  0  0
  150.4759  140.9957  156.1849 N   0  0  0  0  0  0  0  0  0  0  0  0
  150.0915  140.4931  155.0015 C   0  0  0  0  0  0  0  0  0  0  0  0
  150.7748  139.7167  154.3351 O   0  0  0  0  0  0  0  0  0  0  0  0
  148.7637  140.9229  154.5242 C   0  0  0  0  0  0  0  0  0  0  0  0
  148.0938  142.1113  154.6542 C   0  0  0  0  0  0  0  0  0  0  0  0
  146.8530  141.9556  153.9765 C   0  0  0  0  0  0  0  0  0  0  0  0
  146.8537  140.6843  153.4791 C   0  0  0  0  0  0  0  0  0  0  0  0
  148.0103  140.0439  153.8013 O   0  0  0  0  0  0  0  0  0  0  0  0
  151.4369  142.9596  157.9627 N   0  0  0  0  0  0  0  0  0  0  0  0
  151.7248  143.4380  159.2247 C   0  0  0  0  0  0  0  0  0  0  0  0
  151.5133  144.7148  159.7925 C   0  0  0  0  0  0  0  0  0  0  0  0
  151.8989  144.9767  161.1235 C   0  0  0  0  0  0  0  0  0  0  0  0
  152.5005  143.9679  161.9034 C   0  0  0  0  0  0  0  0  0  0  0  0
  152.7177  142.6885  161.3568 C   0  0  0  0  0  0  0  0  0  0  0  0
  152.3292  142.4311  160.0280 C   0  0  0  0  0  0  0  0  0  0  0  0
  153.8410  136.6811  162.9522 H   0  0  0  0  0  0  0  0  0  0  0  0
  155.1936  136.5134  161.8335 H   0  0  0  0  0  0  0  0  0  0  0  0
  153.5414  136.5642  161.2189 H   0  0  0  0  0  0  0  0  0  0  0  0
  153.3190  138.9395  162.0053 H   0  0  0  0  0  0  0  0  0  0  0  0
  154.9692  138.8943  162.6236 H   0  0  0  0  0  0  0  0  0  0  0  0
  154.4065  140.8150  160.9453 H   0  0  0  0  0  0  0  0  0  0  0  0
  155.0318  140.4734  159.3433 H   0  0  0  0  0  0  0  0  0  0  0  0
  152.8725  139.3263  158.7405 H   0  0  0  0  0  0  0  0  0  0  0  0
  152.2834  139.5825  160.3569 H   0  0  0  0  0  0  0  0  0  0  0  0
  152.5918  140.9277  156.1266 H   0  0  0  0  0  0  0  0  0  0  0  0
  151.8269  139.7501  157.1726 H   0  0  0  0  0  0  0  0  0  0  0  0
  149.8411  141.6245  156.6551 H   0  0  0  0  0  0  0  0  0  0  0  0
  148.4520  142.9889  155.1718 H   0  0  0  0  0  0  0  0  0  0  0  0
  146.0614  142.6817  153.8653 H   0  0  0  0  0  0  0  0  0  0  0  0
  146.1503  140.1036  152.9007 H   0  0  0  0  0  0  0  0  0  0  0  0
  151.0551  145.4947  159.2026 H   0  0  0  0  0  0  0  0  0  0  0  0
  151.7334  145.9563  161.5472 H   0  0  0  0  0  0  0  0  0  0  0  0
  152.7952  144.1762  162.9217 H   0  0  0  0  0  0  0  0  0  0  0  0
  153.1812  141.9158  161.9516 H   0  0  0  0  0  0  0  0  0  0  0  0
  1  2  1  0  0  0  0
  1 24  1  0  0  0  0
  1 25  1  0  0  0  0
  1 26  1  0  0  0  0
  2  3  1  0  0  0  0
  2 27  1  0  0  0  0
  2 28  1  0  0  0  0
  3  4  1  0  0  0  0
  4  5  1  0  0  0  0
  4 29  1  0  0  0  0
  4 30  1  0  0  0  0
  5  6  1  0  0  0  0
  5 31  1  0  0  0  0
  5 32  1  0  0  0  0
  6 23  1  0  0  0  0
  6  7  1  0  0  0  0
  7  8  1  0  0  0  0
  7 17  2  0  0  0  0
  8  9  1  0  0  0  0
  8 33  1  0  0  0  0
  8 34  1  0  0  0  0
  9 10  1  0  0  0  0
  9 35  1  0  0  0  0
 10 11  2  0  0  0  0
 10 12  1  0  0  0  0
 12 16  1  0  0  0  0
 12 13  2  0  0  0  0
 13 14  1  0  0  0  0
 13 36  1  0  0  0  0
 14 15  2  0  0  0  0
 14 37  1  0  0  0  0
 15 16  1  0  0  0  0
 15 38  1  0  0  0  0
 17 18  1  0  0  0  0
 18 23  2  0  0  0  0
 18 19  1  0  0  0  0
 19 20  2  0  0  0  0
 19 39  1  0  0  0  0
 20 21  1  0  0  0  0
 20 40  1  0  0  0  0
 21 22  2  0  0  0  0
 21 41  1  0  0  0  0
 22 23  1  0  0  0  0
 22 42  1  0  0  0  0
M  END
> <s_m_source_file>
AV-unprocessed.smi

> <i_m_source_file_index>
498

> <i_lp_mmshare_version>
43012

> <i_f3d_flags>
0

> <s_epik_input>
W0NIM11bQ0gyXU9bQ0gyXVtDSDJdbihjKGMxMilbY0hdW2NIXVtjSF1bY0hdMiljKG4xKVtDSDJdW05IXUMoPU8pYzNbY0hdW2NIXVtjSF1vMw==

> <s_epik_cmdline>
J2VwaWtfcHl0aG9uJywgJy1waCcsICc3LjAnLCAnLXRuJywgJzgnLCAnLW1hJywgJzIwMCcsICctbWV0YWxfYmluZGluZycsICctaW1hZScsICc8aW5maWxlLm1hZT4nLCAnLW9tYWUnLCAnPG91dGZpbGUubWFlPic=

> <r_epik_Ionization_Penalty>
0.0701438

> <r_epik_Ionization_Penalty_Charging>
0

> <r_epik_Ionization_Penalty_Neutral>
0.0701438

> <r_epik_State_Penalty>
0.061475

> <r_epik_Charging_Adjusted_Penalty>
0.061475

> <i_epik_Tot_Q>
0

> <i_epik_Tot_abs_Q>
0

> <r_epik_Metal_State_Penalty>
0.0666689

> <b_epik_Metal_Only>
0

> <s_lp_Force_Field>
OPLS_2005

> <r_lp_Energy>
6.14226

> <b_lp_Chiralities_Consistent>
1

> <s_lp_Variant>
AV-unprocessed.smi:498-1

> <Gold.Version>
5.8.1

> <Gold.Id.Protein>
6NUR|6NUR_protein|mol2

> <Gold.PLP.Fitness>
52.0559

> <Gold.PLP.PLP>
-48.3940

> <Gold.PLP.part.hbond>
-1.0000

> <Gold.PLP.part.metal>
0.0000

> <Gold.PLP.part.buried>
-2.4496

> <Gold.PLP.part.nonpolar>
-44.5112

> <Gold.PLP.part.repulsive>
0.7763

> <Gold.PLP.ligand.clash>
0.0000

> <Gold.PLP.ligand.torsion>
1.0445

> <Gold.PLP.Chemscore.Hbond>
0.9000

> <Gold.PLP.Chemscore.CHOScore>
1.0000

> <Gold.PLP.Chemscore.Metal>
0.0000

> <Gold.Chemscore.Hbonds>
donor molecule, donor type, donor heavy atom, donor atom, acceptor molecule, acceptor atom, score
      P1  H  7989  7998       L1    11  0.90
      L1  C    15    38       P1 10175  1.00

> <Gold.PLP.Chemscore.Internal.Correction>
0.0510

> <Gold.Rescore>
     Score         DG    S(hbond)    S(metal)    S(lipo)     H(rot)  DE(clash)    DE(int)     intcor
     15.03     -16.14       0.00        0.00     134.43       1.98       0.08       1.02       ----

> <Gold.Chemscore.Fitness>
15.0318

> <Gold.Chemscore.DG>
-16.1362

> <Gold.Chemscore.ZeroCoef>
-5.4800

> <Gold.Chemscore.Hbond>
0.0000

> <Gold.Chemscore.Metal>
0.0000

> <Gold.Chemscore.Lipo>
134.4294

> <Gold.Chemscore.Internal_Hbond>
0.0000

> <Gold.Chemscore.DEClash>
0.0801

> <Gold.Chemscore.DEInternal>
1.0244

> <Gold.Chemscore.Rot>
1.9813

> <Gold.Chemscore.Internal.Correction>
   9.000000E+99

> <Gold.Chemscore.Hbonds>
donor molecule, donor type, donor heavy atom, donor atom, acceptor molecule, acceptor atom, score
      P1  H  7989  7998       L1    11  0.18

> <Gold.Chemscore.Hbond.Weighted>
-0.0000

> <Gold.Chemscore.Metal.Weighted>
-0.0000

> <Gold.Chemscore.Lipo.Weighted>
-15.7282

> <Gold.Chemscore.Internal_Hbond.Weighted>
0.0000

> <Gold.Chemscore.DEClash.Weighted>
0.0801

> <Gold.Chemscore.DEInternal.Weighted>
1.0244

> <Gold.Chemscore.Rot.Weighted>
5.0720

> <Gold.Chemscore.Internal.Correction.Weighted>
   9.000000E+99

> <Gold.Protein.RotatedTorsions>
[ 6907 6896 6895 6894 ] final   54.91 input  -60.11 | X-H torsion
[ 7974 7965 7964 7962 ] final  -22.72 input  175.53 | X-H torsion
[ 8008 7997 7996 7995 ] final  136.14 input   59.86 | X-H torsion
[ 10167 10162 10161 10158 ] final   58.71 input  -65.29 | X-H torsion
[ 10718 10713 10712 10709 ] final   48.92 input   66.30 | X-H torsion
[ 10763 10752 10751 10750 ] final   78.04 input  -60.55 | X-H torsion
[ 11005 11000 10999 10996 ] final  -80.20 input  -57.11 | X-H torsion

> <Gold.Protein.ActiveResidues>
 VAL166  LYS551  ARG553  GLY616  TRP617  ASP618  TYR619  PRO620  LYS621  CYS622 
 ASP623  PHE694  ASN695  SER759  ASP760  ASP761  ALA762  ILE779  LEU786  VAL792 
 PHE793  MET794  SER795  GLU796  ALA797  LYS798  CYS799  TRP800  GLU811  SER814 

> <Gold.Protein.RotatedAtoms>
  152.3486  134.7036  160.0242 H   0  0  0  0  0  0  0  0  0  0  0  0  # atno 6907 bound_to 6896
  151.7397  133.3316  159.3370 H   0  0  0  0  0  0  0  0  0  0  0  0  # atno 6908 bound_to 6896
  150.7525  134.6222  159.6186 H   0  0  0  0  0  0  0  0  0  0  0  0  # atno 6909 bound_to 6896
  146.1659  140.4518  142.8552 H   0  0  0  0  0  0  0  0  0  0  0  0  # atno 7974 bound_to 7965
  156.3004  140.2453  156.3696 H   0  0  0  0  0  0  0  0  0  0  0  0  # atno 8008 bound_to 7997
  154.8801  140.0413  157.1797 H   0  0  0  0  0  0  0  0  0  0  0  0  # atno 8009 bound_to 7997
  154.8704  140.2934  155.5488 H   0  0  0  0  0  0  0  0  0  0  0  0  # atno 8010 bound_to 7997
  140.1842  144.4151  150.6601 H   0  0  0  0  0  0  0  0  0  0  0  0  # atno 10167 bound_to 10162
  157.4735  130.8270  149.8014 H   0  0  0  0  0  0  0  0  0  0  0  0  # atno 10718 bound_to 10713
  153.0844  135.4891  154.8568 H   0  0  0  0  0  0  0  0  0  0  0  0  # atno 10763 bound_to 10752
  154.7192  135.3036  154.9077 H   0  0  0  0  0  0  0  0  0  0  0  0  # atno 10764 bound_to 10752
  153.9746  135.6797  153.4801 H   0  0  0  0  0  0  0  0  0  0  0  0  # atno 10765 bound_to 10752
  141.1668  133.7139  156.8237 H   0  0  0  0  0  0  0  0  0  0  0  0  # atno 11005 bound_to 11000
  144.8092  140.6354  143.6427 LP  0  0  0  0  0  0  0  0  0  0  0  0  # atno 17320 bound_to 7965
  145.4468  139.1528  143.3940 LP  0  0  0  0  0  0  0  0  0  0  0  0  # atno 17321 bound_to 7965
  140.6499  143.2222  151.6101 LP  0  0  0  0  0  0  0  0  0  0  0  0  # atno 17342 bound_to 10162
  139.5283  144.2992  152.1087 LP  0  0  0  0  0  0  0  0  0  0  0  0  # atno 17343 bound_to 10162
  156.0085  130.3844  150.2346 LP  0  0  0  0  0  0  0  0  0  0  0  0  # atno 17370 bound_to 10713
  157.0529  131.0068  151.3248 LP  0  0  0  0  0  0  0  0  0  0  0  0  # atno 17371 bound_to 10713
  140.2101  134.8834  157.3265 LP  0  0  0  0  0  0  0  0  0  0  0  0  # atno 17394 bound_to 11000
  140.2096  134.4155  155.7620 LP  0  0  0  0  0  0  0  0  0  0  0  0  # atno 17395 bound_to 11000

$$$$
