AV-unprocessed.smi:1363|AV-procd|sdf|5565|dock9
  -GOLD-   22720 5163D 1   1.00000     0.00000
 Structure written by MMmdl.
 44 45  0  0  0  0  0  0  0  0  1 V2000
  149.5800  133.1893  153.7182 C   0  0  0  0  0  0  0  0  0  0  0  0
  149.5886  134.0496  154.9631 C   0  0  0  0  0  0  0  0  0  0  0  0
  149.6270  135.4088  154.7000 N   0  0  0  0  0  0  0  0  0  0  0  0
  149.6257  136.2773  155.7771 C   0  0  0  0  0  0  0  0  0  0  0  0
  149.6629  137.7485  155.4016 C   0  0  0  0  0  0  0  0  0  0  0  0
  149.5944  135.8144  157.0527 C   0  0  0  0  0  0  0  0  0  0  0  0
  149.5895  136.7416  158.2674 C   0  0  0  0  0  0  0  0  0  0  0  0
  150.8977  137.4859  158.5465 C   0  0  0  0  0  0  0  0  0  0  0  0
  151.8498  136.9017  159.0640 O   0  0  0  0  0  0  0  0  0  0  0  0
  150.9314  138.7786  158.1900 N   0  0  0  0  0  0  0  0  0  0  0  0
  152.0825  139.6605  158.3400 C   0  0  0  0  0  0  0  0  0  0  0  0
  151.8124  141.0457  157.7192 C   0  0  0  0  0  0  0  0  0  0  0  0
  152.0639  142.2424  158.6311 C   0  0  0  0  0  0  0  0  0  0  0  0
  151.8146  143.5251  158.2903 C   0  0  0  0  0  0  0  0  0  0  0  0
  152.0366  144.7125  159.2109 C   0  0  0  0  0  0  0  0  0  0  0  0
  152.2284  144.2918  160.6765 C   0  0  0  0  0  0  0  0  0  0  0  0
  153.1658  143.0840  160.7822 C   0  0  0  0  0  0  0  0  0  0  0  0
  152.6121  141.8759  160.0056 C   0  0  0  0  0  0  0  0  0  0  0  0
  149.5677  134.3488  157.2714 C   0  0  0  0  0  0  0  0  0  0  0  0
  149.5575  133.8662  158.4030 O   0  0  0  0  0  0  0  0  0  0  0  0
  149.5588  133.5112  156.1442 N   0  0  0  0  0  0  0  0  0  0  0  0
  149.6513  135.7954  153.7674 H   0  0  0  0  0  0  0  0  0  0  0  0
  149.6660  132.1324  153.9739 H   0  0  0  0  0  0  0  0  0  0  0  0
  150.4150  133.4504  153.0675 H   0  0  0  0  0  0  0  0  0  0  0  0
  148.6511  133.3326  153.1655 H   0  0  0  0  0  0  0  0  0  0  0  0
  148.7736  138.2596  155.7707 H   0  0  0  0  0  0  0  0  0  0  0  0
  149.7024  137.8860  154.3203 H   0  0  0  0  0  0  0  0  0  0  0  0
  150.5417  138.2302  155.8312 H   0  0  0  0  0  0  0  0  0  0  0  0
  149.3084  136.1970  159.1691 H   0  0  0  0  0  0  0  0  0  0  0  0
  148.7953  137.4761  158.1295 H   0  0  0  0  0  0  0  0  0  0  0  0
  150.1028  139.1777  157.7734 H   0  0  0  0  0  0  0  0  0  0  0  0
  152.2824  139.7590  159.4074 H   0  0  0  0  0  0  0  0  0  0  0  0
  152.9647  139.1991  157.8922 H   0  0  0  0  0  0  0  0  0  0  0  0
  152.4308  141.1723  156.8296 H   0  0  0  0  0  0  0  0  0  0  0  0
  150.7757  141.0913  157.3831 H   0  0  0  0  0  0  0  0  0  0  0  0
  151.4385  143.7749  157.3102 H   0  0  0  0  0  0  0  0  0  0  0  0
  152.9142  145.2538  158.8561 H   0  0  0  0  0  0  0  0  0  0  0  0
  151.1888  145.3933  159.1293 H   0  0  0  0  0  0  0  0  0  0  0  0
  152.6170  145.1284  161.2580 H   0  0  0  0  0  0  0  0  0  0  0  0
  151.2620  144.0343  161.1122 H   0  0  0  0  0  0  0  0  0  0  0  0
  154.1445  143.3551  160.3838 H   0  0  0  0  0  0  0  0  0  0  0  0
  153.3224  142.8145  161.8271 H   0  0  0  0  0  0  0  0  0  0  0  0
  151.8073  141.4074  160.5730 H   0  0  0  0  0  0  0  0  0  0  0  0
  153.3972  141.1268  159.8985 H   0  0  0  0  0  0  0  0  0  0  0  0
  1 23  1  0  0  0  0
  1 24  1  0  0  0  0
  1 25  1  0  0  0  0
  1  2  1  0  0  0  0
  2  3  1  0  0  0  0
  2 21  2  0  0  0  0
  3  4  1  0  0  0  0
  3 22  1  0  0  0  0
  4  6  2  0  0  0  0
  4  5  1  0  0  0  0
  5 26  1  0  0  0  0
  5 27  1  0  0  0  0
  5 28  1  0  0  0  0
  6 19  1  0  0  0  0
  6  7  1  0  0  0  0
  7  8  1  0  0  0  0
  7 29  1  0  0  0  0
  7 30  1  0  0  0  0
  8  9  2  0  0  0  0
  8 10  1  0  0  0  0
 10 11  1  0  0  0  0
 10 31  1  0  0  0  0
 11 12  1  0  0  0  0
 11 32  1  0  0  0  0
 11 33  1  0  0  0  0
 12 13  1  0  0  0  0
 12 34  1  0  0  0  0
 12 35  1  0  0  0  0
 13 18  1  0  0  0  0
 13 14  2  0  0  0  0
 14 15  1  0  0  0  0
 14 36  1  0  0  0  0
 15 16  1  0  0  0  0
 15 37  1  0  0  0  0
 15 38  1  0  0  0  0
 16 17  1  0  0  0  0
 16 39  1  0  0  0  0
 16 40  1  0  0  0  0
 17 18  1  0  0  0  0
 17 41  1  0  0  0  0
 17 42  1  0  0  0  0
 18 43  1  0  0  0  0
 18 44  1  0  0  0  0
 19 20  2  0  0  0  0
 19 21  1  0  0  0  0
M  END
> <s_m_source_file>
AV-unprocessed.smi

> <i_m_source_file_index>
1363

> <i_lp_mmshare_version>
43012

> <i_f3d_flags>
0

> <s_epik_input>
W0NIM11jMW5jKFtDSDNdKWMoYyg9TylbbkhdMSlbQ0gyXUMoPU8pW05IXVtDSDJdW0NIMl1DMj1bQ0hdW0NIMl1bQ0gyXVtDSDJdW0NIMl0y

> <s_epik_cmdline>
J2VwaWtfcHl0aG9uJywgJy1waCcsICc3LjAnLCAnLXRuJywgJzgnLCAnLW1hJywgJzIwMCcsICctbWV0YWxfYmluZGluZycsICctaW1hZScsICc8aW5maWxlLm1hZT4nLCAnLW9tYWUnLCAnPG91dGZpbGUubWFlPic=

> <r_lp_tautomer_probability>
0.156392

> <r_epik_Ionization_Penalty>
0.0140998

> <r_epik_Ionization_Penalty_Charging>
0.0139776

> <r_epik_Ionization_Penalty_Neutral>
0.000122158

> <r_epik_State_Penalty>
1.53009

> <r_epik_Charging_Adjusted_Penalty>
1.54407

> <i_epik_Tot_Q>
0

> <i_epik_Tot_abs_Q>
0

> <r_epik_Metal_State_Penalty>
1.7066

> <b_epik_Metal_Only>
0

> <s_lp_Force_Field>
OPLS_2005

> <r_lp_Energy>
12.7953

> <b_lp_Chiralities_Consistent>
1

> <s_lp_Variant>
AV-unprocessed.smi:1363-2

> <Gold.Version>
5.8.1

> <Gold.Id.Protein>
6NUR|6NUR_protein|mol2

> <Gold.PLP.Fitness>
46.3028

> <Gold.PLP.PLP>
-38.6963

> <Gold.PLP.part.hbond>
-3.0000

> <Gold.PLP.part.metal>
0.0000

> <Gold.PLP.part.buried>
-6.3669

> <Gold.PLP.part.nonpolar>
-29.2634

> <Gold.PLP.part.repulsive>
0.1319

> <Gold.PLP.ligand.clash>
0.0000

> <Gold.PLP.ligand.torsion>
0.7160

> <Gold.PLP.Chemscore.Hbond>
3.0000

> <Gold.PLP.Chemscore.CHOScore>
0.0000

> <Gold.PLP.Chemscore.Metal>
0.0000

> <Gold.Chemscore.Hbonds>
donor molecule, donor type, donor heavy atom, donor atom, acceptor molecule, acceptor atom, score
      L1  H     3    22       P1  7948  0.98
      P1  H  6896  6907       L1    20  0.86
      P1  H  6896  6908       L1     9  0.99

> <Gold.PLP.Chemscore.Internal.Correction>
0.0385

> <Gold.Rescore>
     Score         DG    S(hbond)    S(metal)    S(lipo)     H(rot)  DE(clash)    DE(int)     intcor
     20.49     -21.34       2.84        0.00      95.16       1.86       0.07       0.78       ----

> <Gold.Chemscore.Fitness>
20.4855

> <Gold.Chemscore.DG>
-21.3377

> <Gold.Chemscore.ZeroCoef>
-5.4800

> <Gold.Chemscore.Hbond>
2.8422

> <Gold.Chemscore.Metal>
0.0000

> <Gold.Chemscore.Lipo>
95.1644

> <Gold.Chemscore.Internal_Hbond>
0.0000

> <Gold.Chemscore.DEClash>
0.0699

> <Gold.Chemscore.DEInternal>
0.7822

> <Gold.Chemscore.Rot>
1.8631

> <Gold.Chemscore.Internal.Correction>
   9.000000E+99

> <Gold.Chemscore.Hbonds>
donor molecule, donor type, donor heavy atom, donor atom, acceptor molecule, acceptor atom, score
      L1  H     3    22       P1  7948  0.23
      P1  H  6896  6907       L1    20  0.83
      P1  H  6896  6908       L1     9  0.91

> <Gold.Chemscore.Hbond.Weighted>
-9.4931

> <Gold.Chemscore.Metal.Weighted>
-0.0000

> <Gold.Chemscore.Lipo.Weighted>
-11.1342

> <Gold.Chemscore.Internal_Hbond.Weighted>
0.0000

> <Gold.Chemscore.DEClash.Weighted>
0.0699

> <Gold.Chemscore.DEInternal.Weighted>
0.7822

> <Gold.Chemscore.Rot.Weighted>
4.7697

> <Gold.Chemscore.Internal.Correction.Weighted>
   9.000000E+99

> <Gold.Protein.RotatedTorsions>
[ 6907 6896 6895 6894 ] final -115.25 input  -60.11 | X-H torsion
[ 7974 7965 7964 7962 ] final   94.83 input  175.53 | X-H torsion
[ 8008 7997 7996 7995 ] final  143.53 input   59.86 | X-H torsion
[ 10167 10162 10161 10158 ] final  -50.93 input  -65.29 | X-H torsion
[ 10718 10713 10712 10709 ] final -165.05 input   66.30 | X-H torsion
[ 10763 10752 10751 10750 ] final  -10.16 input  -60.55 | X-H torsion
[ 11005 11000 10999 10996 ] final  -40.28 input  -57.11 | X-H torsion

> <Gold.Protein.ActiveResidues>
 VAL166  LYS551  ARG553  GLY616  TRP617  ASP618  TYR619  PRO620  LYS621  CYS622 
 ASP623  PHE694  ASN695  SER759  ASP760  ASP761  ALA762  ILE779  LEU786  VAL792 
 PHE793  MET794  SER795  GLU796  ALA797  LYS798  CYS799  TRP800  GLU811  SER814 

> <Gold.Protein.RotatedAtoms>
  150.7964  133.8684  159.3251 H   0  0  0  0  0  0  0  0  0  0  0  0  # atno 6907 bound_to 6896
  151.6508  135.1000  160.0170 H   0  0  0  0  0  0  0  0  0  0  0  0  # atno 6908 bound_to 6896
  152.4046  133.6830  159.6380 H   0  0  0  0  0  0  0  0  0  0  0  0  # atno 6909 bound_to 6896
  145.4603  139.2287  143.2991 H   0  0  0  0  0  0  0  0  0  0  0  0  # atno 7974 bound_to 7965
  156.2928  140.2260  156.4906 H   0  0  0  0  0  0  0  0  0  0  0  0  # atno 8008 bound_to 7997
  154.7774  140.0462  157.1121 H   0  0  0  0  0  0  0  0  0  0  0  0  # atno 8009 bound_to 7997
  154.9800  140.3077  155.4954 H   0  0  0  0  0  0  0  0  0  0  0  0  # atno 8010 bound_to 7997
  140.6613  143.2639  151.4430 H   0  0  0  0  0  0  0  0  0  0  0  0  # atno 10167 bound_to 10162
  156.6478  130.8995  151.3008 H   0  0  0  0  0  0  0  0  0  0  0  0  # atno 10718 bound_to 10713
  153.4652  135.7016  153.6026 H   0  0  0  0  0  0  0  0  0  0  0  0  # atno 10763 bound_to 10752
  153.4304  135.3804  155.2167 H   0  0  0  0  0  0  0  0  0  0  0  0  # atno 10764 bound_to 10752
  154.8726  135.3949  154.4083 H   0  0  0  0  0  0  0  0  0  0  0  0  # atno 10765 bound_to 10752
  141.0163  133.6884  156.2300 H   0  0  0  0  0  0  0  0  0  0  0  0  # atno 11005 bound_to 11000
  146.2455  140.5371  142.8916 LP  0  0  0  0  0  0  0  0  0  0  0  0  # atno 17320 bound_to 7965
  144.8007  140.6207  143.6480 LP  0  0  0  0  0  0  0  0  0  0  0  0  # atno 17321 bound_to 7965
  139.5848  144.1628  152.2015 LP  0  0  0  0  0  0  0  0  0  0  0  0  # atno 17342 bound_to 10162
  140.0965  144.5576  150.7018 LP  0  0  0  0  0  0  0  0  0  0  0  0  # atno 17343 bound_to 10162
  157.7150  130.9487  150.1224 LP  0  0  0  0  0  0  0  0  0  0  0  0  # atno 17370 bound_to 10713
  156.2108  130.3666  149.8673 LP  0  0  0  0  0  0  0  0  0  0  0  0  # atno 17371 bound_to 10713
  140.6649  134.4929  157.5585 LP  0  0  0  0  0  0  0  0  0  0  0  0  # atno 17394 bound_to 11000
  139.9119  134.8327  156.1499 LP  0  0  0  0  0  0  0  0  0  0  0  0  # atno 17395 bound_to 11000

$$$$
