AV-unprocessed.smi:2564|AV-procd|sdf|10063|dock3
  -GOLD-   2272014103D 1   1.00000     0.00000
 Structure written by MMmdl.
 29 30  0  0  0  0  0  0  0  0  2 V2000
  152.0918  144.6654  158.8286 C   0  0  0  0  0  0  0  0  0  0  0  0
  152.0573  143.8370  159.9650 C   0  0  0  0  0  0  0  0  0  0  0  0
  151.4925  142.6087  159.9530 N   0  0  0  0  0  0  0  0  0  0  0  0
  150.9398  142.1374  158.8298 N   0  0  0  0  0  0  0  0  0  0  0  0
  150.9336  142.8828  157.6959 C   0  0  0  0  0  0  0  0  0  0  0  0
  150.3460  142.3640  156.5327 N   0  0  0  0  0  0  0  0  0  0  0  0
  150.4624  140.9547  156.1755 C   0  0  0  0  0  0  0  0  0  0  0  0
  149.6868  140.6057  154.8929 C   0  0  1  0  0  0  0  0  0  0  0  0
  149.8773  139.1266  154.5022 C   0  0  0  0  0  0  0  0  0  0  0  0
  149.0667  138.8026  153.3115 N   0  3  0  0  0  0  0  0  0  0  0  0
  147.6446  139.1414  153.5125 C   0  0  0  0  0  0  0  0  0  0  0  0
  147.5103  140.6099  153.9470 C   0  0  0  0  0  0  0  0  0  0  0  0
  148.2960  140.8306  155.1128 O   0  0  0  0  0  0  0  0  0  0  0  0
  151.5078  144.1688  157.6504 C   0  0  0  0  0  0  0  0  0  0  0  0
  152.5489  145.6433  158.8603 H   0  0  0  0  0  0  0  0  0  0  0  0
  152.4894  144.1629  160.8995 H   0  0  0  0  0  0  0  0  0  0  0  0
  149.7239  142.9484  155.9926 H   0  0  0  0  0  0  0  0  0  0  0  0
  151.5230  140.7602  156.0139 H   0  0  0  0  0  0  0  0  0  0  0  0
  150.1626  140.3096  157.0019 H   0  0  0  0  0  0  0  0  0  0  0  0
  150.0378  141.2428  154.0784 H   0  0  0  0  0  0  0  0  0  0  0  0
  150.9254  138.9177  154.2858 H   0  0  0  0  0  0  0  0  0  0  0  0
  149.5818  138.4736  155.3246 H   0  0  0  0  0  0  0  0  0  0  0  0
  149.4177  139.3356  152.5284 H   0  0  0  0  0  0  0  0  0  0  0  0
  147.0938  138.9612  152.5890 H   0  0  0  0  0  0  0  0  0  0  0  0
  147.2237  138.4829  154.2734 H   0  0  0  0  0  0  0  0  0  0  0  0
  147.8233  141.2855  153.1493 H   0  0  0  0  0  0  0  0  0  0  0  0
  146.4692  140.8425  154.1720 H   0  0  0  0  0  0  0  0  0  0  0  0
  151.5019  144.7572  156.7445 H   0  0  0  0  0  0  0  0  0  0  0  0
  149.1512  137.8176  153.1041 H   0  0  0  0  0  0  0  0  0  0  0  0
  1 14  1  0  0  0  0
  1  2  2  0  0  0  0
  1 15  1  0  0  0  0
  2  3  1  0  0  0  0
  2 16  1  0  0  0  0
  3  4  2  0  0  0  0
  4  5  1  0  0  0  0
  5  6  1  0  0  0  0
  5 14  2  0  0  0  0
  6  7  1  0  0  0  0
  6 17  1  0  0  0  0
  7  8  1  0  0  0  0
  7 18  1  0  0  0  0
  7 19  1  0  0  0  0
  8 13  1  0  0  0  0
  8  9  1  0  0  0  0
  8 20  1  0  0  0  0
  9 10  1  0  0  0  0
  9 21  1  0  0  0  0
  9 22  1  0  0  0  0
 10 11  1  0  0  0  0
 10 23  1  0  0  0  0
 10 29  1  0  0  0  0
 11 12  1  0  0  0  0
 11 24  1  0  0  0  0
 11 25  1  0  0  0  0
 12 13  1  0  0  0  0
 12 26  1  0  0  0  0
 12 27  1  0  0  0  0
 14 28  1  0  0  0  0
M  CHG  1  10   1
M  END
> <s_m_source_file>
AV-unprocessed.smi

> <i_m_source_file_index>
2564

> <i_lp_mmshare_version>
43012

> <i_f3d_flags>
0

> <s_epik_input>
W2NIXTFbY0hdW2NIXW5uYzFbTkhdW0NIMl1bQ0BASF0yW0NIMl1bTkhdW0NIMl1bQ0gyXU8y

> <s_epik_cmdline>
J2VwaWtfcHl0aG9uJywgJy1waCcsICc3LjAnLCAnLXRuJywgJzgnLCAnLW1hJywgJzIwMCcsICctbWV0YWxfYmluZGluZycsICctaW1hZScsICc8aW5maWxlLm1hZT4nLCAnLW9tYWUnLCAnPG91dGZpbGUubWFlPic=

> <r_lp_tautomer_probability>
0.999978

> <r_epik_Ionization_Penalty>
0.0278973

> <r_epik_Ionization_Penalty_Charging>
0.00959556

> <r_epik_Ionization_Penalty_Neutral>
0.0183017

> <r_epik_State_Penalty>
0.0323017

> <r_epik_Charging_Adjusted_Penalty>
0.0418973

> <i_epik_Tot_Q>
1

> <i_epik_Tot_abs_Q>
1

> <r_epik_Metal_State_Penalty>
0.0301524

> <b_epik_Metal_Only>
0

> <s_lp_Force_Field>
OPLS_2005

> <r_lp_Energy>
20.3405

> <b_lp_Chiralities_Consistent>
1

> <s_lp_Variant>
AV-unprocessed.smi:2564-2

> <Gold.Version>
5.8.1

> <Gold.Id.Protein>
6NUR|6NUR_protein|mol2

> <Gold.PLP.Fitness>
43.6370

> <Gold.PLP.PLP>
-32.2123

> <Gold.PLP.part.hbond>
-3.3258

> <Gold.PLP.part.metal>
0.0000

> <Gold.PLP.part.buried>
-4.1766

> <Gold.PLP.part.nonpolar>
-26.3471

> <Gold.PLP.part.repulsive>
0.2899

> <Gold.PLP.ligand.clash>
0.0000

> <Gold.PLP.ligand.torsion>
0.2881

> <Gold.PLP.Chemscore.Hbond>
4.0000

> <Gold.PLP.Chemscore.CHOScore>
0.0000

> <Gold.PLP.Chemscore.Metal>
0.0000

> <Gold.Chemscore.Hbonds>
donor molecule, donor type, donor heavy atom, donor atom, acceptor molecule, acceptor atom, score
      L1  H     6    17       P1  8028  0.99
      L1  H    10    23       P1  7957  1.00
      L1  H    10    29       P1  7948  2.00

> <Gold.PLP.Chemscore.Internal.Correction>
0.0008

> <Gold.Rescore>
     Score         DG    S(hbond)    S(metal)    S(lipo)     H(rot)  DE(clash)    DE(int)     intcor
     20.03     -20.29       2.86        0.00      74.08       1.33       0.00       0.27       ----

> <Gold.Chemscore.Fitness>
20.0269

> <Gold.Chemscore.DG>
-20.2945

> <Gold.Chemscore.ZeroCoef>
-5.4800

> <Gold.Chemscore.Hbond>
2.8562

> <Gold.Chemscore.Metal>
0.0000

> <Gold.Chemscore.Lipo>
74.0788

> <Gold.Chemscore.Internal_Hbond>
0.0000

> <Gold.Chemscore.DEClash>
0.0000

> <Gold.Chemscore.DEInternal>
0.2676

> <Gold.Chemscore.Rot>
1.3251

> <Gold.Chemscore.Internal.Correction>
   9.000000E+99

> <Gold.Chemscore.Hbonds>
donor molecule, donor type, donor heavy atom, donor atom, acceptor molecule, acceptor atom, score
      L1  H     6    17       P1  8028  0.92
      L1  H    10    23       P1  7957  0.94
      L1  H    10    29       P1  7948  0.92

> <Gold.Chemscore.Hbond.Weighted>
-9.5397

> <Gold.Chemscore.Metal.Weighted>
-0.0000

> <Gold.Chemscore.Lipo.Weighted>
-8.6672

> <Gold.Chemscore.Internal_Hbond.Weighted>
0.0000

> <Gold.Chemscore.DEClash.Weighted>
0.0000

> <Gold.Chemscore.DEInternal.Weighted>
0.2676

> <Gold.Chemscore.Rot.Weighted>
3.3924

> <Gold.Chemscore.Internal.Correction.Weighted>
   9.000000E+99

> <Gold.Protein.RotatedTorsions>
[ 6907 6896 6895 6894 ] final  -74.36 input  -60.11 | X-H torsion
[ 7974 7965 7964 7962 ] final   -0.74 input  175.53 | X-H torsion
[ 8008 7997 7996 7995 ] final -126.42 input   59.86 | X-H torsion
[ 10167 10162 10161 10158 ] final  152.40 input  -65.29 | X-H torsion
[ 10718 10713 10712 10709 ] final   52.60 input   66.30 | X-H torsion
[ 10763 10752 10751 10750 ] final   -7.46 input  -60.55 | X-H torsion
[ 11005 11000 10999 10996 ] final  162.50 input  -57.11 | X-H torsion

> <Gold.Protein.ActiveResidues>
 VAL166  LYS551  ARG553  GLY616  TRP617  ASP618  TYR619  PRO620  LYS621  CYS622 
 ASP623  PHE694  ASN695  SER759  ASP760  ASP761  ALA762  ILE779  LEU786  VAL792 
 PHE793  MET794  SER795  GLU796  ALA797  LYS798  CYS799  TRP800  GLU811  SER814 

> <Gold.Protein.RotatedAtoms>
  150.7096  134.4880  159.5501 H   0  0  0  0  0  0  0  0  0  0  0  0  # atno 6907 bound_to 6896
  152.2503  134.8136  160.0456 H   0  0  0  0  0  0  0  0  0  0  0  0  # atno 6908 bound_to 6896
  151.8886  133.3476  159.3827 H   0  0  0  0  0  0  0  0  0  0  0  0  # atno 6909 bound_to 6896
  146.2424  140.1316  142.8337 H   0  0  0  0  0  0  0  0  0  0  0  0  # atno 7974 bound_to 7965
  155.2294  140.0424  157.2960 H   0  0  0  0  0  0  0  0  0  0  0  0  # atno 8008 bound_to 7997
  154.5898  140.2424  155.7906 H   0  0  0  0  0  0  0  0  0  0  0  0  # atno 8009 bound_to 7997
  156.2251  140.2957  156.0057 H   0  0  0  0  0  0  0  0  0  0  0  0  # atno 8010 bound_to 7997
  139.4833  144.5361  151.7643 H   0  0  0  0  0  0  0  0  0  0  0  0  # atno 10167 bound_to 10162
  157.5090  130.8488  149.8410 H   0  0  0  0  0  0  0  0  0  0  0  0  # atno 10718 bound_to 10713
  153.4266  135.7011  153.6258 H   0  0  0  0  0  0  0  0  0  0  0  0  # atno 10763 bound_to 10752
  153.4690  135.3719  155.2381 H   0  0  0  0  0  0  0  0  0  0  0  0  # atno 10764 bound_to 10752
  154.8724  135.4038  154.3643 H   0  0  0  0  0  0  0  0  0  0  0  0  # atno 10765 bound_to 10752
  140.2263  134.8158  157.3272 H   0  0  0  0  0  0  0  0  0  0  0  0  # atno 11005 bound_to 11000
  145.0321  140.8879  143.5103 LP  0  0  0  0  0  0  0  0  0  0  0  0  # atno 17320 bound_to 7965
  145.1382  139.2589  143.5504 LP  0  0  0  0  0  0  0  0  0  0  0  0  # atno 17321 bound_to 7965
  140.4893  144.1333  150.5947 LP  0  0  0  0  0  0  0  0  0  0  0  0  # atno 17342 bound_to 10162
  140.4189  143.2621  151.9740 LP  0  0  0  0  0  0  0  0  0  0  0  0  # atno 17343 bound_to 10162
  156.0276  130.3774  150.1777 LP  0  0  0  0  0  0  0  0  0  0  0  0  # atno 17370 bound_to 10713
  156.9967  130.9910  151.3401 LP  0  0  0  0  0  0  0  0  0  0  0  0  # atno 17371 bound_to 10713
  140.1796  134.4506  155.7780 LP  0  0  0  0  0  0  0  0  0  0  0  0  # atno 17394 bound_to 11000
  141.2220  133.6978  156.7846 LP  0  0  0  0  0  0  0  0  0  0  0  0  # atno 17395 bound_to 11000

$$$$
