AV-unprocessed.smi:281|AV-procd|sdf|2111|dock1
  -GOLD-   2262021403D 1   1.00000     0.00000
 Structure written by MMmdl.
 55 59  0  0  0  0  0  0  0  0  1 V2000
  155.0299  136.3684  163.1233 C   0  0  0  0  0  0  0  0  0  0  0  0
  154.8684  137.3957  161.9986 C   0  0  2  0  0  0  0  0  0  0  0  0
  153.5763  137.1668  161.1953 C   0  0  0  0  0  0  0  0  0  0  0  0
  153.5212  138.0812  160.0615 N   0  0  0  0  0  0  0  0  0  0  0  0
  152.3032  138.1895  159.4732 C   0  0  0  0  0  0  0  0  0  0  0  0
  151.4116  137.1660  159.5588 N   0  0  0  0  0  0  0  0  0  0  0  0
  150.2068  137.2711  158.9907 C   0  0  0  0  0  0  0  0  0  0  0  0
  149.6961  138.2920  158.3001 N   0  0  0  0  0  0  0  0  0  0  0  0
  150.5869  139.3201  158.2053 C   0  0  0  0  0  0  0  0  0  0  0  0
  151.9006  139.3493  158.7529 C   0  0  0  0  0  0  0  0  0  0  0  0
  152.5197  140.5515  158.4318 N   0  0  0  0  0  0  0  0  0  0  0  0
  151.6198  141.1995  157.7443 C   0  0  0  0  0  0  0  0  0  0  0  0
  150.4219  140.5422  157.5759 N   0  0  0  0  0  0  0  0  0  0  0  0
  149.2497  141.0349  156.8680 C   0  0  0  0  0  0  0  0  0  0  0  0
  149.4481  141.2173  155.3395 C   0  0  2  0  0  0  0  0  0  0  0  0
  150.4649  142.1829  155.1565 O   0  0  0  0  0  0  0  0  0  0  0  0
  148.1890  141.6526  154.5899 C   0  0  0  0  0  0  0  0  0  0  0  0
  147.6382  140.3651  153.9651 C   0  0  0  0  0  0  0  0  0  0  0  0
  148.5615  139.3350  154.2942 O   0  0  0  0  0  0  0  0  0  0  0  0
  149.8140  139.9283  154.5966 C   0  0  0  0  0  0  0  0  0  0  0  0
  154.6967  137.9900  159.2005 C   0  0  0  0  0  0  0  0  0  0  0  0
  155.9934  138.1905  160.0251 C   0  0  2  0  0  0  0  0  0  0  0  0
  156.1864  139.6333  160.4839 C   0  0  0  0  0  0  0  0  0  0  0  0
  156.8511  140.2923  159.2813 C   0  0  0  0  0  0  0  0  0  0  0  0
  157.6266  139.2709  158.6669 O   0  0  0  0  0  0  0  0  0  0  0  0
  157.2931  137.9992  159.2175 C   0  0  2  0  0  0  0  0  0  0  0  0
  157.2808  136.9184  158.1268 C   0  0  0  0  0  0  0  0  0  0  0  0
  155.9987  137.2852  161.1331 O   0  0  0  0  0  0  0  0  0  0  0  0
  154.1976  136.4215  163.8252 H   0  0  0  0  0  0  0  0  0  0  0  0
  155.9493  136.5437  163.6824 H   0  0  0  0  0  0  0  0  0  0  0  0
  155.0694  135.3534  162.7272 H   0  0  0  0  0  0  0  0  0  0  0  0
  154.8472  138.3899  162.4466 H   0  0  0  0  0  0  0  0  0  0  0  0
  153.5431  136.1426  160.8213 H   0  0  0  0  0  0  0  0  0  0  0  0
  152.7143  137.2904  161.8501 H   0  0  0  0  0  0  0  0  0  0  0  0
  149.5588  136.4150  159.1079 H   0  0  0  0  0  0  0  0  0  0  0  0
  151.8056  142.1857  157.3448 H   0  0  0  0  0  0  0  0  0  0  0  0
  148.4291  140.3410  157.0562 H   0  0  0  0  0  0  0  0  0  0  0  0
  148.9529  141.9817  157.3215 H   0  0  0  0  0  0  0  0  0  0  0  0
  150.1727  143.0004  155.5299 H   0  0  0  0  0  0  0  0  0  0  0  0
  147.4643  142.1515  155.2330 H   0  0  0  0  0  0  0  0  0  0  0  0
  148.4334  142.3521  153.7885 H   0  0  0  0  0  0  0  0  0  0  0  0
  146.6495  140.1135  154.3498 H   0  0  0  0  0  0  0  0  0  0  0  0
  147.5652  140.4616  152.8814 H   0  0  0  0  0  0  0  0  0  0  0  0
  150.3207  140.1492  153.6553 H   0  0  0  0  0  0  0  0  0  0  0  0
  150.4575  139.2630  155.1718 H   0  0  0  0  0  0  0  0  0  0  0  0
  154.6940  137.0039  158.7347 H   0  0  0  0  0  0  0  0  0  0  0  0
  154.6382  138.7259  158.3975 H   0  0  0  0  0  0  0  0  0  0  0  0
  155.2636  140.1331  160.7804 H   0  0  0  0  0  0  0  0  0  0  0  0
  156.8691  139.6642  161.3344 H   0  0  0  0  0  0  0  0  0  0  0  0
  156.1007  140.6381  158.5694 H   0  0  0  0  0  0  0  0  0  0  0  0
  157.4679  141.1460  159.5630 H   0  0  0  0  0  0  0  0  0  0  0  0
  158.0938  137.7634  159.9209 H   0  0  0  0  0  0  0  0  0  0  0  0
  157.0026  135.9483  158.5396 H   0  0  0  0  0  0  0  0  0  0  0  0
  158.2679  136.8163  157.6759 H   0  0  0  0  0  0  0  0  0  0  0  0
  156.5814  137.1614  157.3267 H   0  0  0  0  0  0  0  0  0  0  0  0
  1  2  1  0  0  0  0
  1 29  1  0  0  0  0
  1 30  1  0  0  0  0
  1 31  1  0  0  0  0
  2 28  1  0  0  0  0
  2  3  1  0  0  0  0
  2 32  1  0  0  0  0
  3  4  1  0  0  0  0
  3 33  1  0  0  0  0
  3 34  1  0  0  0  0
  4  5  1  0  0  0  0
  4 21  1  0  0  0  0
  5 10  1  0  0  0  0
  5  6  2  0  0  0  0
  6  7  1  0  0  0  0
  7  8  2  0  0  0  0
  7 35  1  0  0  0  0
  8  9  1  0  0  0  0
  9 13  1  0  0  0  0
  9 10  2  0  0  0  0
 10 11  1  0  0  0  0
 11 12  2  0  0  0  0
 12 13  1  0  0  0  0
 12 36  1  0  0  0  0
 13 14  1  0  0  0  0
 14 15  1  0  0  0  0
 14 37  1  0  0  0  0
 14 38  1  0  0  0  0
 15 20  1  0  0  0  0
 15 16  1  0  0  0  0
 15 17  1  0  0  0  0
 16 39  1  0  0  0  0
 17 18  1  0  0  0  0
 17 40  1  0  0  0  0
 17 41  1  0  0  0  0
 18 19  1  0  0  0  0
 18 42  1  0  0  0  0
 18 43  1  0  0  0  0
 19 20  1  0  0  0  0
 20 44  1  0  0  0  0
 20 45  1  0  0  0  0
 21 22  1  0  0  0  0
 21 46  1  0  0  0  0
 21 47  1  0  0  0  0
 22 26  1  0  0  0  0
 22 23  1  0  0  0  0
 22 28  1  0  0  0  0
 23 24  1  0  0  0  0
 23 48  1  0  0  0  0
 23 49  1  0  0  0  0
 24 25  1  0  0  0  0
 24 50  1  0  0  0  0
 24 51  1  0  0  0  0
 25 26  1  0  0  0  0
 26 27  1  0  0  0  0
 26 52  1  0  0  0  0
 27 53  1  0  0  0  0
 27 54  1  0  0  0  0
 27 55  1  0  0  0  0
M  END
> <s_m_source_file>
AV-unprocessed.smi

> <i_m_source_file_index>
281

> <i_lp_mmshare_version>
43012

> <i_f3d_flags>
0

> <s_epik_input>
W0NIM11bQ0BASF0xT1tDSDJdW0NIMl1bQ0BAXTEyW0NIMl1OKFtDSDJdW0NASF0oTzIpW0NIM10pYyhuW2NIXW4zKWMoYzM0KW5bY0hdbjRbQ0gyXVtDQEBdNShbT0hdKVtDSDJdW0NIMl1PW0NIMl01

> <s_epik_cmdline>
J2VwaWtfcHl0aG9uJywgJy1waCcsICc3LjAnLCAnLXRuJywgJzgnLCAnLW1hJywgJzIwMCcsICctbWV0YWxfYmluZGluZycsICctaW1hZScsICc8aW5maWxlLm1hZT4nLCAnLW9tYWUnLCAnPG91dGZpbGUubWFlPic=

> <r_lp_tautomer_probability>
1

> <r_epik_Ionization_Penalty>
0.00571331

> <r_epik_Ionization_Penalty_Charging>
0

> <r_epik_Ionization_Penalty_Neutral>
0.00571331

> <r_epik_State_Penalty>
0.00399586

> <r_epik_Charging_Adjusted_Penalty>
0.00399586

> <i_epik_Tot_Q>
0

> <i_epik_Tot_abs_Q>
0

> <r_epik_Metal_State_Penalty>
-0

> <b_epik_Metal_Only>
0

> <s_lp_Force_Field>
OPLS_2005

> <r_lp_Energy>
56.9308

> <b_lp_Chiralities_Consistent>
1

> <s_lp_Variant>
AV-unprocessed.smi:281-11

> <Gold.Version>
5.8.1

> <Gold.Id.Protein>
6NUR|6NUR_protein|mol2

> <Gold.PLP.Fitness>
39.6796

> <Gold.PLP.PLP>
-34.3659

> <Gold.PLP.part.hbond>
-2.9780

> <Gold.PLP.part.metal>
0.0000

> <Gold.PLP.part.buried>
-3.1065

> <Gold.PLP.part.nonpolar>
-28.7186

> <Gold.PLP.part.repulsive>
0.2464

> <Gold.PLP.ligand.clash>
0.0127

> <Gold.PLP.ligand.torsion>
0.4690

> <Gold.PLP.Chemscore.Hbond>
1.9750

> <Gold.PLP.Chemscore.CHOScore>
0.0000

> <Gold.PLP.Chemscore.Metal>
0.0000

> <Gold.Chemscore.Hbonds>
donor molecule, donor type, donor heavy atom, donor atom, acceptor molecule, acceptor atom, score
      L1  H    16    39       P1  8028  0.71
      P1  H  6896  6907       L1     6  0.94
      P1  H  7989  7998       L1    16  0.01

> <Gold.PLP.Chemscore.Internal.Correction>
0.3395

> <Gold.Rescore>
     Score         DG    S(hbond)    S(metal)    S(lipo)     H(rot)  DE(clash)    DE(int)     intcor
     14.66     -15.40       1.89        0.00      76.69       2.09       0.05       0.70       ----

> <Gold.Chemscore.Fitness>
14.6560

> <Gold.Chemscore.DG>
-15.4042

> <Gold.Chemscore.ZeroCoef>
-5.4800

> <Gold.Chemscore.Hbond>
1.8890

> <Gold.Chemscore.Metal>
0.0000

> <Gold.Chemscore.Lipo>
76.6864

> <Gold.Chemscore.Internal_Hbond>
0.0000

> <Gold.Chemscore.DEClash>
0.0519

> <Gold.Chemscore.DEInternal>
0.6962

> <Gold.Chemscore.Rot>
2.0927

> <Gold.Chemscore.Internal.Correction>
   9.000000E+99

> <Gold.Chemscore.Hbonds>
donor molecule, donor type, donor heavy atom, donor atom, acceptor molecule, acceptor atom, score
      L1  H    16    39       P1  8028  0.69
      P1  H  6896  6907       L1     6  0.20

> <Gold.Chemscore.Hbond.Weighted>
-6.3092

> <Gold.Chemscore.Metal.Weighted>
-0.0000

> <Gold.Chemscore.Lipo.Weighted>
-8.9723

> <Gold.Chemscore.Internal_Hbond.Weighted>
0.0000

> <Gold.Chemscore.DEClash.Weighted>
0.0519

> <Gold.Chemscore.DEInternal.Weighted>
0.6962

> <Gold.Chemscore.Rot.Weighted>
5.3573

> <Gold.Chemscore.Internal.Correction.Weighted>
   9.000000E+99

> <Gold.Protein.RotatedTorsions>
[ 6907 6896 6895 6894 ] final   -9.51 input  -60.11 | X-H torsion
[ 7974 7965 7964 7962 ] final  -34.66 input  175.53 | X-H torsion
[ 8008 7997 7996 7995 ] final  -52.89 input   59.86 | X-H torsion
[ 10167 10162 10161 10158 ] final  146.22 input  -65.29 | X-H torsion
[ 10718 10713 10712 10709 ] final -100.43 input   66.30 | X-H torsion
[ 10763 10752 10751 10750 ] final  156.44 input  -60.55 | X-H torsion
[ 11005 11000 10999 10996 ] final -144.81 input  -57.11 | X-H torsion

> <Gold.Protein.ActiveResidues>
 VAL166  LYS551  ARG553  GLY616  TRP617  ASP618  TYR619  PRO620  LYS621  CYS622 
 ASP623  PHE694  ASN695  SER759  ASP760  ASP761  ALA762  ILE779  LEU786  VAL792 
 PHE793  MET794  SER795  GLU796  ALA797  LYS798  CYS799  TRP800  GLU811  SER814 

> <Gold.Protein.RotatedAtoms>
  151.4166  135.0992  159.9600 H   0  0  0  0  0  0  0  0  0  0  0  0  # atno 6907 bound_to 6896
  152.5002  133.8747  159.7326 H   0  0  0  0  0  0  0  0  0  0  0  0  # atno 6908 bound_to 6896
  150.9254  133.6773  159.2851 H   0  0  0  0  0  0  0  0  0  0  0  0  # atno 6909 bound_to 6896
  146.0811  140.6066  142.8908 H   0  0  0  0  0  0  0  0  0  0  0  0  # atno 7974 bound_to 7965
  154.4118  140.1213  156.5065 H   0  0  0  0  0  0  0  0  0  0  0  0  # atno 8008 bound_to 7997
  155.6842  140.3496  155.4848 H   0  0  0  0  0  0  0  0  0  0  0  0  # atno 8009 bound_to 7997
  155.9525  140.1107  157.0955 H   0  0  0  0  0  0  0  0  0  0  0  0  # atno 8010 bound_to 7997
  139.4911  144.5845  151.6806 H   0  0  0  0  0  0  0  0  0  0  0  0  # atno 10167 bound_to 10162
  156.0163  130.5327  150.6816 H   0  0  0  0  0  0  0  0  0  0  0  0  # atno 10718 bound_to 10713
  154.1844  135.2798  155.3042 H   0  0  0  0  0  0  0  0  0  0  0  0  # atno 10763 bound_to 10752
  154.5977  135.5539  153.7346 H   0  0  0  0  0  0  0  0  0  0  0  0  # atno 10764 bound_to 10752
  153.0129  135.6384  154.1983 H   0  0  0  0  0  0  0  0  0  0  0  0  # atno 10765 bound_to 10752
  140.7986  134.2883  157.4987 H   0  0  0  0  0  0  0  0  0  0  0  0  # atno 11005 bound_to 11000
  144.7294  140.4625  143.6949 LP  0  0  0  0  0  0  0  0  0  0  0  0  # atno 17320 bound_to 7965
  145.6216  139.1525  143.3019 LP  0  0  0  0  0  0  0  0  0  0  0  0  # atno 17321 bound_to 7965
  140.5458  144.0505  150.6106 LP  0  0  0  0  0  0  0  0  0  0  0  0  # atno 17342 bound_to 10162
  140.3543  143.2945  152.0453 LP  0  0  0  0  0  0  0  0  0  0  0  0  # atno 17343 bound_to 10162
  157.4517  131.0873  151.0838 LP  0  0  0  0  0  0  0  0  0  0  0  0  # atno 17370 bound_to 10713
  157.1352  130.6119  149.5540 LP  0  0  0  0  0  0  0  0  0  0  0  0  # atno 17371 bound_to 10713
  139.8724  134.9416  156.3803 LP  0  0  0  0  0  0  0  0  0  0  0  0  # atno 17394 bound_to 11000
  140.9317  133.7574  156.0033 LP  0  0  0  0  0  0  0  0  0  0  0  0  # atno 17395 bound_to 11000

$$$$
