AV-unprocessed.smi:1191|AV-procd|sdf|4985|dock10
  -GOLD-   22720 3583D 1   1.00000     0.00000
 Structure written by MMmdl.
 47 48  0  0  0  0  0  0  0  0  2 V2000
  155.1626  140.2401  163.2200 C   0  0  0  0  0  0  0  0  0  0  0  0
  154.2901  140.9808  162.2495 C   0  0  0  0  0  0  0  0  0  0  0  0
  153.6239  142.2246  162.4336 C   0  0  0  0  0  0  0  0  0  0  0  0
  152.9720  142.4375  161.2515 C   0  0  0  0  0  0  0  0  0  0  0  0
  152.1000  143.5716  160.8221 C   0  0  0  0  0  0  0  0  0  0  0  0
  153.2594  141.3577  160.4351 N   0  0  0  0  0  0  0  0  0  0  0  0
  152.8208  141.0939  159.0727 C   0  0  0  0  0  0  0  0  0  0  0  0
  152.9858  139.6177  158.7056 C   0  0  0  0  0  0  0  0  0  0  0  0
  153.6550  139.2980  157.7235 O   0  0  0  0  0  0  0  0  0  0  0  0
  152.3694  138.7273  159.4987 N   0  0  0  0  0  0  0  0  0  0  0  0
  152.4064  137.2814  159.3218 C   0  0  0  0  0  0  0  0  0  0  0  0
  153.7996  136.7071  159.6447 C   0  0  0  0  0  0  0  0  0  0  0  0
  153.9229  136.2922  161.0644 N   0  3  2  0  0  0  0  0  0  0  0  0
  153.5873  137.3928  162.0042 C   0  0  0  0  0  0  0  0  0  0  0  0
  153.5630  136.8923  163.4573 C   0  0  0  0  0  0  0  0  0  0  0  0
  154.8953  136.2296  163.8360 C   0  0  0  0  0  0  0  0  0  0  0  0
  155.2809  135.1321  162.8268 C   0  0  1  0  0  0  0  0  0  0  0  0
  154.4351  133.8557  162.9807 C   0  0  0  0  0  0  0  0  0  0  0  0
  155.2432  135.6846  161.3868 C   0  0  0  0  0  0  0  0  0  0  0  0
  154.0709  140.4689  161.0496 N   0  0  0  0  0  0  0  0  0  0  0  0
  155.1641  140.7239  164.1970 H   0  0  0  0  0  0  0  0  0  0  0  0
  156.1936  140.1988  162.8685 H   0  0  0  0  0  0  0  0  0  0  0  0
  154.8156  139.2158  163.3594 H   0  0  0  0  0  0  0  0  0  0  0  0
  153.6231  142.8637  163.3041 H   0  0  0  0  0  0  0  0  0  0  0  0
  152.0199  144.3208  161.6098 H   0  0  0  0  0  0  0  0  0  0  0  0
  151.0940  143.2222  160.5894 H   0  0  0  0  0  0  0  0  0  0  0  0
  152.5039  144.0603  159.9353 H   0  0  0  0  0  0  0  0  0  0  0  0
  151.7746  141.3841  158.9636 H   0  0  0  0  0  0  0  0  0  0  0  0
  153.3952  141.7187  158.3878 H   0  0  0  0  0  0  0  0  0  0  0  0
  151.8413  139.0816  160.2840 H   0  0  0  0  0  0  0  0  0  0  0  0
  151.6613  136.8411  159.9851 H   0  0  0  0  0  0  0  0  0  0  0  0
  152.0965  137.0415  158.3047 H   0  0  0  0  0  0  0  0  0  0  0  0
  154.0410  135.8635  158.9964 H   0  0  0  0  0  0  0  0  0  0  0  0
  154.5384  137.4807  159.4291 H   0  0  0  0  0  0  0  0  0  0  0  0
  154.3126  138.2009  161.8940 H   0  0  0  0  0  0  0  0  0  0  0  0
  152.6096  137.8078  161.7559 H   0  0  0  0  0  0  0  0  0  0  0  0
  153.3587  137.7237  164.1326 H   0  0  0  0  0  0  0  0  0  0  0  0
  152.7441  136.1846  163.5891 H   0  0  0  0  0  0  0  0  0  0  0  0
  155.6775  136.9899  163.8551 H   0  0  0  0  0  0  0  0  0  0  0  0
  154.8426  135.8214  164.8459 H   0  0  0  0  0  0  0  0  0  0  0  0
  156.3112  134.8443  163.0402 H   0  0  0  0  0  0  0  0  0  0  0  0
  153.3834  134.0333  162.7558 H   0  0  0  0  0  0  0  0  0  0  0  0
  154.4954  133.4653  163.9969 H   0  0  0  0  0  0  0  0  0  0  0  0
  154.7863  133.0719  162.3090 H   0  0  0  0  0  0  0  0  0  0  0  0
  155.4805  134.8820  160.6898 H   0  0  0  0  0  0  0  0  0  0  0  0
  156.0212  136.4395  161.2613 H   0  0  0  0  0  0  0  0  0  0  0  0
  153.2257  135.5765  161.2124 H   0  0  0  0  0  0  0  0  0  0  0  0
  1  2  1  0  0  0  0
  1 21  1  0  0  0  0
  1 22  1  0  0  0  0
  1 23  1  0  0  0  0
  2 20  2  0  0  0  0
  2  3  1  0  0  0  0
  3  4  2  0  0  0  0
  3 24  1  0  0  0  0
  4  5  1  0  0  0  0
  4  6  1  0  0  0  0
  5 25  1  0  0  0  0
  5 26  1  0  0  0  0
  5 27  1  0  0  0  0
  6  7  1  0  0  0  0
  6 20  1  0  0  0  0
  7  8  1  0  0  0  0
  7 28  1  0  0  0  0
  7 29  1  0  0  0  0
  8  9  2  0  0  0  0
  8 10  1  0  0  0  0
 10 11  1  0  0  0  0
 10 30  1  0  0  0  0
 11 12  1  0  0  0  0
 11 31  1  0  0  0  0
 11 32  1  0  0  0  0
 12 13  1  0  0  0  0
 12 33  1  0  0  0  0
 12 34  1  0  0  0  0
 13 19  1  0  0  0  0
 13 14  1  0  0  0  0
 13 47  1  0  0  0  0
 14 15  1  0  0  0  0
 14 35  1  0  0  0  0
 14 36  1  0  0  0  0
 15 16  1  0  0  0  0
 15 37  1  0  0  0  0
 15 38  1  0  0  0  0
 16 17  1  0  0  0  0
 16 39  1  0  0  0  0
 16 40  1  0  0  0  0
 17 18  1  0  0  0  0
 17 19  1  0  0  0  0
 17 41  1  0  0  0  0
 18 42  1  0  0  0  0
 18 43  1  0  0  0  0
 18 44  1  0  0  0  0
 19 45  1  0  0  0  0
 19 46  1  0  0  0  0
M  CHG  1  13   1
M  END
> <s_m_source_file>
AV-unprocessed.smi

> <i_m_source_file_index>
1191

> <i_lp_mmshare_version>
43012

> <i_f3d_flags>
0

> <s_epik_input>
W0NIM11jMVtjSF1jKFtDSDNdKW4objEpW0NIMl1DKD1PKVtOSF1bQ0gyXVtDSDJdTjJbQ0gyXVtDSDJdW0NIMl1bQ0BASF0oW0NIM10pW0NIMl0y

> <s_epik_cmdline>
J2VwaWtfcHl0aG9uJywgJy1waCcsICc3LjAnLCAnLXRuJywgJzgnLCAnLW1hJywgJzIwMCcsICctbWV0YWxfYmluZGluZycsICctaW1hZScsICc8aW5maWxlLm1hZT4nLCAnLW9tYWUnLCAnPG91dGZpbGUubWFlPic=

> <r_lp_tautomer_probability>
1

> <r_epik_Ionization_Penalty>
0.00249932

> <r_epik_Ionization_Penalty_Charging>
0.00230623

> <r_epik_Ionization_Penalty_Neutral>
0.000193092

> <r_epik_State_Penalty>
-0

> <r_epik_Charging_Adjusted_Penalty>
0.00230623

> <i_epik_Tot_Q>
1

> <i_epik_Tot_abs_Q>
1

> <r_epik_Metal_State_Penalty>
-0

> <b_epik_Metal_Only>
0

> <s_lp_Force_Field>
OPLS_2005

> <r_lp_Energy>
16.5378

> <b_lp_Chiralities_Consistent>
1

> <s_lp_Variant>
AV-unprocessed.smi:1191-2

> <Gold.Version>
5.8.1

> <Gold.Id.Protein>
6NUR|6NUR_protein|mol2

> <Gold.PLP.Fitness>
39.4255

> <Gold.PLP.PLP>
-38.1030

> <Gold.PLP.part.hbond>
-0.4849

> <Gold.PLP.part.metal>
0.0000

> <Gold.PLP.part.buried>
-2.1725

> <Gold.PLP.part.nonpolar>
-34.4519

> <Gold.PLP.part.repulsive>
0.1858

> <Gold.PLP.ligand.clash>
0.0000

> <Gold.PLP.ligand.torsion>
0.5291

> <Gold.PLP.Chemscore.Hbond>
0.7855

> <Gold.PLP.Chemscore.CHOScore>
0.0000

> <Gold.PLP.Chemscore.Metal>
0.0000

> <Gold.Chemscore.Hbonds>
donor molecule, donor type, donor heavy atom, donor atom, acceptor molecule, acceptor atom, score
      P1  H  7997  8008       L1     9  0.80

> <Gold.PLP.Chemscore.Internal.Correction>
0.0244

> <Gold.Rescore>
     Score         DG    S(hbond)    S(metal)    S(lipo)     H(rot)  DE(clash)    DE(int)     intcor
     15.86     -17.66       1.00        0.00     112.14       1.67       0.02       1.78       ----

> <Gold.Chemscore.Fitness>
15.8604

> <Gold.Chemscore.DG>
-17.6602

> <Gold.Chemscore.ZeroCoef>
-5.4800

> <Gold.Chemscore.Hbond>
0.9951

> <Gold.Chemscore.Metal>
0.0000

> <Gold.Chemscore.Lipo>
112.1419

> <Gold.Chemscore.Internal_Hbond>
0.0000

> <Gold.Chemscore.DEClash>
0.0226

> <Gold.Chemscore.DEInternal>
1.7772

> <Gold.Chemscore.Rot>
1.6657

> <Gold.Chemscore.Internal.Correction>
   9.000000E+99

> <Gold.Chemscore.Hbonds>
donor molecule, donor type, donor heavy atom, donor atom, acceptor molecule, acceptor atom, score
      P1  H  7997  8008       L1     9  0.75

> <Gold.Chemscore.Hbond.Weighted>
-3.3236

> <Gold.Chemscore.Metal.Weighted>
-0.0000

> <Gold.Chemscore.Lipo.Weighted>
-13.1206

> <Gold.Chemscore.Internal_Hbond.Weighted>
0.0000

> <Gold.Chemscore.DEClash.Weighted>
0.0226

> <Gold.Chemscore.DEInternal.Weighted>
1.7772

> <Gold.Chemscore.Rot.Weighted>
4.2641

> <Gold.Chemscore.Internal.Correction.Weighted>
   9.000000E+99

> <Gold.Protein.RotatedTorsions>
[ 6907 6896 6895 6894 ] final    4.92 input  -60.11 | X-H torsion
[ 7974 7965 7964 7962 ] final   57.70 input  175.53 | X-H torsion
[ 8008 7997 7996 7995 ] final -108.33 input   59.86 | X-H torsion
[ 10167 10162 10161 10158 ] final   83.53 input  -65.29 | X-H torsion
[ 10718 10713 10712 10709 ] final   72.79 input   66.30 | X-H torsion
[ 10763 10752 10751 10750 ] final -174.53 input  -60.55 | X-H torsion
[ 11005 11000 10999 10996 ] final  -96.65 input  -57.11 | X-H torsion

> <Gold.Protein.ActiveResidues>
 VAL166  LYS551  ARG553  GLY616  TRP617  ASP618  TYR619  PRO620  LYS621  CYS622 
 ASP623  PHE694  ASN695  SER759  ASP760  ASP761  ALA762  ILE779  LEU786  VAL792 
 PHE793  MET794  SER795  GLU796  ALA797  LYS798  CYS799  TRP800  GLU811  SER814 

> <Gold.Protein.RotatedAtoms>
  151.6490  135.1004  160.0156 H   0  0  0  0  0  0  0  0  0  0  0  0  # atno 6907 bound_to 6896
  152.4011  133.6815  159.6326 H   0  0  0  0  0  0  0  0  0  0  0  0  # atno 6908 bound_to 6896
  150.7911  133.8706  159.3298 H   0  0  0  0  0  0  0  0  0  0  0  0  # atno 6909 bound_to 6896
  145.9262  139.3769  143.0449 H   0  0  0  0  0  0  0  0  0  0  0  0  # atno 7974 bound_to 7965
  154.9427  140.0402  157.2105 H   0  0  0  0  0  0  0  0  0  0  0  0  # atno 8008 bound_to 7997
  154.8054  140.2859  155.5870 H   0  0  0  0  0  0  0  0  0  0  0  0  # atno 8009 bound_to 7997
  156.2966  140.2547  156.2931 H   0  0  0  0  0  0  0  0  0  0  0  0  # atno 8010 bound_to 7997
  139.9175  144.6234  150.8474 H   0  0  0  0  0  0  0  0  0  0  0  0  # atno 10167 bound_to 10162
  157.6518  130.9596  150.0979 H   0  0  0  0  0  0  0  0  0  0  0  0  # atno 10718 bound_to 10713
  154.5951  135.2849  155.0594 H   0  0  0  0  0  0  0  0  0  0  0  0  # atno 10763 bound_to 10752
  154.1880  135.6445  153.5056 H   0  0  0  0  0  0  0  0  0  0  0  0  # atno 10764 bound_to 10752
  153.0135  135.5439  154.6650 H   0  0  0  0  0  0  0  0  0  0  0  0  # atno 10765 bound_to 10752
  141.1405  133.8113  157.0599 H   0  0  0  0  0  0  0  0  0  0  0  0  # atno 11005 bound_to 11000
  145.8486  140.9541  143.0761 LP  0  0  0  0  0  0  0  0  0  0  0  0  # atno 17320 bound_to 7965
  144.6759  140.0377  143.7481 LP  0  0  0  0  0  0  0  0  0  0  0  0  # atno 17321 bound_to 7965
  140.7670  143.3321  151.2388 LP  0  0  0  0  0  0  0  0  0  0  0  0  # atno 17342 bound_to 10162
  139.6890  143.9724  152.2849 LP  0  0  0  0  0  0  0  0  0  0  0  0  # atno 17343 bound_to 10162
  156.1909  130.3654  149.8911 LP  0  0  0  0  0  0  0  0  0  0  0  0  # atno 17370 bound_to 10713
  156.6839  130.8869  151.3579 LP  0  0  0  0  0  0  0  0  0  0  0  0  # atno 17371 bound_to 10713
  140.0578  134.9771  157.1251 LP  0  0  0  0  0  0  0  0  0  0  0  0  # atno 17394 bound_to 11000
  140.3894  134.2201  155.7167 LP  0  0  0  0  0  0  0  0  0  0  0  0  # atno 17395 bound_to 11000

$$$$
