AV-unprocessed.smi:276|AV-procd|sdf|2079|dock8
  -GOLD-   2262021343D 1   1.00000     0.00000
 Structure written by MMmdl.
 57 61  0  0  0  0  0  0  0  0  1 V2000
  151.7945  143.5243  160.6455 C   0  0  0  0  0  0  0  0  0  0  0  0
  151.0792  142.9224  159.5802 O   0  0  0  0  0  0  0  0  0  0  0  0
  151.8880  142.0718  158.7822 C   0  0  1  0  0  0  0  0  0  0  0  0
  152.2548  140.7783  159.5148 C   0  0  0  0  0  0  0  0  0  0  0  0
  152.1285  140.0679  158.1613 C   0  0  1  0  0  0  0  0  0  0  0  0
  151.5773  138.7152  158.2724 N   0  0  0  0  0  0  0  0  0  0  0  0
  152.1700  137.8657  159.2975 C   0  0  0  0  0  0  0  0  0  0  0  0
  151.4485  138.0261  157.1159 C   0  0  0  0  0  0  0  0  0  0  0  0
  152.0643  138.5423  156.0228 N   0  0  0  0  0  0  0  0  0  0  0  0
  151.9850  137.9110  154.8479 C   0  0  0  0  0  0  0  0  0  0  0  0
  151.3463  136.7778  154.5504 N   0  0  0  0  0  0  0  0  0  0  0  0
  150.7070  136.2689  155.6423 C   0  0  0  0  0  0  0  0  0  0  0  0
  150.6995  136.8250  156.9525 C   0  0  0  0  0  0  0  0  0  0  0  0
  149.9256  136.0342  157.7946 N   0  0  0  0  0  0  0  0  0  0  0  0
  149.5122  135.0609  157.0300 C   0  0  0  0  0  0  0  0  0  0  0  0
  149.9344  135.1250  155.7221 N   0  0  0  0  0  0  0  0  0  0  0  0
  149.6245  134.1889  154.6565 C   0  0  0  0  0  0  0  0  0  0  0  0
  148.1714  134.3251  154.1611 C   0  0  2  0  0  0  0  0  0  0  0  0
  147.2882  134.1126  155.2463 O   0  0  0  0  0  0  0  0  0  0  0  0
  147.8394  133.3199  153.0429 C   0  0  1  0  0  0  0  0  0  0  0  0
  147.6859  131.8739  153.5145 C   0  0  0  0  0  0  0  0  0  0  0  0
  146.8157  131.2442  152.4395 C   0  0  0  0  0  0  0  0  0  0  0  0
  146.1558  132.4412  151.7487 C   0  0  0  0  0  0  0  0  0  0  0  0
  146.5535  133.5801  152.5010 O   0  0  0  0  0  0  0  0  0  0  0  0
  151.1399  141.1937  157.7552 C   0  0  0  0  0  0  0  0  0  0  0  0
  150.9942  141.6447  156.2953 C   0  0  0  0  0  0  0  0  0  0  0  0
  149.5637  141.0957  156.2906 C   0  0  0  0  0  0  0  0  0  0  0  0
  149.6074  141.0318  157.8211 C   0  0  0  0  0  0  0  0  0  0  0  0
  151.1201  144.1495  161.2305 H   0  0  0  0  0  0  0  0  0  0  0  0
  152.6018  144.1579  160.2782 H   0  0  0  0  0  0  0  0  0  0  0  0
  152.2169  142.7709  161.3115 H   0  0  0  0  0  0  0  0  0  0  0  0
  152.7719  142.5622  158.3679 H   0  0  0  0  0  0  0  0  0  0  0  0
  153.2557  140.7652  159.9464 H   0  0  0  0  0  0  0  0  0  0  0  0
  151.4974  140.4719  160.2392 H   0  0  0  0  0  0  0  0  0  0  0  0
  153.0679  140.1255  157.6098 H   0  0  0  0  0  0  0  0  0  0  0  0
  153.2244  137.6837  159.0853 H   0  0  0  0  0  0  0  0  0  0  0  0
  151.6597  136.9031  159.3572 H   0  0  0  0  0  0  0  0  0  0  0  0
  152.0972  138.3368  160.2777 H   0  0  0  0  0  0  0  0  0  0  0  0
  152.5095  138.3807  154.0288 H   0  0  0  0  0  0  0  0  0  0  0  0
  148.8786  134.2681  157.4000 H   0  0  0  0  0  0  0  0  0  0  0  0
  150.3221  134.3686  153.8377 H   0  0  0  0  0  0  0  0  0  0  0  0
  149.8159  133.1757  155.0123 H   0  0  0  0  0  0  0  0  0  0  0  0
  148.0109  135.3388  153.7915 H   0  0  0  0  0  0  0  0  0  0  0  0
  147.3468  133.2065  155.5080 H   0  0  0  0  0  0  0  0  0  0  0  0
  148.5791  133.3759  152.2416 H   0  0  0  0  0  0  0  0  0  0  0  0
  148.6422  131.3647  153.6378 H   0  0  0  0  0  0  0  0  0  0  0  0
  147.1624  131.8434  154.4712 H   0  0  0  0  0  0  0  0  0  0  0  0
  147.4181  130.6792  151.7273 H   0  0  0  0  0  0  0  0  0  0  0  0
  146.0809  130.5648  152.8727 H   0  0  0  0  0  0  0  0  0  0  0  0
  146.5173  132.5406  150.7243 H   0  0  0  0  0  0  0  0  0  0  0  0
  145.0692  132.3583  151.7190 H   0  0  0  0  0  0  0  0  0  0  0  0
  151.0288  142.7284  156.1802 H   0  0  0  0  0  0  0  0  0  0  0  0
  151.6674  141.1497  155.5958 H   0  0  0  0  0  0  0  0  0  0  0  0
  148.8194  141.7857  155.8922 H   0  0  0  0  0  0  0  0  0  0  0  0
  149.4881  140.1138  155.8232 H   0  0  0  0  0  0  0  0  0  0  0  0
  149.2495  140.0946  158.2458 H   0  0  0  0  0  0  0  0  0  0  0  0
  149.1006  141.8819  158.2782 H   0  0  0  0  0  0  0  0  0  0  0  0
  1  2  1  0  0  0  0
  1 29  1  0  0  0  0
  1 30  1  0  0  0  0
  1 31  1  0  0  0  0
  2  3  1  0  0  0  0
  3 25  1  0  0  0  0
  3  4  1  0  0  0  0
  3 32  1  0  0  0  0
  4  5  1  0  0  0  0
  4 33  1  0  0  0  0
  4 34  1  0  0  0  0
  5  6  1  0  0  0  0
  5 25  1  0  0  0  0
  5 35  1  0  0  0  0
  6  7  1  0  0  0  0
  6  8  1  0  0  0  0
  7 36  1  0  0  0  0
  7 37  1  0  0  0  0
  7 38  1  0  0  0  0
  8 13  1  0  0  0  0
  8  9  2  0  0  0  0
  9 10  1  0  0  0  0
 10 11  2  0  0  0  0
 10 39  1  0  0  0  0
 11 12  1  0  0  0  0
 12 16  1  0  0  0  0
 12 13  2  0  0  0  0
 13 14  1  0  0  0  0
 14 15  2  0  0  0  0
 15 16  1  0  0  0  0
 15 40  1  0  0  0  0
 16 17  1  0  0  0  0
 17 18  1  0  0  0  0
 17 41  1  0  0  0  0
 17 42  1  0  0  0  0
 18 19  1  0  0  0  0
 18 20  1  0  0  0  0
 18 43  1  0  0  0  0
 19 44  1  0  0  0  0
 20 24  1  0  0  0  0
 20 21  1  0  0  0  0
 20 45  1  0  0  0  0
 21 22  1  0  0  0  0
 21 46  1  0  0  0  0
 21 47  1  0  0  0  0
 22 23  1  0  0  0  0
 22 48  1  0  0  0  0
 22 49  1  0  0  0  0
 23 24  1  0  0  0  0
 23 50  1  0  0  0  0
 23 51  1  0  0  0  0
 25 28  1  0  0  0  0
 25 26  1  0  0  0  0
 26 27  1  0  0  0  0
 26 52  1  0  0  0  0
 26 53  1  0  0  0  0
 27 28  1  0  0  0  0
 27 54  1  0  0  0  0
 27 55  1  0  0  0  0
 28 56  1  0  0  0  0
 28 57  1  0  0  0  0
M  END
> <s_m_source_file>
AV-unprocessed.smi

> <i_m_source_file_index>
276

> <i_lp_mmshare_version>
43012

> <i_f3d_flags>
0

> <s_epik_input>
W0NIMl0xW0NIMl1bQ0gyXUMxMltDQEhdKE9bQ0gzXSlbQ0gyXVtDQEhdMk4oW0NIM10pYyhuW2NIXW4zKWMoYzM0KW5bY0hdbjRbQ0gyXVtDQEhdKFtPSF0pW0NAQEhdNVtDSDJdW0NIMl1bQ0gyXU81

> <s_epik_cmdline>
J2VwaWtfcHl0aG9uJywgJy1waCcsICc3LjAnLCAnLXRuJywgJzgnLCAnLW1hJywgJzIwMCcsICctbWV0YWxfYmluZGluZycsICctaW1hZScsICc8aW5maWxlLm1hZT4nLCAnLW9tYWUnLCAnPG91dGZpbGUubWFlPic=

> <r_lp_tautomer_probability>
1

> <r_epik_Ionization_Penalty>
0.00204117

> <r_epik_Ionization_Penalty_Charging>
0

> <r_epik_Ionization_Penalty_Neutral>
0.00204117

> <r_epik_State_Penalty>
0.00127401

> <r_epik_Charging_Adjusted_Penalty>
0.00127401

> <i_epik_Tot_Q>
0

> <i_epik_Tot_abs_Q>
0

> <r_epik_Metal_State_Penalty>
-0

> <b_epik_Metal_Only>
0

> <s_lp_Force_Field>
OPLS_2005

> <r_lp_Energy>
54.7762

> <b_lp_Chiralities_Consistent>
1

> <s_lp_Variant>
AV-unprocessed.smi:276-10

> <Gold.Version>
5.8.1

> <Gold.Id.Protein>
6NUR|6NUR_protein|mol2

> <Gold.PLP.Fitness>
43.6473

> <Gold.PLP.PLP>
-39.9035

> <Gold.PLP.part.hbond>
-2.4784

> <Gold.PLP.part.metal>
0.0000

> <Gold.PLP.part.buried>
-6.4328

> <Gold.PLP.part.nonpolar>
-32.3832

> <Gold.PLP.part.repulsive>
0.2925

> <Gold.PLP.ligand.clash>
0.0000

> <Gold.PLP.ligand.torsion>
0.8405

> <Gold.PLP.Chemscore.Hbond>
1.5702

> <Gold.PLP.Chemscore.CHOScore>
0.0000

> <Gold.PLP.Chemscore.Metal>
0.0000

> <Gold.Chemscore.Hbonds>
donor molecule, donor type, donor heavy atom, donor atom, acceptor molecule, acceptor atom, score
      P1  H  6896  6908       L1    14  0.10
      P1  H 10752 10764       L1    11  0.85

> <Gold.PLP.Chemscore.Internal.Correction>
0.7142

> <Gold.Rescore>
     Score         DG    S(hbond)    S(metal)    S(lipo)     H(rot)  DE(clash)    DE(int)     intcor
      9.29     -10.27       0.19        0.00      94.91       2.72       0.20       0.78       ----

> <Gold.Chemscore.Fitness>
9.2900

> <Gold.Chemscore.DG>
-10.2690

> <Gold.Chemscore.ZeroCoef>
-5.4800

> <Gold.Chemscore.Hbond>
0.1916

> <Gold.Chemscore.Metal>
0.0000

> <Gold.Chemscore.Lipo>
94.9135

> <Gold.Chemscore.Internal_Hbond>
0.0000

> <Gold.Chemscore.DEClash>
0.1978

> <Gold.Chemscore.DEInternal>
0.7811

> <Gold.Chemscore.Rot>
2.7172

> <Gold.Chemscore.Internal.Correction>
   9.000000E+99

> <Gold.Chemscore.Hbonds>
donor molecule, donor type, donor heavy atom, donor atom, acceptor molecule, acceptor atom, score
      P1  H  6896  6908       L1    14  0.03
      P1  H 10752 10764       L1    11  0.10

> <Gold.Chemscore.Hbond.Weighted>
-0.6401

> <Gold.Chemscore.Metal.Weighted>
-0.0000

> <Gold.Chemscore.Lipo.Weighted>
-11.1049

> <Gold.Chemscore.Internal_Hbond.Weighted>
0.0000

> <Gold.Chemscore.DEClash.Weighted>
0.1978

> <Gold.Chemscore.DEInternal.Weighted>
0.7811

> <Gold.Chemscore.Rot.Weighted>
6.9560

> <Gold.Chemscore.Internal.Correction.Weighted>
   9.000000E+99

> <Gold.Protein.RotatedTorsions>
[ 6907 6896 6895 6894 ] final -177.59 input  -60.11 | X-H torsion
[ 7974 7965 7964 7962 ] final  141.22 input  175.53 | X-H torsion
[ 8008 7997 7996 7995 ] final -125.77 input   59.86 | X-H torsion
[ 10167 10162 10161 10158 ] final    5.82 input  -65.29 | X-H torsion
[ 10718 10713 10712 10709 ] final  -78.28 input   66.30 | X-H torsion
[ 10763 10752 10751 10750 ] final  -88.50 input  -60.55 | X-H torsion
[ 11005 11000 10999 10996 ] final -127.59 input  -57.11 | X-H torsion

> <Gold.Protein.ActiveResidues>
 VAL166  LYS551  ARG553  GLY616  TRP617  ASP618  TYR619  PRO620  LYS621  CYS622 
 ASP623  PHE694  ASN695  SER759  ASP760  ASP761  ALA762  ILE779  LEU786  VAL792 
 PHE793  MET794  SER795  GLU796  ALA797  LYS798  CYS799  TRP800  GLU811  SER814 

> <Gold.Protein.RotatedAtoms>
  151.6235  133.3337  159.3092 H   0  0  0  0  0  0  0  0  0  0  0  0  # atno 6907 bound_to 6896
  150.8094  134.7242  159.6685 H   0  0  0  0  0  0  0  0  0  0  0  0  # atno 6908 bound_to 6896
  152.4190  134.5995  160.0047 H   0  0  0  0  0  0  0  0  0  0  0  0  # atno 6909 bound_to 6896
  144.9116  139.5285  143.5706 H   0  0  0  0  0  0  0  0  0  0  0  0  # atno 7974 bound_to 7965
  155.2187  140.0421  157.2945 H   0  0  0  0  0  0  0  0  0  0  0  0  # atno 8008 bound_to 7997
  154.5963  140.2440  155.7823 H   0  0  0  0  0  0  0  0  0  0  0  0  # atno 8009 bound_to 7997
  156.2292  140.2944  156.0155 H   0  0  0  0  0  0  0  0  0  0  0  0  # atno 8010 bound_to 7997
  140.6461  143.7658  150.7501 H   0  0  0  0  0  0  0  0  0  0  0  0  # atno 10167 bound_to 10162
  156.0122  130.4514  150.3473 H   0  0  0  0  0  0  0  0  0  0  0  0  # atno 10718 bound_to 10713
  154.6453  135.5374  153.7837 H   0  0  0  0  0  0  0  0  0  0  0  0  # atno 10763 bound_to 10752
  153.0356  135.6469  154.1099 H   0  0  0  0  0  0  0  0  0  0  0  0  # atno 10764 bound_to 10752
  154.1020  135.2932  155.3229 H   0  0  0  0  0  0  0  0  0  0  0  0  # atno 10765 bound_to 10752
  140.9587  134.0967  157.3990 H   0  0  0  0  0  0  0  0  0  0  0  0  # atno 11005 bound_to 11000
  146.3161  139.7926  142.8982 LP  0  0  0  0  0  0  0  0  0  0  0  0  # atno 17320 bound_to 7965
  145.3445  141.0294  143.3374 LP  0  0  0  0  0  0  0  0  0  0  0  0  # atno 17321 bound_to 7965
  140.1299  143.4535  152.2260 LP  0  0  0  0  0  0  0  0  0  0  0  0  # atno 17342 bound_to 10162
  139.5672  144.7442  151.3990 LP  0  0  0  0  0  0  0  0  0  0  0  0  # atno 17343 bound_to 10162
  157.1566  131.0334  151.2860 LP  0  0  0  0  0  0  0  0  0  0  0  0  # atno 17370 bound_to 10713
  157.4346  130.7510  149.7019 LP  0  0  0  0  0  0  0  0  0  0  0  0  # atno 17371 bound_to 10713
  139.8870  135.0086  156.6537 LP  0  0  0  0  0  0  0  0  0  0  0  0  # atno 17394 bound_to 11000
  140.7499  133.8906  155.8339 LP  0  0  0  0  0  0  0  0  0  0  0  0  # atno 17395 bound_to 11000

$$$$
