AV-unprocessed.smi:1762|AV-procd|sdf|7110|dock3
  -GOLD-   22720 8333D 1   1.00000     0.00000
 Structure written by MMmdl.
 53 54  0  0  0  0  0  0  0  0  2 V2000
  151.9958  141.5847  158.0988 C   0  0  0  0  0  0  0  0  0  0  0  0
  151.4101  140.4590  157.2389 C   0  0  1  0  0  0  0  0  0  0  0  0
  150.3684  140.9814  156.2333 C   0  0  0  0  0  0  0  0  0  0  0  0
  149.8594  139.9322  155.3432 N   0  0  0  0  0  0  0  0  0  0  0  0
  148.7884  140.4240  154.4303 C   0  0  1  0  0  0  0  0  0  0  0  0
  147.9735  139.2903  153.7608 C   0  0  0  0  0  0  0  0  0  0  0  0
  147.9187  138.1711  154.2697 O   0  0  0  0  0  0  0  0  0  0  0  0
  147.3755  139.5878  152.5957 N   0  0  0  0  0  0  0  0  0  0  0  0
  146.6268  138.6420  151.7733 C   0  0  0  0  0  0  0  0  0  0  0  0
  145.6124  137.8054  152.5768 C   0  0  0  0  0  0  0  0  0  0  0  0
  145.4069  136.4045  152.0281 C   0  0  0  0  0  0  0  0  0  0  0  0
  144.1278  135.9172  151.6826 C   0  0  0  0  0  0  0  0  0  0  0  0
  144.0013  134.6025  151.1874 C   0  0  0  0  0  0  0  0  0  0  0  0
  145.1548  133.8027  151.0496 C   0  0  0  0  0  0  0  0  0  0  0  0
  146.4073  134.3393  151.4104 C   0  0  0  0  0  0  0  0  0  0  0  0
  146.4866  135.6032  151.8809 N   0  3  0  0  0  0  0  0  0  0  0  0
  147.8524  141.5138  155.0565 C   0  0  0  0  0  0  0  0  0  0  0  0
  147.0623  141.0316  156.2897 C   0  0  0  0  0  0  0  0  0  0  0  0
  146.9044  142.1765  154.0386 C   0  0  0  0  0  0  0  0  0  0  0  0
  151.0059  139.2928  154.6731 C   0  0  0  0  0  0  0  0  0  0  0  0
  152.0905  138.7948  155.6496 C   0  0  2  0  0  0  0  0  0  0  0  0
  151.6883  137.5182  156.4091 C   0  0  0  0  0  0  0  0  0  0  0  0
  152.4819  139.8403  156.5359 O   0  0  0  0  0  0  0  0  0  0  0  0
  151.2169  142.0832  158.6762 H   0  0  0  0  0  0  0  0  0  0  0  0
  152.4889  142.3370  157.4824 H   0  0  0  0  0  0  0  0  0  0  0  0
  152.7324  141.1954  158.8018 H   0  0  0  0  0  0  0  0  0  0  0  0
  150.9419  139.7322  157.9031 H   0  0  0  0  0  0  0  0  0  0  0  0
  149.5627  141.4219  156.8163 H   0  0  0  0  0  0  0  0  0  0  0  0
  150.8039  141.7888  155.6419 H   0  0  0  0  0  0  0  0  0  0  0  0
  149.2945  140.9261  153.6028 H   0  0  0  0  0  0  0  0  0  0  0  0
  147.4829  140.5246  152.2341 H   0  0  0  0  0  0  0  0  0  0  0  0
  146.1029  139.2122  151.0059 H   0  0  0  0  0  0  0  0  0  0  0  0
  147.3182  137.9844  151.2440 H   0  0  0  0  0  0  0  0  0  0  0  0
  145.9449  137.7304  153.6127 H   0  0  0  0  0  0  0  0  0  0  0  0
  144.6502  138.3189  152.6090 H   0  0  0  0  0  0  0  0  0  0  0  0
  143.2532  136.5411  151.7969 H   0  0  0  0  0  0  0  0  0  0  0  0
  143.0308  134.2123  150.9176 H   0  0  0  0  0  0  0  0  0  0  0  0
  145.0793  132.7931  150.6726 H   0  0  0  0  0  0  0  0  0  0  0  0
  147.3409  133.8004  151.3383 H   0  0  0  0  0  0  0  0  0  0  0  0
  148.4843  142.3336  155.3938 H   0  0  0  0  0  0  0  0  0  0  0  0
  146.3281  140.2685  156.0349 H   0  0  0  0  0  0  0  0  0  0  0  0
  146.5200  141.8586  156.7491 H   0  0  0  0  0  0  0  0  0  0  0  0
  147.7211  140.6179  157.0530 H   0  0  0  0  0  0  0  0  0  0  0  0
  146.1266  141.4927  153.6982 H   0  0  0  0  0  0  0  0  0  0  0  0
  147.4526  142.5311  153.1656 H   0  0  0  0  0  0  0  0  0  0  0  0
  146.4028  143.0383  154.4795 H   0  0  0  0  0  0  0  0  0  0  0  0
  150.6969  138.4322  154.0804 H   0  0  0  0  0  0  0  0  0  0  0  0
  151.4573  140.0016  153.9767 H   0  0  0  0  0  0  0  0  0  0  0  0
  152.9770  138.5465  155.0654 H   0  0  0  0  0  0  0  0  0  0  0  0
  151.5216  136.6925  155.7171 H   0  0  0  0  0  0  0  0  0  0  0  0
  150.7700  137.6517  156.9807 H   0  0  0  0  0  0  0  0  0  0  0  0
  152.4733  137.2137  157.1014 H   0  0  0  0  0  0  0  0  0  0  0  0
  147.4030  135.9712  152.1376 H   0  0  0  0  0  0  0  0  0  0  0  0
  1  2  1  0  0  0  0
  1 24  1  0  0  0  0
  1 25  1  0  0  0  0
  1 26  1  0  0  0  0
  2 23  1  0  0  0  0
  2  3  1  0  0  0  0
  2 27  1  0  0  0  0
  3  4  1  0  0  0  0
  3 28  1  0  0  0  0
  3 29  1  0  0  0  0
  4  5  1  0  0  0  0
  4 20  1  0  0  0  0
  5  6  1  0  0  0  0
  5 17  1  0  0  0  0
  5 30  1  0  0  0  0
  6  7  2  0  0  0  0
  6  8  1  0  0  0  0
  8  9  1  0  0  0  0
  8 31  1  0  0  0  0
  9 10  1  0  0  0  0
  9 32  1  0  0  0  0
  9 33  1  0  0  0  0
 10 11  1  0  0  0  0
 10 34  1  0  0  0  0
 10 35  1  0  0  0  0
 11 16  1  0  0  0  0
 11 12  2  0  0  0  0
 12 13  1  0  0  0  0
 12 36  1  0  0  0  0
 13 14  2  0  0  0  0
 13 37  1  0  0  0  0
 14 15  1  0  0  0  0
 14 38  1  0  0  0  0
 15 16  2  0  0  0  0
 15 39  1  0  0  0  0
 16 53  1  0  0  0  0
 17 18  1  0  0  0  0
 17 19  1  0  0  0  0
 17 40  1  0  0  0  0
 18 41  1  0  0  0  0
 18 42  1  0  0  0  0
 18 43  1  0  0  0  0
 19 44  1  0  0  0  0
 19 45  1  0  0  0  0
 19 46  1  0  0  0  0
 20 21  1  0  0  0  0
 20 47  1  0  0  0  0
 20 48  1  0  0  0  0
 21 22  1  0  0  0  0
 21 23  1  0  0  0  0
 21 49  1  0  0  0  0
 22 50  1  0  0  0  0
 22 51  1  0  0  0  0
 22 52  1  0  0  0  0
M  CHG  1  16   1
M  END
> <s_m_source_file>
AV-unprocessed.smi

> <i_m_source_file_index>
1762

> <i_lp_mmshare_version>
43012

> <i_f3d_flags>
0

> <s_epik_input>
W0NIM11bQ0BASF0xW0NIMl1OKFtDSDJdW0NASF0oTzEpW0NIM10pW0NAQEhdKFtDSF0oW0NIM10pW0NIM10pQyg9TylbTkhdW0NIMl1bQ0gyXWMyW2NIXVtjSF1bY0hdW2NIXW4y

> <s_epik_cmdline>
J2VwaWtfcHl0aG9uJywgJy1waCcsICc3LjAnLCAnLXRuJywgJzgnLCAnLW1hJywgJzIwMCcsICctbWV0YWxfYmluZGluZycsICctaW1hZScsICc8aW5maWxlLm1hZT4nLCAnLW9tYWUnLCAnPG91dGZpbGUubWFlPic=

> <r_epik_Ionization_Penalty>
1.86475

> <r_epik_Ionization_Penalty_Charging>
1.85347

> <r_epik_Ionization_Penalty_Neutral>
0.0112771

> <r_epik_State_Penalty>
1.99714

> <r_epik_Charging_Adjusted_Penalty>
3.85061

> <i_epik_Tot_Q>
1

> <i_epik_Tot_abs_Q>
1

> <r_epik_Metal_State_Penalty>
2.02271

> <b_epik_Metal_Only>
0

> <s_lp_Force_Field>
OPLS_2005

> <r_lp_Energy>
36.5288

> <b_lp_Chiralities_Consistent>
1

> <s_lp_Variant>
AV-unprocessed.smi:1762-12

> <Gold.Version>
5.8.1

> <Gold.Id.Protein>
6NUR|6NUR_protein|mol2

> <Gold.PLP.Fitness>
48.1687

> <Gold.PLP.PLP>
-41.0848

> <Gold.PLP.part.hbond>
-2.9348

> <Gold.PLP.part.metal>
0.0000

> <Gold.PLP.part.buried>
-4.1889

> <Gold.PLP.part.nonpolar>
-34.6524

> <Gold.PLP.part.repulsive>
0.3235

> <Gold.PLP.ligand.clash>
0.0000

> <Gold.PLP.ligand.torsion>
1.1443

> <Gold.PLP.Chemscore.Hbond>
3.0000

> <Gold.PLP.Chemscore.CHOScore>
0.0000

> <Gold.PLP.Chemscore.Metal>
0.0000

> <Gold.Chemscore.Hbonds>
donor molecule, donor type, donor heavy atom, donor atom, acceptor molecule, acceptor atom, score
      L1  H    16    53       P1  7948  2.00
      P1  H  7997  8008       L1    23  1.00

> <Gold.PLP.Chemscore.Internal.Correction>
0.3725

> <Gold.Rescore>
     Score         DG    S(hbond)    S(metal)    S(lipo)     H(rot)  DE(clash)    DE(int)     intcor
     17.26     -19.93       2.02        0.00     103.34       1.72       0.08       2.58       ----

> <Gold.Chemscore.Fitness>
17.2644

> <Gold.Chemscore.DG>
-19.9286

> <Gold.Chemscore.ZeroCoef>
-5.4800

> <Gold.Chemscore.Hbond>
2.0222

> <Gold.Chemscore.Metal>
0.0000

> <Gold.Chemscore.Lipo>
103.3415

> <Gold.Chemscore.Internal_Hbond>
0.0000

> <Gold.Chemscore.DEClash>
0.0795

> <Gold.Chemscore.DEInternal>
2.5848

> <Gold.Chemscore.Rot>
1.7174

> <Gold.Chemscore.Internal.Correction>
   9.000000E+99

> <Gold.Chemscore.Hbonds>
donor molecule, donor type, donor heavy atom, donor atom, acceptor molecule, acceptor atom, score
      L1  H    16    53       P1  7948  0.93
      P1  H  7997  8008       L1    23  0.70

> <Gold.Chemscore.Hbond.Weighted>
-6.7542

> <Gold.Chemscore.Metal.Weighted>
-0.0000

> <Gold.Chemscore.Lipo.Weighted>
-12.0910

> <Gold.Chemscore.Internal_Hbond.Weighted>
0.0000

> <Gold.Chemscore.DEClash.Weighted>
0.0795

> <Gold.Chemscore.DEInternal.Weighted>
2.5848

> <Gold.Chemscore.Rot.Weighted>
4.3966

> <Gold.Chemscore.Internal.Correction.Weighted>
   9.000000E+99

> <Gold.Protein.RotatedTorsions>
[ 6907 6896 6895 6894 ] final -152.94 input  -60.11 | X-H torsion
[ 7974 7965 7964 7962 ] final -171.37 input  175.53 | X-H torsion
[ 8008 7997 7996 7995 ] final  -41.71 input   59.86 | X-H torsion
[ 10167 10162 10161 10158 ] final  145.93 input  -65.29 | X-H torsion
[ 10718 10713 10712 10709 ] final   -4.84 input   66.30 | X-H torsion
[ 10763 10752 10751 10750 ] final  110.54 input  -60.55 | X-H torsion
[ 11005 11000 10999 10996 ] final -106.99 input  -57.11 | X-H torsion

> <Gold.Protein.ActiveResidues>
 VAL166  LYS551  ARG553  GLY616  TRP617  ASP618  TYR619  PRO620  LYS621  CYS622 
 ASP623  PHE694  ASN695  SER759  ASP760  ASP761  ALA762  ILE779  LEU786  VAL792 
 PHE793  MET794  SER795  GLU796  ALA797  LYS798  CYS799  TRP800  GLU811  SER814 

> <Gold.Protein.RotatedAtoms>
  151.2353  133.4428  159.2605 H   0  0  0  0  0  0  0  0  0  0  0  0  # atno 6907 bound_to 6896
  151.0756  134.9826  159.8341 H   0  0  0  0  0  0  0  0  0  0  0  0  # atno 6908 bound_to 6896
  152.5418  134.2295  159.8872 H   0  0  0  0  0  0  0  0  0  0  0  0  # atno 6909 bound_to 6896
  144.7158  140.1932  143.6346 H   0  0  0  0  0  0  0  0  0  0  0  0  # atno 7974 bound_to 7965
  154.4002  140.1492  156.3235 H   0  0  0  0  0  0  0  0  0  0  0  0  # atno 8008 bound_to 7997
  155.8508  140.3458  155.5670 H   0  0  0  0  0  0  0  0  0  0  0  0  # atno 8009 bound_to 7997
  155.7987  140.0867  157.1960 H   0  0  0  0  0  0  0  0  0  0  0  0  # atno 8010 bound_to 7997
  139.4916  144.5866  151.6766 H   0  0  0  0  0  0  0  0  0  0  0  0  # atno 10167 bound_to 10162
  156.7553  130.5252  149.5796 H   0  0  0  0  0  0  0  0  0  0  0  0  # atno 10718 bound_to 10713
  153.4505  135.3745  155.2281 H   0  0  0  0  0  0  0  0  0  0  0  0  # atno 10763 bound_to 10752
  154.8756  135.3884  154.4044 H   0  0  0  0  0  0  0  0  0  0  0  0  # atno 10764 bound_to 10752
  153.4603  135.7086  153.6118 H   0  0  0  0  0  0  0  0  0  0  0  0  # atno 10765 bound_to 10752
  141.0977  133.8941  157.1922 H   0  0  0  0  0  0  0  0  0  0  0  0  # atno 11005 bound_to 11000
  145.8749  139.2292  143.1639 LP  0  0  0  0  0  0  0  0  0  0  0  0  # atno 17320 bound_to 7965
  146.0050  140.8487  142.9999 LP  0  0  0  0  0  0  0  0  0  0  0  0  # atno 17321 bound_to 7965
  140.5484  144.0466  150.6116 LP  0  0  0  0  0  0  0  0  0  0  0  0  # atno 17342 bound_to 10162
  140.3512  143.2962  152.0485 LP  0  0  0  0  0  0  0  0  0  0  0  0  # atno 17343 bound_to 10162
  156.1374  130.6221  151.0420 LP  0  0  0  0  0  0  0  0  0  0  0  0  # atno 17370 bound_to 10713
  157.6759  131.0850  150.7496 LP  0  0  0  0  0  0  0  0  0  0  0  0  # atno 17371 bound_to 10713
  139.9818  135.0095  156.9768 LP  0  0  0  0  0  0  0  0  0  0  0  0  # atno 17394 bound_to 11000
  140.5100  134.1012  155.7268 LP  0  0  0  0  0  0  0  0  0  0  0  0  # atno 17395 bound_to 11000

$$$$
