AV-unprocessed.smi:103|AV-procd|sdf|985|dock5
  -GOLD-   2262017553D 1   1.00000     0.00000
 Structure written by MMmdl.
 53 55  0  0  0  0  0  0  0  0  1 V2000
  146.2139  142.8845  154.6103 C   0  0  0  0  0  0  0  0  0  0  0  0
  146.1392  142.4408  156.0654 C   0  0  0  0  0  0  0  0  0  0  0  0
  145.4911  143.0755  156.8978 O   0  0  0  0  0  0  0  0  0  0  0  0
  146.8453  141.3188  156.2954 O   0  0  0  0  0  0  0  0  0  0  0  0
  146.8545  140.7240  157.5865 C   0  0  0  0  0  0  0  0  0  0  0  0
  147.0597  139.2010  157.4892 C   0  0  2  0  0  0  0  0  0  0  0  0
  147.2574  138.6372  158.7789 O   0  0  0  0  0  0  0  0  0  0  0  0
  147.9396  137.4337  158.6586 C   0  0  1  0  0  0  0  0  0  0  0  0
  146.9246  136.3150  158.5240 N   0  0  0  0  0  0  0  0  0  0  0  0
  146.3159  135.6131  159.5495 C   0  0  0  0  0  0  0  0  0  0  0  0
  146.6229  135.7996  161.3042 S   0  0  0  0  0  0  0  0  0  0  0  0
  147.1086  134.0932  161.7889 C   0  0  0  0  0  0  0  0  0  0  0  0
  147.7773  136.6988  161.4540 O   0  0  0  0  0  0  0  0  0  0  0  0
  145.3340  136.1319  161.9317 O   0  0  0  0  0  0  0  0  0  0  0  0
  145.5051  134.6497  159.2114 N   0  0  0  0  0  0  0  0  0  0  0  0
  145.4661  134.7435  157.8313 C   0  0  0  0  0  0  0  0  0  0  0  0
  144.7657  134.0319  156.8246 C   0  0  0  0  0  0  0  0  0  0  0  0
  143.9263  133.0219  157.0931 N   0  0  0  0  0  0  0  0  0  0  0  0
  144.9480  134.3884  155.5330 N   0  0  0  0  0  0  0  0  0  0  0  0
  145.7765  135.3943  155.2421 C   0  0  0  0  0  0  0  0  0  0  0  0
  146.4999  136.1448  156.0755 N   0  0  0  0  0  0  0  0  0  0  0  0
  146.3254  135.7902  157.3837 C   0  0  0  0  0  0  0  0  0  0  0  0
  148.9170  137.6155  157.4846 C   0  0  1  0  0  0  0  0  0  0  0  0
  149.1222  136.4374  156.7140 O   0  0  0  0  0  0  0  0  0  0  0  0
  149.5453  135.3071  157.3032 C   0  0  0  0  0  0  0  0  0  0  0  0
  150.0813  134.2960  156.2994 C   0  0  0  0  0  0  0  0  0  0  0  0
  149.5097  135.0617  158.5089 O   0  0  0  0  0  0  0  0  0  0  0  0
  148.2875  138.7480  156.6682 C   0  0  2  0  0  0  0  0  0  0  0  0
  149.2342  139.7986  156.4971 O   0  0  0  0  0  0  0  0  0  0  0  0
  150.3665  139.5856  155.8018 C   0  0  0  0  0  0  0  0  0  0  0  0
  151.4074  140.6722  156.0364 C   0  0  0  0  0  0  0  0  0  0  0  0
  150.5896  138.6335  155.0539 O   0  0  0  0  0  0  0  0  0  0  0  0
  147.2528  142.9962  154.3000 H   0  0  0  0  0  0  0  0  0  0  0  0
  145.7085  143.8409  154.4749 H   0  0  0  0  0  0  0  0  0  0  0  0
  145.7355  142.1471  153.9655 H   0  0  0  0  0  0  0  0  0  0  0  0
  147.6921  141.1632  158.1285 H   0  0  0  0  0  0  0  0  0  0  0  0
  145.9546  140.9690  158.1531 H   0  0  0  0  0  0  0  0  0  0  0  0
  146.1629  138.7601  157.0564 H   0  0  0  0  0  0  0  0  0  0  0  0
  148.4799  137.2010  159.5723 H   0  0  0  0  0  0  0  0  0  0  0  0
  147.3059  134.0632  162.8601 H   0  0  0  0  0  0  0  0  0  0  0  0
  148.0053  133.7959  161.2471 H   0  0  0  0  0  0  0  0  0  0  0  0
  146.2979  133.4051  161.5503 H   0  0  0  0  0  0  0  0  0  0  0  0
  143.7711  132.7383  158.0499 H   0  0  0  0  0  0  0  0  0  0  0  0
  143.4473  132.5500  156.3398 H   0  0  0  0  0  0  0  0  0  0  0  0
  145.8771  135.6301  154.1929 H   0  0  0  0  0  0  0  0  0  0  0  0
  149.8635  137.9658  157.9009 H   0  0  0  0  0  0  0  0  0  0  0  0
  150.6777  134.7955  155.5354 H   0  0  0  0  0  0  0  0  0  0  0  0
  149.2561  133.7771  155.8112 H   0  0  0  0  0  0  0  0  0  0  0  0
  150.7091  133.5576  156.7988 H   0  0  0  0  0  0  0  0  0  0  0  0
  147.9467  138.3973  155.6929 H   0  0  0  0  0  0  0  0  0  0  0  0
  150.9284  141.6453  156.1465 H   0  0  0  0  0  0  0  0  0  0  0  0
  152.1010  140.7230  155.1969 H   0  0  0  0  0  0  0  0  0  0  0  0
  151.9756  140.4601  156.9421 H   0  0  0  0  0  0  0  0  0  0  0  0
  1  2  1  0  0  0  0
  1 33  1  0  0  0  0
  1 34  1  0  0  0  0
  1 35  1  0  0  0  0
  2  3  2  0  0  0  0
  2  4  1  0  0  0  0
  4  5  1  0  0  0  0
  5  6  1  0  0  0  0
  5 36  1  0  0  0  0
  5 37  1  0  0  0  0
  6 28  1  0  0  0  0
  6  7  1  0  0  0  0
  6 38  1  0  0  0  0
  7  8  1  0  0  0  0
  8  9  1  0  0  0  0
  8 23  1  0  0  0  0
  8 39  1  0  0  0  0
  9 22  1  0  0  0  0
  9 10  1  0  0  0  0
 10 11  1  0  0  0  0
 10 15  2  0  0  0  0
 11 12  1  0  0  0  0
 11 13  2  0  0  0  0
 11 14  2  0  0  0  0
 12 40  1  0  0  0  0
 12 41  1  0  0  0  0
 12 42  1  0  0  0  0
 15 16  1  0  0  0  0
 16 22  2  0  0  0  0
 16 17  1  0  0  0  0
 17 18  1  0  0  0  0
 17 19  2  0  0  0  0
 18 43  1  0  0  0  0
 18 44  1  0  0  0  0
 19 20  1  0  0  0  0
 20 21  2  0  0  0  0
 20 45  1  0  0  0  0
 21 22  1  0  0  0  0
 23 24  1  0  0  0  0
 23 28  1  0  0  0  0
 23 46  1  0  0  0  0
 24 25  1  0  0  0  0
 25 26  1  0  0  0  0
 25 27  2  0  0  0  0
 26 47  1  0  0  0  0
 26 48  1  0  0  0  0
 26 49  1  0  0  0  0
 28 29  1  0  0  0  0
 28 50  1  0  0  0  0
 29 30  1  0  0  0  0
 30 31  1  0  0  0  0
 30 32  2  0  0  0  0
 31 51  1  0  0  0  0
 31 52  1  0  0  0  0
 31 53  1  0  0  0  0
M  END
> <s_m_source_file>
AV-unprocessed.smi

> <i_m_source_file_index>
103

> <i_lp_mmshare_version>
43012

> <i_f3d_flags>
0

> <s_epik_input>
W0NIM11DKD1PKU9bQ0gyXVtDQEBIXTFPW0NASF0oW0NAQEhdKE9DKD1PKVtDSDNdKVtDQEhdMU9DKD1PKVtDSDNdKW4oYyhuMilTKD1PKSg9TylbQ0gzXSljKGMyMyluW2NIXW5jM1tOSDJd

> <s_epik_cmdline>
J2VwaWtfcHl0aG9uJywgJy1waCcsICc3LjAnLCAnLXRuJywgJzgnLCAnLW1hJywgJzIwMCcsICctbWV0YWxfYmluZGluZycsICctaW1hZScsICc8aW5maWxlLm1hZT4nLCAnLW9tYWUnLCAnPG91dGZpbGUubWFlPic=

> <r_lp_tautomer_probability>
1

> <r_epik_Ionization_Penalty>
1.51338e-05

> <r_epik_Ionization_Penalty_Charging>
0

> <r_epik_Ionization_Penalty_Neutral>
1.51338e-05

> <r_epik_State_Penalty>
-0

> <r_epik_Charging_Adjusted_Penalty>
0

> <i_epik_Tot_Q>
0

> <i_epik_Tot_abs_Q>
0

> <r_epik_Metal_State_Penalty>
-0

> <b_epik_Metal_Only>
0

> <s_epik_Chemistry_Notes>
This compound has an ester and may undergo hydrolysis at high or low pH. This compound contains an acetal/aminal-like group ( X-CH(R)-Y where X, Y are N, S, or O) that may be acid/base labile, releasing an aldehyde.

> <s_lp_Force_Field>
OPLS_2005

> <r_lp_Energy>
17.8584

> <b_lp_Chiralities_Consistent>
1

> <s_lp_Variant>
AV-unprocessed.smi:103-9

> <Gold.Version>
5.8.1

> <Gold.Id.Protein>
6NUR|6NUR_protein|mol2

> <Gold.PLP.Fitness>
34.6036

> <Gold.PLP.PLP>
-25.7228

> <Gold.PLP.part.hbond>
-5.0000

> <Gold.PLP.part.metal>
0.0000

> <Gold.PLP.part.buried>
-4.8875

> <Gold.PLP.part.nonpolar>
-15.6981

> <Gold.PLP.part.repulsive>
0.3946

> <Gold.PLP.ligand.clash>
0.0000

> <Gold.PLP.ligand.torsion>
2.4725

> <Gold.PLP.Chemscore.Hbond>
3.8400

> <Gold.PLP.Chemscore.CHOScore>
0.0000

> <Gold.PLP.Chemscore.Metal>
0.0000

> <Gold.Chemscore.Hbonds>
donor molecule, donor type, donor heavy atom, donor atom, acceptor molecule, acceptor atom, score
      L1  H    18    44       P1 10957  1.00
      P1  H  6896  6909       L1    27  1.00
      P1  H  6931  6943       L1    13  0.96
      P1  H  6934  6947       L1     7  0.12

> <Gold.PLP.Chemscore.Internal.Correction>
2.3058

> <Gold.Rescore>
     Score         DG    S(hbond)    S(metal)    S(lipo)     H(rot)  DE(clash)    DE(int)     intcor
      5.71     -10.47       3.76        0.00      28.26       4.25       0.02       4.75       ----

> <Gold.Chemscore.Fitness>
5.7114

> <Gold.Chemscore.DG>
-10.4733

> <Gold.Chemscore.ZeroCoef>
-5.4800

> <Gold.Chemscore.Hbond>
3.7591

> <Gold.Chemscore.Metal>
0.0000

> <Gold.Chemscore.Lipo>
28.2616

> <Gold.Chemscore.Internal_Hbond>
0.0000

> <Gold.Chemscore.DEClash>
0.0158

> <Gold.Chemscore.DEInternal>
4.7461

> <Gold.Chemscore.Rot>
4.2456

> <Gold.Chemscore.Internal.Correction>
   9.000000E+99

> <Gold.Chemscore.Hbonds>
donor molecule, donor type, donor heavy atom, donor atom, acceptor molecule, acceptor atom, score
      L1  H    18    44       P1 10957  1.00
      P1  H  6896  6909       L1    27  0.99
      P1  H  6931  6943       L1    13  0.91
      P1  H  6934  6947       L1     7  0.07

> <Gold.Chemscore.Hbond.Weighted>
-12.5553

> <Gold.Chemscore.Metal.Weighted>
-0.0000

> <Gold.Chemscore.Lipo.Weighted>
-3.3066

> <Gold.Chemscore.Internal_Hbond.Weighted>
0.0000

> <Gold.Chemscore.DEClash.Weighted>
0.0158

> <Gold.Chemscore.DEInternal.Weighted>
4.7461

> <Gold.Chemscore.Rot.Weighted>
10.8687

> <Gold.Chemscore.Internal.Correction.Weighted>
   9.000000E+99

> <Gold.Protein.RotatedTorsions>
[ 6907 6896 6895 6894 ] final   31.64 input  -60.11 | X-H torsion
[ 7974 7965 7964 7962 ] final  -24.79 input  175.53 | X-H torsion
[ 8008 7997 7996 7995 ] final -147.74 input   59.86 | X-H torsion
[ 10167 10162 10161 10158 ] final -129.45 input  -65.29 | X-H torsion
[ 10718 10713 10712 10709 ] final   16.91 input   66.30 | X-H torsion
[ 10763 10752 10751 10750 ] final  135.85 input  -60.55 | X-H torsion
[ 11005 11000 10999 10996 ] final  169.40 input  -57.11 | X-H torsion

> <Gold.Protein.ActiveResidues>
 VAL166  LYS551  ARG553  GLY616  TRP617  ASP618  TYR619  PRO620  LYS621  CYS622 
 ASP623  PHE694  ASN695  SER759  ASP760  ASP761  ALA762  ILE779  LEU786  VAL792 
 PHE793  MET794  SER795  GLU796  ALA797  LYS798  CYS799  TRP800  GLU811  SER814 

> <Gold.Protein.RotatedAtoms>
  152.0631  134.9581  160.0574 H   0  0  0  0  0  0  0  0  0  0  0  0  # atno 6907 bound_to 6896
  152.0937  133.4208  159.4563 H   0  0  0  0  0  0  0  0  0  0  0  0  # atno 6908 bound_to 6896
  150.6837  134.2762  159.4651 H   0  0  0  0  0  0  0  0  0  0  0  0  # atno 6909 bound_to 6896
  146.1532  140.4799  142.8602 H   0  0  0  0  0  0  0  0  0  0  0  0  # atno 7974 bound_to 7965
  155.5805  140.0643  157.2784 H   0  0  0  0  0  0  0  0  0  0  0  0  # atno 8008 bound_to 7997
  154.4334  140.1853  156.1018 H   0  0  0  0  0  0  0  0  0  0  0  0  # atno 8009 bound_to 7997
  156.0309  140.3306  155.7142 H   0  0  0  0  0  0  0  0  0  0  0  0  # atno 8010 bound_to 7997
  139.9397  143.6178  152.2507 H   0  0  0  0  0  0  0  0  0  0  0  0  # atno 10167 bound_to 10162
  157.0746  130.6362  149.5813 H   0  0  0  0  0  0  0  0  0  0  0  0  # atno 10718 bound_to 10713
  153.8467  135.3084  155.3430 H   0  0  0  0  0  0  0  0  0  0  0  0  # atno 10763 bound_to 10752
  154.7909  135.4783  154.0053 H   0  0  0  0  0  0  0  0  0  0  0  0  # atno 10764 bound_to 10752
  153.1543  135.6849  153.8929 H   0  0  0  0  0  0  0  0  0  0  0  0  # atno 10765 bound_to 10752
  140.2974  134.7623  157.3888 H   0  0  0  0  0  0  0  0  0  0  0  0  # atno 11005 bound_to 11000
  144.7930  140.6069  143.6528 LP  0  0  0  0  0  0  0  0  0  0  0  0  # atno 17320 bound_to 7965
  145.4772  139.1498  143.3782 LP  0  0  0  0  0  0  0  0  0  0  0  0  # atno 17321 bound_to 7965
  139.6715  144.7660  151.1775 LP  0  0  0  0  0  0  0  0  0  0  0  0  # atno 17342 bound_to 10162
  140.7614  143.5858  150.8847 LP  0  0  0  0  0  0  0  0  0  0  0  0  # atno 17343 bound_to 10162
  155.9941  130.5004  150.7405 LP  0  0  0  0  0  0  0  0  0  0  0  0  # atno 17370 bound_to 10713
  157.4850  131.0906  151.0492 LP  0  0  0  0  0  0  0  0  0  0  0  0  # atno 17371 bound_to 10713
  140.1140  134.5307  155.8241 LP  0  0  0  0  0  0  0  0  0  0  0  0  # atno 17394 bound_to 11000
  141.2135  133.6734  156.6742 LP  0  0  0  0  0  0  0  0  0  0  0  0  # atno 17395 bound_to 11000

$$$$
