AV-unprocessed.smi:3234|AV-procd|sdf|12358|dock6
  -GOLD-   2272018223D 1   1.00000     0.00000
 Structure written by MMmdl.
 37 39  0  0  0  0  0  0  0  0  4 V2000
  151.9154  137.8754  156.7034 O   0  0  0  0  0  0  0  0  0  0  0  0
  151.3506  137.4053  155.7088 C   0  0  0  0  0  0  0  0  0  0  0  0
  150.5971  138.1931  154.9213 N   0  0  0  0  0  0  0  0  0  0  0  0
  150.2833  139.5694  155.0800 C   0  0  0  0  0  0  0  0  0  0  0  0
  149.1321  140.0636  154.4283 C   0  0  0  0  0  0  0  0  0  0  0  0
  148.7767  141.4191  154.5806 C   0  0  0  0  0  0  0  0  0  0  0  0
  149.5289  142.2286  155.3569 N   0  3  0  0  0  0  0  0  0  0  0  0
  150.6265  141.7966  156.0145 C   0  0  0  0  0  0  0  0  0  0  0  0
  151.0313  140.4515  155.8999 C   0  0  0  0  0  0  0  0  0  0  0  0
  151.3998  136.1225  155.2578 N   0  5  0  0  0  0  0  0  0  0  0  0
  150.5273  135.0417  155.7212 C   0  0  2  0  0  0  0  0  0  0  0  0
  151.3311  133.8301  156.1955 C   0  0  0  0  0  0  0  0  0  0  0  0
  150.3865  132.6377  155.9797 C   0  0  0  0  0  0  0  0  0  0  0  0
  149.3061  133.1078  155.0810 N   0  3  2  0  0  0  0  0  0  0  0  0
  148.9368  132.1525  154.0145 C   0  0  0  0  0  0  0  0  0  0  0  0
  148.1379  132.7773  152.8958 C   0  0  0  0  0  0  0  0  0  0  0  0
  147.4515  131.8998  153.9203 C   0  0  0  0  0  0  0  0  0  0  0  0
  149.6896  134.4452  154.5895 C   0  0  0  0  0  0  0  0  0  0  0  0
  150.2652  137.7633  154.0701 H   0  0  0  0  0  0  0  0  0  0  0  0
  148.5300  139.4132  153.8100 H   0  0  0  0  0  0  0  0  0  0  0  0
  147.9182  141.8757  154.1103 H   0  0  0  0  0  0  0  0  0  0  0  0
  151.1412  142.5322  156.6149 H   0  0  0  0  0  0  0  0  0  0  0  0
  151.8977  140.1142  156.4488 H   0  0  0  0  0  0  0  0  0  0  0  0
  149.8618  135.3554  156.5274 H   0  0  0  0  0  0  0  0  0  0  0  0
  152.2224  133.6956  155.5797 H   0  0  0  0  0  0  0  0  0  0  0  0
  151.6571  133.9245  157.2317 H   0  0  0  0  0  0  0  0  0  0  0  0
  150.9298  131.7925  155.5536 H   0  0  0  0  0  0  0  0  0  0  0  0
  149.9439  132.3019  156.9188 H   0  0  0  0  0  0  0  0  0  0  0  0
  149.6499  131.3565  153.8064 H   0  0  0  0  0  0  0  0  0  0  0  0
  147.9425  133.8476  152.9381 H   0  0  0  0  0  0  0  0  0  0  0  0
  148.2695  132.3683  151.8963 H   0  0  0  0  0  0  0  0  0  0  0  0
  147.1300  130.9123  153.5954 H   0  0  0  0  0  0  0  0  0  0  0  0
  146.7992  132.3870  154.6429 H   0  0  0  0  0  0  0  0  0  0  0  0
  148.8136  135.0492  154.3508 H   0  0  0  0  0  0  0  0  0  0  0  0
  150.2884  134.3418  153.6823 H   0  0  0  0  0  0  0  0  0  0  0  0
  148.4944  133.2473  155.6652 H   0  0  0  0  0  0  0  0  0  0  0  0
  149.2533  143.2060  155.4552 H   0  0  0  0  0  0  0  0  0  0  0  0
  1  2  2  0  0  0  0
  2  3  1  0  0  0  0
  2 10  1  0  0  0  0
  3  4  1  0  0  0  0
  3 19  1  0  0  0  0
  4  9  1  0  0  0  0
  4  5  2  0  0  0  0
  5  6  1  0  0  0  0
  5 20  1  0  0  0  0
  6  7  2  0  0  0  0
  6 21  1  0  0  0  0
  7  8  1  0  0  0  0
  7 37  1  0  0  0  0
  8  9  2  0  0  0  0
  8 22  1  0  0  0  0
  9 23  1  0  0  0  0
 10 11  1  0  0  0  0
 11 18  1  0  0  0  0
 11 12  1  0  0  0  0
 11 24  1  0  0  0  0
 12 13  1  0  0  0  0
 12 25  1  0  0  0  0
 12 26  1  0  0  0  0
 13 14  1  0  0  0  0
 13 27  1  0  0  0  0
 13 28  1  0  0  0  0
 14 15  1  0  0  0  0
 14 18  1  0  0  0  0
 14 36  1  0  0  0  0
 15 17  1  0  0  0  0
 15 16  1  0  0  0  0
 15 29  1  0  0  0  0
 16 17  1  0  0  0  0
 16 30  1  0  0  0  0
 16 31  1  0  0  0  0
 17 32  1  0  0  0  0
 17 33  1  0  0  0  0
 18 34  1  0  0  0  0
 18 35  1  0  0  0  0
M  CHG  1   7   1
M  CHG  1  10  -1
M  CHG  1  14   1
M  END
> <s_m_source_file>
AV-unprocessed.smi

> <i_m_source_file_index>
3234

> <i_lp_mmshare_version>
43012

> <i_f3d_flags>
0

> <s_epik_input>
W2NIXTFbY0hdbltjSF1bY0hdYzFbTkhdQyg9TylbTkhdW0NAQEhdMltDSDJdW0NIMl1OKFtDSDJdMilbQ0hdM1tDSDJdW0NIMl0z

> <s_epik_cmdline>
J2VwaWtfcHl0aG9uJywgJy1waCcsICc3LjAnLCAnLXRuJywgJzgnLCAnLW1hJywgJzIwMCcsICctbWV0YWxfYmluZGluZycsICctaW1hZScsICc8aW5maWxlLm1hZT4nLCAnLW9tYWUnLCAnPG91dGZpbGUubWFlPic=

> <r_epik_Ionization_Penalty>
8.3234

> <r_epik_Ionization_Penalty_Charging>
8.3234

> <r_epik_Ionization_Penalty_Neutral>
3.58513e-06

> <r_epik_State_Penalty>
7.99376

> <r_epik_Charging_Adjusted_Penalty>
16.3172

> <i_epik_Tot_Q>
1

> <i_epik_Tot_abs_Q>
3

> <r_epik_Metal_State_Penalty>
3.98956

> <b_epik_Metal_Only>
1

> <s_lp_Force_Field>
OPLS_2005

> <r_lp_Energy>
39.7431

> <b_lp_Chiralities_Consistent>
1

> <s_lp_Variant>
AV-unprocessed.smi:3234-11

> <Gold.Version>
5.8.1

> <Gold.Id.Protein>
6NUR|6NUR_protein|mol2

> <Gold.PLP.Fitness>
42.0219

> <Gold.PLP.PLP>
-32.1329

> <Gold.PLP.part.hbond>
-2.0000

> <Gold.PLP.part.metal>
0.0000

> <Gold.PLP.part.buried>
-4.3948

> <Gold.PLP.part.nonpolar>
-26.4843

> <Gold.PLP.part.repulsive>
0.3738

> <Gold.PLP.ligand.clash>
0.0000

> <Gold.PLP.ligand.torsion>
1.6949

> <Gold.PLP.Chemscore.Hbond>
4.0000

> <Gold.PLP.Chemscore.CHOScore>
0.0000

> <Gold.PLP.Chemscore.Metal>
0.0000

> <Gold.Chemscore.Hbonds>
donor molecule, donor type, donor heavy atom, donor atom, acceptor molecule, acceptor atom, score
      L1  H     7    37       P1  8028  2.00
      P1  H 10752 10765       L1    10  1.98

> <Gold.PLP.Chemscore.Internal.Correction>
1.2789

> <Gold.Rescore>
     Score         DG    S(hbond)    S(metal)    S(lipo)     H(rot)  DE(clash)    DE(int)     intcor
     14.30     -17.39       1.89        0.00      74.41       1.21       0.04       3.06       ----

> <Gold.Chemscore.Fitness>
14.2970

> <Gold.Chemscore.DG>
-17.3934

> <Gold.Chemscore.ZeroCoef>
-5.4800

> <Gold.Chemscore.Hbond>
1.8881

> <Gold.Chemscore.Metal>
0.0000

> <Gold.Chemscore.Lipo>
74.4150

> <Gold.Chemscore.Internal_Hbond>
0.0000

> <Gold.Chemscore.DEClash>
0.0366

> <Gold.Chemscore.DEInternal>
3.0598

> <Gold.Chemscore.Rot>
1.2108

> <Gold.Chemscore.Internal.Correction>
   9.000000E+99

> <Gold.Chemscore.Hbonds>
donor molecule, donor type, donor heavy atom, donor atom, acceptor molecule, acceptor atom, score
      L1  H     7    37       P1  8028  0.97
      P1  H 10752 10765       L1    10  0.62

> <Gold.Chemscore.Hbond.Weighted>
-6.3064

> <Gold.Chemscore.Metal.Weighted>
-0.0000

> <Gold.Chemscore.Lipo.Weighted>
-8.7066

> <Gold.Chemscore.Internal_Hbond.Weighted>
0.0000

> <Gold.Chemscore.DEClash.Weighted>
0.0366

> <Gold.Chemscore.DEInternal.Weighted>
3.0598

> <Gold.Chemscore.Rot.Weighted>
3.0996

> <Gold.Chemscore.Internal.Correction.Weighted>
   9.000000E+99

> <Gold.Protein.RotatedTorsions>
[ 6907 6896 6895 6894 ] final -139.96 input  -60.11 | X-H torsion
[ 7974 7965 7964 7962 ] final   83.10 input  175.53 | X-H torsion
[ 8008 7997 7996 7995 ] final   37.62 input   59.86 | X-H torsion
[ 10167 10162 10161 10158 ] final   42.08 input  -65.29 | X-H torsion
[ 10718 10713 10712 10709 ] final -164.49 input   66.30 | X-H torsion
[ 10763 10752 10751 10750 ] final -153.13 input  -60.55 | X-H torsion
[ 11005 11000 10999 10996 ] final   83.70 input  -57.11 | X-H torsion

> <Gold.Protein.ActiveResidues>
 VAL166  LYS551  ARG553  GLY616  TRP617  ASP618  TYR619  PRO620  LYS621  CYS622 
 ASP623  PHE694  ASN695  SER759  ASP760  ASP761  ALA762  ILE779  LEU786  VAL792 
 PHE793  MET794  SER795  GLU796  ALA797  LYS798  CYS799  TRP800  GLU811  SER814 

> <Gold.Protein.RotatedAtoms>
  151.0545  133.5595  159.2639 H   0  0  0  0  0  0  0  0  0  0  0  0  # atno 6907 bound_to 6896
  151.2594  135.0648  159.9102 H   0  0  0  0  0  0  0  0  0  0  0  0  # atno 6908 bound_to 6896
  152.5387  134.0293  159.8071 H   0  0  0  0  0  0  0  0  0  0  0  0  # atno 6909 bound_to 6896
  145.6163  139.2377  143.2164 H   0  0  0  0  0  0  0  0  0  0  0  0  # atno 7974 bound_to 7965
  155.2067  140.3320  155.4335 H   0  0  0  0  0  0  0  0  0  0  0  0  # atno 8008 bound_to 7997
  156.2386  140.1884  156.7100 H   0  0  0  0  0  0  0  0  0  0  0  0  # atno 8009 bound_to 7997
  154.6105  140.0609  156.9473 H   0  0  0  0  0  0  0  0  0  0  0  0  # atno 8010 bound_to 7997
  140.3579  144.2266  150.6140 H   0  0  0  0  0  0  0  0  0  0  0  0  # atno 10167 bound_to 10162
  156.6398  130.8964  151.2994 H   0  0  0  0  0  0  0  0  0  0  0  0  # atno 10718 bound_to 10713
  154.7948  135.3220  154.7692 H   0  0  0  0  0  0  0  0  0  0  0  0  # atno 10763 bound_to 10752
  153.8372  135.6874  153.4811 H   0  0  0  0  0  0  0  0  0  0  0  0  # atno 10764 bound_to 10752
  153.1635  135.4651  154.9746 H   0  0  0  0  0  0  0  0  0  0  0  0  # atno 10765 bound_to 10752
  139.9023  134.8163  156.2344 H   0  0  0  0  0  0  0  0  0  0  0  0  # atno 11005 bound_to 11000
  146.1466  140.6984  142.9342 LP  0  0  0  0  0  0  0  0  0  0  0  0  # atno 17320 bound_to 7965
  144.7249  140.4493  143.6980 LP  0  0  0  0  0  0  0  0  0  0  0  0  # atno 17321 bound_to 7965
  140.5156  143.2279  151.8469 LP  0  0  0  0  0  0  0  0  0  0  0  0  # atno 17342 bound_to 10162
  139.4818  144.4898  151.9199 LP  0  0  0  0  0  0  0  0  0  0  0  0  # atno 17343 bound_to 10162
  157.7174  130.9515  150.1308 LP  0  0  0  0  0  0  0  0  0  0  0  0  # atno 17370 bound_to 10713
  156.2168  130.3671  149.8604 LP  0  0  0  0  0  0  0  0  0  0  0  0  # atno 17371 bound_to 10713
  141.0325  133.6981  156.1454 LP  0  0  0  0  0  0  0  0  0  0  0  0  # atno 17394 bound_to 11000
  140.7076  134.4497  157.5583 LP  0  0  0  0  0  0  0  0  0  0  0  0  # atno 17395 bound_to 11000

$$$$
