AV-unprocessed.smi:2780|AV-procd|sdf|10713|dock7
  -GOLD-   2272015153D 1   1.00000     0.00000
 Structure written by MMmdl.
 47 49  0  0  0  0  0  0  0  0  2 V2000
  151.6064  144.7149  158.1005 C   0  0  0  0  0  0  0  0  0  0  0  0
  152.0061  143.9811  159.3702 C   0  0  0  0  0  0  0  0  0  0  0  0
  151.8720  144.5675  160.5764 C   0  0  0  0  0  0  0  0  0  0  0  0
  152.2959  143.9448  161.8951 C   0  0  0  0  0  0  0  0  0  0  0  0
  152.7367  142.4782  161.7572 C   0  0  0  0  0  0  0  0  0  0  0  0
  153.5016  142.2418  160.4432 C   0  0  1  0  0  0  0  0  0  0  0  0
  154.1527  140.8486  160.3950 C   0  0  0  0  0  0  0  0  0  0  0  0
  152.6128  142.5802  159.2129 C   0  0  1  0  0  0  0  0  0  0  0  0
  151.5357  141.4999  158.9303 C   0  0  0  0  0  0  0  0  0  0  0  0
  151.2010  141.3804  157.4977 N   0  3  0  0  0  0  0  0  0  0  0  0
  151.7612  140.1809  156.8470 C   0  0  0  0  0  0  0  0  0  0  0  0
  150.7703  139.5888  155.8357 C   0  0  0  0  0  0  0  0  0  0  0  0
  151.0183  138.1761  155.6113 N   0  0  0  0  0  0  0  0  0  0  0  0
  151.1002  137.5195  154.4437 C   0  0  0  0  0  0  0  0  0  0  0  0
  151.3524  136.2157  154.5460 N   0  0  0  0  0  0  0  0  0  0  0  0
  151.4534  135.9872  155.9038 N   0  0  0  0  0  0  0  0  0  0  0  0
  151.2362  137.1723  156.4859 C   0  0  0  0  0  0  0  0  0  0  0  0
  151.2861  137.3896  157.9648 C   0  0  0  0  0  0  0  0  0  0  0  0
  150.3812  136.6211  158.9026 C   0  0  0  0  0  0  0  0  0  0  0  0
  150.1602  138.0956  158.6881 C   0  0  0  0  0  0  0  0  0  0  0  0
  152.4045  144.6608  157.3599 H   0  0  0  0  0  0  0  0  0  0  0  0
  151.4152  145.7695  158.3025 H   0  0  0  0  0  0  0  0  0  0  0  0
  150.6977  144.3010  157.6670 H   0  0  0  0  0  0  0  0  0  0  0  0
  151.4657  145.5666  160.6422 H   0  0  0  0  0  0  0  0  0  0  0  0
  153.1226  144.5398  162.2844 H   0  0  0  0  0  0  0  0  0  0  0  0
  151.4822  144.0271  162.6160 H   0  0  0  0  0  0  0  0  0  0  0  0
  153.3542  142.2059  162.6141 H   0  0  0  0  0  0  0  0  0  0  0  0
  151.8632  141.8272  161.7979 H   0  0  0  0  0  0  0  0  0  0  0  0
  154.3312  142.9515  160.4317 H   0  0  0  0  0  0  0  0  0  0  0  0
  153.4262  140.0514  160.5513 H   0  0  0  0  0  0  0  0  0  0  0  0
  154.9081  140.7493  161.1750 H   0  0  0  0  0  0  0  0  0  0  0  0
  154.6469  140.6766  159.4385 H   0  0  0  0  0  0  0  0  0  0  0  0
  153.2808  142.6162  158.3510 H   0  0  0  0  0  0  0  0  0  0  0  0
  151.8818  140.5195  159.2545 H   0  0  0  0  0  0  0  0  0  0  0  0
  150.6251  141.7169  159.4896 H   0  0  0  0  0  0  0  0  0  0  0  0
  150.1951  141.3566  157.4071 H   0  0  0  0  0  0  0  0  0  0  0  0
  152.6925  140.4491  156.3476 H   0  0  0  0  0  0  0  0  0  0  0  0
  152.0069  139.4398  157.6092 H   0  0  0  0  0  0  0  0  0  0  0  0
  149.7464  139.7036  156.1941 H   0  0  0  0  0  0  0  0  0  0  0  0
  150.8302  140.1181  154.8843 H   0  0  0  0  0  0  0  0  0  0  0  0
  150.9743  138.0100  153.4895 H   0  0  0  0  0  0  0  0  0  0  0  0
  152.3054  137.5879  158.2901 H   0  0  0  0  0  0  0  0  0  0  0  0
  149.6564  135.9375  158.4647 H   0  0  0  0  0  0  0  0  0  0  0  0
  150.7985  136.3084  159.8576 H   0  0  0  0  0  0  0  0  0  0  0  0
  150.4296  138.7687  159.4993 H   0  0  0  0  0  0  0  0  0  0  0  0
  149.2839  138.3856  158.1124 H   0  0  0  0  0  0  0  0  0  0  0  0
  151.5489  142.1988  157.0187 H   0  0  0  0  0  0  0  0  0  0  0  0
  1  2  1  0  0  0  0
  1 21  1  0  0  0  0
  1 22  1  0  0  0  0
  1 23  1  0  0  0  0
  2  8  1  0  0  0  0
  2  3  2  0  0  0  0
  3  4  1  0  0  0  0
  3 24  1  0  0  0  0
  4  5  1  0  0  0  0
  4 25  1  0  0  0  0
  4 26  1  0  0  0  0
  5  6  1  0  0  0  0
  5 27  1  0  0  0  0
  5 28  1  0  0  0  0
  6  7  1  0  0  0  0
  6  8  1  0  0  0  0
  6 29  1  0  0  0  0
  7 30  1  0  0  0  0
  7 31  1  0  0  0  0
  7 32  1  0  0  0  0
  8  9  1  0  0  0  0
  8 33  1  0  0  0  0
  9 10  1  0  0  0  0
  9 34  1  0  0  0  0
  9 35  1  0  0  0  0
 10 11  1  0  0  0  0
 10 36  1  0  0  0  0
 10 47  1  0  0  0  0
 11 12  1  0  0  0  0
 11 37  1  0  0  0  0
 11 38  1  0  0  0  0
 12 13  1  0  0  0  0
 12 39  1  0  0  0  0
 12 40  1  0  0  0  0
 13 17  1  0  0  0  0
 13 14  1  0  0  0  0
 14 15  2  0  0  0  0
 14 41  1  0  0  0  0
 15 16  1  0  0  0  0
 16 17  2  0  0  0  0
 17 18  1  0  0  0  0
 18 20  1  0  0  0  0
 18 19  1  0  0  0  0
 18 42  1  0  0  0  0
 19 20  1  0  0  0  0
 19 43  1  0  0  0  0
 19 44  1  0  0  0  0
 20 45  1  0  0  0  0
 20 46  1  0  0  0  0
M  CHG  1  10   1
M  END
> <s_m_source_file>
AV-unprocessed.smi

> <i_m_source_file_index>
2780

> <i_lp_mmshare_version>
43012

> <i_f3d_flags>
0

> <s_epik_input>
W0NIM11DMT1bQ0hdW0NIMl1bQ0gyXVtDQEBIXShbQ0gzXSlbQ0BIXTFbQ0gyXVtOSF1bQ0gyXVtDSDJdbjJbY0hdbm5jMltDSF0zW0NIMl1bQ0gyXTM=

> <s_epik_cmdline>
J2VwaWtfcHl0aG9uJywgJy1waCcsICc3LjAnLCAnLXRuJywgJzgnLCAnLW1hJywgJzIwMCcsICctbWV0YWxfYmluZGluZycsICctaW1hZScsICc8aW5maWxlLm1hZT4nLCAnLW9tYWUnLCAnPG91dGZpbGUubWFlPic=

> <r_lp_tautomer_probability>
1

> <r_epik_Ionization_Penalty>
0.00176214

> <r_epik_Ionization_Penalty_Charging>
0.00175191

> <r_epik_Ionization_Penalty_Neutral>
1.02377e-05

> <r_epik_State_Penalty>
-0

> <r_epik_Charging_Adjusted_Penalty>
0.00175191

> <i_epik_Tot_Q>
1

> <i_epik_Tot_abs_Q>
1

> <r_epik_Metal_State_Penalty>
-0

> <b_epik_Metal_Only>
0

> <s_lp_Force_Field>
OPLS_2005

> <r_lp_Energy>
21.6978

> <b_lp_Chiralities_Consistent>
1

> <s_lp_Variant>
AV-unprocessed.smi:2780-1

> <Gold.Version>
5.8.1

> <Gold.Id.Protein>
6NUR|6NUR_protein|mol2

> <Gold.PLP.Fitness>
48.7488

> <Gold.PLP.PLP>
-47.2165

> <Gold.PLP.part.hbond>
-1.3538

> <Gold.PLP.part.metal>
0.0000

> <Gold.PLP.part.buried>
-6.4434

> <Gold.PLP.part.nonpolar>
-41.0405

> <Gold.PLP.part.repulsive>
0.2826

> <Gold.PLP.ligand.clash>
0.0000

> <Gold.PLP.ligand.torsion>
1.2886

> <Gold.PLP.Chemscore.Hbond>
1.0000

> <Gold.PLP.Chemscore.CHOScore>
0.2889

> <Gold.PLP.Chemscore.Metal>
0.0000

> <Gold.Chemscore.Hbonds>
donor molecule, donor type, donor heavy atom, donor atom, acceptor molecule, acceptor atom, score
      P1  H 10752 10764       L1    15  0.40
      L1  C    14    41       P1  7949  0.11

> <Gold.PLP.Chemscore.Internal.Correction>
0.2429

> <Gold.Rescore>
     Score         DG    S(hbond)    S(metal)    S(lipo)     H(rot)  DE(clash)    DE(int)     intcor
     16.77     -18.15       0.86        0.00     127.14       1.98       0.09       1.29       ----

> <Gold.Chemscore.Fitness>
16.7666

> <Gold.Chemscore.DG>
-18.1504

> <Gold.Chemscore.ZeroCoef>
-5.4800

> <Gold.Chemscore.Hbond>
0.8574

> <Gold.Chemscore.Metal>
0.0000

> <Gold.Chemscore.Lipo>
127.1382

> <Gold.Chemscore.Internal_Hbond>
0.0000

> <Gold.Chemscore.DEClash>
0.0928

> <Gold.Chemscore.DEInternal>
1.2910

> <Gold.Chemscore.Rot>
1.9799

> <Gold.Chemscore.Internal.Correction>
   9.000000E+99

> <Gold.Chemscore.Hbonds>
donor molecule, donor type, donor heavy atom, donor atom, acceptor molecule, acceptor atom, score
      P1  H 10752 10764       L1    15  0.01

> <Gold.Chemscore.Hbond.Weighted>
-2.8638

> <Gold.Chemscore.Metal.Weighted>
-0.0000

> <Gold.Chemscore.Lipo.Weighted>
-14.8752

> <Gold.Chemscore.Internal_Hbond.Weighted>
0.0000

> <Gold.Chemscore.DEClash.Weighted>
0.0928

> <Gold.Chemscore.DEInternal.Weighted>
1.2910

> <Gold.Chemscore.Rot.Weighted>
5.0685

> <Gold.Chemscore.Internal.Correction.Weighted>
   9.000000E+99

> <Gold.Protein.RotatedTorsions>
[ 6907 6896 6895 6894 ] final  -34.52 input  -60.11 | X-H torsion
[ 7974 7965 7964 7962 ] final -167.01 input  175.53 | X-H torsion
[ 8008 7997 7996 7995 ] final -141.69 input   59.86 | X-H torsion
[ 10167 10162 10161 10158 ] final  -72.80 input  -65.29 | X-H torsion
[ 10718 10713 10712 10709 ] final  -17.23 input   66.30 | X-H torsion
[ 10763 10752 10751 10750 ] final  -70.67 input  -60.55 | X-H torsion
[ 11005 11000 10999 10996 ] final   76.47 input  -57.11 | X-H torsion

> <Gold.Protein.ActiveResidues>
 VAL166  LYS551  ARG553  GLY616  TRP617  ASP618  TYR619  PRO620  LYS621  CYS622 
 ASP623  PHE694  ASN695  SER759  ASP760  ASP761  ALA762  ILE779  LEU786  VAL792 
 PHE793  MET794  SER795  GLU796  ALA797  LYS798  CYS799  TRP800  GLU811  SER814 

> <Gold.Protein.RotatedAtoms>
  151.0515  134.9676  159.8213 H   0  0  0  0  0  0  0  0  0  0  0  0  # atno 6907 bound_to 6896
  152.5381  134.2531  159.8916 H   0  0  0  0  0  0  0  0  0  0  0  0  # atno 6908 bound_to 6896
  151.2547  133.4289  159.2647 H   0  0  0  0  0  0  0  0  0  0  0  0  # atno 6909 bound_to 6896
  144.7232  140.2582  143.6268 H   0  0  0  0  0  0  0  0  0  0  0  0  # atno 7974 bound_to 7965
  155.4820  140.0561  157.2966 H   0  0  0  0  0  0  0  0  0  0  0  0  # atno 8008 bound_to 7997
  154.4656  140.2017  156.0078 H   0  0  0  0  0  0  0  0  0  0  0  0  # atno 8009 bound_to 7997
  156.0969  140.3225  155.7894 H   0  0  0  0  0  0  0  0  0  0  0  0  # atno 8010 bound_to 7997
  140.5163  143.2337  151.7508 H   0  0  0  0  0  0  0  0  0  0  0  0  # atno 10167 bound_to 10162
  156.5764  130.4763  149.6340 H   0  0  0  0  0  0  0  0  0  0  0  0  # atno 10718 bound_to 10713
  154.4209  135.5987  153.6009 H   0  0  0  0  0  0  0  0  0  0  0  0  # atno 10763 bound_to 10752
  152.9794  135.5952  154.3956 H   0  0  0  0  0  0  0  0  0  0  0  0  # atno 10764 bound_to 10752
  154.3781  135.2841  155.2206 H   0  0  0  0  0  0  0  0  0  0  0  0  # atno 10765 bound_to 10752
  139.9297  134.7604  156.1400 H   0  0  0  0  0  0  0  0  0  0  0  0  # atno 11005 bound_to 11000
  145.8161  139.2024  143.1965 LP  0  0  0  0  0  0  0  0  0  0  0  0  # atno 17320 bound_to 7965
  146.0554  140.8026  142.9761 LP  0  0  0  0  0  0  0  0  0  0  0  0  # atno 17321 bound_to 7965
  139.4910  144.4319  151.9862 LP  0  0  0  0  0  0  0  0  0  0  0  0  # atno 17342 bound_to 10162
  140.3414  144.3199  150.5966 LP  0  0  0  0  0  0  0  0  0  0  0  0  # atno 17343 bound_to 10162
  156.2669  130.6995  151.1780 LP  0  0  0  0  0  0  0  0  0  0  0  0  # atno 17370 bound_to 10713
  157.7336  131.0589  150.5566 LP  0  0  0  0  0  0  0  0  0  0  0  0  # atno 17371 bound_to 10713
  141.0877  133.6727  156.2472 LP  0  0  0  0  0  0  0  0  0  0  0  0  # atno 17394 bound_to 11000
  140.6237  134.5335  157.5551 LP  0  0  0  0  0  0  0  0  0  0  0  0  # atno 17395 bound_to 11000

$$$$
