AV-unprocessed.smi:203|AV-procd|sdf|1583|dock2
  -GOLD-   2262019473D 1   1.00000     0.00000
 Structure written by MMmdl.
 57 61  0  0  0  0  0  0  0  0  1 V2000
  148.0995  130.8699  155.6821 O   0  0  0  0  0  0  0  0  0  0  0  0
  147.6833  131.7817  154.9715 C   0  0  0  0  0  0  0  0  0  0  0  0
  146.2402  132.2557  154.9754 C   0  0  0  0  0  0  0  0  0  0  0  0
  146.1709  133.2228  153.7771 C   0  0  2  0  0  0  0  0  0  0  0  0
  145.2972  132.7015  152.5920 C   0  0  2  0  0  0  0  0  0  0  0  0
  145.9223  131.4724  151.8800 C   0  0  0  0  0  0  0  0  0  0  0  0
  145.0450  130.9785  150.7220 C   0  0  0  0  0  0  0  0  0  0  0  0
  144.7826  132.1253  149.7403 C   0  0  0  0  0  0  0  0  0  0  0  0
  144.1581  133.3206  150.4717 C   0  0  0  0  0  0  0  0  0  0  0  0
  144.9855  133.7467  151.6001 N   0  0  0  0  0  0  0  0  0  0  0  0
  144.5370  134.9251  152.0870 C   0  0  0  0  0  0  0  0  0  0  0  0
  145.3929  135.9755  152.0512 N   0  0  0  0  0  0  0  0  0  0  0  0
  145.0068  137.1660  152.5202 C   0  0  0  0  0  0  0  0  0  0  0  0
  143.8320  137.5143  153.0498 N   0  0  0  0  0  0  0  0  0  0  0  0
  142.9671  136.4599  153.0771 C   0  0  0  0  0  0  0  0  0  0  0  0
  143.2357  135.1388  152.6225 C   0  0  0  0  0  0  0  0  0  0  0  0
  142.1198  134.3337  152.8147 N   0  0  0  0  0  0  0  0  0  0  0  0
  141.2398  135.1343  153.3504 C   0  0  0  0  0  0  0  0  0  0  0  0
  141.6583  136.4344  153.5254 N   0  0  0  0  0  0  0  0  0  0  0  0
  140.8838  137.5301  154.0815 C   0  0  0  0  0  0  0  0  0  0  0  0
  140.2806  138.4675  153.0093 C   0  0  2  0  0  0  0  0  0  0  0  0
  141.3393  139.0842  152.3062 O   0  0  0  0  0  0  0  0  0  0  0  0
  139.3044  139.5632  153.5001 C   0  0  2  0  0  0  0  0  0  0  0  0
  138.3798  140.1832  152.4499 C   0  0  0  0  0  0  0  0  0  0  0  0
  138.0060  141.4870  153.1186 C   0  0  0  0  0  0  0  0  0  0  0  0
  139.3117  141.8800  153.8064 C   0  0  0  0  0  0  0  0  0  0  0  0
  139.9880  140.6601  154.1005 O   0  0  0  0  0  0  0  0  0  0  0  0
  147.6443  133.4955  153.3987 C   0  0  0  0  0  0  0  0  0  0  0  0
  148.4093  132.4885  154.1079 N   0  0  0  0  0  0  0  0  0  0  0  0
  145.5409  131.4227  154.9025 H   0  0  0  0  0  0  0  0  0  0  0  0
  146.0426  132.7774  155.9124 H   0  0  0  0  0  0  0  0  0  0  0  0
  145.7382  134.1496  154.1548 H   0  0  0  0  0  0  0  0  0  0  0  0
  144.3468  132.3717  153.0126 H   0  0  0  0  0  0  0  0  0  0  0  0
  146.9091  131.7216  151.4892 H   0  0  0  0  0  0  0  0  0  0  0  0
  146.0713  130.6514  152.5802 H   0  0  0  0  0  0  0  0  0  0  0  0
  145.5304  130.1476  150.2094 H   0  0  0  0  0  0  0  0  0  0  0  0
  144.0993  130.5990  151.1106 H   0  0  0  0  0  0  0  0  0  0  0  0
  145.7183  132.4301  149.2697 H   0  0  0  0  0  0  0  0  0  0  0  0
  144.1235  131.7912  148.9387 H   0  0  0  0  0  0  0  0  0  0  0  0
  144.0284  134.1468  149.7707 H   0  0  0  0  0  0  0  0  0  0  0  0
  143.1641  133.0519  150.8324 H   0  0  0  0  0  0  0  0  0  0  0  0
  145.7442  137.9529  152.4609 H   0  0  0  0  0  0  0  0  0  0  0  0
  140.2496  134.7975  153.6208 H   0  0  0  0  0  0  0  0  0  0  0  0
  140.0956  137.1112  154.7082 H   0  0  0  0  0  0  0  0  0  0  0  0
  141.5337  138.0975  154.7487 H   0  0  0  0  0  0  0  0  0  0  0  0
  139.7487  137.8567  152.2792 H   0  0  0  0  0  0  0  0  0  0  0  0
  140.9886  139.4811  151.5238 H   0  0  0  0  0  0  0  0  0  0  0  0
  138.6817  139.1434  154.2925 H   0  0  0  0  0  0  0  0  0  0  0  0
  138.9063  140.3898  151.5191 H   0  0  0  0  0  0  0  0  0  0  0  0
  137.5164  139.5578  152.2218 H   0  0  0  0  0  0  0  0  0  0  0  0
  137.6490  142.2427  152.4186 H   0  0  0  0  0  0  0  0  0  0  0  0
  137.2271  141.3150  153.8626 H   0  0  0  0  0  0  0  0  0  0  0  0
  139.9361  142.4678  153.1328 H   0  0  0  0  0  0  0  0  0  0  0  0
  139.1441  142.4686  154.7086 H   0  0  0  0  0  0  0  0  0  0  0  0
  147.8315  133.4449  152.3259 H   0  0  0  0  0  0  0  0  0  0  0  0
  147.9558  134.4832  153.7404 H   0  0  0  0  0  0  0  0  0  0  0  0
  149.3951  132.3416  153.9459 H   0  0  0  0  0  0  0  0  0  0  0  0
  1  2  2  0  0  0  0
  2 29  1  0  0  0  0
  2  3  1  0  0  0  0
  3  4  1  0  0  0  0
  3 30  1  0  0  0  0
  3 31  1  0  0  0  0
  4  5  1  0  0  0  0
  4 28  1  0  0  0  0
  4 32  1  0  0  0  0
  5 10  1  0  0  0  0
  5  6  1  0  0  0  0
  5 33  1  0  0  0  0
  6  7  1  0  0  0  0
  6 34  1  0  0  0  0
  6 35  1  0  0  0  0
  7  8  1  0  0  0  0
  7 36  1  0  0  0  0
  7 37  1  0  0  0  0
  8  9  1  0  0  0  0
  8 38  1  0  0  0  0
  8 39  1  0  0  0  0
  9 10  1  0  0  0  0
  9 40  1  0  0  0  0
  9 41  1  0  0  0  0
 10 11  1  0  0  0  0
 11 16  1  0  0  0  0
 11 12  2  0  0  0  0
 12 13  1  0  0  0  0
 13 14  2  0  0  0  0
 13 42  1  0  0  0  0
 14 15  1  0  0  0  0
 15 19  1  0  0  0  0
 15 16  2  0  0  0  0
 16 17  1  0  0  0  0
 17 18  2  0  0  0  0
 18 19  1  0  0  0  0
 18 43  1  0  0  0  0
 19 20  1  0  0  0  0
 20 21  1  0  0  0  0
 20 44  1  0  0  0  0
 20 45  1  0  0  0  0
 21 22  1  0  0  0  0
 21 23  1  0  0  0  0
 21 46  1  0  0  0  0
 22 47  1  0  0  0  0
 23 27  1  0  0  0  0
 23 24  1  0  0  0  0
 23 48  1  0  0  0  0
 24 25  1  0  0  0  0
 24 49  1  0  0  0  0
 24 50  1  0  0  0  0
 25 26  1  0  0  0  0
 25 51  1  0  0  0  0
 25 52  1  0  0  0  0
 26 27  1  0  0  0  0
 26 53  1  0  0  0  0
 26 54  1  0  0  0  0
 28 29  1  0  0  0  0
 28 55  1  0  0  0  0
 28 56  1  0  0  0  0
 29 57  1  0  0  0  0
M  END
> <s_m_source_file>
AV-unprocessed.smi

> <i_m_source_file_index>
203

> <i_lp_mmshare_version>
43012

> <i_f3d_flags>
0

> <s_epik_input>
Tz1DMVtDSDJdW0NASF0oW0NIMl1bTkhdMSlbQ0BASF0yW0NIMl1bQ0gyXVtDSDJdW0NIMl1OMmMobltjSF1uMyljKGMzNCluW2NIXW40W0NIMl1bQ0BIXShbT0hdKVtDQEBIXTVbQ0gyXVtDSDJdW0NIMl1PNQ==

> <s_epik_cmdline>
J2VwaWtfcHl0aG9uJywgJy1waCcsICc3LjAnLCAnLXRuJywgJzgnLCAnLW1hJywgJzIwMCcsICctbWV0YWxfYmluZGluZycsICctaW1hZScsICc8aW5maWxlLm1hZT4nLCAnLW9tYWUnLCAnPG91dGZpbGUubWFlPic=

> <r_lp_tautomer_probability>
1

> <r_epik_Ionization_Penalty>
0.00175146

> <r_epik_Ionization_Penalty_Charging>
0

> <r_epik_Ionization_Penalty_Neutral>
0.00175146

> <r_epik_State_Penalty>
0.00109045

> <r_epik_Charging_Adjusted_Penalty>
0.00109045

> <i_epik_Tot_Q>
0

> <i_epik_Tot_abs_Q>
0

> <r_epik_Metal_State_Penalty>
-0

> <b_epik_Metal_Only>
0

> <s_lp_Force_Field>
OPLS_2005

> <r_lp_Energy>
56.3505

> <b_lp_Chiralities_Consistent>
1

> <s_lp_Variant>
AV-unprocessed.smi:203-2

> <Gold.Version>
5.8.1

> <Gold.Id.Protein>
6NUR|6NUR_protein|mol2

> <Gold.PLP.Fitness>
43.5649

> <Gold.PLP.PLP>
-40.2954

> <Gold.PLP.part.hbond>
-1.7398

> <Gold.PLP.part.metal>
0.0000

> <Gold.PLP.part.buried>
-7.2375

> <Gold.PLP.part.nonpolar>
-33.9772

> <Gold.PLP.part.repulsive>
2.1642

> <Gold.PLP.ligand.clash>
0.0000

> <Gold.PLP.ligand.torsion>
0.8358

> <Gold.PLP.Chemscore.Hbond>
1.0000

> <Gold.PLP.Chemscore.CHOScore>
0.5513

> <Gold.PLP.Chemscore.Metal>
0.0000

> <Gold.Chemscore.Hbonds>
donor molecule, donor type, donor heavy atom, donor atom, acceptor molecule, acceptor atom, score
      L1  H    22    47       P1 10160  0.46

> <Gold.PLP.Chemscore.Internal.Correction>
0.2871

> <Gold.Rescore>
     Score         DG    S(hbond)    S(metal)    S(lipo)     H(rot)  DE(clash)    DE(int)     intcor
     11.08     -12.89       1.00        0.00      94.24       2.72       1.07       0.73       ----

> <Gold.Chemscore.Fitness>
11.0838

> <Gold.Chemscore.DG>
-12.8856

> <Gold.Chemscore.ZeroCoef>
-5.4800

> <Gold.Chemscore.Hbond>
0.9985

> <Gold.Chemscore.Metal>
0.0000

> <Gold.Chemscore.Lipo>
94.2418

> <Gold.Chemscore.Internal_Hbond>
0.0000

> <Gold.Chemscore.DEClash>
1.0724

> <Gold.Chemscore.DEInternal>
0.7294

> <Gold.Chemscore.Rot>
2.7171

> <Gold.Chemscore.Internal.Correction>
   9.000000E+99

> <Gold.Chemscore.Hbonds>
donor molecule, donor type, donor heavy atom, donor atom, acceptor molecule, acceptor atom, score
      L1  H    22    47       P1 10160  0.44

> <Gold.Chemscore.Hbond.Weighted>
-3.3350

> <Gold.Chemscore.Metal.Weighted>
-0.0000

> <Gold.Chemscore.Lipo.Weighted>
-11.0263

> <Gold.Chemscore.Internal_Hbond.Weighted>
0.0000

> <Gold.Chemscore.DEClash.Weighted>
1.0724

> <Gold.Chemscore.DEInternal.Weighted>
0.7294

> <Gold.Chemscore.Rot.Weighted>
6.9557

> <Gold.Chemscore.Internal.Correction.Weighted>
   9.000000E+99

> <Gold.Protein.RotatedTorsions>
[ 6907 6896 6895 6894 ] final   49.49 input  -60.11 | X-H torsion
[ 7974 7965 7964 7962 ] final -145.38 input  175.53 | X-H torsion
[ 8008 7997 7996 7995 ] final  -76.09 input   59.86 | X-H torsion
[ 10167 10162 10161 10158 ] final  170.48 input  -65.29 | X-H torsion
[ 10718 10713 10712 10709 ] final -104.24 input   66.30 | X-H torsion
[ 10763 10752 10751 10750 ] final  -60.75 input  -60.55 | X-H torsion
[ 11005 11000 10999 10996 ] final -101.87 input  -57.11 | X-H torsion

> <Gold.Protein.ActiveResidues>
 VAL166  LYS551  ARG553  GLY616  TRP617  ASP618  TYR619  PRO620  LYS621  CYS622 
 ASP623  PHE694  ASN695  SER759  ASP760  ASP761  ALA762  ILE779  LEU786  VAL792 
 PHE793  MET794  SER795  GLU796  ALA797  LYS798  CYS799  TRP800  GLU811  SER814 

> <Gold.Protein.RotatedAtoms>
  152.2914  134.7717  160.0376 H   0  0  0  0  0  0  0  0  0  0  0  0  # atno 6907 bound_to 6896
  151.8262  133.3396  159.3607 H   0  0  0  0  0  0  0  0  0  0  0  0  # atno 6908 bound_to 6896
  150.7232  134.5455  159.5813 H   0  0  0  0  0  0  0  0  0  0  0  0  # atno 6909 bound_to 6896
  144.8231  140.5591  143.5565 H   0  0  0  0  0  0  0  0  0  0  0  0  # atno 7974 bound_to 7965
  154.5474  140.0733  156.8611 H   0  0  0  0  0  0  0  0  0  0  0  0  # atno 8008 bound_to 7997
  155.3060  140.3387  155.4227 H   0  0  0  0  0  0  0  0  0  0  0  0  # atno 8009 bound_to 7997
  156.1930  140.1693  156.8040 H   0  0  0  0  0  0  0  0  0  0  0  0  # atno 8010 bound_to 7997
  139.5020  144.3592  151.9843 H   0  0  0  0  0  0  0  0  0  0  0  0  # atno 10167 bound_to 10162
  156.0297  130.5506  150.7368 H   0  0  0  0  0  0  0  0  0  0  0  0  # atno 10718 bound_to 10713
  154.2741  135.6284  153.5321 H   0  0  0  0  0  0  0  0  0  0  0  0  # atno 10763 bound_to 10752
  152.9875  135.5617  154.5568 H   0  0  0  0  0  0  0  0  0  0  0  0  # atno 10764 bound_to 10752
  154.5144  135.2879  155.1291 H   0  0  0  0  0  0  0  0  0  0  0  0  # atno 10765 bound_to 10752
  141.1213  133.8513  157.1288 H   0  0  0  0  0  0  0  0  0  0  0  0  # atno 11005 bound_to 11000
  145.5060  139.1481  143.3631 LP  0  0  0  0  0  0  0  0  0  0  0  0  # atno 17320 bound_to 7965
  146.2537  140.5200  142.8882 LP  0  0  0  0  0  0  0  0  0  0  0  0  # atno 17321 bound_to 7965
  140.3028  144.3627  150.6055 LP  0  0  0  0  0  0  0  0  0  0  0  0  # atno 17342 bound_to 10162
  140.5860  143.2170  151.7341 LP  0  0  0  0  0  0  0  0  0  0  0  0  # atno 17343 bound_to 10162
  157.4947  131.0914  151.0385 LP  0  0  0  0  0  0  0  0  0  0  0  0  # atno 17370 bound_to 10713
  157.0782  130.5892  149.5415 LP  0  0  0  0  0  0  0  0  0  0  0  0  # atno 17371 bound_to 10713
  140.0172  134.9962  157.0518 LP  0  0  0  0  0  0  0  0  0  0  0  0  # atno 17394 bound_to 11000
  140.4499  134.1593  155.7180 LP  0  0  0  0  0  0  0  0  0  0  0  0  # atno 17395 bound_to 11000

$$$$
