AV-unprocessed.smi:2040|AV-procd|sdf|8286|dock9
  -GOLD-   2272010553D 1   1.00000     0.00000
 Structure written by MMmdl.
 38 39  0  0  0  0  0  0  0  0  1 V2000
  150.7952  142.1267  156.4084 C   0  0  0  0  0  0  0  0  0  0  0  0
  150.4914  140.9037  155.5945 C   0  0  0  0  0  0  0  0  0  0  0  0
  149.2880  140.5899  154.8986 C   0  0  0  0  0  0  0  0  0  0  0  0
  149.5703  139.3722  154.3421 C   0  0  0  0  0  0  0  0  0  0  0  0
  148.7846  138.5875  153.5578 N   0  0  0  0  0  0  0  0  0  0  0  0
  147.4431  138.5581  153.4753 C   0  0  0  0  0  0  0  0  0  0  0  0
  146.6724  139.2474  154.1433 O   0  0  0  0  0  0  0  0  0  0  0  0
  147.0369  137.6665  152.5596 N   0  0  0  0  0  0  0  0  0  0  0  0
  145.6487  137.3819  152.2008 C   0  0  2  0  0  0  0  0  0  0  0  0
  144.8180  137.2091  153.4814 C   0  0  0  0  0  0  0  0  0  0  0  0
  145.5867  136.1362  151.2959 C   0  0  2  0  0  0  0  0  0  0  0  0
  144.1697  135.6439  150.9883 C   0  0  0  0  0  0  0  0  0  0  0  0
  144.4074  134.1807  150.6968 C   0  0  0  0  0  0  0  0  0  0  0  0
  145.4769  133.8340  151.7265 C   0  0  0  0  0  0  0  0  0  0  0  0
  146.2303  135.0279  151.9229 O   0  0  0  0  0  0  0  0  0  0  0  0
  150.8523  139.0100  154.6916 N   0  0  0  0  0  0  0  0  0  0  0  0
  151.5982  137.8157  154.3460 C   0  0  0  0  0  0  0  0  0  0  0  0
  151.4174  139.9596  155.4683 N   0  0  0  0  0  0  0  0  0  0  0  0
  149.9772  142.8457  156.3590 H   0  0  0  0  0  0  0  0  0  0  0  0
  151.6960  142.6251  156.0494 H   0  0  0  0  0  0  0  0  0  0  0  0
  150.9492  141.8712  157.4570 H   0  0  0  0  0  0  0  0  0  0  0  0
  148.3832  141.1750  154.8315 H   0  0  0  0  0  0  0  0  0  0  0  0
  149.2809  137.9464  152.9568 H   0  0  0  0  0  0  0  0  0  0  0  0
  147.7444  137.1452  152.0627 H   0  0  0  0  0  0  0  0  0  0  0  0
  145.2315  138.2191  151.6384 H   0  0  0  0  0  0  0  0  0  0  0  0
  143.7692  137.0236  153.2485 H   0  0  0  0  0  0  0  0  0  0  0  0
  144.8610  138.1055  154.1011 H   0  0  0  0  0  0  0  0  0  0  0  0
  145.1788  136.3720  154.0799 H   0  0  0  0  0  0  0  0  0  0  0  0
  146.1051  136.3280  150.3548 H   0  0  0  0  0  0  0  0  0  0  0  0
  143.5269  135.7488  151.8639 H   0  0  0  0  0  0  0  0  0  0  0  0
  143.7044  136.1749  150.1574 H   0  0  0  0  0  0  0  0  0  0  0  0
  143.5089  133.5705  150.7919 H   0  0  0  0  0  0  0  0  0  0  0  0
  144.8013  134.0583  149.6870 H   0  0  0  0  0  0  0  0  0  0  0  0
  145.0154  133.5573  152.6751 H   0  0  0  0  0  0  0  0  0  0  0  0
  146.1126  133.0084  151.4054 H   0  0  0  0  0  0  0  0  0  0  0  0
  151.1053  136.9411  154.7709 H   0  0  0  0  0  0  0  0  0  0  0  0
  152.6159  137.8718  154.7346 H   0  0  0  0  0  0  0  0  0  0  0  0
  151.6401  137.7108  153.2618 H   0  0  0  0  0  0  0  0  0  0  0  0
  1  2  1  0  0  0  0
  1 19  1  0  0  0  0
  1 20  1  0  0  0  0
  1 21  1  0  0  0  0
  2 18  2  0  0  0  0
  2  3  1  0  0  0  0
  3  4  2  0  0  0  0
  3 22  1  0  0  0  0
  4  5  1  0  0  0  0
  4 16  1  0  0  0  0
  5  6  1  0  0  0  0
  5 23  1  0  0  0  0
  6  7  2  0  0  0  0
  6  8  1  0  0  0  0
  8  9  1  0  0  0  0
  8 24  1  0  0  0  0
  9 10  1  0  0  0  0
  9 11  1  0  0  0  0
  9 25  1  0  0  0  0
 10 26  1  0  0  0  0
 10 27  1  0  0  0  0
 10 28  1  0  0  0  0
 11 15  1  0  0  0  0
 11 12  1  0  0  0  0
 11 29  1  0  0  0  0
 12 13  1  0  0  0  0
 12 30  1  0  0  0  0
 12 31  1  0  0  0  0
 13 14  1  0  0  0  0
 13 32  1  0  0  0  0
 13 33  1  0  0  0  0
 14 15  1  0  0  0  0
 14 34  1  0  0  0  0
 14 35  1  0  0  0  0
 16 17  1  0  0  0  0
 16 18  1  0  0  0  0
 17 36  1  0  0  0  0
 17 37  1  0  0  0  0
 17 38  1  0  0  0  0
M  END
> <s_m_source_file>
AV-unprocessed.smi

> <i_m_source_file_index>
2040

> <i_lp_mmshare_version>
43012

> <i_f3d_flags>
0

> <s_epik_input>
W0NIM11jMVtjSF1jKG4objEpW0NIM10pW05IXUMoPU8pW05IXVtDQEhdKFtDSDNdKVtDQEBIXTJbQ0gyXVtDSDJdW0NIMl1PMg==

> <s_epik_cmdline>
J2VwaWtfcHl0aG9uJywgJy1waCcsICc3LjAnLCAnLXRuJywgJzgnLCAnLW1hJywgJzIwMCcsICctbWV0YWxfYmluZGluZycsICctaW1hZScsICc8aW5maWxlLm1hZT4nLCAnLW9tYWUnLCAnPG91dGZpbGUubWFlPic=

> <r_lp_tautomer_probability>
1

> <r_epik_Ionization_Penalty>
9.09088e-05

> <r_epik_Ionization_Penalty_Charging>
0

> <r_epik_Ionization_Penalty_Neutral>
9.09088e-05

> <r_epik_State_Penalty>
-0

> <r_epik_Charging_Adjusted_Penalty>
0

> <i_epik_Tot_Q>
0

> <i_epik_Tot_abs_Q>
0

> <r_epik_Metal_State_Penalty>
-0

> <b_epik_Metal_Only>
0

> <s_lp_Force_Field>
OPLS_2005

> <r_lp_Energy>
18.8843

> <b_lp_Chiralities_Consistent>
1

> <s_lp_Variant>
AV-unprocessed.smi:2040-1

> <Gold.Version>
5.8.1

> <Gold.Id.Protein>
6NUR|6NUR_protein|mol2

> <Gold.PLP.Fitness>
37.9933

> <Gold.PLP.PLP>
-32.9692

> <Gold.PLP.part.hbond>
-3.7758

> <Gold.PLP.part.metal>
0.0000

> <Gold.PLP.part.buried>
-4.9655

> <Gold.PLP.part.nonpolar>
-27.2450

> <Gold.PLP.part.repulsive>
1.2962

> <Gold.PLP.ligand.clash>
0.0000

> <Gold.PLP.ligand.torsion>
0.2891

> <Gold.PLP.Chemscore.Hbond>
1.8640

> <Gold.PLP.Chemscore.CHOScore>
0.0000

> <Gold.PLP.Chemscore.Metal>
0.0000

> <Gold.Chemscore.Hbonds>
donor molecule, donor type, donor heavy atom, donor atom, acceptor molecule, acceptor atom, score
      L1  H     5    23       P1  7948  0.83
      L1  H     8    24       P1  7948  0.94

> <Gold.PLP.Chemscore.Internal.Correction>
0.0104

> <Gold.Rescore>
     Score         DG    S(hbond)    S(metal)    S(lipo)     H(rot)  DE(clash)    DE(int)     intcor
     13.43     -15.71       1.90        0.00      60.19       1.23       0.06       2.22       ----

> <Gold.Chemscore.Fitness>
13.4255

> <Gold.Chemscore.DG>
-15.7068

> <Gold.Chemscore.ZeroCoef>
-5.4800

> <Gold.Chemscore.Hbond>
1.8990

> <Gold.Chemscore.Metal>
0.0000

> <Gold.Chemscore.Lipo>
60.1917

> <Gold.Chemscore.Internal_Hbond>
0.0000

> <Gold.Chemscore.DEClash>
0.0614

> <Gold.Chemscore.DEInternal>
2.2199

> <Gold.Chemscore.Rot>
1.2338

> <Gold.Chemscore.Internal.Correction>
   9.000000E+99

> <Gold.Chemscore.Hbonds>
donor molecule, donor type, donor heavy atom, donor atom, acceptor molecule, acceptor atom, score
      L1  H     5    23       P1  7948  0.75
      L1  H     8    24       P1  7948  0.90

> <Gold.Chemscore.Hbond.Weighted>
-6.3428

> <Gold.Chemscore.Metal.Weighted>
-0.0000

> <Gold.Chemscore.Lipo.Weighted>
-7.0424

> <Gold.Chemscore.Internal_Hbond.Weighted>
0.0000

> <Gold.Chemscore.DEClash.Weighted>
0.0614

> <Gold.Chemscore.DEInternal.Weighted>
2.2199

> <Gold.Chemscore.Rot.Weighted>
3.1584

> <Gold.Chemscore.Internal.Correction.Weighted>
   9.000000E+99

> <Gold.Protein.RotatedTorsions>
[ 6907 6896 6895 6894 ] final  -82.46 input  -60.11 | X-H torsion
[ 7974 7965 7964 7962 ] final -148.91 input  175.53 | X-H torsion
[ 8008 7997 7996 7995 ] final  175.56 input   59.86 | X-H torsion
[ 10167 10162 10161 10158 ] final   57.07 input  -65.29 | X-H torsion
[ 10718 10713 10712 10709 ] final   17.01 input   66.30 | X-H torsion
[ 10763 10752 10751 10750 ] final   10.83 input  -60.55 | X-H torsion
[ 11005 11000 10999 10996 ] final    0.12 input  -57.11 | X-H torsion

> <Gold.Protein.ActiveResidues>
 VAL166  LYS551  ARG553  GLY616  TRP617  ASP618  TYR619  PRO620  LYS621  CYS622 
 ASP623  PHE694  ASN695  SER759  ASP760  ASP761  ALA762  ILE779  LEU786  VAL792 
 PHE793  MET794  SER795  GLU796  ALA797  LYS798  CYS799  TRP800  GLU811  SER814 

> <Gold.Protein.RotatedAtoms>
  150.6897  134.3662  159.4971 H   0  0  0  0  0  0  0  0  0  0  0  0  # atno 6907 bound_to 6896
  152.1484  134.9005  160.0559 H   0  0  0  0  0  0  0  0  0  0  0  0  # atno 6908 bound_to 6896
  152.0112  133.3827  159.4257 H   0  0  0  0  0  0  0  0  0  0  0  0  # atno 6909 bound_to 6896
  144.8000  140.5134  143.5714 H   0  0  0  0  0  0  0  0  0  0  0  0  # atno 7974 bound_to 7965
  156.0857  140.1406  156.9656 H   0  0  0  0  0  0  0  0  0  0  0  0  # atno 8008 bound_to 7997
  154.4611  140.0943  156.6945 H   0  0  0  0  0  0  0  0  0  0  0  0  # atno 8009 bound_to 7997
  155.5002  140.3450  155.4372 H   0  0  0  0  0  0  0  0  0  0  0  0  # atno 8010 bound_to 7997
  140.2019  144.3979  150.6525 H   0  0  0  0  0  0  0  0  0  0  0  0  # atno 10167 bound_to 10162
  157.0760  130.6368  149.5816 H   0  0  0  0  0  0  0  0  0  0  0  0  # atno 10718 bound_to 10713
  153.1990  135.6853  153.8255 H   0  0  0  0  0  0  0  0  0  0  0  0  # atno 10763 bound_to 10752
  153.7527  135.3221  155.3325 H   0  0  0  0  0  0  0  0  0  0  0  0  # atno 10764 bound_to 10752
  154.8161  135.4685  154.0748 H   0  0  0  0  0  0  0  0  0  0  0  0  # atno 10765 bound_to 10752
  140.6300  133.9583  155.8269 H   0  0  0  0  0  0  0  0  0  0  0  0  # atno 11005 bound_to 11000
  145.5577  139.1478  143.3358 LP  0  0  0  0  0  0  0  0  0  0  0  0  # atno 17320 bound_to 7965
  146.2278  140.5714  142.8988 LP  0  0  0  0  0  0  0  0  0  0  0  0  # atno 17321 bound_to 7965
  140.6384  143.2199  151.6343 LP  0  0  0  0  0  0  0  0  0  0  0  0  # atno 17342 bound_to 10162
  139.5214  144.3194  152.0923 LP  0  0  0  0  0  0  0  0  0  0  0  0  # atno 17343 bound_to 10162
  155.9937  130.4999  150.7390 LP  0  0  0  0  0  0  0  0  0  0  0  0  # atno 17370 bound_to 10713
  157.4839  131.0905  151.0504 LP  0  0  0  0  0  0  0  0  0  0  0  0  # atno 17371 bound_to 10713
  141.0682  134.0245  157.3564 LP  0  0  0  0  0  0  0  0  0  0  0  0  # atno 17394 bound_to 11000
  139.9119  135.0191  156.7728 LP  0  0  0  0  0  0  0  0  0  0  0  0  # atno 17395 bound_to 11000

$$$$
