AV-unprocessed.smi:416|AV-procd|sdf|2526|dock10
  -GOLD-   2262022483D 1   1.00000     0.00000
 Structure written by MMmdl.
 43 44  0  0  0  0  0  0  0  0  1 V2000
  149.0617  135.2301  155.1587 C   0  0  0  0  0  0  0  0  0  0  0  0
  150.4830  134.7557  154.7938 C   0  0  0  0  0  0  0  0  0  0  0  0
  151.0195  133.8544  155.9257 C   0  0  0  0  0  0  0  0  0  0  0  0
  150.4194  133.9288  153.4875 C   0  0  0  0  0  0  0  0  0  0  0  0
  151.3979  135.9983  154.6667 C   0  0  0  0  0  0  0  0  0  0  0  0
  152.3610  136.1239  155.4244 O   0  0  0  0  0  0  0  0  0  0  0  0
  151.0999  136.9142  153.7286 N   0  0  0  0  0  0  0  0  0  0  0  0
  151.8274  138.1550  153.4808 C   0  0  0  0  0  0  0  0  0  0  0  0
  151.7555  139.1318  154.6433 C   0  0  0  0  0  0  0  0  0  0  0  0
  150.6420  139.9795  154.8041 C   0  0  0  0  0  0  0  0  0  0  0  0
  150.6140  140.8742  155.8909 C   0  0  0  0  0  0  0  0  0  0  0  0
  151.7068  140.9045  156.7906 C   0  0  0  0  0  0  0  0  0  0  0  0
  151.7045  141.7956  157.8867 N   0  0  0  0  0  0  0  0  0  0  0  0
  151.2960  143.1672  157.5918 C   0  0  0  0  0  0  0  0  0  0  0  0
  151.0394  143.9428  158.8952 C   0  0  0  0  0  0  0  0  0  0  0  0
  152.1905  143.8780  159.7303 O   0  0  0  0  0  0  0  0  0  0  0  0
  152.5008  142.5385  160.0985 C   0  0  0  0  0  0  0  0  0  0  0  0
  152.8116  141.7132  158.8385 C   0  0  0  0  0  0  0  0  0  0  0  0
  152.7749  140.0840  156.6326 N   0  0  0  0  0  0  0  0  0  0  0  0
  152.7969  139.2285  155.5894 C   0  0  0  0  0  0  0  0  0  0  0  0
  148.3838  134.3850  155.2833 H   0  0  0  0  0  0  0  0  0  0  0  0
  148.6436  135.8707  154.3809 H   0  0  0  0  0  0  0  0  0  0  0  0
  149.0484  135.7950  156.0920 H   0  0  0  0  0  0  0  0  0  0  0  0
  151.0324  134.3707  156.8868 H   0  0  0  0  0  0  0  0  0  0  0  0
  152.0361  133.5168  155.7191 H   0  0  0  0  0  0  0  0  0  0  0  0
  150.4003  132.9652  156.0486 H   0  0  0  0  0  0  0  0  0  0  0  0
  149.7859  133.0498  153.6119 H   0  0  0  0  0  0  0  0  0  0  0  0
  151.4056  133.5725  153.1862 H   0  0  0  0  0  0  0  0  0  0  0  0
  150.0035  134.5064  152.6608 H   0  0  0  0  0  0  0  0  0  0  0  0
  150.2937  136.7398  153.1459 H   0  0  0  0  0  0  0  0  0  0  0  0
  152.8751  137.9582  153.2481 H   0  0  0  0  0  0  0  0  0  0  0  0
  151.4018  138.6167  152.5893 H   0  0  0  0  0  0  0  0  0  0  0  0
  149.8153  139.9446  154.1098 H   0  0  0  0  0  0  0  0  0  0  0  0
  149.7532  141.5112  156.0274 H   0  0  0  0  0  0  0  0  0  0  0  0
  152.0860  143.6534  157.0182 H   0  0  0  0  0  0  0  0  0  0  0  0
  150.3953  143.2000  156.9812 H   0  0  0  0  0  0  0  0  0  0  0  0
  150.8208  144.9873  158.6732 H   0  0  0  0  0  0  0  0  0  0  0  0
  150.1718  143.5414  159.4214 H   0  0  0  0  0  0  0  0  0  0  0  0
  153.3628  142.5443  160.7655 H   0  0  0  0  0  0  0  0  0  0  0  0
  151.6706  142.1010  160.6552 H   0  0  0  0  0  0  0  0  0  0  0  0
  152.9894  140.6756  159.1237 H   0  0  0  0  0  0  0  0  0  0  0  0
  153.7226  142.0833  158.3658 H   0  0  0  0  0  0  0  0  0  0  0  0
  153.6762  138.6069  155.5108 H   0  0  0  0  0  0  0  0  0  0  0  0
  1  2  1  0  0  0  0
  1 21  1  0  0  0  0
  1 22  1  0  0  0  0
  1 23  1  0  0  0  0
  2  3  1  0  0  0  0
  2  4  1  0  0  0  0
  2  5  1  0  0  0  0
  3 24  1  0  0  0  0
  3 25  1  0  0  0  0
  3 26  1  0  0  0  0
  4 27  1  0  0  0  0
  4 28  1  0  0  0  0
  4 29  1  0  0  0  0
  5  6  2  0  0  0  0
  5  7  1  0  0  0  0
  7  8  1  0  0  0  0
  7 30  1  0  0  0  0
  8  9  1  0  0  0  0
  8 31  1  0  0  0  0
  8 32  1  0  0  0  0
  9 20  1  0  0  0  0
  9 10  2  0  0  0  0
 10 11  1  0  0  0  0
 10 33  1  0  0  0  0
 11 12  2  0  0  0  0
 11 34  1  0  0  0  0
 12 13  1  0  0  0  0
 12 19  1  0  0  0  0
 13 18  1  0  0  0  0
 13 14  1  0  0  0  0
 14 15  1  0  0  0  0
 14 35  1  0  0  0  0
 14 36  1  0  0  0  0
 15 16  1  0  0  0  0
 15 37  1  0  0  0  0
 15 38  1  0  0  0  0
 16 17  1  0  0  0  0
 17 18  1  0  0  0  0
 17 39  1  0  0  0  0
 17 40  1  0  0  0  0
 18 41  1  0  0  0  0
 18 42  1  0  0  0  0
 19 20  2  0  0  0  0
 20 43  1  0  0  0  0
M  END
> <s_m_source_file>
AV-unprocessed.smi

> <i_m_source_file_index>
416

> <i_lp_mmshare_version>
43012

> <i_f3d_flags>
0

> <s_epik_input>
W0NIM11DKFtDSDNdKShbQ0gzXSlDKD1PKVtOSF1bQ0gyXWMxW2NIXVtjSF1jKG5bY0hdMSlOMltDSDJdW0NIMl1PW0NIMl1bQ0gyXTI=

> <s_epik_cmdline>
J2VwaWtfcHl0aG9uJywgJy1waCcsICc3LjAnLCAnLXRuJywgJzgnLCAnLW1hJywgJzIwMCcsICctbWV0YWxfYmluZGluZycsICctaW1hZScsICc8aW5maWxlLm1hZT4nLCAnLW9tYWUnLCAnPG91dGZpbGUubWFlPic=

> <r_lp_tautomer_probability>
1

> <r_epik_Ionization_Penalty>
0.00522353

> <r_epik_Ionization_Penalty_Charging>
0

> <r_epik_Ionization_Penalty_Neutral>
0.00522353

> <r_epik_State_Penalty>
0.0038086

> <r_epik_Charging_Adjusted_Penalty>
0.0038086

> <i_epik_Tot_Q>
0

> <i_epik_Tot_abs_Q>
0

> <r_epik_Metal_State_Penalty>
-0

> <b_epik_Metal_Only>
0

> <s_lp_Force_Field>
OPLS_2005

> <r_lp_Energy>
22.6444

> <b_lp_Chiralities_Consistent>
1

> <s_lp_Variant>
AV-unprocessed.smi:416-1

> <Gold.Version>
5.8.1

> <Gold.Id.Protein>
6NUR|6NUR_protein|mol2

> <Gold.PLP.Fitness>
46.0696

> <Gold.PLP.PLP>
-38.7288

> <Gold.PLP.part.hbond>
-4.0000

> <Gold.PLP.part.metal>
0.0000

> <Gold.PLP.part.buried>
-2.2989

> <Gold.PLP.part.nonpolar>
-31.8597

> <Gold.PLP.part.repulsive>
0.1233

> <Gold.PLP.ligand.clash>
0.0000

> <Gold.PLP.ligand.torsion>
0.5325

> <Gold.PLP.Chemscore.Hbond>
2.6864

> <Gold.PLP.Chemscore.CHOScore>
0.0000

> <Gold.PLP.Chemscore.Metal>
0.0000

> <Gold.Chemscore.Hbonds>
donor molecule, donor type, donor heavy atom, donor atom, acceptor molecule, acceptor atom, score
      L1  H     7    30       P1  7948  0.30
      P1  H  7997  8010       L1    19  0.51

> <Gold.PLP.Chemscore.Internal.Correction>
0.3466

> <Gold.Rescore>
     Score         DG    S(hbond)    S(metal)    S(lipo)     H(rot)  DE(clash)    DE(int)     intcor
     15.07     -15.73       1.06        0.00      90.58       1.52       0.20       0.46       ----

> <Gold.Chemscore.Fitness>
15.0737

> <Gold.Chemscore.DG>
-15.7339

> <Gold.Chemscore.ZeroCoef>
-5.4800

> <Gold.Chemscore.Hbond>
1.0600

> <Gold.Chemscore.Metal>
0.0000

> <Gold.Chemscore.Lipo>
90.5805

> <Gold.Chemscore.Internal_Hbond>
0.0000

> <Gold.Chemscore.DEClash>
0.1995

> <Gold.Chemscore.DEInternal>
0.4608

> <Gold.Chemscore.Rot>
1.5173

> <Gold.Chemscore.Internal.Correction>
   9.000000E+99

> <Gold.Chemscore.Hbonds>
donor molecule, donor type, donor heavy atom, donor atom, acceptor molecule, acceptor atom, score
      P1  H  7997  8010       L1    19  0.04
      P1  H 10752 10763       L1     6  0.01

> <Gold.Chemscore.Hbond.Weighted>
-3.5403

> <Gold.Chemscore.Metal.Weighted>
-0.0000

> <Gold.Chemscore.Lipo.Weighted>
-10.5979

> <Gold.Chemscore.Internal_Hbond.Weighted>
0.0000

> <Gold.Chemscore.DEClash.Weighted>
0.1995

> <Gold.Chemscore.DEInternal.Weighted>
0.4608

> <Gold.Chemscore.Rot.Weighted>
3.8843

> <Gold.Chemscore.Internal.Correction.Weighted>
   9.000000E+99

> <Gold.Protein.RotatedTorsions>
[ 6907 6896 6895 6894 ] final   68.70 input  -60.11 | X-H torsion
[ 7974 7965 7964 7962 ] final -155.58 input  175.53 | X-H torsion
[ 8008 7997 7996 7995 ] final   47.60 input   59.86 | X-H torsion
[ 10167 10162 10161 10158 ] final -121.03 input  -65.29 | X-H torsion
[ 10718 10713 10712 10709 ] final  107.81 input   66.30 | X-H torsion
[ 10763 10752 10751 10750 ] final   85.93 input  -60.55 | X-H torsion
[ 11005 11000 10999 10996 ] final -113.00 input  -57.11 | X-H torsion

> <Gold.Protein.ActiveResidues>
 VAL166  LYS551  ARG553  GLY616  TRP617  ASP618  TYR619  PRO620  LYS621  CYS622 
 ASP623  PHE694  ASN695  SER759  ASP760  ASP761  ALA762  ILE779  LEU786  VAL792 
 PHE793  MET794  SER795  GLU796  ALA797  LYS798  CYS799  TRP800  GLU811  SER814 

> <Gold.Protein.RotatedAtoms>
  152.4638  134.5123  159.9757 H   0  0  0  0  0  0  0  0  0  0  0  0  # atno 6907 bound_to 6896
  151.5166  133.3468  159.2902 H   0  0  0  0  0  0  0  0  0  0  0  0  # atno 6908 bound_to 6896
  150.8612  134.7994  159.7146 H   0  0  0  0  0  0  0  0  0  0  0  0  # atno 6909 bound_to 6896
  144.7633  140.4230  143.5960 H   0  0  0  0  0  0  0  0  0  0  0  0  # atno 7974 bound_to 7965
  155.3718  140.3424  155.4243 H   0  0  0  0  0  0  0  0  0  0  0  0  # atno 8008 bound_to 7997
  156.1658  140.1615  156.8567 H   0  0  0  0  0  0  0  0  0  0  0  0  # atno 8009 bound_to 7997
  154.5184  140.0773  156.8107 H   0  0  0  0  0  0  0  0  0  0  0  0  # atno 8010 bound_to 7997
  140.0294  143.5263  152.2183 H   0  0  0  0  0  0  0  0  0  0  0  0  # atno 10167 bound_to 10162
  157.6613  131.0880  150.6211 H   0  0  0  0  0  0  0  0  0  0  0  0  # atno 10718 bound_to 10713
  153.1521  135.4599  154.9652 H   0  0  0  0  0  0  0  0  0  0  0  0  # atno 10763 bound_to 10752
  154.7833  135.3195  154.7944 H   0  0  0  0  0  0  0  0  0  0  0  0  # atno 10764 bound_to 10752
  153.8448  135.6927  153.4853 H   0  0  0  0  0  0  0  0  0  0  0  0  # atno 10765 bound_to 10752
  141.0641  133.9488  157.2612 H   0  0  0  0  0  0  0  0  0  0  0  0  # atno 11005 bound_to 11000
  145.6549  139.1571  143.2841 LP  0  0  0  0  0  0  0  0  0  0  0  0  # atno 17320 bound_to 7965
  146.1718  140.6634  142.9230 LP  0  0  0  0  0  0  0  0  0  0  0  0  # atno 17321 bound_to 7965
  139.6086  144.7603  151.3004 LP  0  0  0  0  0  0  0  0  0  0  0  0  # atno 17342 bound_to 10162
  140.7308  143.6869  150.7954 LP  0  0  0  0  0  0  0  0  0  0  0  0  # atno 17343 bound_to 10162
  156.6514  130.4486  149.5718 LP  0  0  0  0  0  0  0  0  0  0  0  0  # atno 17370 bound_to 10713
  156.2135  130.6693  151.1294 LP  0  0  0  0  0  0  0  0  0  0  0  0  # atno 17371 bound_to 10713
  139.9460  135.0184  156.8852 LP  0  0  0  0  0  0  0  0  0  0  0  0  # atno 17394 bound_to 11000
  140.5809  134.0353  155.7464 LP  0  0  0  0  0  0  0  0  0  0  0  0  # atno 17395 bound_to 11000

$$$$
