AV-unprocessed.smi:584|AV-procd|sdf|2999|dock9
  -GOLD-   2262023503D 1   1.00000     0.00000
 Structure written by MMmdl.
 41 42  0  0  0  0  0  0  0  0  1 V2000
  149.5956  135.5880  158.4708 O   0  0  0  0  0  0  0  0  0  0  0  0
  149.1573  136.6937  158.7921 C   0  0  0  0  0  0  0  0  0  0  0  0
  147.7875  136.8377  159.4707 C   0  0  0  0  0  0  0  0  0  0  0  0
  147.5725  135.8767  160.5655 N   0  0  0  0  0  0  0  0  0  0  0  0
  147.7060  134.5111  160.2473 C   0  0  0  0  0  0  0  0  0  0  0  0
  147.5128  133.5265  161.1453 C   0  0  0  0  0  0  0  0  0  0  0  0
  147.7087  132.0633  160.7805 C   0  0  0  0  0  0  0  0  0  0  0  0
  148.5944  131.4800  161.5883 F   0  0  0  0  0  0  0  0  0  0  0  0
  146.5524  131.4111  160.8915 F   0  0  0  0  0  0  0  0  0  0  0  0
  148.1385  131.9345  159.5246 F   0  0  0  0  0  0  0  0  0  0  0  0
  147.1874  133.9406  162.4960 C   0  0  0  0  0  0  0  0  0  0  0  0
  147.0591  135.2428  162.8180 C   0  0  0  0  0  0  0  0  0  0  0  0
  147.2451  136.3011  161.8226 C   0  0  0  0  0  0  0  0  0  0  0  0
  147.1147  137.4932  162.1018 O   0  0  0  0  0  0  0  0  0  0  0  0
  149.8289  137.8377  158.5903 N   0  0  0  0  0  0  0  0  0  0  0  0
  151.1531  137.9503  157.9853 C   0  0  0  0  0  0  0  0  0  0  0  0
  151.5198  139.4086  157.6360 C   0  0  0  0  0  0  0  0  0  0  0  0
  151.4578  140.2981  158.8953 C   0  0  0  0  0  0  0  0  0  0  0  0
  151.8294  141.7574  158.5863 C   0  0  0  0  0  0  0  0  0  0  0  0
  150.9390  142.3359  157.4771 C   0  0  0  0  0  0  0  0  0  0  0  0
  151.0027  141.4664  156.2134 C   0  0  0  0  0  0  0  0  0  0  0  0
  150.6318  140.0062  156.5200 C   0  0  0  0  0  0  0  0  0  0  0  0
  147.6928  137.8565  159.8503 H   0  0  0  0  0  0  0  0  0  0  0  0
  147.0096  136.7450  158.7109 H   0  0  0  0  0  0  0  0  0  0  0  0
  147.9694  134.3146  159.2179 H   0  0  0  0  0  0  0  0  0  0  0  0
  147.0373  133.1939  163.2617 H   0  0  0  0  0  0  0  0  0  0  0  0
  146.8110  135.5150  163.8334 H   0  0  0  0  0  0  0  0  0  0  0  0
  149.3922  138.6989  158.8855 H   0  0  0  0  0  0  0  0  0  0  0  0
  151.9176  137.5086  158.6266 H   0  0  0  0  0  0  0  0  0  0  0  0
  151.1424  137.3498  157.0754 H   0  0  0  0  0  0  0  0  0  0  0  0
  152.5511  139.4143  157.2792 H   0  0  0  0  0  0  0  0  0  0  0  0
  150.4549  140.2621  159.3232 H   0  0  0  0  0  0  0  0  0  0  0  0
  152.1311  139.9090  159.6598 H   0  0  0  0  0  0  0  0  0  0  0  0
  151.7394  142.3626  159.4887 H   0  0  0  0  0  0  0  0  0  0  0  0
  152.8750  141.8109  158.2806 H   0  0  0  0  0  0  0  0  0  0  0  0
  149.9082  142.3973  157.8284 H   0  0  0  0  0  0  0  0  0  0  0  0
  151.2486  143.3552  157.2441 H   0  0  0  0  0  0  0  0  0  0  0  0
  150.3337  141.8680  155.4517 H   0  0  0  0  0  0  0  0  0  0  0  0
  152.0084  141.5066  155.7928 H   0  0  0  0  0  0  0  0  0  0  0  0
  150.7257  139.4238  155.6035 H   0  0  0  0  0  0  0  0  0  0  0  0
  149.5828  139.9501  156.8137 H   0  0  0  0  0  0  0  0  0  0  0  0
  1  2  2  0  0  0  0
  2  3  1  0  0  0  0
  2 15  1  0  0  0  0
  3  4  1  0  0  0  0
  3 23  1  0  0  0  0
  3 24  1  0  0  0  0
  4 13  1  0  0  0  0
  4  5  1  0  0  0  0
  5  6  2  0  0  0  0
  5 25  1  0  0  0  0
  6  7  1  0  0  0  0
  6 11  1  0  0  0  0
  7  8  1  0  0  0  0
  7  9  1  0  0  0  0
  7 10  1  0  0  0  0
 11 12  2  0  0  0  0
 11 26  1  0  0  0  0
 12 13  1  0  0  0  0
 12 27  1  0  0  0  0
 13 14  2  0  0  0  0
 15 16  1  0  0  0  0
 15 28  1  0  0  0  0
 16 17  1  0  0  0  0
 16 29  1  0  0  0  0
 16 30  1  0  0  0  0
 17 22  1  0  0  0  0
 17 18  1  0  0  0  0
 17 31  1  0  0  0  0
 18 19  1  0  0  0  0
 18 32  1  0  0  0  0
 18 33  1  0  0  0  0
 19 20  1  0  0  0  0
 19 34  1  0  0  0  0
 19 35  1  0  0  0  0
 20 21  1  0  0  0  0
 20 36  1  0  0  0  0
 20 37  1  0  0  0  0
 21 22  1  0  0  0  0
 21 38  1  0  0  0  0
 21 39  1  0  0  0  0
 22 40  1  0  0  0  0
 22 41  1  0  0  0  0
M  END
> <s_m_source_file>
AV-unprocessed.smi

> <i_m_source_file_index>
584

> <i_lp_mmshare_version>
43012

> <i_f3d_flags>
0

> <s_epik_input>
W0NIMl0xW0NIMl1bQ0gyXVtDSDJdW0NIMl1bQ0hdMVtDSDJdW05IXUMoPU8pW0NIMl1uMltjSF1jKEMoRikoRilGKVtjSF1bY0hdYzI9Tw==

> <s_epik_cmdline>
J2VwaWtfcHl0aG9uJywgJy1waCcsICc3LjAnLCAnLXRuJywgJzgnLCAnLW1hJywgJzIwMCcsICctbWV0YWxfYmluZGluZycsICctaW1hZScsICc8aW5maWxlLm1hZT4nLCAnLW9tYWUnLCAnPG91dGZpbGUubWFlPic=

> <r_lp_tautomer_probability>
1

> <r_epik_Ionization_Penalty>
3.78989e-08

> <r_epik_Ionization_Penalty_Charging>
1.81011e-08

> <r_epik_Ionization_Penalty_Neutral>
1.97978e-08

> <r_epik_State_Penalty>
-0

> <r_epik_Charging_Adjusted_Penalty>
1.81011e-08

> <i_epik_Tot_Q>
0

> <i_epik_Tot_abs_Q>
0

> <r_epik_Metal_State_Penalty>
-0

> <b_epik_Metal_Only>
0

> <s_lp_Force_Field>
OPLS_2005

> <r_lp_Energy>
22.635

> <b_lp_Chiralities_Consistent>
1

> <s_lp_Variant>
AV-unprocessed.smi:584-1

> <Gold.Version>
5.8.1

> <Gold.Id.Protein>
6NUR|6NUR_protein|mol2

> <Gold.PLP.Fitness>
46.8378

> <Gold.PLP.PLP>
-41.9209

> <Gold.PLP.part.hbond>
-3.0000

> <Gold.PLP.part.metal>
0.0000

> <Gold.PLP.part.buried>
-4.8944

> <Gold.PLP.part.nonpolar>
-33.3387

> <Gold.PLP.part.repulsive>
0.1633

> <Gold.PLP.ligand.clash>
1.4175

> <Gold.PLP.ligand.torsion>
0.3407

> <Gold.PLP.Chemscore.Hbond>
2.3280

> <Gold.PLP.Chemscore.CHOScore>
0.0000

> <Gold.PLP.Chemscore.Metal>
0.0000

> <Gold.Chemscore.Hbonds>
donor molecule, donor type, donor heavy atom, donor atom, acceptor molecule, acceptor atom, score
      P1  H  6896  6907       L1     1  1.00
      P1  H  6931  6943       L1    14  0.62
      P1  H  6934  6947       L1    14  0.67

> <Gold.PLP.Chemscore.Internal.Correction>
0.0319

> <Gold.Rescore>
     Score         DG    S(hbond)    S(metal)    S(lipo)     H(rot)  DE(clash)    DE(int)     intcor
     15.96     -17.56       2.22        0.00      78.10       1.75       0.00       1.59       ----

> <Gold.Chemscore.Fitness>
15.9607

> <Gold.Chemscore.DG>
-17.5592

> <Gold.Chemscore.ZeroCoef>
-5.4800

> <Gold.Chemscore.Hbond>
2.2190

> <Gold.Chemscore.Metal>
0.0000

> <Gold.Chemscore.Lipo>
78.0965

> <Gold.Chemscore.Internal_Hbond>
0.0000

> <Gold.Chemscore.DEClash>
0.0044

> <Gold.Chemscore.DEInternal>
1.5942

> <Gold.Chemscore.Rot>
1.7459

> <Gold.Chemscore.Internal.Correction>
   9.000000E+99

> <Gold.Chemscore.Hbonds>
donor molecule, donor type, donor heavy atom, donor atom, acceptor molecule, acceptor atom, score
      P1  H  6896  6907       L1     1  0.95
      P1  H  6931  6943       L1    14  0.30
      P1  H  6934  6947       L1    14  0.66

> <Gold.Chemscore.Hbond.Weighted>
-7.4115

> <Gold.Chemscore.Metal.Weighted>
-0.0000

> <Gold.Chemscore.Lipo.Weighted>
-9.1373

> <Gold.Chemscore.Internal_Hbond.Weighted>
0.0000

> <Gold.Chemscore.DEClash.Weighted>
0.0044

> <Gold.Chemscore.DEInternal.Weighted>
1.5942

> <Gold.Chemscore.Rot.Weighted>
4.4696

> <Gold.Chemscore.Internal.Correction.Weighted>
   9.000000E+99

> <Gold.Protein.RotatedTorsions>
[ 6907 6896 6895 6894 ] final  -58.14 input  -60.11 | X-H torsion
[ 7974 7965 7964 7962 ] final   58.45 input  175.53 | X-H torsion
[ 8008 7997 7996 7995 ] final  -57.23 input   59.86 | X-H torsion
[ 10167 10162 10161 10158 ] final -161.52 input  -65.29 | X-H torsion
[ 10718 10713 10712 10709 ] final -158.20 input   66.30 | X-H torsion
[ 10763 10752 10751 10750 ] final  -88.02 input  -60.55 | X-H torsion
[ 11005 11000 10999 10996 ] final  -82.75 input  -57.11 | X-H torsion

> <Gold.Protein.ActiveResidues>
 VAL166  LYS551  ARG553  GLY616  TRP617  ASP618  TYR619  PRO620  LYS621  CYS622 
 ASP623  PHE694  ASN695  SER759  ASP760  ASP761  ALA762  ILE779  LEU786  VAL792 
 PHE793  MET794  SER795  GLU796  ALA797  LYS798  CYS799  TRP800  GLU811  SER814 

> <Gold.Protein.RotatedAtoms>
  150.8030  134.7137  159.6618 H   0  0  0  0  0  0  0  0  0  0  0  0  # atno 6907 bound_to 6896
  152.4148  134.6057  160.0022 H   0  0  0  0  0  0  0  0  0  0  0  0  # atno 6908 bound_to 6896
  151.6289  133.3296  159.3140 H   0  0  0  0  0  0  0  0  0  0  0  0  # atno 6909 bound_to 6896
  145.9180  139.3706  143.0495 H   0  0  0  0  0  0  0  0  0  0  0  0  # atno 7974 bound_to 7965
  154.4260  140.1111  156.5764 H   0  0  0  0  0  0  0  0  0  0  0  0  # atno 8008 bound_to 7997
  155.6159  140.3494  155.4618 H   0  0  0  0  0  0  0  0  0  0  0  0  # atno 8009 bound_to 7997
  156.0063  140.1209  157.0488 H   0  0  0  0  0  0  0  0  0  0  0  0  # atno 8010 bound_to 7997
  139.6459  144.0174  152.2126 H   0  0  0  0  0  0  0  0  0  0  0  0  # atno 10167 bound_to 10162
  156.5509  130.8605  151.2779 H   0  0  0  0  0  0  0  0  0  0  0  0  # atno 10718 bound_to 10713
  154.6400  135.5392  153.7778 H   0  0  0  0  0  0  0  0  0  0  0  0  # atno 10763 bound_to 10752
  153.0328  135.6457  154.1174 H   0  0  0  0  0  0  0  0  0  0  0  0  # atno 10764 bound_to 10752
  154.1099  135.2927  155.3213 H   0  0  0  0  0  0  0  0  0  0  0  0  # atno 10765 bound_to 10752
  141.1661  133.7260  156.8617 H   0  0  0  0  0  0  0  0  0  0  0  0  # atno 11005 bound_to 11000
  145.8587  140.9488  143.0711 LP  0  0  0  0  0  0  0  0  0  0  0  0  # atno 17320 bound_to 7965
  144.6750  140.0502  143.7479 LP  0  0  0  0  0  0  0  0  0  0  0  0  # atno 17321 bound_to 7965
  139.9875  144.6385  150.7844 LP  0  0  0  0  0  0  0  0  0  0  0  0  # atno 17342 bound_to 10162
  140.7514  143.2972  151.3174 LP  0  0  0  0  0  0  0  0  0  0  0  0  # atno 17343 bound_to 10162
  157.7387  130.9819  150.2272 LP  0  0  0  0  0  0  0  0  0  0  0  0  # atno 17370 bound_to 10713
  156.2885  130.3742  149.7864 LP  0  0  0  0  0  0  0  0  0  0  0  0  # atno 17371 bound_to 10713
  140.1843  134.9011  157.2986 LP  0  0  0  0  0  0  0  0  0  0  0  0  # atno 17394 bound_to 11000
  140.2360  134.3852  155.7501 LP  0  0  0  0  0  0  0  0  0  0  0  0  # atno 17395 bound_to 11000

$$$$
