AV-unprocessed.smi:2822|AV-procd|sdf|10868|dock1
  -GOLD-   2272015313D 1   1.00000     0.00000
 Structure written by MMmdl.
 40 42  0  0  0  0  0  0  0  0  2 V2000
  148.2247  133.0122  152.8951 Cl  0  0  0  0  0  0  0  0  0  0  0  0
  146.7915  132.7240  151.9709 C   0  0  0  0  0  0  0  0  0  0  0  0
  146.3364  131.4034  151.7799 C   0  0  0  0  0  0  0  0  0  0  0  0
  145.2301  131.0931  151.0722 N   0  0  0  0  0  0  0  0  0  0  0  0
  144.5305  132.1076  150.5234 C   0  0  0  0  0  0  0  0  0  0  0  0
  144.8967  133.4624  150.6525 C   0  0  0  0  0  0  0  0  0  0  0  0
  146.0569  133.7861  151.3948 C   0  0  0  0  0  0  0  0  0  0  0  0
  146.4941  135.1069  151.5775 N   0  0  0  0  0  0  0  0  0  0  0  0
  145.7497  136.2276  151.0240 C   0  0  0  0  0  0  0  0  0  0  0  0
  145.4773  137.3006  152.0874 C   0  0  2  0  0  0  0  0  0  0  0  0
  146.5146  138.4371  152.0314 C   0  0  0  0  0  0  0  0  0  0  0  0
  146.2677  139.4214  153.1106 N   0  3  2  0  0  0  0  0  0  0  0  0
  147.2215  140.5588  153.0700 C   0  0  0  0  0  0  0  0  0  0  0  0
  146.8788  141.6068  154.1413 C   0  0  0  0  0  0  0  0  0  0  0  0
  146.8388  140.9692  155.5362 C   0  0  0  0  0  0  0  0  0  0  0  0
  145.8684  139.7803  155.5432 C   0  0  0  0  0  0  0  0  0  0  0  0
  146.2254  138.7605  154.4434 C   0  0  1  0  0  0  0  0  0  0  0  0
  145.2237  137.5895  154.4188 C   0  0  0  0  0  0  0  0  0  0  0  0
  145.5573  136.6889  153.3705 O   0  0  0  0  0  0  0  0  0  0  0  0
  146.8767  130.5716  152.2076 H   0  0  0  0  0  0  0  0  0  0  0  0
  143.6493  131.8316  149.9632 H   0  0  0  0  0  0  0  0  0  0  0  0
  144.2857  134.2198  150.1854 H   0  0  0  0  0  0  0  0  0  0  0  0
  147.4370  135.2669  151.9035 H   0  0  0  0  0  0  0  0  0  0  0  0
  146.2975  136.6577  150.1846 H   0  0  0  0  0  0  0  0  0  0  0  0
  144.8011  135.8536  150.6369 H   0  0  0  0  0  0  0  0  0  0  0  0
  144.4777  137.7128  151.9336 H   0  0  0  0  0  0  0  0  0  0  0  0
  147.5233  138.0319  152.1299 H   0  0  0  0  0  0  0  0  0  0  0  0
  146.4641  138.9386  151.0640 H   0  0  0  0  0  0  0  0  0  0  0  0
  148.2373  140.1898  153.2193 H   0  0  0  0  0  0  0  0  0  0  0  0
  147.1943  141.0238  152.0837 H   0  0  0  0  0  0  0  0  0  0  0  0
  147.6116  142.4141  154.1219 H   0  0  0  0  0  0  0  0  0  0  0  0
  145.9124  142.0599  153.9167 H   0  0  0  0  0  0  0  0  0  0  0  0
  147.8376  140.6327  155.8174 H   0  0  0  0  0  0  0  0  0  0  0  0
  146.5364  141.7070  156.2802 H   0  0  0  0  0  0  0  0  0  0  0  0
  145.8859  139.2980  156.5213 H   0  0  0  0  0  0  0  0  0  0  0  0
  144.8498  140.1425  155.3958 H   0  0  0  0  0  0  0  0  0  0  0  0
  147.2181  138.3568  154.6512 H   0  0  0  0  0  0  0  0  0  0  0  0
  145.2547  137.0483  155.3648 H   0  0  0  0  0  0  0  0  0  0  0  0
  144.2005  137.9472  154.2916 H   0  0  0  0  0  0  0  0  0  0  0  0
  145.3482  139.8070  152.9484 H   0  0  0  0  0  0  0  0  0  0  0  0
  1  2  1  0  0  0  0
  2  7  1  0  0  0  0
  2  3  2  0  0  0  0
  3  4  1  0  0  0  0
  3 20  1  0  0  0  0
  4  5  2  0  0  0  0
  5  6  1  0  0  0  0
  5 21  1  0  0  0  0
  6  7  2  0  0  0  0
  6 22  1  0  0  0  0
  7  8  1  0  0  0  0
  8  9  1  0  0  0  0
  8 23  1  0  0  0  0
  9 10  1  0  0  0  0
  9 24  1  0  0  0  0
  9 25  1  0  0  0  0
 10 19  1  0  0  0  0
 10 11  1  0  0  0  0
 10 26  1  0  0  0  0
 11 12  1  0  0  0  0
 11 27  1  0  0  0  0
 11 28  1  0  0  0  0
 12 17  1  0  0  0  0
 12 13  1  0  0  0  0
 12 40  1  0  0  0  0
 13 14  1  0  0  0  0
 13 29  1  0  0  0  0
 13 30  1  0  0  0  0
 14 15  1  0  0  0  0
 14 31  1  0  0  0  0
 14 32  1  0  0  0  0
 15 16  1  0  0  0  0
 15 33  1  0  0  0  0
 15 34  1  0  0  0  0
 16 17  1  0  0  0  0
 16 35  1  0  0  0  0
 16 36  1  0  0  0  0
 17 18  1  0  0  0  0
 17 37  1  0  0  0  0
 18 19  1  0  0  0  0
 18 38  1  0  0  0  0
 18 39  1  0  0  0  0
M  CHG  1  12   1
M  END
> <s_m_source_file>
AV-unprocessed.smi

> <i_m_source_file_index>
2822

> <i_lp_mmshare_version>
43012

> <i_f3d_flags>
0

> <s_epik_input>
Q2xjMVtjSF1uW2NIXVtjSF1jMVtOSF1bQ0gyXVtDQEhdKFtDSDJdMilPW0NIMl1bQ0BASF0oTjIzKVtDSDJdW0NIMl1bQ0gyXVtDSDJdMw==

> <s_epik_cmdline>
J2VwaWtfcHl0aG9uJywgJy1waCcsICc3LjAnLCAnLXRuJywgJzgnLCAnLW1hJywgJzIwMCcsICctbWV0YWxfYmluZGluZycsICctaW1hZScsICc8aW5maWxlLm1hZT4nLCAnLW9tYWUnLCAnPG91dGZpbGUubWFlPic=

> <r_lp_tautomer_probability>
0.999999

> <r_epik_Ionization_Penalty>
0.88937

> <r_epik_Ionization_Penalty_Charging>
0.0803403

> <r_epik_Ionization_Penalty_Neutral>
0.80903

> <r_epik_State_Penalty>
0.931884

> <r_epik_Charging_Adjusted_Penalty>
1.01222

> <i_epik_Tot_Q>
1

> <i_epik_Tot_abs_Q>
1

> <r_epik_Metal_State_Penalty>
0.0782275

> <b_epik_Metal_Only>
0

> <s_lp_Force_Field>
OPLS_2005

> <r_lp_Energy>
28.742

> <b_lp_Chiralities_Consistent>
1

> <s_lp_Variant>
AV-unprocessed.smi:2822-9

> <Gold.Version>
5.8.1

> <Gold.Id.Protein>
6NUR|6NUR_protein|mol2

> <Gold.PLP.Fitness>
40.1965

> <Gold.PLP.PLP>
-32.2991

> <Gold.PLP.part.hbond>
-2.0000

> <Gold.PLP.part.metal>
0.0000

> <Gold.PLP.part.buried>
-2.5609

> <Gold.PLP.part.nonpolar>
-28.5752

> <Gold.PLP.part.repulsive>
0.3419

> <Gold.PLP.ligand.clash>
0.0000

> <Gold.PLP.ligand.torsion>
0.5544

> <Gold.PLP.Chemscore.Hbond>
3.0000

> <Gold.PLP.Chemscore.CHOScore>
0.0000

> <Gold.PLP.Chemscore.Metal>
0.0000

> <Gold.Chemscore.Hbonds>
donor molecule, donor type, donor heavy atom, donor atom, acceptor molecule, acceptor atom, score
      L1  H     8    23       P1  7948  0.99
      L1  H    12    40       P1 10175  2.00
      L1  C     3    20       P1 10747  0.04

> <Gold.PLP.Chemscore.Internal.Correction>
0.0062

> <Gold.Rescore>
     Score         DG    S(hbond)    S(metal)    S(lipo)     H(rot)  DE(clash)    DE(int)     intcor
     18.52     -19.34       1.96        0.00      88.04       1.17       0.20       0.62       ----

> <Gold.Chemscore.Fitness>
18.5199

> <Gold.Chemscore.DG>
-19.3411

> <Gold.Chemscore.ZeroCoef>
-5.4800

> <Gold.Chemscore.Hbond>
1.9623

> <Gold.Chemscore.Metal>
0.0000

> <Gold.Chemscore.Lipo>
88.0384

> <Gold.Chemscore.Internal_Hbond>
0.0000

> <Gold.Chemscore.DEClash>
0.1980

> <Gold.Chemscore.DEInternal>
0.6232

> <Gold.Chemscore.Rot>
1.1693

> <Gold.Chemscore.Internal.Correction>
   9.000000E+99

> <Gold.Chemscore.Hbonds>
donor molecule, donor type, donor heavy atom, donor atom, acceptor molecule, acceptor atom, score
      L1  H     8    23       P1  7948  0.91
      L1  H    12    40       P1 10175  1.00

> <Gold.Chemscore.Hbond.Weighted>
-6.5540

> <Gold.Chemscore.Metal.Weighted>
-0.0000

> <Gold.Chemscore.Lipo.Weighted>
-10.3005

> <Gold.Chemscore.Internal_Hbond.Weighted>
0.0000

> <Gold.Chemscore.DEClash.Weighted>
0.1980

> <Gold.Chemscore.DEInternal.Weighted>
0.6232

> <Gold.Chemscore.Rot.Weighted>
2.9934

> <Gold.Chemscore.Internal.Correction.Weighted>
   9.000000E+99

> <Gold.Protein.RotatedTorsions>
[ 6907 6896 6895 6894 ] final -143.98 input  -60.11 | X-H torsion
[ 7974 7965 7964 7962 ] final  -68.32 input  175.53 | X-H torsion
[ 8008 7997 7996 7995 ] final    2.24 input   59.86 | X-H torsion
[ 10167 10162 10161 10158 ] final   36.37 input  -65.29 | X-H torsion
[ 10718 10713 10712 10709 ] final  -38.73 input   66.30 | X-H torsion
[ 10763 10752 10751 10750 ] final  127.41 input  -60.55 | X-H torsion
[ 11005 11000 10999 10996 ] final  101.55 input  -57.11 | X-H torsion

> <Gold.Protein.ActiveResidues>
 VAL166  LYS551  ARG553  GLY616  TRP617  ASP618  TYR619  PRO620  LYS621  CYS622 
 ASP623  PHE694  ASN695  SER759  ASP760  ASP761  ALA762  ILE779  LEU786  VAL792 
 PHE793  MET794  SER795  GLU796  ALA797  LYS798  CYS799  TRP800  GLU811  SER814 

> <Gold.Protein.RotatedAtoms>
  151.1078  133.5195  159.2606 H   0  0  0  0  0  0  0  0  0  0  0  0  # atno 6907 bound_to 6896
  151.2001  135.0438  159.8878 H   0  0  0  0  0  0  0  0  0  0  0  0  # atno 6908 bound_to 6896
  152.5448  134.0908  159.8329 H   0  0  0  0  0  0  0  0  0  0  0  0  # atno 6909 bound_to 6896
  145.7180  140.9050  143.0645 H   0  0  0  0  0  0  0  0  0  0  0  0  # atno 7974 bound_to 7965
  154.6893  140.2649  155.6829 H   0  0  0  0  0  0  0  0  0  0  0  0  # atno 8008 bound_to 7997
  156.2726  140.2794  156.1388 H   0  0  0  0  0  0  0  0  0  0  0  0  # atno 8009 bound_to 7997
  155.0920  140.0373  157.2661 H   0  0  0  0  0  0  0  0  0  0  0  0  # atno 8010 bound_to 7997
  140.4134  144.1560  150.6141 H   0  0  0  0  0  0  0  0  0  0  0  0  # atno 10167 bound_to 10162
  156.3004  130.4239  149.8149 H   0  0  0  0  0  0  0  0  0  0  0  0  # atno 10718 bound_to 10713
  153.7090  135.3271  155.3242 H   0  0  0  0  0  0  0  0  0  0  0  0  # atno 10763 bound_to 10752
  154.8390  135.4472  154.1333 H   0  0  0  0  0  0  0  0  0  0  0  0  # atno 10764 bound_to 10752
  153.2421  135.6972  153.7850 H   0  0  0  0  0  0  0  0  0  0  0  0  # atno 10765 bound_to 10752
  139.8774  134.9187  156.4923 H   0  0  0  0  0  0  0  0  0  0  0  0  # atno 11005 bound_to 11000
  144.6924  139.9164  143.7466 LP  0  0  0  0  0  0  0  0  0  0  0  0  # atno 17320 bound_to 7965
  146.0652  139.3643  143.0557 LP  0  0  0  0  0  0  0  0  0  0  0  0  # atno 17321 bound_to 7965
  140.4613  143.2448  151.9216 LP  0  0  0  0  0  0  0  0  0  0  0  0  # atno 17342 bound_to 10162
  139.4782  144.5465  151.8451 LP  0  0  0  0  0  0  0  0  0  0  0  0  # atno 17343 bound_to 10162
  156.5529  130.8349  151.3305 LP  0  0  0  0  0  0  0  0  0  0  0  0  # atno 17370 bound_to 10713
  157.7366  130.9782  150.2148 LP  0  0  0  0  0  0  0  0  0  0  0  0  # atno 17371 bound_to 10713
  140.8649  133.8031  155.9304 LP  0  0  0  0  0  0  0  0  0  0  0  0  # atno 17394 bound_to 11000
  140.9011  134.2377  157.5041 LP  0  0  0  0  0  0  0  0  0  0  0  0  # atno 17395 bound_to 11000

$$$$
