AV-unprocessed.smi:1715|AV-procd|sdf|6913|dock7
  -GOLD-   22720 8113D 1   1.00000     0.00000
 Structure written by MMmdl.
 41 42  0  0  0  0  0  0  0  0  2 V2000
  145.3308  133.3916  150.7112 C   0  0  0  0  0  0  0  0  0  0  0  0
  146.3220  132.3127  151.1612 C   0  0  1  0  0  0  0  0  0  0  0  0
  147.2621  132.8130  152.2739 C   0  0  0  0  0  0  0  0  0  0  0  0
  148.1542  131.7218  152.7329 N   0  3  1  0  0  0  0  0  0  0  0  0
  149.1186  132.1797  153.7640 C   0  0  0  0  0  0  0  0  0  0  0  0
  148.5438  133.2956  154.6584 C   0  0  0  0  0  0  0  0  0  0  0  0
  148.9330  134.6180  154.1819 N   0  0  0  0  0  0  0  0  0  0  0  0
  149.6720  135.4957  154.8754 C   0  0  0  0  0  0  0  0  0  0  0  0
  150.1003  135.2749  156.0084 O   0  0  0  0  0  0  0  0  0  0  0  0
  149.8743  136.6257  154.1782 N   0  0  0  0  0  0  0  0  0  0  0  0
  150.5971  137.7736  154.5915 C   0  0  0  0  0  0  0  0  0  0  0  0
  150.3854  139.0870  154.0913 C   0  0  0  0  0  0  0  0  0  0  0  0
  151.2040  139.9596  154.6612 N   0  0  0  0  0  0  0  0  0  0  0  0
  151.9359  139.2159  155.5210 N   0  0  0  0  0  0  0  0  0  0  0  0
  151.6018  137.8797  155.5120 C   0  0  0  0  0  0  0  0  0  0  0  0
  147.3528  130.5446  153.1497 C   0  0  0  0  0  0  0  0  0  0  0  0
  146.4073  130.1055  152.0150 C   0  0  1  0  0  0  0  0  0  0  0  0
  145.5013  128.9426  152.4337 C   0  0  0  0  0  0  0  0  0  0  0  0
  145.5775  131.2022  151.6488 O   0  0  0  0  0  0  0  0  0  0  0  0
  152.6515  139.6306  156.1011 H   0  0  0  0  0  0  0  0  0  0  0  0
  145.8518  134.2642  150.3166 H   0  0  0  0  0  0  0  0  0  0  0  0
  144.7029  133.7221  151.5390 H   0  0  0  0  0  0  0  0  0  0  0  0
  144.6748  133.0143  149.9264 H   0  0  0  0  0  0  0  0  0  0  0  0
  146.9091  131.9994  150.2960 H   0  0  0  0  0  0  0  0  0  0  0  0
  147.8599  133.6459  151.9012 H   0  0  0  0  0  0  0  0  0  0  0  0
  146.6820  133.1871  153.1194 H   0  0  0  0  0  0  0  0  0  0  0  0
  149.3823  131.3362  154.4040 H   0  0  0  0  0  0  0  0  0  0  0  0
  150.0432  132.4993  153.2803 H   0  0  0  0  0  0  0  0  0  0  0  0
  147.4559  133.2453  154.7128 H   0  0  0  0  0  0  0  0  0  0  0  0
  148.9116  133.1812  155.6785 H   0  0  0  0  0  0  0  0  0  0  0  0
  148.6239  134.8808  153.2573 H   0  0  0  0  0  0  0  0  0  0  0  0
  149.4691  136.6719  153.2546 H   0  0  0  0  0  0  0  0  0  0  0  0
  149.6796  139.4296  153.3490 H   0  0  0  0  0  0  0  0  0  0  0  0
  152.0959  137.1561  156.1431 H   0  0  0  0  0  0  0  0  0  0  0  0
  148.0064  129.7135  153.4126 H   0  0  0  0  0  0  0  0  0  0  0  0
  146.7782  130.7932  154.0437 H   0  0  0  0  0  0  0  0  0  0  0  0
  146.9929  129.7935  151.1482 H   0  0  0  0  0  0  0  0  0  0  0  0
  146.0885  128.0674  152.7124 H   0  0  0  0  0  0  0  0  0  0  0  0
  144.8392  128.6520  151.6178 H   0  0  0  0  0  0  0  0  0  0  0  0
  144.8786  129.2142  153.2866 H   0  0  0  0  0  0  0  0  0  0  0  0
  148.6979  131.4426  151.9287 H   0  0  0  0  0  0  0  0  0  0  0  0
  1  2  1  0  0  0  0
  1 21  1  0  0  0  0
  1 22  1  0  0  0  0
  1 23  1  0  0  0  0
  2 19  1  0  0  0  0
  2  3  1  0  0  0  0
  2 24  1  0  0  0  0
  3  4  1  0  0  0  0
  3 25  1  0  0  0  0
  3 26  1  0  0  0  0
  4  5  1  0  0  0  0
  4 16  1  0  0  0  0
  4 41  1  0  0  0  0
  5  6  1  0  0  0  0
  5 27  1  0  0  0  0
  5 28  1  0  0  0  0
  6  7  1  0  0  0  0
  6 29  1  0  0  0  0
  6 30  1  0  0  0  0
  7  8  1  0  0  0  0
  7 31  1  0  0  0  0
  8  9  2  0  0  0  0
  8 10  1  0  0  0  0
 10 11  1  0  0  0  0
 10 32  1  0  0  0  0
 11 15  2  0  0  0  0
 11 12  1  0  0  0  0
 12 13  2  0  0  0  0
 12 33  1  0  0  0  0
 13 14  1  0  0  0  0
 14 20  1  0  0  0  0
 14 15  1  0  0  0  0
 15 34  1  0  0  0  0
 16 17  1  0  0  0  0
 16 35  1  0  0  0  0
 16 36  1  0  0  0  0
 17 18  1  0  0  0  0
 17 19  1  0  0  0  0
 17 37  1  0  0  0  0
 18 38  1  0  0  0  0
 18 39  1  0  0  0  0
 18 40  1  0  0  0  0
M  CHG  1   4   1
M  END
> <s_m_source_file>
AV-unprocessed.smi

> <i_m_source_file_index>
1715

> <i_lp_mmshare_version>
43012

> <i_f3d_flags>
0

> <s_epik_input>
W0NIM11bQ0BASF0xW0NIMl1OKFtDSDJdW0NASF0oTzEpW0NIM10pW0NIMl1bQ0gyXVtOSF1DKD1PKVtOSF1jMltjSF1uW25IXVtjSF0y

> <s_epik_cmdline>
J2VwaWtfcHl0aG9uJywgJy1waCcsICc3LjAnLCAnLXRuJywgJzgnLCAnLW1hJywgJzIwMCcsICctbWV0YWxfYmluZGluZycsICctaW1hZScsICc8aW5maWxlLm1hZT4nLCAnLW9tYWUnLCAnPG91dGZpbGUubWFlPic=

> <r_lp_tautomer_probability>
0.5

> <r_epik_Ionization_Penalty>
0.646007

> <r_epik_Ionization_Penalty_Charging>
0.645968

> <r_epik_Ionization_Penalty_Neutral>
3.91671e-05

> <r_epik_State_Penalty>
0.664063

> <r_epik_Charging_Adjusted_Penalty>
1.31003

> <i_epik_Tot_Q>
1

> <i_epik_Tot_abs_Q>
1

> <r_epik_Metal_State_Penalty>
0.664064

> <b_epik_Metal_Only>
0

> <s_lp_Force_Field>
OPLS_2005

> <r_lp_Energy>
16.9027

> <b_lp_Chiralities_Consistent>
1

> <s_lp_Variant>
AV-unprocessed.smi:1715-5

> <Gold.Version>
5.8.1

> <Gold.Id.Protein>
6NUR|6NUR_protein|mol2

> <Gold.PLP.Fitness>
45.5133

> <Gold.PLP.PLP>
-32.4923

> <Gold.PLP.part.hbond>
-4.9174

> <Gold.PLP.part.metal>
0.0000

> <Gold.PLP.part.buried>
-3.2459

> <Gold.PLP.part.nonpolar>
-24.9575

> <Gold.PLP.part.repulsive>
0.4867

> <Gold.PLP.ligand.clash>
0.0055

> <Gold.PLP.ligand.torsion>
0.7689

> <Gold.PLP.Chemscore.Hbond>
3.8480

> <Gold.PLP.Chemscore.CHOScore>
1.0000

> <Gold.PLP.Chemscore.Metal>
0.0000

> <Gold.Chemscore.Hbonds>
donor molecule, donor type, donor heavy atom, donor atom, acceptor molecule, acceptor atom, score
      L1  H     4    41       P1 10747  1.00
      L1  H     7    31       P1  7948  0.82
      L1  H    10    32       P1  7948  0.98
      P1  H  7989  7998       L1    13  1.00
      L1  C    12    33       P1  7957  1.00

> <Gold.PLP.Chemscore.Internal.Correction>
0.0204

> <Gold.Rescore>
     Score         DG    S(hbond)    S(metal)    S(lipo)     H(rot)  DE(clash)    DE(int)     intcor
     17.95     -19.89       2.97        0.00      74.74       1.67       0.35       1.59       ----

> <Gold.Chemscore.Fitness>
17.9546

> <Gold.Chemscore.DG>
-19.8909

> <Gold.Chemscore.ZeroCoef>
-5.4800

> <Gold.Chemscore.Hbond>
2.9742

> <Gold.Chemscore.Metal>
0.0000

> <Gold.Chemscore.Lipo>
74.7406

> <Gold.Chemscore.Internal_Hbond>
0.0000

> <Gold.Chemscore.DEClash>
0.3477

> <Gold.Chemscore.DEInternal>
1.5885

> <Gold.Chemscore.Rot>
1.6671

> <Gold.Chemscore.Internal.Correction>
   9.000000E+99

> <Gold.Chemscore.Hbonds>
donor molecule, donor type, donor heavy atom, donor atom, acceptor molecule, acceptor atom, score
      L1  H     4    41       P1 10747  0.96
      L1  H     7    31       P1  7948  0.45
      L1  H    10    32       P1  7948  0.68
      P1  H  7989  7998       L1    13  0.42

> <Gold.Chemscore.Hbond.Weighted>
-9.9339

> <Gold.Chemscore.Metal.Weighted>
-0.0000

> <Gold.Chemscore.Lipo.Weighted>
-8.7447

> <Gold.Chemscore.Internal_Hbond.Weighted>
0.0000

> <Gold.Chemscore.DEClash.Weighted>
0.3477

> <Gold.Chemscore.DEInternal.Weighted>
1.5885

> <Gold.Chemscore.Rot.Weighted>
4.2677

> <Gold.Chemscore.Internal.Correction.Weighted>
   9.000000E+99

> <Gold.Protein.RotatedTorsions>
[ 6907 6896 6895 6894 ] final  103.75 input  -60.11 | X-H torsion
[ 7974 7965 7964 7962 ] final  149.85 input  175.53 | X-H torsion
[ 8008 7997 7996 7995 ] final  171.48 input   59.86 | X-H torsion
[ 10167 10162 10161 10158 ] final  126.50 input  -65.29 | X-H torsion
[ 10718 10713 10712 10709 ] final  -48.54 input   66.30 | X-H torsion
[ 10763 10752 10751 10750 ] final  -59.83 input  -60.55 | X-H torsion
[ 11005 11000 10999 10996 ] final   22.42 input  -57.11 | X-H torsion

> <Gold.Protein.ActiveResidues>
 VAL166  LYS551  ARG553  GLY616  TRP617  ASP618  TYR619  PRO620  LYS621  CYS622 
 ASP623  PHE694  ASN695  SER759  ASP760  ASP761  ALA762  ILE779  LEU786  VAL792 
 PHE793  MET794  SER795  GLU796  ALA797  LYS798  CYS799  TRP800  GLU811  SER814 

> <Gold.Protein.RotatedAtoms>
  152.5286  133.9778  159.7792 H   0  0  0  0  0  0  0  0  0  0  0  0  # atno 6907 bound_to 6896
  151.0038  133.6023  159.2698 H   0  0  0  0  0  0  0  0  0  0  0  0  # atno 6908 bound_to 6896
  151.3122  135.0803  159.9329 H   0  0  0  0  0  0  0  0  0  0  0  0  # atno 6909 bound_to 6896
  144.8407  139.6333  143.6017 H   0  0  0  0  0  0  0  0  0  0  0  0  # atno 7974 bound_to 7965
  156.1267  140.1511  156.9125 H   0  0  0  0  0  0  0  0  0  0  0  0  # atno 8008 bound_to 7997
  154.4877  140.0860  156.7565 H   0  0  0  0  0  0  0  0  0  0  0  0  # atno 8009 bound_to 7997
  155.4330  140.3428  155.4284 H   0  0  0  0  0  0  0  0  0  0  0  0  # atno 8010 bound_to 7997
  139.5628  144.6892  151.3995 H   0  0  0  0  0  0  0  0  0  0  0  0  # atno 10167 bound_to 10162
  156.1978  130.4155  149.9282 H   0  0  0  0  0  0  0  0  0  0  0  0  # atno 10718 bound_to 10713
  154.2599  135.6310  153.5270 H   0  0  0  0  0  0  0  0  0  0  0  0  # atno 10763 bound_to 10752
  152.9897  135.5585  154.5716 H   0  0  0  0  0  0  0  0  0  0  0  0  # atno 10764 bound_to 10752
  154.5262  135.2885  155.1194 H   0  0  0  0  0  0  0  0  0  0  0  0  # atno 10765 bound_to 10752
  140.3807  134.1923  155.7664 H   0  0  0  0  0  0  0  0  0  0  0  0  # atno 11005 bound_to 11000
  146.2700  139.6612  142.9302 LP  0  0  0  0  0  0  0  0  0  0  0  0  # atno 17320 bound_to 7965
  145.4699  141.0436  143.2704 LP  0  0  0  0  0  0  0  0  0  0  0  0  # atno 17321 bound_to 7965
  140.6909  143.7863  150.7254 LP  0  0  0  0  0  0  0  0  0  0  0  0  # atno 17342 bound_to 10162
  140.1345  143.4496  152.2233 LP  0  0  0  0  0  0  0  0  0  0  0  0  # atno 17343 bound_to 10162
  156.7001  130.8930  151.3598 LP  0  0  0  0  0  0  0  0  0  0  0  0  # atno 17370 bound_to 10713
  157.6968  130.9290  150.0667 LP  0  0  0  0  0  0  0  0  0  0  0  0  # atno 17371 bound_to 10713
  141.1924  133.8173  157.0840 LP  0  0  0  0  0  0  0  0  0  0  0  0  # atno 17394 bound_to 11000
  140.0480  134.9820  157.1085 LP  0  0  0  0  0  0  0  0  0  0  0  0  # atno 17395 bound_to 11000

$$$$
