AV-unprocessed.smi:1019|AV-procd|sdf|4444|dock4
  -GOLD-   22720 2403D 1   1.00000     0.00000
 Structure written by MMmdl.
 44 46  0  0  0  0  0  0  0  0  2 V2000
  147.8431  134.6914  154.9149 C   0  0  0  0  0  0  0  0  0  0  0  0
  149.2070  134.4267  154.3914 N   0  3  2  0  0  0  0  0  0  0  0  0
  149.4302  132.9926  154.0757 C   0  0  0  0  0  0  0  0  0  0  0  0
  148.3596  132.4327  153.1555 C   0  0  0  0  0  0  0  0  0  0  0  0
  147.9895  133.1419  151.9933 C   0  0  0  0  0  0  0  0  0  0  0  0
  146.9957  132.6287  151.1374 C   0  0  0  0  0  0  0  0  0  0  0  0
  146.3702  131.4036  151.4387 C   0  0  0  0  0  0  0  0  0  0  0  0
  146.7393  130.6912  152.5963 C   0  0  0  0  0  0  0  0  0  0  0  0
  147.7326  131.2039  153.4533 C   0  0  0  0  0  0  0  0  0  0  0  0
  150.2718  134.9813  155.2670 C   0  0  0  0  0  0  0  0  0  0  0  0
  150.6036  136.4557  154.9392 C   0  0  2  0  0  0  0  0  0  0  0  0
  151.7829  136.5036  154.1611 O   0  0  0  0  0  0  0  0  0  0  0  0
  150.8375  137.3275  156.1901 C   0  0  0  0  0  0  0  0  0  0  0  0
  150.7008  138.7470  155.9169 N   0  0  0  0  0  0  0  0  0  0  0  0
  150.3774  139.3193  154.7408 C   0  0  0  0  0  0  0  0  0  0  0  0
  150.3233  140.6473  154.7040 N   0  0  0  0  0  0  0  0  0  0  0  0
  150.6326  140.9766  156.0123 C   0  0  0  0  0  0  0  0  0  0  0  0
  150.7454  142.2386  156.6381 C   0  0  0  0  0  0  0  0  0  0  0  0
  151.0765  142.3307  158.0061 C   0  0  0  0  0  0  0  0  0  0  0  0
  151.2969  141.1653  158.7685 C   0  0  0  0  0  0  0  0  0  0  0  0
  151.1915  139.8966  158.1668 C   0  0  0  0  0  0  0  0  0  0  0  0
  150.8659  139.8090  156.8002 C   0  0  0  0  0  0  0  0  0  0  0  0
  147.6697  134.1457  155.8434 H   0  0  0  0  0  0  0  0  0  0  0  0
  147.0798  134.3902  154.1976 H   0  0  0  0  0  0  0  0  0  0  0  0
  147.6862  135.7505  155.1145 H   0  0  0  0  0  0  0  0  0  0  0  0
  150.3884  132.8649  153.5699 H   0  0  0  0  0  0  0  0  0  0  0  0
  149.4859  132.4106  154.9974 H   0  0  0  0  0  0  0  0  0  0  0  0
  148.4656  134.0820  151.7559 H   0  0  0  0  0  0  0  0  0  0  0  0
  146.7134  133.1748  150.2491 H   0  0  0  0  0  0  0  0  0  0  0  0
  145.6089  131.0098  150.7815 H   0  0  0  0  0  0  0  0  0  0  0  0
  146.2604  129.7506  152.8261 H   0  0  0  0  0  0  0  0  0  0  0  0
  148.0091  130.6515  154.3396 H   0  0  0  0  0  0  0  0  0  0  0  0
  149.9529  134.8658  156.3037 H   0  0  0  0  0  0  0  0  0  0  0  0
  151.1894  134.3986  155.1720 H   0  0  0  0  0  0  0  0  0  0  0  0
  149.8033  136.9062  154.3546 H   0  0  0  0  0  0  0  0  0  0  0  0
  151.6198  136.0905  153.3273 H   0  0  0  0  0  0  0  0  0  0  0  0
  150.1304  137.0576  156.9763 H   0  0  0  0  0  0  0  0  0  0  0  0
  151.8356  137.1530  156.5942 H   0  0  0  0  0  0  0  0  0  0  0  0
  150.1821  138.7284  153.8577 H   0  0  0  0  0  0  0  0  0  0  0  0
  150.5754  143.1383  156.0651 H   0  0  0  0  0  0  0  0  0  0  0  0
  151.1589  143.3012  158.4735 H   0  0  0  0  0  0  0  0  0  0  0  0
  151.5456  141.2465  159.8166 H   0  0  0  0  0  0  0  0  0  0  0  0
  151.3577  139.0035  158.7502 H   0  0  0  0  0  0  0  0  0  0  0  0
  149.2880  134.9152  153.5113 H   0  0  0  0  0  0  0  0  0  0  0  0
  1  2  1  0  0  0  0
  1 23  1  0  0  0  0
  1 24  1  0  0  0  0
  1 25  1  0  0  0  0
  2  3  1  0  0  0  0
  2 10  1  0  0  0  0
  2 44  1  0  0  0  0
  3  4  1  0  0  0  0
  3 26  1  0  0  0  0
  3 27  1  0  0  0  0
  4  9  1  0  0  0  0
  4  5  2  0  0  0  0
  5  6  1  0  0  0  0
  5 28  1  0  0  0  0
  6  7  2  0  0  0  0
  6 29  1  0  0  0  0
  7  8  1  0  0  0  0
  7 30  1  0  0  0  0
  8  9  2  0  0  0  0
  8 31  1  0  0  0  0
  9 32  1  0  0  0  0
 10 11  1  0  0  0  0
 10 33  1  0  0  0  0
 10 34  1  0  0  0  0
 11 12  1  0  0  0  0
 11 13  1  0  0  0  0
 11 35  1  0  0  0  0
 12 36  1  0  0  0  0
 13 14  1  0  0  0  0
 13 37  1  0  0  0  0
 13 38  1  0  0  0  0
 14 22  1  0  0  0  0
 14 15  1  0  0  0  0
 15 16  2  0  0  0  0
 15 39  1  0  0  0  0
 16 17  1  0  0  0  0
 17 22  2  0  0  0  0
 17 18  1  0  0  0  0
 18 19  2  0  0  0  0
 18 40  1  0  0  0  0
 19 20  1  0  0  0  0
 19 41  1  0  0  0  0
 20 21  2  0  0  0  0
 20 42  1  0  0  0  0
 21 22  1  0  0  0  0
 21 43  1  0  0  0  0
M  CHG  1   2   1
M  END
> <s_m_source_file>
AV-unprocessed.smi

> <i_m_source_file_index>
1019

> <i_lp_mmshare_version>
43012

> <i_f3d_flags>
0

> <s_epik_input>
W2NIXTFbY0hdW2NIXVtjSF1bY0hdYzFbQ0gyXU4oW0NIM10pW0NIMl1bQ0BIXShbT0hdKVtDSDJdbihbY0hdbjIpYyhjMjMpW2NIXVtjSF1bY0hdW2NIXTM=

> <s_epik_cmdline>
J2VwaWtfcHl0aG9uJywgJy1waCcsICc3LjAnLCAnLXRuJywgJzgnLCAnLW1hJywgJzIwMCcsICctbWV0YWxfYmluZGluZycsICctaW1hZScsICc8aW5maWxlLm1hZT4nLCAnLW9tYWUnLCAnPG91dGZpbGUubWFlPic=

> <r_epik_Ionization_Penalty>
0.0996557

> <r_epik_Ionization_Penalty_Charging>
0.0475377

> <r_epik_Ionization_Penalty_Neutral>
0.0521179

> <r_epik_State_Penalty>
0.0851777

> <r_epik_Charging_Adjusted_Penalty>
0.132715

> <i_epik_Tot_Q>
1

> <i_epik_Tot_abs_Q>
1

> <r_epik_Metal_State_Penalty>
0.0423478

> <b_epik_Metal_Only>
0

> <s_lp_Force_Field>
OPLS_2005

> <r_lp_Energy>
17.6047

> <b_lp_Chiralities_Consistent>
1

> <s_lp_Variant>
AV-unprocessed.smi:1019-2

> <Gold.Version>
5.8.1

> <Gold.Id.Protein>
6NUR|6NUR_protein|mol2

> <Gold.PLP.Fitness>
53.5782

> <Gold.PLP.PLP>
-42.5109

> <Gold.PLP.part.hbond>
-3.8119

> <Gold.PLP.part.metal>
0.0000

> <Gold.PLP.part.buried>
-4.4408

> <Gold.PLP.part.nonpolar>
-34.3863

> <Gold.PLP.part.repulsive>
0.1266

> <Gold.PLP.ligand.clash>
0.0000

> <Gold.PLP.ligand.torsion>
1.2857

> <Gold.PLP.Chemscore.Hbond>
4.4488

> <Gold.PLP.Chemscore.CHOScore>
0.0000

> <Gold.PLP.Chemscore.Metal>
0.0000

> <Gold.Chemscore.Hbonds>
donor molecule, donor type, donor heavy atom, donor atom, acceptor molecule, acceptor atom, score
      L1  H     2    44       P1  7948  1.27
      L1  H    12    36       P1  7949  1.00
      P1  H  7989  7998       L1    16  0.76
      P1  H 10752 10763       L1    12  0.31

> <Gold.PLP.Chemscore.Internal.Correction>
0.2924

> <Gold.Rescore>
     Score         DG    S(hbond)    S(metal)    S(lipo)     H(rot)  DE(clash)    DE(int)     intcor
     13.78     -14.99       1.13        0.00     100.76       2.36       0.10       1.11       ----

> <Gold.Chemscore.Fitness>
13.7835

> <Gold.Chemscore.DG>
-14.9889

> <Gold.Chemscore.ZeroCoef>
-5.4800

> <Gold.Chemscore.Hbond>
1.1275

> <Gold.Chemscore.Metal>
0.0000

> <Gold.Chemscore.Lipo>
100.7598

> <Gold.Chemscore.Internal_Hbond>
0.0000

> <Gold.Chemscore.DEClash>
0.0980

> <Gold.Chemscore.DEInternal>
1.1075

> <Gold.Chemscore.Rot>
2.3616

> <Gold.Chemscore.Internal.Correction>
   9.000000E+99

> <Gold.Chemscore.Hbonds>
donor molecule, donor type, donor heavy atom, donor atom, acceptor molecule, acceptor atom, score
      L1  H     2    44       P1  7948  0.08
      L1  H    12    36       P1  7949  0.92
      P1  H  7989  7998       L1    16  0.12
      P1  H 10752 10763       L1    12  0.01

> <Gold.Chemscore.Hbond.Weighted>
-3.7657

> <Gold.Chemscore.Metal.Weighted>
-0.0000

> <Gold.Chemscore.Lipo.Weighted>
-11.7889

> <Gold.Chemscore.Internal_Hbond.Weighted>
0.0000

> <Gold.Chemscore.DEClash.Weighted>
0.0980

> <Gold.Chemscore.DEInternal.Weighted>
1.1075

> <Gold.Chemscore.Rot.Weighted>
6.0457

> <Gold.Chemscore.Internal.Correction.Weighted>
   9.000000E+99

> <Gold.Protein.RotatedTorsions>
[ 6907 6896 6895 6894 ] final  105.38 input  -60.11 | X-H torsion
[ 7974 7965 7964 7962 ] final  173.24 input  175.53 | X-H torsion
[ 8008 7997 7996 7995 ] final -110.43 input   59.86 | X-H torsion
[ 10167 10162 10161 10158 ] final   62.19 input  -65.29 | X-H torsion
[ 10718 10713 10712 10709 ] final  137.62 input   66.30 | X-H torsion
[ 10763 10752 10751 10750 ] final   42.78 input  -60.55 | X-H torsion
[ 11005 11000 10999 10996 ] final -139.87 input  -57.11 | X-H torsion

> <Gold.Protein.ActiveResidues>
 VAL166  LYS551  ARG553  GLY616  TRP617  ASP618  TYR619  PRO620  LYS621  CYS622 
 ASP623  PHE694  ASN695  SER759  ASP760  ASP761  ALA762  ILE779  LEU786  VAL792 
 PHE793  MET794  SER795  GLU796  ALA797  LYS798  CYS799  TRP800  GLU811  SER814 

> <Gold.Protein.RotatedAtoms>
  152.5232  133.9538  159.7684 H   0  0  0  0  0  0  0  0  0  0  0  0  # atno 6907 bound_to 6896
  150.9842  133.6206  159.2725 H   0  0  0  0  0  0  0  0  0  0  0  0  # atno 6908 bound_to 6896
  151.3373  135.0861  159.9412 H   0  0  0  0  0  0  0  0  0  0  0  0  # atno 6909 bound_to 6896
  144.7248  139.9618  143.6435 H   0  0  0  0  0  0  0  0  0  0  0  0  # atno 7974 bound_to 7965
  154.9744  140.0397  157.2249 H   0  0  0  0  0  0  0  0  0  0  0  0  # atno 8008 bound_to 7997
  154.7771  140.2812  155.6070 H   0  0  0  0  0  0  0  0  0  0  0  0  # atno 8009 bound_to 7997
  156.2930  140.2599  156.2587 H   0  0  0  0  0  0  0  0  0  0  0  0  # atno 8010 bound_to 7997
  140.1466  144.4503  150.6782 H   0  0  0  0  0  0  0  0  0  0  0  0  # atno 10167 bound_to 10162
  157.4341  131.1051  151.0217 H   0  0  0  0  0  0  0  0  0  0  0  0  # atno 10718 bound_to 10713
  152.9875  135.6121  154.3005 H   0  0  0  0  0  0  0  0  0  0  0  0  # atno 10763 bound_to 10752
  154.2726  135.2779  155.2733 H   0  0  0  0  0  0  0  0  0  0  0  0  # atno 10764 bound_to 10752
  154.5109  135.5841  153.6661 H   0  0  0  0  0  0  0  0  0  0  0  0  # atno 10765 bound_to 10752
  140.8477  134.2324  157.4777 H   0  0  0  0  0  0  0  0  0  0  0  0  # atno 11005 bound_to 11000
  146.0632  139.3624  143.0569 LP  0  0  0  0  0  0  0  0  0  0  0  0  # atno 17320 bound_to 7965
  145.8066  140.9746  143.0971 LP  0  0  0  0  0  0  0  0  0  0  0  0  # atno 17321 bound_to 7965
  140.6728  143.2293  151.5582 LP  0  0  0  0  0  0  0  0  0  0  0  0  # atno 17342 bound_to 10162
  139.5446  144.2555  152.1417 LP  0  0  0  0  0  0  0  0  0  0  0  0  # atno 17343 bound_to 10162
  157.1103  130.6019  149.5480 LP  0  0  0  0  0  0  0  0  0  0  0  0  # atno 17370 bound_to 10713
  155.9924  130.4982  150.7338 LP  0  0  0  0  0  0  0  0  0  0  0  0  # atno 17371 bound_to 10713
  139.8703  134.9668  156.4574 LP  0  0  0  0  0  0  0  0  0  0  0  0  # atno 17394 bound_to 11000
  140.8824  133.7908  155.9482 LP  0  0  0  0  0  0  0  0  0  0  0  0  # atno 17395 bound_to 11000

$$$$
