AV-unprocessed.smi:2671|AV-procd|sdf|10352|dock1
  -GOLD-   2272014373D 1   1.00000     0.00000
 Structure written by MMmdl.
 29 30  0  0  0  0  0  0  0  0  1 V2000
  150.1871  138.4056  153.1766 O   0  0  0  0  0  0  0  0  0  0  0  0
  150.6627  138.8005  154.3915 C   0  0  0  0  0  0  0  0  0  0  0  0
  151.2197  137.8461  155.2684 C   0  0  0  0  0  0  0  0  0  0  0  0
  151.6922  138.3266  156.5118 C   0  0  0  0  0  0  0  0  0  0  0  0
  152.3154  137.4061  157.5501 C   0  0  0  0  0  0  0  0  0  0  0  0
  153.5932  137.7146  157.7738 F   0  0  0  0  0  0  0  0  0  0  0  0
  151.6488  137.5082  158.7001 F   0  0  0  0  0  0  0  0  0  0  0  0
  152.2536  136.1433  157.1270 F   0  0  0  0  0  0  0  0  0  0  0  0
  151.6115  139.6376  156.8375 N   0  0  0  0  0  0  0  0  0  0  0  0
  151.0654  140.4420  155.9252 C   0  0  0  0  0  0  0  0  0  0  0  0
  150.9593  142.1578  156.3595 S   0  0  0  0  0  0  0  0  0  0  0  0
  151.0631  142.0075  158.1641 C   0  0  0  0  0  0  0  0  0  0  0  0
  150.8845  143.3622  158.8625 C   0  0  2  0  0  0  0  0  0  0  0  0
  151.6593  144.5185  158.2207 C   0  0  0  0  0  0  0  0  0  0  0  0
  152.0588  145.4021  159.3951 C   0  0  0  0  0  0  0  0  0  0  0  0
  151.5400  144.6527  160.6219 C   0  0  0  0  0  0  0  0  0  0  0  0
  151.4119  143.3113  160.1787 O   0  0  0  0  0  0  0  0  0  0  0  0
  150.5863  140.1065  154.7261 N   0  0  0  0  0  0  0  0  0  0  0  0
  149.8708  139.1289  152.6574 H   0  0  0  0  0  0  0  0  0  0  0  0
  151.2784  136.8024  154.9964 H   0  0  0  0  0  0  0  0  0  0  0  0
  150.2893  141.3149  158.4963 H   0  0  0  0  0  0  0  0  0  0  0  0
  152.0223  141.5631  158.4317 H   0  0  0  0  0  0  0  0  0  0  0  0
  149.8247  143.6151  158.9287 H   0  0  0  0  0  0  0  0  0  0  0  0
  152.5549  144.1552  157.7153 H   0  0  0  0  0  0  0  0  0  0  0  0
  151.0555  145.0503  157.4847 H   0  0  0  0  0  0  0  0  0  0  0  0
  153.1441  145.5003  159.4358 H   0  0  0  0  0  0  0  0  0  0  0  0
  151.6340  146.4039  159.3267 H   0  0  0  0  0  0  0  0  0  0  0  0
  152.2100  144.7310  161.4784 H   0  0  0  0  0  0  0  0  0  0  0  0
  150.5601  145.0299  160.9188 H   0  0  0  0  0  0  0  0  0  0  0  0
  1  2  1  0  0  0  0
  1 19  1  0  0  0  0
  2 18  1  0  0  0  0
  2  3  2  0  0  0  0
  3  4  1  0  0  0  0
  3 20  1  0  0  0  0
  4  5  1  0  0  0  0
  4  9  2  0  0  0  0
  5  6  1  0  0  0  0
  5  7  1  0  0  0  0
  5  8  1  0  0  0  0
  9 10  1  0  0  0  0
 10 11  1  0  0  0  0
 10 18  2  0  0  0  0
 11 12  1  0  0  0  0
 12 13  1  0  0  0  0
 12 21  1  0  0  0  0
 12 22  1  0  0  0  0
 13 17  1  0  0  0  0
 13 14  1  0  0  0  0
 13 23  1  0  0  0  0
 14 15  1  0  0  0  0
 14 24  1  0  0  0  0
 14 25  1  0  0  0  0
 15 16  1  0  0  0  0
 15 26  1  0  0  0  0
 15 27  1  0  0  0  0
 16 17  1  0  0  0  0
 16 28  1  0  0  0  0
 16 29  1  0  0  0  0
M  END
> <s_m_source_file>
AV-unprocessed.smi

> <i_m_source_file_index>
2671

> <i_lp_mmshare_version>
43012

> <i_f3d_flags>
0

> <s_epik_input>
W09IXWMxW2NIXWMoQyhGKShGKUYpbmMobjEpU1tDSDJdW0NAQEhdMltDSDJdW0NIMl1bQ0gyXU8y

> <s_epik_cmdline>
J2VwaWtfcHl0aG9uJywgJy1waCcsICc3LjAnLCAnLXRuJywgJzgnLCAnLW1hJywgJzIwMCcsICctbWV0YWxfYmluZGluZycsICctaW1hZScsICc8aW5maWxlLm1hZT4nLCAnLW9tYWUnLCAnPG91dGZpbGUubWFlPic=

> <r_lp_tautomer_probability>
0.0660145

> <r_epik_Ionization_Penalty>
3.60098

> <r_epik_Ionization_Penalty_Charging>
0

> <r_epik_Ionization_Penalty_Neutral>
3.60098

> <r_epik_State_Penalty>
2.71709

> <r_epik_Charging_Adjusted_Penalty>
2.71709

> <i_epik_Tot_Q>
0

> <i_epik_Tot_abs_Q>
0

> <r_epik_Metal_State_Penalty>
3.44057

> <b_epik_Metal_Only>
0

> <s_lp_Force_Field>
OPLS_2005

> <r_lp_Energy>
11.8845

> <b_lp_Chiralities_Consistent>
1

> <s_lp_Variant>
AV-unprocessed.smi:2671-7

> <Gold.Version>
5.8.1

> <Gold.Id.Protein>
6NUR|6NUR_protein|mol2

> <Gold.PLP.Fitness>
39.8415

> <Gold.PLP.PLP>
-35.7393

> <Gold.PLP.part.hbond>
-3.6534

> <Gold.PLP.part.metal>
0.0000

> <Gold.PLP.part.buried>
-4.4221

> <Gold.PLP.part.nonpolar>
-26.0494

> <Gold.PLP.part.repulsive>
0.1152

> <Gold.PLP.ligand.clash>
0.9223

> <Gold.PLP.ligand.torsion>
0.5028

> <Gold.PLP.Chemscore.Hbond>
2.0000

> <Gold.PLP.Chemscore.CHOScore>
0.0000

> <Gold.PLP.Chemscore.Metal>
0.0000

> <Gold.Chemscore.Hbonds>
donor molecule, donor type, donor heavy atom, donor atom, acceptor molecule, acceptor atom, score
      L1  H     1    19       P1  7957  1.00
      P1  H  7989  7998       L1    18  1.00

> <Gold.PLP.Chemscore.Internal.Correction>
0.0302

> <Gold.Rescore>
     Score         DG    S(hbond)    S(metal)    S(lipo)     H(rot)  DE(clash)    DE(int)     intcor
     12.52     -13.00       1.27        0.00      77.63       2.27       0.03       0.45       ----

> <Gold.Chemscore.Fitness>
12.5169

> <Gold.Chemscore.DG>
-12.9964

> <Gold.Chemscore.ZeroCoef>
-5.4800

> <Gold.Chemscore.Hbond>
1.2672

> <Gold.Chemscore.Metal>
0.0000

> <Gold.Chemscore.Lipo>
77.6288

> <Gold.Chemscore.Internal_Hbond>
0.0000

> <Gold.Chemscore.DEClash>
0.0344

> <Gold.Chemscore.DEInternal>
0.4452

> <Gold.Chemscore.Rot>
2.2650

> <Gold.Chemscore.Internal.Correction>
   9.000000E+99

> <Gold.Chemscore.Hbonds>
donor molecule, donor type, donor heavy atom, donor atom, acceptor molecule, acceptor atom, score
      L1  H     1    19       P1  7957  0.86
      P1  H  7989  7998       L1    18  0.23

> <Gold.Chemscore.Hbond.Weighted>
-4.2323

> <Gold.Chemscore.Metal.Weighted>
-0.0000

> <Gold.Chemscore.Lipo.Weighted>
-9.0826

> <Gold.Chemscore.Internal_Hbond.Weighted>
0.0000

> <Gold.Chemscore.DEClash.Weighted>
0.0344

> <Gold.Chemscore.DEInternal.Weighted>
0.4452

> <Gold.Chemscore.Rot.Weighted>
5.7984

> <Gold.Chemscore.Internal.Correction.Weighted>
   9.000000E+99

> <Gold.Protein.RotatedTorsions>
[ 6907 6896 6895 6894 ] final  146.92 input  -60.11 | X-H torsion
[ 7974 7965 7964 7962 ] final  -68.03 input  175.53 | X-H torsion
[ 8008 7997 7996 7995 ] final  -22.36 input   59.86 | X-H torsion
[ 10167 10162 10161 10158 ] final  -39.15 input  -65.29 | X-H torsion
[ 10718 10713 10712 10709 ] final   20.30 input   66.30 | X-H torsion
[ 10763 10752 10751 10750 ] final -102.67 input  -60.55 | X-H torsion
[ 11005 11000 10999 10996 ] final -135.75 input  -57.11 | X-H torsion

> <Gold.Protein.ActiveResidues>
 VAL166  LYS551  ARG553  GLY616  TRP617  ASP618  TYR619  PRO620  LYS621  CYS622 
 ASP623  PHE694  ASN695  SER759  ASP760  ASP761  ALA762  ILE779  LEU786  VAL792 
 PHE793  MET794  SER795  GLU796  ALA797  LYS798  CYS799  TRP800  GLU811  SER814 

> <Gold.Protein.RotatedAtoms>
  152.1615  133.4585  159.4863 H   0  0  0  0  0  0  0  0  0  0  0  0  # atno 6907 bound_to 6896
  150.6907  134.2065  159.4352 H   0  0  0  0  0  0  0  0  0  0  0  0  # atno 6908 bound_to 6896
  151.9968  134.9949  160.0614 H   0  0  0  0  0  0  0  0  0  0  0  0  # atno 6909 bound_to 6896
  145.7217  140.9036  143.0627 H   0  0  0  0  0  0  0  0  0  0  0  0  # atno 7974 bound_to 7965
  154.4649  140.2010  156.0146 H   0  0  0  0  0  0  0  0  0  0  0  0  # atno 8008 bound_to 7997
  156.0908  140.3258  155.7784 H   0  0  0  0  0  0  0  0  0  0  0  0  # atno 8009 bound_to 7997
  155.4960  140.0550  157.2937 H   0  0  0  0  0  0  0  0  0  0  0  0  # atno 8010 bound_to 7997
  140.7072  143.3232  151.2741 H   0  0  0  0  0  0  0  0  0  0  0  0  # atno 10167 bound_to 10162
  157.1226  130.6556  149.5928 H   0  0  0  0  0  0  0  0  0  0  0  0  # atno 10718 bound_to 10713
  154.7751  135.4852  153.9727 H   0  0  0  0  0  0  0  0  0  0  0  0  # atno 10763 bound_to 10752
  153.1418  135.6774  153.9023 H   0  0  0  0  0  0  0  0  0  0  0  0  # atno 10764 bound_to 10752
  153.8695  135.3145  155.3420 H   0  0  0  0  0  0  0  0  0  0  0  0  # atno 10765 bound_to 10752
  140.8869  134.1861  157.4554 H   0  0  0  0  0  0  0  0  0  0  0  0  # atno 11005 bound_to 11000
  144.6915  139.9211  143.7468 LP  0  0  0  0  0  0  0  0  0  0  0  0  # atno 17320 bound_to 7965
  146.0620  139.3613  143.0575 LP  0  0  0  0  0  0  0  0  0  0  0  0  # atno 17321 bound_to 7965
  139.6693  144.0049  152.2743 LP  0  0  0  0  0  0  0  0  0  0  0  0  # atno 17342 bound_to 10162
  139.9642  144.6537  150.8050 LP  0  0  0  0  0  0  0  0  0  0  0  0  # atno 17343 bound_to 10162
  155.9825  130.4839  150.6885 LP  0  0  0  0  0  0  0  0  0  0  0  0  # atno 17370 bound_to 10713
  157.4463  131.0867  151.0892 LP  0  0  0  0  0  0  0  0  0  0  0  0  # atno 17371 bound_to 10713
  139.8725  134.9841  156.5227 LP  0  0  0  0  0  0  0  0  0  0  0  0  # atno 17394 bound_to 11000
  140.8394  133.8216  155.9060 LP  0  0  0  0  0  0  0  0  0  0  0  0  # atno 17395 bound_to 11000

$$$$
