AV-unprocessed.smi:946|AV-procd|sdf|4234|dock5
  -GOLD-   22720 2143D 1   1.00000     0.00000
 Structure written by MMmdl.
 42 43  0  0  0  0  0  0  0  0  1 V2000
  149.3457  137.9624  156.8116 C   0  0  0  0  0  0  0  0  0  0  0  0
  149.9904  137.5946  158.1564 C   0  0  2  0  0  0  0  0  0  0  0  0
  148.9848  137.7079  159.1593 O   0  0  0  0  0  0  0  0  0  0  0  0
  147.9271  136.7600  159.0737 C   0  0  0  0  0  0  0  0  0  0  0  0
  147.7430  136.1043  160.4482 C   0  0  2  0  0  0  0  0  0  0  0  0
  146.6591  135.0085  160.4238 C   0  0  0  0  0  0  0  0  0  0  0  0
  146.4363  134.4389  161.8298 C   0  0  0  0  0  0  0  0  0  0  0  0
  146.1529  135.5808  162.8117 C   0  0  0  0  0  0  0  0  0  0  0  0
  147.2496  136.6525  162.7135 C   0  0  0  0  0  0  0  0  0  0  0  0
  147.3502  137.1181  161.3713 O   0  0  0  0  0  0  0  0  0  0  0  0
  151.1762  138.5168  158.4829 C   0  0  0  0  0  0  0  0  0  0  0  0
  152.3217  138.0644  158.4733 O   0  0  0  0  0  0  0  0  0  0  0  0
  150.8635  139.7995  158.7469 N   0  0  0  0  0  0  0  0  0  0  0  0
  151.7376  140.8644  159.0897 C   0  0  0  0  0  0  0  0  0  0  0  0
  152.9324  140.4763  159.7349 C   0  0  0  0  0  0  0  0  0  0  0  0
  153.8653  141.4603  160.1126 C   0  0  0  0  0  0  0  0  0  0  0  0
  153.5819  142.8089  159.8338 C   0  0  0  0  0  0  0  0  0  0  0  0
  152.3677  143.1166  159.1838 C   0  0  0  0  0  0  0  0  0  0  0  0
  151.9854  144.5496  158.8414 C   0  0  0  0  0  0  0  0  0  0  0  0
  150.7576  144.6235  158.3258 F   0  0  0  0  0  0  0  0  0  0  0  0
  152.0259  145.3004  159.9424 F   0  0  0  0  0  0  0  0  0  0  0  0
  152.8464  145.0444  157.9518 F   0  0  0  0  0  0  0  0  0  0  0  0
  151.4743  142.1674  158.8240 N   0  0  0  0  0  0  0  0  0  0  0  0
  150.0714  137.9199  155.9987 H   0  0  0  0  0  0  0  0  0  0  0  0
  148.9211  138.9669  156.8309 H   0  0  0  0  0  0  0  0  0  0  0  0
  148.5390  137.2702  156.5692 H   0  0  0  0  0  0  0  0  0  0  0  0
  150.3308  136.5587  158.0967 H   0  0  0  0  0  0  0  0  0  0  0  0
  147.0005  137.2404  158.7553 H   0  0  0  0  0  0  0  0  0  0  0  0
  148.1702  135.9946  158.3360 H   0  0  0  0  0  0  0  0  0  0  0  0
  148.6925  135.6673  160.7625 H   0  0  0  0  0  0  0  0  0  0  0  0
  145.7236  135.4236  160.0464 H   0  0  0  0  0  0  0  0  0  0  0  0
  146.9441  134.2082  159.7402 H   0  0  0  0  0  0  0  0  0  0  0  0
  145.6126  133.7244  161.8271 H   0  0  0  0  0  0  0  0  0  0  0  0
  147.3251  133.8931  162.1484 H   0  0  0  0  0  0  0  0  0  0  0  0
  145.1849  136.0290  162.5845 H   0  0  0  0  0  0  0  0  0  0  0  0
  146.0893  135.1963  163.8299 H   0  0  0  0  0  0  0  0  0  0  0  0
  147.0091  137.4952  163.3617 H   0  0  0  0  0  0  0  0  0  0  0  0
  148.2112  136.2592  163.0467 H   0  0  0  0  0  0  0  0  0  0  0  0
  149.8845  140.0396  158.6934 H   0  0  0  0  0  0  0  0  0  0  0  0
  153.1359  139.4356  159.9419 H   0  0  0  0  0  0  0  0  0  0  0  0
  154.7840  141.1839  160.6085 H   0  0  0  0  0  0  0  0  0  0  0  0
  154.2833  143.5809  160.1140 H   0  0  0  0  0  0  0  0  0  0  0  0
  1  2  1  0  0  0  0
  1 24  1  0  0  0  0
  1 25  1  0  0  0  0
  1 26  1  0  0  0  0
  2  3  1  0  0  0  0
  2 11  1  0  0  0  0
  2 27  1  0  0  0  0
  3  4  1  0  0  0  0
  4  5  1  0  0  0  0
  4 28  1  0  0  0  0
  4 29  1  0  0  0  0
  5 10  1  0  0  0  0
  5  6  1  0  0  0  0
  5 30  1  0  0  0  0
  6  7  1  0  0  0  0
  6 31  1  0  0  0  0
  6 32  1  0  0  0  0
  7  8  1  0  0  0  0
  7 33  1  0  0  0  0
  7 34  1  0  0  0  0
  8  9  1  0  0  0  0
  8 35  1  0  0  0  0
  8 36  1  0  0  0  0
  9 10  1  0  0  0  0
  9 37  1  0  0  0  0
  9 38  1  0  0  0  0
 11 12  2  0  0  0  0
 11 13  1  0  0  0  0
 13 14  1  0  0  0  0
 13 39  1  0  0  0  0
 14 23  1  0  0  0  0
 14 15  2  0  0  0  0
 15 16  1  0  0  0  0
 15 40  1  0  0  0  0
 16 17  2  0  0  0  0
 16 41  1  0  0  0  0
 17 18  1  0  0  0  0
 17 42  1  0  0  0  0
 18 19  1  0  0  0  0
 18 23  2  0  0  0  0
 19 20  1  0  0  0  0
 19 21  1  0  0  0  0
 19 22  1  0  0  0  0
M  END
> <s_m_source_file>
AV-unprocessed.smi

> <i_m_source_file_index>
946

> <i_lp_mmshare_version>
43012

> <i_f3d_flags>
0

> <s_epik_input>
TzFbQ0gyXVtDSDJdW0NIMl1bQ0gyXVtDQEhdMVtDSDJdT1tDQEBIXShbQ0gzXSlDKD1PKVtOSF1jMltjSF1bY0hdW2NIXWMobjIpQyhGKShGKUY=

> <s_epik_cmdline>
J2VwaWtfcHl0aG9uJywgJy1waCcsICc3LjAnLCAnLXRuJywgJzgnLCAnLW1hJywgJzIwMCcsICctbWV0YWxfYmluZGluZycsICctaW1hZScsICc8aW5maWxlLm1hZT4nLCAnLW9tYWUnLCAnPG91dGZpbGUubWFlPic=

> <r_lp_tautomer_probability>
1

> <r_epik_Ionization_Penalty>
1.32683e-06

> <r_epik_Ionization_Penalty_Charging>
0

> <r_epik_Ionization_Penalty_Neutral>
1.32683e-06

> <r_epik_State_Penalty>
-0

> <r_epik_Charging_Adjusted_Penalty>
0

> <i_epik_Tot_Q>
0

> <i_epik_Tot_abs_Q>
0

> <r_epik_Metal_State_Penalty>
-0

> <b_epik_Metal_Only>
0

> <s_lp_Force_Field>
OPLS_2005

> <r_lp_Energy>
15.1486

> <b_lp_Chiralities_Consistent>
1

> <s_lp_Variant>
AV-unprocessed.smi:946-1

> <Gold.Version>
5.8.1

> <Gold.Id.Protein>
6NUR|6NUR_protein|mol2

> <Gold.PLP.Fitness>
53.5333

> <Gold.PLP.PLP>
-51.6107

> <Gold.PLP.part.hbond>
-2.5596

> <Gold.PLP.part.metal>
0.0000

> <Gold.PLP.part.buried>
-7.8023

> <Gold.PLP.part.nonpolar>
-41.6908

> <Gold.PLP.part.repulsive>
0.1947

> <Gold.PLP.ligand.clash>
0.0000

> <Gold.PLP.ligand.torsion>
0.7662

> <Gold.PLP.Chemscore.Hbond>
1.1430

> <Gold.PLP.Chemscore.CHOScore>
0.0000

> <Gold.PLP.Chemscore.Metal>
0.0000

> <Gold.Chemscore.Hbonds>
donor molecule, donor type, donor heavy atom, donor atom, acceptor molecule, acceptor atom, score
      P1  H  6931  6943       L1    10  0.39
      P1  H  6934  6947       L1    10  0.98

> <Gold.PLP.Chemscore.Internal.Correction>
0.0259

> <Gold.Rescore>
     Score         DG    S(hbond)    S(metal)    S(lipo)     H(rot)  DE(clash)    DE(int)     intcor
     12.73     -14.81       0.92        0.00      91.83       1.76       0.07       2.02       ----

> <Gold.Chemscore.Fitness>
12.7268

> <Gold.Chemscore.DG>
-14.8100

> <Gold.Chemscore.ZeroCoef>
-5.4800

> <Gold.Chemscore.Hbond>
0.9224

> <Gold.Chemscore.Metal>
0.0000

> <Gold.Chemscore.Lipo>
91.8284

> <Gold.Chemscore.Internal_Hbond>
0.0000

> <Gold.Chemscore.DEClash>
0.0673

> <Gold.Chemscore.DEInternal>
2.0159

> <Gold.Chemscore.Rot>
1.7557

> <Gold.Chemscore.Internal.Correction>
   9.000000E+99

> <Gold.Chemscore.Hbonds>
donor molecule, donor type, donor heavy atom, donor atom, acceptor molecule, acceptor atom, score
      P1  H  6931  6943       L1    10  0.01
      P1  H  6934  6947       L1    10  0.90

> <Gold.Chemscore.Hbond.Weighted>
-3.0807

> <Gold.Chemscore.Metal.Weighted>
-0.0000

> <Gold.Chemscore.Lipo.Weighted>
-10.7439

> <Gold.Chemscore.Internal_Hbond.Weighted>
0.0000

> <Gold.Chemscore.DEClash.Weighted>
0.0673

> <Gold.Chemscore.DEInternal.Weighted>
2.0159

> <Gold.Chemscore.Rot.Weighted>
4.4946

> <Gold.Chemscore.Internal.Correction.Weighted>
   9.000000E+99

> <Gold.Protein.RotatedTorsions>
[ 6907 6896 6895 6894 ] final  172.42 input  -60.11 | X-H torsion
[ 7974 7965 7964 7962 ] final  174.61 input  175.53 | X-H torsion
[ 8008 7997 7996 7995 ] final  171.39 input   59.86 | X-H torsion
[ 10167 10162 10161 10158 ] final   83.48 input  -65.29 | X-H torsion
[ 10718 10713 10712 10709 ] final  -11.58 input   66.30 | X-H torsion
[ 10763 10752 10751 10750 ] final   30.22 input  -60.55 | X-H torsion
[ 11005 11000 10999 10996 ] final   15.84 input  -57.11 | X-H torsion

> <Gold.Protein.ActiveResidues>
 VAL166  LYS551  ARG553  GLY616  TRP617  ASP618  TYR619  PRO620  LYS621  CYS622 
 ASP623  PHE694  ASN695  SER759  ASP760  ASP761  ALA762  ILE779  LEU786  VAL792 
 PHE793  MET794  SER795  GLU796  ALA797  LYS798  CYS799  TRP800  GLU811  SER814 

> <Gold.Protein.RotatedAtoms>
  151.7845  133.3353  159.3480 H   0  0  0  0  0  0  0  0  0  0  0  0  # atno 6907 bound_to 6896
  150.7414  134.5900  159.5992 H   0  0  0  0  0  0  0  0  0  0  0  0  # atno 6908 bound_to 6896
  152.3253  134.7330  160.0355 H   0  0  0  0  0  0  0  0  0  0  0  0  # atno 6909 bound_to 6896
  144.7218  139.9823  143.6439 H   0  0  0  0  0  0  0  0  0  0  0  0  # atno 7974 bound_to 7965
  156.1276  140.1513  156.9113 H   0  0  0  0  0  0  0  0  0  0  0  0  # atno 8008 bound_to 7997
  154.4884  140.0858  156.7578 H   0  0  0  0  0  0  0  0  0  0  0  0  # atno 8009 bound_to 7997
  155.4315  140.3427  155.4283 H   0  0  0  0  0  0  0  0  0  0  0  0  # atno 8010 bound_to 7997
  139.9179  144.6231  150.8470 H   0  0  0  0  0  0  0  0  0  0  0  0  # atno 10167 bound_to 10162
  156.6570  130.4971  149.6043 H   0  0  0  0  0  0  0  0  0  0  0  0  # atno 10718 bound_to 10713
  153.0384  135.6469  154.1012 H   0  0  0  0  0  0  0  0  0  0  0  0  # atno 10763 bound_to 10752
  154.0723  135.2879  155.3307 H   0  0  0  0  0  0  0  0  0  0  0  0  # atno 10764 bound_to 10752
  154.6586  135.5400  153.8054 H   0  0  0  0  0  0  0  0  0  0  0  0  # atno 10765 bound_to 10752
  140.4538  134.1197  155.7706 H   0  0  0  0  0  0  0  0  0  0  0  0  # atno 11005 bound_to 11000
  146.0477  139.3481  143.0658 LP  0  0  0  0  0  0  0  0  0  0  0  0  # atno 17320 bound_to 7965
  145.8254  140.9658  143.0877 LP  0  0  0  0  0  0  0  0  0  0  0  0  # atno 17321 bound_to 7965
  140.7669  143.3318  151.2394 LP  0  0  0  0  0  0  0  0  0  0  0  0  # atno 17342 bound_to 10162
  139.6886  143.9730  152.2847 LP  0  0  0  0  0  0  0  0  0  0  0  0  # atno 17343 bound_to 10162
  156.2040  130.6637  151.1198 LP  0  0  0  0  0  0  0  0  0  0  0  0  # atno 17370 bound_to 10713
  157.7122  131.0728  150.6459 LP  0  0  0  0  0  0  0  0  0  0  0  0  # atno 17371 bound_to 10713
  141.1652  133.8716  157.1734 LP  0  0  0  0  0  0  0  0  0  0  0  0  # atno 17394 bound_to 11000
  139.9989  135.0035  157.0146 LP  0  0  0  0  0  0  0  0  0  0  0  0  # atno 17395 bound_to 11000

$$$$
