AV-unprocessed.smi:1845|AV-procd|sdf|7513|dock4
  -GOLD-   22720 9223D 1   1.00000     0.00000
 Structure written by MMmdl.
 44 45  0  0  0  0  0  0  0  0  2 V2000
  157.0291  137.9027  154.6504 C   0  0  0  0  0  0  0  0  0  0  0  0
  157.4997  136.1196  154.6387 S   0  0  0  0  0  0  0  0  0  0  0  0
  157.1375  135.6395  153.2966 O   0  0  0  0  0  0  0  0  0  0  0  0
  158.9273  136.0671  154.9964 O   0  0  0  0  0  0  0  0  0  0  0  0
  156.5136  135.4892  155.7691 N   0  5  0  0  0  0  0  0  0  0  0  0
  156.6209  135.8692  157.1714 C   0  0  0  0  0  0  0  0  0  0  0  0
  155.2118  136.1108  157.7555 C   0  0  0  0  0  0  0  0  0  0  0  0
  155.1458  137.2940  158.7333 C   0  0  0  0  0  0  0  0  0  0  0  0
  155.4368  138.4333  158.3616 O   0  0  0  0  0  0  0  0  0  0  0  0
  154.7203  137.0160  159.9775 N   0  0  0  0  0  0  0  0  0  0  0  0
  154.5947  137.9779  161.0688 C   0  0  0  0  0  0  0  0  0  0  0  0
  154.0568  139.3419  160.6581 C   0  0  0  0  0  0  0  0  0  0  0  0
  153.1258  139.5116  159.6110 C   0  0  0  0  0  0  0  0  0  0  0  0
  152.6872  140.8103  159.2881 C   0  0  0  0  0  0  0  0  0  0  0  0
  153.1896  141.9129  160.0198 C   0  0  0  0  0  0  0  0  0  0  0  0
  152.7611  143.2249  159.7183 N   0  0  0  0  0  0  0  0  0  0  0  0
  152.0906  143.3963  158.4313 C   0  0  0  0  0  0  0  0  0  0  0  0
  151.9550  144.8906  158.0910 C   0  0  0  0  0  0  0  0  0  0  0  0
  151.2932  145.5695  159.1528 O   0  0  0  0  0  0  0  0  0  0  0  0
  152.0258  145.4860  160.3704 C   0  0  0  0  0  0  0  0  0  0  0  0
  152.1608  144.0136  160.7936 C   0  0  0  0  0  0  0  0  0  0  0  0
  154.0946  141.7458  161.0157 N   0  0  0  0  0  0  0  0  0  0  0  0
  154.5125  140.4994  161.3197 C   0  0  0  0  0  0  0  0  0  0  0  0
  157.5686  138.4193  153.8574 H   0  0  0  0  0  0  0  0  0  0  0  0
  157.2881  138.3519  155.6086 H   0  0  0  0  0  0  0  0  0  0  0  0
  155.9574  137.9982  154.4782 H   0  0  0  0  0  0  0  0  0  0  0  0
  157.1153  135.1008  157.7667 H   0  0  0  0  0  0  0  0  0  0  0  0
  157.2269  136.7678  157.2915 H   0  0  0  0  0  0  0  0  0  0  0  0
  154.5039  136.2995  156.9471 H   0  0  0  0  0  0  0  0  0  0  0  0
  154.8617  135.2094  158.2618 H   0  0  0  0  0  0  0  0  0  0  0  0
  154.4902  136.0562  160.1909 H   0  0  0  0  0  0  0  0  0  0  0  0
  153.9196  137.5437  161.8070 H   0  0  0  0  0  0  0  0  0  0  0  0
  155.5495  138.1172  161.5783 H   0  0  0  0  0  0  0  0  0  0  0  0
  152.7508  138.6686  159.0504 H   0  0  0  0  0  0  0  0  0  0  0  0
  151.9877  140.9433  158.4765 H   0  0  0  0  0  0  0  0  0  0  0  0
  152.6272  142.8995  157.6246 H   0  0  0  0  0  0  0  0  0  0  0  0
  151.1035  142.9356  158.4861 H   0  0  0  0  0  0  0  0  0  0  0  0
  152.9337  145.3386  157.9122 H   0  0  0  0  0  0  0  0  0  0  0  0
  151.3766  145.0157  157.1756 H   0  0  0  0  0  0  0  0  0  0  0  0
  153.0069  145.9483  160.2501 H   0  0  0  0  0  0  0  0  0  0  0  0
  151.5003  146.0507  161.1406 H   0  0  0  0  0  0  0  0  0  0  0  0
  151.1796  143.6039  161.0370 H   0  0  0  0  0  0  0  0  0  0  0  0
  152.7731  143.9539  161.6943 H   0  0  0  0  0  0  0  0  0  0  0  0
  155.2341  140.4256  162.1198 H   0  0  0  0  0  0  0  0  0  0  0  0
  1  2  1  0  0  0  0
  1 24  1  0  0  0  0
  1 25  1  0  0  0  0
  1 26  1  0  0  0  0
  2  3  2  0  0  0  0
  2  4  2  0  0  0  0
  2  5  1  0  0  0  0
  5  6  1  0  0  0  0
  6  7  1  0  0  0  0
  6 27  1  0  0  0  0
  6 28  1  0  0  0  0
  7  8  1  0  0  0  0
  7 29  1  0  0  0  0
  7 30  1  0  0  0  0
  8  9  2  0  0  0  0
  8 10  1  0  0  0  0
 10 11  1  0  0  0  0
 10 31  1  0  0  0  0
 11 12  1  0  0  0  0
 11 32  1  0  0  0  0
 11 33  1  0  0  0  0
 12 23  1  0  0  0  0
 12 13  2  0  0  0  0
 13 14  1  0  0  0  0
 13 34  1  0  0  0  0
 14 15  2  0  0  0  0
 14 35  1  0  0  0  0
 15 16  1  0  0  0  0
 15 22  1  0  0  0  0
 16 21  1  0  0  0  0
 16 17  1  0  0  0  0
 17 18  1  0  0  0  0
 17 36  1  0  0  0  0
 17 37  1  0  0  0  0
 18 19  1  0  0  0  0
 18 38  1  0  0  0  0
 18 39  1  0  0  0  0
 19 20  1  0  0  0  0
 20 21  1  0  0  0  0
 20 40  1  0  0  0  0
 20 41  1  0  0  0  0
 21 42  1  0  0  0  0
 21 43  1  0  0  0  0
 22 23  2  0  0  0  0
 23 44  1  0  0  0  0
M  CHG  1   5  -1
M  END
> <s_m_source_file>
AV-unprocessed.smi

> <i_m_source_file_index>
1845

> <i_lp_mmshare_version>
43012

> <i_f3d_flags>
0

> <s_epik_input>
W0NIM11TKD1PKSg9TylbTkhdW0NIMl1bQ0gyXUMoPU8pW05IXVtDSDJdYzFbY0hdW2NIXWMobltjSF0xKU4yW0NIMl1bQ0gyXU9bQ0gyXVtDSDJdMg==

> <s_epik_cmdline>
J2VwaWtfcHl0aG9uJywgJy1waCcsICc3LjAnLCAnLXRuJywgJzgnLCAnLW1hJywgJzIwMCcsICctbWV0YWxfYmluZGluZycsICctaW1hZScsICc8aW5maWxlLm1hZT4nLCAnLW9tYWUnLCAnPG91dGZpbGUubWFlPic=

> <r_lp_tautomer_probability>
1

> <r_epik_Ionization_Penalty>
6.31253

> <r_epik_Ionization_Penalty_Charging>
6.30704

> <r_epik_Ionization_Penalty_Neutral>
0.00548995

> <r_epik_State_Penalty>
6.31049

> <r_epik_Charging_Adjusted_Penalty>
12.6175

> <i_epik_Tot_Q>
-1

> <i_epik_Tot_abs_Q>
1

> <r_epik_Metal_State_Penalty>
2.24651

> <b_epik_Metal_Only>
1

> <s_lp_Force_Field>
OPLS_2005

> <r_lp_Energy>
11.4109

> <b_lp_Chiralities_Consistent>
1

> <s_lp_Variant>
AV-unprocessed.smi:1845-2

> <Gold.Version>
5.8.1

> <Gold.Id.Protein>
6NUR|6NUR_protein|mol2

> <Gold.PLP.Fitness>
45.2621

> <Gold.PLP.PLP>
-39.0046

> <Gold.PLP.part.hbond>
-3.7082

> <Gold.PLP.part.metal>
0.0000

> <Gold.PLP.part.buried>
-7.1257

> <Gold.PLP.part.nonpolar>
-28.0442

> <Gold.PLP.part.repulsive>
0.3010

> <Gold.PLP.ligand.clash>
0.0000

> <Gold.PLP.ligand.torsion>
1.6252

> <Gold.PLP.Chemscore.Hbond>
2.7040

> <Gold.PLP.Chemscore.CHOScore>
0.0000

> <Gold.PLP.Chemscore.Metal>
0.0000

> <Gold.Chemscore.Hbonds>
donor molecule, donor type, donor heavy atom, donor atom, acceptor molecule, acceptor atom, score
      P1  H  7997  8010       L1     9  0.72
      P1  H 10752 10764       L1     5  2.00

> <Gold.PLP.Chemscore.Internal.Correction>
1.3959

> <Gold.Rescore>
     Score         DG    S(hbond)    S(metal)    S(lipo)     H(rot)  DE(clash)    DE(int)     intcor
     11.63     -15.96       1.57        0.00      98.75       2.46       0.06       4.27       ----

> <Gold.Chemscore.Fitness>
11.6274

> <Gold.Chemscore.DG>
-15.9601

> <Gold.Chemscore.ZeroCoef>
-5.4800

> <Gold.Chemscore.Hbond>
1.5660

> <Gold.Chemscore.Metal>
0.0000

> <Gold.Chemscore.Lipo>
98.7492

> <Gold.Chemscore.Internal_Hbond>
0.0000

> <Gold.Chemscore.DEClash>
0.0599

> <Gold.Chemscore.DEInternal>
4.2728

> <Gold.Chemscore.Rot>
2.4625

> <Gold.Chemscore.Internal.Correction>
   9.000000E+99

> <Gold.Chemscore.Hbonds>
donor molecule, donor type, donor heavy atom, donor atom, acceptor molecule, acceptor atom, score
      P1  H  7997  8010       L1     9  0.70
      P1  H 10752 10764       L1     5  0.39

> <Gold.Chemscore.Hbond.Weighted>
-5.2305

> <Gold.Chemscore.Metal.Weighted>
-0.0000

> <Gold.Chemscore.Lipo.Weighted>
-11.5537

> <Gold.Chemscore.Internal_Hbond.Weighted>
0.0000

> <Gold.Chemscore.DEClash.Weighted>
0.0599

> <Gold.Chemscore.DEInternal.Weighted>
4.2728

> <Gold.Chemscore.Rot.Weighted>
6.3040

> <Gold.Chemscore.Internal.Correction.Weighted>
   9.000000E+99

> <Gold.Protein.RotatedTorsions>
[ 6907 6896 6895 6894 ] final -139.95 input  -60.11 | X-H torsion
[ 7974 7965 7964 7962 ] final  140.10 input  175.53 | X-H torsion
[ 8008 7997 7996 7995 ] final  -40.35 input   59.86 | X-H torsion
[ 10167 10162 10161 10158 ] final  164.42 input  -65.29 | X-H torsion
[ 10718 10713 10712 10709 ] final  -13.80 input   66.30 | X-H torsion
[ 10763 10752 10751 10750 ] final   85.66 input  -60.55 | X-H torsion
[ 11005 11000 10999 10996 ] final -131.11 input  -57.11 | X-H torsion

> <Gold.Protein.ActiveResidues>
 VAL166  LYS551  ARG553  GLY616  TRP617  ASP618  TYR619  PRO620  LYS621  CYS622 
 ASP623  PHE694  ASN695  SER759  ASP760  ASP761  ALA762  ILE779  LEU786  VAL792 
 PHE793  MET794  SER795  GLU796  ALA797  LYS798  CYS799  TRP800  GLU811  SER814 

> <Gold.Protein.RotatedAtoms>
  151.0544  133.5596  159.2639 H   0  0  0  0  0  0  0  0  0  0  0  0  # atno 6907 bound_to 6896
  151.2595  135.0648  159.9102 H   0  0  0  0  0  0  0  0  0  0  0  0  # atno 6908 bound_to 6896
  152.5387  134.0292  159.8071 H   0  0  0  0  0  0  0  0  0  0  0  0  # atno 6909 bound_to 6896
  144.9217  139.5159  143.5660 H   0  0  0  0  0  0  0  0  0  0  0  0  # atno 7974 bound_to 7965
  154.4013  140.1527  156.3013 H   0  0  0  0  0  0  0  0  0  0  0  0  # atno 8008 bound_to 7997
  155.8698  140.3449  155.5792 H   0  0  0  0  0  0  0  0  0  0  0  0  # atno 8009 bound_to 7997
  155.7787  140.0840  157.2061 H   0  0  0  0  0  0  0  0  0  0  0  0  # atno 8010 bound_to 7997
  139.4888  144.4237  151.9155 H   0  0  0  0  0  0  0  0  0  0  0  0  # atno 10167 bound_to 10162
  156.6251  130.4886  149.6150 H   0  0  0  0  0  0  0  0  0  0  0  0  # atno 10718 bound_to 10713
  153.1496  135.4609  154.9617 H   0  0  0  0  0  0  0  0  0  0  0  0  # atno 10763 bound_to 10752
  154.7814  135.3189  154.7984 H   0  0  0  0  0  0  0  0  0  0  0  0  # atno 10764 bound_to 10752
  153.8491  135.6923  153.4848 H   0  0  0  0  0  0  0  0  0  0  0  0  # atno 10765 bound_to 10752
  140.9287  134.1348  157.4253 H   0  0  0  0  0  0  0  0  0  0  0  0  # atno 11005 bound_to 11000
  146.3208  139.8102  142.8947 LP  0  0  0  0  0  0  0  0  0  0  0  0  # atno 17320 bound_to 7965
  145.3285  141.0261  143.3460 LP  0  0  0  0  0  0  0  0  0  0  0  0  # atno 17321 bound_to 7965
  140.3682  144.2888  150.5923 LP  0  0  0  0  0  0  0  0  0  0  0  0  # atno 17342 bound_to 10162
  140.5342  143.2237  151.8189 LP  0  0  0  0  0  0  0  0  0  0  0  0  # atno 17343 bound_to 10162
  156.2280  130.6777  151.1435 LP  0  0  0  0  0  0  0  0  0  0  0  0  # atno 17370 bound_to 10713
  157.7216  131.0677  150.6110 LP  0  0  0  0  0  0  0  0  0  0  0  0  # atno 17371 bound_to 10713
  139.8791  134.9997  156.5971 LP  0  0  0  0  0  0  0  0  0  0  0  0  # atno 17394 bound_to 11000
  140.7891  133.8597  155.8631 LP  0  0  0  0  0  0  0  0  0  0  0  0  # atno 17395 bound_to 11000

$$$$
