AV-unprocessed.smi:3316|AV-procd|sdf|12756|dock3
  -GOLD-   2272019 93D 1   1.00000     0.00000
 Structure written by MMmdl.
 41 43  0  0  0  0  0  0  0  0  2 V2000
  148.1776  140.3277  153.8110 C   0  0  0  0  0  0  0  0  0  0  0  0
  149.3832  140.8362  154.6168 C   0  0  1  0  0  0  0  0  0  0  0  0
  148.9649  141.2994  156.0262 C   0  0  0  0  0  0  0  0  0  0  0  0
  149.8164  142.4058  156.5096 N   0  3  0  0  0  0  0  0  0  0  0  0
  149.8094  142.5783  157.9754 C   0  0  0  0  0  0  0  0  0  0  0  0
  150.4420  143.9287  158.3869 C   0  0  1  0  0  0  0  0  0  0  0  0
  150.1217  144.3637  159.8552 C   0  0  0  0  0  0  0  0  0  0  0  0
  151.5217  144.5537  160.4821 C   0  0  2  0  0  0  0  0  0  0  0  0
  152.1933  145.7176  159.7855 C   0  0  0  0  0  0  0  0  0  0  0  0
  152.4791  145.3242  158.5434 C   0  0  0  0  0  0  0  0  0  0  0  0
  151.9938  143.8964  158.4003 C   0  0  1  0  0  0  0  0  0  0  0  0
  152.2567  143.3842  159.8217 C   0  0  0  0  0  0  0  0  0  0  0  0
  150.4944  139.7936  154.6635 C   0  0  0  0  0  0  0  0  0  0  0  0
  151.6714  140.0323  155.4046 C   0  0  0  0  0  0  0  0  0  0  0  0
  152.6677  139.0354  155.4287 C   0  0  0  0  0  0  0  0  0  0  0  0
  152.5530  137.8569  154.7803 N   0  0  0  0  0  0  0  0  0  0  0  0
  151.4267  137.6333  154.0707 C   0  0  0  0  0  0  0  0  0  0  0  0
  150.3721  138.5638  153.9806 C   0  0  0  0  0  0  0  0  0  0  0  0
  148.4717  140.0551  152.7969 H   0  0  0  0  0  0  0  0  0  0  0  0
  147.4057  141.0940  153.7330 H   0  0  0  0  0  0  0  0  0  0  0  0
  147.7257  139.4497  154.2732 H   0  0  0  0  0  0  0  0  0  0  0  0
  149.7709  141.7089  154.0886 H   0  0  0  0  0  0  0  0  0  0  0  0
  147.9277  141.6367  156.0143 H   0  0  0  0  0  0  0  0  0  0  0  0
  149.0182  140.4676  156.7299 H   0  0  0  0  0  0  0  0  0  0  0  0
  150.7667  142.2267  156.2168 H   0  0  0  0  0  0  0  0  0  0  0  0
  148.7827  142.4920  158.3318 H   0  0  0  0  0  0  0  0  0  0  0  0
  150.3581  141.7490  158.4237 H   0  0  0  0  0  0  0  0  0  0  0  0
  150.1121  144.7090  157.6976 H   0  0  0  0  0  0  0  0  0  0  0  0
  149.5340  145.2821  159.8907 H   0  0  0  0  0  0  0  0  0  0  0  0
  149.5667  143.6022  160.4037 H   0  0  0  0  0  0  0  0  0  0  0  0
  151.5659  144.5824  161.5711 H   0  0  0  0  0  0  0  0  0  0  0  0
  152.3664  146.6867  160.2299 H   0  0  0  0  0  0  0  0  0  0  0  0
  152.9341  145.9038  157.7537 H   0  0  0  0  0  0  0  0  0  0  0  0
  152.4789  143.3368  157.5999 H   0  0  0  0  0  0  0  0  0  0  0  0
  153.3190  143.3520  160.0735 H   0  0  0  0  0  0  0  0  0  0  0  0
  151.8161  142.4081  160.0333 H   0  0  0  0  0  0  0  0  0  0  0  0
  151.8156  140.9571  155.9439 H   0  0  0  0  0  0  0  0  0  0  0  0
  153.5796  139.1880  155.9865 H   0  0  0  0  0  0  0  0  0  0  0  0
  151.3615  136.6833  153.5612 H   0  0  0  0  0  0  0  0  0  0  0  0
  149.4927  138.3322  153.3978 H   0  0  0  0  0  0  0  0  0  0  0  0
  149.5039  143.2652  156.0806 H   0  0  0  0  0  0  0  0  0  0  0  0
  1  2  1  0  0  0  0
  1 19  1  0  0  0  0
  1 20  1  0  0  0  0
  1 21  1  0  0  0  0
  2  3  1  0  0  0  0
  2 13  1  0  0  0  0
  2 22  1  0  0  0  0
  3  4  1  0  0  0  0
  3 23  1  0  0  0  0
  3 24  1  0  0  0  0
  4  5  1  0  0  0  0
  4 25  1  0  0  0  0
  4 41  1  0  0  0  0
  5  6  1  0  0  0  0
  5 26  1  0  0  0  0
  5 27  1  0  0  0  0
  6 11  1  0  0  0  0
  6  7  1  0  0  0  0
  6 28  1  0  0  0  0
  7  8  1  0  0  0  0
  7 29  1  0  0  0  0
  7 30  1  0  0  0  0
  8 12  1  0  0  0  0
  8  9  1  0  0  0  0
  8 31  1  0  0  0  0
  9 10  2  0  0  0  0
  9 32  1  0  0  0  0
 10 11  1  0  0  0  0
 10 33  1  0  0  0  0
 11 12  1  0  0  0  0
 11 34  1  0  0  0  0
 12 35  1  0  0  0  0
 12 36  1  0  0  0  0
 13 18  1  0  0  0  0
 13 14  2  0  0  0  0
 14 15  1  0  0  0  0
 14 37  1  0  0  0  0
 15 16  2  0  0  0  0
 15 38  1  0  0  0  0
 16 17  1  0  0  0  0
 17 18  2  0  0  0  0
 17 39  1  0  0  0  0
 18 40  1  0  0  0  0
M  CHG  1   4   1
M  END
> <s_m_source_file>
AV-unprocessed.smi

> <i_m_source_file_index>
3316

> <i_lp_mmshare_version>
43012

> <i_f3d_flags>
0

> <s_epik_input>
W2NIXTFbY0hdbltjSF1bY0hdYzFbQ0BIXShbQ0gzXSlbQ0gyXVtOSF1bQ0gyXVtDQEhdKFtDSDJdW0NASF0yMylbQ0BIXShbQ0gyXTMpW0NIXT1bQ0hdMg==

> <s_epik_cmdline>
J2VwaWtfcHl0aG9uJywgJy1waCcsICc3LjAnLCAnLXRuJywgJzgnLCAnLW1hJywgJzIwMCcsICctbWV0YWxfYmluZGluZycsICctaW1hZScsICc8aW5maWxlLm1hZT4nLCAnLW9tYWUnLCAnPG91dGZpbGUubWFlPic=

> <r_lp_tautomer_probability>
1

> <r_epik_Ionization_Penalty>
0.00280406

> <r_epik_Ionization_Penalty_Charging>
0.000446589

> <r_epik_Ionization_Penalty_Neutral>
0.00235747

> <r_epik_State_Penalty>
-0

> <r_epik_Charging_Adjusted_Penalty>
0.000446589

> <i_epik_Tot_Q>
1

> <i_epik_Tot_abs_Q>
1

> <r_epik_Metal_State_Penalty>
-0

> <b_epik_Metal_Only>
0

> <s_lp_Force_Field>
OPLS_2005

> <r_lp_Energy>
68.8741

> <b_lp_Chiralities_Consistent>
1

> <s_lp_Variant>
AV-unprocessed.smi:3316-4

> <Gold.Version>
5.8.1

> <Gold.Id.Protein>
6NUR|6NUR_protein|mol2

> <Gold.PLP.Fitness>
52.6118

> <Gold.PLP.PLP>
-44.5582

> <Gold.PLP.part.hbond>
-2.0000

> <Gold.PLP.part.metal>
0.0000

> <Gold.PLP.part.buried>
-2.4887

> <Gold.PLP.part.nonpolar>
-38.8611

> <Gold.PLP.part.repulsive>
0.0971

> <Gold.PLP.ligand.clash>
0.0000

> <Gold.PLP.ligand.torsion>
0.7266

> <Gold.PLP.Chemscore.Hbond>
2.1210

> <Gold.PLP.Chemscore.CHOScore>
1.0000

> <Gold.PLP.Chemscore.Metal>
0.0000

> <Gold.Chemscore.Hbonds>
donor molecule, donor type, donor heavy atom, donor atom, acceptor molecule, acceptor atom, score
      L1  H     4    41       P1  8028  2.00
      P1  H 10752 10763       L1    16  0.05
      L1  C    17    39       P1  7949  1.00

> <Gold.PLP.Chemscore.Internal.Correction>
0.1438

> <Gold.Rescore>
     Score         DG    S(hbond)    S(metal)    S(lipo)     H(rot)  DE(clash)    DE(int)     intcor
     20.88     -21.90       1.00        0.00     141.67       1.36       0.51       0.51       ----

> <Gold.Chemscore.Fitness>
20.8753

> <Gold.Chemscore.DG>
-21.9031

> <Gold.Chemscore.ZeroCoef>
-5.4800

> <Gold.Chemscore.Hbond>
0.9999

> <Gold.Chemscore.Metal>
0.0000

> <Gold.Chemscore.Lipo>
141.6694

> <Gold.Chemscore.Internal_Hbond>
0.0000

> <Gold.Chemscore.DEClash>
0.5133

> <Gold.Chemscore.DEInternal>
0.5144

> <Gold.Chemscore.Rot>
1.3640

> <Gold.Chemscore.Internal.Correction>
   9.000000E+99

> <Gold.Chemscore.Hbonds>
donor molecule, donor type, donor heavy atom, donor atom, acceptor molecule, acceptor atom, score
      L1  H     4    41       P1  8028  1.00

> <Gold.Chemscore.Hbond.Weighted>
-3.3397

> <Gold.Chemscore.Metal.Weighted>
-0.0000

> <Gold.Chemscore.Lipo.Weighted>
-16.5753

> <Gold.Chemscore.Internal_Hbond.Weighted>
0.0000

> <Gold.Chemscore.DEClash.Weighted>
0.5133

> <Gold.Chemscore.DEInternal.Weighted>
0.5144

> <Gold.Chemscore.Rot.Weighted>
3.4919

> <Gold.Chemscore.Internal.Correction.Weighted>
   9.000000E+99

> <Gold.Protein.RotatedTorsions>
[ 6907 6896 6895 6894 ] final  114.65 input  -60.11 | X-H torsion
[ 7974 7965 7964 7962 ] final  -45.25 input  175.53 | X-H torsion
[ 8008 7997 7996 7995 ] final   83.02 input   59.86 | X-H torsion
[ 10167 10162 10161 10158 ] final   17.79 input  -65.29 | X-H torsion
[ 10718 10713 10712 10709 ] final   89.73 input   66.30 | X-H torsion
[ 10763 10752 10751 10750 ] final   50.46 input  -60.55 | X-H torsion
[ 11005 11000 10999 10996 ] final   87.83 input  -57.11 | X-H torsion

> <Gold.Protein.ActiveResidues>
 VAL166  LYS551  ARG553  GLY616  TRP617  ASP618  TYR619  PRO620  LYS621  CYS622 
 ASP623  PHE694  ASN695  SER759  ASP760  ASP761  ALA762  ILE779  LEU786  VAL792 
 PHE793  MET794  SER795  GLU796  ALA797  LYS798  CYS799  TRP800  GLU811  SER814 

> <Gold.Protein.RotatedAtoms>
  152.4789  133.8206  159.7051 H   0  0  0  0  0  0  0  0  0  0  0  0  # atno 6907 bound_to 6896
  150.8825  133.7343  159.2934 H   0  0  0  0  0  0  0  0  0  0  0  0  # atno 6908 bound_to 6896
  151.4842  135.1057  159.9838 H   0  0  0  0  0  0  0  0  0  0  0  0  # atno 6909 bound_to 6896
  145.9839  140.7254  142.9350 H   0  0  0  0  0  0  0  0  0  0  0  0  # atno 7974 bound_to 7965
  155.9184  140.3423  155.6153 H   0  0  0  0  0  0  0  0  0  0  0  0  # atno 8008 bound_to 7997
  155.7304  140.0794  157.2310 H   0  0  0  0  0  0  0  0  0  0  0  0  # atno 8009 bound_to 7997
  154.4066  140.1589  156.2489 H   0  0  0  0  0  0  0  0  0  0  0  0  # atno 8010 bound_to 7997
  140.5700  143.9178  150.6706 H   0  0  0  0  0  0  0  0  0  0  0  0  # atno 10167 bound_to 10162
  157.6956  131.0344  150.3470 H   0  0  0  0  0  0  0  0  0  0  0  0  # atno 10718 bound_to 10713
  152.9784  135.5878  154.4255 H   0  0  0  0  0  0  0  0  0  0  0  0  # atno 10763 bound_to 10752
  154.3875  135.2767  155.2177 H   0  0  0  0  0  0  0  0  0  0  0  0  # atno 10764 bound_to 10752
  154.4063  135.6092  153.5981 H   0  0  0  0  0  0  0  0  0  0  0  0  # atno 10765 bound_to 10752
  139.8910  134.8448  156.2915 H   0  0  0  0  0  0  0  0  0  0  0  0  # atno 11005 bound_to 11000
  144.6869  140.2955  143.7271 LP  0  0  0  0  0  0  0  0  0  0  0  0  # atno 17320 bound_to 7965
  145.7729  139.1864  143.2202 LP  0  0  0  0  0  0  0  0  0  0  0  0  # atno 17321 bound_to 7965
  140.2651  143.3496  152.1288 LP  0  0  0  0  0  0  0  0  0  0  0  0  # atno 17342 bound_to 10162
  139.5113  144.6898  151.5791 LP  0  0  0  0  0  0  0  0  0  0  0  0  # atno 17343 bound_to 10162
  156.3923  130.3900  149.7021 LP  0  0  0  0  0  0  0  0  0  0  0  0  # atno 17370 bound_to 10713
  156.4366  130.7841  151.2861 LP  0  0  0  0  0  0  0  0  0  0  0  0  # atno 17371 bound_to 10713
  140.9973  133.7172  156.0906 LP  0  0  0  0  0  0  0  0  0  0  0  0  # atno 17394 bound_to 11000
  140.7545  134.4008  157.5536 LP  0  0  0  0  0  0  0  0  0  0  0  0  # atno 17395 bound_to 11000

$$$$
