AV-unprocessed.smi:1742|AV-procd|sdf|7021|dock2
  -GOLD-   22720 8243D 1   1.00000     0.00000
 Structure written by MMmdl.
 34 35  0  0  0  0  0  0  0  0  1 V2000
  143.7932  132.7097  148.9106 C   0  0  0  0  0  0  0  0  0  0  0  0
  144.1183  132.5903  150.4040 C   0  0  0  0  0  0  0  0  0  0  0  0
  144.1137  133.8843  151.0578 N   0  0  0  0  0  0  0  0  0  0  0  0
  144.8901  134.9881  150.7669 C   0  0  0  0  0  0  0  0  0  0  0  0
  144.5080  135.9534  151.6551 C   0  0  0  0  0  0  0  0  0  0  0  0
  144.9827  137.2813  151.7997 N   0  0  0  0  0  0  0  0  0  0  0  0
  145.9051  137.7309  152.6720 C   0  0  0  0  0  0  0  0  0  0  0  0
  146.4889  137.0257  153.4925 O   0  0  0  0  0  0  0  0  0  0  0  0
  146.1616  139.0481  152.5804 N   0  0  0  0  0  0  0  0  0  0  0  0
  147.0983  139.8490  153.3697 C   0  0  1  0  0  0  0  0  0  0  0  0
  146.4361  140.3413  154.6703 C   0  0  0  0  0  0  0  0  0  0  0  0
  147.5270  140.8473  155.6225 C   0  0  0  0  0  0  0  0  0  0  0  0
  149.0286  139.8654  155.2464 S   0  0  0  0  0  0  0  0  0  0  0  0
  150.1081  140.7819  154.8493 O   0  0  0  0  0  0  0  0  0  0  0  0
  149.2378  138.8583  156.2976 O   0  0  0  0  0  0  0  0  0  0  0  0
  148.3499  139.0443  153.7564 C   0  0  0  0  0  0  0  0  0  0  0  0
  143.4944  135.3640  152.4546 C   0  0  0  0  0  0  0  0  0  0  0  0
  143.2599  134.1136  152.0861 N   0  0  0  0  0  0  0  0  0  0  0  0
  143.8177  131.7319  148.4295 H   0  0  0  0  0  0  0  0  0  0  0  0
  144.5139  133.3497  148.4010 H   0  0  0  0  0  0  0  0  0  0  0  0
  142.8002  133.1324  148.7555 H   0  0  0  0  0  0  0  0  0  0  0  0
  143.3962  131.9397  150.8994 H   0  0  0  0  0  0  0  0  0  0  0  0
  145.1003  132.1358  150.5403 H   0  0  0  0  0  0  0  0  0  0  0  0
  145.6219  134.9798  149.9727 H   0  0  0  0  0  0  0  0  0  0  0  0
  144.5803  137.9625  151.1728 H   0  0  0  0  0  0  0  0  0  0  0  0
  145.6532  139.5506  151.8670 H   0  0  0  0  0  0  0  0  0  0  0  0
  147.4053  140.7320  152.8060 H   0  0  0  0  0  0  0  0  0  0  0  0
  145.6862  141.1094  154.4786 H   0  0  0  0  0  0  0  0  0  0  0  0
  145.9199  139.5071  155.1481 H   0  0  0  0  0  0  0  0  0  0  0  0
  147.7543  141.8959  155.4295 H   0  0  0  0  0  0  0  0  0  0  0  0
  147.2574  140.7375  156.6731 H   0  0  0  0  0  0  0  0  0  0  0  0
  148.0910  138.0210  154.0305 H   0  0  0  0  0  0  0  0  0  0  0  0
  149.1038  139.0128  152.9697 H   0  0  0  0  0  0  0  0  0  0  0  0
  142.9324  135.7917  153.2717 H   0  0  0  0  0  0  0  0  0  0  0  0
  1  2  1  0  0  0  0
  1 19  1  0  0  0  0
  1 20  1  0  0  0  0
  1 21  1  0  0  0  0
  2  3  1  0  0  0  0
  2 22  1  0  0  0  0
  2 23  1  0  0  0  0
  3 18  1  0  0  0  0
  3  4  1  0  0  0  0
  4  5  2  0  0  0  0
  4 24  1  0  0  0  0
  5  6  1  0  0  0  0
  5 17  1  0  0  0  0
  6  7  1  0  0  0  0
  6 25  1  0  0  0  0
  7  8  2  0  0  0  0
  7  9  1  0  0  0  0
  9 10  1  0  0  0  0
  9 26  1  0  0  0  0
 10 16  1  0  0  0  0
 10 11  1  0  0  0  0
 10 27  1  0  0  0  0
 11 12  1  0  0  0  0
 11 28  1  0  0  0  0
 11 29  1  0  0  0  0
 12 13  1  0  0  0  0
 12 30  1  0  0  0  0
 12 31  1  0  0  0  0
 13 14  2  0  0  0  0
 13 15  2  0  0  0  0
 13 16  1  0  0  0  0
 16 32  1  0  0  0  0
 16 33  1  0  0  0  0
 17 18  2  0  0  0  0
 17 34  1  0  0  0  0
M  END
> <s_m_source_file>
AV-unprocessed.smi

> <i_m_source_file_index>
1742

> <i_lp_mmshare_version>
43012

> <i_f3d_flags>
0

> <s_epik_input>
W0NIM11bQ0gyXW4xW2NIXWMoW2NIXW4xKVtOSF1DKD1PKVtOSF1bQ0BASF0oW0NIMl0yKVtDSDJdW0NIMl1TMig9Tyk9Tw==

> <s_epik_cmdline>
J2VwaWtfcHl0aG9uJywgJy1waCcsICc3LjAnLCAnLXRuJywgJzgnLCAnLW1hJywgJzIwMCcsICctbWV0YWxfYmluZGluZycsICctaW1hZScsICc8aW5maWxlLm1hZT4nLCAnLW9tYWUnLCAnPG91dGZpbGUubWFlPic=

> <r_lp_tautomer_probability>
1

> <r_epik_Ionization_Penalty>
0.000152028

> <r_epik_Ionization_Penalty_Charging>
0

> <r_epik_Ionization_Penalty_Neutral>
0.000152028

> <r_epik_State_Penalty>
-0

> <r_epik_Charging_Adjusted_Penalty>
0

> <i_epik_Tot_Q>
0

> <i_epik_Tot_abs_Q>
0

> <r_epik_Metal_State_Penalty>
-0

> <b_epik_Metal_Only>
0

> <s_lp_Force_Field>
OPLS_2005

> <r_lp_Energy>
18.8672

> <b_lp_Chiralities_Consistent>
1

> <s_lp_Variant>
AV-unprocessed.smi:1742-2

> <Gold.Version>
5.8.1

> <Gold.Id.Protein>
6NUR|6NUR_protein|mol2

> <Gold.PLP.Fitness>
35.7041

> <Gold.PLP.PLP>
-28.9787

> <Gold.PLP.part.hbond>
-3.0000

> <Gold.PLP.part.metal>
0.0000

> <Gold.PLP.part.buried>
-5.5030

> <Gold.PLP.part.nonpolar>
-21.7661

> <Gold.PLP.part.repulsive>
0.9494

> <Gold.PLP.ligand.clash>
0.0000

> <Gold.PLP.ligand.torsion>
1.0992

> <Gold.PLP.Chemscore.Hbond>
1.9734

> <Gold.PLP.Chemscore.CHOScore>
1.0000

> <Gold.PLP.Chemscore.Metal>
0.0000

> <Gold.Chemscore.Hbonds>
donor molecule, donor type, donor heavy atom, donor atom, acceptor molecule, acceptor atom, score
      L1  H     6    25       P1 10171  1.00
      L1  H     9    26       P1 10175  0.17
      P1  H  7989  7998       L1    14  0.80
      L1  C     4    24       P1  7921  1.00

> <Gold.PLP.Chemscore.Internal.Correction>
0.0036

> <Gold.Rescore>
     Score         DG    S(hbond)    S(metal)    S(lipo)     H(rot)  DE(clash)    DE(int)     intcor
     12.92     -15.58       2.02        0.00      56.07       1.26       0.32       2.34       ----

> <Gold.Chemscore.Fitness>
12.9223

> <Gold.Chemscore.DG>
-15.5789

> <Gold.Chemscore.ZeroCoef>
-5.4800

> <Gold.Chemscore.Hbond>
2.0219

> <Gold.Chemscore.Metal>
0.0000

> <Gold.Chemscore.Lipo>
56.0659

> <Gold.Chemscore.Internal_Hbond>
0.0000

> <Gold.Chemscore.DEClash>
0.3176

> <Gold.Chemscore.DEInternal>
2.3391

> <Gold.Chemscore.Rot>
1.2554

> <Gold.Chemscore.Internal.Correction>
   9.000000E+99

> <Gold.Chemscore.Hbonds>
donor molecule, donor type, donor heavy atom, donor atom, acceptor molecule, acceptor atom, score
      L1  H     6    25       P1 10171  0.99
      L1  H     9    26       P1 10175  0.15
      P1  H  7989  7998       L1    14  0.74

> <Gold.Chemscore.Hbond.Weighted>
-6.7531

> <Gold.Chemscore.Metal.Weighted>
-0.0000

> <Gold.Chemscore.Lipo.Weighted>
-6.5597

> <Gold.Chemscore.Internal_Hbond.Weighted>
0.0000

> <Gold.Chemscore.DEClash.Weighted>
0.3176

> <Gold.Chemscore.DEInternal.Weighted>
2.3391

> <Gold.Chemscore.Rot.Weighted>
3.2139

> <Gold.Chemscore.Internal.Correction.Weighted>
   9.000000E+99

> <Gold.Protein.RotatedTorsions>
[ 6907 6896 6895 6894 ] final  -14.65 input  -60.11 | X-H torsion
[ 7974 7965 7964 7962 ] final -104.07 input  175.53 | X-H torsion
[ 8008 7997 7996 7995 ] final  165.80 input   59.86 | X-H torsion
[ 10167 10162 10161 10158 ] final   12.35 input  -65.29 | X-H torsion
[ 10718 10713 10712 10709 ] final  -50.70 input   66.30 | X-H torsion
[ 10763 10752 10751 10750 ] final  178.59 input  -60.55 | X-H torsion
[ 11005 11000 10999 10996 ] final -108.15 input  -57.11 | X-H torsion

> <Gold.Protein.ActiveResidues>
 VAL166  LYS551  ARG553  GLY616  TRP617  ASP618  TYR619  PRO620  LYS621  CYS622 
 ASP623  PHE694  ASN695  SER759  ASP760  ASP761  ALA762  ILE779  LEU786  VAL792 
 PHE793  MET794  SER795  GLU796  ALA797  LYS798  CYS799  TRP800  GLU811  SER814 

> <Gold.Protein.RotatedAtoms>
  151.3361  135.0853  159.9354 H   0  0  0  0  0  0  0  0  0  0  0  0  # atno 6907 bound_to 6896
  152.5223  133.9494  159.7675 H   0  0  0  0  0  0  0  0  0  0  0  0  # atno 6908 bound_to 6896
  150.9842  133.6162  159.2748 H   0  0  0  0  0  0  0  0  0  0  0  0  # atno 6909 bound_to 6896
  145.2478  140.9228  143.3112 H   0  0  0  0  0  0  0  0  0  0  0  0  # atno 7974 bound_to 7965
  156.1771  140.1660  156.8343 H   0  0  0  0  0  0  0  0  0  0  0  0  # atno 8008 bound_to 7997
  154.5319  140.0755  156.8393 H   0  0  0  0  0  0  0  0  0  0  0  0  # atno 8009 bound_to 7997
  155.3390  140.3383  155.4241 H   0  0  0  0  0  0  0  0  0  0  0  0  # atno 8010 bound_to 7997
  140.6073  143.8480  150.7028 H   0  0  0  0  0  0  0  0  0  0  0  0  # atno 10167 bound_to 10162
  156.1776  130.4150  149.9554 H   0  0  0  0  0  0  0  0  0  0  0  0  # atno 10718 bound_to 10713
  154.5096  135.2788  155.1354 H   0  0  0  0  0  0  0  0  0  0  0  0  # atno 10763 bound_to 10752
  154.2954  135.6258  153.5406 H   0  0  0  0  0  0  0  0  0  0  0  0  # atno 10764 bound_to 10752
  152.9916  135.5684  154.5558 H   0  0  0  0  0  0  0  0  0  0  0  0  # atno 10765 bound_to 10752
  141.0917  133.9043  157.2060 H   0  0  0  0  0  0  0  0  0  0  0  0  # atno 11005 bound_to 11000
  144.9530  139.4062  143.6393 LP  0  0  0  0  0  0  0  0  0  0  0  0  # atno 17320 bound_to 7965
  146.3311  139.8546  142.8867 LP  0  0  0  0  0  0  0  0  0  0  0  0  # atno 17321 bound_to 7965
  140.2040  143.3936  152.1769 LP  0  0  0  0  0  0  0  0  0  0  0  0  # atno 17342 bound_to 10162
  139.5335  144.7184  151.4974 LP  0  0  0  0  0  0  0  0  0  0  0  0  # atno 17343 bound_to 10162
  156.7334  130.9052  151.3627 LP  0  0  0  0  0  0  0  0  0  0  0  0  # atno 17370 bound_to 10713
  157.6846  130.9173  150.0354 LP  0  0  0  0  0  0  0  0  0  0  0  0  # atno 17371 bound_to 10713
  139.9744  135.0118  156.9594 LP  0  0  0  0  0  0  0  0  0  0  0  0  # atno 17394 bound_to 11000
  140.5237  134.0882  155.7298 LP  0  0  0  0  0  0  0  0  0  0  0  0  # atno 17395 bound_to 11000

$$$$
