AV-unprocessed.smi:1550|AV-procd|sdf|6231|dock3
  -GOLD-   22720 6413D 1   1.00000     0.00000
 Structure written by MMmdl.
 42 43  0  0  0  0  0  0  0  0  2 V2000
  148.3697  140.7794  155.4334 C   0  0  0  0  0  0  0  0  0  0  0  0
  149.5347  140.0668  156.1360 C   0  0  1  0  0  0  0  0  0  0  0  0
  150.4034  141.0713  156.6526 O   0  0  0  0  0  0  0  0  0  0  0  0
  149.8028  141.9903  157.5587 C   0  0  0  0  0  0  0  0  0  0  0  0
  150.9095  142.7651  158.2852 C   0  0  1  0  0  0  0  0  0  0  0  0
  151.4992  143.8929  157.4149 C   0  0  0  0  0  0  0  0  0  0  0  0
  152.5353  144.6996  158.2051 C   0  0  0  0  0  0  0  0  0  0  0  0
  151.9204  145.1756  159.5251 C   0  0  0  0  0  0  0  0  0  0  0  0
  151.3150  143.9879  160.2903 C   0  0  0  0  0  0  0  0  0  0  0  0
  150.3547  143.3229  159.4749 O   0  0  0  0  0  0  0  0  0  0  0  0
  149.0314  139.1632  157.2734 C   0  0  0  0  0  0  0  0  0  0  0  0
  148.3384  139.6489  158.1673 O   0  0  0  0  0  0  0  0  0  0  0  0
  149.4330  137.8786  157.2078 N   0  0  0  0  0  0  0  0  0  0  0  0
  149.1570  136.8038  158.0704 C   0  0  0  0  0  0  0  0  0  0  0  0
  148.5060  136.9051  159.2626 C   0  0  0  0  0  0  0  0  0  0  0  0
  148.2409  135.7476  160.1080 C   0  0  0  0  0  0  0  0  0  0  0  0
  147.6114  135.8374  161.4870 C   0  0  0  0  0  0  0  0  0  0  0  0
  146.4456  136.4782  161.4126 F   0  0  0  0  0  0  0  0  0  0  0  0
  147.3869  134.6238  161.9919 F   0  0  0  0  0  0  0  0  0  0  0  0
  148.3997  136.5044  162.3298 F   0  0  0  0  0  0  0  0  0  0  0  0
  148.7283  134.5765  159.5610 C   0  0  0  0  0  0  0  0  0  0  0  0
  149.3546  134.3856  158.3793 N   0  5  0  0  0  0  0  0  0  0  0  0
  149.5973  135.4749  157.5972 C   0  0  0  0  0  0  0  0  0  0  0  0
  150.1704  135.3733  156.5117 O   0  0  0  0  0  0  0  0  0  0  0  0
  147.6549  140.0631  155.0266 H   0  0  0  0  0  0  0  0  0  0  0  0
  148.7331  141.3876  154.6048 H   0  0  0  0  0  0  0  0  0  0  0  0
  147.8325  141.4402  156.1150 H   0  0  0  0  0  0  0  0  0  0  0  0
  150.0697  139.4715  155.3930 H   0  0  0  0  0  0  0  0  0  0  0  0
  149.1327  142.6855  157.0514 H   0  0  0  0  0  0  0  0  0  0  0  0
  149.2059  141.4351  158.2836 H   0  0  0  0  0  0  0  0  0  0  0  0
  151.6971  142.0643  158.5678 H   0  0  0  0  0  0  0  0  0  0  0  0
  151.9569  143.4791  156.5157 H   0  0  0  0  0  0  0  0  0  0  0  0
  150.6998  144.5558  157.0810 H   0  0  0  0  0  0  0  0  0  0  0  0
  153.4076  144.0776  158.4090 H   0  0  0  0  0  0  0  0  0  0  0  0
  152.8846  145.5495  157.6183 H   0  0  0  0  0  0  0  0  0  0  0  0
  152.6740  145.6747  160.1348 H   0  0  0  0  0  0  0  0  0  0  0  0
  151.1422  145.9128  159.3225 H   0  0  0  0  0  0  0  0  0  0  0  0
  152.0923  143.2876  160.6001 H   0  0  0  0  0  0  0  0  0  0  0  0
  150.8236  144.3382  161.1981 H   0  0  0  0  0  0  0  0  0  0  0  0
  150.0543  137.6463  156.4463 H   0  0  0  0  0  0  0  0  0  0  0  0
  148.1436  137.8547  159.6187 H   0  0  0  0  0  0  0  0  0  0  0  0
  148.6004  133.6543  160.1669 H   0  0  0  0  0  0  0  0  0  0  0  0
  1  2  1  0  0  0  0
  1 25  1  0  0  0  0
  1 26  1  0  0  0  0
  1 27  1  0  0  0  0
  2  3  1  0  0  0  0
  2 11  1  0  0  0  0
  2 28  1  0  0  0  0
  3  4  1  0  0  0  0
  4  5  1  0  0  0  0
  4 29  1  0  0  0  0
  4 30  1  0  0  0  0
  5 10  1  0  0  0  0
  5  6  1  0  0  0  0
  5 31  1  0  0  0  0
  6  7  1  0  0  0  0
  6 32  1  0  0  0  0
  6 33  1  0  0  0  0
  7  8  1  0  0  0  0
  7 34  1  0  0  0  0
  7 35  1  0  0  0  0
  8  9  1  0  0  0  0
  8 36  1  0  0  0  0
  8 37  1  0  0  0  0
  9 10  1  0  0  0  0
  9 38  1  0  0  0  0
  9 39  1  0  0  0  0
 11 12  2  0  0  0  0
 11 13  1  0  0  0  0
 13 14  1  0  0  0  0
 13 40  1  0  0  0  0
 14 23  1  0  0  0  0
 14 15  2  0  0  0  0
 15 16  1  0  0  0  0
 15 41  1  0  0  0  0
 16 17  1  0  0  0  0
 16 21  2  0  0  0  0
 17 18  1  0  0  0  0
 17 19  1  0  0  0  0
 17 20  1  0  0  0  0
 21 22  1  0  0  0  0
 21 42  1  0  0  0  0
 22 23  1  0  0  0  0
 23 24  2  0  0  0  0
M  CHG  1  22  -1
M  END
> <s_m_source_file>
AV-unprocessed.smi

> <i_m_source_file_index>
1550

> <i_lp_mmshare_version>
43012

> <i_f3d_flags>
0

> <s_epik_input>
TzFbQ0gyXVtDSDJdW0NIMl1bQ0gyXVtDQEhdMVtDSDJdT1tDQEBIXShbQ0gzXSlDKD1PKVtOSF1jMltjSF1jKEMoRikoRilGKVtjSF1bbkhdYzI9Tw==

> <s_epik_cmdline>
J2VwaWtfcHl0aG9uJywgJy1waCcsICc3LjAnLCAnLXRuJywgJzgnLCAnLW1hJywgJzIwMCcsICctbWV0YWxfYmluZGluZycsICctaW1hZScsICc8aW5maWxlLm1hZT4nLCAnLW9tYWUnLCAnPG91dGZpbGUubWFlPic=

> <r_epik_Ionization_Penalty>
2.54933

> <r_epik_Ionization_Penalty_Charging>
0.0583423

> <r_epik_Ionization_Penalty_Neutral>
2.49099

> <r_epik_State_Penalty>
2.65532

> <r_epik_Charging_Adjusted_Penalty>
2.71366

> <i_epik_Tot_Q>
-1

> <i_epik_Tot_abs_Q>
1

> <r_epik_Metal_State_Penalty>
0.516364

> <b_epik_Metal_Only>
0

> <s_lp_Force_Field>
OPLS_2005

> <r_lp_Energy>
27.8976

> <b_lp_Chiralities_Consistent>
1

> <s_lp_Variant>
AV-unprocessed.smi:1550-8

> <Gold.Version>
5.8.1

> <Gold.Id.Protein>
6NUR|6NUR_protein|mol2

> <Gold.PLP.Fitness>
46.8465

> <Gold.PLP.PLP>
-41.5513

> <Gold.PLP.part.hbond>
-2.5760

> <Gold.PLP.part.metal>
0.0000

> <Gold.PLP.part.buried>
-2.4998

> <Gold.PLP.part.nonpolar>
-36.3163

> <Gold.PLP.part.repulsive>
0.1798

> <Gold.PLP.ligand.clash>
0.0000

> <Gold.PLP.ligand.torsion>
0.4645

> <Gold.PLP.Chemscore.Hbond>
2.0000

> <Gold.PLP.Chemscore.CHOScore>
0.0000

> <Gold.PLP.Chemscore.Metal>
0.0000

> <Gold.Chemscore.Hbonds>
donor molecule, donor type, donor heavy atom, donor atom, acceptor molecule, acceptor atom, score
      P1  H  6896  6908       L1    22  0.40

> <Gold.PLP.Chemscore.Internal.Correction>
0.2242

> <Gold.Rescore>
     Score         DG    S(hbond)    S(metal)    S(lipo)     H(rot)  DE(clash)    DE(int)     intcor
     10.16     -13.18       0.36        0.00      95.39       1.82       0.10       2.93       ----

> <Gold.Chemscore.Fitness>
10.1571

> <Gold.Chemscore.DG>
-13.1783

> <Gold.Chemscore.ZeroCoef>
-5.4800

> <Gold.Chemscore.Hbond>
0.3612

> <Gold.Chemscore.Metal>
0.0000

> <Gold.Chemscore.Lipo>
95.3864

> <Gold.Chemscore.Internal_Hbond>
0.0000

> <Gold.Chemscore.DEClash>
0.0955

> <Gold.Chemscore.DEInternal>
2.9257

> <Gold.Chemscore.Rot>
1.8236

> <Gold.Chemscore.Internal.Correction>
   9.000000E+99

> <Gold.Chemscore.Hbond.Weighted>
-1.2065

> <Gold.Chemscore.Metal.Weighted>
-0.0000

> <Gold.Chemscore.Lipo.Weighted>
-11.1602

> <Gold.Chemscore.Internal_Hbond.Weighted>
0.0000

> <Gold.Chemscore.DEClash.Weighted>
0.0955

> <Gold.Chemscore.DEInternal.Weighted>
2.9257

> <Gold.Chemscore.Rot.Weighted>
4.6684

> <Gold.Chemscore.Internal.Correction.Weighted>
   9.000000E+99

> <Gold.Protein.RotatedTorsions>
[ 6907 6896 6895 6894 ] final  134.34 input  -60.11 | X-H torsion
[ 7974 7965 7964 7962 ] final  -40.80 input  175.53 | X-H torsion
[ 8008 7997 7996 7995 ] final   17.39 input   59.86 | X-H torsion
[ 10167 10162 10161 10158 ] final  124.93 input  -65.29 | X-H torsion
[ 10718 10713 10712 10709 ] final  -98.84 input   66.30 | X-H torsion
[ 10763 10752 10751 10750 ] final  178.21 input  -60.55 | X-H torsion
[ 11005 11000 10999 10996 ] final  -51.89 input  -57.11 | X-H torsion

> <Gold.Protein.ActiveResidues>
 VAL166  LYS551  ARG553  GLY616  TRP617  ASP618  TYR619  PRO620  LYS621  CYS622 
 ASP623  PHE694  ASN695  SER759  ASP760  ASP761  ALA762  ILE779  LEU786  VAL792 
 PHE793  MET794  SER795  GLU796  ALA797  LYS798  CYS799  TRP800  GLU811  SER814 

> <Gold.Protein.RotatedAtoms>
  152.3124  133.5766  159.5689 H   0  0  0  0  0  0  0  0  0  0  0  0  # atno 6907 bound_to 6896
  150.7329  134.0133  159.3686 H   0  0  0  0  0  0  0  0  0  0  0  0  # atno 6908 bound_to 6896
  151.8025  135.0705  160.0453 H   0  0  0  0  0  0  0  0  0  0  0  0  # atno 6909 bound_to 6896
  146.0271  140.6778  142.9150 H   0  0  0  0  0  0  0  0  0  0  0  0  # atno 7974 bound_to 7965
  154.8908  140.2986  155.5372 H   0  0  0  0  0  0  0  0  0  0  0  0  # atno 8008 bound_to 7997
  156.3021  140.2425  156.3857 H   0  0  0  0  0  0  0  0  0  0  0  0  # atno 8009 bound_to 7997
  154.8621  140.0405  157.1660 H   0  0  0  0  0  0  0  0  0  0  0  0  # atno 8010 bound_to 7997
  139.5714  144.6940  151.3769 H   0  0  0  0  0  0  0  0  0  0  0  0  # atno 10167 bound_to 10162
  156.0118  130.5256  150.6582 H   0  0  0  0  0  0  0  0  0  0  0  0  # atno 10718 bound_to 10713
  154.5047  135.2785  155.1392 H   0  0  0  0  0  0  0  0  0  0  0  0  # atno 10763 bound_to 10752
  154.3011  135.6248  153.5429 H   0  0  0  0  0  0  0  0  0  0  0  0  # atno 10764 bound_to 10752
  152.9908  135.5697  154.5498 H   0  0  0  0  0  0  0  0  0  0  0  0  # atno 10765 bound_to 10752
  141.0895  133.6635  156.3943 H   0  0  0  0  0  0  0  0  0  0  0  0  # atno 11005 bound_to 11000
  144.7014  140.3669  143.7153 LP  0  0  0  0  0  0  0  0  0  0  0  0  # atno 17320 bound_to 7965
  145.7101  139.1682  143.2544 LP  0  0  0  0  0  0  0  0  0  0  0  0  # atno 17321 bound_to 7965
  140.6998  143.7660  150.7384 LP  0  0  0  0  0  0  0  0  0  0  0  0  # atno 17342 bound_to 10162
  140.1167  143.4649  152.2338 LP  0  0  0  0  0  0  0  0  0  0  0  0  # atno 17343 bound_to 10162
  157.4330  131.0851  151.1020 LP  0  0  0  0  0  0  0  0  0  0  0  0  # atno 17370 bound_to 10713
  157.1587  130.6216  149.5604 LP  0  0  0  0  0  0  0  0  0  0  0  0  # atno 17371 bound_to 10713
  140.5285  134.6235  157.5342 LP  0  0  0  0  0  0  0  0  0  0  0  0  # atno 17394 bound_to 11000
  139.9718  134.7280  156.0026 LP  0  0  0  0  0  0  0  0  0  0  0  0  # atno 17395 bound_to 11000

$$$$
