AV-unprocessed.smi:102|AV-procd|sdf|967|dock7
  -GOLD-   2262017513D 1   1.00000     0.00000
 Structure written by MMmdl.
 43 44  0  0  0  0  0  0  0  0  2 V2000
  152.3639  130.9707  156.1923 C   0  0  0  0  0  0  0  0  0  0  0  0
  151.4840  132.0079  156.8776 C   0  0  0  0  0  0  0  0  0  0  0  0
  151.0458  131.8306  158.0145 O   0  0  0  0  0  0  0  0  0  0  0  0
  151.2654  133.0809  156.1059 O   0  0  0  0  0  0  0  0  0  0  0  0
  150.0546  133.8092  156.2330 C   0  0  0  0  0  0  0  0  0  0  0  0
  150.1176  135.0897  155.3893 C   0  0  2  0  0  0  0  0  0  0  0  0
  151.3334  135.7853  155.6173 O   0  0  0  0  0  0  0  0  0  0  0  0
  151.1523  137.1432  155.3484 C   0  0  2  0  0  0  0  0  0  0  0  0
  151.7605  137.9304  156.4908 N   0  0  0  0  0  0  0  0  0  0  0  0
  151.7399  137.4134  157.7749 C   0  0  0  0  0  0  0  0  0  0  0  0
  152.2588  138.0983  158.8136 C   0  0  0  0  0  0  0  0  0  0  0  0
  152.2200  137.5706  160.0493 F   0  0  0  0  0  0  0  0  0  0  0  0
  152.8545  139.4134  158.5856 C   0  0  0  0  0  0  0  0  0  0  0  0
  153.3353  140.0302  159.5349 O   0  0  0  0  0  0  0  0  0  0  0  0
  152.8470  139.9052  157.3124 N   0  5  0  0  0  0  0  0  0  0  0  0
  152.3135  139.2196  156.2590 C   0  0  0  0  0  0  0  0  0  0  0  0
  152.2760  139.6715  155.1146 O   0  0  0  0  0  0  0  0  0  0  0  0
  149.6387  137.4125  155.1839 C   0  0  2  0  0  0  0  0  0  0  0  0
  149.1943  138.5131  155.9717 O   0  0  0  0  0  0  0  0  0  0  0  0
  149.4170  139.7736  155.5693 C   0  0  0  0  0  0  0  0  0  0  0  0
  148.9990  140.7956  156.6178 C   0  0  0  0  0  0  0  0  0  0  0  0
  149.8952  140.1182  154.4884 O   0  0  0  0  0  0  0  0  0  0  0  0
  149.0144  136.1127  155.6673 C   0  0  1  0  0  0  0  0  0  0  0  0
  147.8437  135.8322  154.9114 O   0  0  0  0  0  0  0  0  0  0  0  0
  146.8141  136.6955  154.9132 C   0  0  0  0  0  0  0  0  0  0  0  0
  145.6790  136.2452  154.0035 C   0  0  0  0  0  0  0  0  0  0  0  0
  146.7433  137.7408  155.5595 O   0  0  0  0  0  0  0  0  0  0  0  0
  153.1204  131.4566  155.5754 H   0  0  0  0  0  0  0  0  0  0  0  0
  151.7588  130.3266  155.5542 H   0  0  0  0  0  0  0  0  0  0  0  0
  152.8693  130.3502  156.9324 H   0  0  0  0  0  0  0  0  0  0  0  0
  149.2147  133.1888  155.9184 H   0  0  0  0  0  0  0  0  0  0  0  0
  149.8921  134.0714  157.2795 H   0  0  0  0  0  0  0  0  0  0  0  0
  150.1027  134.8241  154.3309 H   0  0  0  0  0  0  0  0  0  0  0  0
  151.7221  137.3862  154.4513 H   0  0  0  0  0  0  0  0  0  0  0  0
  151.2934  136.4477  157.9565 H   0  0  0  0  0  0  0  0  0  0  0  0
  149.4510  137.5649  154.1197 H   0  0  0  0  0  0  0  0  0  0  0  0
  147.9145  140.8021  156.7268 H   0  0  0  0  0  0  0  0  0  0  0  0
  149.3248  141.7955  156.3304 H   0  0  0  0  0  0  0  0  0  0  0  0
  149.4433  140.5514  157.5831 H   0  0  0  0  0  0  0  0  0  0  0  0
  148.8183  136.1903  156.7380 H   0  0  0  0  0  0  0  0  0  0  0  0
  145.1180  135.4367  154.4723 H   0  0  0  0  0  0  0  0  0  0  0  0
  146.0723  135.8888  153.0512 H   0  0  0  0  0  0  0  0  0  0  0  0
  144.9958  137.0719  153.8069 H   0  0  0  0  0  0  0  0  0  0  0  0
  1  2  1  0  0  0  0
  1 28  1  0  0  0  0
  1 29  1  0  0  0  0
  1 30  1  0  0  0  0
  2  3  2  0  0  0  0
  2  4  1  0  0  0  0
  4  5  1  0  0  0  0
  5  6  1  0  0  0  0
  5 31  1  0  0  0  0
  5 32  1  0  0  0  0
  6 23  1  0  0  0  0
  6  7  1  0  0  0  0
  6 33  1  0  0  0  0
  7  8  1  0  0  0  0
  8  9  1  0  0  0  0
  8 18  1  0  0  0  0
  8 34  1  0  0  0  0
  9 16  1  0  0  0  0
  9 10  1  0  0  0  0
 10 11  2  0  0  0  0
 10 35  1  0  0  0  0
 11 12  1  0  0  0  0
 11 13  1  0  0  0  0
 13 14  2  0  0  0  0
 13 15  1  0  0  0  0
 15 16  1  0  0  0  0
 16 17  2  0  0  0  0
 18 19  1  0  0  0  0
 18 23  1  0  0  0  0
 18 36  1  0  0  0  0
 19 20  1  0  0  0  0
 20 21  1  0  0  0  0
 20 22  2  0  0  0  0
 21 37  1  0  0  0  0
 21 38  1  0  0  0  0
 21 39  1  0  0  0  0
 23 24  1  0  0  0  0
 23 40  1  0  0  0  0
 24 25  1  0  0  0  0
 25 26  1  0  0  0  0
 25 27  2  0  0  0  0
 26 41  1  0  0  0  0
 26 42  1  0  0  0  0
 26 43  1  0  0  0  0
M  CHG  1  15  -1
M  END
> <s_m_source_file>
AV-unprocessed.smi

> <i_m_source_file_index>
102

> <i_lp_mmshare_version>
43012

> <i_f3d_flags>
0

> <s_epik_input>
W0NIM11DKD1PKU9bQ0gyXVtDQEBIXTFPW0NASF0oW0NAQEhdKE9DKD1PKVtDSDNdKVtDQEhdMU9DKD1PKVtDSDNdKW4yW2NIXWMoRiljKD1PKVtuSF1jMj1P

> <s_epik_cmdline>
J2VwaWtfcHl0aG9uJywgJy1waCcsICc3LjAnLCAnLXRuJywgJzgnLCAnLW1hJywgJzIwMCcsICctbWV0YWxfYmluZGluZycsICctaW1hZScsICc8aW5maWxlLm1hZT4nLCAnLW9tYWUnLCAnPG91dGZpbGUubWFlPic=

> <r_epik_Ionization_Penalty>
1.40304

> <r_epik_Ionization_Penalty_Charging>
1.43915e-08

> <r_epik_Ionization_Penalty_Neutral>
1.40304

> <r_epik_State_Penalty>
1.48536

> <r_epik_Charging_Adjusted_Penalty>
1.48536

> <i_epik_Tot_Q>
-1

> <i_epik_Tot_abs_Q>
1

> <r_epik_Metal_State_Penalty>
0.00663881

> <b_epik_Metal_Only>
0

> <s_epik_Chemistry_Notes>
This compound has an ester and may undergo hydrolysis at high or low pH. This compound contains an acetal/aminal-like group ( X-CH(R)-Y where X, Y are N, S, or O) that may be acid/base labile, releasing an aldehyde.

> <s_lp_Force_Field>
OPLS_2005

> <r_lp_Energy>
21.6407

> <b_lp_Chiralities_Consistent>
1

> <s_lp_Variant>
AV-unprocessed.smi:102-23

> <Gold.Version>
5.8.1

> <Gold.Id.Protein>
6NUR|6NUR_protein|mol2

> <Gold.PLP.Fitness>
38.0995

> <Gold.PLP.PLP>
-25.8869

> <Gold.PLP.part.hbond>
-4.9916

> <Gold.PLP.part.metal>
0.0000

> <Gold.PLP.part.buried>
-5.0720

> <Gold.PLP.part.nonpolar>
-17.4015

> <Gold.PLP.part.repulsive>
0.8395

> <Gold.PLP.ligand.clash>
0.0000

> <Gold.PLP.ligand.torsion>
1.3814

> <Gold.PLP.Chemscore.Hbond>
4.9600

> <Gold.PLP.Chemscore.CHOScore>
0.0000

> <Gold.PLP.Chemscore.Metal>
0.0000

> <Gold.Chemscore.Hbonds>
donor molecule, donor type, donor heavy atom, donor atom, acceptor molecule, acceptor atom, score
      P1  H  6896  6908       L1     3  1.00
      P1  H  7989  7998       L1    22  0.74
      P1  H  7997  8010       L1    15  1.80
      P1  H 10752 10765       L1     7  1.00

> <Gold.PLP.Chemscore.Internal.Correction>
0.0955

> <Gold.Rescore>
     Score         DG    S(hbond)    S(metal)    S(lipo)     H(rot)  DE(clash)    DE(int)     intcor
      4.50      -8.19       2.71        0.00      33.26       4.00       0.62       3.08       ----

> <Gold.Chemscore.Fitness>
4.4971

> <Gold.Chemscore.DG>
-8.1946

> <Gold.Chemscore.ZeroCoef>
-5.4800

> <Gold.Chemscore.Hbond>
2.7097

> <Gold.Chemscore.Metal>
0.0000

> <Gold.Chemscore.Lipo>
33.2616

> <Gold.Chemscore.Internal_Hbond>
0.0000

> <Gold.Chemscore.DEClash>
0.6189

> <Gold.Chemscore.DEInternal>
3.0786

> <Gold.Chemscore.Rot>
3.9951

> <Gold.Chemscore.Internal.Correction>
   9.000000E+99

> <Gold.Chemscore.Hbonds>
donor molecule, donor type, donor heavy atom, donor atom, acceptor molecule, acceptor atom, score
      P1  H  6896  6908       L1     3  0.87
      P1  H  7989  7998       L1    22  0.71
      P1  H  7997  8010       L1    15  0.15
      P1  H 10752 10765       L1     7  0.30

> <Gold.Chemscore.Hbond.Weighted>
-9.0504

> <Gold.Chemscore.Metal.Weighted>
-0.0000

> <Gold.Chemscore.Lipo.Weighted>
-3.8916

> <Gold.Chemscore.Internal_Hbond.Weighted>
0.0000

> <Gold.Chemscore.DEClash.Weighted>
0.6189

> <Gold.Chemscore.DEInternal.Weighted>
3.0786

> <Gold.Chemscore.Rot.Weighted>
10.2274

> <Gold.Chemscore.Internal.Correction.Weighted>
   9.000000E+99

> <Gold.Protein.RotatedTorsions>
[ 6907 6896 6895 6894 ] final   75.31 input  -60.11 | X-H torsion
[ 7974 7965 7964 7962 ] final -149.12 input  175.53 | X-H torsion
[ 8008 7997 7996 7995 ] final   56.20 input   59.86 | X-H torsion
[ 10167 10162 10161 10158 ] final  138.02 input  -65.29 | X-H torsion
[ 10718 10713 10712 10709 ] final -100.48 input   66.30 | X-H torsion
[ 10763 10752 10751 10750 ] final -161.15 input  -60.55 | X-H torsion
[ 11005 11000 10999 10996 ] final   40.90 input  -57.11 | X-H torsion

> <Gold.Protein.ActiveResidues>
 VAL166  LYS551  ARG553  GLY616  TRP617  ASP618  TYR619  PRO620  LYS621  CYS622 
 ASP623  PHE694  ASN695  SER759  ASP760  ASP761  ALA762  ILE779  LEU786  VAL792 
 PHE793  MET794  SER795  GLU796  ALA797  LYS798  CYS799  TRP800  GLU811  SER814 

> <Gold.Protein.RotatedAtoms>
  152.5019  134.4140  159.9458 H   0  0  0  0  0  0  0  0  0  0  0  0  # atno 6907 bound_to 6896
  151.4110  133.3721  159.2751 H   0  0  0  0  0  0  0  0  0  0  0  0  # atno 6908 bound_to 6896
  150.9292  134.8729  159.7599 H   0  0  0  0  0  0  0  0  0  0  0  0  # atno 6909 bound_to 6896
  144.7987  140.5107  143.5722 H   0  0  0  0  0  0  0  0  0  0  0  0  # atno 7974 bound_to 7965
  155.5135  140.3478  155.4393 H   0  0  0  0  0  0  0  0  0  0  0  0  # atno 8008 bound_to 7997
  156.0833  140.1392  156.9712 H   0  0  0  0  0  0  0  0  0  0  0  0  # atno 8009 bound_to 7997
  154.4592  140.0941  156.6821 H   0  0  0  0  0  0  0  0  0  0  0  0  # atno 8010 bound_to 7997
  139.5124  144.6377  151.5653 H   0  0  0  0  0  0  0  0  0  0  0  0  # atno 10167 bound_to 10162
  156.0164  130.5330  150.6824 H   0  0  0  0  0  0  0  0  0  0  0  0  # atno 10718 bound_to 10713
  154.7328  135.3050  154.8862 H   0  0  0  0  0  0  0  0  0  0  0  0  # atno 10763 bound_to 10752
  153.9700  135.6743  153.4751 H   0  0  0  0  0  0  0  0  0  0  0  0  # atno 10764 bound_to 10752
  153.0934  135.4948  154.8655 H   0  0  0  0  0  0  0  0  0  0  0  0  # atno 10765 bound_to 10752
  140.1886  134.4015  155.8159 H   0  0  0  0  0  0  0  0  0  0  0  0  # atno 11005 bound_to 11000
  145.5607  139.1479  143.3343 LP  0  0  0  0  0  0  0  0  0  0  0  0  # atno 17320 bound_to 7965
  146.2263  140.5743  142.8995 LP  0  0  0  0  0  0  0  0  0  0  0  0  # atno 17321 bound_to 7965
  140.6132  143.9397  150.6469 LP  0  0  0  0  0  0  0  0  0  0  0  0  # atno 17342 bound_to 10162
  140.2647  143.3499  152.1292 LP  0  0  0  0  0  0  0  0  0  0  0  0  # atno 17343 bound_to 10162
  157.4523  131.0874  151.0833 LP  0  0  0  0  0  0  0  0  0  0  0  0  # atno 17370 bound_to 10713
  157.1345  130.6116  149.5538 LP  0  0  0  0  0  0  0  0  0  0  0  0  # atno 17371 bound_to 10713
  141.2225  133.7035  156.8056 LP  0  0  0  0  0  0  0  0  0  0  0  0  # atno 17394 bound_to 11000
  140.2185  134.8774  157.3352 LP  0  0  0  0  0  0  0  0  0  0  0  0  # atno 17395 bound_to 11000

$$$$
