AV-unprocessed.smi:1540|AV-procd|sdf|6200|dock1
  -GOLD-   22720 6363D 1   1.00000     0.00000
 Structure written by MMmdl.
 32 32  0  0  0  0  0  0  0  0  2 V2000
  153.9470  136.0210  164.2093 C   0  0  0  0  0  0  0  0  0  0  0  0
  154.0889  136.8176  163.1392 C   0  0  0  0  0  0  0  0  0  0  0  0
  155.3455  136.9134  162.3025 C   0  0  0  0  0  0  0  0  0  0  0  0
  155.2140  137.9472  161.3344 O   0  0  0  0  0  0  0  0  0  0  0  0
  154.2041  137.7381  160.3501 C   0  0  2  0  0  0  0  0  0  0  0  0
  154.6472  136.5560  159.4756 C   0  0  0  0  0  0  0  0  0  0  0  0
  154.0072  139.0087  159.5074 C   0  0  0  0  0  0  0  0  0  0  0  0
  154.9698  139.4953  158.9141 O   0  0  0  0  0  0  0  0  0  0  0  0
  152.7520  139.4981  159.4863 N   0  0  0  0  0  0  0  0  0  0  0  0
  152.2545  140.6508  158.8558 C   0  0  0  0  0  0  0  0  0  0  0  0
  152.2922  141.9038  159.3878 C   0  0  0  0  0  0  0  0  0  0  0  0
  151.7472  143.0630  158.6924 C   0  0  0  0  0  0  0  0  0  0  0  0
  151.7059  144.4602  159.2859 C   0  0  0  0  0  0  0  0  0  0  0  0
  152.4516  145.2864  158.5537 F   0  0  0  0  0  0  0  0  0  0  0  0
  150.4601  144.9350  159.3086 F   0  0  0  0  0  0  0  0  0  0  0  0
  152.1806  144.4653  160.5318 F   0  0  0  0  0  0  0  0  0  0  0  0
  151.1767  142.7264  157.4801 C   0  0  0  0  0  0  0  0  0  0  0  0
  151.1022  141.5177  156.8808 N   0  5  0  0  0  0  0  0  0  0  0  0
  151.6232  140.4421  157.5362 C   0  0  0  0  0  0  0  0  0  0  0  0
  151.5791  139.3100  157.0535 O   0  0  0  0  0  0  0  0  0  0  0  0
  154.7509  135.3815  164.5437 H   0  0  0  0  0  0  0  0  0  0  0  0
  153.0213  135.9983  164.7653 H   0  0  0  0  0  0  0  0  0  0  0  0
  153.2629  137.4432  162.8336 H   0  0  0  0  0  0  0  0  0  0  0  0
  156.1855  137.1268  162.9647 H   0  0  0  0  0  0  0  0  0  0  0  0
  155.5370  135.9498  161.8285 H   0  0  0  0  0  0  0  0  0  0  0  0
  153.2687  137.4678  160.8441 H   0  0  0  0  0  0  0  0  0  0  0  0
  153.9192  136.3506  158.6898 H   0  0  0  0  0  0  0  0  0  0  0  0
  154.7494  135.6505  160.0738 H   0  0  0  0  0  0  0  0  0  0  0  0
  155.6099  136.7465  158.9996 H   0  0  0  0  0  0  0  0  0  0  0  0
  152.0492  138.9467  159.9574 H   0  0  0  0  0  0  0  0  0  0  0  0
  152.7173  142.0773  160.3626 H   0  0  0  0  0  0  0  0  0  0  0  0
  150.7048  143.5528  156.9068 H   0  0  0  0  0  0  0  0  0  0  0  0
  1  2  2  0  0  0  0
  1 21  1  0  0  0  0
  1 22  1  0  0  0  0
  2  3  1  0  0  0  0
  2 23  1  0  0  0  0
  3  4  1  0  0  0  0
  3 24  1  0  0  0  0
  3 25  1  0  0  0  0
  4  5  1  0  0  0  0
  5  6  1  0  0  0  0
  5  7  1  0  0  0  0
  5 26  1  0  0  0  0
  6 27  1  0  0  0  0
  6 28  1  0  0  0  0
  6 29  1  0  0  0  0
  7  8  2  0  0  0  0
  7  9  1  0  0  0  0
  9 10  1  0  0  0  0
  9 30  1  0  0  0  0
 10 19  1  0  0  0  0
 10 11  2  0  0  0  0
 11 12  1  0  0  0  0
 11 31  1  0  0  0  0
 12 13  1  0  0  0  0
 12 17  2  0  0  0  0
 13 14  1  0  0  0  0
 13 15  1  0  0  0  0
 13 16  1  0  0  0  0
 17 18  1  0  0  0  0
 17 32  1  0  0  0  0
 18 19  1  0  0  0  0
 19 20  2  0  0  0  0
M  CHG  1  18  -1
M  END
> <s_m_source_file>
AV-unprocessed.smi

> <i_m_source_file_index>
1540

> <i_lp_mmshare_version>
43012

> <i_f3d_flags>
0

> <s_epik_input>
W0NIMl09W0NIXVtDSDJdT1tDQEhdKFtDSDNdKUMoPU8pW05IXWMxW2NIXWMoQyhGKShGKUYpW2NIXVtuSF1jMT1P

> <s_epik_cmdline>
J2VwaWtfcHl0aG9uJywgJy1waCcsICc3LjAnLCAnLXRuJywgJzgnLCAnLW1hJywgJzIwMCcsICctbWV0YWxfYmluZGluZycsICctaW1hZScsICc8aW5maWxlLm1hZT4nLCAnLW9tYWUnLCAnPG91dGZpbGUubWFlPic=

> <r_epik_Ionization_Penalty>
2.56803

> <r_epik_Ionization_Penalty_Charging>
0.0609694

> <r_epik_Ionization_Penalty_Neutral>
2.50706

> <r_epik_State_Penalty>
2.67253

> <r_epik_Charging_Adjusted_Penalty>
2.7335

> <i_epik_Tot_Q>
-1

> <i_epik_Tot_abs_Q>
1

> <r_epik_Metal_State_Penalty>
0.517713

> <b_epik_Metal_Only>
0

> <s_lp_Force_Field>
OPLS_2005

> <r_lp_Energy>
19.8511

> <b_lp_Chiralities_Consistent>
1

> <s_lp_Variant>
AV-unprocessed.smi:1540-3

> <Gold.Version>
5.8.1

> <Gold.Id.Protein>
6NUR|6NUR_protein|mol2

> <Gold.PLP.Fitness>
40.7458

> <Gold.PLP.PLP>
-39.4856

> <Gold.PLP.part.hbond>
-1.0000

> <Gold.PLP.part.metal>
0.0000

> <Gold.PLP.part.buried>
-6.2650

> <Gold.PLP.part.nonpolar>
-30.7171

> <Gold.PLP.part.repulsive>
0.1523

> <Gold.PLP.ligand.clash>
0.0000

> <Gold.PLP.ligand.torsion>
0.9345

> <Gold.PLP.Chemscore.Hbond>
1.0000

> <Gold.PLP.Chemscore.CHOScore>
0.0000

> <Gold.PLP.Chemscore.Metal>
0.0000

> <Gold.Chemscore.Hbonds>
donor molecule, donor type, donor heavy atom, donor atom, acceptor molecule, acceptor atom, score
      P1  H  7997  8009       L1     8  0.99

> <Gold.PLP.Chemscore.Internal.Correction>
0.1293

> <Gold.Rescore>
     Score         DG    S(hbond)    S(metal)    S(lipo)     H(rot)  DE(clash)    DE(int)     intcor
     12.76     -13.64       0.97        0.00      80.75       1.77       0.02       0.86       ----

> <Gold.Chemscore.Fitness>
12.7589

> <Gold.Chemscore.DG>
-13.6383

> <Gold.Chemscore.ZeroCoef>
-5.4800

> <Gold.Chemscore.Hbond>
0.9743

> <Gold.Chemscore.Metal>
0.0000

> <Gold.Chemscore.Lipo>
80.7515

> <Gold.Chemscore.Internal_Hbond>
0.0000

> <Gold.Chemscore.DEClash>
0.0178

> <Gold.Chemscore.DEInternal>
0.8616

> <Gold.Chemscore.Rot>
1.7750

> <Gold.Chemscore.Internal.Correction>
   9.000000E+99

> <Gold.Chemscore.Hbonds>
donor molecule, donor type, donor heavy atom, donor atom, acceptor molecule, acceptor atom, score
      P1  H  7997  8009       L1     8  0.94

> <Gold.Chemscore.Hbond.Weighted>
-3.2543

> <Gold.Chemscore.Metal.Weighted>
-0.0000

> <Gold.Chemscore.Lipo.Weighted>
-9.4479

> <Gold.Chemscore.Internal_Hbond.Weighted>
0.0000

> <Gold.Chemscore.DEClash.Weighted>
0.0178

> <Gold.Chemscore.DEInternal.Weighted>
0.8616

> <Gold.Chemscore.Rot.Weighted>
4.5439

> <Gold.Chemscore.Internal.Correction.Weighted>
   9.000000E+99

> <Gold.Protein.RotatedTorsions>
[ 6907 6896 6895 6894 ] final -108.97 input  -60.11 | X-H torsion
[ 7974 7965 7964 7962 ] final -166.63 input  175.53 | X-H torsion
[ 8008 7997 7996 7995 ] final   95.81 input   59.86 | X-H torsion
[ 10167 10162 10161 10158 ] final  -28.36 input  -65.29 | X-H torsion
[ 10718 10713 10712 10709 ] final  -94.58 input   66.30 | X-H torsion
[ 10763 10752 10751 10750 ] final -162.61 input  -60.55 | X-H torsion
[ 11005 11000 10999 10996 ] final -175.35 input  -57.11 | X-H torsion

> <Gold.Protein.ActiveResidues>
 VAL166  LYS551  ARG553  GLY616  TRP617  ASP618  TYR619  PRO620  LYS621  CYS622 
 ASP623  PHE694  ASN695  SER759  ASP760  ASP761  ALA762  ILE779  LEU786  VAL792 
 PHE793  MET794  SER795  GLU796  ALA797  LYS798  CYS799  TRP800  GLU811  SER814 

> <Gold.Protein.RotatedAtoms>
  150.7533  133.9599  159.3511 H   0  0  0  0  0  0  0  0  0  0  0  0  # atno 6907 bound_to 6896
  151.7524  135.0827  160.0342 H   0  0  0  0  0  0  0  0  0  0  0  0  # atno 6908 bound_to 6896
  152.3458  133.6083  159.5945 H   0  0  0  0  0  0  0  0  0  0  0  0  # atno 6909 bound_to 6896
  144.7241  140.2638  143.6261 H   0  0  0  0  0  0  0  0  0  0  0  0  # atno 7974 bound_to 7965
  156.0729  140.3281  155.7598 H   0  0  0  0  0  0  0  0  0  0  0  0  # atno 8008 bound_to 7997
  155.5276  140.0590  157.2912 H   0  0  0  0  0  0  0  0  0  0  0  0  # atno 8009 bound_to 7997
  154.4540  140.1933  156.0452 H   0  0  0  0  0  0  0  0  0  0  0  0  # atno 8010 bound_to 7997
  140.7270  143.4016  151.1254 H   0  0  0  0  0  0  0  0  0  0  0  0  # atno 10167 bound_to 10162
  156.0029  130.5073  150.5948 H   0  0  0  0  0  0  0  0  0  0  0  0  # atno 10718 bound_to 10713
  154.7198  135.3023  154.9066 H   0  0  0  0  0  0  0  0  0  0  0  0  # atno 10763 bound_to 10752
  153.9941  135.6715  153.4759 H   0  0  0  0  0  0  0  0  0  0  0  0  # atno 10764 bound_to 10752
  153.0824  135.5002  154.8446 H   0  0  0  0  0  0  0  0  0  0  0  0  # atno 10765 bound_to 10752
  140.4643  134.6225  157.4855 H   0  0  0  0  0  0  0  0  0  0  0  0  # atno 11005 bound_to 11000
  145.8110  139.2003  143.1993 LP  0  0  0  0  0  0  0  0  0  0  0  0  # atno 17320 bound_to 7965
  146.0596  140.7985  142.9741 LP  0  0  0  0  0  0  0  0  0  0  0  0  # atno 17321 bound_to 7965
  139.7637  143.8597  152.3106 LP  0  0  0  0  0  0  0  0  0  0  0  0  # atno 17342 bound_to 10162
  139.8492  144.7173  150.9235 LP  0  0  0  0  0  0  0  0  0  0  0  0  # atno 17343 bound_to 10162
  157.3807  131.0780  151.1479 LP  0  0  0  0  0  0  0  0  0  0  0  0  # atno 17370 bound_to 10713
  157.2203  130.6478  149.5808 LP  0  0  0  0  0  0  0  0  0  0  0  0  # atno 17371 bound_to 10713
  139.9925  134.6962  155.9664 LP  0  0  0  0  0  0  0  0  0  0  0  0  # atno 17394 bound_to 11000
  141.1607  133.6539  156.4309 LP  0  0  0  0  0  0  0  0  0  0  0  0  # atno 17395 bound_to 11000

$$$$
