AV-unprocessed.smi:1470|AV-procd|sdf|5960|dock10
  -GOLD-   22720 6 43D 1   1.00000     0.00000
 Structure written by MMmdl.
 42 43  0  0  0  0  0  0  0  0  1 V2000
  144.3918  135.4967  151.8066 C   0  0  0  0  0  0  0  0  0  0  0  0
  144.9305  136.7978  151.9577 O   0  0  0  0  0  0  0  0  0  0  0  0
  146.0507  137.0267  151.1190 C   0  0  0  0  0  0  0  0  0  0  0  0
  146.5592  138.4638  151.3088 C   0  0  0  0  0  0  0  0  0  0  0  0
  147.7377  138.5116  152.1678 N   0  0  0  0  0  0  0  0  0  0  0  0
  147.9654  139.4318  153.1156 C   0  0  0  0  0  0  0  0  0  0  0  0
  147.1810  140.3417  153.3836 O   0  0  0  0  0  0  0  0  0  0  0  0
  149.1367  139.2110  153.7364 N   0  0  0  0  0  0  0  0  0  0  0  0
  149.7558  139.9966  154.7450 C   0  0  0  0  0  0  0  0  0  0  0  0
  151.0597  139.6542  155.1515 C   0  0  0  0  0  0  0  0  0  0  0  0
  151.7016  140.4338  156.1322 C   0  0  0  0  0  0  0  0  0  0  0  0
  151.0247  141.5492  156.6790 C   0  0  0  0  0  0  0  0  0  0  0  0
  151.6493  142.3459  157.6635 N   0  0  0  0  0  0  0  0  0  0  0  0
  151.5501  143.8014  157.5239 C   0  0  0  0  0  0  0  0  0  0  0  0
  152.5756  144.5180  158.4188 C   0  0  0  0  0  0  0  0  0  0  0  0
  152.4534  144.0550  159.8778 C   0  0  0  0  0  0  0  0  0  0  0  0
  152.5748  142.5260  159.9544 C   0  0  0  0  0  0  0  0  0  0  0  0
  151.5485  141.8422  159.0349 C   0  0  0  0  0  0  0  0  0  0  0  0
  149.7770  141.8897  156.2724 N   0  0  0  0  0  0  0  0  0  0  0  0
  149.1633  141.1380  155.3345 C   0  0  0  0  0  0  0  0  0  0  0  0
  143.5360  135.3763  152.4707 H   0  0  0  0  0  0  0  0  0  0  0  0
  145.1271  134.7330  152.0626 H   0  0  0  0  0  0  0  0  0  0  0  0
  144.0511  135.3273  150.7843 H   0  0  0  0  0  0  0  0  0  0  0  0
  146.8442  136.3245  151.3794 H   0  0  0  0  0  0  0  0  0  0  0  0
  145.7907  136.8502  150.0738 H   0  0  0  0  0  0  0  0  0  0  0  0
  146.7539  138.9357  150.3443 H   0  0  0  0  0  0  0  0  0  0  0  0
  145.7824  139.0586  151.7896 H   0  0  0  0  0  0  0  0  0  0  0  0
  148.4353  137.7967  152.0219 H   0  0  0  0  0  0  0  0  0  0  0  0
  149.6241  138.3640  153.4839 H   0  0  0  0  0  0  0  0  0  0  0  0
  151.5661  138.8033  154.7196 H   0  0  0  0  0  0  0  0  0  0  0  0
  152.7048  140.1796  156.4404 H   0  0  0  0  0  0  0  0  0  0  0  0
  151.7205  144.0927  156.4866 H   0  0  0  0  0  0  0  0  0  0  0  0
  150.5398  144.1181  157.7871 H   0  0  0  0  0  0  0  0  0  0  0  0
  153.5832  144.3129  158.0546 H   0  0  0  0  0  0  0  0  0  0  0  0
  152.4362  145.5973  158.3543 H   0  0  0  0  0  0  0  0  0  0  0  0
  153.2233  144.5262  160.4897 H   0  0  0  0  0  0  0  0  0  0  0  0
  151.4920  144.3695  160.2854 H   0  0  0  0  0  0  0  0  0  0  0  0
  153.5820  142.2248  159.6629 H   0  0  0  0  0  0  0  0  0  0  0  0
  152.4364  142.1906  160.9824 H   0  0  0  0  0  0  0  0  0  0  0  0
  150.5388  142.0329  159.4006 H   0  0  0  0  0  0  0  0  0  0  0  0
  151.6966  140.7641  159.0813 H   0  0  0  0  0  0  0  0  0  0  0  0
  148.1849  141.4876  155.0439 H   0  0  0  0  0  0  0  0  0  0  0  0
  1  2  1  0  0  0  0
  1 21  1  0  0  0  0
  1 22  1  0  0  0  0
  1 23  1  0  0  0  0
  2  3  1  0  0  0  0
  3  4  1  0  0  0  0
  3 24  1  0  0  0  0
  3 25  1  0  0  0  0
  4  5  1  0  0  0  0
  4 26  1  0  0  0  0
  4 27  1  0  0  0  0
  5  6  1  0  0  0  0
  5 28  1  0  0  0  0
  6  7  2  0  0  0  0
  6  8  1  0  0  0  0
  8  9  1  0  0  0  0
  8 29  1  0  0  0  0
  9 20  1  0  0  0  0
  9 10  2  0  0  0  0
 10 11  1  0  0  0  0
 10 30  1  0  0  0  0
 11 12  2  0  0  0  0
 11 31  1  0  0  0  0
 12 13  1  0  0  0  0
 12 19  1  0  0  0  0
 13 18  1  0  0  0  0
 13 14  1  0  0  0  0
 14 15  1  0  0  0  0
 14 32  1  0  0  0  0
 14 33  1  0  0  0  0
 15 16  1  0  0  0  0
 15 34  1  0  0  0  0
 15 35  1  0  0  0  0
 16 17  1  0  0  0  0
 16 36  1  0  0  0  0
 16 37  1  0  0  0  0
 17 18  1  0  0  0  0
 17 38  1  0  0  0  0
 17 39  1  0  0  0  0
 18 40  1  0  0  0  0
 18 41  1  0  0  0  0
 19 20  2  0  0  0  0
 20 42  1  0  0  0  0
M  END
> <s_m_source_file>
AV-unprocessed.smi

> <i_m_source_file_index>
1470

> <i_lp_mmshare_version>
43012

> <i_f3d_flags>
0

> <s_epik_input>
W0NIM11PW0NIMl1bQ0gyXVtOSF1DKD1PKVtOSF1jMVtjSF1bY0hdYyhuW2NIXTEpTjJbQ0gyXVtDSDJdW0NIMl1bQ0gyXVtDSDJdMg==

> <s_epik_cmdline>
J2VwaWtfcHl0aG9uJywgJy1waCcsICc3LjAnLCAnLXRuJywgJzgnLCAnLW1hJywgJzIwMCcsICctbWV0YWxfYmluZGluZycsICctaW1hZScsICc8aW5maWxlLm1hZT4nLCAnLW9tYWUnLCAnPG91dGZpbGUubWFlPic=

> <r_lp_tautomer_probability>
1

> <r_epik_Ionization_Penalty>
0.104129

> <r_epik_Ionization_Penalty_Charging>
0

> <r_epik_Ionization_Penalty_Neutral>
0.104129

> <r_epik_State_Penalty>
0.0879167

> <r_epik_Charging_Adjusted_Penalty>
0.0879167

> <i_epik_Tot_Q>
0

> <i_epik_Tot_abs_Q>
0

> <r_epik_Metal_State_Penalty>
0.0753231

> <b_epik_Metal_Only>
0

> <s_lp_Force_Field>
OPLS_2005

> <r_lp_Energy>
19.434

> <b_lp_Chiralities_Consistent>
1

> <s_lp_Variant>
AV-unprocessed.smi:1470-1

> <Gold.Version>
5.8.1

> <Gold.Id.Protein>
6NUR|6NUR_protein|mol2

> <Gold.PLP.Fitness>
42.5280

> <Gold.PLP.PLP>
-41.0017

> <Gold.PLP.part.hbond>
-3.0000

> <Gold.PLP.part.metal>
0.0000

> <Gold.PLP.part.buried>
2.3141

> <Gold.PLP.part.nonpolar>
-41.6959

> <Gold.PLP.part.repulsive>
1.2422

> <Gold.PLP.ligand.clash>
0.0000

> <Gold.PLP.ligand.torsion>
0.9577

> <Gold.PLP.Chemscore.Hbond>
1.0000

> <Gold.PLP.Chemscore.CHOScore>
0.0000

> <Gold.PLP.Chemscore.Metal>
0.0000

> <Gold.Chemscore.Hbonds>
donor molecule, donor type, donor heavy atom, donor atom, acceptor molecule, acceptor atom, score
      L1  H     5    28       P1  7948  1.00

> <Gold.PLP.Chemscore.Internal.Correction>
0.4417

> <Gold.Rescore>
     Score         DG    S(hbond)    S(metal)    S(lipo)     H(rot)  DE(clash)    DE(int)     intcor
     14.57     -16.87       0.99        0.00     104.20       1.61       0.05       2.25       ----

> <Gold.Chemscore.Fitness>
14.5656

> <Gold.Chemscore.DG>
-16.8722

> <Gold.Chemscore.ZeroCoef>
-5.4800

> <Gold.Chemscore.Hbond>
0.9937

> <Gold.Chemscore.Metal>
0.0000

> <Gold.Chemscore.Lipo>
104.1978

> <Gold.Chemscore.Internal_Hbond>
0.0000

> <Gold.Chemscore.DEClash>
0.0529

> <Gold.Chemscore.DEInternal>
2.2537

> <Gold.Chemscore.Rot>
1.6086

> <Gold.Chemscore.Internal.Correction>
   9.000000E+99

> <Gold.Chemscore.Hbonds>
donor molecule, donor type, donor heavy atom, donor atom, acceptor molecule, acceptor atom, score
      L1  H     5    28       P1  7948  0.97

> <Gold.Chemscore.Hbond.Weighted>
-3.3190

> <Gold.Chemscore.Metal.Weighted>
-0.0000

> <Gold.Chemscore.Lipo.Weighted>
-12.1911

> <Gold.Chemscore.Internal_Hbond.Weighted>
0.0000

> <Gold.Chemscore.DEClash.Weighted>
0.0529

> <Gold.Chemscore.DEInternal.Weighted>
2.2537

> <Gold.Chemscore.Rot.Weighted>
4.1179

> <Gold.Chemscore.Internal.Correction.Weighted>
   9.000000E+99

> <Gold.Protein.RotatedTorsions>
[ 6907 6896 6895 6894 ] final  156.62 input  -60.11 | X-H torsion
[ 7974 7965 7964 7962 ] final   -8.22 input  175.53 | X-H torsion
[ 8008 7997 7996 7995 ] final -145.47 input   59.86 | X-H torsion
[ 10167 10162 10161 10158 ] final   -3.35 input  -65.29 | X-H torsion
[ 10718 10713 10712 10709 ] final -165.11 input   66.30 | X-H torsion
[ 10763 10752 10751 10750 ] final  164.52 input  -60.55 | X-H torsion
[ 11005 11000 10999 10996 ] final  -14.58 input  -57.11 | X-H torsion

> <Gold.Protein.ActiveResidues>
 VAL166  LYS551  ARG553  GLY616  TRP617  ASP618  TYR619  PRO620  LYS621  CYS622 
 ASP623  PHE694  ASN695  SER759  ASP760  ASP761  ALA762  ILE779  LEU786  VAL792 
 PHE793  MET794  SER795  GLU796  ALA797  LYS798  CYS799  TRP800  GLU811  SER814 

> <Gold.Protein.RotatedAtoms>
  152.0270  133.3921  159.4281 H   0  0  0  0  0  0  0  0  0  0  0  0  # atno 6907 bound_to 6896
  150.6885  134.3563  159.4940 H   0  0  0  0  0  0  0  0  0  0  0  0  # atno 6908 bound_to 6896
  152.1344  134.9110  160.0608 H   0  0  0  0  0  0  0  0  0  0  0  0  # atno 6909 bound_to 6896
  146.2286  140.2435  142.8344 H   0  0  0  0  0  0  0  0  0  0  0  0  # atno 7974 bound_to 7965
  155.5437  140.0610  157.2865 H   0  0  0  0  0  0  0  0  0  0  0  0  # atno 8008 bound_to 7997
  154.4443  140.1915  156.0660 H   0  0  0  0  0  0  0  0  0  0  0  0  # atno 8009 bound_to 7997
  156.0566  140.3277  155.7417 H   0  0  0  0  0  0  0  0  0  0  0  0  # atno 8010 bound_to 7997
  140.6886  143.6550  150.8316 H   0  0  0  0  0  0  0  0  0  0  0  0  # atno 10167 bound_to 10162
  156.6486  130.8998  151.3009 H   0  0  0  0  0  0  0  0  0  0  0  0  # atno 10718 bound_to 10713
  154.3101  135.2757  155.2570 H   0  0  0  0  0  0  0  0  0  0  0  0  # atno 10763 bound_to 10752
  154.4969  135.5818  153.6504 H   0  0  0  0  0  0  0  0  0  0  0  0  # atno 10764 bound_to 10752
  152.9889  135.6148  154.3278 H   0  0  0  0  0  0  0  0  0  0  0  0  # atno 10765 bound_to 10752
  140.7878  133.8311  155.9351 H   0  0  0  0  0  0  0  0  0  0  0  0  # atno 11005 bound_to 11000
  144.9466  140.8135  143.5597 LP  0  0  0  0  0  0  0  0  0  0  0  0  # atno 17320 bound_to 7965
  145.2392  139.2080  143.5002 LP  0  0  0  0  0  0  0  0  0  0  0  0  # atno 17321 bound_to 7965
  140.0261  143.5492  152.2780 LP  0  0  0  0  0  0  0  0  0  0  0  0  # atno 17342 bound_to 10162
  139.6268  144.7638  151.2621 LP  0  0  0  0  0  0  0  0  0  0  0  0  # atno 17343 bound_to 10162
  157.7148  130.9484  150.1216 LP  0  0  0  0  0  0  0  0  0  0  0  0  # atno 17370 bound_to 10713
  156.2102  130.3666  149.8680 LP  0  0  0  0  0  0  0  0  0  0  0  0  # atno 17371 bound_to 10713
  140.9419  134.1890  157.4791 LP  0  0  0  0  0  0  0  0  0  0  0  0  # atno 17394 bound_to 11000
  139.8734  134.9875  156.5371 LP  0  0  0  0  0  0  0  0  0  0  0  0  # atno 17395 bound_to 11000

$$$$
