AV-unprocessed.smi:806|AV-procd|sdf|3800|dock8
  -GOLD-   22720 1233D 1   1.00000     0.00000
 Structure written by MMmdl.
 45 46  0  0  0  0  0  0  0  0  2 V2000
  147.3503  140.7202  153.1805 C   0  0  0  0  0  0  0  0  0  0  0  0
  147.8399  139.5904  153.9937 N   0  0  0  0  0  0  0  0  0  0  0  0
  147.3890  138.3178  153.7949 C   0  0  0  0  0  0  0  0  0  0  0  0
  147.8036  137.3623  154.4533 O   0  0  0  0  0  0  0  0  0  0  0  0
  146.3209  138.0346  152.7196 C   0  0  0  0  0  0  0  0  0  0  0  0
  146.0665  136.5919  152.5130 N   0  3  0  0  0  0  0  0  0  0  0  0
  145.2021  136.2686  151.3570 C   0  0  0  0  0  0  0  0  0  0  0  0
  144.3293  135.0363  151.6446 C   0  0  0  0  0  0  0  0  0  0  0  0
  144.7456  133.8793  150.8718 N   0  0  0  0  0  0  0  0  0  0  0  0
  143.9966  133.1092  150.0069 C   0  0  0  0  0  0  0  0  0  0  0  0
  144.8145  132.1278  149.5251 C   0  0  0  0  0  0  0  0  0  0  0  0
  146.0639  132.3894  150.1535 C   0  0  0  0  0  0  0  0  0  0  0  0
  146.0198  133.4404  150.9562 N   0  0  0  0  0  0  0  0  0  0  0  0
  148.8767  139.8951  155.0328 C   0  0  0  0  0  0  0  0  0  0  0  0
  148.3620  139.5856  156.3860 C   0  0  0  0  0  0  0  0  0  0  0  0
  147.9594  139.3451  157.4445 N   0  0  0  0  0  0  0  0  0  0  0  0
  150.1529  139.0563  154.7378 C   0  0  0  0  0  0  0  0  0  0  0  0
  151.2897  139.3157  155.7427 C   0  0  0  0  0  0  0  0  0  0  0  0
  151.6613  140.8033  155.7934 C   0  0  0  0  0  0  0  0  0  0  0  0
  150.4303  141.6712  156.0845 C   0  0  0  0  0  0  0  0  0  0  0  0
  149.3104  141.3942  155.0649 C   0  0  0  0  0  0  0  0  0  0  0  0
  146.6182  140.4779  152.4139 H   0  0  0  0  0  0  0  0  0  0  0  0
  148.1808  141.1872  152.6511 H   0  0  0  0  0  0  0  0  0  0  0  0
  146.8725  141.4703  153.8101 H   0  0  0  0  0  0  0  0  0  0  0  0
  145.3800  138.4792  153.0451 H   0  0  0  0  0  0  0  0  0  0  0  0
  146.5963  138.4924  151.7685 H   0  0  0  0  0  0  0  0  0  0  0  0
  146.9593  136.1354  152.3873 H   0  0  0  0  0  0  0  0  0  0  0  0
  144.5697  137.1292  151.1367 H   0  0  0  0  0  0  0  0  0  0  0  0
  145.8097  136.0926  150.4685 H   0  0  0  0  0  0  0  0  0  0  0  0
  144.3638  134.7839  152.7051 H   0  0  0  0  0  0  0  0  0  0  0  0
  143.2865  135.2502  151.4057 H   0  0  0  0  0  0  0  0  0  0  0  0
  142.9545  133.3164  149.8117 H   0  0  0  0  0  0  0  0  0  0  0  0
  144.5603  131.3432  148.8278 H   0  0  0  0  0  0  0  0  0  0  0  0
  146.9949  131.8517  150.0507 H   0  0  0  0  0  0  0  0  0  0  0  0
  149.9334  137.9892  154.7455 H   0  0  0  0  0  0  0  0  0  0  0  0
  150.5094  139.2802  153.7313 H   0  0  0  0  0  0  0  0  0  0  0  0
  150.9930  138.9763  156.7357 H   0  0  0  0  0  0  0  0  0  0  0  0
  152.1657  138.7270  155.4688 H   0  0  0  0  0  0  0  0  0  0  0  0
  152.4252  140.9715  156.5533 H   0  0  0  0  0  0  0  0  0  0  0  0
  152.1015  141.1018  154.8411 H   0  0  0  0  0  0  0  0  0  0  0  0
  150.0766  141.4830  157.0988 H   0  0  0  0  0  0  0  0  0  0  0  0
  150.7075  142.7251  156.0507 H   0  0  0  0  0  0  0  0  0  0  0  0
  149.6795  141.7198  154.0926 H   0  0  0  0  0  0  0  0  0  0  0  0
  148.4570  142.0287  155.3075 H   0  0  0  0  0  0  0  0  0  0  0  0
  145.6267  136.2197  153.3423 H   0  0  0  0  0  0  0  0  0  0  0  0
  1  2  1  0  0  0  0
  1 22  1  0  0  0  0
  1 23  1  0  0  0  0
  1 24  1  0  0  0  0
  2  3  1  0  0  0  0
  2 14  1  0  0  0  0
  3  4  2  0  0  0  0
  3  5  1  0  0  0  0
  5  6  1  0  0  0  0
  5 25  1  0  0  0  0
  5 26  1  0  0  0  0
  6  7  1  0  0  0  0
  6 27  1  0  0  0  0
  6 45  1  0  0  0  0
  7  8  1  0  0  0  0
  7 28  1  0  0  0  0
  7 29  1  0  0  0  0
  8  9  1  0  0  0  0
  8 30  1  0  0  0  0
  8 31  1  0  0  0  0
  9 13  1  0  0  0  0
  9 10  1  0  0  0  0
 10 11  2  0  0  0  0
 10 32  1  0  0  0  0
 11 12  1  0  0  0  0
 11 33  1  0  0  0  0
 12 13  2  0  0  0  0
 12 34  1  0  0  0  0
 14 21  1  0  0  0  0
 14 15  1  0  0  0  0
 14 17  1  0  0  0  0
 15 16  3  0  0  0  0
 17 18  1  0  0  0  0
 17 35  1  0  0  0  0
 17 36  1  0  0  0  0
 18 19  1  0  0  0  0
 18 37  1  0  0  0  0
 18 38  1  0  0  0  0
 19 20  1  0  0  0  0
 19 39  1  0  0  0  0
 19 40  1  0  0  0  0
 20 21  1  0  0  0  0
 20 41  1  0  0  0  0
 20 42  1  0  0  0  0
 21 43  1  0  0  0  0
 21 44  1  0  0  0  0
M  CHG  1   6   1
M  END
> <s_m_source_file>
AV-unprocessed.smi

> <i_m_source_file_index>
806

> <i_lp_mmshare_version>
43012

> <i_f3d_flags>
0

> <s_epik_input>
W0NIMl0xW0NIMl1bQ0gyXVtDSDJdW0NIMl1DMShDI04pTihbQ0gzXSlDKD1PKVtDSDJdW05IXVtDSDJdW0NIMl1uMltjSF1bY0hdW2NIXW4y

> <s_epik_cmdline>
J2VwaWtfcHl0aG9uJywgJy1waCcsICc3LjAnLCAnLXRuJywgJzgnLCAnLW1hJywgJzIwMCcsICctbWV0YWxfYmluZGluZycsICctaW1hZScsICc8aW5maWxlLm1hZT4nLCAnLW9tYWUnLCAnPG91dGZpbGUubWFlPic=

> <r_lp_tautomer_probability>
1

> <r_epik_Ionization_Penalty>
0.349033

> <r_epik_Ionization_Penalty_Charging>
0.349031

> <r_epik_Ionization_Penalty_Neutral>
2.24604e-06

> <r_epik_State_Penalty>
0.345151

> <r_epik_Charging_Adjusted_Penalty>
0.694182

> <i_epik_Tot_Q>
1

> <i_epik_Tot_abs_Q>
1

> <r_epik_Metal_State_Penalty>
0.345887

> <b_epik_Metal_Only>
0

> <s_lp_Force_Field>
OPLS_2005

> <r_lp_Energy>
26.3561

> <b_lp_Chiralities_Consistent>
1

> <s_lp_Variant>
AV-unprocessed.smi:806-1

> <Gold.Version>
5.8.1

> <Gold.Id.Protein>
6NUR|6NUR_protein|mol2

> <Gold.PLP.Fitness>
45.6753

> <Gold.PLP.PLP>
-34.9481

> <Gold.PLP.part.hbond>
-1.0000

> <Gold.PLP.part.metal>
0.0000

> <Gold.PLP.part.buried>
-2.5614

> <Gold.PLP.part.nonpolar>
-32.5742

> <Gold.PLP.part.repulsive>
0.7206

> <Gold.PLP.ligand.clash>
0.0000

> <Gold.PLP.ligand.torsion>
0.6788

> <Gold.PLP.Chemscore.Hbond>
2.0000

> <Gold.PLP.Chemscore.CHOScore>
2.0000

> <Gold.PLP.Chemscore.Metal>
0.0000

> <Gold.Chemscore.Hbonds>
donor molecule, donor type, donor heavy atom, donor atom, acceptor molecule, acceptor atom, score
      L1  H     6    27       P1  7948  1.90
      L1  C    10    32       P1 10186  1.00
      L1  C    12    34       P1 10747  1.00

> <Gold.PLP.Chemscore.Internal.Correction>
0.0848

> <Gold.Rescore>
     Score         DG    S(hbond)    S(metal)    S(lipo)     H(rot)  DE(clash)    DE(int)     intcor
     11.84     -14.26       0.99        0.00      92.57       2.09       0.18       2.23       ----

> <Gold.Chemscore.Fitness>
11.8435

> <Gold.Chemscore.DG>
-14.2617

> <Gold.Chemscore.ZeroCoef>
-5.4800

> <Gold.Chemscore.Hbond>
0.9881

> <Gold.Chemscore.Metal>
0.0000

> <Gold.Chemscore.Lipo>
92.5659

> <Gold.Chemscore.Internal_Hbond>
0.0000

> <Gold.Chemscore.DEClash>
0.1840

> <Gold.Chemscore.DEInternal>
2.2342

> <Gold.Chemscore.Rot>
2.0893

> <Gold.Chemscore.Internal.Correction>
   9.000000E+99

> <Gold.Chemscore.Hbonds>
donor molecule, donor type, donor heavy atom, donor atom, acceptor molecule, acceptor atom, score
      L1  H     6    27       P1  7948  0.85

> <Gold.Chemscore.Hbond.Weighted>
-3.3001

> <Gold.Chemscore.Metal.Weighted>
-0.0000

> <Gold.Chemscore.Lipo.Weighted>
-10.8302

> <Gold.Chemscore.Internal_Hbond.Weighted>
0.0000

> <Gold.Chemscore.DEClash.Weighted>
0.1840

> <Gold.Chemscore.DEInternal.Weighted>
2.2342

> <Gold.Chemscore.Rot.Weighted>
5.3486

> <Gold.Chemscore.Internal.Correction.Weighted>
   9.000000E+99

> <Gold.Protein.RotatedTorsions>
[ 6907 6896 6895 6894 ] final  -49.98 input  -60.11 | X-H torsion
[ 7974 7965 7964 7962 ] final   54.73 input  175.53 | X-H torsion
[ 8008 7997 7996 7995 ] final  -42.51 input   59.86 | X-H torsion
[ 10167 10162 10161 10158 ] final  -69.76 input  -65.29 | X-H torsion
[ 10718 10713 10712 10709 ] final    9.83 input   66.30 | X-H torsion
[ 10763 10752 10751 10750 ] final -121.83 input  -60.55 | X-H torsion
[ 11005 11000 10999 10996 ] final  -36.53 input  -57.11 | X-H torsion

> <Gold.Protein.ActiveResidues>
 VAL166  LYS551  ARG553  GLY616  TRP617  ASP618  TYR619  PRO620  LYS621  CYS622 
 ASP623  PHE694  ASN695  SER759  ASP760  ASP761  ALA762  ILE779  LEU786  VAL792 
 PHE793  MET794  SER795  GLU796  ALA797  LYS798  CYS799  TRP800  GLU811  SER814 

> <Gold.Protein.RotatedAtoms>
  150.8752  134.8134  159.7184 H   0  0  0  0  0  0  0  0  0  0  0  0  # atno 6907 bound_to 6896
  152.4742  134.4883  159.9697 H   0  0  0  0  0  0  0  0  0  0  0  0  # atno 6908 bound_to 6896
  151.4965  133.3475  159.2897 H   0  0  0  0  0  0  0  0  0  0  0  0  # atno 6909 bound_to 6896
  145.9578  139.4030  143.0267 H   0  0  0  0  0  0  0  0  0  0  0  0  # atno 7974 bound_to 7965
  154.3999  140.1471  156.3367 H   0  0  0  0  0  0  0  0  0  0  0  0  # atno 8008 bound_to 7997
  155.8394  140.3462  155.5601 H   0  0  0  0  0  0  0  0  0  0  0  0  # atno 8009 bound_to 7997
  155.8103  140.0883  157.1898 H   0  0  0  0  0  0  0  0  0  0  0  0  # atno 8010 bound_to 7997
  140.5405  143.2315  151.7098 H   0  0  0  0  0  0  0  0  0  0  0  0  # atno 10167 bound_to 10162
  156.9721  130.5973  149.5669 H   0  0  0  0  0  0  0  0  0  0  0  0  # atno 10718 bound_to 10713
  154.8677  135.4154  154.2684 H   0  0  0  0  0  0  0  0  0  0  0  0  # atno 10763 bound_to 10752
  153.3599  135.7003  153.6726 H   0  0  0  0  0  0  0  0  0  0  0  0  # atno 10764 bound_to 10752
  153.5632  135.3606  155.2780 H   0  0  0  0  0  0  0  0  0  0  0  0  # atno 10765 bound_to 10752
  140.9882  133.7019  156.1803 H   0  0  0  0  0  0  0  0  0  0  0  0  # atno 11005 bound_to 11000
  145.8083  140.9738  143.0962 LP  0  0  0  0  0  0  0  0  0  0  0  0  # atno 17320 bound_to 7965
  144.6808  139.9888  143.7484 LP  0  0  0  0  0  0  0  0  0  0  0  0  # atno 17321 bound_to 7965
  139.4987  144.3976  152.0215 LP  0  0  0  0  0  0  0  0  0  0  0  0  # atno 17342 bound_to 10162
  140.3084  144.3566  150.6040 LP  0  0  0  0  0  0  0  0  0  0  0  0  # atno 17343 bound_to 10162
  156.0278  130.5371  150.8454 LP  0  0  0  0  0  0  0  0  0  0  0  0  # atno 17370 bound_to 10713
  157.5585  131.0945  150.9593 LP  0  0  0  0  0  0  0  0  0  0  0  0  # atno 17371 bound_to 10713
  140.7081  134.4491  157.5583 LP  0  0  0  0  0  0  0  0  0  0  0  0  # atno 17394 bound_to 11000
  139.8980  134.8623  156.2020 LP  0  0  0  0  0  0  0  0  0  0  0  0  # atno 17395 bound_to 11000

$$$$
