AV-unprocessed.smi:1453|AV-procd|sdf|5912|dock4
  -GOLD-   22720 5593D 1   1.00000     0.00000
 Structure written by MMmdl.
 43 44  0  0  0  0  0  0  0  0  1 V2000
  149.3884  134.6478  154.7311 C   0  0  0  0  0  0  0  0  0  0  0  0
  150.2160  135.2538  155.8761 C   0  0  1  0  0  0  0  0  0  0  0  0
  150.9800  136.5057  155.4238 C   0  0  0  0  0  0  0  0  0  0  0  0
  152.1957  136.5933  155.5979 O   0  0  0  0  0  0  0  0  0  0  0  0
  150.2516  137.4755  154.8478 N   0  0  0  0  0  0  0  0  0  0  0  0
  150.7872  138.7401  154.3541 C   0  0  0  0  0  0  0  0  0  0  0  0
  150.9339  139.8204  155.4168 C   0  0  0  0  0  0  0  0  0  0  0  0
  151.7872  139.6170  156.5185 C   0  0  0  0  0  0  0  0  0  0  0  0
  151.9169  140.6350  157.4826 C   0  0  0  0  0  0  0  0  0  0  0  0
  151.1917  141.8390  157.3183 C   0  0  0  0  0  0  0  0  0  0  0  0
  151.3090  142.8752  158.2705 N   0  0  0  0  0  0  0  0  0  0  0  0
  152.0874  142.5524  159.4639 C   0  0  0  0  0  0  0  0  0  0  0  0
  151.8881  143.6309  160.5425 C   0  0  0  0  0  0  0  0  0  0  0  0
  152.2029  144.9122  160.0079 O   0  0  0  0  0  0  0  0  0  0  0  0
  151.3536  145.2529  158.9173 C   0  0  0  0  0  0  0  0  0  0  0  0
  151.5362  144.2336  157.7802 C   0  0  0  0  0  0  0  0  0  0  0  0
  150.3695  142.0308  156.2569 N   0  0  0  0  0  0  0  0  0  0  0  0
  150.2494  141.0520  155.3357 C   0  0  0  0  0  0  0  0  0  0  0  0
  149.1096  135.6646  157.3067 S   0  0  0  0  0  0  0  0  0  0  0  0
  148.4693  134.0163  157.8242 C   0  0  0  0  0  0  0  0  0  0  0  0
  149.9269  136.2010  158.4058 O   0  0  0  0  0  0  0  0  0  0  0  0
  147.9797  136.4560  156.7964 O   0  0  0  0  0  0  0  0  0  0  0  0
  150.0110  134.4300  153.8626 H   0  0  0  0  0  0  0  0  0  0  0  0
  148.5915  135.3210  154.4122 H   0  0  0  0  0  0  0  0  0  0  0  0
  148.9226  133.7128  155.0425 H   0  0  0  0  0  0  0  0  0  0  0  0
  150.9272  134.5040  156.2243 H   0  0  0  0  0  0  0  0  0  0  0  0
  149.2579  137.3297  154.7440 H   0  0  0  0  0  0  0  0  0  0  0  0
  151.7486  138.5675  153.8669 H   0  0  0  0  0  0  0  0  0  0  0  0
  150.1144  139.1129  153.5817 H   0  0  0  0  0  0  0  0  0  0  0  0
  152.3342  138.6922  156.6288 H   0  0  0  0  0  0  0  0  0  0  0  0
  152.5561  140.4750  158.3378 H   0  0  0  0  0  0  0  0  0  0  0  0
  151.8106  141.5840  159.8777 H   0  0  0  0  0  0  0  0  0  0  0  0
  153.1414  142.4906  159.1896 H   0  0  0  0  0  0  0  0  0  0  0  0
  150.8628  143.6225  160.9158 H   0  0  0  0  0  0  0  0  0  0  0  0
  152.5379  143.4328  161.3949 H   0  0  0  0  0  0  0  0  0  0  0  0
  150.3140  145.2853  159.2474 H   0  0  0  0  0  0  0  0  0  0  0  0
  151.6078  146.2538  158.5684 H   0  0  0  0  0  0  0  0  0  0  0  0
  152.5449  144.3070  157.3718 H   0  0  0  0  0  0  0  0  0  0  0  0
  150.8393  144.4649  156.9738 H   0  0  0  0  0  0  0  0  0  0  0  0
  149.5884  141.2679  154.5093 H   0  0  0  0  0  0  0  0  0  0  0  0
  147.7317  134.1505  158.6151 H   0  0  0  0  0  0  0  0  0  0  0  0
  149.2860  133.4015  158.2012 H   0  0  0  0  0  0  0  0  0  0  0  0
  147.9993  133.5224  156.9742 H   0  0  0  0  0  0  0  0  0  0  0  0
  1  2  1  0  0  0  0
  1 23  1  0  0  0  0
  1 24  1  0  0  0  0
  1 25  1  0  0  0  0
  2  3  1  0  0  0  0
  2 19  1  0  0  0  0
  2 26  1  0  0  0  0
  3  4  2  0  0  0  0
  3  5  1  0  0  0  0
  5  6  1  0  0  0  0
  5 27  1  0  0  0  0
  6  7  1  0  0  0  0
  6 28  1  0  0  0  0
  6 29  1  0  0  0  0
  7 18  1  0  0  0  0
  7  8  2  0  0  0  0
  8  9  1  0  0  0  0
  8 30  1  0  0  0  0
  9 10  2  0  0  0  0
  9 31  1  0  0  0  0
 10 11  1  0  0  0  0
 10 17  1  0  0  0  0
 11 16  1  0  0  0  0
 11 12  1  0  0  0  0
 12 13  1  0  0  0  0
 12 32  1  0  0  0  0
 12 33  1  0  0  0  0
 13 14  1  0  0  0  0
 13 34  1  0  0  0  0
 13 35  1  0  0  0  0
 14 15  1  0  0  0  0
 15 16  1  0  0  0  0
 15 36  1  0  0  0  0
 15 37  1  0  0  0  0
 16 38  1  0  0  0  0
 16 39  1  0  0  0  0
 17 18  2  0  0  0  0
 18 40  1  0  0  0  0
 19 20  1  0  0  0  0
 19 21  2  0  0  0  0
 19 22  2  0  0  0  0
 20 41  1  0  0  0  0
 20 42  1  0  0  0  0
 20 43  1  0  0  0  0
M  END
> <s_m_source_file>
AV-unprocessed.smi

> <i_m_source_file_index>
1453

> <i_lp_mmshare_version>
43012

> <i_f3d_flags>
0

> <s_epik_input>
W0NIM11TKD1PKSg9TylbQ0BIXShbQ0gzXSlDKD1PKVtOSF1bQ0gyXWMxW2NIXVtjSF1jKG5bY0hdMSlOMltDSDJdW0NIMl1PW0NIMl1bQ0gyXTI=

> <s_epik_cmdline>
J2VwaWtfcHl0aG9uJywgJy1waCcsICc3LjAnLCAnLXRuJywgJzgnLCAnLW1hJywgJzIwMCcsICctbWV0YWxfYmluZGluZycsICctaW1hZScsICc8aW5maWxlLm1hZT4nLCAnLW9tYWUnLCAnPG91dGZpbGUubWFlPic=

> <r_lp_tautomer_probability>
1

> <r_epik_Ionization_Penalty>
0.00349781

> <r_epik_Ionization_Penalty_Charging>
0

> <r_epik_Ionization_Penalty_Neutral>
0.00349781

> <r_epik_State_Penalty>
0.00248024

> <r_epik_Charging_Adjusted_Penalty>
0.00248024

> <i_epik_Tot_Q>
0

> <i_epik_Tot_abs_Q>
0

> <r_epik_Metal_State_Penalty>
-0

> <b_epik_Metal_Only>
0

> <s_lp_Force_Field>
OPLS_2005

> <r_lp_Energy>
14.4852

> <b_lp_Chiralities_Consistent>
1

> <s_lp_Variant>
AV-unprocessed.smi:1453-2

> <Gold.Version>
5.8.1

> <Gold.Id.Protein>
6NUR|6NUR_protein|mol2

> <Gold.PLP.Fitness>
43.5530

> <Gold.PLP.PLP>
-38.2634

> <Gold.PLP.part.hbond>
-1.7755

> <Gold.PLP.part.metal>
0.0000

> <Gold.PLP.part.buried>
-4.7126

> <Gold.PLP.part.nonpolar>
-32.1227

> <Gold.PLP.part.repulsive>
0.3340

> <Gold.PLP.ligand.clash>
0.0000

> <Gold.PLP.ligand.torsion>
0.6065

> <Gold.PLP.Chemscore.Hbond>
2.0000

> <Gold.PLP.Chemscore.CHOScore>
0.0000

> <Gold.PLP.Chemscore.Metal>
0.0000

> <Gold.Chemscore.Hbonds>
donor molecule, donor type, donor heavy atom, donor atom, acceptor molecule, acceptor atom, score
      P1  H  6896  6908       L1    21  0.91
      P1  H 10752 10764       L1     4  1.00

> <Gold.PLP.Chemscore.Internal.Correction>
0.5027

> <Gold.Rescore>
     Score         DG    S(hbond)    S(metal)    S(lipo)     H(rot)  DE(clash)    DE(int)     intcor
     16.50     -17.29       1.93        0.00      91.17       2.08       0.02       0.76       ----

> <Gold.Chemscore.Fitness>
16.5011

> <Gold.Chemscore.DG>
-17.2858

> <Gold.Chemscore.ZeroCoef>
-5.4800

> <Gold.Chemscore.Hbond>
1.9326

> <Gold.Chemscore.Metal>
0.0000

> <Gold.Chemscore.Lipo>
91.1668

> <Gold.Chemscore.Internal_Hbond>
0.0000

> <Gold.Chemscore.DEClash>
0.0246

> <Gold.Chemscore.DEInternal>
0.7600

> <Gold.Chemscore.Rot>
2.0764

> <Gold.Chemscore.Internal.Correction>
   9.000000E+99

> <Gold.Chemscore.Hbonds>
donor molecule, donor type, donor heavy atom, donor atom, acceptor molecule, acceptor atom, score
      P1  H  6896  6908       L1    21  0.79
      P1  H 10752 10764       L1     4  0.74

> <Gold.Chemscore.Hbond.Weighted>
-6.4548

> <Gold.Chemscore.Metal.Weighted>
-0.0000

> <Gold.Chemscore.Lipo.Weighted>
-10.6665

> <Gold.Chemscore.Internal_Hbond.Weighted>
0.0000

> <Gold.Chemscore.DEClash.Weighted>
0.0246

> <Gold.Chemscore.DEInternal.Weighted>
0.7600

> <Gold.Chemscore.Rot.Weighted>
5.3155

> <Gold.Chemscore.Internal.Correction.Weighted>
   9.000000E+99

> <Gold.Protein.RotatedTorsions>
[ 6907 6896 6895 6894 ] final -177.36 input  -60.11 | X-H torsion
[ 7974 7965 7964 7962 ] final  -85.49 input  175.53 | X-H torsion
[ 8008 7997 7996 7995 ] final -131.49 input   59.86 | X-H torsion
[ 10167 10162 10161 10158 ] final -116.44 input  -65.29 | X-H torsion
[ 10718 10713 10712 10709 ] final  -25.05 input   66.30 | X-H torsion
[ 10763 10752 10751 10750 ] final  -50.82 input  -60.55 | X-H torsion
[ 11005 11000 10999 10996 ] final  -87.11 input  -57.11 | X-H torsion

> <Gold.Protein.ActiveResidues>
 VAL166  LYS551  ARG553  GLY616  TRP617  ASP618  TYR619  PRO620  LYS621  CYS622 
 ASP623  PHE694  ASN695  SER759  ASP760  ASP761  ALA762  ILE779  LEU786  VAL792 
 PHE793  MET794  SER795  GLU796  ALA797  LYS798  CYS799  TRP800  GLU811  SER814 

> <Gold.Protein.RotatedAtoms>
  151.6197  133.3340  159.3085 H   0  0  0  0  0  0  0  0  0  0  0  0  # atno 6907 bound_to 6896
  150.8112  134.7272  159.6701 H   0  0  0  0  0  0  0  0  0  0  0  0  # atno 6908 bound_to 6896
  152.4209  134.5962  160.0039 H   0  0  0  0  0  0  0  0  0  0  0  0  # atno 6909 bound_to 6896
  145.4926  140.9552  143.1804 H   0  0  0  0  0  0  0  0  0  0  0  0  # atno 7974 bound_to 7965
  155.3133  140.0458  157.3036 H   0  0  0  0  0  0  0  0  0  0  0  0  # atno 8008 bound_to 7997
  154.5421  140.2291  155.8591 H   0  0  0  0  0  0  0  0  0  0  0  0  # atno 8009 bound_to 7997
  156.1890  140.3055  155.9301 H   0  0  0  0  0  0  0  0  0  0  0  0  # atno 8010 bound_to 7997
  140.0792  143.4803  152.1935 H   0  0  0  0  0  0  0  0  0  0  0  0  # atno 10167 bound_to 10162
  156.4695  130.4521  149.6878 H   0  0  0  0  0  0  0  0  0  0  0  0  # atno 10718 bound_to 10713
  154.1166  135.6541  153.4895 H   0  0  0  0  0  0  0  0  0  0  0  0  # atno 10763 bound_to 10752
  153.0239  135.5260  154.7139 H   0  0  0  0  0  0  0  0  0  0  0  0  # atno 10764 bound_to 10752
  154.6334  135.2979  155.0159 H   0  0  0  0  0  0  0  0  0  0  0  0  # atno 10765 bound_to 10752
  141.1621  133.7492  156.9259 H   0  0  0  0  0  0  0  0  0  0  0  0  # atno 11005 bound_to 11000
  144.7825  139.6495  143.7148 LP  0  0  0  0  0  0  0  0  0  0  0  0  # atno 17320 bound_to 7965
  146.2275  139.5750  142.9577 LP  0  0  0  0  0  0  0  0  0  0  0  0  # atno 17321 bound_to 7965
  139.5789  144.7501  151.3691 LP  0  0  0  0  0  0  0  0  0  0  0  0  # atno 17342 bound_to 10162
  140.7086  143.7449  150.7526 LP  0  0  0  0  0  0  0  0  0  0  0  0  # atno 17343 bound_to 10162
  156.3633  130.7492  151.2467 LP  0  0  0  0  0  0  0  0  0  0  0  0  # atno 17370 bound_to 10713
  157.7492  131.0344  150.4316 LP  0  0  0  0  0  0  0  0  0  0  0  0  # atno 17371 bound_to 10713
  140.1420  134.9287  157.2479 LP  0  0  0  0  0  0  0  0  0  0  0  0  # atno 17394 bound_to 11000
  140.2826  134.3333  155.7338 LP  0  0  0  0  0  0  0  0  0  0  0  0  # atno 17395 bound_to 11000

$$$$
