AV-unprocessed.smi:1180|AV-procd|sdf|4965|dock3
  -GOLD-   22720 3553D 1   1.00000     0.00000
 Structure written by MMmdl.
 37 38  0  0  0  0  0  0  0  0  2 V2000
  150.9597  142.8760  157.3153 C   0  0  0  0  0  0  0  0  0  0  0  0
  150.9195  141.5815  156.5314 C   0  0  0  0  0  0  0  0  0  0  0  0
  150.0340  141.4281  155.6220 N   0  0  0  0  0  0  0  0  0  0  0  0
  149.9926  140.2282  154.8916 C   0  0  0  0  0  0  0  0  0  0  0  0
  148.9103  140.1349  153.8303 C   0  0  0  0  0  0  0  0  0  0  0  0
  150.8803  139.2222  155.1365 C   0  0  0  0  0  0  0  0  0  0  0  0
  150.8788  137.8990  154.3711 C   0  0  0  0  0  0  0  0  0  0  0  0
  150.5335  136.6593  155.1972 C   0  0  0  0  0  0  0  0  0  0  0  0
  151.1631  136.4086  156.2246 O   0  0  0  0  0  0  0  0  0  0  0  0
  149.5244  135.9002  154.7424 N   0  0  0  0  0  0  0  0  0  0  0  0
  149.0358  134.6737  155.3631 C   0  0  0  0  0  0  0  0  0  0  0  0
  148.8617  133.5390  154.3362 C   0  0  1  0  0  0  0  0  0  0  0  0
  148.6116  132.1823  154.9621 C   0  0  0  0  0  0  0  0  0  0  0  0
  148.0365  131.3933  153.7893 C   0  0  0  0  0  0  0  0  0  0  0  0
  147.3476  132.3429  152.9808 O   0  0  0  0  0  0  0  0  0  0  0  0
  147.6391  133.6648  153.4246 C   0  0  0  0  0  0  0  0  0  0  0  0
  151.8794  139.4355  156.1993 C   0  0  0  0  0  0  0  0  0  0  0  0
  152.6890  138.5509  156.4759 O   0  0  0  0  0  0  0  0  0  0  0  0
  151.8588  140.6293  156.8575 N   0  5  0  0  0  0  0  0  0  0  0  0
  150.2532  143.6029  156.9118 H   0  0  0  0  0  0  0  0  0  0  0  0
  151.9579  143.3132  157.2755 H   0  0  0  0  0  0  0  0  0  0  0  0
  150.7033  142.6921  158.3590 H   0  0  0  0  0  0  0  0  0  0  0  0
  148.2740  139.2674  154.0051 H   0  0  0  0  0  0  0  0  0  0  0  0
  149.3541  140.0476  152.8387 H   0  0  0  0  0  0  0  0  0  0  0  0
  148.2746  141.0209  153.8357 H   0  0  0  0  0  0  0  0  0  0  0  0
  150.1663  137.9730  153.5493 H   0  0  0  0  0  0  0  0  0  0  0  0
  151.8398  137.7334  153.8833 H   0  0  0  0  0  0  0  0  0  0  0  0
  149.0692  136.1904  153.8880 H   0  0  0  0  0  0  0  0  0  0  0  0
  149.7661  134.3740  156.1149 H   0  0  0  0  0  0  0  0  0  0  0  0
  148.1037  134.8553  155.9010 H   0  0  0  0  0  0  0  0  0  0  0  0
  149.7569  133.4713  153.7155 H   0  0  0  0  0  0  0  0  0  0  0  0
  149.5119  131.7284  155.3777 H   0  0  0  0  0  0  0  0  0  0  0  0
  147.8698  132.2613  155.7585 H   0  0  0  0  0  0  0  0  0  0  0  0
  148.8391  130.9527  153.1967 H   0  0  0  0  0  0  0  0  0  0  0  0
  147.3750  130.5896  154.1138 H   0  0  0  0  0  0  0  0  0  0  0  0
  146.7775  134.0349  153.9821 H   0  0  0  0  0  0  0  0  0  0  0  0
  147.8113  134.3372  152.5839 H   0  0  0  0  0  0  0  0  0  0  0  0
  1  2  1  0  0  0  0
  1 20  1  0  0  0  0
  1 21  1  0  0  0  0
  1 22  1  0  0  0  0
  2 19  1  0  0  0  0
  2  3  2  0  0  0  0
  3  4  1  0  0  0  0
  4  5  1  0  0  0  0
  4  6  2  0  0  0  0
  5 23  1  0  0  0  0
  5 24  1  0  0  0  0
  5 25  1  0  0  0  0
  6  7  1  0  0  0  0
  6 17  1  0  0  0  0
  7  8  1  0  0  0  0
  7 26  1  0  0  0  0
  7 27  1  0  0  0  0
  8  9  2  0  0  0  0
  8 10  1  0  0  0  0
 10 11  1  0  0  0  0
 10 28  1  0  0  0  0
 11 12  1  0  0  0  0
 11 29  1  0  0  0  0
 11 30  1  0  0  0  0
 12 16  1  0  0  0  0
 12 13  1  0  0  0  0
 12 31  1  0  0  0  0
 13 14  1  0  0  0  0
 13 32  1  0  0  0  0
 13 33  1  0  0  0  0
 14 15  1  0  0  0  0
 14 34  1  0  0  0  0
 14 35  1  0  0  0  0
 15 16  1  0  0  0  0
 16 36  1  0  0  0  0
 16 37  1  0  0  0  0
 17 18  2  0  0  0  0
 17 19  1  0  0  0  0
M  CHG  1  19  -1
M  END
> <s_m_source_file>
AV-unprocessed.smi

> <i_m_source_file_index>
1180

> <i_lp_mmshare_version>
43012

> <i_f3d_flags>
0

> <s_epik_input>
W0NIM11jMW5jKFtDSDNdKWMoYyg9TylbbkhdMSlbQ0gyXUMoPU8pW05IXVtDSDJdW0NAQEhdMltDSDJdW0NIMl1PW0NIMl0y

> <s_epik_cmdline>
J2VwaWtfcHl0aG9uJywgJy1waCcsICc3LjAnLCAnLXRuJywgJzgnLCAnLW1hJywgJzIwMCcsICctbWV0YWxfYmluZGluZycsICctaW1hZScsICc8aW5maWxlLm1hZT4nLCAnLW9tYWUnLCAnPG91dGZpbGUubWFlPic=

> <r_lp_tautomer_probability>
0.839158

> <r_epik_Ionization_Penalty>
6.60319

> <r_epik_Ionization_Penalty_Charging>
6.85407e-08

> <r_epik_Ionization_Penalty_Neutral>
6.60319

> <r_epik_State_Penalty>
4.42883

> <r_epik_Charging_Adjusted_Penalty>
4.42883

> <i_epik_Tot_Q>
-1

> <i_epik_Tot_abs_Q>
1

> <r_epik_Metal_State_Penalty>
0.797578

> <b_epik_Metal_Only>
1

> <s_lp_Force_Field>
OPLS_2005

> <r_lp_Energy>
23.195

> <b_lp_Chiralities_Consistent>
1

> <s_lp_Variant>
AV-unprocessed.smi:1180-6

> <Gold.Version>
5.8.1

> <Gold.Id.Protein>
6NUR|6NUR_protein|mol2

> <Gold.PLP.Fitness>
43.8283

> <Gold.PLP.PLP>
-35.8254

> <Gold.PLP.part.hbond>
-3.4418

> <Gold.PLP.part.metal>
0.0000

> <Gold.PLP.part.buried>
-0.7777

> <Gold.PLP.part.nonpolar>
-31.5214

> <Gold.PLP.part.repulsive>
0.3114

> <Gold.PLP.ligand.clash>
0.0000

> <Gold.PLP.ligand.torsion>
0.2198

> <Gold.PLP.Chemscore.Hbond>
2.8096

> <Gold.PLP.Chemscore.CHOScore>
0.0000

> <Gold.PLP.Chemscore.Metal>
0.0000

> <Gold.Chemscore.Hbonds>
donor molecule, donor type, donor heavy atom, donor atom, acceptor molecule, acceptor atom, score
      L1  H    10    28       P1  7948  0.99
      P1  H  7997  8009       L1    18  0.22

> <Gold.PLP.Chemscore.Internal.Correction>
0.0137

> <Gold.Rescore>
     Score         DG    S(hbond)    S(metal)    S(lipo)     H(rot)  DE(clash)    DE(int)     intcor
     14.68     -16.41       2.46        0.00      61.60       1.76       0.11       1.62       ----

> <Gold.Chemscore.Fitness>
14.6792

> <Gold.Chemscore.DG>
-16.4116

> <Gold.Chemscore.ZeroCoef>
-5.4800

> <Gold.Chemscore.Hbond>
2.4623

> <Gold.Chemscore.Metal>
0.0000

> <Gold.Chemscore.Lipo>
61.6014

> <Gold.Chemscore.Internal_Hbond>
0.0000

> <Gold.Chemscore.DEClash>
0.1133

> <Gold.Chemscore.DEInternal>
1.6191

> <Gold.Chemscore.Rot>
1.7577

> <Gold.Chemscore.Internal.Correction>
   9.000000E+99

> <Gold.Chemscore.Hbonds>
donor molecule, donor type, donor heavy atom, donor atom, acceptor molecule, acceptor atom, score
      L1  H    10    28       P1  7948  0.87
      P1  H  7997  8009       L1    18  0.01

> <Gold.Chemscore.Hbond.Weighted>
-8.2240

> <Gold.Chemscore.Metal.Weighted>
-0.0000

> <Gold.Chemscore.Lipo.Weighted>
-7.2074

> <Gold.Chemscore.Internal_Hbond.Weighted>
0.0000

> <Gold.Chemscore.DEClash.Weighted>
0.1133

> <Gold.Chemscore.DEInternal.Weighted>
1.6191

> <Gold.Chemscore.Rot.Weighted>
4.4998

> <Gold.Chemscore.Internal.Correction.Weighted>
   9.000000E+99

> <Gold.Protein.RotatedTorsions>
[ 6907 6896 6895 6894 ] final   75.35 input  -60.11 | X-H torsion
[ 7974 7965 7964 7962 ] final -114.40 input  175.53 | X-H torsion
[ 8008 7997 7996 7995 ] final -177.26 input   59.86 | X-H torsion
[ 10167 10162 10161 10158 ] final  148.93 input  -65.29 | X-H torsion
[ 10718 10713 10712 10709 ] final   -3.86 input   66.30 | X-H torsion
[ 10763 10752 10751 10750 ] final  -33.16 input  -60.55 | X-H torsion
[ 11005 11000 10999 10996 ] final   95.67 input  -57.11 | X-H torsion

> <Gold.Protein.ActiveResidues>
 VAL166  LYS551  ARG553  GLY616  TRP617  ASP618  TYR619  PRO620  LYS621  CYS622 
 ASP623  PHE694  ASN695  SER759  ASP760  ASP761  ALA762  ILE779  LEU786  VAL792 
 PHE793  MET794  SER795  GLU796  ALA797  LYS798  CYS799  TRP800  GLU811  SER814 

> <Gold.Protein.RotatedAtoms>
  152.5021  134.4133  159.9455 H   0  0  0  0  0  0  0  0  0  0  0  0  # atno 6907 bound_to 6896
  151.4103  133.3723  159.2751 H   0  0  0  0  0  0  0  0  0  0  0  0  # atno 6908 bound_to 6896
  150.9297  134.8734  159.7602 H   0  0  0  0  0  0  0  0  0  0  0  0  # atno 6909 bound_to 6896
  145.1206  140.8667  143.3816 H   0  0  0  0  0  0  0  0  0  0  0  0  # atno 7974 bound_to 7965
  156.0048  140.1228  157.0512 H   0  0  0  0  0  0  0  0  0  0  0  0  # atno 8008 bound_to 7997
  154.4255  140.1099  156.5816 H   0  0  0  0  0  0  0  0  0  0  0  0  # atno 8009 bound_to 7997
  155.6162  140.3472  155.4640 H   0  0  0  0  0  0  0  0  0  0  0  0  # atno 8010 bound_to 7997
  139.4868  144.5641  151.7176 H   0  0  0  0  0  0  0  0  0  0  0  0  # atno 10167 bound_to 10162
  156.7698  130.5296  149.5769 H   0  0  0  0  0  0  0  0  0  0  0  0  # atno 10718 bound_to 10713
  153.8256  135.6870  153.4821 H   0  0  0  0  0  0  0  0  0  0  0  0  # atno 10763 bound_to 10752
  153.1542  135.4606  154.9678 H   0  0  0  0  0  0  0  0  0  0  0  0  # atno 10764 bound_to 10752
  154.7909  135.3301  154.7724 H   0  0  0  0  0  0  0  0  0  0  0  0  # atno 10765 bound_to 10752
  139.8787  134.8911  156.4045 H   0  0  0  0  0  0  0  0  0  0  0  0  # atno 11005 bound_to 11000
  145.0744  139.3007  143.5815 LP  0  0  0  0  0  0  0  0  0  0  0  0  # atno 17320 bound_to 7965
  146.3521  140.0229  142.8657 LP  0  0  0  0  0  0  0  0  0  0  0  0  # atno 17321 bound_to 7965
  140.5217  144.0869  150.6024 LP  0  0  0  0  0  0  0  0  0  0  0  0  # atno 17342 bound_to 10162
  140.3829  143.2793  152.0149 LP  0  0  0  0  0  0  0  0  0  0  0  0  # atno 17343 bound_to 10162
  156.1285  130.6161  151.0299 LP  0  0  0  0  0  0  0  0  0  0  0  0  # atno 17370 bound_to 10713
  157.6696  131.0864  150.7644 LP  0  0  0  0  0  0  0  0  0  0  0  0  # atno 17371 bound_to 10713
  140.9244  133.7623  155.9946 LP  0  0  0  0  0  0  0  0  0  0  0  0  # atno 17394 bound_to 11000
  140.8403  134.3074  157.5316 LP  0  0  0  0  0  0  0  0  0  0  0  0  # atno 17395 bound_to 11000

$$$$
