AV-unprocessed.smi:3311|AV-procd|sdf|12720|dock9
  -GOLD-   2272019 63D 1   1.00000     0.00000
 Structure written by MMmdl.
 44 45  0  0  0  0  0  0  0  0  2 V2000
  146.6420  138.9276  151.4389 C   0  0  0  0  0  0  0  0  0  0  0  0
  146.4048  138.1194  152.7275 C   0  0  1  0  0  0  0  0  0  0  0  0
  146.4615  136.6769  152.4033 N   0  3  0  0  0  0  0  0  0  0  0  0
  145.5991  136.2556  151.2779 C   0  0  0  0  0  0  0  0  0  0  0  0
  145.2424  134.7543  151.3418 C   0  0  0  0  0  0  0  0  0  0  0  0
  144.4839  134.5553  152.5221 O   0  0  0  0  0  0  0  0  0  0  0  0
  144.3532  134.3748  150.1340 C   0  0  0  0  0  0  0  0  0  0  0  0
  144.0333  132.8703  150.0708 C   0  0  0  0  0  0  0  0  0  0  0  0
  145.3154  132.0267  150.0832 C   0  0  0  0  0  0  0  0  0  0  0  0
  146.1784  132.3562  151.3092 C   0  0  0  0  0  0  0  0  0  0  0  0
  146.5058  133.8588  151.3813 C   0  0  0  0  0  0  0  0  0  0  0  0
  147.4132  138.4534  153.8577 C   0  0  2  0  0  0  0  0  0  0  0  0
  147.1241  137.6868  155.1618 C   0  0  0  0  0  0  0  0  0  0  0  0
  147.4715  139.8848  154.1266 N   0  0  0  0  0  0  0  0  0  0  0  0
  146.4323  140.7660  154.3526 C   0  0  0  0  0  0  0  0  0  0  0  0
  146.9791  142.0025  154.5424 C   0  0  0  0  0  0  0  0  0  0  0  0
  148.3773  141.7777  154.4091 C   0  0  0  0  0  0  0  0  0  0  0  0
  148.6681  140.5114  154.1578 N   0  0  0  0  0  0  0  0  0  0  0  0
  146.5050  139.9973  151.5986 H   0  0  0  0  0  0  0  0  0  0  0  0
  145.9427  138.6304  150.6568 H   0  0  0  0  0  0  0  0  0  0  0  0
  147.6519  138.7752  151.0568 H   0  0  0  0  0  0  0  0  0  0  0  0
  145.4019  138.3689  153.0792 H   0  0  0  0  0  0  0  0  0  0  0  0
  147.4158  136.4351  152.1791 H   0  0  0  0  0  0  0  0  0  0  0  0
  144.6870  136.8547  151.2871 H   0  0  0  0  0  0  0  0  0  0  0  0
  146.1132  136.4787  150.3418 H   0  0  0  0  0  0  0  0  0  0  0  0
  144.5032  133.6350  152.7387 H   0  0  0  0  0  0  0  0  0  0  0  0
  143.4237  134.9458  150.1530 H   0  0  0  0  0  0  0  0  0  0  0  0
  144.8607  134.6592  149.2111 H   0  0  0  0  0  0  0  0  0  0  0  0
  143.4004  132.5887  150.9132 H   0  0  0  0  0  0  0  0  0  0  0  0
  143.4571  132.6527  149.1710 H   0  0  0  0  0  0  0  0  0  0  0  0
  145.0627  130.9657  150.0805 H   0  0  0  0  0  0  0  0  0  0  0  0
  145.8856  132.2116  149.1719 H   0  0  0  0  0  0  0  0  0  0  0  0
  145.6584  132.0471  152.2166 H   0  0  0  0  0  0  0  0  0  0  0  0
  147.1026  131.7784  151.2752 H   0  0  0  0  0  0  0  0  0  0  0  0
  147.1524  134.1145  150.5407 H   0  0  0  0  0  0  0  0  0  0  0  0
  147.0890  134.0549  152.2818 H   0  0  0  0  0  0  0  0  0  0  0  0
  148.4052  138.1485  153.5181 H   0  0  0  0  0  0  0  0  0  0  0  0
  147.2025  136.6090  155.0181 H   0  0  0  0  0  0  0  0  0  0  0  0
  146.1228  137.8982  155.5387 H   0  0  0  0  0  0  0  0  0  0  0  0
  147.8368  137.9594  155.9412 H   0  0  0  0  0  0  0  0  0  0  0  0
  145.4011  140.4445  154.3593 H   0  0  0  0  0  0  0  0  0  0  0  0
  146.4595  142.9274  154.7450 H   0  0  0  0  0  0  0  0  0  0  0  0
  149.1842  142.4916  154.4856 H   0  0  0  0  0  0  0  0  0  0  0  0
  146.1858  136.1550  153.2234 H   0  0  0  0  0  0  0  0  0  0  0  0
  1  2  1  0  0  0  0
  1 19  1  0  0  0  0
  1 20  1  0  0  0  0
  1 21  1  0  0  0  0
  2  3  1  0  0  0  0
  2 12  1  0  0  0  0
  2 22  1  0  0  0  0
  3  4  1  0  0  0  0
  3 23  1  0  0  0  0
  3 44  1  0  0  0  0
  4  5  1  0  0  0  0
  4 24  1  0  0  0  0
  4 25  1  0  0  0  0
  5 11  1  0  0  0  0
  5  6  1  0  0  0  0
  5  7  1  0  0  0  0
  6 26  1  0  0  0  0
  7  8  1  0  0  0  0
  7 27  1  0  0  0  0
  7 28  1  0  0  0  0
  8  9  1  0  0  0  0
  8 29  1  0  0  0  0
  8 30  1  0  0  0  0
  9 10  1  0  0  0  0
  9 31  1  0  0  0  0
  9 32  1  0  0  0  0
 10 11  1  0  0  0  0
 10 33  1  0  0  0  0
 10 34  1  0  0  0  0
 11 35  1  0  0  0  0
 11 36  1  0  0  0  0
 12 13  1  0  0  0  0
 12 14  1  0  0  0  0
 12 37  1  0  0  0  0
 13 38  1  0  0  0  0
 13 39  1  0  0  0  0
 13 40  1  0  0  0  0
 14 18  1  0  0  0  0
 14 15  1  0  0  0  0
 15 16  2  0  0  0  0
 15 41  1  0  0  0  0
 16 17  1  0  0  0  0
 16 42  1  0  0  0  0
 17 18  2  0  0  0  0
 17 43  1  0  0  0  0
M  CHG  1   3   1
M  END
> <s_m_source_file>
AV-unprocessed.smi

> <i_m_source_file_index>
3311

> <i_lp_mmshare_version>
43012

> <i_f3d_flags>
0

> <s_epik_input>
bjFbY0hdW2NIXVtjSF1uMVtDQEBIXShbQ0gzXSlbQ0BIXShbQ0gzXSlbTkhdW0NIMl1DMihbT0hdKVtDSDJdW0NIMl1bQ0gyXVtDSDJdW0NIMl0y

> <s_epik_cmdline>
J2VwaWtfcHl0aG9uJywgJy1waCcsICc3LjAnLCAnLXRuJywgJzgnLCAnLW1hJywgJzIwMCcsICctbWV0YWxfYmluZGluZycsICctaW1hZScsICc8aW5maWxlLm1hZT4nLCAnLW9tYWUnLCAnPG91dGZpbGUubWFlPic=

> <r_lp_tautomer_probability>
1

> <r_epik_Ionization_Penalty>
0.0141403

> <r_epik_Ionization_Penalty_Charging>
0.0141276

> <r_epik_Ionization_Penalty_Neutral>
1.27139e-05

> <r_epik_State_Penalty>
0.0110334

> <r_epik_Charging_Adjusted_Penalty>
0.025161

> <i_epik_Tot_Q>
1

> <i_epik_Tot_abs_Q>
1

> <r_epik_Metal_State_Penalty>
0.0110573

> <b_epik_Metal_Only>
0

> <s_lp_Force_Field>
OPLS_2005

> <r_lp_Energy>
23.6471

> <b_lp_Chiralities_Consistent>
1

> <s_lp_Variant>
AV-unprocessed.smi:3311-2

> <Gold.Version>
5.8.1

> <Gold.Id.Protein>
6NUR|6NUR_protein|mol2

> <Gold.PLP.Fitness>
45.1746

> <Gold.PLP.PLP>
-34.5498

> <Gold.PLP.part.hbond>
-1.0000

> <Gold.PLP.part.metal>
0.0000

> <Gold.PLP.part.buried>
-1.0574

> <Gold.PLP.part.nonpolar>
-33.3328

> <Gold.PLP.part.repulsive>
0.1706

> <Gold.PLP.ligand.clash>
0.0000

> <Gold.PLP.ligand.torsion>
0.4605

> <Gold.PLP.Chemscore.Hbond>
2.0000

> <Gold.PLP.Chemscore.CHOScore>
1.8263

> <Gold.PLP.Chemscore.Metal>
0.0000

> <Gold.Chemscore.Hbonds>
donor molecule, donor type, donor heavy atom, donor atom, acceptor molecule, acceptor atom, score
      L1  H     3    23       P1  7948  2.00
      L1  C    15    41       P1 10175  0.96
      L1  C    17    43       P1  8028  0.83

> <Gold.PLP.Chemscore.Internal.Correction>
0.0667

> <Gold.Rescore>
     Score         DG    S(hbond)    S(metal)    S(lipo)     H(rot)  DE(clash)    DE(int)     intcor
     14.11     -14.45       0.99        0.00      95.14       2.14       0.08       0.26       ----

> <Gold.Chemscore.Fitness>
14.1100

> <Gold.Chemscore.DG>
-14.4456

> <Gold.Chemscore.ZeroCoef>
-5.4800

> <Gold.Chemscore.Hbond>
0.9937

> <Gold.Chemscore.Metal>
0.0000

> <Gold.Chemscore.Lipo>
95.1375

> <Gold.Chemscore.Internal_Hbond>
0.0000

> <Gold.Chemscore.DEClash>
0.0785

> <Gold.Chemscore.DEInternal>
0.2570

> <Gold.Chemscore.Rot>
2.1424

> <Gold.Chemscore.Internal.Correction>
   9.000000E+99

> <Gold.Chemscore.Hbonds>
donor molecule, donor type, donor heavy atom, donor atom, acceptor molecule, acceptor atom, score
      L1  H     3    23       P1  7948  0.97

> <Gold.Chemscore.Hbond.Weighted>
-3.3191

> <Gold.Chemscore.Metal.Weighted>
-0.0000

> <Gold.Chemscore.Lipo.Weighted>
-11.1311

> <Gold.Chemscore.Internal_Hbond.Weighted>
0.0000

> <Gold.Chemscore.DEClash.Weighted>
0.0785

> <Gold.Chemscore.DEInternal.Weighted>
0.2570

> <Gold.Chemscore.Rot.Weighted>
5.4846

> <Gold.Chemscore.Internal.Correction.Weighted>
   9.000000E+99

> <Gold.Protein.RotatedTorsions>
[ 6907 6896 6895 6894 ] final -113.90 input  -60.11 | X-H torsion
[ 7974 7965 7964 7962 ] final  -58.75 input  175.53 | X-H torsion
[ 8008 7997 7996 7995 ] final  -50.27 input   59.86 | X-H torsion
[ 10167 10162 10161 10158 ] final   -0.26 input  -65.29 | X-H torsion
[ 10718 10713 10712 10709 ] final  162.12 input   66.30 | X-H torsion
[ 10763 10752 10751 10750 ] final   97.63 input  -60.55 | X-H torsion
[ 11005 11000 10999 10996 ] final   55.39 input  -57.11 | X-H torsion

> <Gold.Protein.ActiveResidues>
 VAL166  LYS551  ARG553  GLY616  TRP617  ASP618  TYR619  PRO620  LYS621  CYS622 
 ASP623  PHE694  ASN695  SER759  ASP760  ASP761  ALA762  ILE779  LEU786  VAL792 
 PHE793  MET794  SER795  GLU796  ALA797  LYS798  CYS799  TRP800  GLU811  SER814 

> <Gold.Protein.RotatedAtoms>
  150.7862  133.8879  159.3304 H   0  0  0  0  0  0  0  0  0  0  0  0  # atno 6907 bound_to 6896
  151.6729  135.0971  160.0211 H   0  0  0  0  0  0  0  0  0  0  0  0  # atno 6908 bound_to 6896
  152.3927  133.6663  159.6286 H   0  0  0  0  0  0  0  0  0  0  0  0  # atno 6909 bound_to 6896
  145.8356  140.8451  143.0061 H   0  0  0  0  0  0  0  0  0  0  0  0  # atno 7974 bound_to 7965
  154.4059  140.1276  156.4638 H   0  0  0  0  0  0  0  0  0  0  0  0  # atno 8008 bound_to 7997
  155.7247  140.3492  155.5012 H   0  0  0  0  0  0  0  0  0  0  0  0  # atno 8009 bound_to 7997
  155.9182  140.1048  157.1217 H   0  0  0  0  0  0  0  0  0  0  0  0  # atno 8010 bound_to 7997
  140.6759  143.6916  150.8023 H   0  0  0  0  0  0  0  0  0  0  0  0  # atno 10167 bound_to 10162
  157.1270  131.0507  151.2389 H   0  0  0  0  0  0  0  0  0  0  0  0  # atno 10718 bound_to 10713
  153.2792  135.4176  155.1062 H   0  0  0  0  0  0  0  0  0  0  0  0  # atno 10763 bound_to 10752
  154.8483  135.3491  154.6136 H   0  0  0  0  0  0  0  0  0  0  0  0  # atno 10764 bound_to 10752
  153.6556  135.7050  153.5252 H   0  0  0  0  0  0  0  0  0  0  0  0  # atno 10765 bound_to 10752
  140.0611  134.5601  155.9151 H   0  0  0  0  0  0  0  0  0  0  0  0  # atno 11005 bound_to 11000
  144.6737  140.0736  143.7472 LP  0  0  0  0  0  0  0  0  0  0  0  0  # atno 17320 bound_to 7965
  145.9522  139.2742  143.1205 LP  0  0  0  0  0  0  0  0  0  0  0  0  # atno 17321 bound_to 7965
  140.0609  143.5156  152.2628 LP  0  0  0  0  0  0  0  0  0  0  0  0  # atno 17342 bound_to 10162
  139.6052  144.7594  151.3079 LP  0  0  0  0  0  0  0  0  0  0  0  0  # atno 17343 bound_to 10162
  157.4426  130.7553  149.7082 LP  0  0  0  0  0  0  0  0  0  0  0  0  # atno 17370 bound_to 10713
  155.9816  130.4018  150.3462 LP  0  0  0  0  0  0  0  0  0  0  0  0  # atno 17371 bound_to 10713
  141.1973  133.6596  156.5736 LP  0  0  0  0  0  0  0  0  0  0  0  0  # atno 17394 bound_to 11000
  140.3769  134.7557  157.4635 LP  0  0  0  0  0  0  0  0  0  0  0  0  # atno 17395 bound_to 11000

$$$$
