AV-unprocessed.smi:3052|AV-procd|sdf|11636|dock8
  -GOLD-   2272017 33D 1   1.00000     0.00000
 Structure written by MMmdl.
 41 43  0  0  0  0  0  0  0  0  1 V2000
  150.0795  133.8809  155.7713 C   0  0  0  0  0  0  0  0  0  0  0  0
  150.9056  135.1245  155.9480 C   0  0  0  0  0  0  0  0  0  0  0  0
  151.9747  135.0825  156.7294 N   0  0  0  0  0  0  0  0  0  0  0  0
  152.5796  136.3464  156.6527 O   0  0  0  0  0  0  0  0  0  0  0  0
  151.8492  137.1363  155.8229 C   0  0  0  0  0  0  0  0  0  0  0  0
  152.3542  138.5246  155.6011 C   0  0  0  0  0  0  0  0  0  0  0  0
  151.5617  139.5173  154.7882 C   0  0  0  0  0  0  0  0  0  0  0  0
  152.8743  138.9821  154.2590 C   0  0  0  0  0  0  0  0  0  0  0  0
  150.7785  136.4217  155.3705 C   0  0  0  0  0  0  0  0  0  0  0  0
  149.8153  136.9035  154.4499 N   0  0  0  0  0  0  0  0  0  0  0  0
  148.8429  137.7930  154.6986 C   0  0  0  0  0  0  0  0  0  0  0  0
  148.6297  138.3067  155.7960 O   0  0  0  0  0  0  0  0  0  0  0  0
  148.1459  138.0678  153.5838 N   0  0  0  0  0  0  0  0  0  0  0  0
  147.0111  138.9842  153.4163 C   0  0  2  0  0  0  0  0  0  0  0  0
  145.8022  138.2151  154.0036 C   0  0  0  0  0  0  0  0  0  0  0  0
  146.7755  139.2099  151.8980 C   0  0  0  0  0  0  0  0  0  0  0  0
  146.6385  137.9930  151.1911 O   0  0  0  0  0  0  0  0  0  0  0  0
  147.2516  140.3365  154.1104 C   0  0  0  0  0  0  0  0  0  0  0  0
  146.7402  141.6548  153.5784 C   0  0  0  0  0  0  0  0  0  0  0  0
  148.2311  141.3805  153.6234 C   0  0  0  0  0  0  0  0  0  0  0  0
  149.6464  133.8325  154.7723 H   0  0  0  0  0  0  0  0  0  0  0  0
  149.2638  133.8477  156.4935 H   0  0  0  0  0  0  0  0  0  0  0  0
  150.6788  132.9803  155.9083 H   0  0  0  0  0  0  0  0  0  0  0  0
  152.8642  138.8994  156.4862 H   0  0  0  0  0  0  0  0  0  0  0  0
  150.6490  139.1663  154.3106 H   0  0  0  0  0  0  0  0  0  0  0  0
  151.5404  140.5481  155.1357 H   0  0  0  0  0  0  0  0  0  0  0  0
  153.7273  139.6573  154.2551 H   0  0  0  0  0  0  0  0  0  0  0  0
  152.8228  138.2915  153.4198 H   0  0  0  0  0  0  0  0  0  0  0  0
  149.9576  136.6459  153.4844 H   0  0  0  0  0  0  0  0  0  0  0  0
  148.4300  137.5819  152.7459 H   0  0  0  0  0  0  0  0  0  0  0  0
  144.8695  138.7725  153.9253 H   0  0  0  0  0  0  0  0  0  0  0  0
  145.9482  137.9627  155.0538 H   0  0  0  0  0  0  0  0  0  0  0  0
  145.6457  137.2742  153.4741 H   0  0  0  0  0  0  0  0  0  0  0  0
  145.8762  139.8002  151.7205 H   0  0  0  0  0  0  0  0  0  0  0  0
  147.6063  139.7637  151.4586 H   0  0  0  0  0  0  0  0  0  0  0  0
  145.7624  137.9460  150.8405 H   0  0  0  0  0  0  0  0  0  0  0  0
  147.2219  140.2506  155.1947 H   0  0  0  0  0  0  0  0  0  0  0  0
  146.2653  141.6791  152.6008 H   0  0  0  0  0  0  0  0  0  0  0  0
  146.3378  142.3596  154.3031 H   0  0  0  0  0  0  0  0  0  0  0  0
  148.8134  141.9056  154.3778 H   0  0  0  0  0  0  0  0  0  0  0  0
  148.7393  141.2320  152.6742 H   0  0  0  0  0  0  0  0  0  0  0  0
  1  2  1  0  0  0  0
  1 21  1  0  0  0  0
  1 22  1  0  0  0  0
  1 23  1  0  0  0  0
  2  9  1  0  0  0  0
  2  3  2  0  0  0  0
  3  4  1  0  0  0  0
  4  5  1  0  0  0  0
  5  6  1  0  0  0  0
  5  9  2  0  0  0  0
  6  8  1  0  0  0  0
  6  7  1  0  0  0  0
  6 24  1  0  0  0  0
  7  8  1  0  0  0  0
  7 25  1  0  0  0  0
  7 26  1  0  0  0  0
  8 27  1  0  0  0  0
  8 28  1  0  0  0  0
  9 10  1  0  0  0  0
 10 11  1  0  0  0  0
 10 29  1  0  0  0  0
 11 12  2  0  0  0  0
 11 13  1  0  0  0  0
 13 14  1  0  0  0  0
 13 30  1  0  0  0  0
 14 15  1  0  0  0  0
 14 16  1  0  0  0  0
 14 18  1  0  0  0  0
 15 31  1  0  0  0  0
 15 32  1  0  0  0  0
 15 33  1  0  0  0  0
 16 17  1  0  0  0  0
 16 34  1  0  0  0  0
 16 35  1  0  0  0  0
 17 36  1  0  0  0  0
 18 20  1  0  0  0  0
 18 19  1  0  0  0  0
 18 37  1  0  0  0  0
 19 20  1  0  0  0  0
 19 38  1  0  0  0  0
 19 39  1  0  0  0  0
 20 40  1  0  0  0  0
 20 41  1  0  0  0  0
M  END
> <s_m_source_file>
AV-unprocessed.smi

> <i_m_source_file_index>
3052

> <i_lp_mmshare_version>
43012

> <i_f3d_flags>
0

> <s_epik_input>
W0NIM11jMW5vYyhbQ0hdMltDSDJdW0NIMl0yKWMxW05IXUMoPU8pW05IXVtDQEBdKFtDSDNdKShbQ0gyXVtPSF0pW0NIXTNbQ0gyXVtDSDJdMw==

> <s_epik_cmdline>
J2VwaWtfcHl0aG9uJywgJy1waCcsICc3LjAnLCAnLXRuJywgJzgnLCAnLW1hJywgJzIwMCcsICctbWV0YWxfYmluZGluZycsICctaW1hZScsICc8aW5maWxlLm1hZT4nLCAnLW9tYWUnLCAnPG91dGZpbGUubWFlPic=

> <r_lp_tautomer_probability>
1

> <r_epik_Ionization_Penalty>
3.5887e-05

> <r_epik_Ionization_Penalty_Charging>
0

> <r_epik_Ionization_Penalty_Neutral>
3.5887e-05

> <r_epik_State_Penalty>
-0

> <r_epik_Charging_Adjusted_Penalty>
0

> <i_epik_Tot_Q>
0

> <i_epik_Tot_abs_Q>
0

> <r_epik_Metal_State_Penalty>
-0

> <b_epik_Metal_Only>
0

> <s_lp_Force_Field>
OPLS_2005

> <r_lp_Energy>
28.1978

> <b_lp_Chiralities_Consistent>
1

> <s_lp_Variant>
AV-unprocessed.smi:3052-2

> <Gold.Version>
5.8.1

> <Gold.Id.Protein>
6NUR|6NUR_protein|mol2

> <Gold.PLP.Fitness>
44.9761

> <Gold.PLP.PLP>
-33.3508

> <Gold.PLP.part.hbond>
-5.9152

> <Gold.PLP.part.metal>
0.0000

> <Gold.PLP.part.buried>
-0.3989

> <Gold.PLP.part.nonpolar>
-26.0342

> <Gold.PLP.part.repulsive>
0.0723

> <Gold.PLP.ligand.clash>
0.0000

> <Gold.PLP.ligand.torsion>
1.8482

> <Gold.PLP.Chemscore.Hbond>
4.4763

> <Gold.PLP.Chemscore.CHOScore>
0.0000

> <Gold.PLP.Chemscore.Metal>
0.0000

> <Gold.Chemscore.Hbonds>
donor molecule, donor type, donor heavy atom, donor atom, acceptor molecule, acceptor atom, score
      L1  H    10    29       P1  7948  0.78
      L1  H    13    30       P1  7948  1.00
      L1  H    17    36       P1 10171  0.49
      P1  H  7954  7966       L1    17  1.00

> <Gold.PLP.Chemscore.Internal.Correction>
1.8930

> <Gold.Rescore>
     Score         DG    S(hbond)    S(metal)    S(lipo)     H(rot)  DE(clash)    DE(int)     intcor
     16.87     -19.90       3.14        0.00      80.82       2.16       0.14       2.89       ----

> <Gold.Chemscore.Fitness>
16.8721

> <Gold.Chemscore.DG>
-19.9039

> <Gold.Chemscore.ZeroCoef>
-5.4800

> <Gold.Chemscore.Hbond>
3.1406

> <Gold.Chemscore.Metal>
0.0000

> <Gold.Chemscore.Lipo>
80.8217

> <Gold.Chemscore.Internal_Hbond>
0.0000

> <Gold.Chemscore.DEClash>
0.1388

> <Gold.Chemscore.DEInternal>
2.8930

> <Gold.Chemscore.Rot>
2.1569

> <Gold.Chemscore.Internal.Correction>
   9.000000E+99

> <Gold.Chemscore.Hbonds>
donor molecule, donor type, donor heavy atom, donor atom, acceptor molecule, acceptor atom, score
      L1  H    10    29       P1  7948  0.15
      L1  H    13    30       P1  7948  0.98
      L1  H    17    36       P1 10171  0.47
      P1  H  7954  7966       L1    17  0.59

> <Gold.Chemscore.Hbond.Weighted>
-10.4895

> <Gold.Chemscore.Metal.Weighted>
-0.0000

> <Gold.Chemscore.Lipo.Weighted>
-9.4561

> <Gold.Chemscore.Internal_Hbond.Weighted>
0.0000

> <Gold.Chemscore.DEClash.Weighted>
0.1388

> <Gold.Chemscore.DEInternal.Weighted>
2.8930

> <Gold.Chemscore.Rot.Weighted>
5.5218

> <Gold.Chemscore.Internal.Correction.Weighted>
   9.000000E+99

> <Gold.Protein.RotatedTorsions>
[ 6907 6896 6895 6894 ] final  101.53 input  -60.11 | X-H torsion
[ 7974 7965 7964 7962 ] final  -34.11 input  175.53 | X-H torsion
[ 8008 7997 7996 7995 ] final   43.94 input   59.86 | X-H torsion
[ 10167 10162 10161 10158 ] final  179.01 input  -65.29 | X-H torsion
[ 10718 10713 10712 10709 ] final    0.09 input   66.30 | X-H torsion
[ 10763 10752 10751 10750 ] final -118.00 input  -60.55 | X-H torsion
[ 11005 11000 10999 10996 ] final  109.69 input  -57.11 | X-H torsion

> <Gold.Protein.ActiveResidues>
 VAL166  LYS551  ARG553  GLY616  TRP617  ASP618  TYR619  PRO620  LYS621  CYS622 
 ASP623  PHE694  ASN695  SER759  ASP760  ASP761  ALA762  ILE779  LEU786  VAL792 
 PHE793  MET794  SER795  GLU796  ALA797  LYS798  CYS799  TRP800  GLU811  SER814 

> <Gold.Protein.RotatedAtoms>
  152.5347  134.0112  159.7939 H   0  0  0  0  0  0  0  0  0  0  0  0  # atno 6907 bound_to 6896
  151.0314  133.5779  159.2667 H   0  0  0  0  0  0  0  0  0  0  0  0  # atno 6908 bound_to 6896
  151.2782  135.0713  159.9213 H   0  0  0  0  0  0  0  0  0  0  0  0  # atno 6909 bound_to 6896
  146.0856  140.5998  142.8888 H   0  0  0  0  0  0  0  0  0  0  0  0  # atno 7974 bound_to 7965
  155.3110  140.3391  155.4244 H   0  0  0  0  0  0  0  0  0  0  0  0  # atno 8008 bound_to 7997
  156.1955  140.1713  156.8044 H   0  0  0  0  0  0  0  0  0  0  0  0  # atno 8009 bound_to 7997
  154.5494  140.0708  156.8627 H   0  0  0  0  0  0  0  0  0  0  0  0  # atno 8010 bound_to 7997
  139.5318  144.2612  152.0706 H   0  0  0  0  0  0  0  0  0  0  0  0  # atno 10167 bound_to 10162
  156.8282  130.5479  149.5689 H   0  0  0  0  0  0  0  0  0  0  0  0  # atno 10718 bound_to 10713
  154.8573  135.4289  154.2069 H   0  0  0  0  0  0  0  0  0  0  0  0  # atno 10763 bound_to 10752
  153.3103  135.6975  153.7127 H   0  0  0  0  0  0  0  0  0  0  0  0  # atno 10764 bound_to 10752
  153.6222  135.3500  155.2988 H   0  0  0  0  0  0  0  0  0  0  0  0  # atno 10765 bound_to 10752
  139.8867  134.9465  156.6164 H   0  0  0  0  0  0  0  0  0  0  0  0  # atno 11005 bound_to 11000
  144.7324  140.4709  143.6928 LP  0  0  0  0  0  0  0  0  0  0  0  0  # atno 17320 bound_to 7965
  145.6135  139.1516  143.3062 LP  0  0  0  0  0  0  0  0  0  0  0  0  # atno 17321 bound_to 7965
  140.2076  144.4595  150.6401 LP  0  0  0  0  0  0  0  0  0  0  0  0  # atno 17342 bound_to 10162
  140.6501  143.2223  151.6097 LP  0  0  0  0  0  0  0  0  0  0  0  0  # atno 17343 bound_to 10162
  156.0949  130.5925  150.9797 LP  0  0  0  0  0  0  0  0  0  0  0  0  # atno 17370 bound_to 10713
  157.6421  131.0909  150.8230 LP  0  0  0  0  0  0  0  0  0  0  0  0  # atno 17371 bound_to 10713
  140.7772  133.8689  155.8539 LP  0  0  0  0  0  0  0  0  0  0  0  0  # atno 17394 bound_to 11000
  140.9791  134.1429  157.4510 LP  0  0  0  0  0  0  0  0  0  0  0  0  # atno 17395 bound_to 11000

$$$$
