AV-unprocessed.smi:76|AV-procd|sdf|769|dock9
  -GOLD-   2262017113D 1   1.00000     0.00000
 Structure written by MMmdl.
 55 58  0  0  0  0  0  0  0  0  1 V2000
  149.9569  141.6655  155.7679 C   0  0  0  0  0  0  0  0  0  0  0  0
  150.5948  141.5267  157.1664 C   0  0  2  0  0  0  0  0  0  0  0  0
  150.6706  142.9119  157.8431 C   0  0  0  0  0  0  0  0  0  0  0  0
  151.3277  142.8441  159.2360 C   0  0  2  0  0  0  0  0  0  0  0  0
  151.4098  144.2281  159.9112 C   0  0  0  0  0  0  0  0  0  0  0  0
  152.2190  145.0416  159.2320 F   0  0  0  0  0  0  0  0  0  0  0  0
  150.1973  144.7783  159.9717 F   0  0  0  0  0  0  0  0  0  0  0  0
  151.8717  144.1009  161.1552 F   0  0  0  0  0  0  0  0  0  0  0  0
  152.7089  142.1758  159.1059 C   0  0  0  0  0  0  0  0  0  0  0  0
  152.5904  140.8029  158.4300 C   0  0  0  0  0  0  0  0  0  0  0  0
  151.9283  140.9099  157.1305 N   0  0  0  0  0  0  0  0  0  0  0  0
  152.0083  139.7525  156.4358 C   0  0  0  0  0  0  0  0  0  0  0  0
  152.6835  139.7108  155.2566 N   0  0  0  0  0  0  0  0  0  0  0  0
  152.7712  138.5606  154.5813 C   0  0  0  0  0  0  0  0  0  0  0  0
  152.2706  137.3644  154.9000 N   0  0  0  0  0  0  0  0  0  0  0  0
  151.5928  137.4081  156.0834 C   0  0  0  0  0  0  0  0  0  0  0  0
  151.4168  138.5527  156.9089 C   0  0  0  0  0  0  0  0  0  0  0  0
  150.6837  138.2198  158.0399 N   0  0  0  0  0  0  0  0  0  0  0  0
  150.4408  136.9457  157.8926 C   0  0  0  0  0  0  0  0  0  0  0  0
  150.9359  136.3799  156.7383 N   0  0  0  0  0  0  0  0  0  0  0  0
  150.8191  134.9876  156.3278 C   0  0  0  0  0  0  0  0  0  0  0  0
  149.3925  134.5482  155.8697 C   0  0  0  0  0  0  0  0  0  0  0  0
  148.6083  135.8094  155.4114 C   0  0  0  0  0  0  0  0  0  0  0  0
  149.2615  136.5382  154.3906 O   0  0  0  0  0  0  0  0  0  0  0  0
  149.5295  133.5461  154.6944 C   0  0  0  0  0  0  0  0  0  0  0  0
  150.0669  132.1733  155.1427 C   0  0  0  0  0  0  0  0  0  0  0  0
  149.2479  131.6381  156.1754 O   0  0  0  0  0  0  0  0  0  0  0  0
  149.2152  132.4522  157.3413 C   0  0  0  0  0  0  0  0  0  0  0  0
  148.6149  133.8282  157.0021 C   0  0  0  0  0  0  0  0  0  0  0  0
  148.9939  142.1730  155.8284 H   0  0  0  0  0  0  0  0  0  0  0  0
  149.7742  140.6965  155.3030 H   0  0  0  0  0  0  0  0  0  0  0  0
  150.5941  142.2432  155.0974 H   0  0  0  0  0  0  0  0  0  0  0  0
  149.9493  140.8888  157.7722 H   0  0  0  0  0  0  0  0  0  0  0  0
  151.2344  143.5962  157.2075 H   0  0  0  0  0  0  0  0  0  0  0  0
  149.6675  143.3308  157.9291 H   0  0  0  0  0  0  0  0  0  0  0  0
  150.7060  142.2068  159.8668 H   0  0  0  0  0  0  0  0  0  0  0  0
  153.3781  142.8109  158.5242 H   0  0  0  0  0  0  0  0  0  0  0  0
  153.1677  142.0595  160.0880 H   0  0  0  0  0  0  0  0  0  0  0  0
  153.5840  140.3697  158.3052 H   0  0  0  0  0  0  0  0  0  0  0  0
  152.0264  140.1257  159.0738 H   0  0  0  0  0  0  0  0  0  0  0  0
  153.3227  138.6046  153.6536 H   0  0  0  0  0  0  0  0  0  0  0  0
  149.8850  136.3804  158.6265 H   0  0  0  0  0  0  0  0  0  0  0  0
  151.5316  134.8201  155.5190 H   0  0  0  0  0  0  0  0  0  0  0  0
  151.1787  134.3782  157.1552 H   0  0  0  0  0  0  0  0  0  0  0  0
  147.6241  135.5367  155.0305 H   0  0  0  0  0  0  0  0  0  0  0  0
  148.4465  136.4821  156.2543 H   0  0  0  0  0  0  0  0  0  0  0  0
  149.0250  136.1640  153.5558 H   0  0  0  0  0  0  0  0  0  0  0  0
  148.5587  133.3766  154.2281 H   0  0  0  0  0  0  0  0  0  0  0  0
  150.1681  133.9597  153.9131 H   0  0  0  0  0  0  0  0  0  0  0  0
  150.0549  131.4815  154.3001 H   0  0  0  0  0  0  0  0  0  0  0  0
  151.1031  132.2322  155.4759 H   0  0  0  0  0  0  0  0  0  0  0  0
  148.5995  131.9558  158.0915 H   0  0  0  0  0  0  0  0  0  0  0  0
  150.2139  132.5413  157.7690 H   0  0  0  0  0  0  0  0  0  0  0  0
  148.5556  134.4469  157.8966 H   0  0  0  0  0  0  0  0  0  0  0  0
  147.5815  133.6650  156.6948 H   0  0  0  0  0  0  0  0  0  0  0  0
  1  2  1  0  0  0  0
  1 30  1  0  0  0  0
  1 31  1  0  0  0  0
  1 32  1  0  0  0  0
  2 11  1  0  0  0  0
  2  3  1  0  0  0  0
  2 33  1  0  0  0  0
  3  4  1  0  0  0  0
  3 34  1  0  0  0  0
  3 35  1  0  0  0  0
  4  5  1  0  0  0  0
  4  9  1  0  0  0  0
  4 36  1  0  0  0  0
  5  6  1  0  0  0  0
  5  7  1  0  0  0  0
  5  8  1  0  0  0  0
  9 10  1  0  0  0  0
  9 37  1  0  0  0  0
  9 38  1  0  0  0  0
 10 11  1  0  0  0  0
 10 39  1  0  0  0  0
 10 40  1  0  0  0  0
 11 12  1  0  0  0  0
 12 17  1  0  0  0  0
 12 13  2  0  0  0  0
 13 14  1  0  0  0  0
 14 15  2  0  0  0  0
 14 41  1  0  0  0  0
 15 16  1  0  0  0  0
 16 20  1  0  0  0  0
 16 17  2  0  0  0  0
 17 18  1  0  0  0  0
 18 19  2  0  0  0  0
 19 20  1  0  0  0  0
 19 42  1  0  0  0  0
 20 21  1  0  0  0  0
 21 22  1  0  0  0  0
 21 43  1  0  0  0  0
 21 44  1  0  0  0  0
 22 29  1  0  0  0  0
 22 23  1  0  0  0  0
 22 25  1  0  0  0  0
 23 24  1  0  0  0  0
 23 45  1  0  0  0  0
 23 46  1  0  0  0  0
 24 47  1  0  0  0  0
 25 26  1  0  0  0  0
 25 48  1  0  0  0  0
 25 49  1  0  0  0  0
 26 27  1  0  0  0  0
 26 50  1  0  0  0  0
 26 51  1  0  0  0  0
 27 28  1  0  0  0  0
 28 29  1  0  0  0  0
 28 52  1  0  0  0  0
 28 53  1  0  0  0  0
 29 54  1  0  0  0  0
 29 55  1  0  0  0  0
M  END
> <s_m_source_file>
AV-unprocessed.smi

> <i_m_source_file_index>
76

> <i_lp_mmshare_version>
43012

> <i_f3d_flags>
0

> <s_epik_input>
W0NIM11bQ0BASF0xW0NIMl1bQ0BASF0oQyhGKShGKUYpW0NIMl1bQ0gyXU4xYyhuW2NIXW4yKWMoYzIzKW5bY0hdbjNbQ0gyXUM0KFtDSDJdW09IXSlbQ0gyXVtDSDJdT1tDSDJdW0NIMl00

> <s_epik_cmdline>
J2VwaWtfcHl0aG9uJywgJy1waCcsICc3LjAnLCAnLXRuJywgJzgnLCAnLW1hJywgJzIwMCcsICctbWV0YWxfYmluZGluZycsICctaW1hZScsICc8aW5maWxlLm1hZT4nLCAnLW9tYWUnLCAnPG91dGZpbGUubWFlPic=

> <r_lp_tautomer_probability>
1

> <r_epik_Ionization_Penalty>
0.00244097

> <r_epik_Ionization_Penalty_Charging>
0

> <r_epik_Ionization_Penalty_Neutral>
0.00244097

> <r_epik_State_Penalty>
0.00151846

> <r_epik_Charging_Adjusted_Penalty>
0.00151846

> <i_epik_Tot_Q>
0

> <i_epik_Tot_abs_Q>
0

> <r_epik_Metal_State_Penalty>
-0

> <b_epik_Metal_Only>
0

> <s_lp_Force_Field>
OPLS_2005

> <r_lp_Energy>
38.0325

> <b_lp_Chiralities_Consistent>
1

> <s_lp_Variant>
AV-unprocessed.smi:76-3

> <Gold.Version>
5.8.1

> <Gold.Id.Protein>
6NUR|6NUR_protein|mol2

> <Gold.PLP.Fitness>
53.8833

> <Gold.PLP.PLP>
-48.3535

> <Gold.PLP.part.hbond>
-3.7247

> <Gold.PLP.part.metal>
0.0000

> <Gold.PLP.part.buried>
-7.1295

> <Gold.PLP.part.nonpolar>
-39.5556

> <Gold.PLP.part.repulsive>
0.0775

> <Gold.PLP.ligand.clash>
0.0000

> <Gold.PLP.ligand.torsion>
1.0188

> <Gold.PLP.Chemscore.Hbond>
2.4553

> <Gold.PLP.Chemscore.CHOScore>
0.0000

> <Gold.PLP.Chemscore.Metal>
0.0000

> <Gold.Chemscore.Hbonds>
donor molecule, donor type, donor heavy atom, donor atom, acceptor molecule, acceptor atom, score
      L1  H    24    47       P1  7948  1.00
      P1  H  7989  7998       L1    13  0.11
      P1  H  7997  8008       L1    13  0.60
      P1  H 10752 10763       L1    15  0.72

> <Gold.PLP.Chemscore.Internal.Correction>
0.2015

> <Gold.Rescore>
     Score         DG    S(hbond)    S(metal)    S(lipo)     H(rot)  DE(clash)    DE(int)     intcor
     15.03     -16.27       2.07        0.00      87.18       2.47       0.07       1.17       ----

> <Gold.Chemscore.Fitness>
15.0349

> <Gold.Chemscore.DG>
-16.2732

> <Gold.Chemscore.ZeroCoef>
-5.4800

> <Gold.Chemscore.Hbond>
2.0681

> <Gold.Chemscore.Metal>
0.0000

> <Gold.Chemscore.Lipo>
87.1777

> <Gold.Chemscore.Internal_Hbond>
0.0000

> <Gold.Chemscore.DEClash>
0.0688

> <Gold.Chemscore.DEInternal>
1.1695

> <Gold.Chemscore.Rot>
2.4665

> <Gold.Chemscore.Internal.Correction>
   9.000000E+99

> <Gold.Chemscore.Hbonds>
donor molecule, donor type, donor heavy atom, donor atom, acceptor molecule, acceptor atom, score
      L1  H    24    47       P1  7948  0.93
      P1  H  7989  7998       L1    13  0.01
      P1  H  7997  8008       L1    13  0.03
      P1  H 10752 10763       L1    15  0.59

> <Gold.Chemscore.Hbond.Weighted>
-6.9075

> <Gold.Chemscore.Metal.Weighted>
-0.0000

> <Gold.Chemscore.Lipo.Weighted>
-10.1998

> <Gold.Chemscore.Internal_Hbond.Weighted>
0.0000

> <Gold.Chemscore.DEClash.Weighted>
0.0688

> <Gold.Chemscore.DEInternal.Weighted>
1.1695

> <Gold.Chemscore.Rot.Weighted>
6.3142

> <Gold.Chemscore.Internal.Correction.Weighted>
   9.000000E+99

> <Gold.Protein.RotatedTorsions>
[ 6907 6896 6895 6894 ] final  -80.61 input  -60.11 | X-H torsion
[ 7974 7965 7964 7962 ] final    4.74 input  175.53 | X-H torsion
[ 8008 7997 7996 7995 ] final  -32.24 input   59.86 | X-H torsion
[ 10167 10162 10161 10158 ] final   97.76 input  -65.29 | X-H torsion
[ 10718 10713 10712 10709 ] final   24.02 input   66.30 | X-H torsion
[ 10763 10752 10751 10750 ] final   56.14 input  -60.55 | X-H torsion
[ 11005 11000 10999 10996 ] final  -47.77 input  -57.11 | X-H torsion

> <Gold.Protein.ActiveResidues>
 VAL166  LYS551  ARG553  GLY616  TRP617  ASP618  TYR619  PRO620  LYS621  CYS622 
 ASP623  PHE694  ASN695  SER759  ASP760  ASP761  ALA762  ILE779  LEU786  VAL792 
 PHE793  MET794  SER795  GLU796  ALA797  LYS798  CYS799  TRP800  GLU811  SER814 

> <Gold.Protein.RotatedAtoms>
  150.6926  134.3944  159.5090 H   0  0  0  0  0  0  0  0  0  0  0  0  # atno 6907 bound_to 6896
  152.1727  134.8818  160.0542 H   0  0  0  0  0  0  0  0  0  0  0  0  # atno 6908 bound_to 6896
  151.9838  133.3732  159.4154 H   0  0  0  0  0  0  0  0  0  0  0  0  # atno 6909 bound_to 6896
  146.2443  140.0489  142.8376 H   0  0  0  0  0  0  0  0  0  0  0  0  # atno 7974 bound_to 7965
  154.4186  140.1743  156.1695 H   0  0  0  0  0  0  0  0  0  0  0  0  # atno 8008 bound_to 7997
  155.9772  140.3380  155.6606 H   0  0  0  0  0  0  0  0  0  0  0  0  # atno 8009 bound_to 7997
  155.6547  140.0694  157.2565 H   0  0  0  0  0  0  0  0  0  0  0  0  # atno 8010 bound_to 7997
  139.7771  144.6902  151.0074 H   0  0  0  0  0  0  0  0  0  0  0  0  # atno 10167 bound_to 10162
  157.1740  130.6772  149.6088 H   0  0  0  0  0  0  0  0  0  0  0  0  # atno 10718 bound_to 10713
  152.9827  135.5686  154.5180 H   0  0  0  0  0  0  0  0  0  0  0  0  # atno 10763 bound_to 10752
  154.4673  135.2783  155.1671 H   0  0  0  0  0  0  0  0  0  0  0  0  # atno 10764 bound_to 10752
  154.3233  135.6264  153.5571 H   0  0  0  0  0  0  0  0  0  0  0  0  # atno 10765 bound_to 10752
  141.0661  133.6693  156.3346 H   0  0  0  0  0  0  0  0  0  0  0  0  # atno 11005 bound_to 11000
  145.1002  140.9341  143.4717 LP  0  0  0  0  0  0  0  0  0  0  0  0  # atno 17320 bound_to 7965
  145.0680  139.3053  143.5846 LP  0  0  0  0  0  0  0  0  0  0  0  0  # atno 17321 bound_to 7965
  140.7817  143.4524  151.0394 LP  0  0  0  0  0  0  0  0  0  0  0  0  # atno 17342 bound_to 10162
  139.8205  143.7826  152.3176 LP  0  0  0  0  0  0  0  0  0  0  0  0  # atno 17343 bound_to 10162
  155.9734  130.4669  150.6306 LP  0  0  0  0  0  0  0  0  0  0  0  0  # atno 17370 bound_to 10713
  157.4016  131.0811  151.1303 LP  0  0  0  0  0  0  0  0  0  0  0  0  # atno 17371 bound_to 10713
  140.5770  134.5783  157.5471 LP  0  0  0  0  0  0  0  0  0  0  0  0  # atno 17394 bound_to 11000
  139.9478  134.7671  156.0521 LP  0  0  0  0  0  0  0  0  0  0  0  0  # atno 17395 bound_to 11000

$$$$
