AV-unprocessed.smi:595|AV-procd|sdf|3018|dock1
  -GOLD-   2262023523D 1   1.00000     0.00000
 Structure written by MMmdl.
 39 40  0  0  0  0  0  0  0  0  1 V2000
  149.5879  139.2848  158.9886 O   0  0  0  0  0  0  0  0  0  0  0  0
  150.4706  138.5475  158.5421 C   0  0  0  0  0  0  0  0  0  0  0  0
  151.7716  139.1573  157.9981 C   0  0  0  0  0  0  0  0  0  0  0  0
  152.2672  140.2718  158.8226 N   0  0  0  0  0  0  0  0  0  0  0  0
  151.6796  141.5331  158.6025 C   0  0  0  0  0  0  0  0  0  0  0  0
  152.0251  142.6345  159.2963 C   0  0  0  0  0  0  0  0  0  0  0  0
  151.4073  143.9925  159.0013 C   0  0  0  0  0  0  0  0  0  0  0  0
  150.0834  143.9611  159.1548 F   0  0  0  0  0  0  0  0  0  0  0  0
  151.9010  144.9317  159.8092 F   0  0  0  0  0  0  0  0  0  0  0  0
  151.6714  144.3467  157.7444 F   0  0  0  0  0  0  0  0  0  0  0  0
  153.0797  142.4734  160.2779 C   0  0  0  0  0  0  0  0  0  0  0  0
  153.6565  141.2756  160.4966 C   0  0  0  0  0  0  0  0  0  0  0  0
  153.2488  140.0806  159.7541 C   0  0  0  0  0  0  0  0  0  0  0  0
  153.7572  138.9783  159.9584 O   0  0  0  0  0  0  0  0  0  0  0  0
  150.4100  137.1970  158.4811 N   0  0  0  0  0  0  0  0  0  0  0  0
  149.4397  136.3308  158.8585 C   0  0  0  0  0  0  0  0  0  0  0  0
  149.4147  135.1860  158.4093 O   0  0  0  0  0  0  0  0  0  0  0  0
  148.5220  136.7787  159.7361 N   0  0  0  0  0  0  0  0  0  0  0  0
  147.5045  135.9592  160.3876 C   0  0  0  0  0  0  0  0  0  0  0  0
  147.1068  136.5739  161.7414 C   0  0  0  0  0  0  0  0  0  0  0  0
  147.7290  135.6733  162.8081 C   0  0  0  0  0  0  0  0  0  0  0  0
  147.7161  134.2860  162.1743 C   0  0  0  0  0  0  0  0  0  0  0  0
  148.0263  134.5404  160.6980 C   0  0  0  0  0  0  0  0  0  0  0  0
  152.5137  138.3628  157.9061 H   0  0  0  0  0  0  0  0  0  0  0  0
  151.6089  139.5099  156.9780 H   0  0  0  0  0  0  0  0  0  0  0  0
  150.9220  141.5447  157.8319 H   0  0  0  0  0  0  0  0  0  0  0  0
  153.4107  143.3266  160.8516 H   0  0  0  0  0  0  0  0  0  0  0  0
  154.4382  141.1924  161.2373 H   0  0  0  0  0  0  0  0  0  0  0  0
  151.2283  136.7566  158.0868 H   0  0  0  0  0  0  0  0  0  0  0  0
  148.5333  137.7617  159.9701 H   0  0  0  0  0  0  0  0  0  0  0  0
  146.6197  135.9072  159.7505 H   0  0  0  0  0  0  0  0  0  0  0  0
  147.4129  137.6153  161.8522 H   0  0  0  0  0  0  0  0  0  0  0  0
  146.0209  136.5474  161.8418 H   0  0  0  0  0  0  0  0  0  0  0  0
  148.7580  135.9821  162.9970 H   0  0  0  0  0  0  0  0  0  0  0  0
  147.1897  135.7083  163.7550 H   0  0  0  0  0  0  0  0  0  0  0  0
  148.4263  133.6030  162.6410 H   0  0  0  0  0  0  0  0  0  0  0  0
  146.7213  133.8493  162.2705 H   0  0  0  0  0  0  0  0  0  0  0  0
  147.5738  133.7865  160.0530 H   0  0  0  0  0  0  0  0  0  0  0  0
  149.1057  134.4848  160.5484 H   0  0  0  0  0  0  0  0  0  0  0  0
  1  2  2  0  0  0  0
  2  3  1  0  0  0  0
  2 15  1  0  0  0  0
  3  4  1  0  0  0  0
  3 24  1  0  0  0  0
  3 25  1  0  0  0  0
  4 13  1  0  0  0  0
  4  5  1  0  0  0  0
  5  6  2  0  0  0  0
  5 26  1  0  0  0  0
  6  7  1  0  0  0  0
  6 11  1  0  0  0  0
  7  8  1  0  0  0  0
  7  9  1  0  0  0  0
  7 10  1  0  0  0  0
 11 12  2  0  0  0  0
 11 27  1  0  0  0  0
 12 13  1  0  0  0  0
 12 28  1  0  0  0  0
 13 14  2  0  0  0  0
 15 16  1  0  0  0  0
 15 29  1  0  0  0  0
 16 17  2  0  0  0  0
 16 18  1  0  0  0  0
 18 19  1  0  0  0  0
 18 30  1  0  0  0  0
 19 23  1  0  0  0  0
 19 20  1  0  0  0  0
 19 31  1  0  0  0  0
 20 21  1  0  0  0  0
 20 32  1  0  0  0  0
 20 33  1  0  0  0  0
 21 22  1  0  0  0  0
 21 34  1  0  0  0  0
 21 35  1  0  0  0  0
 22 23  1  0  0  0  0
 22 36  1  0  0  0  0
 22 37  1  0  0  0  0
 23 38  1  0  0  0  0
 23 39  1  0  0  0  0
M  END
> <s_m_source_file>
AV-unprocessed.smi

> <i_m_source_file_index>
595

> <i_lp_mmshare_version>
43012

> <i_f3d_flags>
0

> <s_epik_input>
W0NIMl0xW0NIMl1bQ0gyXVtDSDJdW0NIXTFbTkhdQyg9TylbTkhdQyg9TylbQ0gyXW4yW2NIXWMoQyhGKShGKUYpW2NIXVtjSF1jMj1P

> <s_epik_cmdline>
J2VwaWtfcHl0aG9uJywgJy1waCcsICc3LjAnLCAnLXRuJywgJzgnLCAnLW1hJywgJzIwMCcsICctbWV0YWxfYmluZGluZycsICctaW1hZScsICc8aW5maWxlLm1hZT4nLCAnLW9tYWUnLCAnPG91dGZpbGUubWFlPic=

> <r_lp_tautomer_probability>
1

> <r_epik_Ionization_Penalty>
3.29047e-05

> <r_epik_Ionization_Penalty_Charging>
1.42456e-08

> <r_epik_Ionization_Penalty_Neutral>
3.28905e-05

> <r_epik_State_Penalty>
-0

> <r_epik_Charging_Adjusted_Penalty>
1.42456e-08

> <i_epik_Tot_Q>
0

> <i_epik_Tot_abs_Q>
0

> <r_epik_Metal_State_Penalty>
-0

> <b_epik_Metal_Only>
0

> <s_lp_Force_Field>
OPLS_2005

> <r_lp_Energy>
34.7393

> <b_lp_Chiralities_Consistent>
1

> <s_lp_Variant>
AV-unprocessed.smi:595-1

> <Gold.Version>
5.8.1

> <Gold.Id.Protein>
6NUR|6NUR_protein|mol2

> <Gold.PLP.Fitness>
51.7585

> <Gold.PLP.PLP>
-50.7517

> <Gold.PLP.part.hbond>
-3.0000

> <Gold.PLP.part.metal>
0.0000

> <Gold.PLP.part.buried>
-3.8012

> <Gold.PLP.part.nonpolar>
-44.8585

> <Gold.PLP.part.repulsive>
0.3606

> <Gold.PLP.ligand.clash>
0.0000

> <Gold.PLP.ligand.torsion>
1.0662

> <Gold.PLP.Chemscore.Hbond>
1.0000

> <Gold.PLP.Chemscore.CHOScore>
0.0000

> <Gold.PLP.Chemscore.Metal>
0.0000

> <Gold.Chemscore.Hbonds>
donor molecule, donor type, donor heavy atom, donor atom, acceptor molecule, acceptor atom, score
      P1  H  6896  6908       L1    17  1.00

> <Gold.PLP.Chemscore.Internal.Correction>
0.1392

> <Gold.Rescore>
     Score         DG    S(hbond)    S(metal)    S(lipo)     H(rot)  DE(clash)    DE(int)     intcor
     12.06     -15.64       0.90        0.00      97.64       1.68       1.32       2.26       ----

> <Gold.Chemscore.Fitness>
12.0609

> <Gold.Chemscore.DG>
-15.6365

> <Gold.Chemscore.ZeroCoef>
-5.4800

> <Gold.Chemscore.Hbond>
0.9043

> <Gold.Chemscore.Metal>
0.0000

> <Gold.Chemscore.Lipo>
97.6419

> <Gold.Chemscore.Internal_Hbond>
0.0000

> <Gold.Chemscore.DEClash>
1.3150

> <Gold.Chemscore.DEInternal>
2.2605

> <Gold.Chemscore.Rot>
1.6750

> <Gold.Chemscore.Internal.Correction>
   9.000000E+99

> <Gold.Chemscore.Hbonds>
donor molecule, donor type, donor heavy atom, donor atom, acceptor molecule, acceptor atom, score
      P1  H  6896  6908       L1    17  0.54

> <Gold.Chemscore.Hbond.Weighted>
-3.0205

> <Gold.Chemscore.Metal.Weighted>
-0.0000

> <Gold.Chemscore.Lipo.Weighted>
-11.4241

> <Gold.Chemscore.Internal_Hbond.Weighted>
0.0000

> <Gold.Chemscore.DEClash.Weighted>
1.3150

> <Gold.Chemscore.DEInternal.Weighted>
2.2605

> <Gold.Chemscore.Rot.Weighted>
4.2881

> <Gold.Chemscore.Internal.Correction.Weighted>
   9.000000E+99

> <Gold.Protein.RotatedTorsions>
[ 6907 6896 6895 6894 ] final  145.81 input  -60.11 | X-H torsion
[ 7974 7965 7964 7962 ] final -138.04 input  175.53 | X-H torsion
[ 8008 7997 7996 7995 ] final  -21.26 input   59.86 | X-H torsion
[ 10167 10162 10161 10158 ] final  132.10 input  -65.29 | X-H torsion
[ 10718 10713 10712 10709 ] final   39.69 input   66.30 | X-H torsion
[ 10763 10752 10751 10750 ] final  160.75 input  -60.55 | X-H torsion
[ 11005 11000 10999 10996 ] final   28.75 input  -57.11 | X-H torsion

> <Gold.Protein.ActiveResidues>
 VAL166  LYS551  ARG553  GLY616  TRP617  ASP618  TYR619  PRO620  LYS621  CYS622 
 ASP623  PHE694  ASN695  SER759  ASP760  ASP761  ALA762  ILE779  LEU786  VAL792 
 PHE793  MET794  SER795  GLU796  ALA797  LYS798  CYS799  TRP800  GLU811  SER814 

> <Gold.Protein.RotatedAtoms>
  152.1760  133.4675  159.4933 H   0  0  0  0  0  0  0  0  0  0  0  0  # atno 6907 bound_to 6896
  150.6927  134.1893  159.4288 H   0  0  0  0  0  0  0  0  0  0  0  0  # atno 6908 bound_to 6896
  151.9802  135.0032  160.0607 H   0  0  0  0  0  0  0  0  0  0  0  0  # atno 6909 bound_to 6896
  144.8792  140.6482  143.5217 H   0  0  0  0  0  0  0  0  0  0  0  0  # atno 7974 bound_to 7965
  154.4717  140.2039  155.9979 H   0  0  0  0  0  0  0  0  0  0  0  0  # atno 8008 bound_to 7997
  156.1021  140.3242  155.7927 H   0  0  0  0  0  0  0  0  0  0  0  0  # atno 8009 bound_to 7997
  155.4779  140.0536  157.2962 H   0  0  0  0  0  0  0  0  0  0  0  0  # atno 8010 bound_to 7997
  139.5354  144.6677  151.4803 H   0  0  0  0  0  0  0  0  0  0  0  0  # atno 10167 bound_to 10162
  157.3735  130.7714  149.7137 H   0  0  0  0  0  0  0  0  0  0  0  0  # atno 10718 bound_to 10713
  154.2522  135.2771  155.2812 H   0  0  0  0  0  0  0  0  0  0  0  0  # atno 10763 bound_to 10752
  154.5455  135.5690  153.6880 H   0  0  0  0  0  0  0  0  0  0  0  0  # atno 10764 bound_to 10752
  152.9978  135.6261  154.2669 H   0  0  0  0  0  0  0  0  0  0  0  0  # atno 10765 bound_to 10752
  140.3122  134.2636  155.7732 H   0  0  0  0  0  0  0  0  0  0  0  0  # atno 11005 bound_to 11000
  145.3986  139.1602  143.4190 LP  0  0  0  0  0  0  0  0  0  0  0  0  # atno 17320 bound_to 7965
  146.2983  140.4081  142.8713 LP  0  0  0  0  0  0  0  0  0  0  0  0  # atno 17321 bound_to 7965
  140.6558  143.8603  150.6833 LP  0  0  0  0  0  0  0  0  0  0  0  0  # atno 17342 bound_to 10162
  140.1982  143.3981  152.1812 LP  0  0  0  0  0  0  0  0  0  0  0  0  # atno 17343 bound_to 10162
  155.9760  130.4081  150.3807 LP  0  0  0  0  0  0  0  0  0  0  0  0  # atno 17370 bound_to 10713
  157.1901  131.0413  151.2704 LP  0  0  0  0  0  0  0  0  0  0  0  0  # atno 17371 bound_to 10713
  141.2105  133.7716  156.9925 LP  0  0  0  0  0  0  0  0  0  0  0  0  # atno 17394 bound_to 11000
  140.1014  134.9533  157.1929 LP  0  0  0  0  0  0  0  0  0  0  0  0  # atno 17395 bound_to 11000

$$$$
