AV-unprocessed.smi:2438|AV-procd|sdf|9595|dock6
  -GOLD-   2272013223D 1   1.00000     0.00000
 Structure written by MMmdl.
 43 44  0  0  0  0  0  0  0  0  1 V2000
  153.6631  133.8311  157.5277 C   0  0  0  0  0  0  0  0  0  0  0  0
  154.8211  134.1891  158.3354 N   0  0  0  0  0  0  0  0  0  0  0  0
  155.2981  133.1696  159.2615 C   0  0  0  0  0  0  0  0  0  0  0  0
  154.7667  135.5074  158.8313 C   0  0  0  0  0  0  0  0  0  0  0  0
  154.1935  135.7070  160.0431 N   0  0  0  0  0  0  0  0  0  0  0  0
  154.1285  136.9594  160.4972 C   0  0  0  0  0  0  0  0  0  0  0  0
  154.5783  138.0535  159.8832 N   0  0  0  0  0  0  0  0  0  0  0  0
  155.1548  137.8789  158.6760 C   0  0  0  0  0  0  0  0  0  0  0  0
  155.2739  136.5994  158.0786 C   0  0  0  0  0  0  0  0  0  0  0  0
  155.9196  136.3736  156.8309 N   0  0  0  0  0  0  0  0  0  0  0  0
  156.6199  137.2475  156.0900 C   0  0  0  0  0  0  0  0  0  0  0  0
  156.8415  138.4192  156.3936 O   0  0  0  0  0  0  0  0  0  0  0  0
  157.0361  136.6851  154.9469 N   0  0  0  0  0  0  0  0  0  0  0  0
  157.7962  137.3597  153.8954 C   0  0  2  0  0  0  0  0  0  0  0  0
  156.9056  137.6945  152.6803 C   0  0  0  0  0  0  0  0  0  0  0  0
  156.4887  136.4337  151.9061 C   0  0  0  0  0  0  0  0  0  0  0  0
  157.7146  135.6104  151.4811 C   0  0  0  0  0  0  0  0  0  0  0  0
  158.5944  135.2302  152.6907 C   0  0  1  0  0  0  0  0  0  0  0  0
  159.8191  134.3899  152.2733 C   0  0  0  0  0  0  0  0  0  0  0  0
  159.4428  133.3042  151.5969 F   0  0  0  0  0  0  0  0  0  0  0  0
  160.6300  135.1174  151.5048 F   0  0  0  0  0  0  0  0  0  0  0  0
  160.5014  134.0100  153.3536 F   0  0  0  0  0  0  0  0  0  0  0  0
  159.0043  136.4999  153.4728 C   0  0  0  0  0  0  0  0  0  0  0  0
  153.5440  134.4996  156.6752 H   0  0  0  0  0  0  0  0  0  0  0  0
  152.7524  133.8751  158.1262 H   0  0  0  0  0  0  0  0  0  0  0  0
  153.7664  132.8165  157.1418 H   0  0  0  0  0  0  0  0  0  0  0  0
  156.1826  133.5137  159.7989 H   0  0  0  0  0  0  0  0  0  0  0  0
  155.5686  132.2639  158.7181 H   0  0  0  0  0  0  0  0  0  0  0  0
  154.5270  132.9130  159.9889 H   0  0  0  0  0  0  0  0  0  0  0  0
  153.6675  137.1009  161.4633 H   0  0  0  0  0  0  0  0  0  0  0  0
  155.5419  138.7732  158.2129 H   0  0  0  0  0  0  0  0  0  0  0  0
  155.7474  135.4704  156.4137 H   0  0  0  0  0  0  0  0  0  0  0  0
  156.8018  135.7167  154.7846 H   0  0  0  0  0  0  0  0  0  0  0  0
  158.1828  138.2933  154.3083 H   0  0  0  0  0  0  0  0  0  0  0  0
  156.0212  138.2510  152.9926 H   0  0  0  0  0  0  0  0  0  0  0  0
  157.4545  138.3565  152.0095 H   0  0  0  0  0  0  0  0  0  0  0  0
  155.8305  135.8211  152.5233 H   0  0  0  0  0  0  0  0  0  0  0  0
  155.9091  136.7157  151.0265 H   0  0  0  0  0  0  0  0  0  0  0  0
  157.3820  134.7116  150.9614 H   0  0  0  0  0  0  0  0  0  0  0  0
  158.3023  136.1816  150.7614 H   0  0  0  0  0  0  0  0  0  0  0  0
  157.9910  134.6085  153.3539 H   0  0  0  0  0  0  0  0  0  0  0  0
  159.6653  137.1049  152.8508 H   0  0  0  0  0  0  0  0  0  0  0  0
  159.5876  136.2289  154.3538 H   0  0  0  0  0  0  0  0  0  0  0  0
  1  2  1  0  0  0  0
  1 24  1  0  0  0  0
  1 25  1  0  0  0  0
  1 26  1  0  0  0  0
  2  3  1  0  0  0  0
  2  4  1  0  0  0  0
  3 27  1  0  0  0  0
  3 28  1  0  0  0  0
  3 29  1  0  0  0  0
  4  9  1  0  0  0  0
  4  5  2  0  0  0  0
  5  6  1  0  0  0  0
  6  7  2  0  0  0  0
  6 30  1  0  0  0  0
  7  8  1  0  0  0  0
  8  9  2  0  0  0  0
  8 31  1  0  0  0  0
  9 10  1  0  0  0  0
 10 11  1  0  0  0  0
 10 32  1  0  0  0  0
 11 12  2  0  0  0  0
 11 13  1  0  0  0  0
 13 14  1  0  0  0  0
 13 33  1  0  0  0  0
 14 23  1  0  0  0  0
 14 15  1  0  0  0  0
 14 34  1  0  0  0  0
 15 16  1  0  0  0  0
 15 35  1  0  0  0  0
 15 36  1  0  0  0  0
 16 17  1  0  0  0  0
 16 37  1  0  0  0  0
 16 38  1  0  0  0  0
 17 18  1  0  0  0  0
 17 39  1  0  0  0  0
 17 40  1  0  0  0  0
 18 19  1  0  0  0  0
 18 23  1  0  0  0  0
 18 41  1  0  0  0  0
 19 20  1  0  0  0  0
 19 21  1  0  0  0  0
 19 22  1  0  0  0  0
 23 42  1  0  0  0  0
 23 43  1  0  0  0  0
M  END
> <s_m_source_file>
AV-unprocessed.smi

> <i_m_source_file_index>
2438

> <i_lp_mmshare_version>
43012

> <i_f3d_flags>
0

> <s_epik_input>
W0NIM11OKFtDSDNdKWMxbltjSF1uW2NIXWMxW05IXUMoPU8pW05IXVtDQEBIXTJbQ0gyXVtDSDJdW0NIMl1bQ0BASF0oQyhGKShGKUYpW0NIMl0y

> <s_epik_cmdline>
J2VwaWtfcHl0aG9uJywgJy1waCcsICc3LjAnLCAnLXRuJywgJzgnLCAnLW1hJywgJzIwMCcsICctbWV0YWxfYmluZGluZycsICctaW1hZScsICc8aW5maWxlLm1hZT4nLCAnLW9tYWUnLCAnPG91dGZpbGUubWFlPic=

> <r_lp_tautomer_probability>
1

> <r_epik_Ionization_Penalty>
0.01759

> <r_epik_Ionization_Penalty_Charging>
0

> <r_epik_Ionization_Penalty_Neutral>
0.01759

> <r_epik_State_Penalty>
0.0133536

> <r_epik_Charging_Adjusted_Penalty>
0.0133536

> <i_epik_Tot_Q>
0

> <i_epik_Tot_abs_Q>
0

> <r_epik_Metal_State_Penalty>
0.0129828

> <b_epik_Metal_Only>
0

> <s_lp_Force_Field>
OPLS_2005

> <r_lp_Energy>
11.7103

> <b_lp_Chiralities_Consistent>
1

> <s_lp_Variant>
AV-unprocessed.smi:2438-1

> <Gold.Version>
5.8.1

> <Gold.Id.Protein>
6NUR|6NUR_protein|mol2

> <Gold.PLP.Fitness>
36.3588

> <Gold.PLP.PLP>
-33.0277

> <Gold.PLP.part.hbond>
-2.0000

> <Gold.PLP.part.metal>
0.0000

> <Gold.PLP.part.buried>
-0.8544

> <Gold.PLP.part.nonpolar>
-30.1581

> <Gold.PLP.part.repulsive>
0.3059

> <Gold.PLP.ligand.clash>
0.0000

> <Gold.PLP.ligand.torsion>
0.7209

> <Gold.PLP.Chemscore.Hbond>
1.4758

> <Gold.PLP.Chemscore.CHOScore>
0.0000

> <Gold.PLP.Chemscore.Metal>
0.0000

> <Gold.Chemscore.Hbonds>
donor molecule, donor type, donor heavy atom, donor atom, acceptor molecule, acceptor atom, score
      P1  H  6896  6909       L1     5  1.00
      P1  H  7997  8008       L1    12  0.48

> <Gold.PLP.Chemscore.Internal.Correction>
0.3456

> <Gold.Rescore>
     Score         DG    S(hbond)    S(metal)    S(lipo)     H(rot)  DE(clash)    DE(int)     intcor
     13.93     -16.56       1.20        0.00      88.87       1.30       0.83       1.80       ----

> <Gold.Chemscore.Fitness>
13.9293

> <Gold.Chemscore.DG>
-16.5617

> <Gold.Chemscore.ZeroCoef>
-5.4800

> <Gold.Chemscore.Hbond>
1.2000

> <Gold.Chemscore.Metal>
0.0000

> <Gold.Chemscore.Lipo>
88.8746

> <Gold.Chemscore.Internal_Hbond>
0.0000

> <Gold.Chemscore.DEClash>
0.8277

> <Gold.Chemscore.DEInternal>
1.8047

> <Gold.Chemscore.Rot>
1.2987

> <Gold.Chemscore.Internal.Correction>
   9.000000E+99

> <Gold.Chemscore.Hbonds>
donor molecule, donor type, donor heavy atom, donor atom, acceptor molecule, acceptor atom, score
      P1  H  6896  6909       L1     5  0.49
      P1  H  7997  8008       L1    12  0.48

> <Gold.Chemscore.Hbond.Weighted>
-4.0079

> <Gold.Chemscore.Metal.Weighted>
-0.0000

> <Gold.Chemscore.Lipo.Weighted>
-10.3983

> <Gold.Chemscore.Internal_Hbond.Weighted>
0.0000

> <Gold.Chemscore.DEClash.Weighted>
0.8277

> <Gold.Chemscore.DEInternal.Weighted>
1.8047

> <Gold.Chemscore.Rot.Weighted>
3.3246

> <Gold.Chemscore.Internal.Correction.Weighted>
   9.000000E+99

> <Gold.Protein.RotatedTorsions>
[ 6907 6896 6895 6894 ] final -179.47 input  -60.11 | X-H torsion
[ 7974 7965 7964 7962 ] final    1.46 input  175.53 | X-H torsion
[ 8008 7997 7996 7995 ] final  144.84 input   59.86 | X-H torsion
[ 10167 10162 10161 10158 ] final   -2.29 input  -65.29 | X-H torsion
[ 10718 10713 10712 10709 ] final  120.89 input   66.30 | X-H torsion
[ 10763 10752 10751 10750 ] final  121.09 input  -60.55 | X-H torsion
[ 11005 11000 10999 10996 ] final  -34.30 input  -57.11 | X-H torsion

> <Gold.Protein.ActiveResidues>
 VAL166  LYS551  ARG553  GLY616  TRP617  ASP618  TYR619  PRO620  LYS621  CYS622 
 ASP623  PHE694  ASN695  SER759  ASP760  ASP761  ALA762  ILE779  LEU786  VAL792 
 PHE793  MET794  SER795  GLU796  ALA797  LYS798  CYS799  TRP800  GLU811  SER814 

> <Gold.Protein.RotatedAtoms>
  151.6539  133.3319  159.3158 H   0  0  0  0  0  0  0  0  0  0  0  0  # atno 6907 bound_to 6896
  150.7946  134.7000  159.6554 H   0  0  0  0  0  0  0  0  0  0  0  0  # atno 6908 bound_to 6896
  152.4031  134.6256  160.0113 H   0  0  0  0  0  0  0  0  0  0  0  0  # atno 6909 bound_to 6896
  146.2440  140.0984  142.8349 H   0  0  0  0  0  0  0  0  0  0  0  0  # atno 7974 bound_to 7965
  156.2898  140.2225  156.5119 H   0  0  0  0  0  0  0  0  0  0  0  0  # atno 8008 bound_to 7997
  154.7602  140.0474  157.0988 H   0  0  0  0  0  0  0  0  0  0  0  0  # atno 8009 bound_to 7997
  155.0001  140.3100  155.4874 H   0  0  0  0  0  0  0  0  0  0  0  0  # atno 8010 bound_to 7997
  140.6845  143.6674  150.8214 H   0  0  0  0  0  0  0  0  0  0  0  0  # atno 10167 bound_to 10162
  157.5858  131.1070  150.8098 H   0  0  0  0  0  0  0  0  0  0  0  0  # atno 10718 bound_to 10713
  153.6086  135.3434  155.2971 H   0  0  0  0  0  0  0  0  0  0  0  0  # atno 10763 bound_to 10752
  154.8623  135.4245  154.2334 H   0  0  0  0  0  0  0  0  0  0  0  0  # atno 10764 bound_to 10752
  153.3179  135.7036  153.7128 H   0  0  0  0  0  0  0  0  0  0  0  0  # atno 10765 bound_to 10752
  140.9705  133.7112  156.1516 H   0  0  0  0  0  0  0  0  0  0  0  0  # atno 11005 bound_to 11000
  145.0590  140.9074  143.4950 LP  0  0  0  0  0  0  0  0  0  0  0  0  # atno 17320 bound_to 7965
  145.1096  139.2766  143.5644 LP  0  0  0  0  0  0  0  0  0  0  0  0  # atno 17321 bound_to 7965
  140.0379  143.5376  152.2731 LP  0  0  0  0  0  0  0  0  0  0  0  0  # atno 17342 bound_to 10162
  139.6192  144.7626  151.2777 LP  0  0  0  0  0  0  0  0  0  0  0  0  # atno 17343 bound_to 10162
  156.8532  130.5087  149.5310 LP  0  0  0  0  0  0  0  0  0  0  0  0  # atno 17370 bound_to 10713
  156.0907  130.5893  150.9727 LP  0  0  0  0  0  0  0  0  0  0  0  0  # atno 17371 bound_to 10713
  140.7336  134.4227  157.5563 LP  0  0  0  0  0  0  0  0  0  0  0  0  # atno 17394 bound_to 11000
  139.8910  134.8790  156.2340 LP  0  0  0  0  0  0  0  0  0  0  0  0  # atno 17395 bound_to 11000

$$$$
