AV-unprocessed.smi:1213|AV-procd|sdf|5087|dock3
  -GOLD-   22720 4133D 1   1.00000     0.00000
 Structure written by MMmdl.
 35 36  0  0  0  0  0  0  0  0  2 V2000
  155.3954  144.1915  165.6963 N   0  0  0  0  0  0  0  0  0  0  0  0
  154.6037  143.8939  164.6628 C   0  0  0  0  0  0  0  0  0  0  0  0
  153.9855  144.7530  164.0384 O   0  0  0  0  0  0  0  0  0  0  0  0
  154.4811  142.4142  164.2806 C   0  0  0  0  0  0  0  0  0  0  0  0
  154.2778  142.1615  162.8353 N   0  0  0  0  0  0  0  0  0  0  0  0
  152.9386  142.5624  162.3781 C   0  0  0  0  0  0  0  0  0  0  0  0
  152.7950  142.3433  160.8614 C   0  0  0  0  0  0  0  0  0  0  0  0
  153.0538  140.8783  160.4832 C   0  0  0  0  0  0  0  0  0  0  0  0
  153.0201  140.7254  159.0312 N   0  0  0  0  0  0  0  0  0  0  0  0
  152.5396  139.6686  158.3599 C   0  0  0  0  0  0  0  0  0  0  0  0
  152.0720  138.7077  158.9758 O   0  0  0  0  0  0  0  0  0  0  0  0
  152.6307  139.7914  157.0158 N   0  5  0  0  0  0  0  0  0  0  0  0
  151.6269  140.3534  156.3228 C   0  0  0  0  0  0  0  0  0  0  0  0
  151.0940  139.7959  155.2295 N   0  0  0  0  0  0  0  0  0  0  0  0
  150.0669  140.5537  154.6640 C   0  0  0  0  0  0  0  0  0  0  0  0
  149.8182  141.7204  155.3373 C   0  0  0  0  0  0  0  0  0  0  0  0
  150.8731  141.9030  156.7096 S   0  0  0  0  0  0  0  0  0  0  0  0
  154.4178  140.4533  161.0508 C   0  0  0  0  0  0  0  0  0  0  0  0
  154.5006  140.7376  162.5604 C   0  0  0  0  0  0  0  0  0  0  0  0
  155.5138  145.1536  165.9785 H   0  0  0  0  0  0  0  0  0  0  0  0
  155.8793  143.4520  166.1851 H   0  0  0  0  0  0  0  0  0  0  0  0
  155.3954  141.9192  164.6114 H   0  0  0  0  0  0  0  0  0  0  0  0
  153.6645  141.9669  164.8505 H   0  0  0  0  0  0  0  0  0  0  0  0
  152.1736  141.9990  162.9152 H   0  0  0  0  0  0  0  0  0  0  0  0
  152.7556  143.6169  162.5844 H   0  0  0  0  0  0  0  0  0  0  0  0
  151.7957  142.6393  160.5399 H   0  0  0  0  0  0  0  0  0  0  0  0
  153.4945  142.9945  160.3344 H   0  0  0  0  0  0  0  0  0  0  0  0
  152.2696  140.2646  160.9305 H   0  0  0  0  0  0  0  0  0  0  0  0
  153.3942  141.4872  158.4844 H   0  0  0  0  0  0  0  0  0  0  0  0
  149.5676  140.1860  153.7801 H   0  0  0  0  0  0  0  0  0  0  0  0
  149.0850  142.4797  155.1112 H   0  0  0  0  0  0  0  0  0  0  0  0
  154.5868  139.3913  160.8687 H   0  0  0  0  0  0  0  0  0  0  0  0
  155.2190  140.9859  160.5357 H   0  0  0  0  0  0  0  0  0  0  0  0
  155.4877  140.4422  162.9187 H   0  0  0  0  0  0  0  0  0  0  0  0
  153.7728  140.1275  163.0986 H   0  0  0  0  0  0  0  0  0  0  0  0
  1  2  1  0  0  0  0
  1 20  1  0  0  0  0
  1 21  1  0  0  0  0
  2  3  2  0  0  0  0
  2  4  1  0  0  0  0
  4  5  1  0  0  0  0
  4 22  1  0  0  0  0
  4 23  1  0  0  0  0
  5 19  1  0  0  0  0
  5  6  1  0  0  0  0
  6  7  1  0  0  0  0
  6 24  1  0  0  0  0
  6 25  1  0  0  0  0
  7  8  1  0  0  0  0
  7 26  1  0  0  0  0
  7 27  1  0  0  0  0
  8  9  1  0  0  0  0
  8 18  1  0  0  0  0
  8 28  1  0  0  0  0
  9 10  1  0  0  0  0
  9 29  1  0  0  0  0
 10 11  2  0  0  0  0
 10 12  1  0  0  0  0
 12 13  1  0  0  0  0
 13 17  1  0  0  0  0
 13 14  2  0  0  0  0
 14 15  1  0  0  0  0
 15 16  2  0  0  0  0
 15 30  1  0  0  0  0
 16 17  1  0  0  0  0
 16 31  1  0  0  0  0
 18 19  1  0  0  0  0
 18 32  1  0  0  0  0
 18 33  1  0  0  0  0
 19 34  1  0  0  0  0
 19 35  1  0  0  0  0
M  CHG  1  12  -1
M  END
> <s_m_source_file>
AV-unprocessed.smi

> <i_m_source_file_index>
1213

> <i_lp_mmshare_version>
43012

> <i_f3d_flags>
0

> <s_epik_input>
W05IMl1DKD1PKVtDSDJdTjFbQ0gyXVtDSDJdW0NIXShbQ0gyXVtDSDJdMSlbTkhdQyg9TylbTkhdYzJuW2NIXVtjSF1zMg==

> <s_epik_cmdline>
J2VwaWtfcHl0aG9uJywgJy1waCcsICc3LjAnLCAnLXRuJywgJzgnLCAnLW1hJywgJzIwMCcsICctbWV0YWxfYmluZGluZycsICctaW1hZScsICc8aW5maWxlLm1hZT4nLCAnLW9tYWUnLCAnPG91dGZpbGUubWFlPic=

> <r_lp_tautomer_probability>
0.999

> <r_epik_Ionization_Penalty>
7.12626

> <r_epik_Ionization_Penalty_Charging>
5.84953

> <r_epik_Ionization_Penalty_Neutral>
1.27674

> <r_epik_State_Penalty>
5.99619

> <r_epik_Charging_Adjusted_Penalty>
11.8457

> <i_epik_Tot_Q>
-1

> <i_epik_Tot_abs_Q>
1

> <r_epik_Metal_State_Penalty>
1.98285

> <b_epik_Metal_Only>
1

> <s_lp_Force_Field>
OPLS_2005

> <r_lp_Energy>
7.2689

> <b_lp_Chiralities_Consistent>
1

> <s_lp_Variant>
AV-unprocessed.smi:1213-4

> <Gold.Version>
5.8.1

> <Gold.Id.Protein>
6NUR|6NUR_protein|mol2

> <Gold.PLP.Fitness>
42.7280

> <Gold.PLP.PLP>
-34.6722

> <Gold.PLP.part.hbond>
-3.2321

> <Gold.PLP.part.metal>
0.0000

> <Gold.PLP.part.buried>
4.7768

> <Gold.PLP.part.nonpolar>
-34.1741

> <Gold.PLP.part.repulsive>
0.3806

> <Gold.PLP.ligand.clash>
0.0000

> <Gold.PLP.ligand.torsion>
1.9714

> <Gold.PLP.Chemscore.Hbond>
2.0000

> <Gold.PLP.Chemscore.CHOScore>
1.9898

> <Gold.PLP.Chemscore.Metal>
0.0000

> <Gold.Chemscore.Hbonds>
donor molecule, donor type, donor heavy atom, donor atom, acceptor molecule, acceptor atom, score
      P1  H  7997  8010       L1    12  2.00
      L1  C    15    30       P1  7957  0.77
      L1  C    16    31       P1  8028  1.00

> <Gold.PLP.Chemscore.Internal.Correction>
0.0292

> <Gold.Rescore>
     Score         DG    S(hbond)    S(metal)    S(lipo)     H(rot)  DE(clash)    DE(int)     intcor
      8.83     -12.40       0.88        0.00      78.11       2.01       1.49       2.08       ----

> <Gold.Chemscore.Fitness>
8.8336

> <Gold.Chemscore.DG>
-12.4006

> <Gold.Chemscore.ZeroCoef>
-5.4800

> <Gold.Chemscore.Hbond>
0.8769

> <Gold.Chemscore.Metal>
0.0000

> <Gold.Chemscore.Lipo>
78.1112

> <Gold.Chemscore.Internal_Hbond>
0.0000

> <Gold.Chemscore.DEClash>
1.4874

> <Gold.Chemscore.DEInternal>
2.0795

> <Gold.Chemscore.Rot>
2.0107

> <Gold.Chemscore.Internal.Correction>
   9.000000E+99

> <Gold.Chemscore.Hbonds>
donor molecule, donor type, donor heavy atom, donor atom, acceptor molecule, acceptor atom, score
      P1  H  7997  8010       L1    12  0.73

> <Gold.Chemscore.Hbond.Weighted>
-2.9290

> <Gold.Chemscore.Metal.Weighted>
-0.0000

> <Gold.Chemscore.Lipo.Weighted>
-9.1390

> <Gold.Chemscore.Internal_Hbond.Weighted>
0.0000

> <Gold.Chemscore.DEClash.Weighted>
1.4874

> <Gold.Chemscore.DEInternal.Weighted>
2.0795

> <Gold.Chemscore.Rot.Weighted>
5.1474

> <Gold.Chemscore.Internal.Correction.Weighted>
   9.000000E+99

> <Gold.Protein.RotatedTorsions>
[ 6907 6896 6895 6894 ] final -106.98 input  -60.11 | X-H torsion
[ 7974 7965 7964 7962 ] final  -58.76 input  175.53 | X-H torsion
[ 8008 7997 7996 7995 ] final   66.35 input   59.86 | X-H torsion
[ 10167 10162 10161 10158 ] final -134.64 input  -65.29 | X-H torsion
[ 10718 10713 10712 10709 ] final   53.71 input   66.30 | X-H torsion
[ 10763 10752 10751 10750 ] final  178.23 input  -60.55 | X-H torsion
[ 11005 11000 10999 10996 ] final -164.33 input  -57.11 | X-H torsion

> <Gold.Protein.ActiveResidues>
 VAL166  LYS551  ARG553  GLY616  TRP617  ASP618  TYR619  PRO620  LYS621  CYS622 
 ASP623  PHE694  ASN695  SER759  ASP760  ASP761  ALA762  ILE779  LEU786  VAL792 
 PHE793  MET794  SER795  GLU796  ALA797  LYS798  CYS799  TRP800  GLU811  SER814 

> <Gold.Protein.RotatedAtoms>
  150.7418  133.9895  159.3602 H   0  0  0  0  0  0  0  0  0  0  0  0  # atno 6907 bound_to 6896
  151.7842  135.0751  160.0387 H   0  0  0  0  0  0  0  0  0  0  0  0  # atno 6908 bound_to 6896
  152.3253  133.5861  159.5808 H   0  0  0  0  0  0  0  0  0  0  0  0  # atno 6909 bound_to 6896
  145.8355  140.8452  143.0061 H   0  0  0  0  0  0  0  0  0  0  0  0  # atno 7974 bound_to 7965
  155.6759  140.3497  155.4836 H   0  0  0  0  0  0  0  0  0  0  0  0  # atno 8008 bound_to 7997
  155.9648  140.1144  157.0887 H   0  0  0  0  0  0  0  0  0  0  0  0  # atno 8009 bound_to 7997
  154.4152  140.1168  156.5213 H   0  0  0  0  0  0  0  0  0  0  0  0  # atno 8010 bound_to 7997
  139.8860  143.6780  152.2620 H   0  0  0  0  0  0  0  0  0  0  0  0  # atno 10167 bound_to 10162
  157.5192  130.8553  149.8536 H   0  0  0  0  0  0  0  0  0  0  0  0  # atno 10718 bound_to 10713
  154.5050  135.2785  155.1390 H   0  0  0  0  0  0  0  0  0  0  0  0  # atno 10763 bound_to 10752
  154.3008  135.6248  153.5427 H   0  0  0  0  0  0  0  0  0  0  0  0  # atno 10764 bound_to 10752
  152.9909  135.5696  154.5501 H   0  0  0  0  0  0  0  0  0  0  0  0  # atno 10765 bound_to 10752
  140.5881  134.5073  157.5189 H   0  0  0  0  0  0  0  0  0  0  0  0  # atno 11005 bound_to 11000
  144.6737  140.0734  143.7472 LP  0  0  0  0  0  0  0  0  0  0  0  0  # atno 17320 bound_to 7965
  145.9524  139.2743  143.1204 LP  0  0  0  0  0  0  0  0  0  0  0  0  # atno 17321 bound_to 7965
  139.7152  144.7613  151.1045 LP  0  0  0  0  0  0  0  0  0  0  0  0  # atno 17342 bound_to 10162
  140.7735  143.5278  150.9459 LP  0  0  0  0  0  0  0  0  0  0  0  0  # atno 17343 bound_to 10162
  156.0341  130.3756  150.1607 LP  0  0  0  0  0  0  0  0  0  0  0  0  # atno 17370 bound_to 10713
  156.9795  130.9860  151.3440 LP  0  0  0  0  0  0  0  0  0  0  0  0  # atno 17371 bound_to 10713
  139.9286  134.8006  156.0994 LP  0  0  0  0  0  0  0  0  0  0  0  0  # atno 17394 bound_to 11000
  141.0953  133.6698  156.2631 LP  0  0  0  0  0  0  0  0  0  0  0  0  # atno 17395 bound_to 11000

$$$$
