AV-unprocessed.smi:266|AV-procd|sdf|2034|dock10
  -GOLD-   2262021243D 1   1.00000     0.00000
 Structure written by MMmdl.
 52 55  0  0  0  0  0  0  0  0  1 V2000
  152.3462  141.7581  159.7775 C   0  0  0  0  0  0  0  0  0  0  0  0
  151.5950  143.0725  159.5139 C   0  0  1  0  0  0  0  0  0  0  0  0
  152.4359  144.1411  159.9414 O   0  0  0  0  0  0  0  0  0  0  0  0
  152.1829  145.2767  159.1331 C   0  0  0  0  0  0  0  0  0  0  0  0
  152.0167  144.6638  157.7512 C   0  0  0  0  0  0  0  0  0  0  0  0
  151.2299  143.3871  158.0349 C   0  0  2  0  0  0  0  0  0  0  0  0
  149.8497  143.7110  157.9942 O   0  0  0  0  0  0  0  0  0  0  0  0
  151.4857  142.2559  157.0043 C   0  0  0  0  0  0  0  0  0  0  0  0
  150.5537  141.1436  157.1195 N   0  0  0  0  0  0  0  0  0  0  0  0
  149.9158  140.7197  158.2611 C   0  0  0  0  0  0  0  0  0  0  0  0
  149.1256  139.6945  158.1049 N   0  0  0  0  0  0  0  0  0  0  0  0
  149.2249  139.3726  156.7540 C   0  0  0  0  0  0  0  0  0  0  0  0
  148.6432  138.3748  155.9083 C   0  0  0  0  0  0  0  0  0  0  0  0
  147.7588  137.4150  156.3145 N   0  0  0  0  0  0  0  0  0  0  0  0
  147.7521  136.1056  155.6727 C   0  0  0  0  0  0  0  0  0  0  0  0
  146.6509  137.7529  157.2132 C   0  0  0  0  0  0  0  0  0  0  0  0
  146.5271  136.7898  158.4121 C   0  0  2  0  0  0  0  0  0  0  0  0
  145.2244  137.0201  159.2021 C   0  0  0  0  0  0  0  0  0  0  0  0
  145.2964  136.2252  160.5095 C   0  0  0  0  0  0  0  0  0  0  0  0
  147.0565  136.2660  161.0115 S   0  0  0  0  0  0  0  0  0  0  0  0
  147.2506  137.3029  162.0364 O   0  0  0  0  0  0  0  0  0  0  0  0
  147.5249  134.8891  161.2290 O   0  0  0  0  0  0  0  0  0  0  0  0
  147.6947  136.8871  159.4091 C   0  0  0  0  0  0  0  0  0  0  0  0
  149.0087  138.4034  154.5974 N   0  0  0  0  0  0  0  0  0  0  0  0
  149.8704  139.3139  154.1396 C   0  0  0  0  0  0  0  0  0  0  0  0
  150.4855  140.2870  154.8093 N   0  0  0  0  0  0  0  0  0  0  0  0
  150.1274  140.2813  156.1241 C   0  0  0  0  0  0  0  0  0  0  0  0
  151.7536  140.8925  159.4808 H   0  0  0  0  0  0  0  0  0  0  0  0
  152.5695  141.6505  160.8391 H   0  0  0  0  0  0  0  0  0  0  0  0
  153.2948  141.7247  159.2410 H   0  0  0  0  0  0  0  0  0  0  0  0
  150.6995  143.0872  160.1383 H   0  0  0  0  0  0  0  0  0  0  0  0
  151.2656  145.7685  159.4605 H   0  0  0  0  0  0  0  0  0  0  0  0
  153.0003  145.9961  159.1813 H   0  0  0  0  0  0  0  0  0  0  0  0
  151.5336  145.3326  157.0373 H   0  0  0  0  0  0  0  0  0  0  0  0
  153.0044  144.4173  157.3600 H   0  0  0  0  0  0  0  0  0  0  0  0
  149.5958  143.8276  157.0915 H   0  0  0  0  0  0  0  0  0  0  0  0
  151.4144  142.6422  155.9875 H   0  0  0  0  0  0  0  0  0  0  0  0
  152.4972  141.8625  157.1141 H   0  0  0  0  0  0  0  0  0  0  0  0
  150.0518  141.2007  159.2187 H   0  0  0  0  0  0  0  0  0  0  0  0
  148.6915  135.5835  155.8547 H   0  0  0  0  0  0  0  0  0  0  0  0
  147.6015  136.2022  154.5972 H   0  0  0  0  0  0  0  0  0  0  0  0
  146.9501  135.4789  156.0627 H   0  0  0  0  0  0  0  0  0  0  0  0
  146.7871  138.7719  157.5774 H   0  0  0  0  0  0  0  0  0  0  0  0
  145.7147  137.7791  156.6544 H   0  0  0  0  0  0  0  0  0  0  0  0
  146.4932  135.7639  158.0427 H   0  0  0  0  0  0  0  0  0  0  0  0
  145.1305  138.0807  159.4390 H   0  0  0  0  0  0  0  0  0  0  0  0
  144.3450  136.7449  158.6191 H   0  0  0  0  0  0  0  0  0  0  0  0
  144.6669  136.6378  161.2979 H   0  0  0  0  0  0  0  0  0  0  0  0
  145.0167  135.1844  160.3449 H   0  0  0  0  0  0  0  0  0  0  0  0
  148.5648  136.3065  159.1021 H   0  0  0  0  0  0  0  0  0  0  0  0
  148.0021  137.9227  159.5560 H   0  0  0  0  0  0  0  0  0  0  0  0
  150.0988  139.2539  153.0856 H   0  0  0  0  0  0  0  0  0  0  0  0
  1  2  1  0  0  0  0
  1 28  1  0  0  0  0
  1 29  1  0  0  0  0
  1 30  1  0  0  0  0
  2  6  1  0  0  0  0
  2  3  1  0  0  0  0
  2 31  1  0  0  0  0
  3  4  1  0  0  0  0
  4  5  1  0  0  0  0
  4 32  1  0  0  0  0
  4 33  1  0  0  0  0
  5  6  1  0  0  0  0
  5 34  1  0  0  0  0
  5 35  1  0  0  0  0
  6  7  1  0  0  0  0
  6  8  1  0  0  0  0
  7 36  1  0  0  0  0
  8  9  1  0  0  0  0
  8 37  1  0  0  0  0
  8 38  1  0  0  0  0
  9 27  1  0  0  0  0
  9 10  1  0  0  0  0
 10 11  2  0  0  0  0
 10 39  1  0  0  0  0
 11 12  1  0  0  0  0
 12 27  2  0  0  0  0
 12 13  1  0  0  0  0
 13 14  1  0  0  0  0
 13 24  2  0  0  0  0
 14 15  1  0  0  0  0
 14 16  1  0  0  0  0
 15 40  1  0  0  0  0
 15 41  1  0  0  0  0
 15 42  1  0  0  0  0
 16 17  1  0  0  0  0
 16 43  1  0  0  0  0
 16 44  1  0  0  0  0
 17 23  1  0  0  0  0
 17 18  1  0  0  0  0
 17 45  1  0  0  0  0
 18 19  1  0  0  0  0
 18 46  1  0  0  0  0
 18 47  1  0  0  0  0
 19 20  1  0  0  0  0
 19 48  1  0  0  0  0
 19 49  1  0  0  0  0
 20 21  2  0  0  0  0
 20 22  2  0  0  0  0
 20 23  1  0  0  0  0
 23 50  1  0  0  0  0
 23 51  1  0  0  0  0
 24 25  1  0  0  0  0
 25 26  2  0  0  0  0
 25 52  1  0  0  0  0
 26 27  1  0  0  0  0
M  END
> <s_m_source_file>
AV-unprocessed.smi

> <i_m_source_file_index>
266

> <i_lp_mmshare_version>
43012

> <i_f3d_flags>
0

> <s_epik_input>
W0NIMl0xW0NIMl1PW0NAQEhdKFtDSDNdKVtDQEBdMShbT0hdKVtDSDJdbihbY0hdbjIpYyhjMjMpbltjSF1uYzNOKFtDSDNdKVtDSDJdW0NAQEhdKFtDSDJdNClbQ0gyXVtDSDJdUzQoPU8pPU8=

> <s_epik_cmdline>
J2VwaWtfcHl0aG9uJywgJy1waCcsICc3LjAnLCAnLXRuJywgJzgnLCAnLW1hJywgJzIwMCcsICctbWV0YWxfYmluZGluZycsICctaW1hZScsICc8aW5maWxlLm1hZT4nLCAnLW9tYWUnLCAnPG91dGZpbGUubWFlPic=

> <r_lp_tautomer_probability>
1

> <r_epik_Ionization_Penalty>
0.00155497

> <r_epik_Ionization_Penalty_Charging>
0

> <r_epik_Ionization_Penalty_Neutral>
0.00155497

> <r_epik_State_Penalty>
-0

> <r_epik_Charging_Adjusted_Penalty>
0

> <i_epik_Tot_Q>
0

> <i_epik_Tot_abs_Q>
0

> <r_epik_Metal_State_Penalty>
-0

> <b_epik_Metal_Only>
0

> <s_lp_Force_Field>
OPLS_2005

> <r_lp_Energy>
30.3558

> <b_lp_Chiralities_Consistent>
1

> <s_lp_Variant>
AV-unprocessed.smi:266-4

> <Gold.Version>
5.8.1

> <Gold.Id.Protein>
6NUR|6NUR_protein|mol2

> <Gold.PLP.Fitness>
46.9188

> <Gold.PLP.PLP>
-35.8374

> <Gold.PLP.part.hbond>
-4.8398

> <Gold.PLP.part.metal>
0.0000

> <Gold.PLP.part.buried>
-6.1959

> <Gold.PLP.part.nonpolar>
-24.8417

> <Gold.PLP.part.repulsive>
0.2641

> <Gold.PLP.ligand.clash>
0.0000

> <Gold.PLP.ligand.torsion>
1.1334

> <Gold.PLP.Chemscore.Hbond>
3.4103

> <Gold.PLP.Chemscore.CHOScore>
1.0000

> <Gold.PLP.Chemscore.Metal>
0.0000

> <Gold.Chemscore.Hbonds>
donor molecule, donor type, donor heavy atom, donor atom, acceptor molecule, acceptor atom, score
      L1  H     7    36       P1  8028  1.00
      P1  H  6931  6943       L1    21  0.80
      P1  H  6934  6947       L1    21  0.71
      P1  H  7989  7998       L1    26  0.95
      L1  C    25    52       P1  7957  1.00

> <Gold.PLP.Chemscore.Internal.Correction>
0.1175

> <Gold.Rescore>
     Score         DG    S(hbond)    S(metal)    S(lipo)     H(rot)  DE(clash)    DE(int)     intcor
     13.17     -17.94       3.09        0.00      71.89       2.45       2.40       2.38       ----

> <Gold.Chemscore.Fitness>
13.1654

> <Gold.Chemscore.DG>
-17.9433

> <Gold.Chemscore.ZeroCoef>
-5.4800

> <Gold.Chemscore.Hbond>
3.0888

> <Gold.Chemscore.Metal>
0.0000

> <Gold.Chemscore.Lipo>
71.8893

> <Gold.Chemscore.Internal_Hbond>
0.0000

> <Gold.Chemscore.DEClash>
2.3956

> <Gold.Chemscore.DEInternal>
2.3823

> <Gold.Chemscore.Rot>
2.4471

> <Gold.Chemscore.Internal.Correction>
   9.000000E+99

> <Gold.Chemscore.Hbonds>
donor molecule, donor type, donor heavy atom, donor atom, acceptor molecule, acceptor atom, score
      L1  H     7    36       P1  8028  0.80
      P1  H  6931  6943       L1    21  0.69
      P1  H  6934  6947       L1    21  0.26
      P1  H  7989  7998       L1    26  0.21

> <Gold.Chemscore.Hbond.Weighted>
-10.3168

> <Gold.Chemscore.Metal.Weighted>
-0.0000

> <Gold.Chemscore.Lipo.Weighted>
-8.4110

> <Gold.Chemscore.Internal_Hbond.Weighted>
0.0000

> <Gold.Chemscore.DEClash.Weighted>
2.3956

> <Gold.Chemscore.DEInternal.Weighted>
2.3823

> <Gold.Chemscore.Rot.Weighted>
6.2645

> <Gold.Chemscore.Internal.Correction.Weighted>
   9.000000E+99

> <Gold.Protein.RotatedTorsions>
[ 6907 6896 6895 6894 ] final -119.23 input  -60.11 | X-H torsion
[ 7974 7965 7964 7962 ] final  -99.33 input  175.53 | X-H torsion
[ 8008 7997 7996 7995 ] final  147.36 input   59.86 | X-H torsion
[ 10167 10162 10161 10158 ] final  117.64 input  -65.29 | X-H torsion
[ 10718 10713 10712 10709 ] final  -14.09 input   66.30 | X-H torsion
[ 10763 10752 10751 10750 ] final  -73.41 input  -60.55 | X-H torsion
[ 11005 11000 10999 10996 ] final -130.81 input  -57.11 | X-H torsion

> <Gold.Protein.ActiveResidues>
 VAL166  LYS551  ARG553  GLY616  TRP617  ASP618  TYR619  PRO620  LYS621  CYS622 
 ASP623  PHE694  ASN695  SER759  ASP760  ASP761  ALA762  ILE779  LEU786  VAL792 
 PHE793  MET794  SER795  GLU796  ALA797  LYS798  CYS799  TRP800  GLU811  SER814 

> <Gold.Protein.RotatedAtoms>
  150.8287  133.8127  159.3107 H   0  0  0  0  0  0  0  0  0  0  0  0  # atno 6907 bound_to 6896
  151.5864  135.1054  160.0038 H   0  0  0  0  0  0  0  0  0  0  0  0  # atno 6908 bound_to 6896
  152.4369  133.7336  159.6658 H   0  0  0  0  0  0  0  0  0  0  0  0  # atno 6909 bound_to 6896
  145.3090  140.9396  143.2780 H   0  0  0  0  0  0  0  0  0  0  0  0  # atno 7974 bound_to 7965
  156.2827  140.2157  156.5525 H   0  0  0  0  0  0  0  0  0  0  0  0  # atno 8008 bound_to 7997
  154.7279  140.0498  157.0722 H   0  0  0  0  0  0  0  0  0  0  0  0  # atno 8009 bound_to 7997
  155.0392  140.3144  155.4733 H   0  0  0  0  0  0  0  0  0  0  0  0  # atno 8010 bound_to 7997
  139.6165  144.7093  151.2728 H   0  0  0  0  0  0  0  0  0  0  0  0  # atno 10167 bound_to 10162
  156.6210  130.4875  149.6165 H   0  0  0  0  0  0  0  0  0  0  0  0  # atno 10718 bound_to 10713
  154.4590  135.5898  153.6243 H   0  0  0  0  0  0  0  0  0  0  0  0  # atno 10763 bound_to 10752
  152.9821  135.6039  154.3510 H   0  0  0  0  0  0  0  0  0  0  0  0  # atno 10764 bound_to 10752
  154.3379  135.2842  155.2417 H   0  0  0  0  0  0  0  0  0  0  0  0  # atno 10765 bound_to 10752
  140.9314  134.1315  157.4231 H   0  0  0  0  0  0  0  0  0  0  0  0  # atno 11005 bound_to 11000
  144.9031  139.4624  143.6623 LP  0  0  0  0  0  0  0  0  0  0  0  0  # atno 17320 bound_to 7965
  146.3125  139.7797  142.9009 LP  0  0  0  0  0  0  0  0  0  0  0  0  # atno 17321 bound_to 7965
  140.7354  143.6737  150.8060 LP  0  0  0  0  0  0  0  0  0  0  0  0  # atno 17342 bound_to 10162
  140.0341  143.5413  152.2747 LP  0  0  0  0  0  0  0  0  0  0  0  0  # atno 17343 bound_to 10162
  156.2312  130.6795  151.1465 LP  0  0  0  0  0  0  0  0  0  0  0  0  # atno 17370 bound_to 10713
  157.7228  131.0670  150.6064 LP  0  0  0  0  0  0  0  0  0  0  0  0  # atno 17371 bound_to 10713
  139.8797  135.0006  156.6020 LP  0  0  0  0  0  0  0  0  0  0  0  0  # atno 17394 bound_to 11000
  140.7858  133.8623  155.8605 LP  0  0  0  0  0  0  0  0  0  0  0  0  # atno 17395 bound_to 11000

$$$$
