AV-unprocessed.smi:3032|AV-procd|sdf|11562|dock5
  -GOLD-   2272016533D 1   1.00000     0.00000
 Structure written by MMmdl.
 37 38  0  0  0  0  0  0  0  0  1 V2000
  153.5365  141.5782  160.6585 C   0  0  0  0  0  0  0  0  0  0  0  0
  152.4829  142.3811  159.8825 C   0  0  1  0  0  0  0  0  0  0  0  0
  152.9740  143.8092  159.5782 C   0  0  0  0  0  0  0  0  0  0  0  0
  151.9242  144.6107  158.7926 C   0  0  0  0  0  0  0  0  0  0  0  0
  151.5252  143.8859  157.4977 C   0  0  0  0  0  0  0  0  0  0  0  0
  151.0172  142.4588  157.7903 C   0  0  1  0  0  0  0  0  0  0  0  0
  150.6506  141.7245  156.4944 C   0  0  0  0  0  0  0  0  0  0  0  0
  151.1748  140.6429  156.2262 O   0  0  0  0  0  0  0  0  0  0  0  0
  149.7276  142.3103  155.7145 N   0  0  0  0  0  0  0  0  0  0  0  0
  149.1544  141.7330  154.5002 C   0  0  0  0  0  0  0  0  0  0  0  0
  147.9442  140.8248  154.7970 C   0  0  0  0  0  0  0  0  0  0  0  0
  147.6008  139.8896  153.6804 C   0  0  0  0  0  0  0  0  0  0  0  0
  148.2729  138.7509  153.5045 N   0  0  0  0  0  0  0  0  0  0  0  0
  147.6148  138.1917  152.4663 N   0  0  0  0  0  0  0  0  0  0  0  0
  146.6228  139.0017  152.1006 C   0  0  0  0  0  0  0  0  0  0  0  0
  146.5498  140.1066  152.8300 N   0  0  0  0  0  0  0  0  0  0  0  0
  152.0778  141.6627  158.5810 C   0  0  0  0  0  0  0  0  0  0  0  0
  154.4508  141.4573  160.0765 H   0  0  0  0  0  0  0  0  0  0  0  0
  153.1667  140.5829  160.9067 H   0  0  0  0  0  0  0  0  0  0  0  0
  153.7996  142.0746  161.5929 H   0  0  0  0  0  0  0  0  0  0  0  0
  151.5969  142.4574  160.5145 H   0  0  0  0  0  0  0  0  0  0  0  0
  153.2108  144.3292  160.5071 H   0  0  0  0  0  0  0  0  0  0  0  0
  153.9006  143.7660  159.0040 H   0  0  0  0  0  0  0  0  0  0  0  0
  151.0409  144.7646  159.4136 H   0  0  0  0  0  0  0  0  0  0  0  0
  152.3136  145.6017  158.5582 H   0  0  0  0  0  0  0  0  0  0  0  0
  150.7550  144.4605  156.9814 H   0  0  0  0  0  0  0  0  0  0  0  0
  152.3857  143.8510  156.8274 H   0  0  0  0  0  0  0  0  0  0  0  0
  150.1204  142.5369  158.4077 H   0  0  0  0  0  0  0  0  0  0  0  0
  149.3534  143.1988  156.0147 H   0  0  0  0  0  0  0  0  0  0  0  0
  148.8466  142.5490  153.8464 H   0  0  0  0  0  0  0  0  0  0  0  0
  149.9087  141.1723  153.9461 H   0  0  0  0  0  0  0  0  0  0  0  0
  148.1429  140.2367  155.6940 H   0  0  0  0  0  0  0  0  0  0  0  0
  147.0729  141.4392  155.0266 H   0  0  0  0  0  0  0  0  0  0  0  0
  145.9417  138.7786  151.2925 H   0  0  0  0  0  0  0  0  0  0  0  0
  152.9646  141.5059  157.9641 H   0  0  0  0  0  0  0  0  0  0  0  0
  151.6916  140.6703  158.8181 H   0  0  0  0  0  0  0  0  0  0  0  0
  147.8650  137.2987  152.0664 H   0  0  0  0  0  0  0  0  0  0  0  0
  1  2  1  0  0  0  0
  1 18  1  0  0  0  0
  1 19  1  0  0  0  0
  1 20  1  0  0  0  0
  2 17  1  0  0  0  0
  2  3  1  0  0  0  0
  2 21  1  0  0  0  0
  3  4  1  0  0  0  0
  3 22  1  0  0  0  0
  3 23  1  0  0  0  0
  4  5  1  0  0  0  0
  4 24  1  0  0  0  0
  4 25  1  0  0  0  0
  5  6  1  0  0  0  0
  5 26  1  0  0  0  0
  5 27  1  0  0  0  0
  6  7  1  0  0  0  0
  6 17  1  0  0  0  0
  6 28  1  0  0  0  0
  7  8  2  0  0  0  0
  7  9  1  0  0  0  0
  9 10  1  0  0  0  0
  9 29  1  0  0  0  0
 10 11  1  0  0  0  0
 10 30  1  0  0  0  0
 10 31  1  0  0  0  0
 11 32  1  0  0  0  0
 11 33  1  0  0  0  0
 11 12  1  0  0  0  0
 12 16  1  0  0  0  0
 12 13  2  0  0  0  0
 13 14  1  0  0  0  0
 14 15  1  0  0  0  0
 14 37  1  0  0  0  0
 15 16  2  0  0  0  0
 15 34  1  0  0  0  0
 17 35  1  0  0  0  0
 17 36  1  0  0  0  0
M  END
> <s_m_source_file>
AV-unprocessed.smi

> <i_m_source_file_index>
3032

> <i_lp_mmshare_version>
43012

> <i_f3d_flags>
0

> <s_epik_input>
W0NIM11bQ0BASF0xW0NIMl1bQ0gyXVtDSDJdW0NASF0oW0NIMl0xKUMoPU8pW05IXVtDSDJdW0NIMl1jMm5uW2NIXVtuSF0y

> <s_epik_cmdline>
J2VwaWtfcHl0aG9uJywgJy1waCcsICc3LjAnLCAnLXRuJywgJzgnLCAnLW1hJywgJzIwMCcsICctbWV0YWxfYmluZGluZycsICctaW1hZScsICc8aW5maWxlLm1hZT4nLCAnLW9tYWUnLCAnPG91dGZpbGUubWFlPic=

> <r_epik_Ionization_Penalty>
0.000752022

> <r_epik_Ionization_Penalty_Charging>
0

> <r_epik_Ionization_Penalty_Neutral>
0.000752022

> <r_epik_State_Penalty>
0.639926

> <r_epik_Charging_Adjusted_Penalty>
0.639926

> <i_epik_Tot_Q>
0

> <i_epik_Tot_abs_Q>
0

> <r_epik_Metal_State_Penalty>
0.76532

> <b_epik_Metal_Only>
0

> <s_lp_Force_Field>
OPLS_2005

> <r_lp_Energy>
8.74502

> <b_lp_Chiralities_Consistent>
1

> <s_lp_Variant>
AV-unprocessed.smi:3032-6

> <Gold.Version>
5.8.1

> <Gold.Id.Protein>
6NUR|6NUR_protein|mol2

> <Gold.PLP.Fitness>
44.6880

> <Gold.PLP.PLP>
-37.0758

> <Gold.PLP.part.hbond>
-2.7248

> <Gold.PLP.part.metal>
0.0000

> <Gold.PLP.part.buried>
-3.2390

> <Gold.PLP.part.nonpolar>
-34.9174

> <Gold.PLP.part.repulsive>
2.8509

> <Gold.PLP.ligand.clash>
0.0000

> <Gold.PLP.ligand.torsion>
0.5311

> <Gold.PLP.Chemscore.Hbond>
1.8960

> <Gold.PLP.Chemscore.CHOScore>
0.9883

> <Gold.PLP.Chemscore.Metal>
0.0000

> <Gold.Chemscore.Hbonds>
donor molecule, donor type, donor heavy atom, donor atom, acceptor molecule, acceptor atom, score
      L1  H     9    29       P1  8028  0.99
      L1  H    14    37       P1  7948  0.91
      L1  C    15    34       P1 10171  0.98

> <Gold.PLP.Chemscore.Internal.Correction>
0.0215

> <Gold.Rescore>
     Score         DG    S(hbond)    S(metal)    S(lipo)     H(rot)  DE(clash)    DE(int)     intcor
     15.69     -16.70       1.85        0.00      92.34       2.25       0.46       0.54       ----

> <Gold.Chemscore.Fitness>
15.6946

> <Gold.Chemscore.DG>
-16.6997

> <Gold.Chemscore.ZeroCoef>
-5.4800

> <Gold.Chemscore.Hbond>
1.8492

> <Gold.Chemscore.Metal>
0.0000

> <Gold.Chemscore.Lipo>
92.3400

> <Gold.Chemscore.Internal_Hbond>
0.0000

> <Gold.Chemscore.DEClash>
0.4623

> <Gold.Chemscore.DEInternal>
0.5428

> <Gold.Chemscore.Rot>
2.2501

> <Gold.Chemscore.Internal.Correction>
   9.000000E+99

> <Gold.Chemscore.Hbonds>
donor molecule, donor type, donor heavy atom, donor atom, acceptor molecule, acceptor atom, score
      L1  H     9    29       P1  8028  0.94
      L1  H    14    37       P1  7948  0.84

> <Gold.Chemscore.Hbond.Weighted>
-6.1763

> <Gold.Chemscore.Metal.Weighted>
-0.0000

> <Gold.Chemscore.Lipo.Weighted>
-10.8038

> <Gold.Chemscore.Internal_Hbond.Weighted>
0.0000

> <Gold.Chemscore.DEClash.Weighted>
0.4623

> <Gold.Chemscore.DEInternal.Weighted>
0.5428

> <Gold.Chemscore.Rot.Weighted>
5.7603

> <Gold.Chemscore.Internal.Correction.Weighted>
   9.000000E+99

> <Gold.Protein.RotatedTorsions>
[ 6907 6896 6895 6894 ] final  150.50 input  -60.11 | X-H torsion
[ 7974 7965 7964 7962 ] final  115.53 input  175.53 | X-H torsion
[ 8008 7997 7996 7995 ] final   64.61 input   59.86 | X-H torsion
[ 10167 10162 10161 10158 ] final  -47.52 input  -65.29 | X-H torsion
[ 10718 10713 10712 10709 ] final  104.48 input   66.30 | X-H torsion
[ 10763 10752 10751 10750 ] final   82.00 input  -60.55 | X-H torsion
[ 11005 11000 10999 10996 ] final   65.14 input  -57.11 | X-H torsion

> <Gold.Protein.ActiveResidues>
 VAL166  LYS551  ARG553  GLY616  TRP617  ASP618  TYR619  PRO620  LYS621  CYS622 
 ASP623  PHE694  ASN695  SER759  ASP760  ASP761  ALA762  ILE779  LEU786  VAL792 
 PHE793  MET794  SER795  GLU796  ALA797  LYS798  CYS799  TRP800  GLU811  SER814 

> <Gold.Protein.RotatedAtoms>
  152.1136  133.4314  159.4642 H   0  0  0  0  0  0  0  0  0  0  0  0  # atno 6907 bound_to 6896
  150.6868  134.2619  159.4562 H   0  0  0  0  0  0  0  0  0  0  0  0  # atno 6908 bound_to 6896
  152.0490  134.9665  160.0625 H   0  0  0  0  0  0  0  0  0  0  0  0  # atno 6909 bound_to 6896
  145.1908  139.3001  143.4369 H   0  0  0  0  0  0  0  0  0  0  0  0  # atno 7974 bound_to 7965
  155.6488  140.3497  155.4740 H   0  0  0  0  0  0  0  0  0  0  0  0  # atno 8008 bound_to 7997
  155.9865  140.1185  157.0701 H   0  0  0  0  0  0  0  0  0  0  0  0  # atno 8009 bound_to 7997
  154.4206  140.1128  156.5493 H   0  0  0  0  0  0  0  0  0  0  0  0  # atno 8010 bound_to 7997
  140.6771  143.2780  151.3939 H   0  0  0  0  0  0  0  0  0  0  0  0  # atno 10167 bound_to 10162
  157.6739  131.0805  150.5712 H   0  0  0  0  0  0  0  0  0  0  0  0  # atno 10718 bound_to 10713
  153.1165  135.4744  154.9123 H   0  0  0  0  0  0  0  0  0  0  0  0  # atno 10763 bound_to 10752
  154.7533  135.3112  154.8519 H   0  0  0  0  0  0  0  0  0  0  0  0  # atno 10764 bound_to 10752
  153.9095  135.6866  153.4805 H   0  0  0  0  0  0  0  0  0  0  0  0  # atno 10765 bound_to 10752
  139.9914  134.6586  156.0085 H   0  0  0  0  0  0  0  0  0  0  0  0  # atno 11005 bound_to 11000
  146.3436  140.2120  142.8590 LP  0  0  0  0  0  0  0  0  0  0  0  0  # atno 17320 bound_to 7965
  145.0043  140.8659  143.5262 LP  0  0  0  0  0  0  0  0  0  0  0  0  # atno 17321 bound_to 7965
  139.6070  144.1176  152.2259 LP  0  0  0  0  0  0  0  0  0  0  0  0  # atno 17342 bound_to 10162
  140.0578  144.5881  150.7286 LP  0  0  0  0  0  0  0  0  0  0  0  0  # atno 17343 bound_to 10162
  156.6014  130.4355  149.5896 LP  0  0  0  0  0  0  0  0  0  0  0  0  # atno 17370 bound_to 10713
  156.2503  130.6903  151.1639 LP  0  0  0  0  0  0  0  0  0  0  0  0  # atno 17371 bound_to 10713
  141.1569  133.6542  156.4189 LP  0  0  0  0  0  0  0  0  0  0  0  0  # atno 17394 bound_to 11000
  140.4902  134.6583  157.5207 LP  0  0  0  0  0  0  0  0  0  0  0  0  # atno 17395 bound_to 11000

$$$$
