AV-unprocessed.smi:368|AV-procd|sdf|2434|dock4
  -GOLD-   2262022373D 1   1.00000     0.00000
 Structure written by MMmdl.
 37 38  0  0  0  0  0  0  0  0  1 V2000
  152.9201  139.5438  159.6737 O   0  0  0  0  0  0  0  0  0  0  0  0
  152.2551  139.6658  158.6440 C   0  0  0  0  0  0  0  0  0  0  0  0
  151.6943  138.4364  157.9144 C   0  0  0  0  0  0  0  0  0  0  0  0
  151.0110  138.7623  156.6519 N   0  0  0  0  0  0  0  0  0  0  0  0
  149.6250  138.5403  156.5889 C   0  0  0  0  0  0  0  0  0  0  0  0
  148.9344  138.8113  155.4721 C   0  0  0  0  0  0  0  0  0  0  0  0
  149.7055  139.3442  154.3413 C   0  0  0  0  0  0  0  0  0  0  0  0
  150.9697  139.5430  154.3937 N   0  0  0  0  0  0  0  0  0  0  0  0
  151.6935  139.2524  155.5659 C   0  0  0  0  0  0  0  0  0  0  0  0
  152.9102  139.4325  155.6205 O   0  0  0  0  0  0  0  0  0  0  0  0
  151.9615  140.8541  158.0938 N   0  0  0  0  0  0  0  0  0  0  0  0
  152.3826  142.1567  158.6042 C   0  0  0  0  0  0  0  0  0  0  0  0
  152.0056  142.2488  160.0977 C   0  0  0  0  0  0  0  0  0  0  0  0
  152.6905  143.4179  160.8259 C   0  0  0  0  0  0  0  0  0  0  0  0
  151.9502  144.7654  160.7645 C   0  0  0  0  0  0  0  0  0  0  0  0
  151.2944  145.1285  159.4210 C   0  0  0  0  0  0  0  0  0  0  0  0
  152.0788  144.7053  158.1687 C   0  0  0  0  0  0  0  0  0  0  0  0
  151.7654  143.2655  157.7267 C   0  0  0  0  0  0  0  0  0  0  0  0
  152.5179  137.7445  157.7323 H   0  0  0  0  0  0  0  0  0  0  0  0
  151.0138  137.9024  158.5803 H   0  0  0  0  0  0  0  0  0  0  0  0
  149.1752  138.1392  157.4854 H   0  0  0  0  0  0  0  0  0  0  0  0
  147.8711  138.6620  155.3562 H   0  0  0  0  0  0  0  0  0  0  0  0
  149.1248  139.5626  153.4413 H   0  0  0  0  0  0  0  0  0  0  0  0
  151.4076  140.8570  157.2496 H   0  0  0  0  0  0  0  0  0  0  0  0
  153.4701  142.2197  158.5310 H   0  0  0  0  0  0  0  0  0  0  0  0
  150.9235  142.2885  160.2300 H   0  0  0  0  0  0  0  0  0  0  0  0
  152.3302  141.3282  160.5854 H   0  0  0  0  0  0  0  0  0  0  0  0
  152.8135  143.1545  161.8770 H   0  0  0  0  0  0  0  0  0  0  0  0
  153.7047  143.5395  160.4437 H   0  0  0  0  0  0  0  0  0  0  0  0
  151.1791  144.7858  161.5354 H   0  0  0  0  0  0  0  0  0  0  0  0
  152.6565  145.5499  161.0390 H   0  0  0  0  0  0  0  0  0  0  0  0
  150.2902  144.7050  159.3790 H   0  0  0  0  0  0  0  0  0  0  0  0
  151.1490  146.2092  159.4009 H   0  0  0  0  0  0  0  0  0  0  0  0
  151.7884  145.3682  157.3531 H   0  0  0  0  0  0  0  0  0  0  0  0
  153.1507  144.8533  158.3044 H   0  0  0  0  0  0  0  0  0  0  0  0
  152.1317  143.1406  156.7067 H   0  0  0  0  0  0  0  0  0  0  0  0
  150.6841  143.1322  157.6653 H   0  0  0  0  0  0  0  0  0  0  0  0
  1  2  2  0  0  0  0
  2  3  1  0  0  0  0
  2 11  1  0  0  0  0
  3  4  1  0  0  0  0
  3 19  1  0  0  0  0
  3 20  1  0  0  0  0
  4  9  1  0  0  0  0
  4  5  1  0  0  0  0
  5  6  2  0  0  0  0
  5 21  1  0  0  0  0
  6  7  1  0  0  0  0
  6 22  1  0  0  0  0
  7  8  2  0  0  0  0
  7 23  1  0  0  0  0
  8  9  1  0  0  0  0
  9 10  2  0  0  0  0
 11 12  1  0  0  0  0
 11 24  1  0  0  0  0
 12 18  1  0  0  0  0
 12 13  1  0  0  0  0
 12 25  1  0  0  0  0
 13 14  1  0  0  0  0
 13 26  1  0  0  0  0
 13 27  1  0  0  0  0
 14 15  1  0  0  0  0
 14 28  1  0  0  0  0
 14 29  1  0  0  0  0
 15 16  1  0  0  0  0
 15 30  1  0  0  0  0
 15 31  1  0  0  0  0
 16 17  1  0  0  0  0
 16 32  1  0  0  0  0
 16 33  1  0  0  0  0
 17 18  1  0  0  0  0
 17 34  1  0  0  0  0
 17 35  1  0  0  0  0
 18 36  1  0  0  0  0
 18 37  1  0  0  0  0
M  END
> <s_m_source_file>
AV-unprocessed.smi

> <i_m_source_file_index>
368

> <i_lp_mmshare_version>
43012

> <i_f3d_flags>
0

> <s_epik_input>
W0NIMl0xW0NIMl1bQ0gyXVtDSDJdW0NIMl1bQ0gyXVtDSF0xW05IXUMoPU8pW0NIMl1uMltjSF1bY0hdW2NIXW5jMj1P

> <s_epik_cmdline>
J2VwaWtfcHl0aG9uJywgJy1waCcsICc3LjAnLCAnLXRuJywgJzgnLCAnLW1hJywgJzIwMCcsICctbWV0YWxfYmluZGluZycsICctaW1hZScsICc8aW5maWxlLm1hZT4nLCAnLW9tYWUnLCAnPG91dGZpbGUubWFlPic=

> <r_lp_tautomer_probability>
1

> <r_epik_Ionization_Penalty>
7.18069e-06

> <r_epik_Ionization_Penalty_Charging>
1.77491e-08

> <r_epik_Ionization_Penalty_Neutral>
7.16294e-06

> <r_epik_State_Penalty>
-0

> <r_epik_Charging_Adjusted_Penalty>
1.77491e-08

> <i_epik_Tot_Q>
0

> <i_epik_Tot_abs_Q>
0

> <r_epik_Metal_State_Penalty>
-0

> <b_epik_Metal_Only>
0

> <s_lp_Force_Field>
OPLS_2005

> <r_lp_Energy>
17.0449

> <b_lp_Chiralities_Consistent>
1

> <s_lp_Variant>
AV-unprocessed.smi:368-1

> <Gold.Version>
5.8.1

> <Gold.Id.Protein>
6NUR|6NUR_protein|mol2

> <Gold.PLP.Fitness>
44.5184

> <Gold.PLP.PLP>
-35.7132

> <Gold.PLP.part.hbond>
-2.0000

> <Gold.PLP.part.metal>
0.0000

> <Gold.PLP.part.buried>
-5.7502

> <Gold.PLP.part.nonpolar>
-27.5798

> <Gold.PLP.part.repulsive>
0.2126

> <Gold.PLP.ligand.clash>
0.0000

> <Gold.PLP.ligand.torsion>
0.1045

> <Gold.PLP.Chemscore.Hbond>
2.0000

> <Gold.PLP.Chemscore.CHOScore>
1.0000

> <Gold.PLP.Chemscore.Metal>
0.0000

> <Gold.Chemscore.Hbonds>
donor molecule, donor type, donor heavy atom, donor atom, acceptor molecule, acceptor atom, score
      P1  H  7989  7998       L1     8  1.00
      P1  H  7997  8008       L1    10  1.00
      L1  C     7    23       P1  7957  1.00

> <Gold.PLP.Chemscore.Internal.Correction>
0.0142

> <Gold.Rescore>
     Score         DG    S(hbond)    S(metal)    S(lipo)     H(rot)  DE(clash)    DE(int)     intcor
     17.71     -19.13       1.81        0.00      97.66       1.50       0.02       1.39       ----

> <Gold.Chemscore.Fitness>
17.7098

> <Gold.Chemscore.DG>
-19.1263

> <Gold.Chemscore.ZeroCoef>
-5.4800

> <Gold.Chemscore.Hbond>
1.8127

> <Gold.Chemscore.Metal>
0.0000

> <Gold.Chemscore.Lipo>
97.6589

> <Gold.Chemscore.Internal_Hbond>
0.0000

> <Gold.Chemscore.DEClash>
0.0246

> <Gold.Chemscore.DEInternal>
1.3918

> <Gold.Chemscore.Rot>
1.4977

> <Gold.Chemscore.Internal.Correction>
   9.000000E+99

> <Gold.Chemscore.Hbonds>
donor molecule, donor type, donor heavy atom, donor atom, acceptor molecule, acceptor atom, score
      P1  H  7989  7998       L1     8  0.83
      P1  H  7997  8008       L1    10  1.00

> <Gold.Chemscore.Hbond.Weighted>
-6.0543

> <Gold.Chemscore.Metal.Weighted>
-0.0000

> <Gold.Chemscore.Lipo.Weighted>
-11.4261

> <Gold.Chemscore.Internal_Hbond.Weighted>
0.0000

> <Gold.Chemscore.DEClash.Weighted>
0.0246

> <Gold.Chemscore.DEInternal.Weighted>
1.3918

> <Gold.Chemscore.Rot.Weighted>
3.8341

> <Gold.Chemscore.Internal.Correction.Weighted>
   9.000000E+99

> <Gold.Protein.RotatedTorsions>
[ 6907 6896 6895 6894 ] final   11.33 input  -60.11 | X-H torsion
[ 7974 7965 7964 7962 ] final   56.57 input  175.53 | X-H torsion
[ 8008 7997 7996 7995 ] final  -32.52 input   59.86 | X-H torsion
[ 10167 10162 10161 10158 ] final  -96.84 input  -65.29 | X-H torsion
[ 10718 10713 10712 10709 ] final -179.49 input   66.30 | X-H torsion
[ 10763 10752 10751 10750 ] final  165.72 input  -60.55 | X-H torsion
[ 11005 11000 10999 10996 ] final -179.94 input  -57.11 | X-H torsion

> <Gold.Protein.ActiveResidues>
 VAL166  LYS551  ARG553  GLY616  TRP617  ASP618  TYR619  PRO620  LYS621  CYS622 
 ASP623  PHE694  ASN695  SER759  ASP760  ASP761  ALA762  ILE779  LEU786  VAL792 
 PHE793  MET794  SER795  GLU796  ALA797  LYS798  CYS799  TRP800  GLU811  SER814 

> <Gold.Protein.RotatedAtoms>
  151.7526  135.0829  160.0332 H   0  0  0  0  0  0  0  0  0  0  0  0  # atno 6907 bound_to 6896
  152.3406  133.6058  159.5882 H   0  0  0  0  0  0  0  0  0  0  0  0  # atno 6908 bound_to 6896
  150.7477  133.9644  159.3567 H   0  0  0  0  0  0  0  0  0  0  0  0  # atno 6909 bound_to 6896
  145.9383  139.3866  143.0379 H   0  0  0  0  0  0  0  0  0  0  0  0  # atno 7974 bound_to 7965
  154.4177  140.1735  156.1740 H   0  0  0  0  0  0  0  0  0  0  0  0  # atno 8008 bound_to 7997
  155.9737  140.3383  155.6575 H   0  0  0  0  0  0  0  0  0  0  0  0  # atno 8009 bound_to 7997
  155.6591  140.0699  157.2551 H   0  0  0  0  0  0  0  0  0  0  0  0  # atno 8010 bound_to 7997
  140.2896  143.3230  152.0359 H   0  0  0  0  0  0  0  0  0  0  0  0  # atno 10167 bound_to 10162
  156.8598  130.9748  151.3084 H   0  0  0  0  0  0  0  0  0  0  0  0  # atno 10718 bound_to 10713
  154.3283  135.2755  155.2485 H   0  0  0  0  0  0  0  0  0  0  0  0  # atno 10763 bound_to 10752
  154.4808  135.5859  153.6392 H   0  0  0  0  0  0  0  0  0  0  0  0  # atno 10764 bound_to 10752
  152.9869  135.6111  154.3473 H   0  0  0  0  0  0  0  0  0  0  0  0  # atno 10765 bound_to 10752
  140.4131  134.6674  157.4624 H   0  0  0  0  0  0  0  0  0  0  0  0  # atno 11005 bound_to 11000
  145.8334  140.9619  143.0837 LP  0  0  0  0  0  0  0  0  0  0  0  0  # atno 17320 bound_to 7965
  144.6775  140.0191  143.7484 LP  0  0  0  0  0  0  0  0  0  0  0  0  # atno 17321 bound_to 7965
  139.4941  144.6534  151.6626 LP  0  0  0  0  0  0  0  0  0  0  0  0  # atno 17342 bound_to 10162
  140.5743  144.0055  150.6233 LP  0  0  0  0  0  0  0  0  0  0  0  0  # atno 17343 bound_to 10162
  157.6256  130.8689  149.9184 LP  0  0  0  0  0  0  0  0  0  0  0  0  # atno 17370 bound_to 10713
  156.0783  130.3676  150.0633 LP  0  0  0  0  0  0  0  0  0  0  0  0  # atno 17371 bound_to 10713
  140.0253  134.6486  155.9181 LP  0  0  0  0  0  0  0  0  0  0  0  0  # atno 17394 bound_to 11000
  141.1813  133.6547  156.5033 LP  0  0  0  0  0  0  0  0  0  0  0  0  # atno 17395 bound_to 11000

$$$$
