AV-unprocessed.smi:3166|AV-procd|sdf|12093|dock1
  -GOLD-   2272017523D 1   1.00000     0.00000
 Structure written by MMmdl.
 41 42  0  0  0  0  0  0  0  0  2 V2000
  145.4461  134.6414  153.6645 C   0  0  0  0  0  0  0  0  0  0  0  0
  145.4926  136.0594  153.0782 C   0  0  2  0  0  0  0  0  0  0  0  0
  145.4473  136.0288  151.5305 C   0  0  0  0  0  0  0  0  0  0  0  0
  145.4525  134.6751  151.0062 N   0  0  0  0  0  0  0  0  0  0  0  0
  144.4474  134.0187  150.3274 C   0  0  0  0  0  0  0  0  0  0  0  0
  144.9083  132.7687  150.0284 C   0  0  0  0  0  0  0  0  0  0  0  0
  146.2232  132.7542  150.5716 C   0  0  0  0  0  0  0  0  0  0  0  0
  146.5455  133.8968  151.1562 N   0  0  0  0  0  0  0  0  0  0  0  0
  146.7016  136.7518  153.5777 N   0  3  0  0  0  0  0  0  0  0  0  0
  146.5312  138.1890  153.8852 C   0  0  0  0  0  0  0  0  0  0  0  0
  147.5278  139.0783  153.1033 C   0  0  0  0  0  0  0  0  0  0  0  0
  147.6780  138.5028  151.8193 O   0  0  0  0  0  0  0  0  0  0  0  0
  147.0445  140.5393  152.9290 C   0  0  0  0  0  0  0  0  0  0  0  0
  147.0658  141.3244  154.2524 C   0  0  0  0  0  0  0  0  0  0  0  0
  148.4634  141.2985  154.8902 C   0  0  0  0  0  0  0  0  0  0  0  0
  148.9680  139.8598  155.0819 C   0  0  0  0  0  0  0  0  0  0  0  0
  148.9282  139.0697  153.7606 C   0  0  0  0  0  0  0  0  0  0  0  0
  144.5406  134.1189  153.3537 H   0  0  0  0  0  0  0  0  0  0  0  0
  145.4503  134.6662  154.7548 H   0  0  0  0  0  0  0  0  0  0  0  0
  146.3018  134.0476  153.3408 H   0  0  0  0  0  0  0  0  0  0  0  0
  144.6214  136.5903  153.4664 H   0  0  0  0  0  0  0  0  0  0  0  0
  144.5733  136.5542  151.1420 H   0  0  0  0  0  0  0  0  0  0  0  0
  146.3099  136.5464  151.1082 H   0  0  0  0  0  0  0  0  0  0  0  0
  143.4990  134.4904  150.1152 H   0  0  0  0  0  0  0  0  0  0  0  0
  144.3858  131.9838  149.5016 H   0  0  0  0  0  0  0  0  0  0  0  0
  146.9480  131.9535  150.5583 H   0  0  0  0  0  0  0  0  0  0  0  0
  146.9843  136.3010  154.4364 H   0  0  0  0  0  0  0  0  0  0  0  0
  145.5103  138.4801  153.6497 H   0  0  0  0  0  0  0  0  0  0  0  0
  146.6593  138.3383  154.9583 H   0  0  0  0  0  0  0  0  0  0  0  0
  148.1940  137.7145  151.9014 H   0  0  0  0  0  0  0  0  0  0  0  0
  147.6930  141.0520  152.2167 H   0  0  0  0  0  0  0  0  0  0  0  0
  146.0452  140.5731  152.4943 H   0  0  0  0  0  0  0  0  0  0  0  0
  146.7632  142.3563  154.0728 H   0  0  0  0  0  0  0  0  0  0  0  0
  146.3344  140.9106  154.9471 H   0  0  0  0  0  0  0  0  0  0  0  0
  149.1618  141.8466  154.2565 H   0  0  0  0  0  0  0  0  0  0  0  0
  148.4452  141.8179  155.8490 H   0  0  0  0  0  0  0  0  0  0  0  0
  149.9874  139.8770  155.4682 H   0  0  0  0  0  0  0  0  0  0  0  0
  148.3672  139.3566  155.8398 H   0  0  0  0  0  0  0  0  0  0  0  0
  149.2617  138.0453  153.9331 H   0  0  0  0  0  0  0  0  0  0  0  0
  149.6550  139.5105  153.0762 H   0  0  0  0  0  0  0  0  0  0  0  0
  147.4444  136.6449  152.9021 H   0  0  0  0  0  0  0  0  0  0  0  0
  1  2  1  0  0  0  0
  1 18  1  0  0  0  0
  1 19  1  0  0  0  0
  1 20  1  0  0  0  0
  2  3  1  0  0  0  0
  2  9  1  0  0  0  0
  2 21  1  0  0  0  0
  3  4  1  0  0  0  0
  3 22  1  0  0  0  0
  3 23  1  0  0  0  0
  4  8  1  0  0  0  0
  4  5  1  0  0  0  0
  5  6  2  0  0  0  0
  5 24  1  0  0  0  0
  6  7  1  0  0  0  0
  6 25  1  0  0  0  0
  7  8  2  0  0  0  0
  7 26  1  0  0  0  0
  9 10  1  0  0  0  0
  9 27  1  0  0  0  0
  9 41  1  0  0  0  0
 10 11  1  0  0  0  0
 10 28  1  0  0  0  0
 10 29  1  0  0  0  0
 11 17  1  0  0  0  0
 11 12  1  0  0  0  0
 11 13  1  0  0  0  0
 12 30  1  0  0  0  0
 13 14  1  0  0  0  0
 13 31  1  0  0  0  0
 13 32  1  0  0  0  0
 14 15  1  0  0  0  0
 14 33  1  0  0  0  0
 14 34  1  0  0  0  0
 15 16  1  0  0  0  0
 15 35  1  0  0  0  0
 15 36  1  0  0  0  0
 16 17  1  0  0  0  0
 16 37  1  0  0  0  0
 16 38  1  0  0  0  0
 17 39  1  0  0  0  0
 17 40  1  0  0  0  0
M  CHG  1   9   1
M  END
> <s_m_source_file>
AV-unprocessed.smi

> <i_m_source_file_index>
3166

> <i_lp_mmshare_version>
43012

> <i_f3d_flags>
0

> <s_epik_input>
bjFbY0hdW2NIXVtjSF1uMVtDSDJdW0NAQEhdKFtDSDNdKVtOSF1bQ0gyXUMyKFtPSF0pW0NIMl1bQ0gyXVtDSDJdW0NIMl1bQ0gyXTI=

> <s_epik_cmdline>
J2VwaWtfcHl0aG9uJywgJy1waCcsICc3LjAnLCAnLXRuJywgJzgnLCAnLW1hJywgJzIwMCcsICctbWV0YWxfYmluZGluZycsICctaW1hZScsICc8aW5maWxlLm1hZT4nLCAnLW9tYWUnLCAnPG91dGZpbGUubWFlPic=

> <r_lp_tautomer_probability>
1

> <r_epik_Ionization_Penalty>
0.0111521

> <r_epik_Ionization_Penalty_Charging>
0.0111472

> <r_epik_Ionization_Penalty_Neutral>
4.96355e-06

> <r_epik_State_Penalty>
0.00856328

> <r_epik_Charging_Adjusted_Penalty>
0.0197104

> <i_epik_Tot_Q>
1

> <i_epik_Tot_abs_Q>
1

> <r_epik_Metal_State_Penalty>
0.00856387

> <b_epik_Metal_Only>
0

> <s_lp_Force_Field>
OPLS_2005

> <r_lp_Energy>
18.587

> <b_lp_Chiralities_Consistent>
1

> <s_lp_Variant>
AV-unprocessed.smi:3166-1

> <Gold.Version>
5.8.1

> <Gold.Id.Protein>
6NUR|6NUR_protein|mol2

> <Gold.PLP.Fitness>
40.4036

> <Gold.PLP.PLP>
-29.3573

> <Gold.PLP.part.hbond>
-3.8887

> <Gold.PLP.part.metal>
0.0000

> <Gold.PLP.part.buried>
0.6415

> <Gold.PLP.part.nonpolar>
-25.4819

> <Gold.PLP.part.repulsive>
0.2089

> <Gold.PLP.ligand.clash>
0.0000

> <Gold.PLP.ligand.torsion>
1.9929

> <Gold.PLP.Chemscore.Hbond>
3.0000

> <Gold.PLP.Chemscore.CHOScore>
2.0000

> <Gold.PLP.Chemscore.Metal>
0.0000

> <Gold.Chemscore.Hbonds>
donor molecule, donor type, donor heavy atom, donor atom, acceptor molecule, acceptor atom, score
      L1  H     9    41       P1  7948  2.00
      L1  H    12    30       P1  7948  1.00
      L1  C     5    24       P1 10186  0.95
      L1  C     7    26       P1 10747  1.00

> <Gold.PLP.Chemscore.Internal.Correction>
0.0322

> <Gold.Rescore>
     Score         DG    S(hbond)    S(metal)    S(lipo)     H(rot)  DE(clash)    DE(int)     intcor
     12.00     -15.36       1.99        0.00      75.66       2.20       0.14       3.22       ----

> <Gold.Chemscore.Fitness>
12.0018

> <Gold.Chemscore.DG>
-15.3614

> <Gold.Chemscore.ZeroCoef>
-5.4800

> <Gold.Chemscore.Hbond>
1.9937

> <Gold.Chemscore.Metal>
0.0000

> <Gold.Chemscore.Lipo>
75.6583

> <Gold.Chemscore.Internal_Hbond>
0.0000

> <Gold.Chemscore.DEClash>
0.1372

> <Gold.Chemscore.DEInternal>
3.2223

> <Gold.Chemscore.Rot>
2.1991

> <Gold.Chemscore.Internal.Correction>
   9.000000E+99

> <Gold.Chemscore.Hbonds>
donor molecule, donor type, donor heavy atom, donor atom, acceptor molecule, acceptor atom, score
      L1  H     9    41       P1  7948  1.00
      L1  H    12    30       P1  7948  1.00

> <Gold.Chemscore.Hbond.Weighted>
-6.6591

> <Gold.Chemscore.Metal.Weighted>
-0.0000

> <Gold.Chemscore.Lipo.Weighted>
-8.8520

> <Gold.Chemscore.Internal_Hbond.Weighted>
0.0000

> <Gold.Chemscore.DEClash.Weighted>
0.1372

> <Gold.Chemscore.DEInternal.Weighted>
3.2223

> <Gold.Chemscore.Rot.Weighted>
5.6298

> <Gold.Chemscore.Internal.Correction.Weighted>
   9.000000E+99

> <Gold.Protein.RotatedTorsions>
[ 6907 6896 6895 6894 ] final   80.54 input  -60.11 | X-H torsion
[ 7974 7965 7964 7962 ] final   11.99 input  175.53 | X-H torsion
[ 8008 7997 7996 7995 ] final  -83.05 input   59.86 | X-H torsion
[ 10167 10162 10161 10158 ] final  147.89 input  -65.29 | X-H torsion
[ 10718 10713 10712 10709 ] final    8.88 input   66.30 | X-H torsion
[ 10763 10752 10751 10750 ] final   76.19 input  -60.55 | X-H torsion
[ 11005 11000 10999 10996 ] final   24.71 input  -57.11 | X-H torsion

> <Gold.Protein.ActiveResidues>
 VAL166  LYS551  ARG553  GLY616  TRP617  ASP618  TYR619  PRO620  LYS621  CYS622 
 ASP623  PHE694  ASN695  SER759  ASP760  ASP761  ALA762  ILE779  LEU786  VAL792 
 PHE793  MET794  SER795  GLU796  ALA797  LYS798  CYS799  TRP800  GLU811  SER814 

> <Gold.Protein.RotatedAtoms>
  152.5238  134.3342  159.9193 H   0  0  0  0  0  0  0  0  0  0  0  0  # atno 6907 bound_to 6896
  151.3291  133.4002  159.2668 H   0  0  0  0  0  0  0  0  0  0  0  0  # atno 6908 bound_to 6896
  150.9895  134.9251  159.7949 H   0  0  0  0  0  0  0  0  0  0  0  0  # atno 6909 bound_to 6896
  146.2360  139.9402  142.8484 H   0  0  0  0  0  0  0  0  0  0  0  0  # atno 7974 bound_to 7965
  154.6150  140.0624  156.9542 H   0  0  0  0  0  0  0  0  0  0  0  0  # atno 8008 bound_to 7997
  155.1910  140.3307  155.4340 H   0  0  0  0  0  0  0  0  0  0  0  0  # atno 8009 bound_to 7997
  156.2399  140.1881  156.7001 H   0  0  0  0  0  0  0  0  0  0  0  0  # atno 8010 bound_to 7997
  139.4883  144.5721  151.7035 H   0  0  0  0  0  0  0  0  0  0  0  0  # atno 10167 bound_to 10162
  156.9582  130.5923  149.5660 H   0  0  0  0  0  0  0  0  0  0  0  0  # atno 10718 bound_to 10713
  153.0708  135.4960  154.8300 H   0  0  0  0  0  0  0  0  0  0  0  0  # atno 10763 bound_to 10752
  154.7019  135.3003  154.9330 H   0  0  0  0  0  0  0  0  0  0  0  0  # atno 10764 bound_to 10752
  154.0051  135.6761  153.4814 H   0  0  0  0  0  0  0  0  0  0  0  0  # atno 10765 bound_to 10752
  140.3558  134.2179  155.7676 H   0  0  0  0  0  0  0  0  0  0  0  0  # atno 11005 bound_to 11000
  145.1959  140.9833  143.4183 LP  0  0  0  0  0  0  0  0  0  0  0  0  # atno 17320 bound_to 7965
  144.9816  139.3778  143.6259 LP  0  0  0  0  0  0  0  0  0  0  0  0  # atno 17321 bound_to 7965
  140.5310  144.0730  150.6054 LP  0  0  0  0  0  0  0  0  0  0  0  0  # atno 17342 bound_to 10162
  140.3720  143.2849  152.0267 LP  0  0  0  0  0  0  0  0  0  0  0  0  # atno 17343 bound_to 10162
  156.0333  130.5423  150.8591 LP  0  0  0  0  0  0  0  0  0  0  0  0  # atno 17370 bound_to 10713
  157.5676  131.0946  150.9466 LP  0  0  0  0  0  0  0  0  0  0  0  0  # atno 17371 bound_to 10713
  141.1999  133.8001  157.0515 LP  0  0  0  0  0  0  0  0  0  0  0  0  # atno 17394 bound_to 11000
  140.0666  134.9725  157.1397 LP  0  0  0  0  0  0  0  0  0  0  0  0  # atno 17395 bound_to 11000

$$$$
