AV-unprocessed.smi:1208|AV-procd|sdf|5066|dock5
  -GOLD-   22720 4103D 1   1.00000     0.00000
 Structure written by MMmdl.
 36 37  0  0  0  0  0  0  0  0  1 V2000
  151.1362  144.9233  159.8282 C   0  0  0  0  0  0  0  0  0  0  0  0
  151.3742  143.4148  159.6679 C   0  0  1  0  0  0  0  0  0  0  0  0
  151.4372  143.0957  158.2430 N   0  0  0  0  0  0  0  0  0  0  0  0
  151.2371  141.8858  157.6971 C   0  0  0  0  0  0  0  0  0  0  0  0
  150.9347  140.8870  158.3515 O   0  0  0  0  0  0  0  0  0  0  0  0
  151.3952  141.7996  156.1728 C   0  0  0  0  0  0  0  0  0  0  0  0
  151.3294  140.4210  155.6679 N   0  0  0  0  0  0  0  0  0  0  0  0
  152.4517  139.6577  155.9521 N   0  0  0  0  0  0  0  0  0  0  0  0
  152.5178  138.4341  155.5487 C   0  0  0  0  0  0  0  0  0  0  0  0
  153.6492  137.7159  155.8477 O   0  0  0  0  0  0  0  0  0  0  0  0
  151.4344  137.8316  154.8036 C   0  0  0  0  0  0  0  0  0  0  0  0
  150.3435  138.5819  154.5348 C   0  0  0  0  0  0  0  0  0  0  0  0
  150.2369  139.9741  154.9748 C   0  0  0  0  0  0  0  0  0  0  0  0
  149.2564  140.6814  154.7426 O   0  0  0  0  0  0  0  0  0  0  0  0
  152.6665  142.9608  160.3776 C   0  0  2  0  0  0  0  0  0  0  0  0
  153.0581  141.5002  160.1484 C   0  0  0  0  0  0  0  0  0  0  0  0
  153.9376  141.1827  161.3455 C   0  0  0  0  0  0  0  0  0  0  0  0
  153.5738  142.2620  162.3696 C   0  0  0  0  0  0  0  0  0  0  0  0
  152.5061  142.9984  161.7870 O   0  0  0  0  0  0  0  0  0  0  0  0
  153.7550  137.7936  156.7835 H   0  0  0  0  0  0  0  0  0  0  0  0
  151.0518  145.1988  160.8797 H   0  0  0  0  0  0  0  0  0  0  0  0
  150.2131  145.2298  159.3352 H   0  0  0  0  0  0  0  0  0  0  0  0
  151.9533  145.5031  159.3974 H   0  0  0  0  0  0  0  0  0  0  0  0
  150.5281  142.8988  160.1256 H   0  0  0  0  0  0  0  0  0  0  0  0
  151.6762  143.8554  157.6224 H   0  0  0  0  0  0  0  0  0  0  0  0
  150.6126  142.4094  155.7182 H   0  0  0  0  0  0  0  0  0  0  0  0
  152.3382  142.2590  155.8696 H   0  0  0  0  0  0  0  0  0  0  0  0
  151.5052  136.8054  154.4745 H   0  0  0  0  0  0  0  0  0  0  0  0
  149.5269  138.1446  153.9793 H   0  0  0  0  0  0  0  0  0  0  0  0
  153.4989  143.6109  160.1009 H   0  0  0  0  0  0  0  0  0  0  0  0
  152.1712  140.8655  160.1693 H   0  0  0  0  0  0  0  0  0  0  0  0
  153.5645  141.3404  159.1960 H   0  0  0  0  0  0  0  0  0  0  0  0
  153.7472  140.1773  161.7224 H   0  0  0  0  0  0  0  0  0  0  0  0
  154.9942  141.2493  161.0837 H   0  0  0  0  0  0  0  0  0  0  0  0
  153.2726  141.8412  163.3293 H   0  0  0  0  0  0  0  0  0  0  0  0
  154.4202  142.9282  162.5413 H   0  0  0  0  0  0  0  0  0  0  0  0
  1  2  1  0  0  0  0
  1 21  1  0  0  0  0
  1 22  1  0  0  0  0
  1 23  1  0  0  0  0
  2  3  1  0  0  0  0
  2 15  1  0  0  0  0
  2 24  1  0  0  0  0
  3  4  1  0  0  0  0
  3 25  1  0  0  0  0
  4  5  2  0  0  0  0
  4  6  1  0  0  0  0
  6 26  1  0  0  0  0
  6 27  1  0  0  0  0
  6  7  1  0  0  0  0
  7  8  1  0  0  0  0
  7 13  1  0  0  0  0
  8  9  2  0  0  0  0
  9 10  1  0  0  0  0
  9 11  1  0  0  0  0
 10 20  1  0  0  0  0
 11 28  1  0  0  0  0
 11 12  2  0  0  0  0
 12 29  1  0  0  0  0
 12 13  1  0  0  0  0
 13 14  2  0  0  0  0
 15 19  1  0  0  0  0
 15 16  1  0  0  0  0
 15 30  1  0  0  0  0
 16 17  1  0  0  0  0
 16 31  1  0  0  0  0
 16 32  1  0  0  0  0
 17 18  1  0  0  0  0
 17 33  1  0  0  0  0
 17 34  1  0  0  0  0
 18 19  1  0  0  0  0
 18 35  1  0  0  0  0
 18 36  1  0  0  0  0
M  END
> <s_m_source_file>
AV-unprocessed.smi

> <i_m_source_file_index>
1208

> <i_lp_mmshare_version>
43012

> <i_f3d_flags>
0

> <s_epik_input>
TzFbQ0gyXVtDSDJdW0NIMl1bQ0BIXTFbQ0BIXShbQ0gzXSlbTkhdQyg9TylbQ0gyXW4yW25IXWMoPU8pW2NIXVtjSF1jMj1P

> <s_epik_cmdline>
J2VwaWtfcHl0aG9uJywgJy1waCcsICc3LjAnLCAnLXRuJywgJzgnLCAnLW1hJywgJzIwMCcsICctbWV0YWxfYmluZGluZycsICctaW1hZScsICc8aW5maWxlLm1hZT4nLCAnLW9tYWUnLCAnPG91dGZpbGUubWFlPic=

> <r_lp_tautomer_probability>
0.9996

> <r_epik_Ionization_Penalty>
2.12735

> <r_epik_Ionization_Penalty_Charging>
3.86665e-08

> <r_epik_Ionization_Penalty_Neutral>
2.12735

> <r_epik_State_Penalty>
1.70441

> <r_epik_Charging_Adjusted_Penalty>
1.70441

> <i_epik_Tot_Q>
0

> <i_epik_Tot_abs_Q>
0

> <r_epik_Metal_State_Penalty>
1.70441

> <b_epik_Metal_Only>
0

> <s_lp_Force_Field>
OPLS_2005

> <r_lp_Energy>
29.1408

> <b_lp_Chiralities_Consistent>
1

> <s_lp_Variant>
AV-unprocessed.smi:1208-6

> <Gold.Version>
5.8.1

> <Gold.Id.Protein>
6NUR|6NUR_protein|mol2

> <Gold.PLP.Fitness>
43.5082

> <Gold.PLP.PLP>
-41.5946

> <Gold.PLP.part.hbond>
-2.6843

> <Gold.PLP.part.metal>
0.0000

> <Gold.PLP.part.buried>
-6.4960

> <Gold.PLP.part.nonpolar>
-32.3815

> <Gold.PLP.part.repulsive>
0.2531

> <Gold.PLP.ligand.clash>
0.0000

> <Gold.PLP.ligand.torsion>
0.5611

> <Gold.PLP.Chemscore.Hbond>
1.0000

> <Gold.PLP.Chemscore.CHOScore>
0.0000

> <Gold.PLP.Chemscore.Metal>
0.0000

> <Gold.Chemscore.Hbonds>
donor molecule, donor type, donor heavy atom, donor atom, acceptor molecule, acceptor atom, score
      P1  H  7997  8008       L1     8  0.98
      P1  H 10752 10765       L1    10  0.01

> <Gold.PLP.Chemscore.Internal.Correction>
0.0358

> <Gold.Rescore>
     Score         DG    S(hbond)    S(metal)    S(lipo)     H(rot)  DE(clash)    DE(int)     intcor
      8.02     -11.10       0.76        0.00      83.91       2.63       0.58       2.50       ----

> <Gold.Chemscore.Fitness>
8.0176

> <Gold.Chemscore.DG>
-11.1022

> <Gold.Chemscore.ZeroCoef>
-5.4800

> <Gold.Chemscore.Hbond>
0.7571

> <Gold.Chemscore.Metal>
0.0000

> <Gold.Chemscore.Lipo>
83.9084

> <Gold.Chemscore.Internal_Hbond>
0.0000

> <Gold.Chemscore.DEClash>
0.5804

> <Gold.Chemscore.DEInternal>
2.5042

> <Gold.Chemscore.Rot>
2.6264

> <Gold.Chemscore.Internal.Correction>
   9.000000E+99

> <Gold.Chemscore.Hbonds>
donor molecule, donor type, donor heavy atom, donor atom, acceptor molecule, acceptor atom, score
      P1  H  7997  8008       L1     8  0.31
      P1  H 10752 10765       L1    10  0.01

> <Gold.Chemscore.Hbond.Weighted>
-2.5286

> <Gold.Chemscore.Metal.Weighted>
-0.0000

> <Gold.Chemscore.Lipo.Weighted>
-9.8173

> <Gold.Chemscore.Internal_Hbond.Weighted>
0.0000

> <Gold.Chemscore.DEClash.Weighted>
0.5804

> <Gold.Chemscore.DEInternal.Weighted>
2.5042

> <Gold.Chemscore.Rot.Weighted>
6.7237

> <Gold.Chemscore.Internal.Correction.Weighted>
   9.000000E+99

> <Gold.Protein.RotatedTorsions>
[ 6907 6896 6895 6894 ] final -106.73 input  -60.11 | X-H torsion
[ 7974 7965 7964 7962 ] final  117.25 input  175.53 | X-H torsion
[ 8008 7997 7996 7995 ] final  -18.91 input   59.86 | X-H torsion
[ 10167 10162 10161 10158 ] final   83.80 input  -65.29 | X-H torsion
[ 10718 10713 10712 10709 ] final    2.65 input   66.30 | X-H torsion
[ 10763 10752 10751 10750 ] final -159.88 input  -60.55 | X-H torsion
[ 11005 11000 10999 10996 ] final  -79.86 input  -57.11 | X-H torsion

> <Gold.Protein.ActiveResidues>
 VAL166  LYS551  ARG553  GLY616  TRP617  ASP618  TYR619  PRO620  LYS621  CYS622 
 ASP623  PHE694  ASN695  SER759  ASP760  ASP761  ALA762  ILE779  LEU786  VAL792 
 PHE793  MET794  SER795  GLU796  ALA797  LYS798  CYS799  TRP800  GLU811  SER814 

> <Gold.Protein.RotatedAtoms>
  150.7405  133.9932  159.3613 H   0  0  0  0  0  0  0  0  0  0  0  0  # atno 6907 bound_to 6896
  151.7881  135.0741  160.0393 H   0  0  0  0  0  0  0  0  0  0  0  0  # atno 6908 bound_to 6896
  152.3227  133.5834  159.5791 H   0  0  0  0  0  0  0  0  0  0  0  0  # atno 6909 bound_to 6896
  145.1697  139.3108  143.4474 H   0  0  0  0  0  0  0  0  0  0  0  0  # atno 7974 bound_to 7965
  154.4873  140.2103  155.9627 H   0  0  0  0  0  0  0  0  0  0  0  0  # atno 8008 bound_to 7997
  156.1255  140.3206  155.8239 H   0  0  0  0  0  0  0  0  0  0  0  0  # atno 8009 bound_to 7997
  155.4392  140.0509  157.3002 H   0  0  0  0  0  0  0  0  0  0  0  0  # atno 8010 bound_to 7997
  139.9146  144.6250  150.8502 H   0  0  0  0  0  0  0  0  0  0  0  0  # atno 10167 bound_to 10162
  156.8662  130.5604  149.5660 H   0  0  0  0  0  0  0  0  0  0  0  0  # atno 10718 bound_to 10713
  154.7438  135.3075  154.8682 H   0  0  0  0  0  0  0  0  0  0  0  0  # atno 10763 bound_to 10752
  153.9489  135.6766  153.4748 H   0  0  0  0  0  0  0  0  0  0  0  0  # atno 10764 bound_to 10752
  153.1035  135.4900  154.8835 H   0  0  0  0  0  0  0  0  0  0  0  0  # atno 10765 bound_to 10752
  141.1668  133.7124  156.8186 H   0  0  0  0  0  0  0  0  0  0  0  0  # atno 11005 bound_to 11000
  146.3470  140.1838  142.8589 LP  0  0  0  0  0  0  0  0  0  0  0  0  # atno 17320 bound_to 7965
  145.0245  140.8821  143.5146 LP  0  0  0  0  0  0  0  0  0  0  0  0  # atno 17321 bound_to 7965
  140.7677  143.3340  151.2348 LP  0  0  0  0  0  0  0  0  0  0  0  0  # atno 17342 bound_to 10162
  139.6913  143.9687  152.2860 LP  0  0  0  0  0  0  0  0  0  0  0  0  # atno 17343 bound_to 10162
  156.0751  130.5775  150.9457 LP  0  0  0  0  0  0  0  0  0  0  0  0  # atno 17370 bound_to 10713
  157.6222  131.0929  150.8601 LP  0  0  0  0  0  0  0  0  0  0  0  0  # atno 17371 bound_to 10713
  140.2136  134.8809  157.3301 LP  0  0  0  0  0  0  0  0  0  0  0  0  # atno 17394 bound_to 11000
  140.2061  134.4195  155.7637 LP  0  0  0  0  0  0  0  0  0  0  0  0  # atno 17395 bound_to 11000

$$$$
