AV-unprocessed.smi:1107|AV-procd|sdf|4784|dock4
  -GOLD-   22720 3323D 1   1.00000     0.00000
 Structure written by MMmdl.
 49 50  0  0  0  0  0  0  0  0  2 V2000
  148.2380  133.9557  157.6687 C   0  0  0  0  0  0  0  0  0  0  0  0
  149.0086  135.0028  156.8953 C   0  0  0  0  0  0  0  0  0  0  0  0
  148.2144  135.7817  156.0707 N   0  0  0  0  0  0  0  0  0  0  0  0
  148.8318  136.7588  155.3102 C   0  0  0  0  0  0  0  0  0  0  0  0
  147.8890  137.5515  154.4225 C   0  0  0  0  0  0  0  0  0  0  0  0
  150.1737  136.9540  155.3730 C   0  0  0  0  0  0  0  0  0  0  0  0
  150.9038  137.9999  154.5328 C   0  0  0  0  0  0  0  0  0  0  0  0
  151.1469  139.3225  155.2567 C   0  0  0  0  0  0  0  0  0  0  0  0
  152.0924  140.0399  154.9335 O   0  0  0  0  0  0  0  0  0  0  0  0
  150.3112  139.5997  156.2698 N   0  0  0  0  0  0  0  0  0  0  0  0
  150.4655  140.6870  157.2354 C   0  0  1  0  0  0  0  0  0  0  0  0
  151.6493  140.3912  158.1659 C   0  0  0  0  0  0  0  0  0  0  0  0
  150.6300  142.0385  156.5026 C   0  0  0  0  0  0  0  0  0  0  0  0
  150.6887  143.2105  157.4173 N   0  3  0  0  0  0  0  0  0  0  0  0
  152.0646  143.4720  157.9134 C   0  0  0  0  0  0  0  0  0  0  0  0
  152.1264  144.7789  158.7222 C   0  0  0  0  0  0  0  0  0  0  0  0
  151.1129  144.7696  159.8740 C   0  0  0  0  0  0  0  0  0  0  0  0
  149.7099  144.4536  159.3400 C   0  0  0  0  0  0  0  0  0  0  0  0
  149.7094  143.1444  158.5344 C   0  0  0  0  0  0  0  0  0  0  0  0
  150.9711  136.0867  156.2725 C   0  0  0  0  0  0  0  0  0  0  0  0
  152.1938  136.1973  156.3548 O   0  0  0  0  0  0  0  0  0  0  0  0
  150.2960  135.1119  157.0235 N   0  0  0  0  0  0  0  0  0  0  0  0
  147.2133  135.6703  155.9944 H   0  0  0  0  0  0  0  0  0  0  0  0
  148.8976  133.3962  158.3333 H   0  0  0  0  0  0  0  0  0  0  0  0
  147.7664  133.2500  156.9840 H   0  0  0  0  0  0  0  0  0  0  0  0
  147.4617  134.4239  158.2746 H   0  0  0  0  0  0  0  0  0  0  0  0
  148.1703  137.4454  153.3749 H   0  0  0  0  0  0  0  0  0  0  0  0
  147.9173  138.6094  154.6836 H   0  0  0  0  0  0  0  0  0  0  0  0
  146.8580  137.2106  154.5260 H   0  0  0  0  0  0  0  0  0  0  0  0
  150.3651  138.1874  153.6029 H   0  0  0  0  0  0  0  0  0  0  0  0
  151.8677  137.6014  154.2164 H   0  0  0  0  0  0  0  0  0  0  0  0
  149.5488  138.9571  156.4325 H   0  0  0  0  0  0  0  0  0  0  0  0
  149.5777  140.7522  157.8660 H   0  0  0  0  0  0  0  0  0  0  0  0
  151.7725  141.1823  158.9060 H   0  0  0  0  0  0  0  0  0  0  0  0
  152.5834  140.3074  157.6094 H   0  0  0  0  0  0  0  0  0  0  0  0
  151.4990  139.4561  158.7065 H   0  0  0  0  0  0  0  0  0  0  0  0
  151.5119  142.0225  155.8606 H   0  0  0  0  0  0  0  0  0  0  0  0
  149.7723  142.1677  155.8405 H   0  0  0  0  0  0  0  0  0  0  0  0
  152.3967  142.6324  158.5262 H   0  0  0  0  0  0  0  0  0  0  0  0
  152.7543  143.5434  157.0713 H   0  0  0  0  0  0  0  0  0  0  0  0
  153.1333  144.9286  159.1132 H   0  0  0  0  0  0  0  0  0  0  0  0
  151.9246  145.6235  158.0649 H   0  0  0  0  0  0  0  0  0  0  0  0
  151.4026  144.0220  160.6134 H   0  0  0  0  0  0  0  0  0  0  0  0
  151.1141  145.7332  160.3846 H   0  0  0  0  0  0  0  0  0  0  0  0
  149.0030  144.3836  160.1670 H   0  0  0  0  0  0  0  0  0  0  0  0
  149.3648  145.2714  158.7070 H   0  0  0  0  0  0  0  0  0  0  0  0
  148.7044  142.9710  158.1521 H   0  0  0  0  0  0  0  0  0  0  0  0
  149.9494  142.3005  159.1834 H   0  0  0  0  0  0  0  0  0  0  0  0
  150.4356  144.0129  156.8585 H   0  0  0  0  0  0  0  0  0  0  0  0
  1 24  1  0  0  0  0
  1 25  1  0  0  0  0
  1 26  1  0  0  0  0
  1  2  1  0  0  0  0
  2  3  1  0  0  0  0
  2 22  2  0  0  0  0
  3  4  1  0  0  0  0
  3 23  1  0  0  0  0
  4  6  2  0  0  0  0
  4  5  1  0  0  0  0
  5 27  1  0  0  0  0
  5 28  1  0  0  0  0
  5 29  1  0  0  0  0
  6 20  1  0  0  0  0
  6  7  1  0  0  0  0
  7  8  1  0  0  0  0
  7 30  1  0  0  0  0
  7 31  1  0  0  0  0
  8  9  2  0  0  0  0
  8 10  1  0  0  0  0
 10 11  1  0  0  0  0
 10 32  1  0  0  0  0
 11 12  1  0  0  0  0
 11 13  1  0  0  0  0
 11 33  1  0  0  0  0
 12 34  1  0  0  0  0
 12 35  1  0  0  0  0
 12 36  1  0  0  0  0
 13 14  1  0  0  0  0
 13 37  1  0  0  0  0
 13 38  1  0  0  0  0
 14 19  1  0  0  0  0
 14 15  1  0  0  0  0
 14 49  1  0  0  0  0
 15 16  1  0  0  0  0
 15 39  1  0  0  0  0
 15 40  1  0  0  0  0
 16 17  1  0  0  0  0
 16 41  1  0  0  0  0
 16 42  1  0  0  0  0
 17 18  1  0  0  0  0
 17 43  1  0  0  0  0
 17 44  1  0  0  0  0
 18 19  1  0  0  0  0
 18 45  1  0  0  0  0
 18 46  1  0  0  0  0
 19 47  1  0  0  0  0
 19 48  1  0  0  0  0
 20 21  2  0  0  0  0
 20 22  1  0  0  0  0
M  CHG  1  14   1
M  END
> <s_m_source_file>
AV-unprocessed.smi

> <i_m_source_file_index>
1107

> <i_lp_mmshare_version>
43012

> <i_f3d_flags>
0

> <s_epik_input>
W0NIM11jMW5jKFtDSDNdKWMoYyg9TylbbkhdMSlbQ0gyXUMoPU8pW05IXVtDQEhdKFtDSDNdKVtDSDJdTjJbQ0gyXVtDSDJdW0NIMl1bQ0gyXVtDSDJdMg==

> <s_epik_cmdline>
J2VwaWtfcHl0aG9uJywgJy1waCcsICc3LjAnLCAnLXRuJywgJzgnLCAnLW1hJywgJzIwMCcsICctbWV0YWxfYmluZGluZycsICctaW1hZScsICc8aW5maWxlLm1hZT4nLCAnLW9tYWUnLCAnPG91dGZpbGUubWFlPic=

> <r_lp_tautomer_probability>
0.156392

> <r_epik_Ionization_Penalty>
0.0190033

> <r_epik_Ionization_Penalty_Charging>
0.0189172

> <r_epik_Ionization_Penalty_Neutral>
8.60838e-05

> <r_epik_State_Penalty>
1.15342

> <r_epik_Charging_Adjusted_Penalty>
1.17233

> <i_epik_Tot_Q>
1

> <i_epik_Tot_abs_Q>
1

> <r_epik_Metal_State_Penalty>
1.34593

> <b_epik_Metal_Only>
0

> <s_lp_Force_Field>
OPLS_2005

> <r_lp_Energy>
24.7354

> <b_lp_Chiralities_Consistent>
1

> <s_lp_Variant>
AV-unprocessed.smi:1107-4

> <Gold.Version>
5.8.1

> <Gold.Id.Protein>
6NUR|6NUR_protein|mol2

> <Gold.PLP.Fitness>
44.5493

> <Gold.PLP.PLP>
-35.1690

> <Gold.PLP.part.hbond>
-3.5471

> <Gold.PLP.part.metal>
0.0000

> <Gold.PLP.part.buried>
-5.6691

> <Gold.PLP.part.nonpolar>
-26.5495

> <Gold.PLP.part.repulsive>
0.0950

> <Gold.PLP.ligand.clash>
0.0000

> <Gold.PLP.ligand.torsion>
0.9963

> <Gold.PLP.Chemscore.Hbond>
3.7680

> <Gold.PLP.Chemscore.CHOScore>
0.0000

> <Gold.PLP.Chemscore.Metal>
0.0000

> <Gold.Chemscore.Hbonds>
donor molecule, donor type, donor heavy atom, donor atom, acceptor molecule, acceptor atom, score
      L1  H    14    49       P1  8028  1.54
      P1  H  7989  7998       L1     9  0.78
      P1  H 10752 10765       L1    21  1.00

> <Gold.PLP.Chemscore.Internal.Correction>
0.0690

> <Gold.Rescore>
     Score         DG    S(hbond)    S(metal)    S(lipo)     H(rot)  DE(clash)    DE(int)     intcor
     17.25     -19.18       3.00        0.00      74.69       1.98       0.17       1.76       ----

> <Gold.Chemscore.Fitness>
17.2477

> <Gold.Chemscore.DG>
-19.1760

> <Gold.Chemscore.ZeroCoef>
-5.4800

> <Gold.Chemscore.Hbond>
3.0047

> <Gold.Chemscore.Metal>
0.0000

> <Gold.Chemscore.Lipo>
74.6879

> <Gold.Chemscore.Internal_Hbond>
0.0000

> <Gold.Chemscore.DEClash>
0.1673

> <Gold.Chemscore.DEInternal>
1.7610

> <Gold.Chemscore.Rot>
1.9837

> <Gold.Chemscore.Internal.Correction>
   9.000000E+99

> <Gold.Chemscore.Hbonds>
donor molecule, donor type, donor heavy atom, donor atom, acceptor molecule, acceptor atom, score
      L1  H    14    49       P1  8028  0.73
      P1  H  7989  7998       L1     9  0.54
      P1  H 10752 10765       L1    21  0.93

> <Gold.Chemscore.Hbond.Weighted>
-10.0359

> <Gold.Chemscore.Metal.Weighted>
-0.0000

> <Gold.Chemscore.Lipo.Weighted>
-8.7385

> <Gold.Chemscore.Internal_Hbond.Weighted>
0.0000

> <Gold.Chemscore.DEClash.Weighted>
0.1673

> <Gold.Chemscore.DEInternal.Weighted>
1.7610

> <Gold.Chemscore.Rot.Weighted>
5.0783

> <Gold.Chemscore.Internal.Correction.Weighted>
   9.000000E+99

> <Gold.Protein.RotatedTorsions>
[ 6907 6896 6895 6894 ] final -147.41 input  -60.11 | X-H torsion
[ 7974 7965 7964 7962 ] final -164.23 input  175.53 | X-H torsion
[ 8008 7997 7996 7995 ] final -103.80 input   59.86 | X-H torsion
[ 10167 10162 10161 10158 ] final   42.10 input  -65.29 | X-H torsion
[ 10718 10713 10712 10709 ] final  151.70 input   66.30 | X-H torsion
[ 10763 10752 10751 10750 ] final -153.64 input  -60.55 | X-H torsion
[ 11005 11000 10999 10996 ] final  144.72 input  -57.11 | X-H torsion

> <Gold.Protein.ActiveResidues>
 VAL166  LYS551  ARG553  GLY616  TRP617  ASP618  TYR619  PRO620  LYS621  CYS622 
 ASP623  PHE694  ASN695  SER759  ASP760  ASP761  ALA762  ILE779  LEU786  VAL792 
 PHE793  MET794  SER795  GLU796  ALA797  LYS798  CYS799  TRP800  GLU811  SER814 

> <Gold.Protein.RotatedAtoms>
  151.1553  133.4880  159.2594 H   0  0  0  0  0  0  0  0  0  0  0  0  # atno 6907 bound_to 6896
  151.1511  135.0227  159.8678 H   0  0  0  0  0  0  0  0  0  0  0  0  # atno 6908 bound_to 6896
  152.5463  134.1437  159.8543 H   0  0  0  0  0  0  0  0  0  0  0  0  # atno 6909 bound_to 6896
  144.7303  140.2991  143.6207 H   0  0  0  0  0  0  0  0  0  0  0  0  # atno 7974 bound_to 7965
  154.8761  140.0421  157.1754 H   0  0  0  0  0  0  0  0  0  0  0  0  # atno 8008 bound_to 7997
  154.8688  140.2955  155.5473 H   0  0  0  0  0  0  0  0  0  0  0  0  # atno 8009 bound_to 7997
  156.2999  140.2433  156.3673 H   0  0  0  0  0  0  0  0  0  0  0  0  # atno 8010 bound_to 7997
  140.3577  144.2268  150.6140 H   0  0  0  0  0  0  0  0  0  0  0  0  # atno 10167 bound_to 10162
  157.2673  131.0810  151.1624 H   0  0  0  0  0  0  0  0  0  0  0  0  # atno 10718 bound_to 10713
  154.7914  135.3208  154.7768 H   0  0  0  0  0  0  0  0  0  0  0  0  # atno 10763 bound_to 10752
  153.8456  135.6867  153.4802 H   0  0  0  0  0  0  0  0  0  0  0  0  # atno 10764 bound_to 10752
  153.1586  135.4670  154.9680 H   0  0  0  0  0  0  0  0  0  0  0  0  # atno 10765 bound_to 10752
  140.0655  134.9181  157.1256 H   0  0  0  0  0  0  0  0  0  0  0  0  # atno 11005 bound_to 11000
  145.7779  139.1880  143.2175 LP  0  0  0  0  0  0  0  0  0  0  0  0  # atno 17320 bound_to 7965
  146.0858  140.7712  142.9619 LP  0  0  0  0  0  0  0  0  0  0  0  0  # atno 17321 bound_to 7965
  140.5157  143.2278  151.8467 LP  0  0  0  0  0  0  0  0  0  0  0  0  # atno 17342 bound_to 10162
  139.4818  144.4897  151.9201 LP  0  0  0  0  0  0  0  0  0  0  0  0  # atno 17343 bound_to 10162
  157.3110  130.6889  149.6215 LP  0  0  0  0  0  0  0  0  0  0  0  0  # atno 17370 bound_to 10713
  155.9663  130.4364  150.5130 LP  0  0  0  0  0  0  0  0  0  0  0  0  # atno 17371 bound_to 10713
  140.3706  134.2394  155.7178 LP  0  0  0  0  0  0  0  0  0  0  0  0  # atno 17394 bound_to 11000
  141.1991  133.8020  157.0553 LP  0  0  0  0  0  0  0  0  0  0  0  0  # atno 17395 bound_to 11000

$$$$
