AV-unprocessed.smi:1875|AV-procd|sdf|7617|dock1
  -GOLD-   22720 9343D 1   1.00000     0.00000
 Structure written by MMmdl.
 49 51  0  0  0  0  0  0  0  0  3 V2000
  146.2615  133.9075  152.2492 C   0  0  0  0  0  0  0  0  0  0  0  0
  147.4411  133.2896  152.9712 C   0  0  0  0  0  0  0  0  0  0  0  0
  147.5721  131.9618  152.8930 N   0  0  0  0  0  0  0  0  0  0  0  0
  148.6260  131.4108  153.5337 C   0  0  0  0  0  0  0  0  0  0  0  0
  149.5483  132.1967  154.2545 C   0  0  0  0  0  0  0  0  0  0  0  0
  149.3087  133.5869  154.2625 C   0  0  0  0  0  0  0  0  0  0  0  0
  150.2134  134.5410  155.0135 C   0  0  0  0  0  0  0  0  0  0  0  0
  149.8570  135.9362  154.6965 N   0  3  0  0  0  0  0  0  0  0  0  0
  150.9672  136.8971  154.8537 C   0  0  0  0  0  0  0  0  0  0  0  0
  150.4396  138.3235  155.0806 C   0  0  1  0  0  0  0  0  0  0  0  0
  149.4431  138.2888  156.0845 O   0  0  0  0  0  0  0  0  0  0  0  0
  151.5559  139.3000  155.5048 C   0  0  0  0  0  0  0  0  0  0  0  0
  151.0374  140.5988  155.9574 N   0  0  0  0  0  0  0  0  0  0  0  0
  150.0894  141.4057  155.4063 C   0  0  0  0  0  0  0  0  0  0  0  0
  149.9765  142.5070  156.1990 N   0  3  0  0  0  0  0  0  0  0  0  0
  150.8605  142.4001  157.2748 C   0  0  0  0  0  0  0  0  0  0  0  0
  151.1110  143.2603  158.3372 C   0  0  0  0  0  0  0  0  0  0  0  0
  152.0828  142.8551  159.2799 C   0  0  0  0  0  0  0  0  0  0  0  0
  152.3815  143.7728  160.4532 C   0  0  0  0  0  0  0  0  0  0  0  0
  152.7657  141.6191  159.1392 C   0  0  0  0  0  0  0  0  0  0  0  0
  153.8040  141.1908  160.1620 C   0  0  0  0  0  0  0  0  0  0  0  0
  152.4978  140.7587  158.0502 C   0  0  0  0  0  0  0  0  0  0  0  0
  151.5398  141.1752  157.1291 C   0  0  0  0  0  0  0  0  0  0  0  0
  148.2497  134.1314  153.6229 N   0  0  0  0  0  0  0  0  0  0  0  0
  145.5674  133.1451  151.8934 H   0  0  0  0  0  0  0  0  0  0  0  0
  146.6058  134.4823  151.3891 H   0  0  0  0  0  0  0  0  0  0  0  0
  145.7151  134.5774  152.9138 H   0  0  0  0  0  0  0  0  0  0  0  0
  148.7331  130.3379  153.4734 H   0  0  0  0  0  0  0  0  0  0  0  0
  150.3886  131.7532  154.7680 H   0  0  0  0  0  0  0  0  0  0  0  0
  150.1222  134.3706  156.0870 H   0  0  0  0  0  0  0  0  0  0  0  0
  151.2528  134.3513  154.7412 H   0  0  0  0  0  0  0  0  0  0  0  0
  149.5321  135.9688  153.7406 H   0  0  0  0  0  0  0  0  0  0  0  0
  151.6122  136.5905  155.6787 H   0  0  0  0  0  0  0  0  0  0  0  0
  151.5734  136.8684  153.9472 H   0  0  0  0  0  0  0  0  0  0  0  0
  149.9794  138.6855  154.1604 H   0  0  0  0  0  0  0  0  0  0  0  0
  148.8363  137.5914  155.8871 H   0  0  0  0  0  0  0  0  0  0  0  0
  152.1401  138.8776  156.3237 H   0  0  0  0  0  0  0  0  0  0  0  0
  152.2538  139.4768  154.6854 H   0  0  0  0  0  0  0  0  0  0  0  0
  149.5317  141.2123  154.5011 H   0  0  0  0  0  0  0  0  0  0  0  0
  150.5857  144.1989  158.4389 H   0  0  0  0  0  0  0  0  0  0  0  0
  152.1331  143.2828  161.3948 H   0  0  0  0  0  0  0  0  0  0  0  0
  151.8046  144.6962  160.3952 H   0  0  0  0  0  0  0  0  0  0  0  0
  153.4375  144.0429  160.4710 H   0  0  0  0  0  0  0  0  0  0  0  0
  154.2246  140.2144  159.9191 H   0  0  0  0  0  0  0  0  0  0  0  0
  153.3585  141.1234  161.1548 H   0  0  0  0  0  0  0  0  0  0  0  0
  154.6252  141.9070  160.1978 H   0  0  0  0  0  0  0  0  0  0  0  0
  153.0171  139.8181  157.9436 H   0  0  0  0  0  0  0  0  0  0  0  0
  149.0989  136.2172  155.3021 H   0  0  0  0  0  0  0  0  0  0  0  0
  149.3422  143.2746  156.0169 H   0  0  0  0  0  0  0  0  0  0  0  0
  1  2  1  0  0  0  0
  1 25  1  0  0  0  0
  1 26  1  0  0  0  0
  1 27  1  0  0  0  0
  2 24  1  0  0  0  0
  2  3  2  0  0  0  0
  3  4  1  0  0  0  0
  4  5  2  0  0  0  0
  4 28  1  0  0  0  0
  5  6  1  0  0  0  0
  5 29  1  0  0  0  0
  6  7  1  0  0  0  0
  6 24  2  0  0  0  0
  7  8  1  0  0  0  0
  7 30  1  0  0  0  0
  7 31  1  0  0  0  0
  8  9  1  0  0  0  0
  8 32  1  0  0  0  0
  8 48  1  0  0  0  0
  9 10  1  0  0  0  0
  9 33  1  0  0  0  0
  9 34  1  0  0  0  0
 10 11  1  0  0  0  0
 10 12  1  0  0  0  0
 10 35  1  0  0  0  0
 11 36  1  0  0  0  0
 12 13  1  0  0  0  0
 12 37  1  0  0  0  0
 12 38  1  0  0  0  0
 13 23  1  0  0  0  0
 13 14  1  0  0  0  0
 14 15  2  0  0  0  0
 14 39  1  0  0  0  0
 15 16  1  0  0  0  0
 15 49  1  0  0  0  0
 16 23  2  0  0  0  0
 16 17  1  0  0  0  0
 17 18  2  0  0  0  0
 17 40  1  0  0  0  0
 18 19  1  0  0  0  0
 18 20  1  0  0  0  0
 19 41  1  0  0  0  0
 19 42  1  0  0  0  0
 19 43  1  0  0  0  0
 20 21  1  0  0  0  0
 20 22  2  0  0  0  0
 21 44  1  0  0  0  0
 21 45  1  0  0  0  0
 21 46  1  0  0  0  0
 22 23  1  0  0  0  0
 22 47  1  0  0  0  0
M  CHG  1   8   1
M  CHG  1  15   1
M  END
> <s_m_source_file>
AV-unprocessed.smi

> <i_m_source_file_index>
1875

> <i_lp_mmshare_version>
43012

> <i_f3d_flags>
0

> <s_epik_input>
W0NIM11jMW5bY0hdW2NIXWMobjEpW0NIMl1bTkhdW0NIMl1bQ0BIXShbT0hdKVtDSDJdbihbY0hdbjIpYyhjMjMpW2NIXWMoW0NIM10pYyhbY0hdMylbQ0gzXQ==

> <s_epik_cmdline>
J2VwaWtfcHl0aG9uJywgJy1waCcsICc3LjAnLCAnLXRuJywgJzgnLCAnLW1hJywgJzIwMCcsICctbWV0YWxfYmluZGluZycsICctaW1hZScsICc8aW5maWxlLm1hZT4nLCAnLW9tYWUnLCAnPG91dGZpbGUubWFlPic=

> <r_lp_tautomer_probability>
1

> <r_epik_Ionization_Penalty>
1.27527

> <r_epik_Ionization_Penalty_Charging>
1.27526

> <r_epik_Ionization_Penalty_Neutral>
8.72389e-06

> <r_epik_State_Penalty>
1.28654

> <r_epik_Charging_Adjusted_Penalty>
2.5618

> <i_epik_Tot_Q>
2

> <i_epik_Tot_abs_Q>
2

> <r_epik_Metal_State_Penalty>
1.36882

> <b_epik_Metal_Only>
0

> <s_epik_Chemistry_Notes>
This compound contains an electron-poor aromatic ring that is susceptible to covalent hydrolysis at low pH, typically resulting in measured values for nitrogen ring protonation that are around two units higher than predicted values.

> <s_lp_Force_Field>
OPLS_2005

> <r_lp_Energy>
13.7453

> <b_lp_Chiralities_Consistent>
1

> <s_lp_Variant>
AV-unprocessed.smi:1875-6

> <Gold.Version>
5.8.1

> <Gold.Id.Protein>
6NUR|6NUR_protein|mol2

> <Gold.PLP.Fitness>
58.6519

> <Gold.PLP.PLP>
-47.8610

> <Gold.PLP.part.hbond>
-1.9459

> <Gold.PLP.part.metal>
0.0000

> <Gold.PLP.part.buried>
-5.7669

> <Gold.PLP.part.nonpolar>
-41.0617

> <Gold.PLP.part.repulsive>
2.5711

> <Gold.PLP.ligand.clash>
0.0000

> <Gold.PLP.ligand.torsion>
0.6350

> <Gold.PLP.Chemscore.Hbond>
4.0000

> <Gold.PLP.Chemscore.CHOScore>
0.0000

> <Gold.PLP.Chemscore.Metal>
0.0000

> <Gold.Chemscore.Hbonds>
donor molecule, donor type, donor heavy atom, donor atom, acceptor molecule, acceptor atom, score
      L1  H     8    32       P1  7948  2.00
      L1  H    15    49       P1  8028  2.00

> <Gold.PLP.Chemscore.Internal.Correction>
0.0608

> <Gold.Rescore>
     Score         DG    S(hbond)    S(metal)    S(lipo)     H(rot)  DE(clash)    DE(int)     intcor
     17.01     -17.60       1.83        0.00     114.47       2.88       0.08       0.51       ----

> <Gold.Chemscore.Fitness>
17.0076

> <Gold.Chemscore.DG>
-17.5986

> <Gold.Chemscore.ZeroCoef>
-5.4800

> <Gold.Chemscore.Hbond>
1.8288

> <Gold.Chemscore.Metal>
0.0000

> <Gold.Chemscore.Lipo>
114.4684

> <Gold.Chemscore.Internal_Hbond>
0.0000

> <Gold.Chemscore.DEClash>
0.0827

> <Gold.Chemscore.DEInternal>
0.5082

> <Gold.Chemscore.Rot>
2.8838

> <Gold.Chemscore.Internal.Correction>
   9.000000E+99

> <Gold.Chemscore.Hbonds>
donor molecule, donor type, donor heavy atom, donor atom, acceptor molecule, acceptor atom, score
      L1  H     8    32       P1  7948  0.44
      L1  H    15    49       P1  8028  0.95

> <Gold.Chemscore.Hbond.Weighted>
-6.1082

> <Gold.Chemscore.Metal.Weighted>
-0.0000

> <Gold.Chemscore.Lipo.Weighted>
-13.3928

> <Gold.Chemscore.Internal_Hbond.Weighted>
0.0000

> <Gold.Chemscore.DEClash.Weighted>
0.0827

> <Gold.Chemscore.DEInternal.Weighted>
0.5082

> <Gold.Chemscore.Rot.Weighted>
7.3824

> <Gold.Chemscore.Internal.Correction.Weighted>
   9.000000E+99

> <Gold.Protein.RotatedTorsions>
[ 6907 6896 6895 6894 ] final -136.48 input  -60.11 | X-H torsion
[ 7974 7965 7964 7962 ] final  -98.15 input  175.53 | X-H torsion
[ 8008 7997 7996 7995 ] final  176.58 input   59.86 | X-H torsion
[ 10167 10162 10161 10158 ] final  105.11 input  -65.29 | X-H torsion
[ 10718 10713 10712 10709 ] final   10.67 input   66.30 | X-H torsion
[ 10763 10752 10751 10750 ] final  -75.97 input  -60.55 | X-H torsion
[ 11005 11000 10999 10996 ] final    3.83 input  -57.11 | X-H torsion

> <Gold.Protein.ActiveResidues>
 VAL166  LYS551  ARG553  GLY616  TRP617  ASP618  TYR619  PRO620  LYS621  CYS622 
 ASP623  PHE694  ASN695  SER759  ASP760  ASP761  ALA762  ILE779  LEU786  VAL792 
 PHE793  MET794  SER795  GLU796  ALA797  LYS798  CYS799  TRP800  GLU811  SER814 

> <Gold.Protein.RotatedAtoms>
  151.0106  133.5969  159.2682 H   0  0  0  0  0  0  0  0  0  0  0  0  # atno 6907 bound_to 6896
  151.3122  135.0796  159.9286 H   0  0  0  0  0  0  0  0  0  0  0  0  # atno 6908 bound_to 6896
  152.5298  133.9769  159.7842 H   0  0  0  0  0  0  0  0  0  0  0  0  # atno 6909 bound_to 6896
  145.3243  140.9428  143.2697 H   0  0  0  0  0  0  0  0  0  0  0  0  # atno 7974 bound_to 7965
  156.0749  140.1380  156.9783 H   0  0  0  0  0  0  0  0  0  0  0  0  # atno 8008 bound_to 7997
  154.4552  140.0964  156.6787 H   0  0  0  0  0  0  0  0  0  0  0  0  # atno 8009 bound_to 7997
  155.5169  140.3455  155.4401 H   0  0  0  0  0  0  0  0  0  0  0  0  # atno 8010 bound_to 7997
  139.7120  144.7076  151.1011 H   0  0  0  0  0  0  0  0  0  0  0  0  # atno 10167 bound_to 10162
  156.9844  130.6018  149.5680 H   0  0  0  0  0  0  0  0  0  0  0  0  # atno 10718 bound_to 10713
  154.4936  135.5813  153.6478 H   0  0  0  0  0  0  0  0  0  0  0  0  # atno 10763 bound_to 10752
  152.9866  135.6119  154.3093 H   0  0  0  0  0  0  0  0  0  0  0  0  # atno 10764 bound_to 10752
  154.2995  135.2847  155.2597 H   0  0  0  0  0  0  0  0  0  0  0  0  # atno 10765 bound_to 10752
  140.5888  133.9944  155.8079 H   0  0  0  0  0  0  0  0  0  0  0  0  # atno 11005 bound_to 11000
  144.8914  139.4770  143.6676 LP  0  0  0  0  0  0  0  0  0  0  0  0  # atno 17320 bound_to 7965
  146.3070  139.7614  142.9048 LP  0  0  0  0  0  0  0  0  0  0  0  0  # atno 17321 bound_to 7965
  140.7735  143.5280  150.9457 LP  0  0  0  0  0  0  0  0  0  0  0  0  # atno 17342 bound_to 10162
  139.8965  143.6888  152.3138 LP  0  0  0  0  0  0  0  0  0  0  0  0  # atno 17343 bound_to 10162
  156.0231  130.5326  150.8333 LP  0  0  0  0  0  0  0  0  0  0  0  0  # atno 17370 bound_to 10713
  157.5503  131.0943  150.9705 LP  0  0  0  0  0  0  0  0  0  0  0  0  # atno 17371 bound_to 10713
  141.0949  133.9860  157.3177 LP  0  0  0  0  0  0  0  0  0  0  0  0  # atno 17394 bound_to 11000
  139.9283  135.0201  156.8314 LP  0  0  0  0  0  0  0  0  0  0  0  0  # atno 17395 bound_to 11000

$$$$
