AV-unprocessed.smi:1326|AV-procd|sdf|5474|dock4
  -GOLD-   22720 5 43D 1   1.00000     0.00000
 Structure written by MMmdl.
 39 39  0  0  0  0  0  0  0  0  1 V2000
  146.4750  138.0151  152.3797 C   0  0  0  0  0  0  0  0  0  0  0  0
  147.2602  139.0871  153.1057 C   0  0  0  0  0  0  0  0  0  0  0  0
  146.7512  140.2031  153.5130 N   0  0  0  0  0  0  0  0  0  0  0  0
  147.5791  141.1218  154.1732 C   0  0  0  0  0  0  0  0  0  0  0  0
  146.8999  142.4042  154.6237 C   0  0  0  0  0  0  0  0  0  0  0  0
  148.9022  140.8626  154.3928 C   0  0  0  0  0  0  0  0  0  0  0  0
  149.8456  141.8384  155.0967 C   0  0  0  0  0  0  0  0  0  0  0  0
  149.9080  141.7374  156.6239 C   0  0  0  0  0  0  0  0  0  0  0  0
  149.3028  140.8358  157.2027 O   0  0  0  0  0  0  0  0  0  0  0  0
  150.6293  142.6665  157.2681 N   0  0  0  0  0  0  0  0  0  0  0  0
  150.7970  142.7309  158.7124 C   0  0  0  0  0  0  0  0  0  0  0  0
  152.2782  142.5599  159.0869 C   0  0  0  0  0  0  0  0  0  0  0  0
  152.5202  142.2595  160.5804 C   0  0  0  0  0  0  0  0  0  0  0  0
  152.2828  143.4884  161.4747 C   0  0  0  0  0  0  0  0  0  0  0  0
  153.9361  141.7051  160.8002 C   0  0  0  0  0  0  0  0  0  0  0  0
  149.4721  139.5847  153.9239 C   0  0  0  0  0  0  0  0  0  0  0  0
  150.6481  139.2537  154.0659 O   0  0  0  0  0  0  0  0  0  0  0  0
  148.6012  138.7611  153.2993 N   0  0  0  0  0  0  0  0  0  0  0  0
  148.9440  137.8741  152.9602 H   0  0  0  0  0  0  0  0  0  0  0  0
  147.1020  137.1600  152.1233 H   0  0  0  0  0  0  0  0  0  0  0  0
  146.0542  138.4178  151.4579 H   0  0  0  0  0  0  0  0  0  0  0  0
  145.6554  137.6619  153.0059 H   0  0  0  0  0  0  0  0  0  0  0  0
  146.8967  142.4702  155.7119 H   0  0  0  0  0  0  0  0  0  0  0  0
  145.8639  142.4439  154.2845 H   0  0  0  0  0  0  0  0  0  0  0  0
  147.4117  143.2792  154.2247 H   0  0  0  0  0  0  0  0  0  0  0  0
  150.8595  141.7086  154.7197 H   0  0  0  0  0  0  0  0  0  0  0  0
  149.5795  142.8598  154.8198 H   0  0  0  0  0  0  0  0  0  0  0  0
  151.0938  143.3756  156.7192 H   0  0  0  0  0  0  0  0  0  0  0  0
  150.4181  143.6883  159.0714 H   0  0  0  0  0  0  0  0  0  0  0  0
  150.1968  141.9477  159.1777 H   0  0  0  0  0  0  0  0  0  0  0  0
  152.6888  141.7421  158.4928 H   0  0  0  0  0  0  0  0  0  0  0  0
  152.8362  143.4516  158.7970 H   0  0  0  0  0  0  0  0  0  0  0  0
  151.8188  141.4821  160.8862 H   0  0  0  0  0  0  0  0  0  0  0  0
  152.9249  144.3206  161.1842 H   0  0  0  0  0  0  0  0  0  0  0  0
  152.4930  143.2578  162.5195 H   0  0  0  0  0  0  0  0  0  0  0  0
  151.2492  143.8299  161.4253 H   0  0  0  0  0  0  0  0  0  0  0  0
  154.6955  142.4319  160.5093 H   0  0  0  0  0  0  0  0  0  0  0  0
  154.1010  140.7994  160.2157 H   0  0  0  0  0  0  0  0  0  0  0  0
  154.1021  141.4518  161.8477 H   0  0  0  0  0  0  0  0  0  0  0  0
  1  2  1  0  0  0  0
  1 20  1  0  0  0  0
  1 21  1  0  0  0  0
  1 22  1  0  0  0  0
  2 18  1  0  0  0  0
  2  3  2  0  0  0  0
  3  4  1  0  0  0  0
  4  5  1  0  0  0  0
  4  6  2  0  0  0  0
  5 23  1  0  0  0  0
  5 24  1  0  0  0  0
  5 25  1  0  0  0  0
  6  7  1  0  0  0  0
  6 16  1  0  0  0  0
  7  8  1  0  0  0  0
  7 26  1  0  0  0  0
  7 27  1  0  0  0  0
  8  9  2  0  0  0  0
  8 10  1  0  0  0  0
 10 11  1  0  0  0  0
 10 28  1  0  0  0  0
 11 12  1  0  0  0  0
 11 29  1  0  0  0  0
 11 30  1  0  0  0  0
 12 13  1  0  0  0  0
 12 31  1  0  0  0  0
 12 32  1  0  0  0  0
 13 14  1  0  0  0  0
 13 15  1  0  0  0  0
 13 33  1  0  0  0  0
 14 34  1  0  0  0  0
 14 35  1  0  0  0  0
 14 36  1  0  0  0  0
 15 37  1  0  0  0  0
 15 38  1  0  0  0  0
 15 39  1  0  0  0  0
 16 17  2  0  0  0  0
 16 18  1  0  0  0  0
 18 19  1  0  0  0  0
M  END
> <s_m_source_file>
AV-unprocessed.smi

> <i_m_source_file_index>
1326

> <i_lp_mmshare_version>
43012

> <i_f3d_flags>
0

> <s_epik_input>
W0NIM11jMW5jKFtDSDNdKWMoYyg9TylbbkhdMSlbQ0gyXUMoPU8pW05IXVtDSDJdW0NIMl1bQ0hdKFtDSDNdKVtDSDNd

> <s_epik_cmdline>
J2VwaWtfcHl0aG9uJywgJy1waCcsICc3LjAnLCAnLXRuJywgJzgnLCAnLW1hJywgJzIwMCcsICctbWV0YWxfYmluZGluZycsICctaW1hZScsICc8aW5maWxlLm1hZT4nLCAnLW9tYWUnLCAnPG91dGZpbGUubWFlPic=

> <r_lp_tautomer_probability>
0.839158

> <r_epik_Ionization_Penalty>
0.000369141

> <r_epik_Ionization_Penalty_Charging>
0.00033405

> <r_epik_Ionization_Penalty_Neutral>
3.5091e-05

> <r_epik_State_Penalty>
0.09125

> <r_epik_Charging_Adjusted_Penalty>
0.0915841

> <i_epik_Tot_Q>
0

> <i_epik_Tot_abs_Q>
0

> <r_epik_Metal_State_Penalty>
0.250923

> <b_epik_Metal_Only>
0

> <s_lp_Force_Field>
OPLS_2005

> <r_lp_Energy>
6.99246

> <b_lp_Chiralities_Consistent>
1

> <s_lp_Variant>
AV-unprocessed.smi:1326-1

> <Gold.Version>
5.8.1

> <Gold.Id.Protein>
6NUR|6NUR_protein|mol2

> <Gold.PLP.Fitness>
41.3129

> <Gold.PLP.PLP>
-36.4228

> <Gold.PLP.part.hbond>
-3.5762

> <Gold.PLP.part.metal>
0.0000

> <Gold.PLP.part.buried>
2.3821

> <Gold.PLP.part.nonpolar>
-34.5069

> <Gold.PLP.part.repulsive>
0.4840

> <Gold.PLP.ligand.clash>
0.0000

> <Gold.PLP.ligand.torsion>
0.5637

> <Gold.PLP.Chemscore.Hbond>
1.9913

> <Gold.PLP.Chemscore.CHOScore>
0.0000

> <Gold.PLP.Chemscore.Metal>
0.0000

> <Gold.Chemscore.Hbonds>
donor molecule, donor type, donor heavy atom, donor atom, acceptor molecule, acceptor atom, score
      L1  H    18    19       P1  7948  1.00
      P1  H  7989  7998       L1    17  1.00

> <Gold.PLP.Chemscore.Internal.Correction>
0.0438

> <Gold.Rescore>
     Score         DG    S(hbond)    S(metal)    S(lipo)     H(rot)  DE(clash)    DE(int)     intcor
     14.60     -15.93       1.78        0.00      79.84       1.89       0.83       0.50       ----

> <Gold.Chemscore.Fitness>
14.6029

> <Gold.Chemscore.DG>
-15.9322

> <Gold.Chemscore.ZeroCoef>
-5.4800

> <Gold.Chemscore.Hbond>
1.7825

> <Gold.Chemscore.Metal>
0.0000

> <Gold.Chemscore.Lipo>
79.8391

> <Gold.Chemscore.Internal_Hbond>
0.0000

> <Gold.Chemscore.DEClash>
0.8328

> <Gold.Chemscore.DEInternal>
0.4965

> <Gold.Chemscore.Rot>
1.8916

> <Gold.Chemscore.Internal.Correction>
   9.000000E+99

> <Gold.Chemscore.Hbonds>
donor molecule, donor type, donor heavy atom, donor atom, acceptor molecule, acceptor atom, score
      L1  H    18    19       P1  7948  0.98
      P1  H  7989  7998       L1    17  0.39

> <Gold.Chemscore.Hbond.Weighted>
-5.9535

> <Gold.Chemscore.Metal.Weighted>
-0.0000

> <Gold.Chemscore.Lipo.Weighted>
-9.3412

> <Gold.Chemscore.Internal_Hbond.Weighted>
0.0000

> <Gold.Chemscore.DEClash.Weighted>
0.8328

> <Gold.Chemscore.DEInternal.Weighted>
0.4965

> <Gold.Chemscore.Rot.Weighted>
4.8424

> <Gold.Chemscore.Internal.Correction.Weighted>
   9.000000E+99

> <Gold.Protein.RotatedTorsions>
[ 6907 6896 6895 6894 ] final -123.33 input  -60.11 | X-H torsion
[ 7974 7965 7964 7962 ] final  108.64 input  175.53 | X-H torsion
[ 8008 7997 7996 7995 ] final   18.24 input   59.86 | X-H torsion
[ 10167 10162 10161 10158 ] final   16.96 input  -65.29 | X-H torsion
[ 10718 10713 10712 10709 ] final   22.16 input   66.30 | X-H torsion
[ 10763 10752 10751 10750 ] final  -38.62 input  -60.55 | X-H torsion
[ 11005 11000 10999 10996 ] final    9.98 input  -57.11 | X-H torsion

> <Gold.Protein.ActiveResidues>
 VAL166  LYS551  ARG553  GLY616  TRP617  ASP618  TYR619  PRO620  LYS621  CYS622 
 ASP623  PHE694  ASN695  SER759  ASP760  ASP761  ALA762  ILE779  LEU786  VAL792 
 PHE793  MET794  SER795  GLU796  ALA797  LYS798  CYS799  TRP800  GLU811  SER814 

> <Gold.Protein.RotatedAtoms>
  150.8660  133.7574  159.2976 H   0  0  0  0  0  0  0  0  0  0  0  0  # atno 6907 bound_to 6896
  151.5201  135.1065  159.9886 H   0  0  0  0  0  0  0  0  0  0  0  0  # atno 6908 bound_to 6896
  152.4661  133.7882  159.6943 H   0  0  0  0  0  0  0  0  0  0  0  0  # atno 6909 bound_to 6896
  145.2781  139.2642  143.3930 H   0  0  0  0  0  0  0  0  0  0  0  0  # atno 7974 bound_to 7965
  154.9032  140.3003  155.5306 H   0  0  0  0  0  0  0  0  0  0  0  0  # atno 8008 bound_to 7997
  156.3018  140.2403  156.3997 H   0  0  0  0  0  0  0  0  0  0  0  0  # atno 8009 bound_to 7997
  154.8500  140.0410  157.1587 H   0  0  0  0  0  0  0  0  0  0  0  0  # atno 8010 bound_to 7997
  140.5760  143.9072  150.6750 H   0  0  0  0  0  0  0  0  0  0  0  0  # atno 10167 bound_to 10162
  157.1485  130.6664  149.6004 H   0  0  0  0  0  0  0  0  0  0  0  0  # atno 10718 bound_to 10713
  153.9158  135.6787  153.4749 H   0  0  0  0  0  0  0  0  0  0  0  0  # atno 10763 bound_to 10752
  153.1054  135.4808  154.8939 H   0  0  0  0  0  0  0  0  0  0  0  0  # atno 10764 bound_to 10752
  154.7503  135.3183  154.8525 H   0  0  0  0  0  0  0  0  0  0  0  0  # atno 10765 bound_to 10752
  140.5196  134.0572  155.7841 H   0  0  0  0  0  0  0  0  0  0  0  0  # atno 11005 bound_to 11000
  146.3225  140.3241  142.8635 LP  0  0  0  0  0  0  0  0  0  0  0  0  # atno 17320 bound_to 7965
  144.9277  140.7939  143.5709 LP  0  0  0  0  0  0  0  0  0  0  0  0  # atno 17321 bound_to 7965
  140.2559  143.3559  152.1365 LP  0  0  0  0  0  0  0  0  0  0  0  0  # atno 17342 bound_to 10162
  139.5143  144.6945  151.5667 LP  0  0  0  0  0  0  0  0  0  0  0  0  # atno 17343 bound_to 10162
  155.9775  130.4753  150.6596 LP  0  0  0  0  0  0  0  0  0  0  0  0  # atno 17370 bound_to 10713
  157.4242  131.0841  151.1102 LP  0  0  0  0  0  0  0  0  0  0  0  0  # atno 17371 bound_to 10713
  141.1341  133.9251  157.2471 LP  0  0  0  0  0  0  0  0  0  0  0  0  # atno 17394 bound_to 11000
  139.9613  135.0153  156.9269 LP  0  0  0  0  0  0  0  0  0  0  0  0  # atno 17395 bound_to 11000

$$$$
