AV-unprocessed.smi:2556|AV-procd|sdf|10025|dock3
  -GOLD-   2272014 73D 1   1.00000     0.00000
 Structure written by MMmdl.
 34 36  0  0  0  0  0  0  0  0  2 V2000
  149.9521  135.3664  154.6189 C   0  0  0  0  0  0  0  0  0  0  0  0
  150.3949  136.1890  155.7482 N   0  0  0  0  0  0  0  0  0  0  0  0
  150.4740  135.6659  157.0128 C   0  0  0  0  0  0  0  0  0  0  0  0
  150.1609  134.4860  157.1779 O   0  0  0  0  0  0  0  0  0  0  0  0
  150.8954  136.4595  158.0585 N   0  5  0  0  0  0  0  0  0  0  0  0
  151.2642  137.7770  157.9730 C   0  0  0  0  0  0  0  0  0  0  0  0
  151.6466  138.4965  158.8936 O   0  0  0  0  0  0  0  0  0  0  0  0
  151.1570  138.2946  156.5921 C   0  0  0  0  0  0  0  0  0  0  0  0
  150.7471  137.5490  155.5280 C   0  0  0  0  0  0  0  0  0  0  0  0
  150.7488  138.2944  154.3536 N   0  0  0  0  0  0  0  0  0  0  0  0
  151.1721  139.4835  154.7806 C   0  0  0  0  0  0  0  0  0  0  0  0
  151.4390  139.5704  156.0992 N   0  0  0  0  0  0  0  0  0  0  0  0
  151.9158  140.7585  156.7928 C   0  0  0  0  0  0  0  0  0  0  0  0
  150.7896  141.7707  157.0875 C   0  0  2  0  0  0  0  0  0  0  0  0
  150.3441  142.3823  155.8924 O   0  0  0  0  0  0  0  0  0  0  0  0
  151.2268  142.7949  158.1228 C   0  0  0  0  0  0  0  0  0  0  0  0
  151.0918  144.1745  157.8563 C   0  0  0  0  0  0  0  0  0  0  0  0
  151.4923  145.1248  158.8159 C   0  0  0  0  0  0  0  0  0  0  0  0
  152.0277  144.7013  160.0475 C   0  0  0  0  0  0  0  0  0  0  0  0
  152.1610  143.3263  160.3203 C   0  0  0  0  0  0  0  0  0  0  0  0
  151.7604  142.3757  159.3615 C   0  0  0  0  0  0  0  0  0  0  0  0
  150.6161  134.5113  154.4857 H   0  0  0  0  0  0  0  0  0  0  0  0
  149.9363  135.9160  153.6785 H   0  0  0  0  0  0  0  0  0  0  0  0
  148.9431  134.9906  154.7931 H   0  0  0  0  0  0  0  0  0  0  0  0
  151.2946  140.3214  154.1104 H   0  0  0  0  0  0  0  0  0  0  0  0
  152.3724  140.4385  157.7305 H   0  0  0  0  0  0  0  0  0  0  0  0
  152.7186  141.2187  156.2191 H   0  0  0  0  0  0  0  0  0  0  0  0
  149.9334  141.2258  157.4875 H   0  0  0  0  0  0  0  0  0  0  0  0
  150.1663  143.2931  156.0686 H   0  0  0  0  0  0  0  0  0  0  0  0
  150.6800  144.5098  156.9156 H   0  0  0  0  0  0  0  0  0  0  0  0
  151.3876  146.1793  158.6075 H   0  0  0  0  0  0  0  0  0  0  0  0
  152.3343  145.4303  160.7829 H   0  0  0  0  0  0  0  0  0  0  0  0
  152.5693  142.9996  161.2654 H   0  0  0  0  0  0  0  0  0  0  0  0
  151.8617  141.3223  159.5799 H   0  0  0  0  0  0  0  0  0  0  0  0
  1  2  1  0  0  0  0
  1 22  1  0  0  0  0
  1 23  1  0  0  0  0
  1 24  1  0  0  0  0
  2  9  1  0  0  0  0
  2  3  1  0  0  0  0
  3  4  2  0  0  0  0
  3  5  1  0  0  0  0
  5  6  1  0  0  0  0
  6  7  2  0  0  0  0
  6  8  1  0  0  0  0
  8 12  1  0  0  0  0
  8  9  2  0  0  0  0
  9 10  1  0  0  0  0
 10 11  2  0  0  0  0
 11 12  1  0  0  0  0
 11 25  1  0  0  0  0
 12 13  1  0  0  0  0
 13 14  1  0  0  0  0
 13 26  1  0  0  0  0
 13 27  1  0  0  0  0
 14 15  1  0  0  0  0
 14 16  1  0  0  0  0
 14 28  1  0  0  0  0
 15 29  1  0  0  0  0
 16 21  1  0  0  0  0
 16 17  2  0  0  0  0
 17 18  1  0  0  0  0
 17 30  1  0  0  0  0
 18 19  2  0  0  0  0
 18 31  1  0  0  0  0
 19 20  1  0  0  0  0
 19 32  1  0  0  0  0
 20 21  2  0  0  0  0
 20 33  1  0  0  0  0
 21 34  1  0  0  0  0
M  CHG  1   5  -1
M  END
> <s_m_source_file>
AV-unprocessed.smi

> <i_m_source_file_index>
2556

> <i_lp_mmshare_version>
43012

> <i_f3d_flags>
0

> <s_epik_input>
Tz1jMVtuSF1jKD1PKW4oW0NIM10pYyhjMTIpbltjSF1uMltDSDJdW0NASF0oW09IXSljM1tjSF1bY0hdW2NIXVtjSF1bY0hdMw==

> <s_epik_cmdline>
J2VwaWtfcHl0aG9uJywgJy1waCcsICc3LjAnLCAnLXRuJywgJzgnLCAnLW1hJywgJzIwMCcsICctbWV0YWxfYmluZGluZycsICctaW1hZScsICc8aW5maWxlLm1hZT4nLCAnLW9tYWUnLCAnPG91dGZpbGUubWFlPic=

> <r_lp_tautomer_probability>
1

> <r_epik_Ionization_Penalty>
4.84872

> <r_epik_Ionization_Penalty_Charging>
0.03865

> <r_epik_Ionization_Penalty_Neutral>
4.81007

> <r_epik_State_Penalty>
4.80988

> <r_epik_Charging_Adjusted_Penalty>
4.84853

> <i_epik_Tot_Q>
-1

> <i_epik_Tot_abs_Q>
1

> <r_epik_Metal_State_Penalty>
0.994041

> <b_epik_Metal_Only>
1

> <s_lp_Force_Field>
OPLS_2005

> <r_lp_Energy>
33.4055

> <b_lp_Chiralities_Consistent>
1

> <s_lp_Variant>
AV-unprocessed.smi:2556-3

> <Gold.Version>
5.8.1

> <Gold.Id.Protein>
6NUR|6NUR_protein|mol2

> <Gold.PLP.Fitness>
43.5224

> <Gold.PLP.PLP>
-36.3615

> <Gold.PLP.part.hbond>
-3.0000

> <Gold.PLP.part.metal>
0.0000

> <Gold.PLP.part.buried>
-4.3404

> <Gold.PLP.part.nonpolar>
-30.0193

> <Gold.PLP.part.repulsive>
0.1771

> <Gold.PLP.ligand.clash>
0.0000

> <Gold.PLP.ligand.torsion>
0.4143

> <Gold.PLP.Chemscore.Hbond>
2.6520

> <Gold.PLP.Chemscore.CHOScore>
0.0000

> <Gold.PLP.Chemscore.Metal>
0.0000

> <Gold.Chemscore.Hbonds>
donor molecule, donor type, donor heavy atom, donor atom, acceptor molecule, acceptor atom, score
      L1  H    15    29       P1  8028  0.85
      P1  H  6896  6907       L1     4  0.06
      P1  H  6896  6908       L1     5  0.49

> <Gold.PLP.Chemscore.Internal.Correction>
0.0335

> <Gold.Rescore>
     Score         DG    S(hbond)    S(metal)    S(lipo)     H(rot)  DE(clash)    DE(int)     intcor
     14.80     -15.40       1.66        0.00      87.40       2.28       0.04       0.56       ----

> <Gold.Chemscore.Fitness>
14.7986

> <Gold.Chemscore.DG>
-15.3994

> <Gold.Chemscore.ZeroCoef>
-5.4800

> <Gold.Chemscore.Hbond>
1.6578

> <Gold.Chemscore.Metal>
0.0000

> <Gold.Chemscore.Lipo>
87.3962

> <Gold.Chemscore.Internal_Hbond>
0.0000

> <Gold.Chemscore.DEClash>
0.0381

> <Gold.Chemscore.DEInternal>
0.5627

> <Gold.Chemscore.Rot>
2.2824

> <Gold.Chemscore.Internal.Correction>
   9.000000E+99

> <Gold.Chemscore.Hbonds>
donor molecule, donor type, donor heavy atom, donor atom, acceptor molecule, acceptor atom, score
      L1  H    15    29       P1  8028  0.82
      P1  H  6896  6907       L1     4  0.06
      P1  H  6896  6908       L1     5  0.16

> <Gold.Chemscore.Hbond.Weighted>
-5.5371

> <Gold.Chemscore.Metal.Weighted>
-0.0000

> <Gold.Chemscore.Lipo.Weighted>
-10.2254

> <Gold.Chemscore.Internal_Hbond.Weighted>
0.0000

> <Gold.Chemscore.DEClash.Weighted>
0.0381

> <Gold.Chemscore.DEInternal.Weighted>
0.5627

> <Gold.Chemscore.Rot.Weighted>
5.8431

> <Gold.Chemscore.Internal.Correction.Weighted>
   9.000000E+99

> <Gold.Protein.RotatedTorsions>
[ 6907 6896 6895 6894 ] final -139.94 input  -60.11 | X-H torsion
[ 7974 7965 7964 7962 ] final  -48.93 input  175.53 | X-H torsion
[ 8008 7997 7996 7995 ] final -173.52 input   59.86 | X-H torsion
[ 10167 10162 10161 10158 ] final  154.95 input  -65.29 | X-H torsion
[ 10718 10713 10712 10709 ] final   93.06 input   66.30 | X-H torsion
[ 10763 10752 10751 10750 ] final  115.73 input  -60.55 | X-H torsion
[ 11005 11000 10999 10996 ] final  -31.41 input  -57.11 | X-H torsion

> <Gold.Protein.ActiveResidues>
 VAL166  LYS551  ARG553  GLY616  TRP617  ASP618  TYR619  PRO620  LYS621  CYS622 
 ASP623  PHE694  ASN695  SER759  ASP760  ASP761  ALA762  ILE779  LEU786  VAL792 
 PHE793  MET794  SER795  GLU796  ALA797  LYS798  CYS799  TRP800  GLU811  SER814 

> <Gold.Protein.RotatedAtoms>
  151.0542  133.5598  159.2639 H   0  0  0  0  0  0  0  0  0  0  0  0  # atno 6907 bound_to 6896
  151.2598  135.0649  159.9103 H   0  0  0  0  0  0  0  0  0  0  0  0  # atno 6908 bound_to 6896
  152.5387  134.0289  159.8070 H   0  0  0  0  0  0  0  0  0  0  0  0  # atno 6909 bound_to 6896
  145.9459  140.7618  142.9529 H   0  0  0  0  0  0  0  0  0  0  0  0  # atno 7974 bound_to 7965
  155.9584  140.1140  157.0916 H   0  0  0  0  0  0  0  0  0  0  0  0  # atno 8008 bound_to 7997
  154.4126  140.1186  156.5213 H   0  0  0  0  0  0  0  0  0  0  0  0  # atno 8009 bound_to 7997
  155.6752  140.3473  155.4836 H   0  0  0  0  0  0  0  0  0  0  0  0  # atno 8010 bound_to 7997
  139.4822  144.5141  151.7978 H   0  0  0  0  0  0  0  0  0  0  0  0  # atno 10167 bound_to 10162
  157.6956  131.0465  150.3976 H   0  0  0  0  0  0  0  0  0  0  0  0  # atno 10718 bound_to 10713
  153.5266  135.3587  155.2656 H   0  0  0  0  0  0  0  0  0  0  0  0  # atno 10763 bound_to 10752
  154.8730  135.4058  154.3199 H   0  0  0  0  0  0  0  0  0  0  0  0  # atno 10764 bound_to 10752
  153.3880  135.7070  153.6583 H   0  0  0  0  0  0  0  0  0  0  0  0  # atno 10765 bound_to 10752
  140.9466  133.7246  156.1155 H   0  0  0  0  0  0  0  0  0  0  0  0  # atno 11005 bound_to 11000
  144.6787  140.2356  143.7350 LP  0  0  0  0  0  0  0  0  0  0  0  0  # atno 17320 bound_to 7965
  145.8237  139.2055  143.1923 LP  0  0  0  0  0  0  0  0  0  0  0  0  # atno 17321 bound_to 7965
  140.4648  144.1671  150.5910 LP  0  0  0  0  0  0  0  0  0  0  0  0  # atno 17342 bound_to 10162
  140.4446  143.2512  151.9428 LP  0  0  0  0  0  0  0  0  0  0  0  0  # atno 17343 bound_to 10162
  156.4373  130.3984  149.6721 LP  0  0  0  0  0  0  0  0  0  0  0  0  # atno 17370 bound_to 10713
  156.3917  130.7630  151.2632 LP  0  0  0  0  0  0  0  0  0  0  0  0  # atno 17371 bound_to 10713
  140.7661  134.3885  157.5516 LP  0  0  0  0  0  0  0  0  0  0  0  0  # atno 17394 bound_to 11000
  139.8835  134.8992  156.2762 LP  0  0  0  0  0  0  0  0  0  0  0  0  # atno 17395 bound_to 11000

$$$$
