AV-unprocessed.smi:3162|AV-procd|sdf|12068|dock1
  -GOLD-   2272017493D 1   1.00000     0.00000
 Structure written by MMmdl.
 36 36  0  0  0  0  0  0  0  0  1 V2000
  151.8085  138.3990  154.3860 C   0  0  0  0  0  0  0  0  0  0  0  0
  152.3595  139.3964  155.4172 C   0  0  0  0  0  0  0  0  0  0  0  0
  151.2883  140.0069  156.3472 C   0  0  1  0  0  0  0  0  0  0  0  0
  151.9459  140.5372  157.5596 N   0  0  0  0  0  0  0  0  0  0  0  0
  152.7439  139.6040  158.3599 C   0  0  2  0  0  0  0  0  0  0  0  0
  151.7635  138.8095  159.2384 C   0  0  0  0  0  0  0  0  0  0  0  0
  153.8455  140.3160  159.1859 C   0  0  0  0  0  0  0  0  0  0  0  0
  153.3570  141.4338  159.9787 N   0  0  0  0  0  0  0  0  0  0  0  0
  152.8045  142.6196  159.5416 C   0  0  0  0  0  0  0  0  0  0  0  0
  152.4918  143.3609  160.6457 C   0  0  0  0  0  0  0  0  0  0  0  0
  151.8622  144.7218  160.7181 C   0  0  0  0  0  0  0  0  0  0  0  0
  152.9057  142.5329  161.7275 C   0  0  0  0  0  0  0  0  0  0  0  0
  153.4262  141.3847  161.3266 N   0  0  0  0  0  0  0  0  0  0  0  0
  150.4350  141.0592  155.6162 C   0  0  0  0  0  0  0  0  0  0  0  0
  150.3123  142.2554  156.1975 N   0  0  0  0  0  0  0  0  0  0  0  0
  149.9132  140.8010  154.5333 O   0  0  0  0  0  0  0  0  0  0  0  0
  152.6192  137.9576  153.8061 H   0  0  0  0  0  0  0  0  0  0  0  0
  151.1277  138.8787  153.6827 H   0  0  0  0  0  0  0  0  0  0  0  0
  151.2708  137.5861  154.8743 H   0  0  0  0  0  0  0  0  0  0  0  0
  153.1001  138.8752  156.0256 H   0  0  0  0  0  0  0  0  0  0  0  0
  152.9046  140.1875  154.9004 H   0  0  0  0  0  0  0  0  0  0  0  0
  150.6338  139.1892  156.6490 H   0  0  0  0  0  0  0  0  0  0  0  0
  151.2741  140.9920  158.1616 H   0  0  0  0  0  0  0  0  0  0  0  0
  153.2248  138.8806  157.7018 H   0  0  0  0  0  0  0  0  0  0  0  0
  152.2961  138.1000  159.8722 H   0  0  0  0  0  0  0  0  0  0  0  0
  151.0621  138.2397  158.6280 H   0  0  0  0  0  0  0  0  0  0  0  0
  151.1791  139.4616  159.8886 H   0  0  0  0  0  0  0  0  0  0  0  0
  154.3048  139.5933  159.8624 H   0  0  0  0  0  0  0  0  0  0  0  0
  154.6573  140.6694  158.5511 H   0  0  0  0  0  0  0  0  0  0  0  0
  152.6752  142.8335  158.4908 H   0  0  0  0  0  0  0  0  0  0  0  0
  151.0140  144.7362  161.4026 H   0  0  0  0  0  0  0  0  0  0  0  0
  151.4954  145.0527  159.7461 H   0  0  0  0  0  0  0  0  0  0  0  0
  152.5703  145.4734  161.0674 H   0  0  0  0  0  0  0  0  0  0  0  0
  152.8433  142.7321  162.7873 H   0  0  0  0  0  0  0  0  0  0  0  0
  149.7636  142.9773  155.7540 H   0  0  0  0  0  0  0  0  0  0  0  0
  150.7711  142.4330  157.0791 H   0  0  0  0  0  0  0  0  0  0  0  0
  1  2  1  0  0  0  0
  1 17  1  0  0  0  0
  1 18  1  0  0  0  0
  1 19  1  0  0  0  0
  2  3  1  0  0  0  0
  2 20  1  0  0  0  0
  2 21  1  0  0  0  0
  3  4  1  0  0  0  0
  3 14  1  0  0  0  0
  3 22  1  0  0  0  0
  4  5  1  0  0  0  0
  4 23  1  0  0  0  0
  5  6  1  0  0  0  0
  5  7  1  0  0  0  0
  5 24  1  0  0  0  0
  6 25  1  0  0  0  0
  6 26  1  0  0  0  0
  6 27  1  0  0  0  0
  7  8  1  0  0  0  0
  7 28  1  0  0  0  0
  7 29  1  0  0  0  0
  8 13  1  0  0  0  0
  8  9  1  0  0  0  0
  9 10  2  0  0  0  0
  9 30  1  0  0  0  0
 10 11  1  0  0  0  0
 10 12  1  0  0  0  0
 11 31  1  0  0  0  0
 11 32  1  0  0  0  0
 11 33  1  0  0  0  0
 12 13  2  0  0  0  0
 12 34  1  0  0  0  0
 14 15  1  0  0  0  0
 14 16  2  0  0  0  0
 15 35  1  0  0  0  0
 15 36  1  0  0  0  0
M  END
> <s_m_source_file>
AV-unprocessed.smi

> <i_m_source_file_index>
3162

> <i_lp_mmshare_version>
43012

> <i_f3d_flags>
0

> <s_epik_input>
W0NIM11bQ0gyXVtDQEBIXShDKD1PKVtOSDJdKVtOSF1bQ0BIXShbQ0gzXSlbQ0gyXW4xW2NIXWMoW0NIM10pW2NIXW4x

> <s_epik_cmdline>
J2VwaWtfcHl0aG9uJywgJy1waCcsICc3LjAnLCAnLXRuJywgJzgnLCAnLW1hJywgJzIwMCcsICctbWV0YWxfYmluZGluZycsICctaW1hZScsICc8aW5maWxlLm1hZT4nLCAnLW9tYWUnLCAnPG91dGZpbGUubWFlPic=

> <r_lp_tautomer_probability>
1

> <r_epik_Ionization_Penalty>
1.04167

> <r_epik_Ionization_Penalty_Charging>
0

> <r_epik_Ionization_Penalty_Neutral>
1.04167

> <r_epik_State_Penalty>
1.09367

> <r_epik_Charging_Adjusted_Penalty>
1.09367

> <i_epik_Tot_Q>
0

> <i_epik_Tot_abs_Q>
0

> <r_epik_Metal_State_Penalty>
1.09362

> <b_epik_Metal_Only>
0

> <s_lp_Force_Field>
OPLS_2005

> <r_lp_Energy>
2.92083

> <b_lp_Chiralities_Consistent>
1

> <s_lp_Variant>
AV-unprocessed.smi:3162-6

> <Gold.Version>
5.8.1

> <Gold.Id.Protein>
6NUR|6NUR_protein|mol2

> <Gold.PLP.Fitness>
42.4440

> <Gold.PLP.PLP>
-38.3786

> <Gold.PLP.part.hbond>
-2.0000

> <Gold.PLP.part.metal>
0.0000

> <Gold.PLP.part.buried>
-3.7834

> <Gold.PLP.part.nonpolar>
-31.2338

> <Gold.PLP.part.repulsive>
0.2292

> <Gold.PLP.ligand.clash>
0.0000

> <Gold.PLP.ligand.torsion>
0.5562

> <Gold.PLP.Chemscore.Hbond>
1.5632

> <Gold.PLP.Chemscore.CHOScore>
0.0000

> <Gold.PLP.Chemscore.Metal>
0.0000

> <Gold.Chemscore.Hbonds>
donor molecule, donor type, donor heavy atom, donor atom, acceptor molecule, acceptor atom, score
      L1  H    15    35       P1  8028  1.00
      P1  H  7989  7998       L1    16  0.53

> <Gold.PLP.Chemscore.Internal.Correction>
0.4883

> <Gold.Rescore>
     Score         DG    S(hbond)    S(metal)    S(lipo)     H(rot)  DE(clash)    DE(int)     intcor
     12.26     -12.95       1.02        0.00      87.99       2.43       0.10       0.60       ----

> <Gold.Chemscore.Fitness>
12.2551

> <Gold.Chemscore.DG>
-12.9496

> <Gold.Chemscore.ZeroCoef>
-5.4800

> <Gold.Chemscore.Hbond>
1.0188

> <Gold.Chemscore.Metal>
0.0000

> <Gold.Chemscore.Lipo>
87.9887

> <Gold.Chemscore.Internal_Hbond>
0.0000

> <Gold.Chemscore.DEClash>
0.0955

> <Gold.Chemscore.DEInternal>
0.5991

> <Gold.Chemscore.Rot>
2.4328

> <Gold.Chemscore.Internal.Correction>
   9.000000E+99

> <Gold.Chemscore.Hbonds>
donor molecule, donor type, donor heavy atom, donor atom, acceptor molecule, acceptor atom, score
      L1  H    15    35       P1  8028  0.97
      P1  H  7989  7998       L1    16  0.06

> <Gold.Chemscore.Hbond.Weighted>
-3.4029

> <Gold.Chemscore.Metal.Weighted>
-0.0000

> <Gold.Chemscore.Lipo.Weighted>
-10.2947

> <Gold.Chemscore.Internal_Hbond.Weighted>
0.0000

> <Gold.Chemscore.DEClash.Weighted>
0.0955

> <Gold.Chemscore.DEInternal.Weighted>
0.5991

> <Gold.Chemscore.Rot.Weighted>
6.2279

> <Gold.Chemscore.Internal.Correction.Weighted>
   9.000000E+99

> <Gold.Protein.RotatedTorsions>
[ 6907 6896 6895 6894 ] final -115.26 input  -60.11 | X-H torsion
[ 7974 7965 7964 7962 ] final  -22.23 input  175.53 | X-H torsion
[ 8008 7997 7996 7995 ] final    6.97 input   59.86 | X-H torsion
[ 10167 10162 10161 10158 ] final  124.74 input  -65.29 | X-H torsion
[ 10718 10713 10712 10709 ] final   20.20 input   66.30 | X-H torsion
[ 10763 10752 10751 10750 ] final -116.34 input  -60.55 | X-H torsion
[ 11005 11000 10999 10996 ] final  143.47 input  -57.11 | X-H torsion

> <Gold.Protein.ActiveResidues>
 VAL166  LYS551  ARG553  GLY616  TRP617  ASP618  TYR619  PRO620  LYS621  CYS622 
 ASP623  PHE694  ASN695  SER759  ASP760  ASP761  ALA762  ILE779  LEU786  VAL792 
 PHE793  MET794  SER795  GLU796  ALA797  LYS798  CYS799  TRP800  GLU811  SER814 

> <Gold.Protein.RotatedAtoms>
  150.7964  133.8683  159.3251 H   0  0  0  0  0  0  0  0  0  0  0  0  # atno 6907 bound_to 6896
  151.6507  135.1000  160.0169 H   0  0  0  0  0  0  0  0  0  0  0  0  # atno 6908 bound_to 6896
  152.4047  133.6831  159.6381 H   0  0  0  0  0  0  0  0  0  0  0  0  # atno 6909 bound_to 6896
  146.1687  140.4450  142.8541 H   0  0  0  0  0  0  0  0  0  0  0  0  # atno 7974 bound_to 7965
  154.7478  140.2761  155.6318 H   0  0  0  0  0  0  0  0  0  0  0  0  # atno 8008 bound_to 7997
  156.2889  140.2684  156.2150 H   0  0  0  0  0  0  0  0  0  0  0  0  # atno 8009 bound_to 7997
  155.0175  140.0371  157.2414 H   0  0  0  0  0  0  0  0  0  0  0  0  # atno 8010 bound_to 7997
  139.5724  144.6946  151.3742 H   0  0  0  0  0  0  0  0  0  0  0  0  # atno 10167 bound_to 10162
  157.1212  130.6550  149.5924 H   0  0  0  0  0  0  0  0  0  0  0  0  # atno 10718 bound_to 10713
  154.8515  135.4349  154.1805 H   0  0  0  0  0  0  0  0  0  0  0  0  # atno 10763 bound_to 10752
  153.2897  135.6960  153.7311 H   0  0  0  0  0  0  0  0  0  0  0  0  # atno 10764 bound_to 10752
  153.6483  135.3456  155.3067 H   0  0  0  0  0  0  0  0  0  0  0  0  # atno 10765 bound_to 10752
  140.0557  134.9232  157.1095 H   0  0  0  0  0  0  0  0  0  0  0  0  # atno 11005 bound_to 11000
  144.8131  140.6421  143.6402 LP  0  0  0  0  0  0  0  0  0  0  0  0  # atno 17320 bound_to 7965
  145.4397  139.1537  143.3977 LP  0  0  0  0  0  0  0  0  0  0  0  0  # atno 17321 bound_to 7965
  140.7008  143.7636  150.7400 LP  0  0  0  0  0  0  0  0  0  0  0  0  # atno 17342 bound_to 10162
  140.1146  143.4668  152.2350 LP  0  0  0  0  0  0  0  0  0  0  0  0  # atno 17343 bound_to 10162
  155.9828  130.4844  150.6901 LP  0  0  0  0  0  0  0  0  0  0  0  0  # atno 17370 bound_to 10713
  157.4475  131.0868  151.0880 LP  0  0  0  0  0  0  0  0  0  0  0  0  # atno 17371 bound_to 10713
  140.3848  134.2248  155.7169 LP  0  0  0  0  0  0  0  0  0  0  0  0  # atno 17394 bound_to 11000
  141.1951  133.8114  157.0731 LP  0  0  0  0  0  0  0  0  0  0  0  0  # atno 17395 bound_to 11000

$$$$
