AV-unprocessed.smi:1376|AV-procd|sdf|5591|dock4
  -GOLD-   22720 5193D 1   1.00000     0.00000
 Structure written by MMmdl.
 42 43  0  0  0  0  0  0  0  0  1 V2000
  151.6656  136.6388  154.3701 O   0  0  0  0  0  0  0  0  0  0  0  0
  150.9747  136.4927  155.3790 C   0  0  0  0  0  0  0  0  0  0  0  0
  151.0264  137.5208  156.5175 C   0  0  0  0  0  0  0  0  0  0  0  0
  150.6684  138.8803  156.0805 N   0  0  0  0  0  0  0  0  0  0  0  0
  149.4294  139.0419  155.4288 C   0  0  0  0  0  0  0  0  0  0  0  0
  149.0088  140.2388  154.9902 C   0  0  0  0  0  0  0  0  0  0  0  0
  149.8644  141.3822  155.2006 C   0  0  0  0  0  0  0  0  0  0  0  0
  151.0495  141.2397  155.8268 C   0  0  0  0  0  0  0  0  0  0  0  0
  151.5121  139.9337  156.3106 C   0  0  0  0  0  0  0  0  0  0  0  0
  152.5921  139.7947  156.8860 O   0  0  0  0  0  0  0  0  0  0  0  0
  150.1611  135.4431  155.5694 N   0  0  0  0  0  0  0  0  0  0  0  0
  149.9452  134.3557  154.6198 C   0  0  1  0  0  0  0  0  0  0  0  0
  150.3384  133.0042  155.2483 C   0  0  0  0  0  0  0  0  0  0  0  0
  150.0387  131.8358  154.2961 C   0  0  0  0  0  0  0  0  0  0  0  0
  148.5659  131.8388  153.8578 C   0  0  0  0  0  0  0  0  0  0  0  0
  148.1766  133.1790  153.2111 C   0  0  1  0  0  0  0  0  0  0  0  0
  146.7908  133.1147  152.8999 O   0  0  0  0  0  0  0  0  0  0  0  0
  146.4669  132.2436  151.8242 C   0  0  0  0  0  0  0  0  0  0  0  0
  145.3403  132.8641  150.9898 C   0  0  0  0  0  0  0  0  0  0  0  0
  145.5687  134.1688  150.8444 F   0  0  0  0  0  0  0  0  0  0  0  0
  145.2972  132.3004  149.7830 F   0  0  0  0  0  0  0  0  0  0  0  0
  144.1684  132.7008  151.6028 F   0  0  0  0  0  0  0  0  0  0  0  0
  148.4710  134.3477  154.1744 C   0  0  0  0  0  0  0  0  0  0  0  0
  150.3685  137.2063  157.3303 H   0  0  0  0  0  0  0  0  0  0  0  0
  152.0309  137.5051  156.9420 H   0  0  0  0  0  0  0  0  0  0  0  0
  148.8462  138.1393  155.3169 H   0  0  0  0  0  0  0  0  0  0  0  0
  148.0540  140.3446  154.4966 H   0  0  0  0  0  0  0  0  0  0  0  0
  149.5525  142.3572  154.8561 H   0  0  0  0  0  0  0  0  0  0  0  0
  151.6759  142.1069  155.9764 H   0  0  0  0  0  0  0  0  0  0  0  0
  149.6400  135.4010  156.4332 H   0  0  0  0  0  0  0  0  0  0  0  0
  150.5606  134.5235  153.7335 H   0  0  0  0  0  0  0  0  0  0  0  0
  151.3979  133.0026  155.5070 H   0  0  0  0  0  0  0  0  0  0  0  0
  149.7921  132.8578  156.1813 H   0  0  0  0  0  0  0  0  0  0  0  0
  150.6815  131.9061  153.4178 H   0  0  0  0  0  0  0  0  0  0  0  0
  150.2803  130.8897  154.7814 H   0  0  0  0  0  0  0  0  0  0  0  0
  148.3871  131.0228  153.1569 H   0  0  0  0  0  0  0  0  0  0  0  0
  147.9284  131.6486  154.7224 H   0  0  0  0  0  0  0  0  0  0  0  0
  148.7583  133.2984  152.2951 H   0  0  0  0  0  0  0  0  0  0  0  0
  147.3364  132.0688  151.1908 H   0  0  0  0  0  0  0  0  0  0  0  0
  146.1463  131.2757  152.2124 H   0  0  0  0  0  0  0  0  0  0  0  0
  147.8226  134.2670  155.0482 H   0  0  0  0  0  0  0  0  0  0  0  0
  148.2345  135.3008  153.7017 H   0  0  0  0  0  0  0  0  0  0  0  0
  1  2  2  0  0  0  0
  2  3  1  0  0  0  0
  2 11  1  0  0  0  0
  3  4  1  0  0  0  0
  3 24  1  0  0  0  0
  3 25  1  0  0  0  0
  4  9  1  0  0  0  0
  4  5  1  0  0  0  0
  5  6  2  0  0  0  0
  5 26  1  0  0  0  0
  6  7  1  0  0  0  0
  6 27  1  0  0  0  0
  7  8  2  0  0  0  0
  7 28  1  0  0  0  0
  8  9  1  0  0  0  0
  8 29  1  0  0  0  0
  9 10  2  0  0  0  0
 11 12  1  0  0  0  0
 11 30  1  0  0  0  0
 12 23  1  0  0  0  0
 12 13  1  0  0  0  0
 12 31  1  0  0  0  0
 13 14  1  0  0  0  0
 13 32  1  0  0  0  0
 13 33  1  0  0  0  0
 14 15  1  0  0  0  0
 14 34  1  0  0  0  0
 14 35  1  0  0  0  0
 15 16  1  0  0  0  0
 15 36  1  0  0  0  0
 15 37  1  0  0  0  0
 16 17  1  0  0  0  0
 16 23  1  0  0  0  0
 16 38  1  0  0  0  0
 17 18  1  0  0  0  0
 18 19  1  0  0  0  0
 18 39  1  0  0  0  0
 18 40  1  0  0  0  0
 19 20  1  0  0  0  0
 19 21  1  0  0  0  0
 19 22  1  0  0  0  0
 23 41  1  0  0  0  0
 23 42  1  0  0  0  0
M  END
> <s_m_source_file>
AV-unprocessed.smi

> <i_m_source_file_index>
1376

> <i_lp_mmshare_version>
43012

> <i_f3d_flags>
0

> <s_epik_input>
Tz1jMVtjSF1bY0hdW2NIXVtjSF1uMVtDSDJdQyg9TylbTkhdW0NAQEhdMltDSDJdW0NIMl1bQ0gyXVtDQEhdKFtDSDJdMilPW0NIMl1DKEYpKEYpRg==

> <s_epik_cmdline>
J2VwaWtfcHl0aG9uJywgJy1waCcsICc3LjAnLCAnLXRuJywgJzgnLCAnLW1hJywgJzIwMCcsICctbWV0YWxfYmluZGluZycsICctaW1hZScsICc8aW5maWxlLm1hZT4nLCAnLW9tYWUnLCAnPG91dGZpbGUubWFlPic=

> <r_lp_tautomer_probability>
1

> <r_epik_Ionization_Penalty>
4.08567e-07

> <r_epik_Ionization_Penalty_Charging>
3.90028e-07

> <r_epik_Ionization_Penalty_Neutral>
1.85393e-08

> <r_epik_State_Penalty>
-0

> <r_epik_Charging_Adjusted_Penalty>
3.90028e-07

> <i_epik_Tot_Q>
0

> <i_epik_Tot_abs_Q>
0

> <r_epik_Metal_State_Penalty>
-0

> <b_epik_Metal_Only>
0

> <s_lp_Force_Field>
OPLS_2005

> <r_lp_Energy>
18.2113

> <b_lp_Chiralities_Consistent>
1

> <s_lp_Variant>
AV-unprocessed.smi:1376-2

> <Gold.Version>
5.8.1

> <Gold.Id.Protein>
6NUR|6NUR_protein|mol2

> <Gold.PLP.Fitness>
43.5225

> <Gold.PLP.PLP>
-38.6894

> <Gold.PLP.part.hbond>
-2.0000

> <Gold.PLP.part.metal>
0.0000

> <Gold.PLP.part.buried>
-3.7682

> <Gold.PLP.part.nonpolar>
-32.6431

> <Gold.PLP.part.repulsive>
0.3475

> <Gold.PLP.ligand.clash>
0.0000

> <Gold.PLP.ligand.torsion>
0.6082

> <Gold.PLP.Chemscore.Hbond>
2.0000

> <Gold.PLP.Chemscore.CHOScore>
0.0000

> <Gold.PLP.Chemscore.Metal>
0.0000

> <Gold.Chemscore.Hbonds>
donor molecule, donor type, donor heavy atom, donor atom, acceptor molecule, acceptor atom, score
      P1  H  7997  8010       L1    10  1.00
      P1  H 10752 10763       L1     1  1.00

> <Gold.PLP.Chemscore.Internal.Correction>
0.0495

> <Gold.Rescore>
     Score         DG    S(hbond)    S(metal)    S(lipo)     H(rot)  DE(clash)    DE(int)     intcor
     14.51     -15.15       1.98        0.00      73.89       2.18       0.20       0.44       ----

> <Gold.Chemscore.Fitness>
14.5091

> <Gold.Chemscore.DG>
-15.1500

> <Gold.Chemscore.ZeroCoef>
-5.4800

> <Gold.Chemscore.Hbond>
1.9775

> <Gold.Chemscore.Metal>
0.0000

> <Gold.Chemscore.Lipo>
73.8927

> <Gold.Chemscore.Internal_Hbond>
0.0000

> <Gold.Chemscore.DEClash>
0.1998

> <Gold.Chemscore.DEInternal>
0.4411

> <Gold.Chemscore.Rot>
2.1797

> <Gold.Chemscore.Internal.Correction>
   9.000000E+99

> <Gold.Chemscore.Hbonds>
donor molecule, donor type, donor heavy atom, donor atom, acceptor molecule, acceptor atom, score
      P1  H  7997  8010       L1    10  1.00
      P1  H 10752 10763       L1     1  0.49

> <Gold.Chemscore.Hbond.Weighted>
-6.6048

> <Gold.Chemscore.Metal.Weighted>
-0.0000

> <Gold.Chemscore.Lipo.Weighted>
-8.6454

> <Gold.Chemscore.Internal_Hbond.Weighted>
0.0000

> <Gold.Chemscore.DEClash.Weighted>
0.1998

> <Gold.Chemscore.DEInternal.Weighted>
0.4411

> <Gold.Chemscore.Rot.Weighted>
5.5802

> <Gold.Chemscore.Internal.Correction.Weighted>
   9.000000E+99

> <Gold.Protein.RotatedTorsions>
[ 6907 6896 6895 6894 ] final  106.73 input  -60.11 | X-H torsion
[ 7974 7965 7964 7962 ] final -177.88 input  175.53 | X-H torsion
[ 8008 7997 7996 7995 ] final   63.89 input   59.86 | X-H torsion
[ 10167 10162 10161 10158 ] final   90.23 input  -65.29 | X-H torsion
[ 10718 10713 10712 10709 ] final  112.56 input   66.30 | X-H torsion
[ 10763 10752 10751 10750 ] final   58.75 input  -60.55 | X-H torsion
[ 11005 11000 10999 10996 ] final -146.44 input  -57.11 | X-H torsion

> <Gold.Protein.ActiveResidues>
 VAL166  LYS551  ARG553  GLY616  TRP617  ASP618  TYR619  PRO620  LYS621  CYS622 
 ASP623  PHE694  ASN695  SER759  ASP760  ASP761  ALA762  ILE779  LEU786  VAL792 
 PHE793  MET794  SER795  GLU796  ALA797  LYS798  CYS799  TRP800  GLU811  SER814 

> <Gold.Protein.RotatedAtoms>
  152.5182  133.9338  159.7592 H   0  0  0  0  0  0  0  0  0  0  0  0  # atno 6907 bound_to 6896
  150.9683  133.6363  159.2749 H   0  0  0  0  0  0  0  0  0  0  0  0  # atno 6908 bound_to 6896
  151.3584  135.0904  159.9479 H   0  0  0  0  0  0  0  0  0  0  0  0  # atno 6909 bound_to 6896
  144.7129  140.0952  143.6419 H   0  0  0  0  0  0  0  0  0  0  0  0  # atno 7974 bound_to 7965
  155.6374  140.3496  155.4703 H   0  0  0  0  0  0  0  0  0  0  0  0  # atno 8008 bound_to 7997
  155.9954  140.1202  157.0622 H   0  0  0  0  0  0  0  0  0  0  0  0  # atno 8009 bound_to 7997
  154.4232  140.1111  156.5609 H   0  0  0  0  0  0  0  0  0  0  0  0  # atno 8010 bound_to 7997
  139.8494  144.6601  150.9188 H   0  0  0  0  0  0  0  0  0  0  0  0  # atno 10167 bound_to 10162
  157.6386  131.0969  150.6913 H   0  0  0  0  0  0  0  0  0  0  0  0  # atno 10718 bound_to 10713
  152.9878  135.5596  154.5602 H   0  0  0  0  0  0  0  0  0  0  0  0  # atno 10763 bound_to 10752
  154.5022  135.2798  155.1413 H   0  0  0  0  0  0  0  0  0  0  0  0  # atno 10764 bound_to 10752
  154.2839  135.6339  153.5411 H   0  0  0  0  0  0  0  0  0  0  0  0  # atno 10765 bound_to 10752
  140.7820  134.3068  157.5042 H   0  0  0  0  0  0  0  0  0  0  0  0  # atno 11005 bound_to 11000
  145.9585  139.2784  143.1169 LP  0  0  0  0  0  0  0  0  0  0  0  0  # atno 17320 bound_to 7965
  145.9246  140.9091  143.0387 LP  0  0  0  0  0  0  0  0  0  0  0  0  # atno 17321 bound_to 7965
  140.7789  143.3841  151.1425 LP  0  0  0  0  0  0  0  0  0  0  0  0  # atno 17342 bound_to 10162
  139.7480  143.8821  152.3069 LP  0  0  0  0  0  0  0  0  0  0  0  0  # atno 17343 bound_to 10162
  156.7241  130.4689  149.5515 LP  0  0  0  0  0  0  0  0  0  0  0  0  # atno 17370 bound_to 10713
  156.1646  130.6397  151.0762 LP  0  0  0  0  0  0  0  0  0  0  0  0  # atno 17371 bound_to 10713
  139.8741  134.9324  156.3552 LP  0  0  0  0  0  0  0  0  0  0  0  0  # atno 17394 bound_to 11000
  140.9473  133.7474  156.0226 LP  0  0  0  0  0  0  0  0  0  0  0  0  # atno 17395 bound_to 11000

$$$$
