AV-unprocessed.smi:549|AV-procd|sdf|2892|dock2
  -GOLD-   2262023383D 1   1.00000     0.00000
 Structure written by MMmdl.
 43 44  0  0  0  0  0  0  0  0  1 V2000
  144.7207  131.8602  150.8112 C   0  0  0  0  0  0  0  0  0  0  0  0
  143.7768  132.6262  151.6104 N   0  0  0  0  0  0  0  0  0  0  0  0
  144.0588  133.9489  151.9782 C   0  0  0  0  0  0  0  0  0  0  0  0
  143.0182  134.7409  152.5049 C   0  0  0  0  0  0  0  0  0  0  0  0
  143.2986  136.0692  152.8775 C   0  0  0  0  0  0  0  0  0  0  0  0
  144.6086  136.5647  152.7238 C   0  0  0  0  0  0  0  0  0  0  0  0
  144.8606  137.9139  153.0892 N   0  0  0  0  0  0  0  0  0  0  0  0
  145.9352  138.4194  153.7182 C   0  0  0  0  0  0  0  0  0  0  0  0
  146.8906  137.7639  154.1333 O   0  0  0  0  0  0  0  0  0  0  0  0
  145.8292  139.7474  153.8656 N   0  0  0  0  0  0  0  0  0  0  0  0
  146.8144  140.6021  154.5210 C   0  0  0  0  0  0  0  0  0  0  0  0
  148.1081  140.6802  153.6931 C   0  0  0  0  0  0  0  0  0  0  0  0
  149.1830  141.5152  154.4106 C   0  0  0  0  0  0  0  0  0  0  0  0
  149.4310  141.0249  155.7814 N   0  0  0  0  0  0  0  0  0  0  0  0
  150.8312  140.0468  156.1151 S   0  0  0  0  0  0  0  0  0  0  0  0
  151.7598  141.0066  157.3801 C   0  0  0  0  0  0  0  0  0  0  0  0
  150.3686  138.7964  156.7364 O   0  0  0  0  0  0  0  0  0  0  0  0
  151.6454  139.9946  154.8911 O   0  0  0  0  0  0  0  0  0  0  0  0
  148.2201  140.8899  156.6159 C   0  0  0  0  0  0  0  0  0  0  0  0
  147.1381  140.0489  155.9163 C   0  0  0  0  0  0  0  0  0  0  0  0
  145.5812  135.6951  152.1737 C   0  0  0  0  0  0  0  0  0  0  0  0
  145.3165  134.4212  151.8124 N   0  0  0  0  0  0  0  0  0  0  0  0
  144.3255  130.8621  150.6238 H   0  0  0  0  0  0  0  0  0  0  0  0
  145.6742  131.7576  151.3302 H   0  0  0  0  0  0  0  0  0  0  0  0
  144.8949  132.3443  149.8498 H   0  0  0  0  0  0  0  0  0  0  0  0
  142.8989  132.2032  151.8753 H   0  0  0  0  0  0  0  0  0  0  0  0
  142.0209  134.3422  152.6220 H   0  0  0  0  0  0  0  0  0  0  0  0
  142.5160  136.6957  153.2802 H   0  0  0  0  0  0  0  0  0  0  0  0
  144.1127  138.5629  152.8934 H   0  0  0  0  0  0  0  0  0  0  0  0
  145.0064  140.2018  153.4976 H   0  0  0  0  0  0  0  0  0  0  0  0
  146.4005  141.6058  154.6365 H   0  0  0  0  0  0  0  0  0  0  0  0
  148.4853  139.6767  153.4987 H   0  0  0  0  0  0  0  0  0  0  0  0
  147.9025  141.1211  152.7170 H   0  0  0  0  0  0  0  0  0  0  0  0
  150.1080  141.5186  153.8347 H   0  0  0  0  0  0  0  0  0  0  0  0
  148.8555  142.5537  154.4713 H   0  0  0  0  0  0  0  0  0  0  0  0
  152.6647  140.4605  157.6458 H   0  0  0  0  0  0  0  0  0  0  0  0
  151.1491  141.1329  158.2724 H   0  0  0  0  0  0  0  0  0  0  0  0
  152.0398  141.9783  156.9777 H   0  0  0  0  0  0  0  0  0  0  0  0
  148.4712  140.4558  157.5832 H   0  0  0  0  0  0  0  0  0  0  0  0
  147.8303  141.8878  156.8194 H   0  0  0  0  0  0  0  0  0  0  0  0
  146.2363  140.0364  156.5294 H   0  0  0  0  0  0  0  0  0  0  0  0
  147.4661  139.0128  155.8385 H   0  0  0  0  0  0  0  0  0  0  0  0
  146.5952  136.0144  151.9902 H   0  0  0  0  0  0  0  0  0  0  0  0
  1  2  1  0  0  0  0
  1 23  1  0  0  0  0
  1 24  1  0  0  0  0
  1 25  1  0  0  0  0
  2  3  1  0  0  0  0
  2 26  1  0  0  0  0
  3 22  1  0  0  0  0
  3  4  2  0  0  0  0
  4  5  1  0  0  0  0
  4 27  1  0  0  0  0
  5  6  2  0  0  0  0
  5 28  1  0  0  0  0
  6  7  1  0  0  0  0
  6 21  1  0  0  0  0
  7  8  1  0  0  0  0
  7 29  1  0  0  0  0
  8  9  2  0  0  0  0
  8 10  1  0  0  0  0
 10 11  1  0  0  0  0
 10 30  1  0  0  0  0
 11 20  1  0  0  0  0
 11 12  1  0  0  0  0
 11 31  1  0  0  0  0
 12 13  1  0  0  0  0
 12 32  1  0  0  0  0
 12 33  1  0  0  0  0
 13 14  1  0  0  0  0
 13 34  1  0  0  0  0
 13 35  1  0  0  0  0
 14 15  1  0  0  0  0
 14 19  1  0  0  0  0
 15 16  1  0  0  0  0
 15 17  2  0  0  0  0
 15 18  2  0  0  0  0
 16 36  1  0  0  0  0
 16 37  1  0  0  0  0
 16 38  1  0  0  0  0
 19 20  1  0  0  0  0
 19 39  1  0  0  0  0
 19 40  1  0  0  0  0
 20 41  1  0  0  0  0
 20 42  1  0  0  0  0
 21 22  2  0  0  0  0
 21 43  1  0  0  0  0
M  END
> <s_m_source_file>
AV-unprocessed.smi

> <i_m_source_file_index>
549

> <i_lp_mmshare_version>
43012

> <i_f3d_flags>
0

> <s_epik_input>
W0NIM11bTkhdYzFbY0hdW2NIXWMoW2NIXW4xKVtOSF1DKD1PKVtOSF1bQ0hdMltDSDJdW0NIMl1OKFMoPU8pKD1PKVtDSDNdKVtDSDJdW0NIMl0y

> <s_epik_cmdline>
J2VwaWtfcHl0aG9uJywgJy1waCcsICc3LjAnLCAnLXRuJywgJzgnLCAnLW1hJywgJzIwMCcsICctbWV0YWxfYmluZGluZycsICctaW1hZScsICc8aW5maWxlLm1hZT4nLCAnLW9tYWUnLCAnPG91dGZpbGUubWFlPic=

> <r_lp_tautomer_probability>
1

> <r_epik_Ionization_Penalty>
0.374305

> <r_epik_Ionization_Penalty_Charging>
0

> <r_epik_Ionization_Penalty_Neutral>
0.374305

> <r_epik_State_Penalty>
0.371422

> <r_epik_Charging_Adjusted_Penalty>
0.371422

> <i_epik_Tot_Q>
0

> <i_epik_Tot_abs_Q>
0

> <r_epik_Metal_State_Penalty>
0.225857

> <b_epik_Metal_Only>
0

> <s_lp_Force_Field>
OPLS_2005

> <r_lp_Energy>
1.99328

> <b_lp_Chiralities_Consistent>
1

> <s_lp_Variant>
AV-unprocessed.smi:549-1

> <Gold.Version>
5.8.1

> <Gold.Id.Protein>
6NUR|6NUR_protein|mol2

> <Gold.PLP.Fitness>
41.3676

> <Gold.PLP.PLP>
-30.4416

> <Gold.PLP.part.hbond>
-3.0000

> <Gold.PLP.part.metal>
0.0000

> <Gold.PLP.part.buried>
-3.6440

> <Gold.PLP.part.nonpolar>
-23.5941

> <Gold.PLP.part.repulsive>
0.3397

> <Gold.PLP.ligand.clash>
0.0000

> <Gold.PLP.ligand.torsion>
1.4606

> <Gold.PLP.Chemscore.Hbond>
2.9280

> <Gold.PLP.Chemscore.CHOScore>
1.0000

> <Gold.PLP.Chemscore.Metal>
0.0000

> <Gold.Chemscore.Hbonds>
donor molecule, donor type, donor heavy atom, donor atom, acceptor molecule, acceptor atom, score
      L1  H     7    29       P1 10175  0.91
      L1  H    10    30       P1 10175  1.00
      P1  H  7989  7998       L1    18  1.00
      L1  C    21    43       P1  7948  1.00

> <Gold.PLP.Chemscore.Internal.Correction>
2.0632

> <Gold.Rescore>
     Score         DG    S(hbond)    S(metal)    S(lipo)     H(rot)  DE(clash)    DE(int)     intcor
     15.65     -19.29       2.88        0.00      57.60       1.00       0.08       3.56       ----

> <Gold.Chemscore.Fitness>
15.6457

> <Gold.Chemscore.DG>
-19.2852

> <Gold.Chemscore.ZeroCoef>
-5.4800

> <Gold.Chemscore.Hbond>
2.8819

> <Gold.Chemscore.Metal>
0.0000

> <Gold.Chemscore.Lipo>
57.6042

> <Gold.Chemscore.Internal_Hbond>
0.0000

> <Gold.Chemscore.DEClash>
0.0800

> <Gold.Chemscore.DEInternal>
3.5595

> <Gold.Chemscore.Rot>
1.0000

> <Gold.Chemscore.Internal.Correction>
   9.000000E+99

> <Gold.Chemscore.Hbonds>
donor molecule, donor type, donor heavy atom, donor atom, acceptor molecule, acceptor atom, score
      L1  H     7    29       P1 10175  0.88
      L1  H    10    30       P1 10175  0.99
      P1  H  7989  7998       L1    18  0.96

> <Gold.Chemscore.Hbond.Weighted>
-9.6255

> <Gold.Chemscore.Metal.Weighted>
-0.0000

> <Gold.Chemscore.Lipo.Weighted>
-6.7397

> <Gold.Chemscore.Internal_Hbond.Weighted>
0.0000

> <Gold.Chemscore.DEClash.Weighted>
0.0800

> <Gold.Chemscore.DEInternal.Weighted>
3.5595

> <Gold.Chemscore.Rot.Weighted>
2.5600

> <Gold.Chemscore.Internal.Correction.Weighted>
   9.000000E+99

> <Gold.Protein.RotatedTorsions>
[ 6907 6896 6895 6894 ] final  138.87 input  -60.11 | X-H torsion
[ 7974 7965 7964 7962 ] final  131.20 input  175.53 | X-H torsion
[ 8008 7997 7996 7995 ] final -130.95 input   59.86 | X-H torsion
[ 10167 10162 10161 10158 ] final   63.27 input  -65.29 | X-H torsion
[ 10718 10713 10712 10709 ] final -111.97 input   66.30 | X-H torsion
[ 10763 10752 10751 10750 ] final  132.28 input  -60.55 | X-H torsion
[ 11005 11000 10999 10996 ] final -131.11 input  -57.11 | X-H torsion

> <Gold.Protein.ActiveResidues>
 VAL166  LYS551  ARG553  GLY616  TRP617  ASP618  TYR619  PRO620  LYS621  CYS622 
 ASP623  PHE694  ASN695  SER759  ASP760  ASP761  ALA762  ILE779  LEU786  VAL792 
 PHE793  MET794  SER795  GLU796  ALA797  LYS798  CYS799  TRP800  GLU811  SER814 

> <Gold.Protein.RotatedAtoms>
  152.2615  133.5302  159.5384 H   0  0  0  0  0  0  0  0  0  0  0  0  # atno 6907 bound_to 6896
  150.7127  134.0823  159.3911 H   0  0  0  0  0  0  0  0  0  0  0  0  # atno 6908 bound_to 6896
  151.8740  135.0479  160.0533 H   0  0  0  0  0  0  0  0  0  0  0  0  # atno 6909 bound_to 6896
  145.0098  139.4231  143.5250 H   0  0  0  0  0  0  0  0  0  0  0  0  # atno 7974 bound_to 7965
  155.3043  140.0454  157.3031 H   0  0  0  0  0  0  0  0  0  0  0  0  # atno 8008 bound_to 7997
  154.5469  140.2305  155.8516 H   0  0  0  0  0  0  0  0  0  0  0  0  # atno 8009 bound_to 7997
  156.1932  140.3045  155.9381 H   0  0  0  0  0  0  0  0  0  0  0  0  # atno 8010 bound_to 7997
  140.1348  144.4609  150.6844 H   0  0  0  0  0  0  0  0  0  0  0  0  # atno 10167 bound_to 10162
  156.0678  130.5895  150.8445 H   0  0  0  0  0  0  0  0  0  0  0  0  # atno 10718 bound_to 10713
  153.7881  135.3159  155.3375 H   0  0  0  0  0  0  0  0  0  0  0  0  # atno 10763 bound_to 10752
  154.8136  135.4651  154.0586 H   0  0  0  0  0  0  0  0  0  0  0  0  # atno 10764 bound_to 10752
  153.1895  135.6906  153.8457 H   0  0  0  0  0  0  0  0  0  0  0  0  # atno 10765 bound_to 10752
  140.9287  134.1348  157.4253 H   0  0  0  0  0  0  0  0  0  0  0  0  # atno 11005 bound_to 11000
  146.3468  139.9536  142.8726 LP  0  0  0  0  0  0  0  0  0  0  0  0  # atno 17320 bound_to 7965
  145.2038  140.9866  143.4140 LP  0  0  0  0  0  0  0  0  0  0  0  0  # atno 17321 bound_to 7965
  140.6795  143.2320  151.5420 LP  0  0  0  0  0  0  0  0  0  0  0  0  # atno 17342 bound_to 10162
  139.5501  144.2417  152.1515 LP  0  0  0  0  0  0  0  0  0  0  0  0  # atno 17343 bound_to 10162
  157.5730  131.0946  150.9388 LP  0  0  0  0  0  0  0  0  0  0  0  0  # atno 17370 bound_to 10713
  156.9600  130.5451  149.5285 LP  0  0  0  0  0  0  0  0  0  0  0  0  # atno 17371 bound_to 10713
  139.8791  134.9997  156.5971 LP  0  0  0  0  0  0  0  0  0  0  0  0  # atno 17394 bound_to 11000
  140.7891  133.8597  155.8631 LP  0  0  0  0  0  0  0  0  0  0  0  0  # atno 17395 bound_to 11000

$$$$
