AV-unprocessed.smi:2007|AV-procd|sdf|8140|dock10
  -GOLD-   2272010373D 1   1.00000     0.00000
 Structure written by MMmdl.
 36 37  0  0  0  0  0  0  0  0  3 V2000
  149.3986  133.8908  154.3544 C   0  0  0  0  0  0  0  0  0  0  0  0
  149.3018  134.7898  155.5940 C   0  0  1  0  0  0  0  0  0  0  0  0
  148.4621  136.0570  155.3121 C   0  0  0  0  0  0  0  0  0  0  0  0
  149.2550  137.1347  154.6690 N   0  3  0  0  0  0  0  0  0  0  0  0
  148.7129  138.4944  154.9005 C   0  0  0  0  0  0  0  0  0  0  0  0
  149.5228  139.5225  154.0938 C   0  0  0  0  0  0  0  0  0  0  0  0
  150.8939  139.4450  154.4675 O   0  0  0  0  0  0  0  0  0  0  0  0
  151.4508  138.1637  154.1947 C   0  0  0  0  0  0  0  0  0  0  0  0
  150.6977  137.0886  154.9970 C   0  0  0  0  0  0  0  0  0  0  0  0
  148.7277  134.0260  156.7040 N   0  0  0  0  0  0  0  0  0  0  0  0
  148.7514  134.3609  158.0033 C   0  0  0  0  0  0  0  0  0  0  0  0
  149.3666  135.3637  158.3721 O   0  0  0  0  0  0  0  0  0  0  0  0
  148.0322  133.5315  158.7902 N   0  5  0  0  0  0  0  0  0  0  0  0
  147.7117  133.9074  160.0389 C   0  0  0  0  0  0  0  0  0  0  0  0
  147.5226  135.1852  160.3888 N   0  0  0  0  0  0  0  0  0  0  0  0
  147.1964  135.3489  161.7363 C   0  0  0  0  0  0  0  0  0  0  0  0
  147.1301  134.1676  162.4264 C   0  0  0  0  0  0  0  0  0  0  0  0
  147.4768  132.8064  161.3985 S   0  0  0  0  0  0  0  0  0  0  0  0
  149.8476  134.4255  153.5171 H   0  0  0  0  0  0  0  0  0  0  0  0
  148.4151  133.5413  154.0377 H   0  0  0  0  0  0  0  0  0  0  0  0
  150.0154  133.0136  154.5532 H   0  0  0  0  0  0  0  0  0  0  0  0
  150.3197  135.0894  155.8465 H   0  0  0  0  0  0  0  0  0  0  0  0
  147.5887  135.8202  154.7026 H   0  0  0  0  0  0  0  0  0  0  0  0
  148.0772  136.4241  156.2648 H   0  0  0  0  0  0  0  0  0  0  0  0
  147.6651  138.5409  154.6048 H   0  0  0  0  0  0  0  0  0  0  0  0
  148.7554  138.7327  155.9642 H   0  0  0  0  0  0  0  0  0  0  0  0
  149.4135  139.3494  153.0217 H   0  0  0  0  0  0  0  0  0  0  0  0
  149.1576  140.5300  154.2932 H   0  0  0  0  0  0  0  0  0  0  0  0
  151.4023  137.9546  153.1245 H   0  0  0  0  0  0  0  0  0  0  0  0
  152.5052  138.1696  154.4705 H   0  0  0  0  0  0  0  0  0  0  0  0
  150.8377  137.2448  156.0678 H   0  0  0  0  0  0  0  0  0  0  0  0
  151.1023  136.1045  154.7573 H   0  0  0  0  0  0  0  0  0  0  0  0
  148.2217  133.1868  156.4599 H   0  0  0  0  0  0  0  0  0  0  0  0
  147.0263  136.3440  162.1197 H   0  0  0  0  0  0  0  0  0  0  0  0
  146.8989  134.0146  163.4697 H   0  0  0  0  0  0  0  0  0  0  0  0
  149.1917  136.9629  153.6745 H   0  0  0  0  0  0  0  0  0  0  0  0
  1  2  1  0  0  0  0
  1 19  1  0  0  0  0
  1 20  1  0  0  0  0
  1 21  1  0  0  0  0
  2  3  1  0  0  0  0
  2 10  1  0  0  0  0
  2 22  1  0  0  0  0
  3  4  1  0  0  0  0
  3 23  1  0  0  0  0
  3 24  1  0  0  0  0
  4  9  1  0  0  0  0
  4  5  1  0  0  0  0
  4 36  1  0  0  0  0
  5  6  1  0  0  0  0
  5 25  1  0  0  0  0
  5 26  1  0  0  0  0
  6  7  1  0  0  0  0
  6 27  1  0  0  0  0
  6 28  1  0  0  0  0
  7  8  1  0  0  0  0
  8  9  1  0  0  0  0
  8 29  1  0  0  0  0
  8 30  1  0  0  0  0
  9 31  1  0  0  0  0
  9 32  1  0  0  0  0
 10 11  1  0  0  0  0
 10 33  1  0  0  0  0
 11 12  2  0  0  0  0
 11 13  1  0  0  0  0
 13 14  1  0  0  0  0
 14 18  1  0  0  0  0
 14 15  2  0  0  0  0
 15 16  1  0  0  0  0
 16 17  2  0  0  0  0
 16 34  1  0  0  0  0
 17 18  1  0  0  0  0
 17 35  1  0  0  0  0
M  CHG  1   4   1
M  CHG  1  13  -1
M  END
> <s_m_source_file>
AV-unprocessed.smi

> <i_m_source_file_index>
2007

> <i_lp_mmshare_version>
43012

> <i_f3d_flags>
0

> <s_epik_input>
W0NIMl0xW0NIMl1PW0NIMl1bQ0gyXU4xW0NIMl1bQ0BASF0oW0NIM10pW05IXUMoPU8pW05IXWMybltjSF1bY0hdczI=

> <s_epik_cmdline>
J2VwaWtfcHl0aG9uJywgJy1waCcsICc3LjAnLCAnLXRuJywgJzgnLCAnLW1hJywgJzIwMCcsICctbWV0YWxfYmluZGluZycsICctaW1hZScsICc8aW5maWxlLm1hZT4nLCAnLW9tYWUnLCAnPG91dGZpbGUubWFlPic=

> <r_lp_tautomer_probability>
0.999

> <r_epik_Ionization_Penalty>
6.49226

> <r_epik_Ionization_Penalty_Charging>
5.74393

> <r_epik_Ionization_Penalty_Neutral>
0.748321

> <r_epik_State_Penalty>
5.94164

> <r_epik_Charging_Adjusted_Penalty>
11.6856

> <i_epik_Tot_Q>
0

> <i_epik_Tot_abs_Q>
2

> <r_epik_Metal_State_Penalty>
1.97606

> <b_epik_Metal_Only>
1

> <s_lp_Force_Field>
OPLS_2005

> <r_lp_Energy>
10.1675

> <b_lp_Chiralities_Consistent>
1

> <s_lp_Variant>
AV-unprocessed.smi:2007-8

> <Gold.Version>
5.8.1

> <Gold.Id.Protein>
6NUR|6NUR_protein|mol2

> <Gold.PLP.Fitness>
37.7008

> <Gold.PLP.PLP>
-27.6447

> <Gold.PLP.part.hbond>
-3.0000

> <Gold.PLP.part.metal>
0.0000

> <Gold.PLP.part.buried>
-2.7384

> <Gold.PLP.part.nonpolar>
-21.7886

> <Gold.PLP.part.repulsive>
0.1669

> <Gold.PLP.ligand.clash>
0.0000

> <Gold.PLP.ligand.torsion>
1.0157

> <Gold.PLP.Chemscore.Hbond>
4.0000

> <Gold.PLP.Chemscore.CHOScore>
0.0000

> <Gold.PLP.Chemscore.Metal>
0.0000

> <Gold.Chemscore.Hbonds>
donor molecule, donor type, donor heavy atom, donor atom, acceptor molecule, acceptor atom, score
      L1  H     4    36       P1  7948  2.00
      P1  H  6896  6907       L1    12  0.85
      P1  H  7989  7998       L1     7  1.00

> <Gold.PLP.Chemscore.Internal.Correction>
0.0876

> <Gold.Rescore>
     Score         DG    S(hbond)    S(metal)    S(lipo)     H(rot)  DE(clash)    DE(int)     intcor
     13.80     -16.50       2.47        0.00      58.60       1.60       0.11       2.59       ----

> <Gold.Chemscore.Fitness>
13.7974

> <Gold.Chemscore.DG>
-16.4981

> <Gold.Chemscore.ZeroCoef>
-5.4800

> <Gold.Chemscore.Hbond>
2.4718

> <Gold.Chemscore.Metal>
0.0000

> <Gold.Chemscore.Lipo>
58.5987

> <Gold.Chemscore.Internal_Hbond>
0.0000

> <Gold.Chemscore.DEClash>
0.1100

> <Gold.Chemscore.DEInternal>
2.5908

> <Gold.Chemscore.Rot>
1.5991

> <Gold.Chemscore.Internal.Correction>
   9.000000E+99

> <Gold.Chemscore.Hbonds>
donor molecule, donor type, donor heavy atom, donor atom, acceptor molecule, acceptor atom, score
      L1  H     4    36       P1  7948  0.98
      P1  H  6896  6907       L1    12  0.15
      P1  H  7989  7998       L1     7  0.31

> <Gold.Chemscore.Hbond.Weighted>
-8.2557

> <Gold.Chemscore.Metal.Weighted>
-0.0000

> <Gold.Chemscore.Lipo.Weighted>
-6.8561

> <Gold.Chemscore.Internal_Hbond.Weighted>
0.0000

> <Gold.Chemscore.DEClash.Weighted>
0.1100

> <Gold.Chemscore.DEInternal.Weighted>
2.5908

> <Gold.Chemscore.Rot.Weighted>
4.0936

> <Gold.Chemscore.Internal.Correction.Weighted>
   9.000000E+99

> <Gold.Protein.RotatedTorsions>
[ 6907 6896 6895 6894 ] final  -79.41 input  -60.11 | X-H torsion
[ 7974 7965 7964 7962 ] final  -76.62 input  175.53 | X-H torsion
[ 8008 7997 7996 7995 ] final  118.80 input   59.86 | X-H torsion
[ 10167 10162 10161 10158 ] final -113.36 input  -65.29 | X-H torsion
[ 10718 10713 10712 10709 ] final   95.38 input   66.30 | X-H torsion
[ 10763 10752 10751 10750 ] final   87.40 input  -60.55 | X-H torsion
[ 11005 11000 10999 10996 ] final  -86.16 input  -57.11 | X-H torsion

> <Gold.Protein.ActiveResidues>
 VAL166  LYS551  ARG553  GLY616  TRP617  ASP618  TYR619  PRO620  LYS621  CYS622 
 ASP623  PHE694  ASN695  SER759  ASP760  ASP761  ALA762  ILE779  LEU786  VAL792 
 PHE793  MET794  SER795  GLU796  ALA797  LYS798  CYS799  TRP800  GLU811  SER814 

> <Gold.Protein.RotatedAtoms>
  150.6950  134.4126  159.5168 H   0  0  0  0  0  0  0  0  0  0  0  0  # atno 6907 bound_to 6896
  152.1882  134.8692  160.0529 H   0  0  0  0  0  0  0  0  0  0  0  0  # atno 6908 bound_to 6896
  151.9658  133.3675  159.4089 H   0  0  0  0  0  0  0  0  0  0  0  0  # atno 6909 bound_to 6896
  145.6104  140.9388  143.1192 H   0  0  0  0  0  0  0  0  0  0  0  0  # atno 7974 bound_to 7965
  156.2564  140.2867  156.0892 H   0  0  0  0  0  0  0  0  0  0  0  0  # atno 8008 bound_to 7997
  155.1482  140.0397  157.2832 H   0  0  0  0  0  0  0  0  0  0  0  0  # atno 8009 bound_to 7997
  154.6480  140.2538  155.7252 H   0  0  0  0  0  0  0  0  0  0  0  0  # atno 8010 bound_to 7997
  140.1127  143.4513  152.1742 H   0  0  0  0  0  0  0  0  0  0  0  0  # atno 10167 bound_to 10162
  157.6939  131.0544  150.4330 H   0  0  0  0  0  0  0  0  0  0  0  0  # atno 10718 bound_to 10713
  153.1664  135.4545  154.9843 H   0  0  0  0  0  0  0  0  0  0  0  0  # atno 10763 bound_to 10752
  154.7935  135.3229  154.7724 H   0  0  0  0  0  0  0  0  0  0  0  0  # atno 10764 bound_to 10752
  153.8206  135.6947  153.4882 H   0  0  0  0  0  0  0  0  0  0  0  0  # atno 10765 bound_to 10752
  141.1633  133.7439  156.9121 H   0  0  0  0  0  0  0  0  0  0  0  0  # atno 11005 bound_to 11000
  144.7272  139.7838  143.7360 LP  0  0  0  0  0  0  0  0  0  0  0  0  # atno 17320 bound_to 7965
  146.1508  139.4591  143.0050 LP  0  0  0  0  0  0  0  0  0  0  0  0  # atno 17321 bound_to 7965
  139.5610  144.7406  151.4154 LP  0  0  0  0  0  0  0  0  0  0  0  0  # atno 17342 bound_to 10162
  140.6916  143.7847  150.7264 LP  0  0  0  0  0  0  0  0  0  0  0  0  # atno 17343 bound_to 10162
  156.4695  130.4049  149.6526 LP  0  0  0  0  0  0  0  0  0  0  0  0  # atno 17370 bound_to 10713
  156.3612  130.7482  151.2454 LP  0  0  0  0  0  0  0  0  0  0  0  0  # atno 17371 bound_to 10713
  140.1509  134.9230  157.2592 LP  0  0  0  0  0  0  0  0  0  0  0  0  # atno 17394 bound_to 11000
  140.2723  134.3445  155.7369 LP  0  0  0  0  0  0  0  0  0  0  0  0  # atno 17395 bound_to 11000

$$$$
