AV-unprocessed.smi:1717|AV-procd|sdf|6921|dock6
  -GOLD-   22720 8123D 1   1.00000     0.00000
 Structure written by MMmdl.
 40 41  0  0  0  0  0  0  0  0  3 V2000
  152.5901  138.7841  157.6061 C   0  0  0  0  0  0  0  0  0  0  0  0
  152.5198  139.5324  156.3563 N   0  5  0  0  0  0  0  0  0  0  0  0
  151.5966  139.2892  155.3876 C   0  0  0  0  0  0  0  0  0  0  0  0
  150.7424  140.0266  154.8846 O   0  0  0  0  0  0  0  0  0  0  0  0
  151.7103  137.8530  154.8633 C   0  0  0  0  0  0  0  0  0  0  0  0
  150.5538  137.0467  155.3268 N   0  3  2  0  0  0  0  0  0  0  0  0
  150.6775  135.6157  154.9514 C   0  0  0  0  0  0  0  0  0  0  0  0
  149.5496  134.7774  155.5783 C   0  0  0  0  0  0  0  0  0  0  0  0
  148.1530  135.3175  155.2114 C   0  0  2  0  0  0  0  0  0  0  0  0
  147.8242  135.0760  153.8067 N   0  0  0  0  0  0  0  0  0  0  0  0
  146.7510  134.4020  153.3682 C   0  0  0  0  0  0  0  0  0  0  0  0
  145.9253  133.8785  154.1159 O   0  0  0  0  0  0  0  0  0  0  0  0
  146.7008  134.3810  152.0266 N   0  0  0  0  0  0  0  0  0  0  0  0
  145.7115  133.7694  151.2161 C   0  0  0  0  0  0  0  0  0  0  0  0
  145.8343  132.6678  150.3189 C   0  0  0  0  0  0  0  0  0  0  0  0
  144.6754  132.3914  149.7376 N   0  0  0  0  0  0  0  0  0  0  0  0
  143.8184  133.3023  150.2513 N   0  0  0  0  0  0  0  0  0  0  0  0
  144.4075  134.1605  151.1532 C   0  0  0  0  0  0  0  0  0  0  0  0
  148.0744  136.8198  155.5336 C   0  0  0  0  0  0  0  0  0  0  0  0
  149.2404  137.6088  154.9110 C   0  0  0  0  0  0  0  0  0  0  0  0
  142.8461  133.3249  149.9785 H   0  0  0  0  0  0  0  0  0  0  0  0
  153.4081  139.1282  158.2388 H   0  0  0  0  0  0  0  0  0  0  0  0
  152.7510  137.7177  157.4454 H   0  0  0  0  0  0  0  0  0  0  0  0
  151.6802  138.8808  158.1992 H   0  0  0  0  0  0  0  0  0  0  0  0
  151.8025  137.8018  153.7762 H   0  0  0  0  0  0  0  0  0  0  0  0
  152.6363  137.4432  155.2690 H   0  0  0  0  0  0  0  0  0  0  0  0
  150.6658  135.5198  153.8645 H   0  0  0  0  0  0  0  0  0  0  0  0
  151.6380  135.2278  155.2924 H   0  0  0  0  0  0  0  0  0  0  0  0
  149.6502  133.7328  155.2815 H   0  0  0  0  0  0  0  0  0  0  0  0
  149.6610  134.7916  156.6633 H   0  0  0  0  0  0  0  0  0  0  0  0
  147.4069  134.8042  155.8210 H   0  0  0  0  0  0  0  0  0  0  0  0
  148.4469  135.4728  153.1185 H   0  0  0  0  0  0  0  0  0  0  0  0
  147.4375  134.8629  151.5333 H   0  0  0  0  0  0  0  0  0  0  0  0
  146.6974  132.0697  150.0684 H   0  0  0  0  0  0  0  0  0  0  0  0
  143.8622  134.9472  151.6536 H   0  0  0  0  0  0  0  0  0  0  0  0
  147.1215  137.2311  155.1980 H   0  0  0  0  0  0  0  0  0  0  0  0
  148.0963  136.9542  156.6159 H   0  0  0  0  0  0  0  0  0  0  0  0
  149.1607  138.6517  155.2181 H   0  0  0  0  0  0  0  0  0  0  0  0
  149.1676  137.5987  153.8225 H   0  0  0  0  0  0  0  0  0  0  0  0
  150.5837  137.0812  156.3360 H   0  0  0  0  0  0  0  0  0  0  0  0
  1  2  1  0  0  0  0
  1 22  1  0  0  0  0
  1 23  1  0  0  0  0
  1 24  1  0  0  0  0
  2  3  1  0  0  0  0
  3  4  2  0  0  0  0
  3  5  1  0  0  0  0
  5  6  1  0  0  0  0
  5 25  1  0  0  0  0
  5 26  1  0  0  0  0
  6 20  1  0  0  0  0
  6  7  1  0  0  0  0
  6 40  1  0  0  0  0
  7  8  1  0  0  0  0
  7 27  1  0  0  0  0
  7 28  1  0  0  0  0
  8  9  1  0  0  0  0
  8 29  1  0  0  0  0
  8 30  1  0  0  0  0
  9 10  1  0  0  0  0
  9 19  1  0  0  0  0
  9 31  1  0  0  0  0
 10 11  1  0  0  0  0
 10 32  1  0  0  0  0
 11 12  2  0  0  0  0
 11 13  1  0  0  0  0
 13 14  1  0  0  0  0
 13 33  1  0  0  0  0
 14 18  2  0  0  0  0
 14 15  1  0  0  0  0
 15 16  2  0  0  0  0
 15 34  1  0  0  0  0
 16 17  1  0  0  0  0
 17 21  1  0  0  0  0
 17 18  1  0  0  0  0
 18 35  1  0  0  0  0
 19 20  1  0  0  0  0
 19 36  1  0  0  0  0
 19 37  1  0  0  0  0
 20 38  1  0  0  0  0
 20 39  1  0  0  0  0
M  CHG  1   2  -1
M  CHG  1   6   1
M  END
> <s_m_source_file>
AV-unprocessed.smi

> <i_m_source_file_index>
1717

> <i_lp_mmshare_version>
43012

> <i_f3d_flags>
0

> <s_epik_input>
W0NIM11bTkhdQyg9TylbQ0gyXU4xW0NIMl1bQ0gyXVtDSF0oW0NIMl1bQ0gyXTEpW05IXUMoPU8pW05IXWMyW2NIXW5bbkhdW2NIXTI=

> <s_epik_cmdline>
J2VwaWtfcHl0aG9uJywgJy1waCcsICc3LjAnLCAnLXRuJywgJzgnLCAnLW1hJywgJzIwMCcsICctbWV0YWxfYmluZGluZycsICctaW1hZScsICc8aW5maWxlLm1hZT4nLCAnLW9tYWUnLCAnPG91dGZpbGUubWFlPic=

> <r_lp_tautomer_probability>
0.5

> <r_epik_Ionization_Penalty>
6.1395

> <r_epik_Ionization_Penalty_Charging>
6.13946

> <r_epik_Ionization_Penalty_Neutral>
4.21226e-05

> <r_epik_State_Penalty>
6.9595

> <r_epik_Charging_Adjusted_Penalty>
13.099

> <i_epik_Tot_Q>
0

> <i_epik_Tot_abs_Q>
2

> <r_epik_Metal_State_Penalty>
2.89141

> <b_epik_Metal_Only>
1

> <s_lp_Force_Field>
OPLS_2005

> <r_lp_Energy>
13.1948

> <b_lp_Chiralities_Consistent>
1

> <s_lp_Variant>
AV-unprocessed.smi:1717-5

> <Gold.Version>
5.8.1

> <Gold.Id.Protein>
6NUR|6NUR_protein|mol2

> <Gold.PLP.Fitness>
43.6328

> <Gold.PLP.PLP>
-27.0304

> <Gold.PLP.part.hbond>
-4.8849

> <Gold.PLP.part.metal>
0.0000

> <Gold.PLP.part.buried>
-6.1669

> <Gold.PLP.part.nonpolar>
-17.5162

> <Gold.PLP.part.repulsive>
0.4388

> <Gold.PLP.ligand.clash>
0.0000

> <Gold.PLP.ligand.torsion>
1.3321

> <Gold.PLP.Chemscore.Hbond>
5.6683

> <Gold.PLP.Chemscore.CHOScore>
0.7385

> <Gold.PLP.Chemscore.Metal>
0.0000

> <Gold.Chemscore.Hbonds>
donor molecule, donor type, donor heavy atom, donor atom, acceptor molecule, acceptor atom, score
      L1  H    10    32       P1  7948  1.00
      L1  H    13    33       P1  7948  0.85
      L1  H    17    21       P1 10186  0.62
      P1  H  7989  7998       L1     4  1.00
      P1  H  7997  8008       L1     2  2.00
      L1  C    15    34       P1 10747  0.88

> <Gold.PLP.Chemscore.Internal.Correction>
0.0464

> <Gold.Rescore>
     Score         DG    S(hbond)    S(metal)    S(lipo)     H(rot)  DE(clash)    DE(int)     intcor
     19.18     -21.81       4.63        0.00      45.75       1.75       0.00       2.63       ----

> <Gold.Chemscore.Fitness>
19.1751

> <Gold.Chemscore.DG>
-21.8079

> <Gold.Chemscore.ZeroCoef>
-5.4800

> <Gold.Chemscore.Hbond>
4.6309

> <Gold.Chemscore.Metal>
0.0000

> <Gold.Chemscore.Lipo>
45.7463

> <Gold.Chemscore.Internal_Hbond>
0.0000

> <Gold.Chemscore.DEClash>
0.0038

> <Gold.Chemscore.DEInternal>
2.6290

> <Gold.Chemscore.Rot>
1.7546

> <Gold.Chemscore.Internal.Correction>
   9.000000E+99

> <Gold.Chemscore.Hbonds>
donor molecule, donor type, donor heavy atom, donor atom, acceptor molecule, acceptor atom, score
      L1  H    10    32       P1  7948  0.92
      L1  H    13    33       P1  7948  0.44
      L1  H    17    21       P1 10186  0.60
      P1  H  7989  7998       L1     4  0.45
      P1  H  7997  8008       L1     2  0.42

> <Gold.Chemscore.Hbond.Weighted>
-15.4673

> <Gold.Chemscore.Metal.Weighted>
-0.0000

> <Gold.Chemscore.Lipo.Weighted>
-5.3523

> <Gold.Chemscore.Internal_Hbond.Weighted>
0.0000

> <Gold.Chemscore.DEClash.Weighted>
0.0038

> <Gold.Chemscore.DEInternal.Weighted>
2.6290

> <Gold.Chemscore.Rot.Weighted>
4.4917

> <Gold.Chemscore.Internal.Correction.Weighted>
   9.000000E+99

> <Gold.Protein.RotatedTorsions>
[ 6907 6896 6895 6894 ] final -123.02 input  -60.11 | X-H torsion
[ 7974 7965 7964 7962 ] final   88.32 input  175.53 | X-H torsion
[ 8008 7997 7996 7995 ] final  -26.00 input   59.86 | X-H torsion
[ 10167 10162 10161 10158 ] final  -75.42 input  -65.29 | X-H torsion
[ 10718 10713 10712 10709 ] final  -18.24 input   66.30 | X-H torsion
[ 10763 10752 10751 10750 ] final   94.08 input  -60.55 | X-H torsion
[ 11005 11000 10999 10996 ] final   80.41 input  -57.11 | X-H torsion

> <Gold.Protein.ActiveResidues>
 VAL166  LYS551  ARG553  GLY616  TRP617  ASP618  TYR619  PRO620  LYS621  CYS622 
 ASP623  PHE694  ASN695  SER759  ASP760  ASP761  ALA762  ILE779  LEU786  VAL792 
 PHE793  MET794  SER795  GLU796  ALA797  LYS798  CYS799  TRP800  GLU811  SER814 

> <Gold.Protein.RotatedAtoms>
  150.8631  133.7615  159.2985 H   0  0  0  0  0  0  0  0  0  0  0  0  # atno 6907 bound_to 6896
  151.5251  135.1066  159.9898 H   0  0  0  0  0  0  0  0  0  0  0  0  # atno 6908 bound_to 6896
  152.4641  133.7840  159.6922 H   0  0  0  0  0  0  0  0  0  0  0  0  # atno 6909 bound_to 6896
  145.5473  139.2293  143.2532 H   0  0  0  0  0  0  0  0  0  0  0  0  # atno 7974 bound_to 7965
  154.4447  140.1911  156.0707 H   0  0  0  0  0  0  0  0  0  0  0  0  # atno 8008 bound_to 7997
  156.0513  140.3308  155.7328 H   0  0  0  0  0  0  0  0  0  0  0  0  # atno 8009 bound_to 7997
  155.5552  140.0598  157.2832 H   0  0  0  0  0  0  0  0  0  0  0  0  # atno 8010 bound_to 7997
  140.4944  143.2373  151.7854 H   0  0  0  0  0  0  0  0  0  0  0  0  # atno 10167 bound_to 10162
  156.5623  130.4728  149.6401 H   0  0  0  0  0  0  0  0  0  0  0  0  # atno 10718 bound_to 10713
  153.2376  135.4302  155.0663 H   0  0  0  0  0  0  0  0  0  0  0  0  # atno 10763 bound_to 10752
  154.8326  135.3394  154.6697 H   0  0  0  0  0  0  0  0  0  0  0  0  # atno 10764 bound_to 10752
  153.7121  135.7022  153.5091 H   0  0  0  0  0  0  0  0  0  0  0  0  # atno 10765 bound_to 10752
  139.9135  134.7918  156.1905 H   0  0  0  0  0  0  0  0  0  0  0  0  # atno 11005 bound_to 11000
  146.1941  140.6295  142.9132 LP  0  0  0  0  0  0  0  0  0  0  0  0  # atno 17320 bound_to 7965
  144.7547  140.5278  143.6777 LP  0  0  0  0  0  0  0  0  0  0  0  0  # atno 17321 bound_to 7965
  139.4858  144.4606  151.9546 LP  0  0  0  0  0  0  0  0  0  0  0  0  # atno 17342 bound_to 10162
  140.3693  144.2875  150.5922 LP  0  0  0  0  0  0  0  0  0  0  0  0  # atno 17343 bound_to 10162
  156.2788  130.7059  151.1877 LP  0  0  0  0  0  0  0  0  0  0  0  0  # atno 17370 bound_to 10713
  157.7366  131.0561  150.5405 LP  0  0  0  0  0  0  0  0  0  0  0  0  # atno 17371 bound_to 10713
  141.0586  133.6852  156.1909 LP  0  0  0  0  0  0  0  0  0  0  0  0  # atno 17394 bound_to 11000
  140.6696  134.4881  157.5587 LP  0  0  0  0  0  0  0  0  0  0  0  0  # atno 17395 bound_to 11000

$$$$
