AV-unprocessed.smi:2862|AV-procd|sdf|11011|dock5
  -GOLD-   2272015473D 1   1.00000     0.00000
 Structure written by MMmdl.
 52 54  0  0  0  0  0  0  0  0  1 V2000
  154.2173  140.8106  160.2539 C   0  0  0  0  0  0  0  0  0  0  0  0
  153.3045  142.0391  160.0958 C   0  0  1  0  0  0  0  0  0  0  0  0
  152.4322  141.9065  158.9293 N   0  0  0  0  0  0  0  0  0  0  0  0
  151.6993  140.8344  158.5858 C   0  0  0  0  0  0  0  0  0  0  0  0
  151.7130  139.7715  159.2082 O   0  0  0  0  0  0  0  0  0  0  0  0
  150.8212  140.9940  157.3360 C   0  0  0  0  0  0  0  0  0  0  0  0
  150.9787  139.8840  156.3805 N   0  0  0  0  0  0  0  0  0  0  0  0
  152.1807  139.8369  155.6454 C   0  0  0  0  0  0  0  0  0  0  0  0
  152.4395  138.8614  154.7604 C   0  0  0  0  0  0  0  0  0  0  0  0
  151.4576  137.8191  154.5825 C   0  0  0  0  0  0  0  0  0  0  0  0
  150.3141  137.8422  155.2986 C   0  0  0  0  0  0  0  0  0  0  0  0
  149.3049  136.7931  155.1298 C   0  0  0  0  0  0  0  0  0  0  0  0
  148.2149  137.0297  154.6078 O   0  0  0  0  0  0  0  0  0  0  0  0
  149.6383  135.5462  155.5760 N   0  0  0  0  0  0  0  0  0  0  0  0
  151.0270  135.1009  155.7856 C   0  0  0  0  0  0  0  0  0  0  0  0
  148.6442  134.4657  155.7524 C   0  0  1  0  0  0  0  0  0  0  0  0
  147.5678  134.8451  156.7893 C   0  0  0  0  0  0  0  0  0  0  0  0
  148.0147  133.9611  154.4606 C   0  0  0  0  0  0  0  0  0  0  0  0
  147.8744  132.4817  154.1915 C   0  0  0  0  0  0  0  0  0  0  0  0
  148.8514  133.3090  153.3864 C   0  0  0  0  0  0  0  0  0  0  0  0
  149.9870  138.9520  156.2244 C   0  0  0  0  0  0  0  0  0  0  0  0
  148.9124  139.0595  156.8229 O   0  0  0  0  0  0  0  0  0  0  0  0
  152.5811  142.3725  161.3924 C   0  0  0  0  0  0  0  0  0  0  0  0
  152.5001  143.7929  161.8970 C   0  0  0  0  0  0  0  0  0  0  0  0
  153.3472  142.7752  162.6294 C   0  0  0  0  0  0  0  0  0  0  0  0
  154.9577  140.9757  161.0368 H   0  0  0  0  0  0  0  0  0  0  0  0
  154.7585  140.6003  159.3310 H   0  0  0  0  0  0  0  0  0  0  0  0
  153.6532  139.9171  160.5218 H   0  0  0  0  0  0  0  0  0  0  0  0
  153.9528  142.8856  159.8656 H   0  0  0  0  0  0  0  0  0  0  0  0
  152.3528  142.7241  158.3422 H   0  0  0  0  0  0  0  0  0  0  0  0
  149.7731  141.0789  157.6304 H   0  0  0  0  0  0  0  0  0  0  0  0
  151.0671  141.9502  156.8724 H   0  0  0  0  0  0  0  0  0  0  0  0
  152.8743  140.6410  155.8435 H   0  0  0  0  0  0  0  0  0  0  0  0
  153.3667  138.8479  154.2068 H   0  0  0  0  0  0  0  0  0  0  0  0
  151.6591  137.0117  153.8929 H   0  0  0  0  0  0  0  0  0  0  0  0
  151.7556  135.6890  155.2264 H   0  0  0  0  0  0  0  0  0  0  0  0
  151.1679  134.0704  155.4581 H   0  0  0  0  0  0  0  0  0  0  0  0
  151.2863  135.1505  156.8434 H   0  0  0  0  0  0  0  0  0  0  0  0
  149.1589  133.6115  156.1959 H   0  0  0  0  0  0  0  0  0  0  0  0
  146.9518  133.9812  157.0405 H   0  0  0  0  0  0  0  0  0  0  0  0
  146.8964  135.6230  156.4263 H   0  0  0  0  0  0  0  0  0  0  0  0
  148.0227  135.2010  157.7145 H   0  0  0  0  0  0  0  0  0  0  0  0
  147.1846  134.5683  154.1062 H   0  0  0  0  0  0  0  0  0  0  0  0
  148.2865  131.7902  154.9238 H   0  0  0  0  0  0  0  0  0  0  0  0
  146.9672  132.1467  153.6926 H   0  0  0  0  0  0  0  0  0  0  0  0
  148.5957  133.5273  152.3516 H   0  0  0  0  0  0  0  0  0  0  0  0
  149.9116  133.1647  153.5843 H   0  0  0  0  0  0  0  0  0  0  0  0
  151.7021  141.7575  161.5759 H   0  0  0  0  0  0  0  0  0  0  0  0
  153.0182  144.5630  161.3287 H   0  0  0  0  0  0  0  0  0  0  0  0
  151.5683  144.1052  162.3641 H   0  0  0  0  0  0  0  0  0  0  0  0
  152.9808  142.4114  163.5872 H   0  0  0  0  0  0  0  0  0  0  0  0
  154.4284  142.8703  162.5484 H   0  0  0  0  0  0  0  0  0  0  0  0
  1  2  1  0  0  0  0
  1 26  1  0  0  0  0
  1 27  1  0  0  0  0
  1 28  1  0  0  0  0
  2  3  1  0  0  0  0
  2 23  1  0  0  0  0
  2 29  1  0  0  0  0
  3  4  1  0  0  0  0
  3 30  1  0  0  0  0
  4  5  2  0  0  0  0
  4  6  1  0  0  0  0
  6  7  1  0  0  0  0
  6 31  1  0  0  0  0
  6 32  1  0  0  0  0
  7 21  1  0  0  0  0
  7  8  1  0  0  0  0
  8  9  2  0  0  0  0
  8 33  1  0  0  0  0
  9 10  1  0  0  0  0
  9 34  1  0  0  0  0
 10 11  2  0  0  0  0
 10 35  1  0  0  0  0
 11 12  1  0  0  0  0
 11 21  1  0  0  0  0
 12 13  2  0  0  0  0
 12 14  1  0  0  0  0
 14 15  1  0  0  0  0
 14 16  1  0  0  0  0
 15 36  1  0  0  0  0
 15 37  1  0  0  0  0
 15 38  1  0  0  0  0
 16 17  1  0  0  0  0
 16 18  1  0  0  0  0
 16 39  1  0  0  0  0
 17 40  1  0  0  0  0
 17 41  1  0  0  0  0
 17 42  1  0  0  0  0
 18 20  1  0  0  0  0
 18 19  1  0  0  0  0
 18 43  1  0  0  0  0
 19 20  1  0  0  0  0
 19 44  1  0  0  0  0
 19 45  1  0  0  0  0
 20 46  1  0  0  0  0
 20 47  1  0  0  0  0
 21 22  2  0  0  0  0
 23 25  1  0  0  0  0
 23 24  1  0  0  0  0
 23 48  1  0  0  0  0
 24 25  1  0  0  0  0
 24 49  1  0  0  0  0
 24 50  1  0  0  0  0
 25 51  1  0  0  0  0
 25 52  1  0  0  0  0
M  END
> <s_m_source_file>
AV-unprocessed.smi

> <i_m_source_file_index>
2862

> <i_lp_mmshare_version>
43012

> <i_f3d_flags>
0

> <s_epik_input>
W0NIMl0xW0NIMl1bQ0hdMVtDQEhdKFtDSDNdKVtOSF1DKD1PKVtDSDJdbjJbY0hdW2NIXVtjSF1jKGMyPU8pQyg9TylOKFtDSDNdKVtDQEhdKFtDSDNdKVtDSF0zW0NIMl1bQ0gyXTM=

> <s_epik_cmdline>
J2VwaWtfcHl0aG9uJywgJy1waCcsICc3LjAnLCAnLXRuJywgJzgnLCAnLW1hJywgJzIwMCcsICctbWV0YWxfYmluZGluZycsICctaW1hZScsICc8aW5maWxlLm1hZT4nLCAnLW9tYWUnLCAnPG91dGZpbGUubWFlPic=

> <r_lp_tautomer_probability>
1

> <r_epik_Ionization_Penalty>
4.00841e-08

> <r_epik_Ionization_Penalty_Charging>
2.07773e-08

> <r_epik_Ionization_Penalty_Neutral>
1.93069e-08

> <r_epik_State_Penalty>
-0

> <r_epik_Charging_Adjusted_Penalty>
2.07773e-08

> <i_epik_Tot_Q>
0

> <i_epik_Tot_abs_Q>
0

> <r_epik_Metal_State_Penalty>
-0

> <b_epik_Metal_Only>
0

> <s_lp_Force_Field>
OPLS_2005

> <r_lp_Energy>
59.5746

> <b_lp_Chiralities_Consistent>
1

> <s_lp_Variant>
AV-unprocessed.smi:2862-4

> <Gold.Version>
5.8.1

> <Gold.Id.Protein>
6NUR|6NUR_protein|mol2

> <Gold.PLP.Fitness>
42.2221

> <Gold.PLP.PLP>
-44.2201

> <Gold.PLP.part.hbond>
0.0000

> <Gold.PLP.part.metal>
0.0000

> <Gold.PLP.part.buried>
-4.2679

> <Gold.PLP.part.nonpolar>
-39.4147

> <Gold.PLP.part.repulsive>
1.3710

> <Gold.PLP.ligand.clash>
0.0000

> <Gold.PLP.ligand.torsion>
3.2244

> <Gold.PLP.Chemscore.Hbond>
0.0000

> <Gold.PLP.Chemscore.CHOScore>
0.0000

> <Gold.PLP.Chemscore.Metal>
0.0000

> <Gold.PLP.Chemscore.Internal.Correction>
4.4507

> <Gold.Rescore>
     Score         DG    S(hbond)    S(metal)    S(lipo)     H(rot)  DE(clash)    DE(int)     intcor
      8.67     -14.21       0.00        0.00     112.58       1.73       0.25       5.29       ----

> <Gold.Chemscore.Fitness>
8.6723

> <Gold.Chemscore.DG>
-14.2107

> <Gold.Chemscore.ZeroCoef>
-5.4800

> <Gold.Chemscore.Hbond>
0.0000

> <Gold.Chemscore.Metal>
0.0000

> <Gold.Chemscore.Lipo>
112.5801

> <Gold.Chemscore.Internal_Hbond>
0.0000

> <Gold.Chemscore.DEClash>
0.2512

> <Gold.Chemscore.DEInternal>
5.2872

> <Gold.Chemscore.Rot>
1.7348

> <Gold.Chemscore.Internal.Correction>
   9.000000E+99

> <Gold.Chemscore.Hbond.Weighted>
-0.0000

> <Gold.Chemscore.Metal.Weighted>
-0.0000

> <Gold.Chemscore.Lipo.Weighted>
-13.1719

> <Gold.Chemscore.Internal_Hbond.Weighted>
0.0000

> <Gold.Chemscore.DEClash.Weighted>
0.2512

> <Gold.Chemscore.DEInternal.Weighted>
5.2872

> <Gold.Chemscore.Rot.Weighted>
4.4412

> <Gold.Chemscore.Internal.Correction.Weighted>
   9.000000E+99

> <Gold.Protein.RotatedTorsions>
[ 6907 6896 6895 6894 ] final  134.65 input  -60.11 | X-H torsion
[ 7974 7965 7964 7962 ] final  -35.19 input  175.53 | X-H torsion
[ 8008 7997 7996 7995 ] final  -28.35 input   59.86 | X-H torsion
[ 10167 10162 10161 10158 ] final   44.54 input  -65.29 | X-H torsion
[ 10718 10713 10712 10709 ] final  175.89 input   66.30 | X-H torsion
[ 10763 10752 10751 10750 ] final   35.04 input  -60.55 | X-H torsion
[ 11005 11000 10999 10996 ] final  -52.97 input  -57.11 | X-H torsion

> <Gold.Protein.ActiveResidues>
 VAL166  LYS551  ARG553  GLY616  TRP617  ASP618  TYR619  PRO620  LYS621  CYS622 
 ASP623  PHE694  ASN695  SER759  ASP760  ASP761  ALA762  ILE779  LEU786  VAL792 
 PHE793  MET794  SER795  GLU796  ALA797  LYS798  CYS799  TRP800  GLU811  SER814 

> <Gold.Protein.RotatedAtoms>
  152.3090  133.5733  159.5668 H   0  0  0  0  0  0  0  0  0  0  0  0  # atno 6907 bound_to 6896
  150.7314  134.0180  159.3700 H   0  0  0  0  0  0  0  0  0  0  0  0  # atno 6908 bound_to 6896
  151.8074  135.0691  160.0459 H   0  0  0  0  0  0  0  0  0  0  0  0  # atno 6909 bound_to 6896
  146.0767  140.6130  142.8927 H   0  0  0  0  0  0  0  0  0  0  0  0  # atno 7974 bound_to 7965
  154.4336  140.1847  156.1075 H   0  0  0  0  0  0  0  0  0  0  0  0  # atno 8008 bound_to 7997
  156.0243  140.3337  155.7046 H   0  0  0  0  0  0  0  0  0  0  0  0  # atno 8009 bound_to 7997
  155.5931  140.0633  157.2744 H   0  0  0  0  0  0  0  0  0  0  0  0  # atno 8010 bound_to 7997
  140.3332  144.2563  150.6165 H   0  0  0  0  0  0  0  0  0  0  0  0  # atno 10167 bound_to 10162
  156.9281  130.9962  151.2992 H   0  0  0  0  0  0  0  0  0  0  0  0  # atno 10718 bound_to 10713
  153.0136  135.6344  154.1765 H   0  0  0  0  0  0  0  0  0  0  0  0  # atno 10763 bound_to 10752
  154.1505  135.2829  155.3138 H   0  0  0  0  0  0  0  0  0  0  0  0  # atno 10764 bound_to 10752
  154.6057  135.5573  153.7481 H   0  0  0  0  0  0  0  0  0  0  0  0  # atno 10765 bound_to 10752
  141.0952  133.6626  156.4102 H   0  0  0  0  0  0  0  0  0  0  0  0  # atno 11005 bound_to 11000
  144.7266  140.4544  143.6968 LP  0  0  0  0  0  0  0  0  0  0  0  0  # atno 17320 bound_to 7965
  145.6293  139.1534  143.2978 LP  0  0  0  0  0  0  0  0  0  0  0  0  # atno 17321 bound_to 7965
  140.5378  143.2229  151.8135 LP  0  0  0  0  0  0  0  0  0  0  0  0  # atno 17342 bound_to 10162
  139.4853  144.4639  151.9507 LP  0  0  0  0  0  0  0  0  0  0  0  0  # atno 17343 bound_to 10162
  157.5864  130.8413  149.8596 LP  0  0  0  0  0  0  0  0  0  0  0  0  # atno 17370 bound_to 10713
  156.0460  130.3728  150.1318 LP  0  0  0  0  0  0  0  0  0  0  0  0  # atno 17371 bound_to 10713
  140.5158  134.6352  157.5300 LP  0  0  0  0  0  0  0  0  0  0  0  0  # atno 17394 bound_to 11000
  139.9787  134.7173  155.9901 LP  0  0  0  0  0  0  0  0  0  0  0  0  # atno 17395 bound_to 11000

$$$$
