AV-unprocessed.smi:1202|AV-procd|sdf|5032|dock9
  -GOLD-   22720 4 53D 1   1.00000     0.00000
 Structure written by MMmdl.
 44 45  0  0  0  0  0  0  0  0  3 V2000
  148.1273  132.5965  153.1650 C   0  0  0  0  0  0  0  0  0  0  0  0
  148.2270  133.5555  154.2590 N   0  5  0  0  0  0  0  0  0  0  0  0
  147.4544  134.6733  154.3497 C   0  0  0  0  0  0  0  0  0  0  0  0
  146.3890  134.9627  153.7961 O   0  0  0  0  0  0  0  0  0  0  0  0
  148.0699  135.6939  155.3157 C   0  0  0  0  0  0  0  0  0  0  0  0
  148.5338  136.9057  154.5912 N   0  3  2  0  0  0  0  0  0  0  0  0
  149.8334  137.4295  155.0909 C   0  0  0  0  0  0  0  0  0  0  0  0
  150.3336  138.6002  154.2248 C   0  0  0  0  0  0  0  0  0  0  0  0
  149.2932  139.7293  154.1243 C   0  0  2  0  0  0  0  0  0  0  0  0
  149.1759  140.4280  155.4035 N   0  0  0  0  0  0  0  0  0  0  0  0
  150.1851  141.0057  156.0728 C   0  0  0  0  0  0  0  0  0  0  0  0
  151.3512  140.9959  155.6765 O   0  0  0  0  0  0  0  0  0  0  0  0
  149.8111  141.6799  157.4004 C   0  0  0  0  0  0  0  0  0  0  0  0
  150.9632  142.2875  158.0872 N   0  0  0  0  0  0  0  0  0  0  0  0
  150.9994  143.6943  158.1602 C   0  0  0  0  0  0  0  0  0  0  0  0
  152.0025  144.3483  158.7668 C   0  0  0  0  0  0  0  0  0  0  0  0
  153.0664  143.5704  159.3565 C   0  0  0  0  0  0  0  0  0  0  0  0
  153.0412  142.2242  159.2931 C   0  0  0  0  0  0  0  0  0  0  0  0
  151.9467  141.5053  158.6308 C   0  0  0  0  0  0  0  0  0  0  0  0
  151.9146  140.2757  158.5685 O   0  0  0  0  0  0  0  0  0  0  0  0
  147.9430  139.1455  153.6631 C   0  0  0  0  0  0  0  0  0  0  0  0
  147.4950  137.9651  154.5431 C   0  0  0  0  0  0  0  0  0  0  0  0
  148.8114  131.7586  153.2978 H   0  0  0  0  0  0  0  0  0  0  0  0
  148.3666  133.0416  152.1989 H   0  0  0  0  0  0  0  0  0  0  0  0
  147.1287  132.1677  153.0773 H   0  0  0  0  0  0  0  0  0  0  0  0
  147.3067  135.9598  156.0492 H   0  0  0  0  0  0  0  0  0  0  0  0
  148.8949  135.2482  155.8737 H   0  0  0  0  0  0  0  0  0  0  0  0
  149.7229  137.7455  156.1293 H   0  0  0  0  0  0  0  0  0  0  0  0
  150.5855  136.6403  155.0835 H   0  0  0  0  0  0  0  0  0  0  0  0
  151.2738  138.9855  154.6216 H   0  0  0  0  0  0  0  0  0  0  0  0
  150.5575  138.2293  153.2236 H   0  0  0  0  0  0  0  0  0  0  0  0
  149.6411  140.4470  153.3789 H   0  0  0  0  0  0  0  0  0  0  0  0
  148.2539  140.4770  155.8123 H   0  0  0  0  0  0  0  0  0  0  0  0
  149.0435  142.4359  157.2236 H   0  0  0  0  0  0  0  0  0  0  0  0
  149.3339  140.9325  158.0359 H   0  0  0  0  0  0  0  0  0  0  0  0
  150.1634  144.2015  157.7009 H   0  0  0  0  0  0  0  0  0  0  0  0
  152.0118  145.4273  158.8154 H   0  0  0  0  0  0  0  0  0  0  0  0
  153.8850  144.0704  159.8527 H   0  0  0  0  0  0  0  0  0  0  0  0
  153.8449  141.6590  159.7416 H   0  0  0  0  0  0  0  0  0  0  0  0
  147.1720  139.9169  153.6520 H   0  0  0  0  0  0  0  0  0  0  0  0
  148.0371  138.8022  152.6320 H   0  0  0  0  0  0  0  0  0  0  0  0
  146.5697  137.5525  154.1394 H   0  0  0  0  0  0  0  0  0  0  0  0
  147.2733  138.3069  155.5553 H   0  0  0  0  0  0  0  0  0  0  0  0
  148.6826  136.6043  153.6378 H   0  0  0  0  0  0  0  0  0  0  0  0
  1  2  1  0  0  0  0
  1 23  1  0  0  0  0
  1 24  1  0  0  0  0
  1 25  1  0  0  0  0
  2  3  1  0  0  0  0
  3  4  2  0  0  0  0
  3  5  1  0  0  0  0
  5  6  1  0  0  0  0
  5 26  1  0  0  0  0
  5 27  1  0  0  0  0
  6 22  1  0  0  0  0
  6  7  1  0  0  0  0
  6 44  1  0  0  0  0
  7  8  1  0  0  0  0
  7 28  1  0  0  0  0
  7 29  1  0  0  0  0
  8  9  1  0  0  0  0
  8 30  1  0  0  0  0
  8 31  1  0  0  0  0
  9 10  1  0  0  0  0
  9 21  1  0  0  0  0
  9 32  1  0  0  0  0
 10 11  1  0  0  0  0
 10 33  1  0  0  0  0
 11 12  2  0  0  0  0
 11 13  1  0  0  0  0
 13 14  1  0  0  0  0
 13 34  1  0  0  0  0
 13 35  1  0  0  0  0
 14 19  1  0  0  0  0
 14 15  1  0  0  0  0
 15 16  2  0  0  0  0
 15 36  1  0  0  0  0
 16 17  1  0  0  0  0
 16 37  1  0  0  0  0
 17 18  2  0  0  0  0
 17 38  1  0  0  0  0
 18 19  1  0  0  0  0
 18 39  1  0  0  0  0
 19 20  2  0  0  0  0
 21 22  1  0  0  0  0
 21 40  1  0  0  0  0
 21 41  1  0  0  0  0
 22 42  1  0  0  0  0
 22 43  1  0  0  0  0
M  CHG  1   2  -1
M  CHG  1   6   1
M  END
> <s_m_source_file>
AV-unprocessed.smi

> <i_m_source_file_index>
1202

> <i_lp_mmshare_version>
43012

> <i_f3d_flags>
0

> <s_epik_input>
W0NIM11bTkhdQyg9TylbQ0gyXU4xW0NIMl1bQ0gyXVtDSF0oW0NIMl1bQ0gyXTEpW05IXUMoPU8pW0NIMl1uMltjSF1bY0hdW2NIXVtjSF1jMj1P

> <s_epik_cmdline>
J2VwaWtfcHl0aG9uJywgJy1waCcsICc3LjAnLCAnLXRuJywgJzgnLCAnLW1hJywgJzIwMCcsICctbWV0YWxfYmluZGluZycsICctaW1hZScsICc8aW5maWxlLm1hZT4nLCAnLW9tYWUnLCAnPG91dGZpbGUubWFlPic=

> <r_lp_tautomer_probability>
1

> <r_epik_Ionization_Penalty>
6.12124

> <r_epik_Ionization_Penalty_Charging>
6.12124

> <r_epik_Ionization_Penalty_Neutral>
4.50226e-08

> <r_epik_State_Penalty>
7.08052

> <r_epik_Charging_Adjusted_Penalty>
13.2018

> <i_epik_Tot_Q>
0

> <i_epik_Tot_abs_Q>
2

> <r_epik_Metal_State_Penalty>
3.01282

> <b_epik_Metal_Only>
1

> <s_lp_Force_Field>
OPLS_2005

> <r_lp_Energy>
20.2211

> <b_lp_Chiralities_Consistent>
1

> <s_lp_Variant>
AV-unprocessed.smi:1202-5

> <Gold.Version>
5.8.1

> <Gold.Id.Protein>
6NUR|6NUR_protein|mol2

> <Gold.PLP.Fitness>
45.0966

> <Gold.PLP.PLP>
-36.0195

> <Gold.PLP.part.hbond>
-2.0000

> <Gold.PLP.part.metal>
0.0000

> <Gold.PLP.part.buried>
-1.2708

> <Gold.PLP.part.nonpolar>
-32.2047

> <Gold.PLP.part.repulsive>
0.2885

> <Gold.PLP.ligand.clash>
0.0000

> <Gold.PLP.ligand.torsion>
0.7150

> <Gold.PLP.Chemscore.Hbond>
2.4233

> <Gold.PLP.Chemscore.CHOScore>
1.0660

> <Gold.PLP.Chemscore.Metal>
0.0000

> <Gold.Chemscore.Hbonds>
donor molecule, donor type, donor heavy atom, donor atom, acceptor molecule, acceptor atom, score
      L1  H     6    44       P1  7948  2.00
      P1  H  7989  7998       L1    12  0.39
      L1  C    15    36       P1  8028  1.00
      L1  C    15    36       P1  8029  0.02

> <Gold.PLP.Chemscore.Internal.Correction>
0.0391

> <Gold.Rescore>
     Score         DG    S(hbond)    S(metal)    S(lipo)     H(rot)  DE(clash)    DE(int)     intcor
     12.39     -14.18       1.23        0.00      86.33       2.15       0.19       1.59       ----

> <Gold.Chemscore.Fitness>
12.3923

> <Gold.Chemscore.DG>
-14.1791

> <Gold.Chemscore.ZeroCoef>
-5.4800

> <Gold.Chemscore.Hbond>
1.2292

> <Gold.Chemscore.Metal>
0.0000

> <Gold.Chemscore.Lipo>
86.3267

> <Gold.Chemscore.Internal_Hbond>
0.0000

> <Gold.Chemscore.DEClash>
0.1921

> <Gold.Chemscore.DEInternal>
1.5947

> <Gold.Chemscore.Rot>
2.1510

> <Gold.Chemscore.Internal.Correction>
   9.000000E+99

> <Gold.Chemscore.Hbonds>
donor molecule, donor type, donor heavy atom, donor atom, acceptor molecule, acceptor atom, score
      L1  H     6    44       P1  7948  1.00
      P1  H  7989  7998       L1    12  0.37

> <Gold.Chemscore.Hbond.Weighted>
-4.1054

> <Gold.Chemscore.Metal.Weighted>
-0.0000

> <Gold.Chemscore.Lipo.Weighted>
-10.1002

> <Gold.Chemscore.Internal_Hbond.Weighted>
0.0000

> <Gold.Chemscore.DEClash.Weighted>
0.1921

> <Gold.Chemscore.DEInternal.Weighted>
1.5947

> <Gold.Chemscore.Rot.Weighted>
5.5065

> <Gold.Chemscore.Internal.Correction.Weighted>
   9.000000E+99

> <Gold.Protein.RotatedTorsions>
[ 6907 6896 6895 6894 ] final   -2.75 input  -60.11 | X-H torsion
[ 7974 7965 7964 7962 ] final  -42.47 input  175.53 | X-H torsion
[ 8008 7997 7996 7995 ] final   89.35 input   59.86 | X-H torsion
[ 10167 10162 10161 10158 ] final  160.98 input  -65.29 | X-H torsion
[ 10718 10713 10712 10709 ] final -124.75 input   66.30 | X-H torsion
[ 10763 10752 10751 10750 ] final   99.78 input  -60.55 | X-H torsion
[ 11005 11000 10999 10996 ] final  125.79 input  -57.11 | X-H torsion

> <Gold.Protein.ActiveResidues>
 VAL166  LYS551  ARG553  GLY616  TRP617  ASP618  TYR619  PRO620  LYS621  CYS622 
 ASP623  PHE694  ASN695  SER759  ASP760  ASP761  ALA762  ILE779  LEU786  VAL792 
 PHE793  MET794  SER795  GLU796  ALA797  LYS798  CYS799  TRP800  GLU811  SER814 

> <Gold.Protein.RotatedAtoms>
  151.5249  135.1067  159.9887 H   0  0  0  0  0  0  0  0  0  0  0  0  # atno 6907 bound_to 6896
  152.4604  133.7807  159.6859 H   0  0  0  0  0  0  0  0  0  0  0  0  # atno 6908 bound_to 6896
  150.8564  133.7644  159.3032 H   0  0  0  0  0  0  0  0  0  0  0  0  # atno 6909 bound_to 6896
  146.0112  140.6961  142.9223 H   0  0  0  0  0  0  0  0  0  0  0  0  # atno 7974 bound_to 7965
  155.9988  140.3361  155.6825 H   0  0  0  0  0  0  0  0  0  0  0  0  # atno 8008 bound_to 7997
  155.6319  140.0686  157.2664 H   0  0  0  0  0  0  0  0  0  0  0  0  # atno 8009 bound_to 7997
  154.4242  140.1758  156.1468 H   0  0  0  0  0  0  0  0  0  0  0  0  # atno 8010 bound_to 7997
  139.4845  144.4582  151.8741 H   0  0  0  0  0  0  0  0  0  0  0  0  # atno 10167 bound_to 10162
  156.1615  130.6605  151.0056 H   0  0  0  0  0  0  0  0  0  0  0  0  # atno 10718 bound_to 10713
  153.3057  135.4101  155.1292 H   0  0  0  0  0  0  0  0  0  0  0  0  # atno 10763 bound_to 10752
  154.8562  135.3552  154.5791 H   0  0  0  0  0  0  0  0  0  0  0  0  # atno 10764 bound_to 10752
  153.6218  135.7064  153.5366 H   0  0  0  0  0  0  0  0  0  0  0  0  # atno 10765 bound_to 10752
  139.9424  134.9634  156.8610 H   0  0  0  0  0  0  0  0  0  0  0  0  # atno 11005 bound_to 11000
  144.6954  140.3403  143.7200 LP  0  0  0  0  0  0  0  0  0  0  0  0  # atno 17320 bound_to 7965
  145.7338  139.1744  143.2415 LP  0  0  0  0  0  0  0  0  0  0  0  0  # atno 17321 bound_to 7965
  140.4042  144.2453  150.5891 LP  0  0  0  0  0  0  0  0  0  0  0  0  # atno 17342 bound_to 10162
  140.5028  143.2313  151.8653 LP  0  0  0  0  0  0  0  0  0  0  0  0  # atno 17343 bound_to 10162
  157.6736  131.0855  150.7551 LP  0  0  0  0  0  0  0  0  0  0  0  0  # atno 17370 bound_to 10713
  156.7613  130.4799  149.5436 LP  0  0  0  0  0  0  0  0  0  0  0  0  # atno 17371 bound_to 10713
  140.5920  134.0253  155.7503 LP  0  0  0  0  0  0  0  0  0  0  0  0  # atno 17394 bound_to 11000
  141.1062  133.9689  157.2992 LP  0  0  0  0  0  0  0  0  0  0  0  0  # atno 17395 bound_to 11000

$$$$
