AV-unprocessed.smi:585|AV-procd|sdf|3000|dock2
  -GOLD-   2262023503D 1   1.00000     0.00000
 Structure written by MMmdl.
 38 39  0  0  0  0  0  0  0  0  1 V2000
  144.1874  132.5056  149.7157 C   0  0  0  0  0  0  0  0  0  0  0  0
  144.7498  133.2931  150.7500 O   0  0  0  0  0  0  0  0  0  0  0  0
  144.8458  134.6640  150.4011 C   0  0  0  0  0  0  0  0  0  0  0  0
  145.4794  135.4565  151.5540 C   0  0  0  0  0  0  0  0  0  0  0  0
  145.4840  136.8937  151.3059 N   0  0  0  0  0  0  0  0  0  0  0  0
  146.2014  137.7794  152.1233 C   0  0  0  0  0  0  0  0  0  0  0  0
  146.5450  139.0456  151.6013 C   0  0  0  0  0  0  0  0  0  0  0  0
  147.2687  139.9431  152.4108 C   0  0  0  0  0  0  0  0  0  0  0  0
  147.6187  139.5353  153.7113 C   0  0  0  0  0  0  0  0  0  0  0  0
  148.5412  140.6320  154.7773 S   0  0  0  0  0  0  0  0  0  0  0  0
  149.0934  141.7126  153.9453 O   0  0  0  0  0  0  0  0  0  0  0  0
  147.7401  140.9504  155.9697 O   0  0  0  0  0  0  0  0  0  0  0  0
  149.8621  139.6307  155.2742 N   0  0  0  0  0  0  0  0  0  0  0  0
  150.3446  138.5841  154.3642 C   0  0  0  0  0  0  0  0  0  0  0  0
  151.8658  138.7355  154.3328 C   0  0  0  0  0  0  0  0  0  0  0  0
  152.1893  139.3253  155.6985 C   0  0  0  0  0  0  0  0  0  0  0  0
  150.9994  140.2443  155.9721 C   0  0  0  0  0  0  0  0  0  0  0  0
  147.2378  138.2528  154.1514 C   0  0  0  0  0  0  0  0  0  0  0  0
  146.5480  137.3899  153.3745 N   0  0  0  0  0  0  0  0  0  0  0  0
  144.1467  131.4630  150.0305 H   0  0  0  0  0  0  0  0  0  0  0  0
  144.7874  132.5600  148.8064 H   0  0  0  0  0  0  0  0  0  0  0  0
  143.1709  132.8273  149.4850 H   0  0  0  0  0  0  0  0  0  0  0  0
  145.4754  134.7581  149.5151 H   0  0  0  0  0  0  0  0  0  0  0  0
  143.8662  135.0726  150.1467 H   0  0  0  0  0  0  0  0  0  0  0  0
  145.0039  135.2125  152.5044 H   0  0  0  0  0  0  0  0  0  0  0  0
  146.5218  135.1537  151.6545 H   0  0  0  0  0  0  0  0  0  0  0  0
  144.7848  137.2683  150.6813 H   0  0  0  0  0  0  0  0  0  0  0  0
  146.2600  139.3287  150.5985 H   0  0  0  0  0  0  0  0  0  0  0  0
  147.5479  140.9181  152.0394 H   0  0  0  0  0  0  0  0  0  0  0  0
  150.0556  137.6112  154.7631 H   0  0  0  0  0  0  0  0  0  0  0  0
  149.9101  138.6884  153.3693 H   0  0  0  0  0  0  0  0  0  0  0  0
  152.3805  137.7927  154.1450 H   0  0  0  0  0  0  0  0  0  0  0  0
  152.1523  139.4384  153.5490 H   0  0  0  0  0  0  0  0  0  0  0  0
  152.2259  138.5317  156.4461 H   0  0  0  0  0  0  0  0  0  0  0  0
  153.1438  139.8522  155.7178 H   0  0  0  0  0  0  0  0  0  0  0  0
  151.1895  141.2354  155.5587 H   0  0  0  0  0  0  0  0  0  0  0  0
  150.7893  140.3536  157.0364 H   0  0  0  0  0  0  0  0  0  0  0  0
  147.4934  137.9028  155.1405 H   0  0  0  0  0  0  0  0  0  0  0  0
  1  2  1  0  0  0  0
  1 20  1  0  0  0  0
  1 21  1  0  0  0  0
  1 22  1  0  0  0  0
  2  3  1  0  0  0  0
  3  4  1  0  0  0  0
  3 23  1  0  0  0  0
  3 24  1  0  0  0  0
  4  5  1  0  0  0  0
  4 25  1  0  0  0  0
  4 26  1  0  0  0  0
  5  6  1  0  0  0  0
  5 27  1  0  0  0  0
  6 19  1  0  0  0  0
  6  7  2  0  0  0  0
  7  8  1  0  0  0  0
  7 28  1  0  0  0  0
  8  9  2  0  0  0  0
  8 29  1  0  0  0  0
  9 10  1  0  0  0  0
  9 18  1  0  0  0  0
 10 11  2  0  0  0  0
 10 12  2  0  0  0  0
 10 13  1  0  0  0  0
 13 17  1  0  0  0  0
 13 14  1  0  0  0  0
 14 15  1  0  0  0  0
 14 30  1  0  0  0  0
 14 31  1  0  0  0  0
 15 16  1  0  0  0  0
 15 32  1  0  0  0  0
 15 33  1  0  0  0  0
 16 17  1  0  0  0  0
 16 34  1  0  0  0  0
 16 35  1  0  0  0  0
 17 36  1  0  0  0  0
 17 37  1  0  0  0  0
 18 19  2  0  0  0  0
 18 38  1  0  0  0  0
M  END
> <s_m_source_file>
AV-unprocessed.smi

> <i_m_source_file_index>
585

> <i_lp_mmshare_version>
43012

> <i_f3d_flags>
0

> <s_epik_input>
W0NIM11PW0NIMl1bQ0gyXVtOSF1jMVtjSF1bY0hdYyhbY0hdbjEpUyg9TykoPU8pTjJbQ0gyXVtDSDJdW0NIMl1bQ0gyXTI=

> <s_epik_cmdline>
J2VwaWtfcHl0aG9uJywgJy1waCcsICc3LjAnLCAnLXRuJywgJzgnLCAnLW1hJywgJzIwMCcsICctbWV0YWxfYmluZGluZycsICctaW1hZScsICc8aW5maWxlLm1hZT4nLCAnLW9tYWUnLCAnPG91dGZpbGUubWFlPic=

> <r_lp_tautomer_probability>
1

> <r_epik_Ionization_Penalty>
0.000380006

> <r_epik_Ionization_Penalty_Charging>
0

> <r_epik_Ionization_Penalty_Neutral>
0.000380006

> <r_epik_State_Penalty>
0.000231905

> <r_epik_Charging_Adjusted_Penalty>
0.000231905

> <i_epik_Tot_Q>
0

> <i_epik_Tot_abs_Q>
0

> <r_epik_Metal_State_Penalty>
-0

> <b_epik_Metal_Only>
0

> <s_lp_Force_Field>
OPLS_2005

> <r_lp_Energy>
14.2821

> <b_lp_Chiralities_Consistent>
1

> <s_lp_Variant>
AV-unprocessed.smi:585-1

> <Gold.Version>
5.8.1

> <Gold.Id.Protein>
6NUR|6NUR_protein|mol2

> <Gold.PLP.Fitness>
38.3358

> <Gold.PLP.PLP>
-34.7235

> <Gold.PLP.part.hbond>
-2.9918

> <Gold.PLP.part.metal>
0.0000

> <Gold.PLP.part.buried>
1.4231

> <Gold.PLP.part.nonpolar>
-33.7900

> <Gold.PLP.part.repulsive>
0.7028

> <Gold.PLP.ligand.clash>
0.0000

> <Gold.PLP.ligand.torsion>
1.9600

> <Gold.PLP.Chemscore.Hbond>
1.6400

> <Gold.PLP.Chemscore.CHOScore>
0.0000

> <Gold.PLP.Chemscore.Metal>
0.0000

> <Gold.Chemscore.Hbonds>
donor molecule, donor type, donor heavy atom, donor atom, acceptor molecule, acceptor atom, score
      L1  H     5    27       P1 10171  1.00
      P1  H  8011  8017       L1    11  0.59

> <Gold.PLP.Chemscore.Internal.Correction>
2.6122

> <Gold.Rescore>
     Score         DG    S(hbond)    S(metal)    S(lipo)     H(rot)  DE(clash)    DE(int)     intcor
     12.39     -16.04       1.60        0.00      79.85       1.61       1.48       2.17       ----

> <Gold.Chemscore.Fitness>
12.3913

> <Gold.Chemscore.DG>
-16.0424

> <Gold.Chemscore.ZeroCoef>
-5.4800

> <Gold.Chemscore.Hbond>
1.5967

> <Gold.Chemscore.Metal>
0.0000

> <Gold.Chemscore.Lipo>
79.8530

> <Gold.Chemscore.Internal_Hbond>
0.0000

> <Gold.Chemscore.DEClash>
1.4800

> <Gold.Chemscore.DEInternal>
2.1711

> <Gold.Chemscore.Rot>
1.6068

> <Gold.Chemscore.Internal.Correction>
   9.000000E+99

> <Gold.Chemscore.Hbonds>
donor molecule, donor type, donor heavy atom, donor atom, acceptor molecule, acceptor atom, score
      L1  H     5    27       P1 10171  0.99
      P1  H  8011  8017       L1    11  0.60

> <Gold.Chemscore.Hbond.Weighted>
-5.3331

> <Gold.Chemscore.Metal.Weighted>
-0.0000

> <Gold.Chemscore.Lipo.Weighted>
-9.3428

> <Gold.Chemscore.Internal_Hbond.Weighted>
0.0000

> <Gold.Chemscore.DEClash.Weighted>
1.4800

> <Gold.Chemscore.DEInternal.Weighted>
2.1711

> <Gold.Chemscore.Rot.Weighted>
4.1135

> <Gold.Chemscore.Internal.Correction.Weighted>
   9.000000E+99

> <Gold.Protein.RotatedTorsions>
[ 6907 6896 6895 6894 ] final  123.37 input  -60.11 | X-H torsion
[ 7974 7965 7964 7962 ] final   58.40 input  175.53 | X-H torsion
[ 8008 7997 7996 7995 ] final  -81.26 input   59.86 | X-H torsion
[ 10167 10162 10161 10158 ] final   48.94 input  -65.29 | X-H torsion
[ 10718 10713 10712 10709 ] final   73.28 input   66.30 | X-H torsion
[ 10763 10752 10751 10750 ] final   -6.50 input  -60.55 | X-H torsion
[ 11005 11000 10999 10996 ] final  168.54 input  -57.11 | X-H torsion

> <Gold.Protein.ActiveResidues>
 VAL166  LYS551  ARG553  GLY616  TRP617  ASP618  TYR619  PRO620  LYS621  CYS622 
 ASP623  PHE694  ASN695  SER759  ASP760  ASP761  ALA762  ILE779  LEU786  VAL792 
 PHE793  MET794  SER795  GLU796  ALA797  LYS798  CYS799  TRP800  GLU811  SER814 

> <Gold.Protein.RotatedAtoms>
  152.4167  133.7050  159.6445 H   0  0  0  0  0  0  0  0  0  0  0  0  # atno 6907 bound_to 6896
  150.8044  133.8527  159.3218 H   0  0  0  0  0  0  0  0  0  0  0  0  # atno 6908 bound_to 6896
  151.6255  135.1030  160.0162 H   0  0  0  0  0  0  0  0  0  0  0  0  # atno 6909 bound_to 6896
  145.9186  139.3711  143.0492 H   0  0  0  0  0  0  0  0  0  0  0  0  # atno 7974 bound_to 7965
  154.5965  140.0650  156.9311 H   0  0  0  0  0  0  0  0  0  0  0  0  # atno 8008 bound_to 7997
  155.2204  140.3330  155.4298 H   0  0  0  0  0  0  0  0  0  0  0  0  # atno 8009 bound_to 7997
  156.2291  140.1832  156.7273 H   0  0  0  0  0  0  0  0  0  0  0  0  # atno 8010 bound_to 7997
  140.2881  144.3078  150.6247 H   0  0  0  0  0  0  0  0  0  0  0  0  # atno 10167 bound_to 10162
  157.6540  130.9621  150.1047 H   0  0  0  0  0  0  0  0  0  0  0  0  # atno 10718 bound_to 10713
  153.4133  135.7008  153.6344 H   0  0  0  0  0  0  0  0  0  0  0  0  # atno 10763 bound_to 10752
  153.4829  135.3689  155.2452 H   0  0  0  0  0  0  0  0  0  0  0  0  # atno 10764 bound_to 10752
  154.8718  135.4070  154.3488 H   0  0  0  0  0  0  0  0  0  0  0  0  # atno 10765 bound_to 10752
  140.2883  134.7694  157.3817 H   0  0  0  0  0  0  0  0  0  0  0  0  # atno 11005 bound_to 11000
  145.8579  140.9492  143.0715 LP  0  0  0  0  0  0  0  0  0  0  0  0  # atno 17320 bound_to 7965
  144.6750  140.0493  143.7479 LP  0  0  0  0  0  0  0  0  0  0  0  0  # atno 17321 bound_to 7965
  140.5755  143.2177  151.7522 LP  0  0  0  0  0  0  0  0  0  0  0  0  # atno 17342 bound_to 10162
  139.4945  144.4155  152.0034 LP  0  0  0  0  0  0  0  0  0  0  0  0  # atno 17343 bound_to 10162
  156.1960  130.3657  149.8849 LP  0  0  0  0  0  0  0  0  0  0  0  0  # atno 17370 bound_to 10713
  156.6765  130.8841  151.3570 LP  0  0  0  0  0  0  0  0  0  0  0  0  # atno 17371 bound_to 10713
  140.1219  134.5208  155.8177 LP  0  0  0  0  0  0  0  0  0  0  0  0  # atno 17394 bound_to 11000
  141.2151  133.6759  156.6881 LP  0  0  0  0  0  0  0  0  0  0  0  0  # atno 17395 bound_to 11000

$$$$
