AV-unprocessed.smi:1941|AV-procd|sdf|7847|dock5
  -GOLD-   22720 9593D 1   1.00000     0.00000
 Structure written by MMmdl.
 40 41  0  0  0  0  0  0  0  0  1 V2000
  152.0196  138.4283  154.7445 C   0  0  0  0  0  0  0  0  0  0  0  0
  150.9120  139.4233  154.8086 C   0  0  0  0  0  0  0  0  0  0  0  0
  149.7572  139.2887  154.1511 N   0  0  0  0  0  0  0  0  0  0  0  0
  148.8830  140.3574  154.3744 C   0  0  0  0  0  0  0  0  0  0  0  0
  147.5353  140.3741  153.7191 C   0  0  0  0  0  0  0  0  0  0  0  0
  147.1778  139.0167  153.0903 C   0  0  0  0  0  0  0  0  0  0  0  0
  145.7344  138.8232  153.0129 N   0  0  0  0  0  0  0  0  0  0  0  0
  145.0792  137.7560  153.4904 C   0  0  0  0  0  0  0  0  0  0  0  0
  145.6284  136.8024  154.0427 O   0  0  0  0  0  0  0  0  0  0  0  0
  143.7561  137.8620  153.3041 N   0  0  0  0  0  0  0  0  0  0  0  0
  142.7488  136.8917  153.7327 C   0  0  2  0  0  0  0  0  0  0  0  0
  143.1404  135.4913  153.2398 C   0  0  0  0  0  0  0  0  0  0  0  0
  141.3467  137.3069  153.2416 C   0  0  1  0  0  0  0  0  0  0  0  0
  140.1820  136.4563  153.7707 C   0  0  0  0  0  0  0  0  0  0  0  0
  139.0492  137.4538  153.9748 C   0  0  0  0  0  0  0  0  0  0  0  0
  139.6244  138.7801  153.4827 C   0  0  0  0  0  0  0  0  0  0  0  0
  141.0231  138.6268  153.6565 O   0  0  0  0  0  0  0  0  0  0  0  0
  149.3966  141.3087  155.2203 C   0  0  0  0  0  0  0  0  0  0  0  0
  150.9993  140.8973  155.7649 S   0  0  0  0  0  0  0  0  0  0  0  0
  151.7760  137.6258  154.0474 H   0  0  0  0  0  0  0  0  0  0  0  0
  152.1890  137.9958  155.7305 H   0  0  0  0  0  0  0  0  0  0  0  0
  152.9369  138.9139  154.4116 H   0  0  0  0  0  0  0  0  0  0  0  0
  146.7761  140.6519  154.4514 H   0  0  0  0  0  0  0  0  0  0  0  0
  147.5055  141.1490  152.9518 H   0  0  0  0  0  0  0  0  0  0  0  0
  147.5822  138.9562  152.0796 H   0  0  0  0  0  0  0  0  0  0  0  0
  147.6331  138.2019  153.6560 H   0  0  0  0  0  0  0  0  0  0  0  0
  145.1977  139.5570  152.5741 H   0  0  0  0  0  0  0  0  0  0  0  0
  143.4091  138.6916  152.8451 H   0  0  0  0  0  0  0  0  0  0  0  0
  142.7108  136.8474  154.8225 H   0  0  0  0  0  0  0  0  0  0  0  0
  142.4193  134.7435  153.5710 H   0  0  0  0  0  0  0  0  0  0  0  0
  144.1172  135.1982  153.6261 H   0  0  0  0  0  0  0  0  0  0  0  0
  143.1861  135.4496  152.1509 H   0  0  0  0  0  0  0  0  0  0  0  0
  141.3237  137.2851  152.1504 H   0  0  0  0  0  0  0  0  0  0  0  0
  139.9158  135.6698  153.0642 H   0  0  0  0  0  0  0  0  0  0  0  0
  140.4206  135.9743  154.7190 H   0  0  0  0  0  0  0  0  0  0  0  0
  138.1415  137.1776  153.4374 H   0  0  0  0  0  0  0  0  0  0  0  0
  138.8042  137.5213  155.0354 H   0  0  0  0  0  0  0  0  0  0  0  0
  139.4046  138.9302  152.4246 H   0  0  0  0  0  0  0  0  0  0  0  0
  139.2412  139.6370  154.0373 H   0  0  0  0  0  0  0  0  0  0  0  0
  148.9292  142.2228  155.5559 H   0  0  0  0  0  0  0  0  0  0  0  0
  1  2  1  0  0  0  0
  1 20  1  0  0  0  0
  1 21  1  0  0  0  0
  1 22  1  0  0  0  0
  2 19  1  0  0  0  0
  2  3  2  0  0  0  0
  3  4  1  0  0  0  0
  4  5  1  0  0  0  0
  4 18  2  0  0  0  0
  5  6  1  0  0  0  0
  5 23  1  0  0  0  0
  5 24  1  0  0  0  0
  6  7  1  0  0  0  0
  6 25  1  0  0  0  0
  6 26  1  0  0  0  0
  7  8  1  0  0  0  0
  7 27  1  0  0  0  0
  8  9  2  0  0  0  0
  8 10  1  0  0  0  0
 10 11  1  0  0  0  0
 10 28  1  0  0  0  0
 11 12  1  0  0  0  0
 11 13  1  0  0  0  0
 11 29  1  0  0  0  0
 12 30  1  0  0  0  0
 12 31  1  0  0  0  0
 12 32  1  0  0  0  0
 13 17  1  0  0  0  0
 13 14  1  0  0  0  0
 13 33  1  0  0  0  0
 14 15  1  0  0  0  0
 14 34  1  0  0  0  0
 14 35  1  0  0  0  0
 15 16  1  0  0  0  0
 15 36  1  0  0  0  0
 15 37  1  0  0  0  0
 16 17  1  0  0  0  0
 16 38  1  0  0  0  0
 16 39  1  0  0  0  0
 18 19  1  0  0  0  0
 18 40  1  0  0  0  0
M  END
> <s_m_source_file>
AV-unprocessed.smi

> <i_m_source_file_index>
1941

> <i_lp_mmshare_version>
43012

> <i_f3d_flags>
0

> <s_epik_input>
W0NIM11jMW5jKFtjSF1zMSlbQ0gyXVtDSDJdW05IXUMoPU8pW05IXVtDQEhdKFtDSDNdKVtDQEBIXTJbQ0gyXVtDSDJdW0NIMl1PMg==

> <s_epik_cmdline>
J2VwaWtfcHl0aG9uJywgJy1waCcsICc3LjAnLCAnLXRuJywgJzgnLCAnLW1hJywgJzIwMCcsICctbWV0YWxfYmluZGluZycsICctaW1hZScsICc8aW5maWxlLm1hZT4nLCAnLW9tYWUnLCAnPG91dGZpbGUubWFlPic=

> <r_epik_Ionization_Penalty>
0.00195486

> <r_epik_Ionization_Penalty_Charging>
0

> <r_epik_Ionization_Penalty_Neutral>
0.00195486

> <r_epik_State_Penalty>
0.00129472

> <r_epik_Charging_Adjusted_Penalty>
0.00129472

> <i_epik_Tot_Q>
0

> <i_epik_Tot_abs_Q>
0

> <r_epik_Metal_State_Penalty>
-0

> <b_epik_Metal_Only>
0

> <s_lp_Force_Field>
OPLS_2005

> <r_lp_Energy>
12.2091

> <b_lp_Chiralities_Consistent>
1

> <s_lp_Variant>
AV-unprocessed.smi:1941-3

> <Gold.Version>
5.8.1

> <Gold.Id.Protein>
6NUR|6NUR_protein|mol2

> <Gold.PLP.Fitness>
43.0299

> <Gold.PLP.PLP>
-34.7482

> <Gold.PLP.part.hbond>
-2.0000

> <Gold.PLP.part.metal>
0.0000

> <Gold.PLP.part.buried>
-4.4113

> <Gold.PLP.part.nonpolar>
-29.1682

> <Gold.PLP.part.repulsive>
0.5900

> <Gold.PLP.ligand.clash>
0.0000

> <Gold.PLP.ligand.torsion>
0.3802

> <Gold.PLP.Chemscore.Hbond>
1.9920

> <Gold.PLP.Chemscore.CHOScore>
1.0000

> <Gold.PLP.Chemscore.Metal>
0.0000

> <Gold.Chemscore.Hbonds>
donor molecule, donor type, donor heavy atom, donor atom, acceptor molecule, acceptor atom, score
      L1  H     7    27       P1 10175  0.99
      L1  H    10    28       P1 10175  0.98
      L1  C    18    40       P1  8028  1.00

> <Gold.PLP.Chemscore.Internal.Correction>
0.0660

> <Gold.Rescore>
     Score         DG    S(hbond)    S(metal)    S(lipo)     H(rot)  DE(clash)    DE(int)     intcor
     15.97     -17.44       1.87        0.00      85.90       1.69       0.10       1.37       ----

> <Gold.Chemscore.Fitness>
15.9668

> <Gold.Chemscore.DG>
-17.4358

> <Gold.Chemscore.ZeroCoef>
-5.4800

> <Gold.Chemscore.Hbond>
1.8674

> <Gold.Chemscore.Metal>
0.0000

> <Gold.Chemscore.Lipo>
85.9041

> <Gold.Chemscore.Internal_Hbond>
0.0000

> <Gold.Chemscore.DEClash>
0.0993

> <Gold.Chemscore.DEInternal>
1.3697

> <Gold.Chemscore.Rot>
1.6923

> <Gold.Chemscore.Internal.Correction>
   9.000000E+99

> <Gold.Chemscore.Hbonds>
donor molecule, donor type, donor heavy atom, donor atom, acceptor molecule, acceptor atom, score
      L1  H     7    27       P1 10175  0.93
      L1  H    10    28       P1 10175  0.93

> <Gold.Chemscore.Hbond.Weighted>
-6.2373

> <Gold.Chemscore.Metal.Weighted>
-0.0000

> <Gold.Chemscore.Lipo.Weighted>
-10.0508

> <Gold.Chemscore.Internal_Hbond.Weighted>
0.0000

> <Gold.Chemscore.DEClash.Weighted>
0.0993

> <Gold.Chemscore.DEInternal.Weighted>
1.3697

> <Gold.Chemscore.Rot.Weighted>
4.3323

> <Gold.Chemscore.Internal.Correction.Weighted>
   9.000000E+99

> <Gold.Protein.RotatedTorsions>
[ 6907 6896 6895 6894 ] final   96.02 input  -60.11 | X-H torsion
[ 7974 7965 7964 7962 ] final -132.45 input  175.53 | X-H torsion
[ 8008 7997 7996 7995 ] final -146.86 input   59.86 | X-H torsion
[ 10167 10162 10161 10158 ] final   69.29 input  -65.29 | X-H torsion
[ 10718 10713 10712 10709 ] final  -99.64 input   66.30 | X-H torsion
[ 10763 10752 10751 10750 ] final  -34.25 input  -60.55 | X-H torsion
[ 11005 11000 10999 10996 ] final  -46.83 input  -57.11 | X-H torsion

> <Gold.Protein.ActiveResidues>
 VAL166  LYS551  ARG553  GLY616  TRP617  ASP618  TYR619  PRO620  LYS621  CYS622 
 ASP623  PHE694  ASN695  SER759  ASP760  ASP761  ALA762  ILE779  LEU786  VAL792 
 PHE793  MET794  SER795  GLU796  ALA797  LYS798  CYS799  TRP800  GLU811  SER814 

> <Gold.Protein.RotatedAtoms>
  152.5439  134.0950  159.8292 H   0  0  0  0  0  0  0  0  0  0  0  0  # atno 6907 bound_to 6896
  151.1035  133.5219  159.2616 H   0  0  0  0  0  0  0  0  0  0  0  0  # atno 6908 bound_to 6896
  151.1965  135.0434  159.8908 H   0  0  0  0  0  0  0  0  0  0  0  0  # atno 6909 bound_to 6896
  144.9285  140.7100  143.4921 H   0  0  0  0  0  0  0  0  0  0  0  0  # atno 7974 bound_to 7965
  155.5662  140.0630  157.2817 H   0  0  0  0  0  0  0  0  0  0  0  0  # atno 8008 bound_to 7997
  154.4375  140.1877  156.0879 H   0  0  0  0  0  0  0  0  0  0  0  0  # atno 8009 bound_to 7997
  156.0410  140.3295  155.7247 H   0  0  0  0  0  0  0  0  0  0  0  0  # atno 8010 bound_to 7997
  140.0694  144.5165  150.7238 H   0  0  0  0  0  0  0  0  0  0  0  0  # atno 10167 bound_to 10162
  156.0140  130.5292  150.6700 H   0  0  0  0  0  0  0  0  0  0  0  0  # atno 10718 bound_to 10713
  153.8437  135.6855  153.4800 H   0  0  0  0  0  0  0  0  0  0  0  0  # atno 10763 bound_to 10752
  153.1438  135.4646  154.9534 H   0  0  0  0  0  0  0  0  0  0  0  0  # atno 10764 bound_to 10752
  154.7833  135.3276  154.7888 H   0  0  0  0  0  0  0  0  0  0  0  0  # atno 10765 bound_to 10752
  141.0603  133.6711  156.3210 H   0  0  0  0  0  0  0  0  0  0  0  0  # atno 11005 bound_to 11000
  145.3181  139.1797  143.4603 LP  0  0  0  0  0  0  0  0  0  0  0  0  # atno 17320 bound_to 7965
  146.3236  140.3194  142.8632 LP  0  0  0  0  0  0  0  0  0  0  0  0  # atno 17321 bound_to 7965
  140.7133  143.2523  151.4514 LP  0  0  0  0  0  0  0  0  0  0  0  0  # atno 17342 bound_to 10162
  139.5845  144.1635  152.2011 LP  0  0  0  0  0  0  0  0  0  0  0  0  # atno 17343 bound_to 10162
  157.4425  131.0863  151.0929 LP  0  0  0  0  0  0  0  0  0  0  0  0  # atno 17370 bound_to 10713
  157.1469  130.6167  149.5571 LP  0  0  0  0  0  0  0  0  0  0  0  0  # atno 17371 bound_to 10713
  140.5882  134.5677  157.5494 LP  0  0  0  0  0  0  0  0  0  0  0  0  # atno 17394 bound_to 11000
  139.9427  134.7758  156.0639 LP  0  0  0  0  0  0  0  0  0  0  0  0  # atno 17395 bound_to 11000

$$$$
