AV-unprocessed.smi:39|AV-procd|sdf|365|dock6
  -GOLD-   2262016203D 1   1.00000     0.00000
 Structure written by MMmdl.
 31 32  0  0  0  0  0  0  0  0  4 V2000
  150.8458  142.8643  158.7274 C   0  0  0  0  0  0  0  0  0  0  0  0
  151.1546  141.7901  157.6990 C   0  0  0  0  0  0  0  0  0  0  0  0
  150.4607  141.6756  156.5447 C   0  0  0  0  0  0  0  0  0  0  0  0
  150.7436  140.6918  155.6113 N   0  0  0  0  0  0  0  0  0  0  0  0
  149.9581  140.5621  154.3205 C   0  0  1  0  0  0  0  0  0  0  0  0
  149.1331  139.2641  154.3180 C   0  0  0  0  0  0  0  0  0  0  0  0
  147.7417  139.7550  153.9518 C   0  0  1  0  0  0  0  0  0  0  0  0
  146.6758  138.9129  154.4996 N   0  0  0  0  0  0  0  0  0  0  0  0
  146.6176  138.8327  155.7334 N   0  3  0  0  0  0  0  0  0  0  0  0
  146.4468  138.7180  156.8526 N   0  5  0  0  0  0  0  0  0  0  0  0
  147.7425  141.1613  154.5511 C   0  0  2  0  0  0  0  0  0  0  0  0
  146.6846  142.0931  153.9403 C   0  0  0  0  0  0  0  0  0  0  0  0
  145.4141  141.8066  154.4847 O   0  0  0  0  0  0  0  0  0  0  0  0
  149.0463  141.6169  154.2054 O   0  0  0  0  0  0  0  0  0  0  0  0
  151.8051  139.7813  155.8559 C   0  0  0  0  0  0  0  0  0  0  0  0
  152.0416  138.9273  155.0006 O   0  0  0  0  0  0  0  0  0  0  0  0
  152.5096  139.8883  157.0180 N   0  5  0  0  0  0  0  0  0  0  0  0
  152.2416  140.8389  157.9584 C   0  0  0  0  0  0  0  0  0  0  0  0
  152.8812  140.9196  159.0068 O   0  0  0  0  0  0  0  0  0  0  0  0
  150.6942  140.6294  153.5176 H   0  0  0  0  0  0  0  0  0  0  0  0
  147.6638  139.8336  152.8651 H   0  0  0  0  0  0  0  0  0  0  0  0
  147.6362  141.1008  155.6363 H   0  0  0  0  0  0  0  0  0  0  0  0
  150.0298  143.5075  158.3968 H   0  0  0  0  0  0  0  0  0  0  0  0
  151.7215  143.4909  158.8987 H   0  0  0  0  0  0  0  0  0  0  0  0
  150.5556  142.4106  159.6756 H   0  0  0  0  0  0  0  0  0  0  0  0
  149.6653  142.3807  156.3596 H   0  0  0  0  0  0  0  0  0  0  0  0
  149.5377  138.5469  153.6033 H   0  0  0  0  0  0  0  0  0  0  0  0
  149.1413  138.8135  155.3123 H   0  0  0  0  0  0  0  0  0  0  0  0
  146.9398  143.1413  154.0987 H   0  0  0  0  0  0  0  0  0  0  0  0
  146.6209  141.9345  152.8634 H   0  0  0  0  0  0  0  0  0  0  0  0
  144.9799  141.1838  153.9224 H   0  0  0  0  0  0  0  0  0  0  0  0
  1  2  1  0  0  0  0
  1 23  1  0  0  0  0
  1 24  1  0  0  0  0
  1 25  1  0  0  0  0
  2 18  1  0  0  0  0
  2  3  2  0  0  0  0
  3  4  1  0  0  0  0
  3 26  1  0  0  0  0
  4  5  1  0  0  0  0
  4 15  1  0  0  0  0
  5 20  1  0  0  0  0
  5 14  1  0  0  0  0
  5  6  1  0  0  0  0
  6  7  1  0  0  0  0
  6 27  1  0  0  0  0
  6 28  1  0  0  0  0
  7 21  1  0  0  0  0
  7  8  1  0  0  0  0
  7 11  1  0  0  0  0
  8  9  2  0  0  0  0
  9 10  2  0  0  0  0
 11 22  1  0  0  0  0
 11 12  1  0  0  0  0
 11 14  1  0  0  0  0
 12 13  1  0  0  0  0
 12 29  1  0  0  0  0
 12 30  1  0  0  0  0
 13 31  1  0  0  0  0
 15 16  2  0  0  0  0
 15 17  1  0  0  0  0
 17 18  1  0  0  0  0
 18 19  2  0  0  0  0
M  CHG  1   9   1
M  CHG  1  10  -1
M  CHG  1  17  -1
M  END
> <s_m_source_file>
AV-unprocessed.smi

> <i_m_source_file_index>
39

> <i_lp_mmshare_version>
43012

> <i_f3d_flags>
0

> <s_epik_input>
Tz1jMVtuSF1jKD1PKW4oW2NIXWMxW0NIM10pW0NASF0yW0NIMl1bQ0BIXShOPVtOK109W04tXSlbQ0BIXShPMilbQ0gyXVtPSF0=

> <s_epik_cmdline>
J2VwaWtfcHl0aG9uJywgJy1waCcsICc3LjAnLCAnLXRuJywgJzgnLCAnLW1hJywgJzIwMCcsICctbWV0YWxfYmluZGluZycsICctaW1hZScsICc8aW5maWxlLm1hZT4nLCAnLW9tYWUnLCAnPG91dGZpbGUubWFlPic=

> <r_lp_tautomer_probability>
0.999537

> <r_epik_Ionization_Penalty>
3.6393

> <r_epik_Ionization_Penalty_Charging>
9.76484e-08

> <r_epik_Ionization_Penalty_Neutral>
3.6393

> <r_epik_State_Penalty>
3.63887

> <r_epik_Charging_Adjusted_Penalty>
3.63887

> <i_epik_Tot_Q>
-1

> <i_epik_Tot_abs_Q>
3

> <r_epik_Metal_State_Penalty>
0.225911

> <b_epik_Metal_Only>
1

> <s_epik_Chemistry_Notes>
This compound contains an acetal/aminal-like group ( X-CH(R)-Y where X, Y are N, S, or O) that may be acid/base labile, releasing an aldehyde.

> <s_lp_Force_Field>
OPLS_2005

> <r_lp_Energy>
32.9978

> <b_lp_Chiralities_Consistent>
1

> <s_lp_Variant>
AV-unprocessed.smi:39-15

> <Gold.Version>
5.8.1

> <Gold.Id.Protein>
6NUR|6NUR_protein|mol2

> <Gold.PLP.Fitness>
41.5068

> <Gold.PLP.PLP>
-28.3053

> <Gold.PLP.part.hbond>
-3.5311

> <Gold.PLP.part.metal>
0.0000

> <Gold.PLP.part.buried>
-1.4780

> <Gold.PLP.part.nonpolar>
-23.5041

> <Gold.PLP.part.repulsive>
0.3291

> <Gold.PLP.ligand.clash>
0.0000

> <Gold.PLP.ligand.torsion>
0.2254

> <Gold.PLP.Chemscore.Hbond>
3.5388

> <Gold.PLP.Chemscore.CHOScore>
1.0000

> <Gold.PLP.Chemscore.Metal>
0.0000

> <Gold.Chemscore.Hbonds>
donor molecule, donor type, donor heavy atom, donor atom, acceptor molecule, acceptor atom, score
      L1  H    13    31       P1 10175  0.94
      P1  H  7997  8009       L1    17  2.00
      P1  H  8011  8017       L1    14  0.33
      L1  C     3    26       P1  8028  0.92

> <Gold.PLP.Chemscore.Internal.Correction>
0.0359

> <Gold.Rescore>
     Score         DG    S(hbond)    S(metal)    S(lipo)     H(rot)  DE(clash)    DE(int)     intcor
      8.15     -10.44       1.98        0.00      45.32       2.72       1.67       0.62       ----

> <Gold.Chemscore.Fitness>
8.1535

> <Gold.Chemscore.DG>
-10.4392

> <Gold.Chemscore.ZeroCoef>
-5.4800

> <Gold.Chemscore.Hbond>
1.9784

> <Gold.Chemscore.Metal>
0.0000

> <Gold.Chemscore.Lipo>
45.3218

> <Gold.Chemscore.Internal_Hbond>
0.0000

> <Gold.Chemscore.DEClash>
1.6658

> <Gold.Chemscore.DEInternal>
0.6200

> <Gold.Chemscore.Rot>
2.7153

> <Gold.Chemscore.Internal.Correction>
   9.000000E+99

> <Gold.Chemscore.Hbonds>
donor molecule, donor type, donor heavy atom, donor atom, acceptor molecule, acceptor atom, score
      L1  H    13    31       P1 10175  0.58
      P1  H  7997  8009       L1    17  0.36
      P1  H  8011  8017       L1    14  0.06

> <Gold.Chemscore.Hbond.Weighted>
-6.6078

> <Gold.Chemscore.Metal.Weighted>
-0.0000

> <Gold.Chemscore.Lipo.Weighted>
-5.3026

> <Gold.Chemscore.Internal_Hbond.Weighted>
0.0000

> <Gold.Chemscore.DEClash.Weighted>
1.6658

> <Gold.Chemscore.DEInternal.Weighted>
0.6200

> <Gold.Chemscore.Rot.Weighted>
6.9512

> <Gold.Chemscore.Internal.Correction.Weighted>
   9.000000E+99

> <Gold.Protein.RotatedTorsions>
[ 6907 6896 6895 6894 ] final -172.82 input  -60.11 | X-H torsion
[ 7974 7965 7964 7962 ] final  163.49 input  175.53 | X-H torsion
[ 8008 7997 7996 7995 ] final -175.34 input   59.86 | X-H torsion
[ 10167 10162 10161 10158 ] final  159.87 input  -65.29 | X-H torsion
[ 10718 10713 10712 10709 ] final  -84.13 input   66.30 | X-H torsion
[ 10763 10752 10751 10750 ] final   62.99 input  -60.55 | X-H torsion
[ 11005 11000 10999 10996 ] final -124.77 input  -57.11 | X-H torsion

> <Gold.Protein.ActiveResidues>
 VAL166  LYS551  ARG553  GLY616  TRP617  ASP618  TYR619  PRO620  LYS621  CYS622 
 ASP623  PHE694  ASN695  SER759  ASP760  ASP761  ALA762  ILE779  LEU786  VAL792 
 PHE793  MET794  SER795  GLU796  ALA797  LYS798  CYS799  TRP800  GLU811  SER814 

> <Gold.Protein.RotatedAtoms>
  151.5461  133.3425  159.2944 H   0  0  0  0  0  0  0  0  0  0  0  0  # atno 6907 bound_to 6896
  150.8506  134.7832  159.7017 H   0  0  0  0  0  0  0  0  0  0  0  0  # atno 6908 bound_to 6896
  152.4553  134.5312  159.9863 H   0  0  0  0  0  0  0  0  0  0  0  0  # atno 6909 bound_to 6896
  144.7587  139.8190  143.6340 H   0  0  0  0  0  0  0  0  0  0  0  0  # atno 7974 bound_to 7965
  155.9814  140.1182  157.0723 H   0  0  0  0  0  0  0  0  0  0  0  0  # atno 8008 bound_to 7997
  154.4184  140.1144  156.5508 H   0  0  0  0  0  0  0  0  0  0  0  0  # atno 8009 bound_to 7997
  155.6466  140.3473  155.4735 H   0  0  0  0  0  0  0  0  0  0  0  0  # atno 8010 bound_to 7997
  139.4835  144.4689  151.8604 H   0  0  0  0  0  0  0  0  0  0  0  0  # atno 10167 bound_to 10162
  156.0010  130.4688  150.4363 H   0  0  0  0  0  0  0  0  0  0  0  0  # atno 10718 bound_to 10713
  153.0002  135.5445  154.6281 H   0  0  0  0  0  0  0  0  0  0  0  0  # atno 10763 bound_to 10752
  154.5565  135.2830  155.0962 H   0  0  0  0  0  0  0  0  0  0  0  0  # atno 10764 bound_to 10752
  154.2181  135.6455  153.5189 H   0  0  0  0  0  0  0  0  0  0  0  0  # atno 10765 bound_to 10752
  140.9815  134.0666  157.3759 H   0  0  0  0  0  0  0  0  0  0  0  0  # atno 11005 bound_to 11000
  146.1627  139.4747  142.9978 LP  0  0  0  0  0  0  0  0  0  0  0  0  # atno 17320 bound_to 7965
  145.6691  141.0221  143.1667 LP  0  0  0  0  0  0  0  0  0  0  0  0  # atno 17321 bound_to 7965
  140.4156  144.2311  150.5888 LP  0  0  0  0  0  0  0  0  0  0  0  0  # atno 17342 bound_to 10162
  140.4924  143.2343  151.8799 LP  0  0  0  0  0  0  0  0  0  0  0  0  # atno 17343 bound_to 10162
  157.2407  131.0525  151.2438 LP  0  0  0  0  0  0  0  0  0  0  0  0  # atno 17370 bound_to 10713
  157.3623  130.7137  149.6509 LP  0  0  0  0  0  0  0  0  0  0  0  0  # atno 17371 bound_to 10713
  139.8952  135.0140  156.6991 LP  0  0  0  0  0  0  0  0  0  0  0  0  # atno 17394 bound_to 11000
  140.7179  133.9166  155.8127 LP  0  0  0  0  0  0  0  0  0  0  0  0  # atno 17395 bound_to 11000

$$$$
