AV-unprocessed.smi:17|AV-procd|sdf|99|dock6
  -GOLD-   2262015243D 1   1.00000     0.00000
 Structure written by MMmdl.
 57 59  0  0  0  0  0  0  0  0  1 V2000
  145.8789  142.4355  154.4793 C   0  0  0  0  0  0  0  0  0  0  0  0
  146.1649  141.2759  155.4441 C   0  0  0  0  0  0  0  0  0  0  0  0
  147.1048  140.3019  154.8820 N   0  0  0  0  0  0  0  0  0  0  0  0
  146.6669  139.4572  153.9087 C   0  0  0  0  0  0  0  0  0  0  0  0
  147.0939  139.6703  152.6359 N   0  0  0  0  0  0  0  0  0  0  0  0
  146.7101  138.8620  151.6448 C   0  0  0  0  0  0  0  0  0  0  0  0
  145.9075  137.7992  151.7004 N   0  0  0  0  0  0  0  0  0  0  0  0
  145.4565  137.5873  152.9691 C   0  0  0  0  0  0  0  0  0  0  0  0
  145.7778  138.3614  154.1215 C   0  0  0  0  0  0  0  0  0  0  0  0
  145.1040  137.8504  155.2265 N   0  0  0  0  0  0  0  0  0  0  0  0
  144.4455  136.8253  154.7607 C   0  0  0  0  0  0  0  0  0  0  0  0
  144.6067  136.5907  153.4156 N   0  0  0  0  0  0  0  0  0  0  0  0
  143.9958  135.5223  152.6444 C   0  0  0  0  0  0  0  0  0  0  0  0
  145.0298  134.6307  151.9125 C   0  0  2  0  0  0  0  0  0  0  0  0
  145.4500  135.2047  150.5368 C   0  0  0  0  0  0  0  0  0  0  0  0
  144.3363  135.6939  149.8183 O   0  0  0  0  0  0  0  0  0  0  0  0
  144.5459  133.1623  151.8109 C   0  0  2  0  0  0  0  0  0  0  0  0
  145.6470  132.1408  151.5870 C   0  0  0  0  0  0  0  0  0  0  0  0
  144.8633  130.9368  151.0794 C   0  0  0  0  0  0  0  0  0  0  0  0
  143.7898  131.4790  150.3197 O   0  0  0  0  0  0  0  0  0  0  0  0
  143.6387  132.8657  150.6112 C   0  0  0  0  0  0  0  0  0  0  0  0
  148.4776  140.1905  155.3880 C   0  0  2  0  0  0  0  0  0  0  0  0
  149.2455  141.5104  155.2071 C   0  0  0  0  0  0  0  0  0  0  0  0
  149.2448  138.9981  154.7770 C   0  0  0  0  0  0  0  0  0  0  0  0
  151.0460  138.9882  155.2082 S   0  0  0  0  0  0  0  0  0  0  0  0
  151.0211  139.0006  157.0486 C   0  0  0  0  0  0  0  0  0  0  0  0
  151.6049  137.6959  154.7837 O   0  0  0  0  0  0  0  0  0  0  0  0
  151.6664  140.2400  154.7472 O   0  0  0  0  0  0  0  0  0  0  0  0
  145.1546  143.1259  154.9112 H   0  0  0  0  0  0  0  0  0  0  0  0
  145.4706  142.0739  153.5354 H   0  0  0  0  0  0  0  0  0  0  0  0
  146.7833  143.0029  154.2578 H   0  0  0  0  0  0  0  0  0  0  0  0
  146.5393  141.6618  156.3922 H   0  0  0  0  0  0  0  0  0  0  0  0
  145.2243  140.7796  155.6802 H   0  0  0  0  0  0  0  0  0  0  0  0
  147.1035  139.0997  150.6675 H   0  0  0  0  0  0  0  0  0  0  0  0
  143.8225  136.2057  155.3893 H   0  0  0  0  0  0  0  0  0  0  0  0
  143.3928  134.9276  153.3307 H   0  0  0  0  0  0  0  0  0  0  0  0
  143.3008  135.9606  151.9274 H   0  0  0  0  0  0  0  0  0  0  0  0
  145.9306  134.6281  152.5278 H   0  0  0  0  0  0  0  0  0  0  0  0
  146.1739  136.0114  150.6519 H   0  0  0  0  0  0  0  0  0  0  0  0
  145.9452  134.4436  149.9343 H   0  0  0  0  0  0  0  0  0  0  0  0
  144.1586  136.5772  150.1040 H   0  0  0  0  0  0  0  0  0  0  0  0
  144.0128  132.8899  152.7235 H   0  0  0  0  0  0  0  0  0  0  0  0
  146.3418  132.4865  150.8201 H   0  0  0  0  0  0  0  0  0  0  0  0
  146.2163  131.9146  152.4889 H   0  0  0  0  0  0  0  0  0  0  0  0
  145.4753  130.2591  150.4840 H   0  0  0  0  0  0  0  0  0  0  0  0
  144.4484  130.3736  151.9164 H   0  0  0  0  0  0  0  0  0  0  0  0
  142.5951  133.1114  150.8104 H   0  0  0  0  0  0  0  0  0  0  0  0
  143.9554  133.4320  149.7343 H   0  0  0  0  0  0  0  0  0  0  0  0
  148.4530  139.9957  156.4579 H   0  0  0  0  0  0  0  0  0  0  0  0
  150.2299  141.4563  155.6719 H   0  0  0  0  0  0  0  0  0  0  0  0
  148.7117  142.3420  155.6679 H   0  0  0  0  0  0  0  0  0  0  0  0
  149.3915  141.7502  154.1537 H   0  0  0  0  0  0  0  0  0  0  0  0
  148.8107  138.0345  155.0403 H   0  0  0  0  0  0  0  0  0  0  0  0
  149.1963  139.0711  153.6902 H   0  0  0  0  0  0  0  0  0  0  0  0
  152.0394  138.8930  157.4212 H   0  0  0  0  0  0  0  0  0  0  0  0
  150.4159  138.1713  157.4137 H   0  0  0  0  0  0  0  0  0  0  0  0
  150.6100  139.9394  157.4122 H   0  0  0  0  0  0  0  0  0  0  0  0
  1  2  1  0  0  0  0
  1 29  1  0  0  0  0
  1 30  1  0  0  0  0
  1 31  1  0  0  0  0
  2  3  1  0  0  0  0
  2 32  1  0  0  0  0
  2 33  1  0  0  0  0
  3  4  1  0  0  0  0
  3 22  1  0  0  0  0
  4  9  1  0  0  0  0
  4  5  2  0  0  0  0
  5  6  1  0  0  0  0
  6  7  2  0  0  0  0
  6 34  1  0  0  0  0
  7  8  1  0  0  0  0
  8 12  1  0  0  0  0
  8  9  2  0  0  0  0
  9 10  1  0  0  0  0
 10 11  2  0  0  0  0
 11 12  1  0  0  0  0
 11 35  1  0  0  0  0
 12 13  1  0  0  0  0
 13 14  1  0  0  0  0
 13 36  1  0  0  0  0
 13 37  1  0  0  0  0
 14 15  1  0  0  0  0
 14 17  1  0  0  0  0
 14 38  1  0  0  0  0
 15 16  1  0  0  0  0
 15 39  1  0  0  0  0
 15 40  1  0  0  0  0
 16 41  1  0  0  0  0
 17 21  1  0  0  0  0
 17 18  1  0  0  0  0
 17 42  1  0  0  0  0
 18 19  1  0  0  0  0
 18 43  1  0  0  0  0
 18 44  1  0  0  0  0
 19 20  1  0  0  0  0
 19 45  1  0  0  0  0
 19 46  1  0  0  0  0
 20 21  1  0  0  0  0
 21 47  1  0  0  0  0
 21 48  1  0  0  0  0
 22 23  1  0  0  0  0
 22 24  1  0  0  0  0
 22 49  1  0  0  0  0
 23 50  1  0  0  0  0
 23 51  1  0  0  0  0
 23 52  1  0  0  0  0
 24 25  1  0  0  0  0
 24 53  1  0  0  0  0
 24 54  1  0  0  0  0
 25 26  1  0  0  0  0
 25 27  2  0  0  0  0
 25 28  2  0  0  0  0
 26 55  1  0  0  0  0
 26 56  1  0  0  0  0
 26 57  1  0  0  0  0
M  END
> <s_m_source_file>
AV-unprocessed.smi

> <i_m_source_file_index>
17

> <i_lp_mmshare_version>
43012

> <i_f3d_flags>
0

> <s_epik_input>
W0NIM11TKD1PKSg9TylbQ0gyXVtDQEBIXShbQ0gzXSlOKFtDSDJdW0NIM10pYyhuW2NIXW4xKWMoYzEyKW5bY0hdbjJbQ0gyXVtDQEhdKFtDSDJdW09IXSlbQ0BASF0zW0NIMl1bQ0gyXU9bQ0gyXTM=

> <s_epik_cmdline>
J2VwaWtfcHl0aG9uJywgJy1waCcsICc3LjAnLCAnLXRuJywgJzgnLCAnLW1hJywgJzIwMCcsICctbWV0YWxfYmluZGluZycsICctaW1hZScsICc8aW5maWxlLm1hZT4nLCAnLW9tYWUnLCAnPG91dGZpbGUubWFlPic=

> <r_lp_tautomer_probability>
1

> <r_epik_Ionization_Penalty>
0.00119955

> <r_epik_Ionization_Penalty_Charging>
0

> <r_epik_Ionization_Penalty_Neutral>
0.00119955

> <r_epik_State_Penalty>
0.000665399

> <r_epik_Charging_Adjusted_Penalty>
0.000665399

> <i_epik_Tot_Q>
0

> <i_epik_Tot_abs_Q>
0

> <r_epik_Metal_State_Penalty>
-0

> <b_epik_Metal_Only>
0

> <s_lp_Force_Field>
OPLS_2005

> <r_lp_Energy>
33.2615

> <b_lp_Chiralities_Consistent>
1

> <s_lp_Variant>
AV-unprocessed.smi:17-1

> <Gold.Version>
5.8.1

> <Gold.Id.Protein>
6NUR|6NUR_protein|mol2

> <Gold.PLP.Fitness>
42.1344

> <Gold.PLP.PLP>
-37.4189

> <Gold.PLP.part.hbond>
-4.0000

> <Gold.PLP.part.metal>
0.0000

> <Gold.PLP.part.buried>
-7.0505

> <Gold.PLP.part.nonpolar>
-31.1556

> <Gold.PLP.part.repulsive>
3.6972

> <Gold.PLP.ligand.clash>
0.0000

> <Gold.PLP.ligand.torsion>
2.6187

> <Gold.PLP.Chemscore.Hbond>
2.5536

> <Gold.PLP.Chemscore.CHOScore>
0.5685

> <Gold.PLP.Chemscore.Metal>
0.0000

> <Gold.Chemscore.Hbonds>
donor molecule, donor type, donor heavy atom, donor atom, acceptor molecule, acceptor atom, score
      L1  H    16    41       P1 10171  1.00
      P1  H  7989  7998       L1    28  0.64
      P1  H 10785 10796       L1    20  0.55
      L1  C     6    34       P1  7957  0.36

> <Gold.PLP.Chemscore.Internal.Correction>
0.5867

> <Gold.Rescore>
     Score         DG    S(hbond)    S(metal)    S(lipo)     H(rot)  DE(clash)    DE(int)     intcor
      6.08     -12.59       2.36        0.00      70.22       3.51       1.30       5.22       ----

> <Gold.Chemscore.Fitness>
6.0779

> <Gold.Chemscore.DG>
-12.5904

> <Gold.Chemscore.ZeroCoef>
-5.4800

> <Gold.Chemscore.Hbond>
2.3562

> <Gold.Chemscore.Metal>
0.0000

> <Gold.Chemscore.Lipo>
70.2198

> <Gold.Chemscore.Internal_Hbond>
0.0000

> <Gold.Chemscore.DEClash>
1.2964

> <Gold.Chemscore.DEInternal>
5.2161

> <Gold.Chemscore.Rot>
3.5059

> <Gold.Chemscore.Internal.Correction>
   9.000000E+99

> <Gold.Chemscore.Hbonds>
donor molecule, donor type, donor heavy atom, donor atom, acceptor molecule, acceptor atom, score
      L1  H    16    41       P1 10171  0.91
      P1  H  7989  7998       L1    28  0.61
      P1  H 10785 10796       L1    20  0.41

> <Gold.Chemscore.Hbond.Weighted>
-7.8697

> <Gold.Chemscore.Metal.Weighted>
-0.0000

> <Gold.Chemscore.Lipo.Weighted>
-8.2157

> <Gold.Chemscore.Internal_Hbond.Weighted>
0.0000

> <Gold.Chemscore.DEClash.Weighted>
1.2964

> <Gold.Chemscore.DEInternal.Weighted>
5.2161

> <Gold.Chemscore.Rot.Weighted>
8.9750

> <Gold.Chemscore.Internal.Correction.Weighted>
   9.000000E+99

> <Gold.Protein.RotatedTorsions>
[ 6907 6896 6895 6894 ] final -165.05 input  -60.11 | X-H torsion
[ 7974 7965 7964 7962 ] final   -9.35 input  175.53 | X-H torsion
[ 8008 7997 7996 7995 ] final   50.17 input   59.86 | X-H torsion
[ 10167 10162 10161 10158 ] final   96.88 input  -65.29 | X-H torsion
[ 10718 10713 10712 10709 ] final  -20.01 input   66.30 | X-H torsion
[ 10763 10752 10751 10750 ] final  -42.11 input  -60.55 | X-H torsion
[ 11005 11000 10999 10996 ] final  143.15 input  -57.11 | X-H torsion

> <Gold.Protein.ActiveResidues>
 VAL166  LYS551  ARG553  GLY616  TRP617  ASP618  TYR619  PRO620  LYS621  CYS622 
 ASP623  PHE694  ASN695  SER759  ASP760  ASP761  ALA762  ILE779  LEU786  VAL792 
 PHE793  MET794  SER795  GLU796  ALA797  LYS798  CYS799  TRP800  GLU811  SER814 

> <Gold.Protein.RotatedAtoms>
  151.4216  133.3696  159.2756 H   0  0  0  0  0  0  0  0  0  0  0  0  # atno 6907 bound_to 6896
  150.9290  134.8707  159.7549 H   0  0  0  0  0  0  0  0  0  0  0  0  # atno 6908 bound_to 6896
  152.5019  134.4159  159.9516 H   0  0  0  0  0  0  0  0  0  0  0  0  # atno 6909 bound_to 6896
  146.2254  140.2603  142.8351 H   0  0  0  0  0  0  0  0  0  0  0  0  # atno 7974 bound_to 7965
  155.4143  140.3443  155.4266 H   0  0  0  0  0  0  0  0  0  0  0  0  # atno 8008 bound_to 7997
  156.1430  140.1548  156.8922 H   0  0  0  0  0  0  0  0  0  0  0  0  # atno 8009 bound_to 7997
  154.4987  140.0820  156.7732 H   0  0  0  0  0  0  0  0  0  0  0  0  # atno 8010 bound_to 7997
  139.7852  144.6873  150.9967 H   0  0  0  0  0  0  0  0  0  0  0  0  # atno 10167 bound_to 10162
  156.5377  130.4670  149.6514 H   0  0  0  0  0  0  0  0  0  0  0  0  # atno 10718 bound_to 10713
  153.9736  135.6725  153.4748 H   0  0  0  0  0  0  0  0  0  0  0  0  # atno 10763 bound_to 10752
  153.0781  135.4938  154.8443 H   0  0  0  0  0  0  0  0  0  0  0  0  # atno 10764 bound_to 10752
  154.7205  135.3116  154.9016 H   0  0  0  0  0  0  0  0  0  0  0  0  # atno 10765 bound_to 10752
  140.0531  134.9245  157.1053 H   0  0  0  0  0  0  0  0  0  0  0  0  # atno 11005 bound_to 11000
  144.9344  140.8011  143.5669 LP  0  0  0  0  0  0  0  0  0  0  0  0  # atno 17320 bound_to 7965
  145.2550  139.2016  143.4922 LP  0  0  0  0  0  0  0  0  0  0  0  0  # atno 17321 bound_to 7965
  140.7819  143.4439  151.0511 LP  0  0  0  0  0  0  0  0  0  0  0  0  # atno 17342 bound_to 10162
  139.8118  143.7940  152.3172 LP  0  0  0  0  0  0  0  0  0  0  0  0  # atno 17343 bound_to 10162
  156.3000  130.7172  151.2041 LP  0  0  0  0  0  0  0  0  0  0  0  0  # atno 17370 bound_to 10713
  157.7411  131.0509  150.5122 LP  0  0  0  0  0  0  0  0  0  0  0  0  # atno 17371 bound_to 10713
  140.3886  134.2209  155.7167 LP  0  0  0  0  0  0  0  0  0  0  0  0  # atno 17394 bound_to 11000
  141.1940  133.8139  157.0777 LP  0  0  0  0  0  0  0  0  0  0  0  0  # atno 17395 bound_to 11000

$$$$
