AV-unprocessed.smi:1005|AV-procd|sdf|4380|dock9
  -GOLD-   22720 2303D 1   1.00000     0.00000
 Structure written by MMmdl.
 58 60  0  0  0  0  0  0  0  0  4 V2000
  152.4921  144.3622  161.4253 C   0  0  0  0  0  0  0  0  0  0  0  0
  152.2774  143.4294  160.2454 C   0  0  0  0  0  0  0  0  0  0  0  0
  151.4284  143.8508  159.1974 C   0  0  0  0  0  0  0  0  0  0  0  0
  151.2494  142.9740  158.1341 C   0  0  0  0  0  0  0  0  0  0  0  0
  150.4875  143.0931  156.9700 N   0  3  0  0  0  0  0  0  0  0  0  0
  150.6225  141.9644  156.2206 C   0  0  0  0  0  0  0  0  0  0  0  0
  151.4665  141.1283  156.8847 N   0  0  0  0  0  0  0  0  0  0  0  0
  151.9231  139.7797  156.5188 C   0  0  0  0  0  0  0  0  0  0  0  0
  150.8958  138.9966  155.6766 C   0  0  2  0  0  0  0  0  0  0  0  0
  150.9081  139.5594  154.3806 O   0  0  0  0  0  0  0  0  0  0  0  0
  149.4590  139.0615  156.2397 C   0  0  0  0  0  0  0  0  0  0  0  0
  148.4296  138.6564  155.2444 N   0  3  2  0  0  0  0  0  0  0  0  0
  147.0389  138.9172  155.6881 C   0  0  0  0  0  0  0  0  0  0  0  0
  146.5645  137.8459  156.6845 C   0  0  0  0  0  0  0  0  0  0  0  0
  146.6761  136.5628  156.0809 O   0  0  0  0  0  0  0  0  0  0  0  0
  148.0194  136.2266  155.7484 C   0  0  1  0  0  0  0  0  0  0  0  0
  148.0160  134.8062  155.1512 C   0  0  0  0  0  0  0  0  0  0  0  0
  149.2487  134.4975  154.3806 N   0  3  0  0  0  0  0  0  0  0  0  0
  149.2527  133.1384  153.7911 C   0  0  0  0  0  0  0  0  0  0  0  0
  150.4746  134.7469  155.1713 C   0  0  0  0  0  0  0  0  0  0  0  0
  148.5618  137.2653  154.7386 C   0  0  0  0  0  0  0  0  0  0  0  0
  151.8783  141.7142  158.0885 C   0  0  0  0  0  0  0  0  0  0  0  0
  152.7173  141.2836  159.1143 C   0  0  0  0  0  0  0  0  0  0  0  0
  152.9144  142.1623  160.2034 C   0  0  0  0  0  0  0  0  0  0  0  0
  153.8252  141.7193  161.3358 C   0  0  0  0  0  0  0  0  0  0  0  0
  151.9447  145.2971  161.3012 H   0  0  0  0  0  0  0  0  0  0  0  0
  153.5487  144.6078  161.5338 H   0  0  0  0  0  0  0  0  0  0  0  0
  152.1481  143.8960  162.3490 H   0  0  0  0  0  0  0  0  0  0  0  0
  150.9366  144.8124  159.2252 H   0  0  0  0  0  0  0  0  0  0  0  0
  150.1400  141.7652  155.2741 H   0  0  0  0  0  0  0  0  0  0  0  0
  152.8851  139.8467  156.0103 H   0  0  0  0  0  0  0  0  0  0  0  0
  152.1140  139.2507  157.4539 H   0  0  0  0  0  0  0  0  0  0  0  0
  151.2327  137.9632  155.5979 H   0  0  0  0  0  0  0  0  0  0  0  0
  150.2728  139.1138  153.8416 H   0  0  0  0  0  0  0  0  0  0  0  0
  149.3651  138.4408  157.1292 H   0  0  0  0  0  0  0  0  0  0  0  0
  149.2699  140.0849  156.5678 H   0  0  0  0  0  0  0  0  0  0  0  0
  146.9495  139.9160  156.1169 H   0  0  0  0  0  0  0  0  0  0  0  0
  146.3907  138.9034  154.8108 H   0  0  0  0  0  0  0  0  0  0  0  0
  147.1381  137.8824  157.6119 H   0  0  0  0  0  0  0  0  0  0  0  0
  145.5215  138.0191  156.9502 H   0  0  0  0  0  0  0  0  0  0  0  0
  148.6319  136.2443  156.6491 H   0  0  0  0  0  0  0  0  0  0  0  0
  147.9151  134.0922  155.9704 H   0  0  0  0  0  0  0  0  0  0  0  0
  147.1446  134.6609  154.5110 H   0  0  0  0  0  0  0  0  0  0  0  0
  149.1854  132.3753  154.5675 H   0  0  0  0  0  0  0  0  0  0  0  0
  150.1717  132.9678  153.2292 H   0  0  0  0  0  0  0  0  0  0  0  0
  148.4241  132.9964  153.0985 H   0  0  0  0  0  0  0  0  0  0  0  0
  150.5197  134.0904  156.0412 H   0  0  0  0  0  0  0  0  0  0  0  0
  150.5094  135.7799  155.5192 H   0  0  0  0  0  0  0  0  0  0  0  0
  151.3660  134.5751  154.5667 H   0  0  0  0  0  0  0  0  0  0  0  0
  147.9940  137.1954  153.8095 H   0  0  0  0  0  0  0  0  0  0  0  0
  149.5956  137.0425  154.4773 H   0  0  0  0  0  0  0  0  0  0  0  0
  153.2013  140.3188  159.0890 H   0  0  0  0  0  0  0  0  0  0  0  0
  154.2434  140.7296  161.1491 H   0  0  0  0  0  0  0  0  0  0  0  0
  153.2738  141.6758  162.2754 H   0  0  0  0  0  0  0  0  0  0  0  0
  154.6568  142.4146  161.4538 H   0  0  0  0  0  0  0  0  0  0  0  0
  149.2808  135.1525  153.6117 H   0  0  0  0  0  0  0  0  0  0  0  0
  148.5789  139.2681  154.4542 H   0  0  0  0  0  0  0  0  0  0  0  0
  149.9059  143.8801  156.7104 H   0  0  0  0  0  0  0  0  0  0  0  0
  1  2  1  0  0  0  0
  1 26  1  0  0  0  0
  1 27  1  0  0  0  0
  1 28  1  0  0  0  0
  2 24  1  0  0  0  0
  2  3  2  0  0  0  0
  3  4  1  0  0  0  0
  3 29  1  0  0  0  0
  4 22  2  0  0  0  0
  4  5  1  0  0  0  0
  5  6  2  0  0  0  0
  5 58  1  0  0  0  0
  6  7  1  0  0  0  0
  6 30  1  0  0  0  0
  7  8  1  0  0  0  0
  7 22  1  0  0  0  0
  8  9  1  0  0  0  0
  8 31  1  0  0  0  0
  8 32  1  0  0  0  0
  9 10  1  0  0  0  0
  9 11  1  0  0  0  0
  9 33  1  0  0  0  0
 10 34  1  0  0  0  0
 11 12  1  0  0  0  0
 11 35  1  0  0  0  0
 11 36  1  0  0  0  0
 12 21  1  0  0  0  0
 12 13  1  0  0  0  0
 12 57  1  0  0  0  0
 13 14  1  0  0  0  0
 13 37  1  0  0  0  0
 13 38  1  0  0  0  0
 14 15  1  0  0  0  0
 14 39  1  0  0  0  0
 14 40  1  0  0  0  0
 15 16  1  0  0  0  0
 16 17  1  0  0  0  0
 16 21  1  0  0  0  0
 16 41  1  0  0  0  0
 17 18  1  0  0  0  0
 17 42  1  0  0  0  0
 17 43  1  0  0  0  0
 18 19  1  0  0  0  0
 18 20  1  0  0  0  0
 18 56  1  0  0  0  0
 19 44  1  0  0  0  0
 19 45  1  0  0  0  0
 19 46  1  0  0  0  0
 20 47  1  0  0  0  0
 20 48  1  0  0  0  0
 20 49  1  0  0  0  0
 21 50  1  0  0  0  0
 21 51  1  0  0  0  0
 22 23  1  0  0  0  0
 23 24  2  0  0  0  0
 23 52  1  0  0  0  0
 24 25  1  0  0  0  0
 25 53  1  0  0  0  0
 25 54  1  0  0  0  0
 25 55  1  0  0  0  0
M  CHG  1   5   1
M  CHG  1  12   1
M  CHG  1  18   1
M  END
> <s_m_source_file>
AV-unprocessed.smi

> <i_m_source_file_index>
1005

> <i_lp_mmshare_version>
43012

> <i_f3d_flags>
0

> <s_epik_input>
W0NIM11jKFtjSF0xKWMoW0NIM10pW2NIXWMoYzEyKW4oW2NIXW4yKVtDSDJdW0NASF0oW09IXSlbQ0gyXU4zW0NIMl1bQ0gyXU9bQ0BIXShbQ0gyXTMpW0NIMl1OKFtDSDNdKVtDSDNd

> <s_epik_cmdline>
J2VwaWtfcHl0aG9uJywgJy1waCcsICc3LjAnLCAnLXRuJywgJzgnLCAnLW1hJywgJzIwMCcsICctbWV0YWxfYmluZGluZycsICctaW1hZScsICc8aW5maWxlLm1hZT4nLCAnLW9tYWUnLCAnPG91dGZpbGUubWFlPic=

> <r_epik_Ionization_Penalty>
2.30802

> <r_epik_Ionization_Penalty_Charging>
2.30798

> <r_epik_Ionization_Penalty_Neutral>
3.4851e-05

> <r_epik_State_Penalty>
2.52618

> <r_epik_Charging_Adjusted_Penalty>
4.83416

> <i_epik_Tot_Q>
3

> <i_epik_Tot_abs_Q>
3

> <r_epik_Metal_State_Penalty>
6.53149

> <b_epik_Metal_Only>
0

> <s_lp_Force_Field>
OPLS_2005

> <r_lp_Energy>
52.3538

> <b_lp_Chiralities_Consistent>
1

> <s_lp_Variant>
AV-unprocessed.smi:1005-19

> <Gold.Version>
5.8.1

> <Gold.Id.Protein>
6NUR|6NUR_protein|mol2

> <Gold.PLP.Fitness>
55.4283

> <Gold.PLP.PLP>
-41.8418

> <Gold.PLP.part.hbond>
-3.0000

> <Gold.PLP.part.metal>
0.0000

> <Gold.PLP.part.buried>
-4.5972

> <Gold.PLP.part.nonpolar>
-32.9119

> <Gold.PLP.part.repulsive>
0.0329

> <Gold.PLP.ligand.clash>
0.0000

> <Gold.PLP.ligand.torsion>
0.7756

> <Gold.PLP.Chemscore.Hbond>
5.0000

> <Gold.PLP.Chemscore.CHOScore>
0.0000

> <Gold.PLP.Chemscore.Metal>
0.0000

> <Gold.Chemscore.Hbonds>
donor molecule, donor type, donor heavy atom, donor atom, acceptor molecule, acceptor atom, score
      L1  H     5    58       P1  8028  2.00
      L1  H    18    56       P1  7948  1.85
      P1  H  7989  7998       L1    10  1.00

> <Gold.PLP.Chemscore.Internal.Correction>
0.1377

> <Gold.Rescore>
     Score         DG    S(hbond)    S(metal)    S(lipo)     H(rot)  DE(clash)    DE(int)     intcor
     19.58     -21.11       2.77        0.00     110.48       2.56       0.05       1.47       ----

> <Gold.Chemscore.Fitness>
19.5834

> <Gold.Chemscore.DG>
-21.1066

> <Gold.Chemscore.ZeroCoef>
-5.4800

> <Gold.Chemscore.Hbond>
2.7679

> <Gold.Chemscore.Metal>
0.0000

> <Gold.Chemscore.Lipo>
110.4847

> <Gold.Chemscore.Internal_Hbond>
0.0000

> <Gold.Chemscore.DEClash>
0.0534

> <Gold.Chemscore.DEInternal>
1.4699

> <Gold.Chemscore.Rot>
2.5566

> <Gold.Chemscore.Internal.Correction>
   9.000000E+99

> <Gold.Chemscore.Hbonds>
donor molecule, donor type, donor heavy atom, donor atom, acceptor molecule, acceptor atom, score
      L1  H     5    58       P1  8028  0.98
      L1  H    18    56       P1  7948  0.20
      P1  H  7989  7998       L1    10  0.74

> <Gold.Chemscore.Hbond.Weighted>
-9.2449

> <Gold.Chemscore.Metal.Weighted>
-0.0000

> <Gold.Chemscore.Lipo.Weighted>
-12.9267

> <Gold.Chemscore.Internal_Hbond.Weighted>
0.0000

> <Gold.Chemscore.DEClash.Weighted>
0.0534

> <Gold.Chemscore.DEInternal.Weighted>
1.4699

> <Gold.Chemscore.Rot.Weighted>
6.5450

> <Gold.Chemscore.Internal.Correction.Weighted>
   9.000000E+99

> <Gold.Protein.RotatedTorsions>
[ 6907 6896 6895 6894 ] final  -75.85 input  -60.11 | X-H torsion
[ 7974 7965 7964 7962 ] final -165.94 input  175.53 | X-H torsion
[ 8008 7997 7996 7995 ] final  -83.80 input   59.86 | X-H torsion
[ 10167 10162 10161 10158 ] final  177.13 input  -65.29 | X-H torsion
[ 10718 10713 10712 10709 ] final  -70.34 input   66.30 | X-H torsion
[ 10763 10752 10751 10750 ] final -164.78 input  -60.55 | X-H torsion
[ 11005 11000 10999 10996 ] final  -80.28 input  -57.11 | X-H torsion

> <Gold.Protein.ActiveResidues>
 VAL166  LYS551  ARG553  GLY616  TRP617  ASP618  TYR619  PRO620  LYS621  CYS622 
 ASP623  PHE694  ASN695  SER759  ASP760  ASP761  ALA762  ILE779  LEU786  VAL792 
 PHE793  MET794  SER795  GLU796  ALA797  LYS798  CYS799  TRP800  GLU811  SER814 

> <Gold.Protein.RotatedAtoms>
  150.7046  134.4660  159.5402 H   0  0  0  0  0  0  0  0  0  0  0  0  # atno 6907 bound_to 6896
  152.2325  134.8305  160.0480 H   0  0  0  0  0  0  0  0  0  0  0  0  # atno 6908 bound_to 6896
  151.9115  133.3527  159.3902 H   0  0  0  0  0  0  0  0  0  0  0  0  # atno 6909 bound_to 6896
  144.7257  140.2739  143.6246 H   0  0  0  0  0  0  0  0  0  0  0  0  # atno 7974 bound_to 7965
  154.6229  140.0614  156.9638 H   0  0  0  0  0  0  0  0  0  0  0  0  # atno 8008 bound_to 7997
  155.1788  140.3297  155.4360 H   0  0  0  0  0  0  0  0  0  0  0  0  # atno 8009 bound_to 7997
  156.2441  140.1901  156.6886 H   0  0  0  0  0  0  0  0  0  0  0  0  # atno 8010 bound_to 7997
  139.5241  144.2834  152.0527 H   0  0  0  0  0  0  0  0  0  0  0  0  # atno 10167 bound_to 10162
  156.0412  130.4330  150.2281 H   0  0  0  0  0  0  0  0  0  0  0  0  # atno 10718 bound_to 10713
  154.6995  135.2985  154.9361 H   0  0  0  0  0  0  0  0  0  0  0  0  # atno 10763 bound_to 10752
  154.0298  135.6671  153.4784 H   0  0  0  0  0  0  0  0  0  0  0  0  # atno 10764 bound_to 10752
  153.0671  135.5082  154.8132 H   0  0  0  0  0  0  0  0  0  0  0  0  # atno 10765 bound_to 10752
  141.1668  133.7143  156.8249 H   0  0  0  0  0  0  0  0  0  0  0  0  # atno 11005 bound_to 11000
  145.8016  139.1966  143.2045 LP  0  0  0  0  0  0  0  0  0  0  0  0  # atno 17320 bound_to 7965
  146.0672  140.7908  142.9706 LP  0  0  0  0  0  0  0  0  0  0  0  0  # atno 17321 bound_to 7965
  140.2288  144.4390  150.6309 LP  0  0  0  0  0  0  0  0  0  0  0  0  # atno 17342 bound_to 10162
  140.6369  143.2196  151.6375 LP  0  0  0  0  0  0  0  0  0  0  0  0  # atno 17343 bound_to 10162
  157.0376  131.0026  151.3293 LP  0  0  0  0  0  0  0  0  0  0  0  0  # atno 17370 bound_to 10713
  157.5232  130.8011  149.7833 LP  0  0  0  0  0  0  0  0  0  0  0  0  # atno 17371 bound_to 10713
  140.2092  134.8840  157.3256 LP  0  0  0  0  0  0  0  0  0  0  0  0  # atno 17394 bound_to 11000
  140.2104  134.4145  155.7615 LP  0  0  0  0  0  0  0  0  0  0  0  0  # atno 17395 bound_to 11000

$$$$
