AV-unprocessed.smi:2373|AV-procd|sdf|9440|dock1
  -GOLD-   2272013 73D 1   1.00000     0.00000
 Structure written by MMmdl.
 46 47  0  0  0  0  0  0  0  0  1 V2000
  144.5765  131.6278  151.2364 C   0  0  0  0  0  0  0  0  0  0  0  0
  144.3520  132.8203  150.4252 N   0  0  0  0  0  0  0  0  0  0  0  0
  144.0470  132.6868  149.0061 C   0  0  0  0  0  0  0  0  0  0  0  0
  144.4698  134.1018  151.0106 C   0  0  0  0  0  0  0  0  0  0  0  0
  144.4318  135.2806  150.2254 C   0  0  0  0  0  0  0  0  0  0  0  0
  144.5573  136.5323  150.8576 C   0  0  0  0  0  0  0  0  0  0  0  0
  144.7268  136.5869  152.2541 C   0  0  0  0  0  0  0  0  0  0  0  0
  144.8337  137.8646  152.8670 N   0  0  0  0  0  0  0  0  0  0  0  0
  145.5495  138.2152  153.9492 C   0  0  0  0  0  0  0  0  0  0  0  0
  146.2869  137.4629  154.5844 O   0  0  0  0  0  0  0  0  0  0  0  0
  145.3733  139.5153  154.2404 N   0  0  0  0  0  0  0  0  0  0  0  0
  145.9715  140.2932  155.3362 C   0  0  0  0  0  0  0  0  0  0  0  0
  147.5116  140.4384  155.1413 C   0  0  0  0  0  0  0  0  0  0  0  0
  147.9625  141.1995  153.8792 C   0  0  0  0  0  0  0  0  0  0  0  0
  149.3264  140.9358  153.6303 O   0  0  0  0  0  0  0  0  0  0  0  0
  145.2559  141.6676  155.3341 C   0  0  0  0  0  0  0  0  0  0  0  0
  145.5146  142.4855  156.6113 C   0  0  0  0  0  0  0  0  0  0  0  0
  145.1275  141.7339  157.7532 O   0  0  0  0  0  0  0  0  0  0  0  0
  145.8806  140.5381  157.8994 C   0  0  0  0  0  0  0  0  0  0  0  0
  145.6469  139.6118  156.6926 C   0  0  0  0  0  0  0  0  0  0  0  0
  144.7381  135.3607  152.9592 C   0  0  0  0  0  0  0  0  0  0  0  0
  144.6163  134.1594  152.3568 N   0  0  0  0  0  0  0  0  0  0  0  0
  143.8966  131.6102  152.0888 H   0  0  0  0  0  0  0  0  0  0  0  0
  145.6008  131.6061  151.6099 H   0  0  0  0  0  0  0  0  0  0  0  0
  144.4099  130.7171  150.6609 H   0  0  0  0  0  0  0  0  0  0  0  0
  144.7948  133.2024  148.4026 H   0  0  0  0  0  0  0  0  0  0  0  0
  143.0662  133.1083  148.7844 H   0  0  0  0  0  0  0  0  0  0  0  0
  144.0373  131.6411  148.6982 H   0  0  0  0  0  0  0  0  0  0  0  0
  144.3072  135.2509  149.1536 H   0  0  0  0  0  0  0  0  0  0  0  0
  144.5275  137.4391  150.2711 H   0  0  0  0  0  0  0  0  0  0  0  0
  144.3425  138.6113  152.3979 H   0  0  0  0  0  0  0  0  0  0  0  0
  144.7471  140.0301  153.6389 H   0  0  0  0  0  0  0  0  0  0  0  0
  147.9506  140.9245  156.0119 H   0  0  0  0  0  0  0  0  0  0  0  0
  147.9643  139.4466  155.1185 H   0  0  0  0  0  0  0  0  0  0  0  0
  147.3882  140.8943  153.0048 H   0  0  0  0  0  0  0  0  0  0  0  0
  147.8372  142.2752  153.9961 H   0  0  0  0  0  0  0  0  0  0  0  0
  149.3876  140.2262  153.0093 H   0  0  0  0  0  0  0  0  0  0  0  0
  145.5248  142.2536  154.4558 H   0  0  0  0  0  0  0  0  0  0  0  0
  144.1785  141.5104  155.2598 H   0  0  0  0  0  0  0  0  0  0  0  0
  146.5599  142.7858  156.6905 H   0  0  0  0  0  0  0  0  0  0  0  0
  144.9281  143.4040  156.5866 H   0  0  0  0  0  0  0  0  0  0  0  0
  146.9388  140.7717  158.0218 H   0  0  0  0  0  0  0  0  0  0  0  0
  145.5647  140.0387  158.8154 H   0  0  0  0  0  0  0  0  0  0  0  0
  144.6005  139.3029  156.7033 H   0  0  0  0  0  0  0  0  0  0  0  0
  146.2312  138.7006  156.8222 H   0  0  0  0  0  0  0  0  0  0  0  0
  144.8243  135.3175  154.0334 H   0  0  0  0  0  0  0  0  0  0  0  0
  1  2  1  0  0  0  0
  1 23  1  0  0  0  0
  1 24  1  0  0  0  0
  1 25  1  0  0  0  0
  2  3  1  0  0  0  0
  2  4  1  0  0  0  0
  3 26  1  0  0  0  0
  3 27  1  0  0  0  0
  3 28  1  0  0  0  0
  4 22  1  0  0  0  0
  4  5  2  0  0  0  0
  5  6  1  0  0  0  0
  5 29  1  0  0  0  0
  6  7  2  0  0  0  0
  6 30  1  0  0  0  0
  7  8  1  0  0  0  0
  7 21  1  0  0  0  0
  8  9  1  0  0  0  0
  8 31  1  0  0  0  0
  9 10  2  0  0  0  0
  9 11  1  0  0  0  0
 11 12  1  0  0  0  0
 11 32  1  0  0  0  0
 12 20  1  0  0  0  0
 12 13  1  0  0  0  0
 12 16  1  0  0  0  0
 13 14  1  0  0  0  0
 13 33  1  0  0  0  0
 13 34  1  0  0  0  0
 14 15  1  0  0  0  0
 14 35  1  0  0  0  0
 14 36  1  0  0  0  0
 15 37  1  0  0  0  0
 16 17  1  0  0  0  0
 16 38  1  0  0  0  0
 16 39  1  0  0  0  0
 17 18  1  0  0  0  0
 17 40  1  0  0  0  0
 17 41  1  0  0  0  0
 18 19  1  0  0  0  0
 19 20  1  0  0  0  0
 19 42  1  0  0  0  0
 19 43  1  0  0  0  0
 20 44  1  0  0  0  0
 20 45  1  0  0  0  0
 21 22  2  0  0  0  0
 21 46  1  0  0  0  0
M  END
> <s_m_source_file>
AV-unprocessed.smi

> <i_m_source_file_index>
2373

> <i_lp_mmshare_version>
43012

> <i_f3d_flags>
0

> <s_epik_input>
W0NIM11OKFtDSDNdKWMxW2NIXVtjSF1jKFtjSF1uMSlbTkhdQyg9TylbTkhdQzIoW0NIMl1bQ0gyXVtPSF0pW0NIMl1bQ0gyXU9bQ0gyXVtDSDJdMg==

> <s_epik_cmdline>
J2VwaWtfcHl0aG9uJywgJy1waCcsICc3LjAnLCAnLXRuJywgJzgnLCAnLW1hJywgJzIwMCcsICctbWV0YWxfYmluZGluZycsICctaW1hZScsICc8aW5maWxlLm1hZT4nLCAnLW9tYWUnLCAnPG91dGZpbGUubWFlPic=

> <r_lp_tautomer_probability>
1

> <r_epik_Ionization_Penalty>
0.631973

> <r_epik_Ionization_Penalty_Charging>
0

> <r_epik_Ionization_Penalty_Neutral>
0.631973

> <r_epik_State_Penalty>
0.647706

> <r_epik_Charging_Adjusted_Penalty>
0.647706

> <i_epik_Tot_Q>
0

> <i_epik_Tot_abs_Q>
0

> <r_epik_Metal_State_Penalty>
0.309159

> <b_epik_Metal_Only>
0

> <s_lp_Force_Field>
OPLS_2005

> <r_lp_Energy>
18.939

> <b_lp_Chiralities_Consistent>
1

> <s_lp_Variant>
AV-unprocessed.smi:2373-2

> <Gold.Version>
5.8.1

> <Gold.Id.Protein>
6NUR|6NUR_protein|mol2

> <Gold.PLP.Fitness>
39.6621

> <Gold.PLP.PLP>
-28.9817

> <Gold.PLP.part.hbond>
-5.0826

> <Gold.PLP.part.metal>
0.0000

> <Gold.PLP.part.buried>
0.2500

> <Gold.PLP.part.nonpolar>
-24.1666

> <Gold.PLP.part.repulsive>
0.1645

> <Gold.PLP.ligand.clash>
0.0000

> <Gold.PLP.ligand.torsion>
0.4031

> <Gold.PLP.Chemscore.Hbond>
3.7974

> <Gold.PLP.Chemscore.CHOScore>
0.0000

> <Gold.PLP.Chemscore.Metal>
0.0000

> <Gold.Chemscore.Hbonds>
donor molecule, donor type, donor heavy atom, donor atom, acceptor molecule, acceptor atom, score
      L1  H     8    31       P1 10175  0.98
      L1  H    11    32       P1 10175  1.00
      L1  H    15    37       P1  7957  0.74
      P1  H  7989  7998       L1    15  0.02
      P1  H  8011  8017       L1    15  0.80

> <Gold.PLP.Chemscore.Internal.Correction>
0.0942

> <Gold.Rescore>
     Score         DG    S(hbond)    S(metal)    S(lipo)     H(rot)  DE(clash)    DE(int)     intcor
     15.14     -17.54       2.92        0.00      65.33       2.09       1.96       0.45       ----

> <Gold.Chemscore.Fitness>
15.1381

> <Gold.Chemscore.DG>
-17.5438

> <Gold.Chemscore.ZeroCoef>
-5.4800

> <Gold.Chemscore.Hbond>
2.9221

> <Gold.Chemscore.Metal>
0.0000

> <Gold.Chemscore.Lipo>
65.3308

> <Gold.Chemscore.Internal_Hbond>
0.0000

> <Gold.Chemscore.DEClash>
1.9556

> <Gold.Chemscore.DEInternal>
0.4501

> <Gold.Chemscore.Rot>
2.0859

> <Gold.Chemscore.Internal.Correction>
   9.000000E+99

> <Gold.Chemscore.Hbonds>
donor molecule, donor type, donor heavy atom, donor atom, acceptor molecule, acceptor atom, score
      L1  H     8    31       P1 10175  0.92
      L1  H    11    32       P1 10175  0.99
      L1  H    15    37       P1  7957  0.74
      P1  H  8011  8017       L1    15  0.04

> <Gold.Chemscore.Hbond.Weighted>
-9.7600

> <Gold.Chemscore.Metal.Weighted>
-0.0000

> <Gold.Chemscore.Lipo.Weighted>
-7.6437

> <Gold.Chemscore.Internal_Hbond.Weighted>
0.0000

> <Gold.Chemscore.DEClash.Weighted>
1.9556

> <Gold.Chemscore.DEInternal.Weighted>
0.4501

> <Gold.Chemscore.Rot.Weighted>
5.3399

> <Gold.Chemscore.Internal.Correction.Weighted>
   9.000000E+99

> <Gold.Protein.RotatedTorsions>
[ 6907 6896 6895 6894 ] final   57.73 input  -60.11 | X-H torsion
[ 7974 7965 7964 7962 ] final -122.73 input  175.53 | X-H torsion
[ 8008 7997 7996 7995 ] final -114.08 input   59.86 | X-H torsion
[ 10167 10162 10161 10158 ] final   81.09 input  -65.29 | X-H torsion
[ 10718 10713 10712 10709 ] final -149.11 input   66.30 | X-H torsion
[ 10763 10752 10751 10750 ] final   -3.08 input  -60.55 | X-H torsion
[ 11005 11000 10999 10996 ] final  -40.45 input  -57.11 | X-H torsion

> <Gold.Protein.ActiveResidues>
 VAL166  LYS551  ARG553  GLY616  TRP617  ASP618  TYR619  PRO620  LYS621  CYS622 
 ASP623  PHE694  ASN695  SER759  ASP760  ASP761  ALA762  ILE779  LEU786  VAL792 
 PHE793  MET794  SER795  GLU796  ALA797  LYS798  CYS799  TRP800  GLU811  SER814 

> <Gold.Protein.RotatedAtoms>
  152.3759  134.6664  160.0159 H   0  0  0  0  0  0  0  0  0  0  0  0  # atno 6907 bound_to 6896
  151.6943  133.3305  159.3258 H   0  0  0  0  0  0  0  0  0  0  0  0  # atno 6908 bound_to 6896
  150.7709  134.6607  159.6383 H   0  0  0  0  0  0  0  0  0  0  0  0  # atno 6909 bound_to 6896
  145.0263  140.8031  143.4350 H   0  0  0  0  0  0  0  0  0  0  0  0  # atno 7974 bound_to 7965
  155.0307  140.0393  157.2473 H   0  0  0  0  0  0  0  0  0  0  0  0  # atno 8008 bound_to 7997
  154.7299  140.2728  155.6441 H   0  0  0  0  0  0  0  0  0  0  0  0  # atno 8009 bound_to 7997
  156.2839  140.2686  156.1996 H   0  0  0  0  0  0  0  0  0  0  0  0  # atno 8010 bound_to 7997
  139.9429  144.6078  150.8235 H   0  0  0  0  0  0  0  0  0  0  0  0  # atno 10167 bound_to 10162
  156.4289  130.8066  151.2292 H   0  0  0  0  0  0  0  0  0  0  0  0  # atno 10718 bound_to 10713
  153.3665  135.6992  153.6671 H   0  0  0  0  0  0  0  0  0  0  0  0  # atno 10763 bound_to 10752
  153.5338  135.3587  155.2688 H   0  0  0  0  0  0  0  0  0  0  0  0  # atno 10764 bound_to 10752
  154.8675  135.4187  154.2934 H   0  0  0  0  0  0  0  0  0  0  0  0  # atno 10765 bound_to 10752
  141.0175  133.6878  156.2323 H   0  0  0  0  0  0  0  0  0  0  0  0  # atno 11005 bound_to 11000
  145.1829  139.2342  143.5283 LP  0  0  0  0  0  0  0  0  0  0  0  0  # atno 17320 bound_to 7965
  146.3492  140.1607  142.8591 LP  0  0  0  0  0  0  0  0  0  0  0  0  # atno 17321 bound_to 7965
  140.7606  143.3154  151.2745 LP  0  0  0  0  0  0  0  0  0  0  0  0  # atno 17342 bound_to 10162
  139.6690  144.0054  152.2741 LP  0  0  0  0  0  0  0  0  0  0  0  0  # atno 17343 bound_to 10162
  157.7508  131.0204  150.3709 LP  0  0  0  0  0  0  0  0  0  0  0  0  # atno 17370 bound_to 10713
  156.4042  130.3921  149.6938 LP  0  0  0  0  0  0  0  0  0  0  0  0  # atno 17371 bound_to 10713
  140.6629  134.4949  157.5584 LP  0  0  0  0  0  0  0  0  0  0  0  0  # atno 17394 bound_to 11000
  139.9126  134.8313  156.1476 LP  0  0  0  0  0  0  0  0  0  0  0  0  # atno 17395 bound_to 11000

$$$$
