AV-unprocessed.smi:1080|AV-procd|sdf|4706|dock7
  -GOLD-   22720 3233D 1   1.00000     0.00000
 Structure written by MMmdl.
 48 50  0  0  0  0  0  0  0  0  1 V2000
  150.9643  140.8313  156.1287 O   0  0  0  0  0  0  0  0  0  0  0  0
  150.2624  141.8412  156.1724 C   0  0  0  0  0  0  0  0  0  0  0  0
  150.3770  142.8340  157.0724 N   0  0  0  0  0  0  0  0  0  0  0  0
  151.2911  142.9661  158.1540 C   0  0  0  0  0  0  0  0  0  0  0  0
  151.3505  144.2150  158.8073 C   0  0  0  0  0  0  0  0  0  0  0  0
  152.2537  144.3821  159.8758 C   0  0  0  0  0  0  0  0  0  0  0  0
  153.0784  143.4061  160.3092 N   0  0  0  0  0  0  0  0  0  0  0  0
  153.0294  142.2149  159.6765 C   0  0  0  0  0  0  0  0  0  0  0  0
  152.1641  141.9428  158.5978 C   0  0  0  0  0  0  0  0  0  0  0  0
  149.2570  142.0834  155.3182 N   0  0  0  0  0  0  0  0  0  0  0  0
  148.8328  141.2130  154.2244 C   0  0  2  0  0  0  0  0  0  0  0  0
  147.4070  141.5870  153.7786 C   0  0  0  0  0  0  0  0  0  0  0  0
  146.8879  140.6330  152.6899 C   0  0  0  0  0  0  0  0  0  0  0  0
  146.9411  139.1622  153.1536 C   0  0  1  0  0  0  0  0  0  0  0  0
  146.4152  138.2239  152.0449 C   0  0  0  0  0  0  0  0  0  0  0  0
  146.8266  138.3935  150.8959 O   0  0  0  0  0  0  0  0  0  0  0  0
  145.5492  137.2250  152.3525 N   0  0  0  0  0  0  0  0  0  0  0  0
  145.1952  136.1726  151.3916 C   0  0  0  0  0  0  0  0  0  0  0  0
  146.0040  134.9061  151.7215 C   0  0  0  0  0  0  0  0  0  0  0  0
  145.6019  134.2811  153.3846 S   0  0  0  0  0  0  0  0  0  0  0  0
  145.7595  135.8209  154.3436 C   0  0  0  0  0  0  0  0  0  0  0  0
  144.9729  136.9606  153.6764 C   0  0  0  0  0  0  0  0  0  0  0  0
  148.3822  138.7982  153.5786 C   0  0  0  0  0  0  0  0  0  0  0  0
  148.8961  139.7429  154.6770 C   0  0  0  0  0  0  0  0  0  0  0  0
  149.6866  143.5672  157.0052 H   0  0  0  0  0  0  0  0  0  0  0  0
  150.7139  145.0327  158.5021 H   0  0  0  0  0  0  0  0  0  0  0  0
  152.3154  145.3267  160.3957 H   0  0  0  0  0  0  0  0  0  0  0  0
  153.7053  141.4537  160.0373 H   0  0  0  0  0  0  0  0  0  0  0  0
  152.1989  140.9688  158.1364 H   0  0  0  0  0  0  0  0  0  0  0  0
  148.7369  142.9404  155.4360 H   0  0  0  0  0  0  0  0  0  0  0  0
  149.4989  141.3287  153.3674 H   0  0  0  0  0  0  0  0  0  0  0  0
  146.7312  141.5569  154.6346 H   0  0  0  0  0  0  0  0  0  0  0  0
  147.3891  142.6122  153.4067 H   0  0  0  0  0  0  0  0  0  0  0  0
  145.8670  140.9102  152.4241 H   0  0  0  0  0  0  0  0  0  0  0  0
  147.4848  140.7605  151.7852 H   0  0  0  0  0  0  0  0  0  0  0  0
  146.3350  139.0477  154.0510 H   0  0  0  0  0  0  0  0  0  0  0  0
  144.1261  135.9603  151.4371 H   0  0  0  0  0  0  0  0  0  0  0  0
  145.3846  136.4719  150.3599 H   0  0  0  0  0  0  0  0  0  0  0  0
  145.7965  134.1220  150.9932 H   0  0  0  0  0  0  0  0  0  0  0  0
  147.0732  135.1154  151.6698 H   0  0  0  0  0  0  0  0  0  0  0  0
  145.3898  135.6430  155.3534 H   0  0  0  0  0  0  0  0  0  0  0  0
  146.8148  136.0822  154.4295 H   0  0  0  0  0  0  0  0  0  0  0  0
  144.9499  137.8435  154.3133 H   0  0  0  0  0  0  0  0  0  0  0  0
  143.9255  136.6725  153.5746 H   0  0  0  0  0  0  0  0  0  0  0  0
  148.4185  137.7693  153.9386 H   0  0  0  0  0  0  0  0  0  0  0  0
  149.0592  138.8514  152.7244 H   0  0  0  0  0  0  0  0  0  0  0  0
  149.9208  139.4769  154.9397 H   0  0  0  0  0  0  0  0  0  0  0  0
  148.2997  139.6055  155.5802 H   0  0  0  0  0  0  0  0  0  0  0  0
  1  2  2  0  0  0  0
  2  3  1  0  0  0  0
  2 10  1  0  0  0  0
  3  4  1  0  0  0  0
  3 25  1  0  0  0  0
  4  9  1  0  0  0  0
  4  5  2  0  0  0  0
  5  6  1  0  0  0  0
  5 26  1  0  0  0  0
  6  7  2  0  0  0  0
  6 27  1  0  0  0  0
  7  8  1  0  0  0  0
  8  9  2  0  0  0  0
  8 28  1  0  0  0  0
  9 29  1  0  0  0  0
 10 11  1  0  0  0  0
 10 30  1  0  0  0  0
 11 24  1  0  0  0  0
 11 12  1  0  0  0  0
 11 31  1  0  0  0  0
 12 13  1  0  0  0  0
 12 32  1  0  0  0  0
 12 33  1  0  0  0  0
 13 14  1  0  0  0  0
 13 34  1  0  0  0  0
 13 35  1  0  0  0  0
 14 15  1  0  0  0  0
 14 23  1  0  0  0  0
 14 36  1  0  0  0  0
 15 16  2  0  0  0  0
 15 17  1  0  0  0  0
 17 22  1  0  0  0  0
 17 18  1  0  0  0  0
 18 19  1  0  0  0  0
 18 37  1  0  0  0  0
 18 38  1  0  0  0  0
 19 20  1  0  0  0  0
 19 39  1  0  0  0  0
 19 40  1  0  0  0  0
 20 21  1  0  0  0  0
 21 22  1  0  0  0  0
 21 41  1  0  0  0  0
 21 42  1  0  0  0  0
 22 43  1  0  0  0  0
 22 44  1  0  0  0  0
 23 24  1  0  0  0  0
 23 45  1  0  0  0  0
 23 46  1  0  0  0  0
 24 47  1  0  0  0  0
 24 48  1  0  0  0  0
M  END
> <s_m_source_file>
AV-unprocessed.smi

> <i_m_source_file_index>
1080

> <i_lp_mmshare_version>
43012

> <i_f3d_flags>
0

> <s_epik_input>
W2NIXTFbY0hdbltjSF1bY0hdYzFbTkhdQyg9TylbTkhdW0NAQEhdMltDSDJdW0NIMl1bQ0BIXShbQ0gyXVtDSDJdMilDKD1PKU4zW0NIMl1bQ0gyXVNbQ0gyXVtDSDJdMw==

> <s_epik_cmdline>
J2VwaWtfcHl0aG9uJywgJy1waCcsICc3LjAnLCAnLXRuJywgJzgnLCAnLW1hJywgJzIwMCcsICctbWV0YWxfYmluZGluZycsICctaW1hZScsICc8aW5maWxlLm1hZT4nLCAnLW9tYWUnLCAnPG91dGZpbGUubWFlPic=

> <r_epik_Ionization_Penalty>
0.118325

> <r_epik_Ionization_Penalty_Charging>
0

> <r_epik_Ionization_Penalty_Neutral>
0.118325

> <r_epik_State_Penalty>
0.107868

> <r_epik_Charging_Adjusted_Penalty>
0.107868

> <i_epik_Tot_Q>
0

> <i_epik_Tot_abs_Q>
0

> <r_epik_Metal_State_Penalty>
0.0897632

> <b_epik_Metal_Only>
0

> <s_lp_Force_Field>
OPLS_2005

> <r_lp_Energy>
33.2651

> <b_lp_Chiralities_Consistent>
1

> <s_lp_Variant>
AV-unprocessed.smi:1080-1

> <Gold.Version>
5.8.1

> <Gold.Id.Protein>
6NUR|6NUR_protein|mol2

> <Gold.PLP.Fitness>
51.2163

> <Gold.PLP.PLP>
-44.1018

> <Gold.PLP.part.hbond>
-3.0000

> <Gold.PLP.part.metal>
0.0000

> <Gold.PLP.part.buried>
-2.7213

> <Gold.PLP.part.nonpolar>
-40.2092

> <Gold.PLP.part.repulsive>
0.6532

> <Gold.PLP.ligand.clash>
0.0000

> <Gold.PLP.ligand.torsion>
0.7087

> <Gold.PLP.Chemscore.Hbond>
2.8240

> <Gold.PLP.Chemscore.CHOScore>
0.0000

> <Gold.PLP.Chemscore.Metal>
0.0000

> <Gold.Chemscore.Hbonds>
donor molecule, donor type, donor heavy atom, donor atom, acceptor molecule, acceptor atom, score
      L1  H     3    25       P1  8028  0.80
      L1  H    10    30       P1  8028  0.90
      P1  H  7954  7966       L1    16  1.00

> <Gold.PLP.Chemscore.Internal.Correction>
0.0598

> <Gold.Rescore>
     Score         DG    S(hbond)    S(metal)    S(lipo)     H(rot)  DE(clash)    DE(int)     intcor
     21.05     -24.71       2.83        0.00     110.45       1.23       0.26       3.40       ----

> <Gold.Chemscore.Fitness>
21.0528

> <Gold.Chemscore.DG>
-24.7100

> <Gold.Chemscore.ZeroCoef>
-5.4800

> <Gold.Chemscore.Hbond>
2.8344

> <Gold.Chemscore.Metal>
0.0000

> <Gold.Chemscore.Lipo>
110.4541

> <Gold.Chemscore.Internal_Hbond>
0.0000

> <Gold.Chemscore.DEClash>
0.2620

> <Gold.Chemscore.DEInternal>
3.3952

> <Gold.Chemscore.Rot>
1.2344

> <Gold.Chemscore.Internal.Correction>
   9.000000E+99

> <Gold.Chemscore.Hbonds>
donor molecule, donor type, donor heavy atom, donor atom, acceptor molecule, acceptor atom, score
      L1  H     3    25       P1  8028  0.77
      L1  H    10    30       P1  8028  0.88
      P1  H  7954  7966       L1    16  0.97

> <Gold.Chemscore.Hbond.Weighted>
-9.4669

> <Gold.Chemscore.Metal.Weighted>
-0.0000

> <Gold.Chemscore.Lipo.Weighted>
-12.9231

> <Gold.Chemscore.Internal_Hbond.Weighted>
0.0000

> <Gold.Chemscore.DEClash.Weighted>
0.2620

> <Gold.Chemscore.DEInternal.Weighted>
3.3952

> <Gold.Chemscore.Rot.Weighted>
3.1600

> <Gold.Chemscore.Internal.Correction.Weighted>
   9.000000E+99

> <Gold.Protein.RotatedTorsions>
[ 6907 6896 6895 6894 ] final  -55.44 input  -60.11 | X-H torsion
[ 7974 7965 7964 7962 ] final  -49.93 input  175.53 | X-H torsion
[ 8008 7997 7996 7995 ] final  150.82 input   59.86 | X-H torsion
[ 10167 10162 10161 10158 ] final   77.52 input  -65.29 | X-H torsion
[ 10718 10713 10712 10709 ] final   12.36 input   66.30 | X-H torsion
[ 10763 10752 10751 10750 ] final  116.67 input  -60.55 | X-H torsion
[ 11005 11000 10999 10996 ] final  131.73 input  -57.11 | X-H torsion

> <Gold.Protein.ActiveResidues>
 VAL166  LYS551  ARG553  GLY616  TRP617  ASP618  TYR619  PRO620  LYS621  CYS622 
 ASP623  PHE694  ASN695  SER759  ASP760  ASP761  ALA762  ILE779  LEU786  VAL792 
 PHE793  MET794  SER795  GLU796  ALA797  LYS798  CYS799  TRP800  GLU811  SER814 

> <Gold.Protein.RotatedAtoms>
  150.8251  134.7479  159.6805 H   0  0  0  0  0  0  0  0  0  0  0  0  # atno 6907 bound_to 6896
  152.4363  134.5676  159.9922 H   0  0  0  0  0  0  0  0  0  0  0  0  # atno 6908 bound_to 6896
  151.5850  133.3335  159.3052 H   0  0  0  0  0  0  0  0  0  0  0  0  # atno 6909 bound_to 6896
  145.9353  140.7712  142.9579 H   0  0  0  0  0  0  0  0  0  0  0  0  # atno 7974 bound_to 7965
  156.2700  140.2064  156.6079 H   0  0  0  0  0  0  0  0  0  0  0  0  # atno 8008 bound_to 7997
  154.6855  140.0535  157.0334 H   0  0  0  0  0  0  0  0  0  0  0  0  # atno 8009 bound_to 7997
  155.0940  140.3199  155.4568 H   0  0  0  0  0  0  0  0  0  0  0  0  # atno 8010 bound_to 7997
  139.9807  144.5828  150.7903 H   0  0  0  0  0  0  0  0  0  0  0  0  # atno 10167 bound_to 10162
  157.0089  130.6109  149.5705 H   0  0  0  0  0  0  0  0  0  0  0  0  # atno 10718 bound_to 10713
  153.5408  135.3559  155.2717 H   0  0  0  0  0  0  0  0  0  0  0  0  # atno 10763 bound_to 10752
  154.8717  135.4090  154.3046 H   0  0  0  0  0  0  0  0  0  0  0  0  # atno 10764 bound_to 10752
  153.3753  135.7066  153.6675 H   0  0  0  0  0  0  0  0  0  0  0  0  # atno 10765 bound_to 10752
  139.9747  134.9567  156.9480 H   0  0  0  0  0  0  0  0  0  0  0  0  # atno 11005 bound_to 11000
  144.6771  140.2193  143.7368 LP  0  0  0  0  0  0  0  0  0  0  0  0  # atno 17320 bound_to 7965
  145.8371  139.2113  143.1849 LP  0  0  0  0  0  0  0  0  0  0  0  0  # atno 17321 bound_to 7965
  140.7490  143.2931  151.3276 LP  0  0  0  0  0  0  0  0  0  0  0  0  # atno 17342 bound_to 10162
  139.6412  144.0536  152.2556 LP  0  0  0  0  0  0  0  0  0  0  0  0  # atno 17343 bound_to 10162
  156.0143  130.5236  150.8087 LP  0  0  0  0  0  0  0  0  0  0  0  0  # atno 17370 bound_to 10713
  157.5335  131.0937  150.9924 LP  0  0  0  0  0  0  0  0  0  0  0  0  # atno 17371 bound_to 10713
  140.5218  134.0899  155.7294 LP  0  0  0  0  0  0  0  0  0  0  0  0  # atno 17394 bound_to 11000
  141.1425  133.9113  157.2292 LP  0  0  0  0  0  0  0  0  0  0  0  0  # atno 17395 bound_to 11000

$$$$
