AV-unprocessed.smi:1856|AV-procd|sdf|7539|dock1
  -GOLD-   22720 9253D 1   1.00000     0.00000
 Structure written by MMmdl.
 45 46  0  0  0  0  0  0  0  0  2 V2000
  148.1394  141.2024  153.6612 C   0  0  0  0  0  0  0  0  0  0  0  0
  147.2667  140.4165  152.6765 C   0  0  0  0  0  0  0  0  0  0  0  0
  146.9853  138.9819  153.1573 C   0  0  0  0  0  0  0  0  0  0  0  0
  146.6510  138.0240  152.0099 C   0  0  0  0  0  0  0  0  0  0  0  0
  146.8970  138.3340  150.8440 O   0  0  0  0  0  0  0  0  0  0  0  0
  146.0858  136.8562  152.3551 N   0  0  0  0  0  0  0  0  0  0  0  0
  145.6880  135.8072  151.4210 C   0  0  2  0  0  0  0  0  0  0  0  0
  144.1686  135.8560  151.2070 C   0  0  0  0  0  0  0  0  0  0  0  0
  146.1173  134.4477  151.8930 C   0  0  0  0  0  0  0  0  0  0  0  0
  146.8925  134.2009  152.9875 N   0  3  0  0  0  0  0  0  0  0  0  0
  147.1249  132.8321  153.1069 C   0  0  0  0  0  0  0  0  0  0  0  0
  147.8513  132.1134  154.0511 C   0  0  0  0  0  0  0  0  0  0  0  0
  147.8973  130.7143  153.8834 C   0  0  0  0  0  0  0  0  0  0  0  0
  147.2386  130.0830  152.8089 C   0  0  0  0  0  0  0  0  0  0  0  0
  146.5066  130.8232  151.8574 C   0  0  0  0  0  0  0  0  0  0  0  0
  146.4621  132.2073  152.0309 C   0  0  0  0  0  0  0  0  0  0  0  0
  145.8461  133.2407  151.3110 N   0  0  0  0  0  0  0  0  0  0  0  0
  145.0665  132.9147  150.1011 C   0  0  0  0  0  0  0  0  0  0  0  0
  143.7128  132.2241  150.3849 C   0  0  1  0  0  0  0  0  0  0  0  0
  142.8193  132.9639  151.3916 C   0  0  0  0  0  0  0  0  0  0  0  0
  142.9844  132.0714  149.1848 O   0  0  0  0  0  0  0  0  0  0  0  0
  148.3240  142.2129  153.2956 H   0  0  0  0  0  0  0  0  0  0  0  0
  149.1062  140.7193  153.8054 H   0  0  0  0  0  0  0  0  0  0  0  0
  147.6565  141.2846  154.6352 H   0  0  0  0  0  0  0  0  0  0  0  0
  146.3280  140.9533  152.5318 H   0  0  0  0  0  0  0  0  0  0  0  0
  147.7607  140.3902  151.7044 H   0  0  0  0  0  0  0  0  0  0  0  0
  147.8521  138.6047  153.7024 H   0  0  0  0  0  0  0  0  0  0  0  0
  146.1509  138.9812  153.8598 H   0  0  0  0  0  0  0  0  0  0  0  0
  145.9124  136.6852  153.3350 H   0  0  0  0  0  0  0  0  0  0  0  0
  146.1632  136.0191  150.4633 H   0  0  0  0  0  0  0  0  0  0  0  0
  143.8519  135.1041  150.4834 H   0  0  0  0  0  0  0  0  0  0  0  0
  143.8571  136.8291  150.8260 H   0  0  0  0  0  0  0  0  0  0  0  0
  143.6254  135.6736  152.1349 H   0  0  0  0  0  0  0  0  0  0  0  0
  148.3583  132.5961  154.8736 H   0  0  0  0  0  0  0  0  0  0  0  0
  148.4493  130.1137  154.5920 H   0  0  0  0  0  0  0  0  0  0  0  0
  147.2956  129.0084  152.7116 H   0  0  0  0  0  0  0  0  0  0  0  0
  146.0070  130.3244  151.0407 H   0  0  0  0  0  0  0  0  0  0  0  0
  144.9062  133.8426  149.5515 H   0  0  0  0  0  0  0  0  0  0  0  0
  145.6764  132.2959  149.4436 H   0  0  0  0  0  0  0  0  0  0  0  0
  143.9119  131.2235  150.7698 H   0  0  0  0  0  0  0  0  0  0  0  0
  143.3279  133.0902  152.3471 H   0  0  0  0  0  0  0  0  0  0  0  0
  141.9023  132.4051  151.5825 H   0  0  0  0  0  0  0  0  0  0  0  0
  142.5316  133.9514  151.0298 H   0  0  0  0  0  0  0  0  0  0  0  0
  142.2920  132.7146  149.1706 H   0  0  0  0  0  0  0  0  0  0  0  0
  147.2425  134.9238  153.6030 H   0  0  0  0  0  0  0  0  0  0  0  0
  1  2  1  0  0  0  0
  1 22  1  0  0  0  0
  1 23  1  0  0  0  0
  1 24  1  0  0  0  0
  2  3  1  0  0  0  0
  2 25  1  0  0  0  0
  2 26  1  0  0  0  0
  3  4  1  0  0  0  0
  3 27  1  0  0  0  0
  3 28  1  0  0  0  0
  4  5  2  0  0  0  0
  4  6  1  0  0  0  0
  6  7  1  0  0  0  0
  6 29  1  0  0  0  0
  7  8  1  0  0  0  0
  7  9  1  0  0  0  0
  7 30  1  0  0  0  0
  8 31  1  0  0  0  0
  8 32  1  0  0  0  0
  8 33  1  0  0  0  0
  9 17  1  0  0  0  0
  9 10  2  0  0  0  0
 10 11  1  0  0  0  0
 10 45  1  0  0  0  0
 11 16  2  0  0  0  0
 11 12  1  0  0  0  0
 12 13  2  0  0  0  0
 12 34  1  0  0  0  0
 13 14  1  0  0  0  0
 13 35  1  0  0  0  0
 14 15  2  0  0  0  0
 14 36  1  0  0  0  0
 15 16  1  0  0  0  0
 15 37  1  0  0  0  0
 16 17  1  0  0  0  0
 17 18  1  0  0  0  0
 18 19  1  0  0  0  0
 18 38  1  0  0  0  0
 18 39  1  0  0  0  0
 19 20  1  0  0  0  0
 19 21  1  0  0  0  0
 19 40  1  0  0  0  0
 20 41  1  0  0  0  0
 20 42  1  0  0  0  0
 20 43  1  0  0  0  0
 21 44  1  0  0  0  0
M  CHG  1  10   1
M  END
> <s_m_source_file>
AV-unprocessed.smi

> <i_m_source_file_index>
1856

> <i_lp_mmshare_version>
43012

> <i_f3d_flags>
0

> <s_epik_input>
W0NIM11bQ0gyXVtDSDJdQyg9TylbTkhdW0NASF0oW0NIM10pYyhuMSluKFtDSDJdW0NASF0oW0NIM10pW09IXSljKGMxMilbY0hdW2NIXVtjSF1bY0hdMg==

> <s_epik_cmdline>
J2VwaWtfcHl0aG9uJywgJy1waCcsICc3LjAnLCAnLXRuJywgJzgnLCAnLW1hJywgJzIwMCcsICctbWV0YWxfYmluZGluZycsICctaW1hZScsICc8aW5maWxlLm1hZT4nLCAnLW9tYWUnLCAnPG91dGZpbGUubWFlPic=

> <r_epik_Ionization_Penalty>
0.945588

> <r_epik_Ionization_Penalty_Charging>
0.945588

> <r_epik_Ionization_Penalty_Neutral>
8.64698e-08

> <r_epik_State_Penalty>
0.989378

> <r_epik_Charging_Adjusted_Penalty>
1.93497

> <i_epik_Tot_Q>
1

> <i_epik_Tot_abs_Q>
1

> <r_epik_Metal_State_Penalty>
1.10045

> <b_epik_Metal_Only>
0

> <s_lp_Force_Field>
OPLS_2005

> <r_lp_Energy>
7.08732

> <b_lp_Chiralities_Consistent>
1

> <s_lp_Variant>
AV-unprocessed.smi:1856-7

> <Gold.Version>
5.8.1

> <Gold.Id.Protein>
6NUR|6NUR_protein|mol2

> <Gold.PLP.Fitness>
45.7335

> <Gold.PLP.PLP>
-38.7181

> <Gold.PLP.part.hbond>
-5.5950

> <Gold.PLP.part.metal>
0.0000

> <Gold.PLP.part.buried>
1.7132

> <Gold.PLP.part.nonpolar>
-35.9244

> <Gold.PLP.part.repulsive>
0.4509

> <Gold.PLP.ligand.clash>
0.0000

> <Gold.PLP.ligand.torsion>
0.7724

> <Gold.PLP.Chemscore.Hbond>
2.8200

> <Gold.PLP.Chemscore.CHOScore>
0.0000

> <Gold.PLP.Chemscore.Metal>
0.0000

> <Gold.Chemscore.Hbonds>
donor molecule, donor type, donor heavy atom, donor atom, acceptor molecule, acceptor atom, score
      L1  H    21    44       P1 10186  0.68
      P1  H  7954  7966       L1     5  1.00
      P1  H 10785 10796       L1    21  1.00

> <Gold.PLP.Chemscore.Internal.Correction>
0.1002

> <Gold.Rescore>
     Score         DG    S(hbond)    S(metal)    S(lipo)     H(rot)  DE(clash)    DE(int)     intcor
     16.27     -17.56       2.34        0.00      91.47       2.52       0.47       0.82       ----

> <Gold.Chemscore.Fitness>
16.2688

> <Gold.Chemscore.DG>
-17.5567

> <Gold.Chemscore.ZeroCoef>
-5.4800

> <Gold.Chemscore.Hbond>
2.3400

> <Gold.Chemscore.Metal>
0.0000

> <Gold.Chemscore.Lipo>
91.4720

> <Gold.Chemscore.Internal_Hbond>
0.0000

> <Gold.Chemscore.DEClash>
0.4669

> <Gold.Chemscore.DEInternal>
0.8210

> <Gold.Chemscore.Rot>
2.5161

> <Gold.Chemscore.Internal.Correction>
   9.000000E+99

> <Gold.Chemscore.Hbonds>
donor molecule, donor type, donor heavy atom, donor atom, acceptor molecule, acceptor atom, score
      L1  H    21    44       P1 10186  0.69
      P1  H  7954  7966       L1     5  0.97
      P1  H 10785 10796       L1    21  0.43

> <Gold.Chemscore.Hbond.Weighted>
-7.8156

> <Gold.Chemscore.Metal.Weighted>
-0.0000

> <Gold.Chemscore.Lipo.Weighted>
-10.7022

> <Gold.Chemscore.Internal_Hbond.Weighted>
0.0000

> <Gold.Chemscore.DEClash.Weighted>
0.4669

> <Gold.Chemscore.DEInternal.Weighted>
0.8210

> <Gold.Chemscore.Rot.Weighted>
6.4412

> <Gold.Chemscore.Internal.Correction.Weighted>
   9.000000E+99

> <Gold.Protein.RotatedTorsions>
[ 6907 6896 6895 6894 ] final    4.97 input  -60.11 | X-H torsion
[ 7974 7965 7964 7962 ] final  -64.83 input  175.53 | X-H torsion
[ 8008 7997 7996 7995 ] final   73.52 input   59.86 | X-H torsion
[ 10167 10162 10161 10158 ] final   82.10 input  -65.29 | X-H torsion
[ 10718 10713 10712 10709 ] final  -98.48 input   66.30 | X-H torsion
[ 10763 10752 10751 10750 ] final  -83.45 input  -60.55 | X-H torsion
[ 11005 11000 10999 10996 ] final  106.15 input  -57.11 | X-H torsion

> <Gold.Protein.ActiveResidues>
 VAL166  LYS551  ARG553  GLY616  TRP617  ASP618  TYR619  PRO620  LYS621  CYS622 
 ASP623  PHE694  ASN695  SER759  ASP760  ASP761  ALA762  ILE779  LEU786  VAL792 
 PHE793  MET794  SER795  GLU796  ALA797  LYS798  CYS799  TRP800  GLU811  SER814 

> <Gold.Protein.RotatedAtoms>
  151.6500  135.1003  160.0158 H   0  0  0  0  0  0  0  0  0  0  0  0  # atno 6907 bound_to 6896
  152.4006  133.6808  159.6322 H   0  0  0  0  0  0  0  0  0  0  0  0  # atno 6908 bound_to 6896
  150.7907  133.8714  159.3301 H   0  0  0  0  0  0  0  0  0  0  0  0  # atno 6909 bound_to 6896
  145.7618  140.8857  143.0426 H   0  0  0  0  0  0  0  0  0  0  0  0  # atno 7974 bound_to 7965
  155.7849  140.3481  155.5317 H   0  0  0  0  0  0  0  0  0  0  0  0  # atno 8008 bound_to 7997
  155.8692  140.0984  157.1582 H   0  0  0  0  0  0  0  0  0  0  0  0  # atno 8009 bound_to 7997
  154.4016  140.1344  156.4044 H   0  0  0  0  0  0  0  0  0  0  0  0  # atno 8010 bound_to 7997
  139.9323  144.6144  150.8332 H   0  0  0  0  0  0  0  0  0  0  0  0  # atno 10167 bound_to 10162
  156.0109  130.5240  150.6529 H   0  0  0  0  0  0  0  0  0  0  0  0  # atno 10718 bound_to 10713
  154.5879  135.5555  153.7249 H   0  0  0  0  0  0  0  0  0  0  0  0  # atno 10763 bound_to 10752
  153.0105  135.6336  154.1890 H   0  0  0  0  0  0  0  0  0  0  0  0  # atno 10764 bound_to 10752
  154.1831  135.2886  155.3025 H   0  0  0  0  0  0  0  0  0  0  0  0  # atno 10765 bound_to 10752
  139.8810  134.9360  156.5623 H   0  0  0  0  0  0  0  0  0  0  0  0  # atno 11005 bound_to 11000
  144.6829  139.9734  143.7482 LP  0  0  0  0  0  0  0  0  0  0  0  0  # atno 17320 bound_to 7965
  146.0256  139.3289  143.0786 LP  0  0  0  0  0  0  0  0  0  0  0  0  # atno 17321 bound_to 7965
  140.7634  143.3222  151.2597 LP  0  0  0  0  0  0  0  0  0  0  0  0  # atno 17342 bound_to 10162
  139.6772  143.9917  152.2788 LP  0  0  0  0  0  0  0  0  0  0  0  0  # atno 17343 bound_to 10162
  157.4287  131.0846  151.1060 LP  0  0  0  0  0  0  0  0  0  0  0  0  # atno 17370 bound_to 10713
  157.1639  130.6238  149.5619 LP  0  0  0  0  0  0  0  0  0  0  0  0  # atno 17371 bound_to 10713
  140.8160  133.8391  155.8853 LP  0  0  0  0  0  0  0  0  0  0  0  0  # atno 17394 bound_to 11000
  140.9462  134.1837  157.4761 LP  0  0  0  0  0  0  0  0  0  0  0  0  # atno 17395 bound_to 11000

$$$$
