AV-unprocessed.smi:1644|AV-procd|sdf|6598|dock1
  -GOLD-   22720 7303D 1   1.00000     0.00000
 Structure written by MMmdl.
 49 51  0  0  0  0  0  0  0  0  3 V2000
  152.3482  143.9520  158.6063 C   0  0  0  0  0  0  0  0  0  0  0  0
  151.2744  143.6417  157.5575 C   0  0  0  0  0  0  0  0  0  0  0  0
  151.2842  142.1668  157.1234 C   0  0  0  0  0  0  0  0  0  0  0  0
  150.2087  141.8349  156.0668 C   0  0  2  0  0  0  0  0  0  0  0  0
  148.8795  141.8362  156.6426 N   0  5  0  0  0  0  0  0  0  0  0  0
  148.3292  140.6124  156.4683 C   0  0  0  0  0  0  0  0  0  0  0  0
  147.2042  140.2570  156.8181 O   0  0  0  0  0  0  0  0  0  0  0  0
  149.1812  139.7848  155.8330 N   0  0  0  0  0  0  0  0  0  0  0  0
  148.9070  138.3863  155.4822 C   0  0  0  0  0  0  0  0  0  0  0  0
  147.9075  138.2536  154.3149 C   0  0  1  0  0  0  0  0  0  0  0  0
  148.6292  138.4030  153.1084 O   0  0  0  0  0  0  0  0  0  0  0  0
  147.1370  136.9161  154.3165 C   0  0  0  0  0  0  0  0  0  0  0  0
  146.2612  136.7572  153.1478 N   0  0  0  0  0  0  0  0  0  0  0  0
  145.5491  137.6927  152.4640 C   0  0  0  0  0  0  0  0  0  0  0  0
  144.8878  137.0524  151.4604 N   0  3  0  0  0  0  0  0  0  0  0  0
  145.1830  135.6879  151.5044 C   0  0  0  0  0  0  0  0  0  0  0  0
  144.7549  134.6375  150.7010 C   0  0  0  0  0  0  0  0  0  0  0  0
  145.2459  133.3483  151.0086 C   0  0  0  0  0  0  0  0  0  0  0  0
  144.7969  132.1772  150.1513 C   0  0  0  0  0  0  0  0  0  0  0  0
  146.1401  133.1471  152.0918 C   0  0  0  0  0  0  0  0  0  0  0  0
  146.6660  131.7581  152.4111 C   0  0  0  0  0  0  0  0  0  0  0  0
  146.5626  134.2284  152.8972 C   0  0  0  0  0  0  0  0  0  0  0  0
  146.0662  135.4914  152.5834 C   0  0  0  0  0  0  0  0  0  0  0  0
  150.3277  140.4134  155.5555 C   0  0  0  0  0  0  0  0  0  0  0  0
  151.3168  139.9555  154.9823 O   0  0  0  0  0  0  0  0  0  0  0  0
  152.3194  145.0036  158.8922 H   0  0  0  0  0  0  0  0  0  0  0  0
  153.3463  143.7380  158.2232 H   0  0  0  0  0  0  0  0  0  0  0  0
  152.1997  143.3578  159.5083 H   0  0  0  0  0  0  0  0  0  0  0  0
  150.2957  143.9019  157.9623 H   0  0  0  0  0  0  0  0  0  0  0  0
  151.4267  144.2797  156.6864 H   0  0  0  0  0  0  0  0  0  0  0  0
  152.2704  141.9359  156.7179 H   0  0  0  0  0  0  0  0  0  0  0  0
  151.1624  141.5257  157.9985 H   0  0  0  0  0  0  0  0  0  0  0  0
  150.2962  142.5129  155.2168 H   0  0  0  0  0  0  0  0  0  0  0  0
  149.8491  137.9034  155.2160 H   0  0  0  0  0  0  0  0  0  0  0  0
  148.5393  137.8388  156.3518 H   0  0  0  0  0  0  0  0  0  0  0  0
  147.1907  139.0746  154.3597 H   0  0  0  0  0  0  0  0  0  0  0  0
  148.9360  137.5510  152.8375 H   0  0  0  0  0  0  0  0  0  0  0  0
  147.8183  136.0675  154.3763 H   0  0  0  0  0  0  0  0  0  0  0  0
  146.4969  136.8529  155.1971 H   0  0  0  0  0  0  0  0  0  0  0  0
  145.5148  138.7508  152.6801 H   0  0  0  0  0  0  0  0  0  0  0  0
  144.0762  134.7988  149.8764 H   0  0  0  0  0  0  0  0  0  0  0  0
  144.3047  131.4206  150.7630 H   0  0  0  0  0  0  0  0  0  0  0  0
  145.6511  131.7181  149.6529 H   0  0  0  0  0  0  0  0  0  0  0  0
  144.0912  132.4925  149.3820 H   0  0  0  0  0  0  0  0  0  0  0  0
  147.3542  131.7772  153.2569 H   0  0  0  0  0  0  0  0  0  0  0  0
  147.2012  131.3445  151.5560 H   0  0  0  0  0  0  0  0  0  0  0  0
  145.8448  131.0874  152.6650 H   0  0  0  0  0  0  0  0  0  0  0  0
  147.2476  134.0757  153.7182 H   0  0  0  0  0  0  0  0  0  0  0  0
  144.2810  137.5155  150.7962 H   0  0  0  0  0  0  0  0  0  0  0  0
  1  2  1  0  0  0  0
  1 26  1  0  0  0  0
  1 27  1  0  0  0  0
  1 28  1  0  0  0  0
  2  3  1  0  0  0  0
  2 29  1  0  0  0  0
  2 30  1  0  0  0  0
  3  4  1  0  0  0  0
  3 31  1  0  0  0  0
  3 32  1  0  0  0  0
  4 24  1  0  0  0  0
  4  5  1  0  0  0  0
  4 33  1  0  0  0  0
  5  6  1  0  0  0  0
  6  7  2  0  0  0  0
  6  8  1  0  0  0  0
  8  9  1  0  0  0  0
  8 24  1  0  0  0  0
  9 10  1  0  0  0  0
  9 34  1  0  0  0  0
  9 35  1  0  0  0  0
 10 11  1  0  0  0  0
 10 12  1  0  0  0  0
 10 36  1  0  0  0  0
 11 37  1  0  0  0  0
 12 13  1  0  0  0  0
 12 38  1  0  0  0  0
 12 39  1  0  0  0  0
 13 23  1  0  0  0  0
 13 14  1  0  0  0  0
 14 15  2  0  0  0  0
 14 40  1  0  0  0  0
 15 16  1  0  0  0  0
 15 49  1  0  0  0  0
 16 23  2  0  0  0  0
 16 17  1  0  0  0  0
 17 18  2  0  0  0  0
 17 41  1  0  0  0  0
 18 19  1  0  0  0  0
 18 20  1  0  0  0  0
 19 42  1  0  0  0  0
 19 43  1  0  0  0  0
 19 44  1  0  0  0  0
 20 21  1  0  0  0  0
 20 22  2  0  0  0  0
 21 45  1  0  0  0  0
 21 46  1  0  0  0  0
 21 47  1  0  0  0  0
 22 23  1  0  0  0  0
 22 48  1  0  0  0  0
 24 25  2  0  0  0  0
M  CHG  1   5  -1
M  CHG  1  15   1
M  END
> <s_m_source_file>
AV-unprocessed.smi

> <i_m_source_file_index>
1644

> <i_lp_mmshare_version>
43012

> <i_f3d_flags>
0

> <s_epik_input>
W0NIM11bQ0gyXVtDSDJdW0NAQEhdMVtOSF1DKD1PKU4oQzE9TylbQ0gyXVtDQEhdKFtPSF0pW0NIMl1uKFtjSF1uMiljKGMyMylbY0hdYyhbQ0gzXSljKFtjSF0zKVtDSDNd

> <s_epik_cmdline>
J2VwaWtfcHl0aG9uJywgJy1waCcsICc3LjAnLCAnLXRuJywgJzgnLCAnLW1hJywgJzIwMCcsICctbWV0YWxfYmluZGluZycsICctaW1hZScsICc8aW5maWxlLm1hZT4nLCAnLW9tYWUnLCAnPG91dGZpbGUubWFlPic=

> <r_lp_tautomer_probability>
1

> <r_epik_Ionization_Penalty>
6.86868

> <r_epik_Ionization_Penalty_Charging>
6.86868

> <r_epik_Ionization_Penalty_Neutral>
5.84798e-07

> <r_epik_State_Penalty>
6.92818

> <r_epik_Charging_Adjusted_Penalty>
13.7969

> <i_epik_Tot_Q>
0

> <i_epik_Tot_abs_Q>
2

> <r_epik_Metal_State_Penalty>
2.98017

> <b_epik_Metal_Only>
1

> <s_lp_Force_Field>
OPLS_2005

> <r_lp_Energy>
19.1239

> <b_lp_Chiralities_Consistent>
1

> <s_lp_Variant>
AV-unprocessed.smi:1644-15

> <Gold.Version>
5.8.1

> <Gold.Id.Protein>
6NUR|6NUR_protein|mol2

> <Gold.PLP.Fitness>
49.7486

> <Gold.PLP.PLP>
-39.2538

> <Gold.PLP.part.hbond>
-3.8044

> <Gold.PLP.part.metal>
0.0000

> <Gold.PLP.part.buried>
-5.4084

> <Gold.PLP.part.nonpolar>
-30.5664

> <Gold.PLP.part.repulsive>
0.2141

> <Gold.PLP.ligand.clash>
0.0000

> <Gold.PLP.ligand.torsion>
0.8164

> <Gold.PLP.Chemscore.Hbond>
3.0000

> <Gold.PLP.Chemscore.CHOScore>
0.9886

> <Gold.PLP.Chemscore.Metal>
0.0000

> <Gold.Chemscore.Hbonds>
donor molecule, donor type, donor heavy atom, donor atom, acceptor molecule, acceptor atom, score
      L1  H    11    37       P1  7948  1.00
      L1  H    15    49       P1 10171  0.94
      P1  H  7989  7998       L1    25  1.00
      L1  C    14    40       P1 10175  1.00

> <Gold.PLP.Chemscore.Internal.Correction>
0.1617

> <Gold.Rescore>
     Score         DG    S(hbond)    S(metal)    S(lipo)     H(rot)  DE(clash)    DE(int)     intcor
     17.86     -18.90       2.94        0.00      90.43       2.72       0.11       0.92       ----

> <Gold.Chemscore.Fitness>
17.8621

> <Gold.Chemscore.DG>
-18.8957

> <Gold.Chemscore.ZeroCoef>
-5.4800

> <Gold.Chemscore.Hbond>
2.9370

> <Gold.Chemscore.Metal>
0.0000

> <Gold.Chemscore.Lipo>
90.4342

> <Gold.Chemscore.Internal_Hbond>
0.0000

> <Gold.Chemscore.DEClash>
0.1128

> <Gold.Chemscore.DEInternal>
0.9208

> <Gold.Chemscore.Rot>
2.7245

> <Gold.Chemscore.Internal.Correction>
   9.000000E+99

> <Gold.Chemscore.Hbonds>
donor molecule, donor type, donor heavy atom, donor atom, acceptor molecule, acceptor atom, score
      L1  H    11    37       P1  7948  0.97
      L1  H    15    49       P1 10171  0.89
      P1  H  7989  7998       L1    25  0.74

> <Gold.Chemscore.Hbond.Weighted>
-9.8096

> <Gold.Chemscore.Metal.Weighted>
-0.0000

> <Gold.Chemscore.Lipo.Weighted>
-10.5808

> <Gold.Chemscore.Internal_Hbond.Weighted>
0.0000

> <Gold.Chemscore.DEClash.Weighted>
0.1128

> <Gold.Chemscore.DEInternal.Weighted>
0.9208

> <Gold.Chemscore.Rot.Weighted>
6.9748

> <Gold.Chemscore.Internal.Correction.Weighted>
   9.000000E+99

> <Gold.Protein.RotatedTorsions>
[ 6907 6896 6895 6894 ] final -155.90 input  -60.11 | X-H torsion
[ 7974 7965 7964 7962 ] final  128.14 input  175.53 | X-H torsion
[ 8008 7997 7996 7995 ] final  -80.70 input   59.86 | X-H torsion
[ 10167 10162 10161 10158 ] final   34.67 input  -65.29 | X-H torsion
[ 10718 10713 10712 10709 ] final  -17.27 input   66.30 | X-H torsion
[ 10763 10752 10751 10750 ] final  161.19 input  -60.55 | X-H torsion
[ 11005 11000 10999 10996 ] final   21.69 input  -57.11 | X-H torsion

> <Gold.Protein.ActiveResidues>
 VAL166  LYS551  ARG553  GLY616  TRP617  ASP618  TYR619  PRO620  LYS621  CYS622 
 ASP623  PHE694  ASN695  SER759  ASP760  ASP761  ALA762  ILE779  LEU786  VAL792 
 PHE793  MET794  SER795  GLU796  ALA797  LYS798  CYS799  TRP800  GLU811  SER814 

> <Gold.Protein.RotatedAtoms>
  151.2794  133.4217  159.2625 H   0  0  0  0  0  0  0  0  0  0  0  0  # atno 6907 bound_to 6896
  151.0374  134.9583  159.8153 H   0  0  0  0  0  0  0  0  0  0  0  0  # atno 6908 bound_to 6896
  152.5358  134.2753  159.9039 H   0  0  0  0  0  0  0  0  0  0  0  0  # atno 6909 bound_to 6896
  145.0428  139.3948  143.5093 H   0  0  0  0  0  0  0  0  0  0  0  0  # atno 7974 bound_to 7965
  154.5909  140.0659  156.9237 H   0  0  0  0  0  0  0  0  0  0  0  0  # atno 8008 bound_to 7997
  155.2297  140.3336  155.4286 H   0  0  0  0  0  0  0  0  0  0  0  0  # atno 8009 bound_to 7997
  156.2255  140.1817  156.7358 H   0  0  0  0  0  0  0  0  0  0  0  0  # atno 8010 bound_to 7997
  140.4293  144.1347  150.6157 H   0  0  0  0  0  0  0  0  0  0  0  0  # atno 10167 bound_to 10162
  156.5759  130.4761  149.6342 H   0  0  0  0  0  0  0  0  0  0  0  0  # atno 10718 bound_to 10713
  154.2592  135.2769  155.2785 H   0  0  0  0  0  0  0  0  0  0  0  0  # atno 10763 bound_to 10752
  154.5399  135.5706  153.6833 H   0  0  0  0  0  0  0  0  0  0  0  0  # atno 10764 bound_to 10752
  152.9965  135.6248  154.2742 H   0  0  0  0  0  0  0  0  0  0  0  0  # atno 10765 bound_to 10752
  140.3888  134.1841  155.7663 H   0  0  0  0  0  0  0  0  0  0  0  0  # atno 11005 bound_to 11000
  146.3511  140.0038  142.8673 LP  0  0  0  0  0  0  0  0  0  0  0  0  # atno 17320 bound_to 7965
  145.1626  140.9680  143.4368 LP  0  0  0  0  0  0  0  0  0  0  0  0  # atno 17321 bound_to 7965
  140.4445  143.2512  151.9429 LP  0  0  0  0  0  0  0  0  0  0  0  0  # atno 17342 bound_to 10162
  139.4784  144.5622  151.8221 LP  0  0  0  0  0  0  0  0  0  0  0  0  # atno 17343 bound_to 10162
  156.2674  130.6997  151.1784 LP  0  0  0  0  0  0  0  0  0  0  0  0  # atno 17370 bound_to 10713
  157.7337  131.0588  150.5560 LP  0  0  0  0  0  0  0  0  0  0  0  0  # atno 17371 bound_to 10713
  141.1898  133.8231  157.0943 LP  0  0  0  0  0  0  0  0  0  0  0  0  # atno 17394 bound_to 11000
  140.0422  134.9848  157.0983 LP  0  0  0  0  0  0  0  0  0  0  0  0  # atno 17395 bound_to 11000

$$$$
