AV-unprocessed.smi:1279|AV-procd|sdf|5355|dock7
  -GOLD-   22720 4493D 1   1.00000     0.00000
 Structure written by MMmdl.
 46 47  0  0  0  0  0  0  0  0  2 V2000
  151.9327  141.4620  158.0520 C   0  0  0  0  0  0  0  0  0  0  0  0
  151.5478  140.7009  156.8179 C   0  0  0  0  0  0  0  0  0  0  0  0
  150.3547  140.8222  156.0475 C   0  0  0  0  0  0  0  0  0  0  0  0
  150.5415  139.8980  155.0562 C   0  0  0  0  0  0  0  0  0  0  0  0
  149.7207  139.5762  154.0212 N   0  0  0  0  0  0  0  0  0  0  0  0
  148.4579  139.1165  154.0619 C   0  0  0  0  0  0  0  0  0  0  0  0
  147.8052  138.9043  155.0841 O   0  0  0  0  0  0  0  0  0  0  0  0
  147.9791  138.9049  152.8275 N   0  0  0  0  0  0  0  0  0  0  0  0
  146.6390  138.4159  152.5236 C   0  0  0  0  0  0  0  0  0  0  0  0
  146.2921  137.1604  153.3476 C   0  0  0  0  0  0  0  0  0  0  0  0
  146.2824  135.9254  152.5235 N   0  3  2  0  0  0  0  0  0  0  0  0
  145.1747  135.9214  151.5329 C   0  0  0  0  0  0  0  0  0  0  0  0
  145.2630  134.7007  150.6015 C   0  0  0  0  0  0  0  0  0  0  0  0
  145.2680  133.3873  151.4008 C   0  0  1  0  0  0  0  0  0  0  0  0
  145.3871  132.1622  150.4832 C   0  0  0  0  0  0  0  0  0  0  0  0
  146.4013  133.4331  152.4389 C   0  0  0  0  0  0  0  0  0  0  0  0
  146.2899  134.6784  153.3343 C   0  0  0  0  0  0  0  0  0  0  0  0
  151.7616  139.2867  155.2416 N   0  0  0  0  0  0  0  0  0  0  0  0
  152.4035  138.2514  154.4551 C   0  0  0  0  0  0  0  0  0  0  0  0
  152.3807  139.7870  156.3326 N   0  0  0  0  0  0  0  0  0  0  0  0
  151.1525  142.1672  158.3392 H   0  0  0  0  0  0  0  0  0  0  0  0
  152.8506  142.0289  157.8936 H   0  0  0  0  0  0  0  0  0  0  0  0
  152.0966  140.7885  158.8936 H   0  0  0  0  0  0  0  0  0  0  0  0
  149.5176  141.4837  156.2122 H   0  0  0  0  0  0  0  0  0  0  0  0
  150.1243  139.6907  153.1031 H   0  0  0  0  0  0  0  0  0  0  0  0
  148.5806  139.1070  152.0420 H   0  0  0  0  0  0  0  0  0  0  0  0
  145.9062  139.2050  152.7013 H   0  0  0  0  0  0  0  0  0  0  0  0
  146.6114  138.2019  151.4560 H   0  0  0  0  0  0  0  0  0  0  0  0
  146.9814  137.0416  154.1852 H   0  0  0  0  0  0  0  0  0  0  0  0
  145.3018  137.2999  153.7834 H   0  0  0  0  0  0  0  0  0  0  0  0
  144.2169  135.9282  152.0557 H   0  0  0  0  0  0  0  0  0  0  0  0
  145.2139  136.8299  150.9308 H   0  0  0  0  0  0  0  0  0  0  0  0
  144.4240  134.7107  149.9048 H   0  0  0  0  0  0  0  0  0  0  0  0
  146.1678  134.7699  149.9956 H   0  0  0  0  0  0  0  0  0  0  0  0
  144.3197  133.3104  151.9350 H   0  0  0  0  0  0  0  0  0  0  0  0
  146.3212  132.1758  149.9206 H   0  0  0  0  0  0  0  0  0  0  0  0
  144.5669  132.1281  149.7656 H   0  0  0  0  0  0  0  0  0  0  0  0
  145.3587  131.2366  151.0591 H   0  0  0  0  0  0  0  0  0  0  0  0
  146.3775  132.5348  153.0570 H   0  0  0  0  0  0  0  0  0  0  0  0
  147.3682  133.4339  151.9334 H   0  0  0  0  0  0  0  0  0  0  0  0
  147.1266  134.6823  154.0316 H   0  0  0  0  0  0  0  0  0  0  0  0
  145.3800  134.6276  153.9344 H   0  0  0  0  0  0  0  0  0  0  0  0
  151.6981  137.4418  154.2657 H   0  0  0  0  0  0  0  0  0  0  0  0
  153.2670  137.8468  154.9855 H   0  0  0  0  0  0  0  0  0  0  0  0
  152.7336  138.6681  153.5035 H   0  0  0  0  0  0  0  0  0  0  0  0
  147.1376  135.9343  151.9859 H   0  0  0  0  0  0  0  0  0  0  0  0
  1  2  1  0  0  0  0
  1 21  1  0  0  0  0
  1 22  1  0  0  0  0
  1 23  1  0  0  0  0
  2 20  2  0  0  0  0
  2  3  1  0  0  0  0
  3  4  2  0  0  0  0
  3 24  1  0  0  0  0
  4  5  1  0  0  0  0
  4 18  1  0  0  0  0
  5  6  1  0  0  0  0
  5 25  1  0  0  0  0
  6  7  2  0  0  0  0
  6  8  1  0  0  0  0
  8  9  1  0  0  0  0
  8 26  1  0  0  0  0
  9 10  1  0  0  0  0
  9 27  1  0  0  0  0
  9 28  1  0  0  0  0
 10 11  1  0  0  0  0
 10 29  1  0  0  0  0
 10 30  1  0  0  0  0
 11 17  1  0  0  0  0
 11 12  1  0  0  0  0
 11 46  1  0  0  0  0
 12 13  1  0  0  0  0
 12 31  1  0  0  0  0
 12 32  1  0  0  0  0
 13 14  1  0  0  0  0
 13 33  1  0  0  0  0
 13 34  1  0  0  0  0
 14 15  1  0  0  0  0
 14 16  1  0  0  0  0
 14 35  1  0  0  0  0
 15 36  1  0  0  0  0
 15 37  1  0  0  0  0
 15 38  1  0  0  0  0
 16 17  1  0  0  0  0
 16 39  1  0  0  0  0
 16 40  1  0  0  0  0
 17 41  1  0  0  0  0
 17 42  1  0  0  0  0
 18 19  1  0  0  0  0
 18 20  1  0  0  0  0
 19 43  1  0  0  0  0
 19 44  1  0  0  0  0
 19 45  1  0  0  0  0
M  CHG  1  11   1
M  END
> <s_m_source_file>
AV-unprocessed.smi

> <i_m_source_file_index>
1279

> <i_lp_mmshare_version>
43012

> <i_f3d_flags>
0

> <s_epik_input>
W0NIM11jMVtjSF1jKG4objEpW0NIM10pW05IXUMoPU8pW05IXVtDSDJdW0NIMl1OMltDSDJdW0NIMl1bQ0hdKFtDSDNdKVtDSDJdW0NIMl0y

> <s_epik_cmdline>
J2VwaWtfcHl0aG9uJywgJy1waCcsICc3LjAnLCAnLXRuJywgJzgnLCAnLW1hJywgJzIwMCcsICctbWV0YWxfYmluZGluZycsICctaW1hZScsICc8aW5maWxlLm1hZT4nLCAnLW9tYWUnLCAnPG91dGZpbGUubWFlPic=

> <r_lp_tautomer_probability>
1

> <r_epik_Ionization_Penalty>
0.00166091

> <r_epik_Ionization_Penalty_Charging>
0.0015841

> <r_epik_Ionization_Penalty_Neutral>
7.68112e-05

> <r_epik_State_Penalty>
0.00106518

> <r_epik_Charging_Adjusted_Penalty>
0.00264928

> <i_epik_Tot_Q>
1

> <i_epik_Tot_abs_Q>
1

> <r_epik_Metal_State_Penalty>
-0

> <b_epik_Metal_Only>
0

> <s_lp_Force_Field>
OPLS_2005

> <r_lp_Energy>
17.7032

> <b_lp_Chiralities_Consistent>
1

> <s_lp_Variant>
AV-unprocessed.smi:1279-1

> <Gold.Version>
5.8.1

> <Gold.Id.Protein>
6NUR|6NUR_protein|mol2

> <Gold.PLP.Fitness>
50.7807

> <Gold.PLP.PLP>
-38.1067

> <Gold.PLP.part.hbond>
-4.9963

> <Gold.PLP.part.metal>
0.0000

> <Gold.PLP.part.buried>
-3.2973

> <Gold.PLP.part.nonpolar>
-30.2047

> <Gold.PLP.part.repulsive>
0.2721

> <Gold.PLP.ligand.clash>
0.0000

> <Gold.PLP.ligand.torsion>
1.0019

> <Gold.PLP.Chemscore.Hbond>
4.8800

> <Gold.PLP.Chemscore.CHOScore>
0.0000

> <Gold.PLP.Chemscore.Metal>
0.0000

> <Gold.Chemscore.Hbonds>
donor molecule, donor type, donor heavy atom, donor atom, acceptor molecule, acceptor atom, score
      L1  H     5    25       P1  7957  0.84
      L1  H     8    26       P1  7957  1.00
      L1  H    11    46       P1  7948  2.00
      P1  H  7997  8008       L1    20  1.00

> <Gold.PLP.Chemscore.Internal.Correction>
0.0377

> <Gold.Rescore>
     Score         DG    S(hbond)    S(metal)    S(lipo)     H(rot)  DE(clash)    DE(int)     intcor
     20.29     -23.12       3.74        0.00      76.37       1.48       0.56       2.27       ----

> <Gold.Chemscore.Fitness>
20.2934

> <Gold.Chemscore.DG>
-23.1208

> <Gold.Chemscore.ZeroCoef>
-5.4800

> <Gold.Chemscore.Hbond>
3.7437

> <Gold.Chemscore.Metal>
0.0000

> <Gold.Chemscore.Lipo>
76.3704

> <Gold.Chemscore.Internal_Hbond>
0.0000

> <Gold.Chemscore.DEClash>
0.5590

> <Gold.Chemscore.DEInternal>
2.2683

> <Gold.Chemscore.Rot>
1.4838

> <Gold.Chemscore.Internal.Correction>
   9.000000E+99

> <Gold.Chemscore.Hbonds>
donor molecule, donor type, donor heavy atom, donor atom, acceptor molecule, acceptor atom, score
      L1  H     5    25       P1  7957  0.78
      L1  H     8    26       P1  7957  0.97
      L1  H    11    46       P1  7948  0.96
      P1  H  7997  8008       L1    20  0.94

> <Gold.Chemscore.Hbond.Weighted>
-12.5039

> <Gold.Chemscore.Metal.Weighted>
-0.0000

> <Gold.Chemscore.Lipo.Weighted>
-8.9353

> <Gold.Chemscore.Internal_Hbond.Weighted>
0.0000

> <Gold.Chemscore.DEClash.Weighted>
0.5590

> <Gold.Chemscore.DEInternal.Weighted>
2.2683

> <Gold.Chemscore.Rot.Weighted>
3.7985

> <Gold.Chemscore.Internal.Correction.Weighted>
   9.000000E+99

> <Gold.Protein.RotatedTorsions>
[ 6907 6896 6895 6894 ] final -150.56 input  -60.11 | X-H torsion
[ 7974 7965 7964 7962 ] final -146.06 input  175.53 | X-H torsion
[ 8008 7997 7996 7995 ] final  -43.90 input   59.86 | X-H torsion
[ 10167 10162 10161 10158 ] final  -29.58 input  -65.29 | X-H torsion
[ 10718 10713 10712 10709 ] final  122.35 input   66.30 | X-H torsion
[ 10763 10752 10751 10750 ] final  -34.11 input  -60.55 | X-H torsion
[ 11005 11000 10999 10996 ] final  142.98 input  -57.11 | X-H torsion

> <Gold.Protein.ActiveResidues>
 VAL166  LYS551  ARG553  GLY616  TRP617  ASP618  TYR619  PRO620  LYS621  CYS622 
 ASP623  PHE694  ASN695  SER759  ASP760  ASP761  ALA762  ILE779  LEU786  VAL792 
 PHE793  MET794  SER795  GLU796  ALA797  LYS798  CYS799  TRP800  GLU811  SER814 

> <Gold.Protein.RotatedAtoms>
  151.2003  133.4615  159.2595 H   0  0  0  0  0  0  0  0  0  0  0  0  # atno 6907 bound_to 6896
  151.1076  135.0008  159.8489 H   0  0  0  0  0  0  0  0  0  0  0  0  # atno 6908 bound_to 6896
  152.5448  134.1925  159.8732 H   0  0  0  0  0  0  0  0  0  0  0  0  # atno 6909 bound_to 6896
  144.8185  140.5504  143.5595 H   0  0  0  0  0  0  0  0  0  0  0  0  # atno 7974 bound_to 7965
  154.3997  140.1436  156.3595 H   0  0  0  0  0  0  0  0  0  0  0  0  # atno 8008 bound_to 7997
  155.8194  140.3470  155.5484 H   0  0  0  0  0  0  0  0  0  0  0  0  # atno 8009 bound_to 7997
  155.8304  140.0911  157.1786 H   0  0  0  0  0  0  0  0  0  0  0  0  # atno 8010 bound_to 7997
  140.7259  143.3917  151.1418 H   0  0  0  0  0  0  0  0  0  0  0  0  # atno 10167 bound_to 10162
  157.5749  131.1080  150.8297 H   0  0  0  0  0  0  0  0  0  0  0  0  # atno 10718 bound_to 10713
  153.8412  135.6857  153.4802 H   0  0  0  0  0  0  0  0  0  0  0  0  # atno 10763 bound_to 10752
  153.1452  135.4641  154.9554 H   0  0  0  0  0  0  0  0  0  0  0  0  # atno 10764 bound_to 10752
  154.7844  135.3279  154.7866 H   0  0  0  0  0  0  0  0  0  0  0  0  # atno 10765 bound_to 10752
  140.0518  134.9251  157.1031 H   0  0  0  0  0  0  0  0  0  0  0  0  # atno 11005 bound_to 11000
  145.5160  139.1478  143.3578 LP  0  0  0  0  0  0  0  0  0  0  0  0  # atno 17320 bound_to 7965
  146.2489  140.5301  142.8902 LP  0  0  0  0  0  0  0  0  0  0  0  0  # atno 17321 bound_to 7965
  139.7523  143.8760  152.3080 LP  0  0  0  0  0  0  0  0  0  0  0  0  # atno 17342 bound_to 10162
  139.8618  144.7113  150.9091 LP  0  0  0  0  0  0  0  0  0  0  0  0  # atno 17343 bound_to 10162
  156.8759  130.5162  149.5294 LP  0  0  0  0  0  0  0  0  0  0  0  0  # atno 17370 bound_to 10713
  156.0794  130.5808  150.9534 LP  0  0  0  0  0  0  0  0  0  0  0  0  # atno 17371 bound_to 10713
  140.3905  134.2189  155.7166 LP  0  0  0  0  0  0  0  0  0  0  0  0  # atno 17394 bound_to 11000
  141.1934  133.8152  157.0801 LP  0  0  0  0  0  0  0  0  0  0  0  0  # atno 17395 bound_to 11000

$$$$
