AV-unprocessed.smi:2445|AV-procd|sdf|9639|dock10
  -GOLD-   2272013273D 1   1.00000     0.00000
 Structure written by MMmdl.
 40 41  0  0  0  0  0  0  0  0  1 V2000
  150.8898  142.7485  158.8210 C   0  0  0  0  0  0  0  0  0  0  0  0
  151.3695  141.5086  158.1455 C   0  0  0  0  0  0  0  0  0  0  0  0
  152.3437  140.6414  158.5737 C   0  0  0  0  0  0  0  0  0  0  0  0
  152.5600  139.5653  157.7106 N   0  0  0  0  0  0  0  0  0  0  0  0
  151.7674  139.6040  156.6360 C   0  0  0  0  0  0  0  0  0  0  0  0
  151.8000  138.5816  155.5403 C   0  0  2  0  0  0  0  0  0  0  0  0
  153.1738  138.5119  154.8584 C   0  0  0  0  0  0  0  0  0  0  0  0
  150.6375  138.7380  154.5406 C   0  0  0  0  0  0  0  0  0  0  0  0
  150.0623  137.4435  154.1861 N   0  0  0  0  0  0  0  0  0  0  0  0
  149.9188  136.4069  155.0217 C   0  0  0  0  0  0  0  0  0  0  0  0
  150.2271  136.4284  156.2133 O   0  0  0  0  0  0  0  0  0  0  0  0
  149.4007  135.3395  154.4003 N   0  0  0  0  0  0  0  0  0  0  0  0
  149.1378  134.0542  155.0381 C   0  0  1  0  0  0  0  0  0  0  0  0
  148.3927  133.0907  154.1347 C   0  0  0  0  0  0  0  0  0  0  0  0
  148.7798  131.7354  154.7200 C   0  0  0  0  0  0  0  0  0  0  0  0
  150.0600  131.9095  155.3212 O   0  0  0  0  0  0  0  0  0  0  0  0
  150.4343  133.2832  155.2979 C   0  0  2  0  0  0  0  0  0  0  0  0
  151.1404  133.6690  156.6028 C   0  0  0  0  0  0  0  0  0  0  0  0
  150.6881  140.9945  156.6247 S   0  0  0  0  0  0  0  0  0  0  0  0
  151.4144  142.9112  159.7630 H   0  0  0  0  0  0  0  0  0  0  0  0
  149.8234  142.6826  159.0368 H   0  0  0  0  0  0  0  0  0  0  0  0
  151.0539  143.6213  158.1888 H   0  0  0  0  0  0  0  0  0  0  0  0
  152.9311  140.7119  159.4774 H   0  0  0  0  0  0  0  0  0  0  0  0
  151.6568  137.6155  156.0263 H   0  0  0  0  0  0  0  0  0  0  0  0
  153.9611  138.3050  155.5840 H   0  0  0  0  0  0  0  0  0  0  0  0
  153.4179  139.4509  154.3606 H   0  0  0  0  0  0  0  0  0  0  0  0
  153.2004  137.7216  154.1079 H   0  0  0  0  0  0  0  0  0  0  0  0
  149.8749  139.3852  154.9777 H   0  0  0  0  0  0  0  0  0  0  0  0
  150.9828  139.2302  153.6309 H   0  0  0  0  0  0  0  0  0  0  0  0
  149.7750  137.3220  153.2260 H   0  0  0  0  0  0  0  0  0  0  0  0
  149.1809  135.4159  153.4180 H   0  0  0  0  0  0  0  0  0  0  0  0
  148.5879  134.1864  155.9723 H   0  0  0  0  0  0  0  0  0  0  0  0
  147.3150  133.2569  154.1242 H   0  0  0  0  0  0  0  0  0  0  0  0
  148.7588  133.1674  153.1096 H   0  0  0  0  0  0  0  0  0  0  0  0
  148.0734  131.4418  155.4973 H   0  0  0  0  0  0  0  0  0  0  0  0
  148.7979  130.9486  153.9655 H   0  0  0  0  0  0  0  0  0  0  0  0
  151.1168  133.4153  154.4563 H   0  0  0  0  0  0  0  0  0  0  0  0
  151.4204  134.7226  156.6003 H   0  0  0  0  0  0  0  0  0  0  0  0
  152.0491  133.0831  156.7414 H   0  0  0  0  0  0  0  0  0  0  0  0
  150.4965  133.4951  157.4654 H   0  0  0  0  0  0  0  0  0  0  0  0
  1  2  1  0  0  0  0
  1 20  1  0  0  0  0
  1 21  1  0  0  0  0
  1 22  1  0  0  0  0
  2 19  1  0  0  0  0
  2  3  2  0  0  0  0
  3  4  1  0  0  0  0
  3 23  1  0  0  0  0
  4  5  2  0  0  0  0
  5  6  1  0  0  0  0
  5 19  1  0  0  0  0
  6  7  1  0  0  0  0
  6  8  1  0  0  0  0
  6 24  1  0  0  0  0
  7 25  1  0  0  0  0
  7 26  1  0  0  0  0
  7 27  1  0  0  0  0
  8  9  1  0  0  0  0
  8 28  1  0  0  0  0
  8 29  1  0  0  0  0
  9 10  1  0  0  0  0
  9 30  1  0  0  0  0
 10 11  2  0  0  0  0
 10 12  1  0  0  0  0
 12 13  1  0  0  0  0
 12 31  1  0  0  0  0
 13 17  1  0  0  0  0
 13 14  1  0  0  0  0
 13 32  1  0  0  0  0
 14 15  1  0  0  0  0
 14 33  1  0  0  0  0
 14 34  1  0  0  0  0
 15 16  1  0  0  0  0
 15 35  1  0  0  0  0
 15 36  1  0  0  0  0
 16 17  1  0  0  0  0
 17 18  1  0  0  0  0
 17 37  1  0  0  0  0
 18 38  1  0  0  0  0
 18 39  1  0  0  0  0
 18 40  1  0  0  0  0
M  END
> <s_m_source_file>
AV-unprocessed.smi

> <i_m_source_file_index>
2445

> <i_lp_mmshare_version>
43012

> <i_f3d_flags>
0

> <s_epik_input>
W0NIM11jMVtjSF1uYyhzMSlbQ0BIXShbQ0gzXSlbQ0gyXVtOSF1DKD1PKVtOSF1bQ0BASF0yW0NIMl1bQ0gyXU9bQ0BIXTJbQ0gzXQ==

> <s_epik_cmdline>
J2VwaWtfcHl0aG9uJywgJy1waCcsICc3LjAnLCAnLXRuJywgJzgnLCAnLW1hJywgJzIwMCcsICctbWV0YWxfYmluZGluZycsICctaW1hZScsICc8aW5maWxlLm1hZT4nLCAnLW9tYWUnLCAnPG91dGZpbGUubWFlPic=

> <r_epik_Ionization_Penalty>
0.000649483

> <r_epik_Ionization_Penalty_Charging>
0

> <r_epik_Ionization_Penalty_Neutral>
0.000649483

> <r_epik_State_Penalty>
0.000379895

> <r_epik_Charging_Adjusted_Penalty>
0.000379895

> <i_epik_Tot_Q>
0

> <i_epik_Tot_abs_Q>
0

> <r_epik_Metal_State_Penalty>
-0

> <b_epik_Metal_Only>
0

> <s_lp_Force_Field>
OPLS_2005

> <r_lp_Energy>
6.75485

> <b_lp_Chiralities_Consistent>
1

> <s_lp_Variant>
AV-unprocessed.smi:2445-7

> <Gold.Version>
5.8.1

> <Gold.Id.Protein>
6NUR|6NUR_protein|mol2

> <Gold.PLP.Fitness>
40.5171

> <Gold.PLP.PLP>
-33.1733

> <Gold.PLP.part.hbond>
-3.4347

> <Gold.PLP.part.metal>
0.0000

> <Gold.PLP.part.buried>
-4.1537

> <Gold.PLP.part.nonpolar>
-25.3775

> <Gold.PLP.part.repulsive>
0.1184

> <Gold.PLP.ligand.clash>
0.0000

> <Gold.PLP.ligand.torsion>
0.8922

> <Gold.PLP.Chemscore.Hbond>
3.0000

> <Gold.PLP.Chemscore.CHOScore>
0.0000

> <Gold.PLP.Chemscore.Metal>
0.0000

> <Gold.Chemscore.Hbonds>
donor molecule, donor type, donor heavy atom, donor atom, acceptor molecule, acceptor atom, score
      L1  H     9    30       P1  7948  1.00
      L1  H    12    31       P1  7948  1.00
      P1  H  7997  8009       L1     4  0.63

> <Gold.PLP.Chemscore.Internal.Correction>
0.1281

> <Gold.Rescore>
     Score         DG    S(hbond)    S(metal)    S(lipo)     H(rot)  DE(clash)    DE(int)     intcor
     14.87     -17.96       1.81        0.00      88.61       1.53       0.20       2.88       ----

> <Gold.Chemscore.Fitness>
14.8680

> <Gold.Chemscore.DG>
-17.9563

> <Gold.Chemscore.ZeroCoef>
-5.4800

> <Gold.Chemscore.Hbond>
1.8059

> <Gold.Chemscore.Metal>
0.0000

> <Gold.Chemscore.Lipo>
88.6144

> <Gold.Chemscore.Internal_Hbond>
0.0000

> <Gold.Chemscore.DEClash>
0.2043

> <Gold.Chemscore.DEInternal>
2.8839

> <Gold.Chemscore.Rot>
1.5325

> <Gold.Chemscore.Internal.Correction>
   9.000000E+99

> <Gold.Chemscore.Hbonds>
donor molecule, donor type, donor heavy atom, donor atom, acceptor molecule, acceptor atom, score
      L1  H     9    30       P1  7948  0.52
      L1  H    12    31       P1  7948  0.39
      P1  H  7997  8009       L1     4  0.05

> <Gold.Chemscore.Hbond.Weighted>
-6.0317

> <Gold.Chemscore.Metal.Weighted>
-0.0000

> <Gold.Chemscore.Lipo.Weighted>
-10.3679

> <Gold.Chemscore.Internal_Hbond.Weighted>
0.0000

> <Gold.Chemscore.DEClash.Weighted>
0.2043

> <Gold.Chemscore.DEInternal.Weighted>
2.8839

> <Gold.Chemscore.Rot.Weighted>
3.9233

> <Gold.Chemscore.Internal.Correction.Weighted>
   9.000000E+99

> <Gold.Protein.RotatedTorsions>
[ 6907 6896 6895 6894 ] final  -45.66 input  -60.11 | X-H torsion
[ 7974 7965 7964 7962 ] final  -13.51 input  175.53 | X-H torsion
[ 8008 7997 7996 7995 ] final  175.44 input   59.86 | X-H torsion
[ 10167 10162 10161 10158 ] final   32.04 input  -65.29 | X-H torsion
[ 10718 10713 10712 10709 ] final   -9.09 input   66.30 | X-H torsion
[ 10763 10752 10751 10750 ] final   -6.93 input  -60.55 | X-H torsion
[ 11005 11000 10999 10996 ] final  106.15 input  -57.11 | X-H torsion

> <Gold.Protein.ActiveResidues>
 VAL166  LYS551  ARG553  GLY616  TRP617  ASP618  TYR619  PRO620  LYS621  CYS622 
 ASP623  PHE694  ASN695  SER759  ASP760  ASP761  ALA762  ILE779  LEU786  VAL792 
 PHE793  MET794  SER795  GLU796  ALA797  LYS798  CYS799  TRP800  GLU811  SER814 

> <Gold.Protein.RotatedAtoms>
  150.9195  134.8613  159.7479 H   0  0  0  0  0  0  0  0  0  0  0  0  # atno 6907 bound_to 6896
  152.4985  134.4239  159.9499 H   0  0  0  0  0  0  0  0  0  0  0  0  # atno 6908 bound_to 6896
  151.4274  133.3641  159.2799 H   0  0  0  0  0  0  0  0  0  0  0  0  # atno 6909 bound_to 6896
  146.2111  140.3213  142.8390 H   0  0  0  0  0  0  0  0  0  0  0  0  # atno 7974 bound_to 7965
  156.0870  140.1409  156.9640 H   0  0  0  0  0  0  0  0  0  0  0  0  # atno 8008 bound_to 7997
  154.4619  140.0940  156.6963 H   0  0  0  0  0  0  0  0  0  0  0  0  # atno 8009 bound_to 7997
  155.4982  140.3450  155.4369 H   0  0  0  0  0  0  0  0  0  0  0  0  # atno 8010 bound_to 7997
  140.4535  144.1013  150.6196 H   0  0  0  0  0  0  0  0  0  0  0  0  # atno 10167 bound_to 10162
  156.6931  130.5071  149.5938 H   0  0  0  0  0  0  0  0  0  0  0  0  # atno 10718 bound_to 10713
  153.4193  135.7009  153.6305 H   0  0  0  0  0  0  0  0  0  0  0  0  # atno 10763 bound_to 10752
  153.4767  135.3703  155.2420 H   0  0  0  0  0  0  0  0  0  0  0  0  # atno 10764 bound_to 10752
  154.8721  135.4056  154.3558 H   0  0  0  0  0  0  0  0  0  0  0  0  # atno 10765 bound_to 10752
  139.8810  134.9360  156.5623 H   0  0  0  0  0  0  0  0  0  0  0  0  # atno 11005 bound_to 11000
  144.8918  140.7533  143.5922 LP  0  0  0  0  0  0  0  0  0  0  0  0  # atno 17320 bound_to 7965
  145.3136  139.1811  143.4625 LP  0  0  0  0  0  0  0  0  0  0  0  0  # atno 17321 bound_to 7965
  140.4179  143.2625  151.9752 LP  0  0  0  0  0  0  0  0  0  0  0  0  # atno 17342 bound_to 10162
  139.4799  144.5857  151.7857 LP  0  0  0  0  0  0  0  0  0  0  0  0  # atno 17343 bound_to 10162
  156.1783  130.6482  151.0921 LP  0  0  0  0  0  0  0  0  0  0  0  0  # atno 17370 bound_to 10713
  157.7001  131.0779  150.6846 LP  0  0  0  0  0  0  0  0  0  0  0  0  # atno 17371 bound_to 10713
  140.8160  133.8391  155.8853 LP  0  0  0  0  0  0  0  0  0  0  0  0  # atno 17394 bound_to 11000
  140.9462  134.1837  157.4761 LP  0  0  0  0  0  0  0  0  0  0  0  0  # atno 17395 bound_to 11000

$$$$
