AV-unprocessed.smi:1384|AV-procd|sdf|5626|dock4
  -GOLD-   22720 5243D 1   1.00000     0.00000
 Structure written by MMmdl.
 41 42  0  0  0  0  0  0  0  0  1 V2000
  151.9186  144.9786  159.2094 C   0  0  0  0  0  0  0  0  0  0  0  0
  151.9649  143.4668  159.4726 C   0  0  2  0  0  0  0  0  0  0  0  0
  153.2656  143.0576  160.1891 C   0  0  0  0  0  0  0  0  0  0  0  0
  153.3143  141.5441  160.4539 C   0  0  0  0  0  0  0  0  0  0  0  0
  153.1380  140.7363  159.1518 C   0  0  1  0  0  0  0  0  0  0  0  0
  153.1041  139.3041  159.4324 N   0  0  0  0  0  0  0  0  0  0  0  0
  154.1089  138.5900  159.9615 C   0  0  0  0  0  0  0  0  0  0  0  0
  155.1908  139.0831  160.2834 O   0  0  0  0  0  0  0  0  0  0  0  0
  153.8260  137.0945  160.1667 C   0  0  0  0  0  0  0  0  0  0  0  0
  154.0645  136.6294  161.5442 N   0  0  0  0  0  0  0  0  0  0  0  0
  153.9423  137.5865  162.5672 C   0  0  0  0  0  0  0  0  0  0  0  0
  154.1343  137.2711  163.8550 C   0  0  0  0  0  0  0  0  0  0  0  0
  154.4707  135.9067  164.1800 C   0  0  0  0  0  0  0  0  0  0  0  0
  154.6029  134.9652  163.2171 C   0  0  0  0  0  0  0  0  0  0  0  0
  154.9466  133.5141  163.5461 C   0  0  0  0  0  0  0  0  0  0  0  0
  153.9758  132.6949  163.1399 F   0  0  0  0  0  0  0  0  0  0  0  0
  156.0773  133.1541  162.9382 F   0  0  0  0  0  0  0  0  0  0  0  0
  155.1108  133.3293  164.8569 F   0  0  0  0  0  0  0  0  0  0  0  0
  154.3974  135.3259  161.7993 C   0  0  0  0  0  0  0  0  0  0  0  0
  154.5165  134.5071  160.8863 O   0  0  0  0  0  0  0  0  0  0  0  0
  151.8417  141.1480  158.4301 C   0  0  0  0  0  0  0  0  0  0  0  0
  151.7955  142.6623  158.1698 C   0  0  0  0  0  0  0  0  0  0  0  0
  152.7347  145.2938  158.5584 H   0  0  0  0  0  0  0  0  0  0  0  0
  151.9981  145.5414  160.1399 H   0  0  0  0  0  0  0  0  0  0  0  0
  150.9815  145.2648  158.7311 H   0  0  0  0  0  0  0  0  0  0  0  0
  151.1286  143.2228  160.1294 H   0  0  0  0  0  0  0  0  0  0  0  0
  154.1266  143.3475  159.5854 H   0  0  0  0  0  0  0  0  0  0  0  0
  153.3569  143.5953  161.1335 H   0  0  0  0  0  0  0  0  0  0  0  0
  154.2613  141.2901  160.9313 H   0  0  0  0  0  0  0  0  0  0  0  0
  152.5300  141.2767  161.1636 H   0  0  0  0  0  0  0  0  0  0  0  0
  153.9785  140.9470  158.4874 H   0  0  0  0  0  0  0  0  0  0  0  0
  152.2499  138.8174  159.2016 H   0  0  0  0  0  0  0  0  0  0  0  0
  152.7925  136.9017  159.8749 H   0  0  0  0  0  0  0  0  0  0  0  0
  154.4303  136.5179  159.4637 H   0  0  0  0  0  0  0  0  0  0  0  0
  153.6928  138.5851  162.2385 H   0  0  0  0  0  0  0  0  0  0  0  0
  154.0412  138.0188  164.6289 H   0  0  0  0  0  0  0  0  0  0  0  0
  154.6148  135.6480  165.2181 H   0  0  0  0  0  0  0  0  0  0  0  0
  151.7537  140.6114  157.4845 H   0  0  0  0  0  0  0  0  0  0  0  0
  150.9772  140.8601  159.0300 H   0  0  0  0  0  0  0  0  0  0  0  0
  150.8496  142.9207  157.6926 H   0  0  0  0  0  0  0  0  0  0  0  0
  152.5813  142.9331  157.4631 H   0  0  0  0  0  0  0  0  0  0  0  0
  1  2  1  0  0  0  0
  1 23  1  0  0  0  0
  1 24  1  0  0  0  0
  1 25  1  0  0  0  0
  2 22  1  0  0  0  0
  2  3  1  0  0  0  0
  2 26  1  0  0  0  0
  3  4  1  0  0  0  0
  3 27  1  0  0  0  0
  3 28  1  0  0  0  0
  4  5  1  0  0  0  0
  4 29  1  0  0  0  0
  4 30  1  0  0  0  0
  5  6  1  0  0  0  0
  5 21  1  0  0  0  0
  5 31  1  0  0  0  0
  6  7  1  0  0  0  0
  6 32  1  0  0  0  0
  7  8  2  0  0  0  0
  7  9  1  0  0  0  0
  9 10  1  0  0  0  0
  9 33  1  0  0  0  0
  9 34  1  0  0  0  0
 10 19  1  0  0  0  0
 10 11  1  0  0  0  0
 11 12  2  0  0  0  0
 11 35  1  0  0  0  0
 12 13  1  0  0  0  0
 12 36  1  0  0  0  0
 13 14  2  0  0  0  0
 13 37  1  0  0  0  0
 14 15  1  0  0  0  0
 14 19  1  0  0  0  0
 15 16  1  0  0  0  0
 15 17  1  0  0  0  0
 15 18  1  0  0  0  0
 19 20  2  0  0  0  0
 21 22  1  0  0  0  0
 21 38  1  0  0  0  0
 21 39  1  0  0  0  0
 22 40  1  0  0  0  0
 22 41  1  0  0  0  0
M  END
> <s_m_source_file>
AV-unprocessed.smi

> <i_m_source_file_index>
1384

> <i_lp_mmshare_version>
43012

> <i_f3d_flags>
0

> <s_epik_input>
W0NIM11bQ0BASF0xW0NIMl1bQ0gyXVtDQEhdKFtDSDJdW0NIMl0xKVtOSF1DKD1PKVtDSDJdbjJbY0hdW2NIXVtjSF1jKEMoRikoRilGKWMyPU8=

> <s_epik_cmdline>
J2VwaWtfcHl0aG9uJywgJy1waCcsICc3LjAnLCAnLXRuJywgJzgnLCAnLW1hJywgJzIwMCcsICctbWV0YWxfYmluZGluZycsICctaW1hZScsICc8aW5maWxlLm1hZT4nLCAnLW9tYWUnLCAnPG91dGZpbGUubWFlPic=

> <r_lp_tautomer_probability>
1

> <r_epik_Ionization_Penalty>
2.11165e-08

> <r_epik_Ionization_Penalty_Charging>
2.06965e-09

> <r_epik_Ionization_Penalty_Neutral>
1.90469e-08

> <r_epik_State_Penalty>
-0

> <r_epik_Charging_Adjusted_Penalty>
2.06965e-09

> <i_epik_Tot_Q>
0

> <i_epik_Tot_abs_Q>
0

> <r_epik_Metal_State_Penalty>
-0

> <b_epik_Metal_Only>
0

> <s_lp_Force_Field>
OPLS_2005

> <r_lp_Energy>
18.7612

> <b_lp_Chiralities_Consistent>
1

> <s_lp_Variant>
AV-unprocessed.smi:1384-1

> <Gold.Version>
5.8.1

> <Gold.Id.Protein>
6NUR|6NUR_protein|mol2

> <Gold.PLP.Fitness>
44.7811

> <Gold.PLP.PLP>
-43.4638

> <Gold.PLP.part.hbond>
-0.8686

> <Gold.PLP.part.metal>
0.0000

> <Gold.PLP.part.buried>
-4.7708

> <Gold.PLP.part.nonpolar>
-38.7121

> <Gold.PLP.part.repulsive>
0.0878

> <Gold.PLP.ligand.clash>
0.3425

> <Gold.PLP.ligand.torsion>
0.4223

> <Gold.PLP.Chemscore.Hbond>
0.7150

> <Gold.PLP.Chemscore.CHOScore>
0.0000

> <Gold.PLP.Chemscore.Metal>
0.0000

> <Gold.Chemscore.Hbonds>
donor molecule, donor type, donor heavy atom, donor atom, acceptor molecule, acceptor atom, score
      P1  H  6896  6909       L1    20  0.70

> <Gold.PLP.Chemscore.Internal.Correction>
0.3593

> <Gold.Rescore>
     Score         DG    S(hbond)    S(metal)    S(lipo)     H(rot)  DE(clash)    DE(int)     intcor
     15.03     -17.88       0.81        0.00     116.13       1.52       0.06       2.79       ----

> <Gold.Chemscore.Fitness>
15.0342

> <Gold.Chemscore.DG>
-17.8794

> <Gold.Chemscore.ZeroCoef>
-5.4800

> <Gold.Chemscore.Hbond>
0.8127

> <Gold.Chemscore.Metal>
0.0000

> <Gold.Chemscore.Lipo>
116.1267

> <Gold.Chemscore.Internal_Hbond>
0.0000

> <Gold.Chemscore.DEClash>
0.0587

> <Gold.Chemscore.DEInternal>
2.7865

> <Gold.Chemscore.Rot>
1.5242

> <Gold.Chemscore.Internal.Correction>
   9.000000E+99

> <Gold.Chemscore.Hbonds>
donor molecule, donor type, donor heavy atom, donor atom, acceptor molecule, acceptor atom, score
      P1  H  6896  6909       L1    20  0.34

> <Gold.Chemscore.Hbond.Weighted>
-2.7145

> <Gold.Chemscore.Metal.Weighted>
-0.0000

> <Gold.Chemscore.Lipo.Weighted>
-13.5868

> <Gold.Chemscore.Internal_Hbond.Weighted>
0.0000

> <Gold.Chemscore.DEClash.Weighted>
0.0587

> <Gold.Chemscore.DEInternal.Weighted>
2.7865

> <Gold.Chemscore.Rot.Weighted>
3.9019

> <Gold.Chemscore.Internal.Correction.Weighted>
   9.000000E+99

> <Gold.Protein.RotatedTorsions>
[ 6907 6896 6895 6894 ] final -162.85 input  -60.11 | X-H torsion
[ 7974 7965 7964 7962 ] final   82.26 input  175.53 | X-H torsion
[ 8008 7997 7996 7995 ] final   23.15 input   59.86 | X-H torsion
[ 10167 10162 10161 10158 ] final  121.21 input  -65.29 | X-H torsion
[ 10718 10713 10712 10709 ] final -138.87 input   66.30 | X-H torsion
[ 10763 10752 10751 10750 ] final   49.06 input  -60.55 | X-H torsion
[ 11005 11000 10999 10996 ] final  -41.53 input  -57.11 | X-H torsion

> <Gold.Protein.ActiveResidues>
 VAL166  LYS551  ARG553  GLY616  TRP617  ASP618  TYR619  PRO620  LYS621  CYS622 
 ASP623  PHE694  ASN695  SER759  ASP760  ASP761  ALA762  ILE779  LEU786  VAL792 
 PHE793  MET794  SER795  GLU796  ALA797  LYS798  CYS799  TRP800  GLU811  SER814 

> <Gold.Protein.RotatedAtoms>
  151.3867  133.3802  159.2715 H   0  0  0  0  0  0  0  0  0  0  0  0  # atno 6907 bound_to 6896
  150.9536  134.8934  159.7697 H   0  0  0  0  0  0  0  0  0  0  0  0  # atno 6908 bound_to 6896
  152.5121  134.3824  159.9408 H   0  0  0  0  0  0  0  0  0  0  0  0  # atno 6909 bound_to 6896
  145.6274  139.2398  143.2104 H   0  0  0  0  0  0  0  0  0  0  0  0  # atno 7974 bound_to 7965
  154.9766  140.3097  155.4964 H   0  0  0  0  0  0  0  0  0  0  0  0  # atno 8008 bound_to 7997
  156.2959  140.2274  156.4801 H   0  0  0  0  0  0  0  0  0  0  0  0  # atno 8009 bound_to 7997
  154.7828  140.0445  157.1128 H   0  0  0  0  0  0  0  0  0  0  0  0  # atno 8010 bound_to 7997
  139.5934  144.7033  151.3236 H   0  0  0  0  0  0  0  0  0  0  0  0  # atno 10167 bound_to 10162
  156.3043  130.7446  151.1506 H   0  0  0  0  0  0  0  0  0  0  0  0  # atno 10718 bound_to 10713
  152.9788  135.5924  154.4027 H   0  0  0  0  0  0  0  0  0  0  0  0  # atno 10763 bound_to 10752
  154.3671  135.2767  155.2289 H   0  0  0  0  0  0  0  0  0  0  0  0  # atno 10764 bound_to 10752
  154.4261  135.6047  153.6094 H   0  0  0  0  0  0  0  0  0  0  0  0  # atno 10765 bound_to 10752
  141.0252  133.6844  156.2470 H   0  0  0  0  0  0  0  0  0  0  0  0  # atno 11005 bound_to 11000
  146.1383  140.7092  142.9379 LP  0  0  0  0  0  0  0  0  0  0  0  0  # atno 17320 bound_to 7965
  144.7207  140.4363  143.7010 LP  0  0  0  0  0  0  0  0  0  0  0  0  # atno 17321 bound_to 7965
  140.7192  143.7184  150.7715 LP  0  0  0  0  0  0  0  0  0  0  0  0  # atno 17342 bound_to 10162
  140.0744  143.5029  152.2563 LP  0  0  0  0  0  0  0  0  0  0  0  0  # atno 17343 bound_to 10162
  157.7376  131.0550  150.5347 LP  0  0  0  0  0  0  0  0  0  0  0  0  # atno 17370 bound_to 10713
  156.5479  130.4224  149.6122 LP  0  0  0  0  0  0  0  0  0  0  0  0  # atno 17371 bound_to 10713
  140.6503  134.5074  157.5577 LP  0  0  0  0  0  0  0  0  0  0  0  0  # atno 17394 bound_to 11000
  139.9171  134.8223  156.1329 LP  0  0  0  0  0  0  0  0  0  0  0  0  # atno 17395 bound_to 11000

$$$$
