AV-unprocessed.smi:2104|AV-procd|sdf|8584|dock3
  -GOLD-   2272011313D 1   1.00000     0.00000
 Structure written by MMmdl.
 43 44  0  0  0  0  0  0  0  0  1 V2000
  147.2731  129.8189  153.4340 C   0  0  0  0  0  0  0  0  0  0  0  0
  147.9106  131.0763  153.9170 C   0  0  0  0  0  0  0  0  0  0  0  0
  148.3176  132.2165  153.2830 C   0  0  0  0  0  0  0  0  0  0  0  0
  148.8381  133.0040  154.3441 C   0  0  0  0  0  0  0  0  0  0  0  0
  149.3676  134.2967  154.0994 N   0  0  0  0  0  0  0  0  0  0  0  0
  150.3270  134.9311  154.7940 C   0  0  0  0  0  0  0  0  0  0  0  0
  150.9674  134.4419  155.7251 O   0  0  0  0  0  0  0  0  0  0  0  0
  150.4966  136.1870  154.3545 N   0  0  0  0  0  0  0  0  0  0  0  0
  151.3809  137.1759  154.9631 C   0  0  0  0  0  0  0  0  0  0  0  0
  151.4846  138.4376  154.0929 C   0  0  0  0  0  0  0  0  0  0  0  0
  151.4174  139.5782  154.9344 O   0  0  0  0  0  0  0  0  0  0  0  0
  150.3504  139.5820  155.8741 C   0  0  1  0  0  0  0  0  0  0  0  0
  150.8779  139.2612  157.2901 C   0  0  0  0  0  0  0  0  0  0  0  0
  151.8481  140.3417  157.7971 C   0  0  0  0  0  0  0  0  0  0  0  0
  151.2042  141.7355  157.7521 C   0  0  0  0  0  0  0  0  0  0  0  0
  150.6724  142.0620  156.3474 C   0  0  0  0  0  0  0  0  0  0  0  0
  149.6935  140.9803  155.8453 C   0  0  1  0  0  0  0  0  0  0  0  0
  149.1269  141.3231  154.4588 C   0  0  0  0  0  0  0  0  0  0  0  0
  148.7530  132.4007  155.5199 N   0  0  0  0  0  0  0  0  0  0  0  0
  148.1592  131.1617  155.2520 O   0  0  0  0  0  0  0  0  0  0  0  0
  147.1934  129.8151  152.3468 H   0  0  0  0  0  0  0  0  0  0  0  0
  146.2702  129.7119  153.8471 H   0  0  0  0  0  0  0  0  0  0  0  0
  147.8581  128.9490  153.7329 H   0  0  0  0  0  0  0  0  0  0  0  0
  148.2518  132.4469  152.2300 H   0  0  0  0  0  0  0  0  0  0  0  0
  148.9412  134.8089  153.3416 H   0  0  0  0  0  0  0  0  0  0  0  0
  149.9341  136.4995  153.5767 H   0  0  0  0  0  0  0  0  0  0  0  0
  151.0526  137.4277  155.9728 H   0  0  0  0  0  0  0  0  0  0  0  0
  152.3669  136.7216  155.0629 H   0  0  0  0  0  0  0  0  0  0  0  0
  152.4337  138.4454  153.5557 H   0  0  0  0  0  0  0  0  0  0  0  0
  150.6896  138.4386  153.3473 H   0  0  0  0  0  0  0  0  0  0  0  0
  149.6046  138.8397  155.5836 H   0  0  0  0  0  0  0  0  0  0  0  0
  150.0336  139.1905  157.9768 H   0  0  0  0  0  0  0  0  0  0  0  0
  151.3637  138.2864  157.3162 H   0  0  0  0  0  0  0  0  0  0  0  0
  152.1621  140.1113  158.8154 H   0  0  0  0  0  0  0  0  0  0  0  0
  152.7532  140.3383  157.1897 H   0  0  0  0  0  0  0  0  0  0  0  0
  150.3860  141.7822  158.4716 H   0  0  0  0  0  0  0  0  0  0  0  0
  151.9300  142.4894  158.0587 H   0  0  0  0  0  0  0  0  0  0  0  0
  150.1779  143.0338  156.3633 H   0  0  0  0  0  0  0  0  0  0  0  0
  151.5098  142.1562  155.6544 H   0  0  0  0  0  0  0  0  0  0  0  0
  148.8483  140.9581  156.5350 H   0  0  0  0  0  0  0  0  0  0  0  0
  149.9176  141.3929  153.7110 H   0  0  0  0  0  0  0  0  0  0  0  0
  148.6024  142.2787  154.4755 H   0  0  0  0  0  0  0  0  0  0  0  0
  148.4190  140.5638  154.1256 H   0  0  0  0  0  0  0  0  0  0  0  0
  1  2  1  0  0  0  0
  1 21  1  0  0  0  0
  1 22  1  0  0  0  0
  1 23  1  0  0  0  0
  2 20  1  0  0  0  0
  2  3  2  0  0  0  0
  3  4  1  0  0  0  0
  3 24  1  0  0  0  0
  4  5  1  0  0  0  0
  4 19  2  0  0  0  0
  5  6  1  0  0  0  0
  5 25  1  0  0  0  0
  6  7  2  0  0  0  0
  6  8  1  0  0  0  0
  8  9  1  0  0  0  0
  8 26  1  0  0  0  0
  9 10  1  0  0  0  0
  9 27  1  0  0  0  0
  9 28  1  0  0  0  0
 10 11  1  0  0  0  0
 10 29  1  0  0  0  0
 10 30  1  0  0  0  0
 11 12  1  0  0  0  0
 12 17  1  0  0  0  0
 12 13  1  0  0  0  0
 12 31  1  0  0  0  0
 13 14  1  0  0  0  0
 13 32  1  0  0  0  0
 13 33  1  0  0  0  0
 14 15  1  0  0  0  0
 14 34  1  0  0  0  0
 14 35  1  0  0  0  0
 15 16  1  0  0  0  0
 15 36  1  0  0  0  0
 15 37  1  0  0  0  0
 16 17  1  0  0  0  0
 16 38  1  0  0  0  0
 16 39  1  0  0  0  0
 17 18  1  0  0  0  0
 17 40  1  0  0  0  0
 18 41  1  0  0  0  0
 18 42  1  0  0  0  0
 18 43  1  0  0  0  0
 19 20  1  0  0  0  0
M  END
> <s_m_source_file>
AV-unprocessed.smi

> <i_m_source_file_index>
2104

> <i_lp_mmshare_version>
43012

> <i_f3d_flags>
0

> <s_epik_input>
W0NIM11jMVtjSF1jKG5vMSlbTkhdQyg9TylbTkhdW0NIMl1bQ0gyXU9bQ0BASF0yW0NIMl1bQ0gyXVtDSDJdW0NIMl1bQ0BIXTJbQ0gzXQ==

> <s_epik_cmdline>
J2VwaWtfcHl0aG9uJywgJy1waCcsICc3LjAnLCAnLXRuJywgJzgnLCAnLW1hJywgJzIwMCcsICctbWV0YWxfYmluZGluZycsICctaW1hZScsICc8aW5maWxlLm1hZT4nLCAnLW9tYWUnLCAnPG91dGZpbGUubWFlPic=

> <r_lp_tautomer_probability>
1

> <r_epik_Ionization_Penalty>
2.94418e-05

> <r_epik_Ionization_Penalty_Charging>
0

> <r_epik_Ionization_Penalty_Neutral>
2.94418e-05

> <r_epik_State_Penalty>
-0

> <r_epik_Charging_Adjusted_Penalty>
0

> <i_epik_Tot_Q>
0

> <i_epik_Tot_abs_Q>
0

> <r_epik_Metal_State_Penalty>
0.0104148

> <b_epik_Metal_Only>
0

> <s_lp_Force_Field>
OPLS_2005

> <r_lp_Energy>
8.22598

> <b_lp_Chiralities_Consistent>
1

> <s_lp_Variant>
AV-unprocessed.smi:2104-2

> <Gold.Version>
5.8.1

> <Gold.Id.Protein>
6NUR|6NUR_protein|mol2

> <Gold.PLP.Fitness>
38.6188

> <Gold.PLP.PLP>
-32.5469

> <Gold.PLP.part.hbond>
-4.0000

> <Gold.PLP.part.metal>
0.0000

> <Gold.PLP.part.buried>
-3.2919

> <Gold.PLP.part.nonpolar>
-25.3508

> <Gold.PLP.part.repulsive>
0.1709

> <Gold.PLP.ligand.clash>
0.0000

> <Gold.PLP.ligand.torsion>
1.1791

> <Gold.PLP.Chemscore.Hbond>
2.8000

> <Gold.PLP.Chemscore.CHOScore>
0.0000

> <Gold.PLP.Chemscore.Metal>
0.0000

> <Gold.Chemscore.Hbonds>
donor molecule, donor type, donor heavy atom, donor atom, acceptor molecule, acceptor atom, score
      L1  H     5    25       P1  7948  0.95
      L1  H     8    26       P1  7948  0.90
      P1  H  7989  7998       L1    11  0.75

> <Gold.PLP.Chemscore.Internal.Correction>
0.0301

> <Gold.Rescore>
     Score         DG    S(hbond)    S(metal)    S(lipo)     H(rot)  DE(clash)    DE(int)     intcor
     12.03     -13.40       1.16        0.00      72.93       1.75       0.00       1.37       ----

> <Gold.Chemscore.Fitness>
12.0323

> <Gold.Chemscore.DG>
-13.4001

> <Gold.Chemscore.ZeroCoef>
-5.4800

> <Gold.Chemscore.Hbond>
1.1595

> <Gold.Chemscore.Metal>
0.0000

> <Gold.Chemscore.Lipo>
72.9347

> <Gold.Chemscore.Internal_Hbond>
0.0000

> <Gold.Chemscore.DEClash>
0.0025

> <Gold.Chemscore.DEInternal>
1.3652

> <Gold.Chemscore.Rot>
1.7524

> <Gold.Chemscore.Internal.Correction>
   9.000000E+99

> <Gold.Chemscore.Hbonds>
donor molecule, donor type, donor heavy atom, donor atom, acceptor molecule, acceptor atom, score
      L1  H     5    25       P1  7948  0.20
      L1  H     8    26       P1  7948  0.17
      P1  H  7989  7998       L1    11  0.09

> <Gold.Chemscore.Hbond.Weighted>
-3.8729

> <Gold.Chemscore.Metal.Weighted>
-0.0000

> <Gold.Chemscore.Lipo.Weighted>
-8.5334

> <Gold.Chemscore.Internal_Hbond.Weighted>
0.0000

> <Gold.Chemscore.DEClash.Weighted>
0.0025

> <Gold.Chemscore.DEInternal.Weighted>
1.3652

> <Gold.Chemscore.Rot.Weighted>
4.4861

> <Gold.Chemscore.Internal.Correction.Weighted>
   9.000000E+99

> <Gold.Protein.RotatedTorsions>
[ 6907 6896 6895 6894 ] final  143.44 input  -60.11 | X-H torsion
[ 7974 7965 7964 7962 ] final  179.28 input  175.53 | X-H torsion
[ 8008 7997 7996 7995 ] final   11.82 input   59.86 | X-H torsion
[ 10167 10162 10161 10158 ] final -166.49 input  -65.29 | X-H torsion
[ 10718 10713 10712 10709 ] final  176.29 input   66.30 | X-H torsion
[ 10763 10752 10751 10750 ] final -123.87 input  -60.55 | X-H torsion
[ 11005 11000 10999 10996 ] final  131.98 input  -57.11 | X-H torsion

> <Gold.Protein.ActiveResidues>
 VAL166  LYS551  ARG553  GLY616  TRP617  ASP618  TYR619  PRO620  LYS621  CYS622 
 ASP623  PHE694  ASN695  SER759  ASP760  ASP761  ALA762  ILE779  LEU786  VAL792 
 PHE793  MET794  SER795  GLU796  ALA797  LYS798  CYS799  TRP800  GLU811  SER814 

> <Gold.Protein.RotatedAtoms>
  152.2063  133.4878  159.5085 H   0  0  0  0  0  0  0  0  0  0  0  0  # atno 6907 bound_to 6896
  150.6980  134.1525  159.4155 H   0  0  0  0  0  0  0  0  0  0  0  0  # atno 6908 bound_to 6896
  151.9444  135.0198  160.0588 H   0  0  0  0  0  0  0  0  0  0  0  0  # atno 6909 bound_to 6896
  144.7147  140.0525  143.6435 H   0  0  0  0  0  0  0  0  0  0  0  0  # atno 7974 bound_to 7965
  154.8121  140.2870  155.5846 H   0  0  0  0  0  0  0  0  0  0  0  0  # atno 8008 bound_to 7997
  156.2989  140.2566  156.2941 H   0  0  0  0  0  0  0  0  0  0  0  0  # atno 8009 bound_to 7997
  154.9435  140.0381  157.2098 H   0  0  0  0  0  0  0  0  0  0  0  0  # atno 8010 bound_to 7997
  139.6112  144.0812  152.1843 H   0  0  0  0  0  0  0  0  0  0  0  0  # atno 10167 bound_to 10162
  156.9223  130.9944  151.3002 H   0  0  0  0  0  0  0  0  0  0  0  0  # atno 10718 bound_to 10713
  154.8714  135.4083  154.3013 H   0  0  0  0  0  0  0  0  0  0  0  0  # atno 10763 bound_to 10752
  153.3872  135.7013  153.6527 H   0  0  0  0  0  0  0  0  0  0  0  0  # atno 10764 bound_to 10752
  153.5325  135.3664  155.2653 H   0  0  0  0  0  0  0  0  0  0  0  0  # atno 10765 bound_to 10752
  139.9762  134.9562  156.9516 H   0  0  0  0  0  0  0  0  0  0  0  0  # atno 11005 bound_to 11000
  145.9932  139.3032  143.0972 LP  0  0  0  0  0  0  0  0  0  0  0  0  # atno 17320 bound_to 7965
  145.8879  140.9322  143.0567 LP  0  0  0  0  0  0  0  0  0  0  0  0  # atno 17321 bound_to 7965
  140.0431  144.5992  150.7395 LP  0  0  0  0  0  0  0  0  0  0  0  0  # atno 17342 bound_to 10162
  140.7320  143.2700  151.3918 LP  0  0  0  0  0  0  0  0  0  0  0  0  # atno 17343 bound_to 10162
  157.5900  130.8437  149.8645 LP  0  0  0  0  0  0  0  0  0  0  0  0  # atno 17370 bound_to 10713
  156.0485  130.3722  150.1258 LP  0  0  0  0  0  0  0  0  0  0  0  0  # atno 17371 bound_to 10713
  140.5189  134.0927  155.7287 LP  0  0  0  0  0  0  0  0  0  0  0  0  # atno 17394 bound_to 11000
  141.1439  133.9090  157.2262 LP  0  0  0  0  0  0  0  0  0  0  0  0  # atno 17395 bound_to 11000

$$$$
