AV-unprocessed.smi:2958|AV-procd|sdf|11307|dock9
  -GOLD-   2272016203D 1   1.00000     0.00000
 Structure written by MMmdl.
 39 41  0  0  0  0  0  0  0  0  1 V2000
  152.0209  145.0921  159.4244 C   0  0  0  0  0  0  0  0  0  0  0  0
  152.2795  143.6075  159.5801 C   0  0  0  0  0  0  0  0  0  0  0  0
  152.8345  143.1028  160.7732 C   0  0  0  0  0  0  0  0  0  0  0  0
  153.0718  141.7227  160.9084 C   0  0  0  0  0  0  0  0  0  0  0  0
  152.7552  140.8466  159.8529 C   0  0  0  0  0  0  0  0  0  0  0  0
  152.1975  141.3340  158.6533 C   0  0  0  0  0  0  0  0  0  0  0  0
  151.9159  140.4059  157.6739 O   0  0  0  0  0  0  0  0  0  0  0  0
  151.4350  140.8756  156.4229 C   0  0  0  0  0  0  0  0  0  0  0  0
  151.5873  139.7541  155.3890 C   0  0  0  0  0  0  0  0  0  0  0  0
  150.2967  139.3216  154.8775 N   0  0  0  0  0  0  0  0  0  0  0  0
  149.8727  138.0571  154.6287 C   0  0  0  0  0  0  0  0  0  0  0  0
  150.7429  136.8614  154.8664 C   0  0  0  0  0  0  0  0  0  0  0  0
  151.9056  136.8664  154.0662 O   0  0  0  0  0  0  0  0  0  0  0  0
  148.6293  137.9441  154.1597 N   0  0  0  0  0  0  0  0  0  0  0  0
  148.2051  139.2577  154.1047 C   0  0  0  0  0  0  0  0  0  0  0  0
  146.9700  139.8076  153.6933 C   0  0  0  0  0  0  0  0  0  0  0  0
  146.7614  141.2021  153.7305 C   0  0  0  0  0  0  0  0  0  0  0  0
  147.7824  142.0650  154.1790 C   0  0  0  0  0  0  0  0  0  0  0  0
  149.0216  141.5381  154.5913 C   0  0  0  0  0  0  0  0  0  0  0  0
  149.2249  140.1457  154.5509 C   0  0  0  0  0  0  0  0  0  0  0  0
  151.9625  142.7268  158.5251 C   0  0  0  0  0  0  0  0  0  0  0  0
  152.3260  145.6452  160.3132 H   0  0  0  0  0  0  0  0  0  0  0  0
  150.9592  145.2753  159.2574 H   0  0  0  0  0  0  0  0  0  0  0  0
  152.5762  145.4851  158.5723 H   0  0  0  0  0  0  0  0  0  0  0  0
  153.0800  143.7693  161.5870 H   0  0  0  0  0  0  0  0  0  0  0  0
  153.4972  141.3350  161.8223 H   0  0  0  0  0  0  0  0  0  0  0  0
  152.9408  139.7886  159.9659 H   0  0  0  0  0  0  0  0  0  0  0  0
  150.3853  141.1614  156.5062 H   0  0  0  0  0  0  0  0  0  0  0  0
  152.0037  141.7508  156.1042 H   0  0  0  0  0  0  0  0  0  0  0  0
  152.1972  140.0950  154.5517 H   0  0  0  0  0  0  0  0  0  0  0  0
  152.1116  138.9022  155.8220 H   0  0  0  0  0  0  0  0  0  0  0  0
  151.0262  136.8123  155.9179 H   0  0  0  0  0  0  0  0  0  0  0  0
  150.1756  135.9550  154.6526 H   0  0  0  0  0  0  0  0  0  0  0  0
  151.6478  136.7684  153.1625 H   0  0  0  0  0  0  0  0  0  0  0  0
  146.1812  139.1554  153.3489 H   0  0  0  0  0  0  0  0  0  0  0  0
  145.8132  141.6113  153.4142 H   0  0  0  0  0  0  0  0  0  0  0  0
  147.6138  143.1317  154.2053 H   0  0  0  0  0  0  0  0  0  0  0  0
  149.8058  142.1963  154.9350 H   0  0  0  0  0  0  0  0  0  0  0  0
  151.5393  143.1444  157.6240 H   0  0  0  0  0  0  0  0  0  0  0  0
  1  2  1  0  0  0  0
  1 22  1  0  0  0  0
  1 23  1  0  0  0  0
  1 24  1  0  0  0  0
  2 21  1  0  0  0  0
  2  3  2  0  0  0  0
  3  4  1  0  0  0  0
  3 25  1  0  0  0  0
  4  5  2  0  0  0  0
  4 26  1  0  0  0  0
  5  6  1  0  0  0  0
  5 27  1  0  0  0  0
  6  7  1  0  0  0  0
  6 21  2  0  0  0  0
  7  8  1  0  0  0  0
  8  9  1  0  0  0  0
  8 28  1  0  0  0  0
  8 29  1  0  0  0  0
  9 10  1  0  0  0  0
  9 30  1  0  0  0  0
  9 31  1  0  0  0  0
 10 20  1  0  0  0  0
 10 11  1  0  0  0  0
 11 12  1  0  0  0  0
 11 14  2  0  0  0  0
 12 13  1  0  0  0  0
 12 32  1  0  0  0  0
 12 33  1  0  0  0  0
 13 34  1  0  0  0  0
 14 15  1  0  0  0  0
 15 20  2  0  0  0  0
 15 16  1  0  0  0  0
 16 17  2  0  0  0  0
 16 35  1  0  0  0  0
 17 18  1  0  0  0  0
 17 36  1  0  0  0  0
 18 19  2  0  0  0  0
 18 37  1  0  0  0  0
 19 20  1  0  0  0  0
 19 38  1  0  0  0  0
 21 39  1  0  0  0  0
M  END
> <s_m_source_file>
AV-unprocessed.smi

> <i_m_source_file_index>
2958

> <i_lp_mmshare_version>
43012

> <i_f3d_flags>
0

> <s_epik_input>
W0NIM11jMVtjSF1bY0hdW2NIXWMoW2NIXTEpT1tDSDJdW0NIMl1uKGMobjIpW0NIMl1bT0hdKWMoYzIzKVtjSF1bY0hdW2NIXVtjSF0z

> <s_epik_cmdline>
J2VwaWtfcHl0aG9uJywgJy1waCcsICc3LjAnLCAnLXRuJywgJzgnLCAnLW1hJywgJzIwMCcsICctbWV0YWxfYmluZGluZycsICctaW1hZScsICc8aW5maWxlLm1hZT4nLCAnLW9tYWUnLCAnPG91dGZpbGUubWFlPic=

> <r_lp_tautomer_probability>
1

> <r_epik_Ionization_Penalty>
0.0482759

> <r_epik_Ionization_Penalty_Charging>
0

> <r_epik_Ionization_Penalty_Neutral>
0.0482759

> <r_epik_State_Penalty>
0.0410957

> <r_epik_Charging_Adjusted_Penalty>
0.0410957

> <i_epik_Tot_Q>
0

> <i_epik_Tot_abs_Q>
0

> <r_epik_Metal_State_Penalty>
4.25529e-05

> <b_epik_Metal_Only>
0

> <s_lp_Force_Field>
OPLS_2005

> <r_lp_Energy>
16.0806

> <b_lp_Chiralities_Consistent>
1

> <s_lp_Variant>
AV-unprocessed.smi:2958-1

> <Gold.Version>
5.8.1

> <Gold.Id.Protein>
6NUR|6NUR_protein|mol2

> <Gold.PLP.Fitness>
54.1977

> <Gold.PLP.PLP>
-49.6357

> <Gold.PLP.part.hbond>
-2.0000

> <Gold.PLP.part.metal>
0.0000

> <Gold.PLP.part.buried>
-4.5696

> <Gold.PLP.part.nonpolar>
-45.5699

> <Gold.PLP.part.repulsive>
1.7367

> <Gold.PLP.ligand.clash>
0.0000

> <Gold.PLP.ligand.torsion>
0.7217

> <Gold.PLP.Chemscore.Hbond>
2.0000

> <Gold.PLP.Chemscore.CHOScore>
0.0000

> <Gold.PLP.Chemscore.Metal>
0.0000

> <Gold.Chemscore.Hbonds>
donor molecule, donor type, donor heavy atom, donor atom, acceptor molecule, acceptor atom, score
      L1  H    13    34       P1  7949  1.00
      P1  H 10752 10765       L1    13  0.99

> <Gold.PLP.Chemscore.Internal.Correction>
0.0052

> <Gold.Rescore>
     Score         DG    S(hbond)    S(metal)    S(lipo)     H(rot)  DE(clash)    DE(int)     intcor
     20.66     -21.53       1.68        0.00     136.32       2.15       0.16       0.71       ----

> <Gold.Chemscore.Fitness>
20.6568

> <Gold.Chemscore.DG>
-21.5260

> <Gold.Chemscore.ZeroCoef>
-5.4800

> <Gold.Chemscore.Hbond>
1.6768

> <Gold.Chemscore.Metal>
0.0000

> <Gold.Chemscore.Lipo>
136.3180

> <Gold.Chemscore.Internal_Hbond>
0.0000

> <Gold.Chemscore.DEClash>
0.1588

> <Gold.Chemscore.DEInternal>
0.7104

> <Gold.Chemscore.Rot>
2.1499

> <Gold.Chemscore.Internal.Correction>
   9.000000E+99

> <Gold.Chemscore.Hbonds>
donor molecule, donor type, donor heavy atom, donor atom, acceptor molecule, acceptor atom, score
      L1  H    13    34       P1  7949  0.96
      P1  H 10752 10765       L1    13  0.52

> <Gold.Chemscore.Hbond.Weighted>
-5.6006

> <Gold.Chemscore.Metal.Weighted>
-0.0000

> <Gold.Chemscore.Lipo.Weighted>
-15.9492

> <Gold.Chemscore.Internal_Hbond.Weighted>
0.0000

> <Gold.Chemscore.DEClash.Weighted>
0.1588

> <Gold.Chemscore.DEInternal.Weighted>
0.7104

> <Gold.Chemscore.Rot.Weighted>
5.5038

> <Gold.Chemscore.Internal.Correction.Weighted>
   9.000000E+99

> <Gold.Protein.RotatedTorsions>
[ 6907 6896 6895 6894 ] final  -44.08 input  -60.11 | X-H torsion
[ 7974 7965 7964 7962 ] final  176.62 input  175.53 | X-H torsion
[ 8008 7997 7996 7995 ] final   45.58 input   59.86 | X-H torsion
[ 10167 10162 10161 10158 ] final  -45.30 input  -65.29 | X-H torsion
[ 10718 10713 10712 10709 ] final -151.28 input   66.30 | X-H torsion
[ 10763 10752 10751 10750 ] final  171.80 input  -60.55 | X-H torsion
[ 11005 11000 10999 10996 ] final  -13.12 input  -57.11 | X-H torsion

> <Gold.Protein.ActiveResidues>
 VAL166  LYS551  ARG553  GLY616  TRP617  ASP618  TYR619  PRO620  LYS621  CYS622 
 ASP623  PHE694  ASN695  SER759  ASP760  ASP761  ALA762  ILE779  LEU786  VAL792 
 PHE793  MET794  SER795  GLU796  ALA797  LYS798  CYS799  TRP800  GLU811  SER814 

> <Gold.Protein.RotatedAtoms>
  150.9367  134.8779  159.7586 H   0  0  0  0  0  0  0  0  0  0  0  0  # atno 6907 bound_to 6896
  152.5062  134.4000  159.9423 H   0  0  0  0  0  0  0  0  0  0  0  0  # atno 6908 bound_to 6896
  151.4024  133.3713  159.2769 H   0  0  0  0  0  0  0  0  0  0  0  0  # atno 6909 bound_to 6896
  144.7181  140.0125  143.6440 H   0  0  0  0  0  0  0  0  0  0  0  0  # atno 7974 bound_to 7965
  155.3383  140.3406  155.4239 H   0  0  0  0  0  0  0  0  0  0  0  0  # atno 8008 bound_to 7997
  156.1826  140.1669  156.8281 H   0  0  0  0  0  0  0  0  0  0  0  0  # atno 8009 bound_to 7997
  154.5351  140.0737  156.8396 H   0  0  0  0  0  0  0  0  0  0  0  0  # atno 8010 bound_to 7997
  140.6863  143.2886  151.3620 H   0  0  0  0  0  0  0  0  0  0  0  0  # atno 10167 bound_to 10162
  156.4572  130.8196  151.2427 H   0  0  0  0  0  0  0  0  0  0  0  0  # atno 10718 bound_to 10713
  154.4171  135.2757  155.2000 H   0  0  0  0  0  0  0  0  0  0  0  0  # atno 10763 bound_to 10752
  154.3961  135.6055  153.5874 H   0  0  0  0  0  0  0  0  0  0  0  0  # atno 10764 bound_to 10752
  152.9832  135.5915  154.4461 H   0  0  0  0  0  0  0  0  0  0  0  0  # atno 10765 bound_to 10752
  140.7728  133.8425  155.9222 H   0  0  0  0  0  0  0  0  0  0  0  0  # atno 11005 bound_to 11000
  146.0247  139.3282  143.0791 LP  0  0  0  0  0  0  0  0  0  0  0  0  # atno 17320 bound_to 7965
  145.8526  140.9520  143.0742 LP  0  0  0  0  0  0  0  0  0  0  0  0  # atno 17321 bound_to 7965
  139.6225  144.0879  152.2404 LP  0  0  0  0  0  0  0  0  0  0  0  0  # atno 17342 bound_to 10162
  140.0328  144.6068  150.7474 LP  0  0  0  0  0  0  0  0  0  0  0  0  # atno 17343 bound_to 10162
  157.7500  131.0119  150.3363 LP  0  0  0  0  0  0  0  0  0  0  0  0  # atno 17370 bound_to 10713
  156.3755  130.3871  149.7142 LP  0  0  0  0  0  0  0  0  0  0  0  0  # atno 17371 bound_to 10713
  140.9558  134.1720  157.4693 LP  0  0  0  0  0  0  0  0  0  0  0  0  # atno 17394 bound_to 11000
  139.8753  134.9926  156.5605 LP  0  0  0  0  0  0  0  0  0  0  0  0  # atno 17395 bound_to 11000

$$$$
