AV-unprocessed.smi:193|AV-procd|sdf|1496|dock1
  -GOLD-   2262019323D 1   1.00000     0.00000
 Structure written by MMmdl.
 62 66  0  0  0  0  0  0  0  0  2 V2000
  140.9910  135.6977  153.3666 C   0  0  0  0  0  0  0  0  0  0  0  0
  142.3403  135.0964  153.7919 C   0  0  2  0  0  0  0  0  0  0  0  0
  143.2048  136.1945  154.4445 C   0  0  0  0  0  0  0  0  0  0  0  0
  144.2771  135.6916  155.3013 N   0  0  0  0  0  0  0  0  0  0  0  0
  145.0837  136.6277  155.8463 C   0  0  0  0  0  0  0  0  0  0  0  0
  145.1160  136.7118  157.1992 N   0  0  0  0  0  0  0  0  0  0  0  0
  145.8954  137.6212  157.7929 C   0  0  0  0  0  0  0  0  0  0  0  0
  146.7098  138.5170  157.2308 N   0  0  0  0  0  0  0  0  0  0  0  0
  146.6933  138.4195  155.8704 C   0  0  0  0  0  0  0  0  0  0  0  0
  145.9167  137.5084  155.1010 C   0  0  0  0  0  0  0  0  0  0  0  0
  146.1743  137.6914  153.7476 N   0  0  0  0  0  0  0  0  0  0  0  0
  147.0444  138.6639  153.7183 C   0  0  0  0  0  0  0  0  0  0  0  0
  147.4148  139.1577  154.9487 N   0  0  0  0  0  0  0  0  0  0  0  0
  148.3596  140.2337  155.2056 C   0  0  0  0  0  0  0  0  0  0  0  0
  149.8198  139.8965  154.8150 C   0  0  0  0  0  0  0  0  0  0  0  0
  150.1201  140.5994  153.6212 O   0  0  0  0  0  0  0  0  0  0  0  0
  150.7908  140.3684  155.9158 C   0  0  0  0  0  0  0  0  0  0  0  0
  152.2348  139.9050  155.6547 C   0  0  0  0  0  0  0  0  0  0  0  0
  152.2720  138.4911  155.5046 O   0  0  0  0  0  0  0  0  0  0  0  0
  151.5234  138.0368  154.3838 C   0  0  0  0  0  0  0  0  0  0  0  0
  150.0356  138.3881  154.5622 C   0  0  0  0  0  0  0  0  0  0  0  0
  144.9029  134.3891  155.0949 C   0  0  0  0  0  0  0  0  0  0  0  0
  145.2571  134.1158  153.6272 C   0  0  0  0  0  0  0  0  0  0  0  0
  144.1149  133.5077  152.9035 N   0  3  2  0  0  0  0  0  0  0  0  0
  144.5669  132.7588  151.7092 C   0  0  2  0  0  0  0  0  0  0  0  0
  145.7769  133.3636  151.0351 C   0  0  0  0  0  0  0  0  0  0  0  0
  144.4064  133.5231  150.4130 C   0  0  1  0  0  0  0  0  0  0  0  0
  144.0624  132.7996  149.1297 C   0  0  0  0  0  0  0  0  0  0  0  0
  143.0409  134.4739  152.5619 C   0  0  0  0  0  0  0  0  0  0  0  0
  141.1240  136.4892  152.6281 H   0  0  0  0  0  0  0  0  0  0  0  0
  140.4622  136.1245  154.2195 H   0  0  0  0  0  0  0  0  0  0  0  0
  140.3396  134.9403  152.9294 H   0  0  0  0  0  0  0  0  0  0  0  0
  142.1192  134.3174  154.5230 H   0  0  0  0  0  0  0  0  0  0  0  0
  143.5969  136.8550  153.6721 H   0  0  0  0  0  0  0  0  0  0  0  0
  142.5716  136.8173  155.0783 H   0  0  0  0  0  0  0  0  0  0  0  0
  145.8630  137.6327  158.8724 H   0  0  0  0  0  0  0  0  0  0  0  0
  147.4479  139.0484  152.7925 H   0  0  0  0  0  0  0  0  0  0  0  0
  148.0194  141.1199  154.6676 H   0  0  0  0  0  0  0  0  0  0  0  0
  148.3050  140.4849  156.2657 H   0  0  0  0  0  0  0  0  0  0  0  0
  149.8994  140.0482  152.8859 H   0  0  0  0  0  0  0  0  0  0  0  0
  150.7582  141.4543  156.0161 H   0  0  0  0  0  0  0  0  0  0  0  0
  150.4695  139.9642  156.8766 H   0  0  0  0  0  0  0  0  0  0  0  0
  152.6501  140.3880  154.7690 H   0  0  0  0  0  0  0  0  0  0  0  0
  152.8726  140.1849  156.4935 H   0  0  0  0  0  0  0  0  0  0  0  0
  151.9224  138.4702  153.4656 H   0  0  0  0  0  0  0  0  0  0  0  0
  151.6424  136.9565  154.2985 H   0  0  0  0  0  0  0  0  0  0  0  0
  149.6471  137.8233  155.4106 H   0  0  0  0  0  0  0  0  0  0  0  0
  149.4741  138.0541  153.6890 H   0  0  0  0  0  0  0  0  0  0  0  0
  145.8187  134.3357  155.6865 H   0  0  0  0  0  0  0  0  0  0  0  0
  144.2551  133.6054  155.4892 H   0  0  0  0  0  0  0  0  0  0  0  0
  145.6281  135.0057  153.1165 H   0  0  0  0  0  0  0  0  0  0  0  0
  146.0796  133.3993  153.6226 H   0  0  0  0  0  0  0  0  0  0  0  0
  144.4355  131.6782  151.7389 H   0  0  0  0  0  0  0  0  0  0  0  0
  146.2297  134.2474  151.4808 H   0  0  0  0  0  0  0  0  0  0  0  0
  146.4733  132.6805  150.5527 H   0  0  0  0  0  0  0  0  0  0  0  0
  143.9674  134.5172  150.4814 H   0  0  0  0  0  0  0  0  0  0  0  0
  144.5222  131.8110  149.1069 H   0  0  0  0  0  0  0  0  0  0  0  0
  144.4193  133.3690  148.2713 H   0  0  0  0  0  0  0  0  0  0  0  0
  142.9819  132.6822  149.0449 H   0  0  0  0  0  0  0  0  0  0  0  0
  142.2945  133.9363  151.9754 H   0  0  0  0  0  0  0  0  0  0  0  0
  143.4349  135.2522  151.9062 H   0  0  0  0  0  0  0  0  0  0  0  0
  143.7092  132.8227  153.5249 H   0  0  0  0  0  0  0  0  0  0  0  0
  1  2  1  0  0  0  0
  1 30  1  0  0  0  0
  1 31  1  0  0  0  0
  1 32  1  0  0  0  0
  2 29  1  0  0  0  0
  2  3  1  0  0  0  0
  2 33  1  0  0  0  0
  3  4  1  0  0  0  0
  3 34  1  0  0  0  0
  3 35  1  0  0  0  0
  4  5  1  0  0  0  0
  4 22  1  0  0  0  0
  5 10  1  0  0  0  0
  5  6  2  0  0  0  0
  6  7  1  0  0  0  0
  7  8  2  0  0  0  0
  7 36  1  0  0  0  0
  8  9  1  0  0  0  0
  9 13  1  0  0  0  0
  9 10  2  0  0  0  0
 10 11  1  0  0  0  0
 11 12  2  0  0  0  0
 12 13  1  0  0  0  0
 12 37  1  0  0  0  0
 13 14  1  0  0  0  0
 14 15  1  0  0  0  0
 14 38  1  0  0  0  0
 14 39  1  0  0  0  0
 15 21  1  0  0  0  0
 15 16  1  0  0  0  0
 15 17  1  0  0  0  0
 16 40  1  0  0  0  0
 17 18  1  0  0  0  0
 17 41  1  0  0  0  0
 17 42  1  0  0  0  0
 18 19  1  0  0  0  0
 18 43  1  0  0  0  0
 18 44  1  0  0  0  0
 19 20  1  0  0  0  0
 20 21  1  0  0  0  0
 20 45  1  0  0  0  0
 20 46  1  0  0  0  0
 21 47  1  0  0  0  0
 21 48  1  0  0  0  0
 22 23  1  0  0  0  0
 22 49  1  0  0  0  0
 22 50  1  0  0  0  0
 23 24  1  0  0  0  0
 23 51  1  0  0  0  0
 23 52  1  0  0  0  0
 24 25  1  0  0  0  0
 24 29  1  0  0  0  0
 24 62  1  0  0  0  0
 25 27  1  0  0  0  0
 25 26  1  0  0  0  0
 25 53  1  0  0  0  0
 26 27  1  0  0  0  0
 26 54  1  0  0  0  0
 26 55  1  0  0  0  0
 27 28  1  0  0  0  0
 27 56  1  0  0  0  0
 28 57  1  0  0  0  0
 28 58  1  0  0  0  0
 28 59  1  0  0  0  0
 29 60  1  0  0  0  0
 29 61  1  0  0  0  0
M  CHG  1  24   1
M  END
> <s_m_source_file>
AV-unprocessed.smi

> <i_m_source_file_index>
193

> <i_lp_mmshare_version>
43012

> <i_f3d_flags>
0

> <s_epik_input>
W0NIM11bQ0BASF0xW0NIMl1bQ0BIXTFOKFtDSDJdMilbQ0gyXVtDSDJdTihbQ0gyXVtDQEhdMltDSDNdKWMobltjSF1uMyljKGMzNCluW2NIXW40W0NIMl1DNShbT0hdKVtDSDJdW0NIMl1PW0NIMl1bQ0gyXTU=

> <s_epik_cmdline>
J2VwaWtfcHl0aG9uJywgJy1waCcsICc3LjAnLCAnLXRuJywgJzgnLCAnLW1hJywgJzIwMCcsICctbWV0YWxfYmluZGluZycsICctaW1hZScsICc8aW5maWxlLm1hZT4nLCAnLW9tYWUnLCAnPG91dGZpbGUubWFlPic=

> <r_lp_tautomer_probability>
1

> <r_epik_Ionization_Penalty>
0.0540825

> <r_epik_Ionization_Penalty_Charging>
0.0538476

> <r_epik_Ionization_Penalty_Neutral>
0.000234891

> <r_epik_State_Penalty>
0.0200719

> <r_epik_Charging_Adjusted_Penalty>
0.0739194

> <i_epik_Tot_Q>
1

> <i_epik_Tot_abs_Q>
1

> <r_epik_Metal_State_Penalty>
0.0199414

> <b_epik_Metal_Only>
0

> <s_lp_Force_Field>
OPLS_2005

> <r_lp_Energy>
53.912

> <b_lp_Chiralities_Consistent>
1

> <s_lp_Variant>
AV-unprocessed.smi:193-1

> <Gold.Version>
5.8.1

> <Gold.Id.Protein>
6NUR|6NUR_protein|mol2

> <Gold.PLP.Fitness>
42.9162

> <Gold.PLP.PLP>
-37.1462

> <Gold.PLP.part.hbond>
-2.8910

> <Gold.PLP.part.metal>
0.0000

> <Gold.PLP.part.buried>
-2.4200

> <Gold.PLP.part.nonpolar>
-29.3367

> <Gold.PLP.part.repulsive>
0.1621

> <Gold.PLP.ligand.clash>
1.2151

> <Gold.PLP.ligand.torsion>
3.2013

> <Gold.PLP.Chemscore.Hbond>
3.8266

> <Gold.PLP.Chemscore.CHOScore>
0.1319

> <Gold.PLP.Chemscore.Metal>
0.0000

> <Gold.Chemscore.Hbonds>
donor molecule, donor type, donor heavy atom, donor atom, acceptor molecule, acceptor atom, score
      L1  H    16    40       P1  7957  0.88
      L1  H    24    62       P1 10957  2.00
      P1  H  7989  7998       L1    16  0.51
      P1  H  8011  8017       L1    16  0.21
      L1  C    12    37       P1  7957  0.17

> <Gold.PLP.Chemscore.Internal.Correction>
1.5119

> <Gold.Rescore>
     Score         DG    S(hbond)    S(metal)    S(lipo)     H(rot)  DE(clash)    DE(int)     intcor
     15.80     -18.99       2.25        0.00      93.55       1.93       0.02       3.18       ----

> <Gold.Chemscore.Fitness>
15.7960

> <Gold.Chemscore.DG>
-18.9938

> <Gold.Chemscore.ZeroCoef>
-5.4800

> <Gold.Chemscore.Hbond>
2.2474

> <Gold.Chemscore.Metal>
0.0000

> <Gold.Chemscore.Lipo>
93.5536

> <Gold.Chemscore.Internal_Hbond>
0.0000

> <Gold.Chemscore.DEClash>
0.0222

> <Gold.Chemscore.DEInternal>
3.1756

> <Gold.Chemscore.Rot>
1.9290

> <Gold.Chemscore.Internal.Correction>
   9.000000E+99

> <Gold.Chemscore.Hbonds>
donor molecule, donor type, donor heavy atom, donor atom, acceptor molecule, acceptor atom, score
      L1  H    16    40       P1  7957  0.87
      L1  H    24    62       P1 10957  0.69
      P1  H  7989  7998       L1    16  0.20
      P1  H  8011  8017       L1    16  0.01

> <Gold.Chemscore.Hbond.Weighted>
-7.5063

> <Gold.Chemscore.Metal.Weighted>
-0.0000

> <Gold.Chemscore.Lipo.Weighted>
-10.9458

> <Gold.Chemscore.Internal_Hbond.Weighted>
0.0000

> <Gold.Chemscore.DEClash.Weighted>
0.0222

> <Gold.Chemscore.DEInternal.Weighted>
3.1756

> <Gold.Chemscore.Rot.Weighted>
4.9383

> <Gold.Chemscore.Internal.Correction.Weighted>
   9.000000E+99

> <Gold.Protein.RotatedTorsions>
[ 6907 6896 6895 6894 ] final  -18.74 input  -60.11 | X-H torsion
[ 7974 7965 7964 7962 ] final  129.31 input  175.53 | X-H torsion
[ 8008 7997 7996 7995 ] final   52.34 input   59.86 | X-H torsion
[ 10167 10162 10161 10158 ] final -145.47 input  -65.29 | X-H torsion
[ 10718 10713 10712 10709 ] final -168.76 input   66.30 | X-H torsion
[ 10763 10752 10751 10750 ] final  -24.11 input  -60.55 | X-H torsion
[ 11005 11000 10999 10996 ] final   -2.53 input  -57.11 | X-H torsion

> <Gold.Protein.ActiveResidues>
 VAL166  LYS551  ARG553  GLY616  TRP617  ASP618  TYR619  PRO620  LYS621  CYS622 
 ASP623  PHE694  ASN695  SER759  ASP760  ASP761  ALA762  ILE779  LEU786  VAL792 
 PHE793  MET794  SER795  GLU796  ALA797  LYS798  CYS799  TRP800  GLU811  SER814 

> <Gold.Protein.RotatedAtoms>
  151.2737  135.0692  159.9143 H   0  0  0  0  0  0  0  0  0  0  0  0  # atno 6907 bound_to 6896
  152.5346  134.0104  159.7946 H   0  0  0  0  0  0  0  0  0  0  0  0  # atno 6908 bound_to 6896
  151.0346  133.5709  159.2688 H   0  0  0  0  0  0  0  0  0  0  0  0  # atno 6909 bound_to 6896
  145.0301  139.4054  143.5154 H   0  0  0  0  0  0  0  0  0  0  0  0  # atno 7974 bound_to 7965
  155.4502  140.3458  155.4300 H   0  0  0  0  0  0  0  0  0  0  0  0  # atno 8008 bound_to 7997
  156.1225  140.1491  156.9214 H   0  0  0  0  0  0  0  0  0  0  0  0  # atno 8009 bound_to 7997
  154.4834  140.0863  156.7409 H   0  0  0  0  0  0  0  0  0  0  0  0  # atno 8010 bound_to 7997
  139.7802  143.8111  152.2637 H   0  0  0  0  0  0  0  0  0  0  0  0  # atno 10167 bound_to 10162
  156.7016  130.9199  151.3080 H   0  0  0  0  0  0  0  0  0  0  0  0  # atno 10718 bound_to 10713
  153.6786  135.6968  153.5125 H   0  0  0  0  0  0  0  0  0  0  0  0  # atno 10763 bound_to 10752
  153.2502  135.4277  155.0789 H   0  0  0  0  0  0  0  0  0  0  0  0  # atno 10764 bound_to 10752
  154.8406  135.3529  154.6329 H   0  0  0  0  0  0  0  0  0  0  0  0  # atno 10765 bound_to 10752
  140.6593  133.9334  155.8427 H   0  0  0  0  0  0  0  0  0  0  0  0  # atno 11005 bound_to 11000
  146.3497  139.9846  142.8692 LP  0  0  0  0  0  0  0  0  0  0  0  0  # atno 17320 bound_to 7965
  145.1782  140.9754  143.4282 LP  0  0  0  0  0  0  0  0  0  0  0  0  # atno 17321 bound_to 7965
  139.8172  144.7311  150.9620 LP  0  0  0  0  0  0  0  0  0  0  0  0  # atno 17342 bound_to 10162
  140.7818  143.4194  151.0866 LP  0  0  0  0  0  0  0  0  0  0  0  0  # atno 17343 bound_to 10162
  157.6971  130.9293  150.0675 LP  0  0  0  0  0  0  0  0  0  0  0  0  # atno 17370 bound_to 10713
  156.1724  130.3647  149.9146 LP  0  0  0  0  0  0  0  0  0  0  0  0  # atno 17371 bound_to 10713
  141.0477  134.0530  157.3823 LP  0  0  0  0  0  0  0  0  0  0  0  0  # atno 17394 bound_to 11000
  139.9018  135.0167  156.7305 LP  0  0  0  0  0  0  0  0  0  0  0  0  # atno 17395 bound_to 11000

$$$$
