AV-unprocessed.smi:2949|AV-procd|sdf|11287|dock7
  -GOLD-   2272016183D 1   1.00000     0.00000
 Structure written by MMmdl.
 34 35  0  0  0  0  0  0  0  0  1 V2000
  147.2139  138.3287  155.3671 N   0  0  0  0  0  0  0  0  0  0  0  0
  146.9993  138.3817  154.0997 C   0  0  0  0  0  0  0  0  0  0  0  0
  146.2588  137.0690  153.0663 S   0  0  0  0  0  0  0  0  0  0  0  0
  146.4048  138.1040  151.6621 C   0  0  0  0  0  0  0  0  0  0  0  0
  146.9504  139.2818  151.9607 C   0  0  0  0  0  0  0  0  0  0  0  0
  147.2986  139.4741  153.2822 N   0  0  0  0  0  0  0  0  0  0  0  0
  147.8361  140.7435  153.7716 C   0  0  0  0  0  0  0  0  0  0  0  0
  149.2536  140.6843  154.3553 C   0  0  0  0  0  0  0  0  0  0  0  0
  150.0889  139.9226  153.8613 O   0  0  0  0  0  0  0  0  0  0  0  0
  149.4640  141.5076  155.4081 N   0  0  0  0  0  0  0  0  0  0  0  0
  150.5664  141.7205  156.1655 C   0  0  0  0  0  0  0  0  0  0  0  0
  151.5363  140.9686  156.0835 O   0  0  0  0  0  0  0  0  0  0  0  0
  150.5451  142.7777  156.9989 N   0  0  0  0  0  0  0  0  0  0  0  0
  151.6772  143.2603  157.7843 C   0  0  0  0  0  0  0  0  0  0  0  0
  152.1070  142.2389  158.8585 C   0  0  0  0  0  0  0  0  0  0  0  0
  152.1726  143.0101  160.1780 C   0  0  0  0  0  0  0  0  0  0  0  0
  151.1556  144.1342  160.0103 C   0  0  0  0  0  0  0  0  0  0  0  0
  151.2932  144.5427  158.5439 C   0  0  0  0  0  0  0  0  0  0  0  0
  147.6303  139.1894  155.6906 H   0  0  0  0  0  0  0  0  0  0  0  0
  146.0709  137.7774  150.6885 H   0  0  0  0  0  0  0  0  0  0  0  0
  147.1419  140.0919  151.2722 H   0  0  0  0  0  0  0  0  0  0  0  0
  147.8140  141.4873  152.9733 H   0  0  0  0  0  0  0  0  0  0  0  0
  147.1699  141.1282  154.5452 H   0  0  0  0  0  0  0  0  0  0  0  0
  148.6619  142.0575  155.6794 H   0  0  0  0  0  0  0  0  0  0  0  0
  149.6772  143.2868  157.0917 H   0  0  0  0  0  0  0  0  0  0  0  0
  152.5109  143.4816  157.1152 H   0  0  0  0  0  0  0  0  0  0  0  0
  151.3683  141.4409  158.9508 H   0  0  0  0  0  0  0  0  0  0  0  0
  153.0597  141.7666  158.6171 H   0  0  0  0  0  0  0  0  0  0  0  0
  151.9640  142.3801  161.0431 H   0  0  0  0  0  0  0  0  0  0  0  0
  153.1688  143.4349  160.3073 H   0  0  0  0  0  0  0  0  0  0  0  0
  150.1506  143.7517  160.1936 H   0  0  0  0  0  0  0  0  0  0  0  0
  151.3285  144.9642  160.6958 H   0  0  0  0  0  0  0  0  0  0  0  0
  152.1005  145.2701  158.4506 H   0  0  0  0  0  0  0  0  0  0  0  0
  150.3885  145.0189  158.1632 H   0  0  0  0  0  0  0  0  0  0  0  0
  1  2  2  0  0  0  0
  1 19  1  0  0  0  0
  2  6  1  0  0  0  0
  2  3  1  0  0  0  0
  3  4  1  0  0  0  0
  4  5  2  0  0  0  0
  4 20  1  0  0  0  0
  5  6  1  0  0  0  0
  5 21  1  0  0  0  0
  6  7  1  0  0  0  0
  7  8  1  0  0  0  0
  7 22  1  0  0  0  0
  7 23  1  0  0  0  0
  8  9  2  0  0  0  0
  8 10  1  0  0  0  0
 10 11  1  0  0  0  0
 10 24  1  0  0  0  0
 11 12  2  0  0  0  0
 11 13  1  0  0  0  0
 13 14  1  0  0  0  0
 13 25  1  0  0  0  0
 14 18  1  0  0  0  0
 14 15  1  0  0  0  0
 14 26  1  0  0  0  0
 15 16  1  0  0  0  0
 15 27  1  0  0  0  0
 15 28  1  0  0  0  0
 16 17  1  0  0  0  0
 16 29  1  0  0  0  0
 16 30  1  0  0  0  0
 17 18  1  0  0  0  0
 17 31  1  0  0  0  0
 17 32  1  0  0  0  0
 18 33  1  0  0  0  0
 18 34  1  0  0  0  0
M  END
> <s_m_source_file>
AV-unprocessed.smi

> <i_m_source_file_index>
2949

> <i_lp_mmshare_version>
43012

> <i_f3d_flags>
0

> <s_epik_input>
W0hdL049YzFcc1tjSF1bY0hdbjFbQ0gyXUMoPU8pW05IXUMoPU8pW05IXVtDSF0yW0NIMl1bQ0gyXVtDSDJdW0NIMl0y

> <s_epik_cmdline>
J2VwaWtfcHl0aG9uJywgJy1waCcsICc3LjAnLCAnLXRuJywgJzgnLCAnLW1hJywgJzIwMCcsICctbWV0YWxfYmluZGluZycsICctaW1hZScsICc8aW5maWxlLm1hZT4nLCAnLW9tYWUnLCAnPG91dGZpbGUubWFlPic=

> <r_epik_Ionization_Penalty>
2.0346

> <r_epik_Ionization_Penalty_Charging>
2.03458

> <r_epik_Ionization_Penalty_Neutral>
2.61125e-05

> <r_epik_State_Penalty>
2.18096

> <r_epik_Charging_Adjusted_Penalty>
4.21554

> <i_epik_Tot_Q>
0

> <i_epik_Tot_abs_Q>
0

> <r_epik_Metal_State_Penalty>
2.18096

> <b_epik_Metal_Only>
0

> <s_lp_Force_Field>
OPLS_2005

> <r_lp_Energy>
19.3427

> <b_lp_Chiralities_Consistent>
1

> <s_lp_Variant>
AV-unprocessed.smi:2949-3

> <Gold.Version>
5.8.1

> <Gold.Id.Protein>
6NUR|6NUR_protein|mol2

> <Gold.PLP.Fitness>
51.5222

> <Gold.PLP.PLP>
-39.5579

> <Gold.PLP.part.hbond>
-3.0000

> <Gold.PLP.part.metal>
0.0000

> <Gold.PLP.part.buried>
0.2365

> <Gold.PLP.part.nonpolar>
-36.9611

> <Gold.PLP.part.repulsive>
0.2864

> <Gold.PLP.ligand.clash>
0.0000

> <Gold.PLP.ligand.torsion>
0.4315

> <Gold.PLP.Chemscore.Hbond>
2.6101

> <Gold.PLP.Chemscore.CHOScore>
1.6572

> <Gold.PLP.Chemscore.Metal>
0.0000

> <Gold.Chemscore.Hbonds>
donor molecule, donor type, donor heavy atom, donor atom, acceptor molecule, acceptor atom, score
      L1  H    13    25       P1  8028  0.34
      P1  H  7989  7998       L1     9  0.90
      L1  C     4    20       P1 10171  0.79
      L1  C     5    21       P1  7957  0.44

> <Gold.PLP.Chemscore.Internal.Correction>
0.0254

> <Gold.Rescore>
     Score         DG    S(hbond)    S(metal)    S(lipo)     H(rot)  DE(clash)    DE(int)     intcor
     13.49     -18.03       2.07        0.00      85.06       1.69       1.60       2.94       ----

> <Gold.Chemscore.Fitness>
13.4927

> <Gold.Chemscore.DG>
-18.0307

> <Gold.Chemscore.ZeroCoef>
-5.4800

> <Gold.Chemscore.Hbond>
2.0711

> <Gold.Chemscore.Metal>
0.0000

> <Gold.Chemscore.Lipo>
85.0635

> <Gold.Chemscore.Internal_Hbond>
0.0000

> <Gold.Chemscore.DEClash>
1.5988

> <Gold.Chemscore.DEInternal>
2.9393

> <Gold.Chemscore.Rot>
1.6871

> <Gold.Chemscore.Internal.Correction>
   9.000000E+99

> <Gold.Chemscore.Hbonds>
donor molecule, donor type, donor heavy atom, donor atom, acceptor molecule, acceptor atom, score
      L1  H    13    25       P1  8028  0.33
      P1  H  7989  7998       L1     9  0.62

> <Gold.Chemscore.Hbond.Weighted>
-6.9174

> <Gold.Chemscore.Metal.Weighted>
-0.0000

> <Gold.Chemscore.Lipo.Weighted>
-9.9524

> <Gold.Chemscore.Internal_Hbond.Weighted>
0.0000

> <Gold.Chemscore.DEClash.Weighted>
1.5988

> <Gold.Chemscore.DEInternal.Weighted>
2.9393

> <Gold.Chemscore.Rot.Weighted>
4.3191

> <Gold.Chemscore.Internal.Correction.Weighted>
   9.000000E+99

> <Gold.Protein.RotatedTorsions>
[ 6907 6896 6895 6894 ] final -168.14 input  -60.11 | X-H torsion
[ 7974 7965 7964 7962 ] final  -78.83 input  175.53 | X-H torsion
[ 8008 7997 7996 7995 ] final   12.19 input   59.86 | X-H torsion
[ 10167 10162 10161 10158 ] final -169.76 input  -65.29 | X-H torsion
[ 10718 10713 10712 10709 ] final -145.52 input   66.30 | X-H torsion
[ 10763 10752 10751 10750 ] final  178.67 input  -60.55 | X-H torsion
[ 11005 11000 10999 10996 ] final   37.89 input  -57.11 | X-H torsion

> <Gold.Protein.ActiveResidues>
 VAL166  LYS551  ARG553  GLY616  TRP617  ASP618  TYR619  PRO620  LYS621  CYS622 
 ASP623  PHE694  ASN695  SER759  ASP760  ASP761  ALA762  ILE779  LEU786  VAL792 
 PHE793  MET794  SER795  GLU796  ALA797  LYS798  CYS799  TRP800  GLU811  SER814 

> <Gold.Protein.RotatedAtoms>
  151.4708  133.3569  159.2822 H   0  0  0  0  0  0  0  0  0  0  0  0  # atno 6907 bound_to 6896
  150.8962  134.8373  159.7339 H   0  0  0  0  0  0  0  0  0  0  0  0  # atno 6908 bound_to 6896
  152.4853  134.4623  159.9661 H   0  0  0  0  0  0  0  0  0  0  0  0  # atno 6909 bound_to 6896
  145.5813  140.9448  143.1342 H   0  0  0  0  0  0  0  0  0  0  0  0  # atno 7974 bound_to 7965
  154.8172  140.2878  155.5812 H   0  0  0  0  0  0  0  0  0  0  0  0  # atno 8008 bound_to 7997
  156.2994  140.2557  156.3002 H   0  0  0  0  0  0  0  0  0  0  0  0  # atno 8009 bound_to 7997
  154.9380  140.0382  157.2071 H   0  0  0  0  0  0  0  0  0  0  0  0  # atno 8010 bound_to 7997
  139.5903  144.1228  152.1626 H   0  0  0  0  0  0  0  0  0  0  0  0  # atno 10167 bound_to 10162
  156.3835  130.7849  151.2044 H   0  0  0  0  0  0  0  0  0  0  0  0  # atno 10718 bound_to 10713
  154.5106  135.2788  155.1345 H   0  0  0  0  0  0  0  0  0  0  0  0  # atno 10763 bound_to 10752
  154.2942  135.6261  153.5401 H   0  0  0  0  0  0  0  0  0  0  0  0  # atno 10764 bound_to 10752
  152.9918  135.5681  154.5571 H   0  0  0  0  0  0  0  0  0  0  0  0  # atno 10765 bound_to 10752
  140.2180  134.3675  155.8018 H   0  0  0  0  0  0  0  0  0  0  0  0  # atno 11005 bound_to 11000
  144.7393  139.7496  143.7317 LP  0  0  0  0  0  0  0  0  0  0  0  0  # atno 17320 bound_to 7965
  146.1714  139.4866  142.9925 LP  0  0  0  0  0  0  0  0  0  0  0  0  # atno 17321 bound_to 7965
  140.0801  144.5707  150.7128 LP  0  0  0  0  0  0  0  0  0  0  0  0  # atno 17342 bound_to 10162
  140.7167  143.2551  151.4411 LP  0  0  0  0  0  0  0  0  0  0  0  0  # atno 17343 bound_to 10162
  157.7494  131.0337  150.4283 LP  0  0  0  0  0  0  0  0  0  0  0  0  # atno 17370 bound_to 10713
  156.4531  130.4016  149.6623 LP  0  0  0  0  0  0  0  0  0  0  0  0  # atno 17371 bound_to 10713
  141.2224  133.7178  156.8529 LP  0  0  0  0  0  0  0  0  0  0  0  0  # atno 17394 bound_to 11000
  140.1880  134.8986  157.3026 LP  0  0  0  0  0  0  0  0  0  0  0  0  # atno 17395 bound_to 11000

$$$$
