AV-unprocessed.smi:2124|AV-procd|sdf|8656|dock5
  -GOLD-   2272011403D 1   1.00000     0.00000
 Structure written by MMmdl.
 47 49  0  0  0  0  0  0  0  0  1 V2000
  146.6823  138.2821  151.8272 C   0  0  0  0  0  0  0  0  0  0  0  0
  146.6434  139.1597  153.0602 C   0  0  0  0  0  0  0  0  0  0  0  0
  145.7961  139.0108  154.0243 N   0  0  0  0  0  0  0  0  0  0  0  0
  145.8632  139.8811  155.1209 C   0  0  0  0  0  0  0  0  0  0  0  0
  144.8499  139.6231  156.2227 C   0  0  0  0  0  0  0  0  0  0  0  0
  146.7933  140.8787  155.1880 C   0  0  0  0  0  0  0  0  0  0  0  0
  146.9202  141.8153  156.3906 C   0  0  0  0  0  0  0  0  0  0  0  0
  148.0935  141.5000  157.3184 C   0  0  0  0  0  0  0  0  0  0  0  0
  147.9498  140.7184  158.2578 O   0  0  0  0  0  0  0  0  0  0  0  0
  149.2594  142.0854  157.0069 N   0  0  0  0  0  0  0  0  0  0  0  0
  150.5644  141.7341  157.5552 C   0  0  2  0  0  0  0  0  0  0  0  0
  150.6374  140.2168  157.7862 C   0  0  0  0  0  0  0  0  0  0  0  0
  150.8001  142.5403  158.8546 C   0  0  1  0  0  0  0  0  0  0  0  0
  152.1827  142.3249  159.5092 C   0  0  0  0  0  0  0  0  0  0  0  0
  152.6848  143.7633  159.7378 C   0  0  1  0  0  0  0  0  0  0  0  0
  153.0952  144.3764  158.3859 C   0  0  0  0  0  0  0  0  0  0  0  0
  151.7392  144.6244  157.7009 C   0  0  0  0  0  0  0  0  0  0  0  0
  150.7316  144.0858  158.7370 C   0  0  2  0  0  0  0  0  0  0  0  0
  151.3927  144.5123  160.0430 C   0  0  0  0  0  0  0  0  0  0  0  0
  147.7515  141.0433  154.0774 C   0  0  0  0  0  0  0  0  0  0  0  0
  148.6346  141.8985  154.0396 O   0  0  0  0  0  0  0  0  0  0  0  0
  147.6166  140.1572  153.0657 N   0  0  0  0  0  0  0  0  0  0  0  0
  148.2522  140.2254  152.2841 H   0  0  0  0  0  0  0  0  0  0  0  0
  146.8425  137.2422  152.1126 H   0  0  0  0  0  0  0  0  0  0  0  0
  147.4830  138.5766  151.1473 H   0  0  0  0  0  0  0  0  0  0  0  0
  145.7362  138.3483  151.2896 H   0  0  0  0  0  0  0  0  0  0  0  0
  145.3525  139.3774  157.1582 H   0  0  0  0  0  0  0  0  0  0  0  0
  144.1941  138.7891  155.9700 H   0  0  0  0  0  0  0  0  0  0  0  0
  144.2243  140.5011  156.3833 H   0  0  0  0  0  0  0  0  0  0  0  0
  147.0015  142.8545  156.0698 H   0  0  0  0  0  0  0  0  0  0  0  0
  145.9966  141.7734  156.9687 H   0  0  0  0  0  0  0  0  0  0  0  0
  149.2597  142.7362  156.2347 H   0  0  0  0  0  0  0  0  0  0  0  0
  151.3424  142.0001  156.8378 H   0  0  0  0  0  0  0  0  0  0  0  0
  151.6106  139.9232  158.1796 H   0  0  0  0  0  0  0  0  0  0  0  0
  150.4835  139.6709  156.8549 H   0  0  0  0  0  0  0  0  0  0  0  0
  149.8782  139.8853  158.4953 H   0  0  0  0  0  0  0  0  0  0  0  0
  150.0344  142.2414  159.5731 H   0  0  0  0  0  0  0  0  0  0  0  0
  152.0773  141.7925  160.4553 H   0  0  0  0  0  0  0  0  0  0  0  0
  152.8683  141.7524  158.8836 H   0  0  0  0  0  0  0  0  0  0  0  0
  153.4562  143.8402  160.5044 H   0  0  0  0  0  0  0  0  0  0  0  0
  153.6292  145.3164  158.5295 H   0  0  0  0  0  0  0  0  0  0  0  0
  153.7374  143.7110  157.8077 H   0  0  0  0  0  0  0  0  0  0  0  0
  151.5846  145.6923  157.5407 H   0  0  0  0  0  0  0  0  0  0  0  0
  151.6625  144.1390  156.7288 H   0  0  0  0  0  0  0  0  0  0  0  0
  149.7207  144.4713  158.5999 H   0  0  0  0  0  0  0  0  0  0  0  0
  150.8777  144.1446  160.9322 H   0  0  0  0  0  0  0  0  0  0  0  0
  151.5272  145.5922  160.1291 H   0  0  0  0  0  0  0  0  0  0  0  0
  1  2  1  0  0  0  0
  1 24  1  0  0  0  0
  1 25  1  0  0  0  0
  1 26  1  0  0  0  0
  2 22  1  0  0  0  0
  2  3  2  0  0  0  0
  3  4  1  0  0  0  0
  4  5  1  0  0  0  0
  4  6  2  0  0  0  0
  5 27  1  0  0  0  0
  5 28  1  0  0  0  0
  5 29  1  0  0  0  0
  6  7  1  0  0  0  0
  6 20  1  0  0  0  0
  7  8  1  0  0  0  0
  7 30  1  0  0  0  0
  7 31  1  0  0  0  0
  8  9  2  0  0  0  0
  8 10  1  0  0  0  0
 10 11  1  0  0  0  0
 10 32  1  0  0  0  0
 11 12  1  0  0  0  0
 11 13  1  0  0  0  0
 11 33  1  0  0  0  0
 12 34  1  0  0  0  0
 12 35  1  0  0  0  0
 12 36  1  0  0  0  0
 13 18  1  0  0  0  0
 13 14  1  0  0  0  0
 13 37  1  0  0  0  0
 14 15  1  0  0  0  0
 14 38  1  0  0  0  0
 14 39  1  0  0  0  0
 15 19  1  0  0  0  0
 15 16  1  0  0  0  0
 15 40  1  0  0  0  0
 16 17  1  0  0  0  0
 16 41  1  0  0  0  0
 16 42  1  0  0  0  0
 17 18  1  0  0  0  0
 17 43  1  0  0  0  0
 17 44  1  0  0  0  0
 18 19  1  0  0  0  0
 18 45  1  0  0  0  0
 19 46  1  0  0  0  0
 19 47  1  0  0  0  0
 20 21  2  0  0  0  0
 20 22  1  0  0  0  0
 22 23  1  0  0  0  0
M  END
> <s_m_source_file>
AV-unprocessed.smi

> <i_m_source_file_index>
2124

> <i_lp_mmshare_version>
43012

> <i_f3d_flags>
0

> <s_epik_input>
W0NIM11jMW5jKFtDSDNdKWMoYyg9TylbbkhdMSlbQ0gyXUMoPU8pW05IXVtDQEhdKFtDSDNdKVtDQEhdKFtDSDJdW0NASF0yMylbQ0BIXShbQ0gyXTMpW0NIMl1bQ0gyXTI=

> <s_epik_cmdline>
J2VwaWtfcHl0aG9uJywgJy1waCcsICc3LjAnLCAnLXRuJywgJzgnLCAnLW1hJywgJzIwMCcsICctbWV0YWxfYmluZGluZycsICctaW1hZScsICc8aW5maWxlLm1hZT4nLCAnLW9tYWUnLCAnPG91dGZpbGUubWFlPic=

> <r_lp_tautomer_probability>
0.839158

> <r_epik_Ionization_Penalty>
0.000383628

> <r_epik_Ionization_Penalty_Charging>
0.00035045

> <r_epik_Ionization_Penalty_Neutral>
3.31781e-05

> <r_epik_State_Penalty>
0.09125

> <r_epik_Charging_Adjusted_Penalty>
0.0916005

> <i_epik_Tot_Q>
0

> <i_epik_Tot_abs_Q>
0

> <r_epik_Metal_State_Penalty>
0.255229

> <b_epik_Metal_Only>
0

> <s_lp_Force_Field>
OPLS_2005

> <r_lp_Energy>
50.9321

> <b_lp_Chiralities_Consistent>
1

> <s_lp_Variant>
AV-unprocessed.smi:2124-7

> <Gold.Version>
5.8.1

> <Gold.Id.Protein>
6NUR|6NUR_protein|mol2

> <Gold.PLP.Fitness>
45.8737

> <Gold.PLP.PLP>
-40.7847

> <Gold.PLP.part.hbond>
-4.0000

> <Gold.PLP.part.metal>
0.0000

> <Gold.PLP.part.buried>
-5.1537

> <Gold.PLP.part.nonpolar>
-34.0137

> <Gold.PLP.part.repulsive>
1.3907

> <Gold.PLP.ligand.clash>
0.0000

> <Gold.PLP.ligand.torsion>
0.9351

> <Gold.PLP.Chemscore.Hbond>
2.3120

> <Gold.PLP.Chemscore.CHOScore>
0.0000

> <Gold.PLP.Chemscore.Metal>
0.0000

> <Gold.Chemscore.Hbonds>
donor molecule, donor type, donor heavy atom, donor atom, acceptor molecule, acceptor atom, score
      L1  H    10    32       P1  8028  0.74
      L1  H    22    23       P1  7957  1.00
      P1  H  8011  8017       L1    21  0.36

> <Gold.PLP.Chemscore.Internal.Correction>
0.0233

> <Gold.Rescore>
     Score         DG    S(hbond)    S(metal)    S(lipo)     H(rot)  DE(clash)    DE(int)     intcor
     18.68     -21.09       2.26        0.00     105.04       1.65       0.22       2.19       ----

> <Gold.Chemscore.Fitness>
18.6756

> <Gold.Chemscore.DG>
-21.0879

> <Gold.Chemscore.ZeroCoef>
-5.4800

> <Gold.Chemscore.Hbond>
2.2609

> <Gold.Chemscore.Metal>
0.0000

> <Gold.Chemscore.Lipo>
105.0365

> <Gold.Chemscore.Internal_Hbond>
0.0000

> <Gold.Chemscore.DEClash>
0.2220

> <Gold.Chemscore.DEInternal>
2.1904

> <Gold.Chemscore.Rot>
1.6534

> <Gold.Chemscore.Internal.Correction>
   9.000000E+99

> <Gold.Chemscore.Hbonds>
donor molecule, donor type, donor heavy atom, donor atom, acceptor molecule, acceptor atom, score
      L1  H    10    32       P1  8028  0.72
      L1  H    22    23       P1  7957  1.00
      P1  H  8011  8017       L1    21  0.35

> <Gold.Chemscore.Hbond.Weighted>
-7.5513

> <Gold.Chemscore.Metal.Weighted>
-0.0000

> <Gold.Chemscore.Lipo.Weighted>
-12.2893

> <Gold.Chemscore.Internal_Hbond.Weighted>
0.0000

> <Gold.Chemscore.DEClash.Weighted>
0.2220

> <Gold.Chemscore.DEInternal.Weighted>
2.1904

> <Gold.Chemscore.Rot.Weighted>
4.2326

> <Gold.Chemscore.Internal.Correction.Weighted>
   9.000000E+99

> <Gold.Protein.RotatedTorsions>
[ 6907 6896 6895 6894 ] final   85.05 input  -60.11 | X-H torsion
[ 7974 7965 7964 7962 ] final  -18.68 input  175.53 | X-H torsion
[ 8008 7997 7996 7995 ] final   57.81 input   59.86 | X-H torsion
[ 10167 10162 10161 10158 ] final  135.32 input  -65.29 | X-H torsion
[ 10718 10713 10712 10709 ] final  108.67 input   66.30 | X-H torsion
[ 10763 10752 10751 10750 ] final   29.65 input  -60.55 | X-H torsion
[ 11005 11000 10999 10996 ] final  146.04 input  -57.11 | X-H torsion

> <Gold.Protein.ActiveResidues>
 VAL166  LYS551  ARG553  GLY616  TRP617  ASP618  TYR619  PRO620  LYS621  CYS622 
 ASP623  PHE694  ASN695  SER759  ASP760  ASP761  ALA762  ILE779  LEU786  VAL792 
 PHE793  MET794  SER795  GLU796  ALA797  LYS798  CYS799  TRP800  GLU811  SER814 

> <Gold.Protein.RotatedAtoms>
  152.5366  134.2646  159.8948 H   0  0  0  0  0  0  0  0  0  0  0  0  # atno 6907 bound_to 6896
  151.2605  133.4298  159.2623 H   0  0  0  0  0  0  0  0  0  0  0  0  # atno 6908 bound_to 6896
  151.0457  134.9653  159.8242 H   0  0  0  0  0  0  0  0  0  0  0  0  # atno 6909 bound_to 6896
  146.1880  140.3956  142.8469 H   0  0  0  0  0  0  0  0  0  0  0  0  # atno 7974 bound_to 7965
  155.5398  140.3484  155.4444 H   0  0  0  0  0  0  0  0  0  0  0  0  # atno 8008 bound_to 7997
  156.0659  140.1351  156.9913 H   0  0  0  0  0  0  0  0  0  0  0  0  # atno 8009 bound_to 7997
  154.4503  140.0975  156.6571 H   0  0  0  0  0  0  0  0  0  0  0  0  # atno 8010 bound_to 7997
  139.5221  144.6523  151.5267 H   0  0  0  0  0  0  0  0  0  0  0  0  # atno 10167 bound_to 10162
  157.6576  131.0898  150.6339 H   0  0  0  0  0  0  0  0  0  0  0  0  # atno 10718 bound_to 10713
  153.0417  135.6483  154.0924 H   0  0  0  0  0  0  0  0  0  0  0  0  # atno 10763 bound_to 10752
  154.0629  135.2886  155.3323 H   0  0  0  0  0  0  0  0  0  0  0  0  # atno 10764 bound_to 10752
  154.6646  135.5379  153.8125 H   0  0  0  0  0  0  0  0  0  0  0  0  # atno 10765 bound_to 10752
  140.0760  134.9124  157.1424 H   0  0  0  0  0  0  0  0  0  0  0  0  # atno 11005 bound_to 11000
  144.8432  140.6890  143.6216 LP  0  0  0  0  0  0  0  0  0  0  0  0  # atno 17320 bound_to 7965
  145.3881  139.1622  143.4244 LP  0  0  0  0  0  0  0  0  0  0  0  0  # atno 17321 bound_to 7965
  140.6333  143.9034  150.6624 LP  0  0  0  0  0  0  0  0  0  0  0  0  # atno 17342 bound_to 10162
  140.2345  143.3710  152.1538 LP  0  0  0  0  0  0  0  0  0  0  0  0  # atno 17343 bound_to 10162
  156.6645  130.4521  149.5677 LP  0  0  0  0  0  0  0  0  0  0  0  0  # atno 17370 bound_to 10713
  156.2043  130.6639  151.1201 LP  0  0  0  0  0  0  0  0  0  0  0  0  # atno 17371 bound_to 10713
  140.3556  134.2550  155.7193 LP  0  0  0  0  0  0  0  0  0  0  0  0  # atno 17394 bound_to 11000
  141.2030  133.7924  157.0363 LP  0  0  0  0  0  0  0  0  0  0  0  0  # atno 17395 bound_to 11000

$$$$
