AV-unprocessed.smi:2478|AV-procd|sdf|9766|dock1
  -GOLD-   2272013413D 1   1.00000     0.00000
 Structure written by MMmdl.
 42 43  0  0  0  0  0  0  0  0  1 V2000
  153.1851  141.5079  160.5883 C   0  0  0  0  0  0  0  0  0  0  0  0
  152.2820  142.7317  160.3638 C   0  0  1  0  0  0  0  0  0  0  0  0
  152.5814  143.8257  161.4091 C   0  0  0  0  0  0  0  0  0  0  0  0
  151.7057  145.0708  161.2015 C   0  0  0  0  0  0  0  0  0  0  0  0
  151.8637  145.6252  159.7791 C   0  0  0  0  0  0  0  0  0  0  0  0
  151.5494  144.5463  158.7332 C   0  0  0  0  0  0  0  0  0  0  0  0
  152.4265  143.2923  158.9308 C   0  0  2  0  0  0  0  0  0  0  0  0
  152.0054  142.2887  158.0161 O   0  0  0  0  0  0  0  0  0  0  0  0
  150.6170  141.9937  158.0759 C   0  0  0  0  0  0  0  0  0  0  0  0
  150.2650  141.0670  156.9156 C   0  0  0  0  0  0  0  0  0  0  0  0
  151.0707  140.2091  156.5555 O   0  0  0  0  0  0  0  0  0  0  0  0
  149.0632  141.2831  156.3502 N   0  0  0  0  0  0  0  0  0  0  0  0
  148.4587  140.6009  155.2599 C   0  0  0  0  0  0  0  0  0  0  0  0
  148.9903  139.4870  154.6970 N   0  0  0  0  0  0  0  0  0  0  0  0
  148.3508  138.8970  153.6670 C   0  0  0  0  0  0  0  0  0  0  0  0
  147.1417  139.3790  153.1374 C   0  0  0  0  0  0  0  0  0  0  0  0
  146.5802  140.5331  153.7106 C   0  0  0  0  0  0  0  0  0  0  0  0
  147.2487  141.1669  154.7852 C   0  0  0  0  0  0  0  0  0  0  0  0
  146.7458  142.2921  155.4023 O   0  0  0  0  0  0  0  0  0  0  0  0
  145.5410  142.7814  155.0056 C   0  0  0  0  0  0  0  0  0  0  0  0
  145.0877  143.7001  155.8934 F   0  0  0  0  0  0  0  0  0  0  0  0
  145.6704  143.3980  153.8062 F   0  0  0  0  0  0  0  0  0  0  0  0
  154.2366  141.7615  160.4503 H   0  0  0  0  0  0  0  0  0  0  0  0
  152.9439  140.7027  159.8937 H   0  0  0  0  0  0  0  0  0  0  0  0
  153.0681  141.1137  161.5981 H   0  0  0  0  0  0  0  0  0  0  0  0
  151.2480  142.4113  160.5010 H   0  0  0  0  0  0  0  0  0  0  0  0
  152.4226  143.4341  162.4144 H   0  0  0  0  0  0  0  0  0  0  0  0
  153.6329  144.1108  161.3528 H   0  0  0  0  0  0  0  0  0  0  0  0
  150.6601  144.8178  161.3822 H   0  0  0  0  0  0  0  0  0  0  0  0
  151.9692  145.8372  161.9310 H   0  0  0  0  0  0  0  0  0  0  0  0
  151.2053  146.4828  159.6385 H   0  0  0  0  0  0  0  0  0  0  0  0
  152.8821  145.9887  159.6367 H   0  0  0  0  0  0  0  0  0  0  0  0
  150.4964  144.2696  158.8046 H   0  0  0  0  0  0  0  0  0  0  0  0
  151.6904  144.9598  157.7349 H   0  0  0  0  0  0  0  0  0  0  0  0
  153.4756  143.5452  158.7632 H   0  0  0  0  0  0  0  0  0  0  0  0
  150.3553  141.4994  159.0117 H   0  0  0  0  0  0  0  0  0  0  0  0
  150.0342  142.9138  158.0106 H   0  0  0  0  0  0  0  0  0  0  0  0
  148.5123  142.0279  156.7519 H   0  0  0  0  0  0  0  0  0  0  0  0
  148.8156  138.0131  153.2558 H   0  0  0  0  0  0  0  0  0  0  0  0
  146.6562  138.8745  152.3152 H   0  0  0  0  0  0  0  0  0  0  0  0
  145.6463  140.9162  153.3271 H   0  0  0  0  0  0  0  0  0  0  0  0
  144.8000  141.9893  154.8949 H   0  0  0  0  0  0  0  0  0  0  0  0
  1  2  1  0  0  0  0
  1 23  1  0  0  0  0
  1 24  1  0  0  0  0
  1 25  1  0  0  0  0
  2  7  1  0  0  0  0
  2  3  1  0  0  0  0
  2 26  1  0  0  0  0
  3  4  1  0  0  0  0
  3 27  1  0  0  0  0
  3 28  1  0  0  0  0
  4  5  1  0  0  0  0
  4 29  1  0  0  0  0
  4 30  1  0  0  0  0
  5  6  1  0  0  0  0
  5 31  1  0  0  0  0
  5 32  1  0  0  0  0
  6  7  1  0  0  0  0
  6 33  1  0  0  0  0
  6 34  1  0  0  0  0
  7  8  1  0  0  0  0
  7 35  1  0  0  0  0
  8  9  1  0  0  0  0
  9 10  1  0  0  0  0
  9 36  1  0  0  0  0
  9 37  1  0  0  0  0
 10 11  2  0  0  0  0
 10 12  1  0  0  0  0
 12 13  1  0  0  0  0
 12 38  1  0  0  0  0
 13 18  1  0  0  0  0
 13 14  2  0  0  0  0
 14 15  1  0  0  0  0
 15 16  2  0  0  0  0
 15 39  1  0  0  0  0
 16 17  1  0  0  0  0
 16 40  1  0  0  0  0
 17 18  2  0  0  0  0
 17 41  1  0  0  0  0
 18 19  1  0  0  0  0
 19 20  1  0  0  0  0
 20 21  1  0  0  0  0
 20 22  1  0  0  0  0
 20 42  1  0  0  0  0
M  END
> <s_m_source_file>
AV-unprocessed.smi

> <i_m_source_file_index>
2478

> <i_lp_mmshare_version>
43012

> <i_f3d_flags>
0

> <s_epik_input>
W0NIM11bQ0BASF0xW0NIMl1bQ0gyXVtDSDJdW0NIMl1bQ0BIXTFPW0NIMl1DKD1PKVtOSF1jMm5bY0hdW2NIXVtjSF1jMk9bQ0hdKEYpRg==

> <s_epik_cmdline>
J2VwaWtfcHl0aG9uJywgJy1waCcsICc3LjAnLCAnLXRuJywgJzgnLCAnLW1hJywgJzIwMCcsICctbWV0YWxfYmluZGluZycsICctaW1hZScsICc8aW5maWxlLm1hZT4nLCAnLW9tYWUnLCAnPG91dGZpbGUubWFlPic=

> <r_lp_tautomer_probability>
1

> <r_epik_Ionization_Penalty>
6.06012e-05

> <r_epik_Ionization_Penalty_Charging>
0

> <r_epik_Ionization_Penalty_Neutral>
6.06012e-05

> <r_epik_State_Penalty>
-0

> <r_epik_Charging_Adjusted_Penalty>
0

> <i_epik_Tot_Q>
0

> <i_epik_Tot_abs_Q>
0

> <r_epik_Metal_State_Penalty>
-0

> <b_epik_Metal_Only>
0

> <s_lp_Force_Field>
OPLS_2005

> <r_lp_Energy>
13.1013

> <b_lp_Chiralities_Consistent>
1

> <s_lp_Variant>
AV-unprocessed.smi:2478-4

> <Gold.Version>
5.8.1

> <Gold.Id.Protein>
6NUR|6NUR_protein|mol2

> <Gold.PLP.Fitness>
44.3507

> <Gold.PLP.PLP>
-42.0800

> <Gold.PLP.part.hbond>
0.0000

> <Gold.PLP.part.metal>
0.0000

> <Gold.PLP.part.buried>
0.8279

> <Gold.PLP.part.nonpolar>
-43.8574

> <Gold.PLP.part.repulsive>
0.3766

> <Gold.PLP.ligand.clash>
0.0000

> <Gold.PLP.ligand.torsion>
0.4915

> <Gold.PLP.Chemscore.Hbond>
0.0000

> <Gold.PLP.Chemscore.CHOScore>
1.0014

> <Gold.PLP.Chemscore.Metal>
0.0000

> <Gold.Chemscore.Hbonds>
donor molecule, donor type, donor heavy atom, donor atom, acceptor molecule, acceptor atom, score
      L1  C    15    39       P1  7948  1.00

> <Gold.PLP.Chemscore.Internal.Correction>
0.2496

> <Gold.Rescore>
     Score         DG    S(hbond)    S(metal)    S(lipo)     H(rot)  DE(clash)    DE(int)     intcor
     11.65     -14.56       0.00        0.00     118.06       1.85       0.81       2.11       ----

> <Gold.Chemscore.Fitness>
11.6450

> <Gold.Chemscore.DG>
-14.5619

> <Gold.Chemscore.ZeroCoef>
-5.4800

> <Gold.Chemscore.Hbond>
0.0000

> <Gold.Chemscore.Metal>
0.0000

> <Gold.Chemscore.Lipo>
118.0601

> <Gold.Chemscore.Internal_Hbond>
0.0000

> <Gold.Chemscore.DEClash>
0.8057

> <Gold.Chemscore.DEInternal>
2.1112

> <Gold.Chemscore.Rot>
1.8481

> <Gold.Chemscore.Internal.Correction>
   9.000000E+99

> <Gold.Chemscore.Hbond.Weighted>
-0.0000

> <Gold.Chemscore.Metal.Weighted>
-0.0000

> <Gold.Chemscore.Lipo.Weighted>
-13.8130

> <Gold.Chemscore.Internal_Hbond.Weighted>
0.0000

> <Gold.Chemscore.DEClash.Weighted>
0.8057

> <Gold.Chemscore.DEInternal.Weighted>
2.1112

> <Gold.Chemscore.Rot.Weighted>
4.7311

> <Gold.Chemscore.Internal.Correction.Weighted>
   9.000000E+99

> <Gold.Protein.RotatedTorsions>
[ 6907 6896 6895 6894 ] final -138.37 input  -60.11 | X-H torsion
[ 7974 7965 7964 7962 ] final    5.46 input  175.53 | X-H torsion
[ 8008 7997 7996 7995 ] final   71.97 input   59.86 | X-H torsion
[ 10167 10162 10161 10158 ] final -148.34 input  -65.29 | X-H torsion
[ 10718 10713 10712 10709 ] final  -91.15 input   66.30 | X-H torsion
[ 10763 10752 10751 10750 ] final -139.02 input  -60.55 | X-H torsion
[ 11005 11000 10999 10996 ] final   41.37 input  -57.11 | X-H torsion

> <Gold.Protein.ActiveResidues>
 VAL166  LYS551  ARG553  GLY616  TRP617  ASP618  TYR619  PRO620  LYS621  CYS622 
 ASP623  PHE694  ASN695  SER759  ASP760  ASP761  ALA762  ILE779  LEU786  VAL792 
 PHE793  MET794  SER795  GLU796  ALA797  LYS798  CYS799  TRP800  GLU811  SER814 

> <Gold.Protein.RotatedAtoms>
  151.0341  133.5764  159.2657 H   0  0  0  0  0  0  0  0  0  0  0  0  # atno 6907 bound_to 6896
  151.2834  135.0720  159.9187 H   0  0  0  0  0  0  0  0  0  0  0  0  # atno 6908 bound_to 6896
  152.5351  134.0052  159.7967 H   0  0  0  0  0  0  0  0  0  0  0  0  # atno 6909 bound_to 6896
  146.2440  140.0381  142.8384 H   0  0  0  0  0  0  0  0  0  0  0  0  # atno 7974 bound_to 7965
  155.7618  140.3486  155.5202 H   0  0  0  0  0  0  0  0  0  0  0  0  # atno 8008 bound_to 7997
  155.8906  140.1017  157.1442 H   0  0  0  0  0  0  0  0  0  0  0  0  # atno 8009 bound_to 7997
  154.4033  140.1305  156.4299 H   0  0  0  0  0  0  0  0  0  0  0  0  # atno 8010 bound_to 7997
  139.7540  143.8475  152.2593 H   0  0  0  0  0  0  0  0  0  0  0  0  # atno 10167 bound_to 10162
  155.9992  130.4937  150.5430 H   0  0  0  0  0  0  0  0  0  0  0  0  # atno 10718 bound_to 10713
  154.8621  135.3595  154.5479 H   0  0  0  0  0  0  0  0  0  0  0  0  # atno 10763 bound_to 10752
  153.6098  135.7010  153.5356 H   0  0  0  0  0  0  0  0  0  0  0  0  # atno 10764 bound_to 10752
  153.3219  135.4149  155.1384 H   0  0  0  0  0  0  0  0  0  0  0  0  # atno 10765 bound_to 10752
  140.1840  134.4068  155.8183 H   0  0  0  0  0  0  0  0  0  0  0  0  # atno 11005 bound_to 11000
  145.1094  140.9396  143.4665 LP  0  0  0  0  0  0  0  0  0  0  0  0  # atno 17320 bound_to 7965
  145.0591  139.3120  143.5889 LP  0  0  0  0  0  0  0  0  0  0  0  0  # atno 17321 bound_to 7965
  139.8462  144.7186  150.9270 LP  0  0  0  0  0  0  0  0  0  0  0  0  # atno 17342 bound_to 10162
  140.7801  143.3939  151.1262 LP  0  0  0  0  0  0  0  0  0  0  0  0  # atno 17343 bound_to 10162
  157.3364  131.0709  151.1822 LP  0  0  0  0  0  0  0  0  0  0  0  0  # atno 17370 bound_to 10713
  157.2685  130.6693  149.6008 LP  0  0  0  0  0  0  0  0  0  0  0  0  # atno 17371 bound_to 10713
  141.2224  133.7014  156.7981 LP  0  0  0  0  0  0  0  0  0  0  0  0  # atno 17394 bound_to 11000
  140.2234  134.8740  157.3401 LP  0  0  0  0  0  0  0  0  0  0  0  0  # atno 17395 bound_to 11000

$$$$
