AV-unprocessed.smi:1920|AV-procd|sdf|7781|dock8
  -GOLD-   22720 9523D 1   1.00000     0.00000
 Structure written by MMmdl.
 36 37  0  0  0  0  0  0  0  0  1 V2000
  145.7810  137.1925  152.0516 C   0  0  0  0  0  0  0  0  0  0  0  0
  144.4383  136.4838  152.2950 C   0  0  2  0  0  0  0  0  0  0  0  0
  143.9596  135.6628  151.0771 C   0  0  0  0  0  0  0  0  0  0  0  0
  144.7622  134.4752  150.8521 N   0  0  0  0  0  0  0  0  0  0  0  0
  146.0878  134.2813  151.2180 C   0  0  0  0  0  0  0  0  0  0  0  0
  146.4267  133.0113  150.8090 C   0  0  0  0  0  0  0  0  0  0  0  0
  145.3297  132.4067  150.1996 N   0  0  0  0  0  0  0  0  0  0  0  0
  144.3811  133.3320  150.2655 C   0  0  0  0  0  0  0  0  0  0  0  0
  143.4341  137.4773  152.6646 N   0  0  0  0  0  0  0  0  0  0  0  0
  142.2380  137.2078  153.2107 C   0  0  0  0  0  0  0  0  0  0  0  0
  141.8503  136.0665  153.4613 O   0  0  0  0  0  0  0  0  0  0  0  0
  141.3421  138.4116  153.5229 C   0  0  0  0  0  0  0  0  0  0  0  0
  139.9158  138.2877  152.9438 C   0  0  2  0  0  0  0  0  0  0  0  0
  138.9978  139.4154  153.3505 C   0  0  0  0  0  0  0  0  0  0  0  0
  137.8708  138.9844  153.9122 C   0  0  0  0  0  0  0  0  0  0  0  0
  137.8057  137.4848  153.9962 C   0  0  0  0  0  0  0  0  0  0  0  0
  139.1678  137.0207  153.4330 C   0  0  0  0  0  0  0  0  0  0  0  0
  146.5826  136.4783  151.8623 H   0  0  0  0  0  0  0  0  0  0  0  0
  146.0751  137.7840  152.9192 H   0  0  0  0  0  0  0  0  0  0  0  0
  145.7245  137.8640  151.1942 H   0  0  0  0  0  0  0  0  0  0  0  0
  144.5760  135.8065  153.1400 H   0  0  0  0  0  0  0  0  0  0  0  0
  142.9247  135.3450  151.2100 H   0  0  0  0  0  0  0  0  0  0  0  0
  143.9837  136.2758  150.1748 H   0  0  0  0  0  0  0  0  0  0  0  0
  146.6638  135.0431  151.7225 H   0  0  0  0  0  0  0  0  0  0  0  0
  147.3673  132.4895  150.9079 H   0  0  0  0  0  0  0  0  0  0  0  0
  143.3864  133.1749  149.8746 H   0  0  0  0  0  0  0  0  0  0  0  0
  143.6680  138.4449  152.4949 H   0  0  0  0  0  0  0  0  0  0  0  0
  141.2881  138.5160  154.6069 H   0  0  0  0  0  0  0  0  0  0  0  0
  141.8121  139.3231  153.1496 H   0  0  0  0  0  0  0  0  0  0  0  0
  139.9604  138.2785  151.8536 H   0  0  0  0  0  0  0  0  0  0  0  0
  139.2452  140.4530  153.1786 H   0  0  0  0  0  0  0  0  0  0  0  0
  137.0701  139.6164  154.2668 H   0  0  0  0  0  0  0  0  0  0  0  0
  137.6631  137.1645  155.0286 H   0  0  0  0  0  0  0  0  0  0  0  0
  136.9735  137.1145  153.3971 H   0  0  0  0  0  0  0  0  0  0  0  0
  139.0330  136.3076  152.6190 H   0  0  0  0  0  0  0  0  0  0  0  0
  139.7329  136.5079  154.2126 H   0  0  0  0  0  0  0  0  0  0  0  0
  1  2  1  0  0  0  0
  1 18  1  0  0  0  0
  1 19  1  0  0  0  0
  1 20  1  0  0  0  0
  2  3  1  0  0  0  0
  2  9  1  0  0  0  0
  2 21  1  0  0  0  0
  3  4  1  0  0  0  0
  3 22  1  0  0  0  0
  3 23  1  0  0  0  0
  4  8  1  0  0  0  0
  4  5  1  0  0  0  0
  5  6  2  0  0  0  0
  5 24  1  0  0  0  0
  6  7  1  0  0  0  0
  6 25  1  0  0  0  0
  7  8  2  0  0  0  0
  8 26  1  0  0  0  0
  9 10  1  0  0  0  0
  9 27  1  0  0  0  0
 10 11  2  0  0  0  0
 10 12  1  0  0  0  0
 12 13  1  0  0  0  0
 12 28  1  0  0  0  0
 12 29  1  0  0  0  0
 13 17  1  0  0  0  0
 13 14  1  0  0  0  0
 13 30  1  0  0  0  0
 14 15  2  0  0  0  0
 14 31  1  0  0  0  0
 15 16  1  0  0  0  0
 15 32  1  0  0  0  0
 16 17  1  0  0  0  0
 16 33  1  0  0  0  0
 16 34  1  0  0  0  0
 17 35  1  0  0  0  0
 17 36  1  0  0  0  0
M  END
> <s_m_source_file>
AV-unprocessed.smi

> <i_m_source_file_index>
1920

> <i_lp_mmshare_version>
43012

> <i_f3d_flags>
0

> <s_epik_input>
W2NIXTFuW2NIXVtjSF1uMVtDSDJdW0NAQEhdKFtDSDNdKVtOSF1DKD1PKVtDSDJdW0NAQEhdMltDSF09W0NIXVtDSDJdW0NIMl0y

> <s_epik_cmdline>
J2VwaWtfcHl0aG9uJywgJy1waCcsICc3LjAnLCAnLXRuJywgJzgnLCAnLW1hJywgJzIwMCcsICctbWV0YWxfYmluZGluZycsICctaW1hZScsICc8aW5maWxlLm1hZT4nLCAnLW9tYWUnLCAnPG91dGZpbGUubWFlPic=

> <r_lp_tautomer_probability>
1

> <r_epik_Ionization_Penalty>
0.635367

> <r_epik_Ionization_Penalty_Charging>
0.635367

> <r_epik_Ionization_Penalty_Neutral>
2.1249e-08

> <r_epik_State_Penalty>
0.65258

> <r_epik_Charging_Adjusted_Penalty>
1.28795

> <i_epik_Tot_Q>
0

> <i_epik_Tot_abs_Q>
0

> <r_epik_Metal_State_Penalty>
0.310403

> <b_epik_Metal_Only>
0

> <s_lp_Force_Field>
OPLS_2005

> <r_lp_Energy>
18.8766

> <b_lp_Chiralities_Consistent>
1

> <s_lp_Variant>
AV-unprocessed.smi:1920-5

> <Gold.Version>
5.8.1

> <Gold.Id.Protein>
6NUR|6NUR_protein|mol2

> <Gold.PLP.Fitness>
44.4741

> <Gold.PLP.PLP>
-34.5433

> <Gold.PLP.part.hbond>
-1.8316

> <Gold.PLP.part.metal>
0.0000

> <Gold.PLP.part.buried>
-2.4570

> <Gold.PLP.part.nonpolar>
-30.2449

> <Gold.PLP.part.repulsive>
0.2932

> <Gold.PLP.ligand.clash>
0.0000

> <Gold.PLP.ligand.torsion>
0.6416

> <Gold.PLP.Chemscore.Hbond>
1.0000

> <Gold.PLP.Chemscore.CHOScore>
2.7200

> <Gold.PLP.Chemscore.Metal>
0.0000

> <Gold.Chemscore.Hbonds>
donor molecule, donor type, donor heavy atom, donor atom, acceptor molecule, acceptor atom, score
      L1  H     9    27       P1 10175  1.00
      L1  C     5    24       P1  7948  0.97
      L1  C     6    25       P1 10747  1.00
      L1  C     8    26       P1 10186  0.56

> <Gold.PLP.Chemscore.Internal.Correction>
0.0541

> <Gold.Rescore>
     Score         DG    S(hbond)    S(metal)    S(lipo)     H(rot)  DE(clash)    DE(int)     intcor
     10.82     -12.72       0.99        0.00      75.92       1.93       0.08       1.82       ----

> <Gold.Chemscore.Fitness>
10.8218

> <Gold.Chemscore.DG>
-12.7242

> <Gold.Chemscore.ZeroCoef>
-5.4800

> <Gold.Chemscore.Hbond>
0.9892

> <Gold.Chemscore.Metal>
0.0000

> <Gold.Chemscore.Lipo>
75.9212

> <Gold.Chemscore.Internal_Hbond>
0.0000

> <Gold.Chemscore.DEClash>
0.0821

> <Gold.Chemscore.DEInternal>
1.8202

> <Gold.Chemscore.Rot>
1.9306

> <Gold.Chemscore.Internal.Correction>
   9.000000E+99

> <Gold.Chemscore.Hbonds>
donor molecule, donor type, donor heavy atom, donor atom, acceptor molecule, acceptor atom, score
      L1  H     9    27       P1 10175  0.97

> <Gold.Chemscore.Hbond.Weighted>
-3.3039

> <Gold.Chemscore.Metal.Weighted>
-0.0000

> <Gold.Chemscore.Lipo.Weighted>
-8.8828

> <Gold.Chemscore.Internal_Hbond.Weighted>
0.0000

> <Gold.Chemscore.DEClash.Weighted>
0.0821

> <Gold.Chemscore.DEInternal.Weighted>
1.8202

> <Gold.Chemscore.Rot.Weighted>
4.9424

> <Gold.Chemscore.Internal.Correction.Weighted>
   9.000000E+99

> <Gold.Protein.RotatedTorsions>
[ 6907 6896 6895 6894 ] final  105.81 input  -60.11 | X-H torsion
[ 7974 7965 7964 7962 ] final  -14.48 input  175.53 | X-H torsion
[ 8008 7997 7996 7995 ] final   97.47 input   59.86 | X-H torsion
[ 10167 10162 10161 10158 ] final   21.02 input  -65.29 | X-H torsion
[ 10718 10713 10712 10709 ] final   75.28 input   66.30 | X-H torsion
[ 10763 10752 10751 10750 ] final -133.87 input  -60.55 | X-H torsion
[ 11005 11000 10999 10996 ] final  -36.21 input  -57.11 | X-H torsion

> <Gold.Protein.ActiveResidues>
 VAL166  LYS551  ARG553  GLY616  TRP617  ASP618  TYR619  PRO620  LYS621  CYS622 
 ASP623  PHE694  ASN695  SER759  ASP760  ASP761  ALA762  ILE779  LEU786  VAL792 
 PHE793  MET794  SER795  GLU796  ALA797  LYS798  CYS799  TRP800  GLU811  SER814 

> <Gold.Protein.RotatedAtoms>
  152.5217  133.9474  159.7655 H   0  0  0  0  0  0  0  0  0  0  0  0  # atno 6907 bound_to 6896
  150.9791  133.6256  159.2732 H   0  0  0  0  0  0  0  0  0  0  0  0  # atno 6908 bound_to 6896
  151.3440  135.0875  159.9433 H   0  0  0  0  0  0  0  0  0  0  0  0  # atno 6909 bound_to 6896
  146.2072  140.3355  142.8403 H   0  0  0  0  0  0  0  0  0  0  0  0  # atno 7974 bound_to 7965
  156.0904  140.3258  155.7809 H   0  0  0  0  0  0  0  0  0  0  0  0  # atno 8008 bound_to 7997
  155.5005  140.0569  157.2957 H   0  0  0  0  0  0  0  0  0  0  0  0  # atno 8009 bound_to 7997
  154.4634  140.1978  156.0198 H   0  0  0  0  0  0  0  0  0  0  0  0  # atno 8010 bound_to 7997
  140.5459  143.9595  150.6547 H   0  0  0  0  0  0  0  0  0  0  0  0  # atno 10167 bound_to 10162
  157.6627  130.9718  150.1330 H   0  0  0  0  0  0  0  0  0  0  0  0  # atno 10718 bound_to 10713
  154.8727  135.3752  154.4642 H   0  0  0  0  0  0  0  0  0  0  0  0  # atno 10763 bound_to 10752
  153.5308  135.7028  153.5689 H   0  0  0  0  0  0  0  0  0  0  0  0  # atno 10764 bound_to 10752
  153.3895  135.3976  155.1878 H   0  0  0  0  0  0  0  0  0  0  0  0  # atno 10765 bound_to 10752
  140.9857  133.7032  156.1761 H   0  0  0  0  0  0  0  0  0  0  0  0  # atno 11005 bound_to 11000
  144.8822  140.7416  143.5979 LP  0  0  0  0  0  0  0  0  0  0  0  0  # atno 17320 bound_to 7965
  145.3275  139.1769  143.4554 LP  0  0  0  0  0  0  0  0  0  0  0  0  # atno 17321 bound_to 7965
  140.3008  143.3262  152.0973 LP  0  0  0  0  0  0  0  0  0  0  0  0  # atno 17342 bound_to 10162
  139.5007  144.6698  151.6271 LP  0  0  0  0  0  0  0  0  0  0  0  0  # atno 17343 bound_to 10162
  156.2172  130.3671  149.8599 LP  0  0  0  0  0  0  0  0  0  0  0  0  # atno 17370 bound_to 10713
  156.6461  130.8725  151.3523 LP  0  0  0  0  0  0  0  0  0  0  0  0  # atno 17371 bound_to 10713
  140.7118  134.4453  157.5581 LP  0  0  0  0  0  0  0  0  0  0  0  0  # atno 17394 bound_to 11000
  139.8969  134.8648  156.2065 LP  0  0  0  0  0  0  0  0  0  0  0  0  # atno 17395 bound_to 11000

$$$$
