AV-unprocessed.smi:1535|AV-procd|sdf|6181|dock5
  -GOLD-   22720 6343D 1   1.00000     0.00000
 Structure written by MMmdl.
 47 48  0  0  0  0  0  0  0  0  2 V2000
  152.6319  143.5728  160.1698 C   0  0  0  0  0  0  0  0  0  0  0  0
  152.2313  142.6171  159.0597 C   0  0  0  0  0  0  0  0  0  0  0  0
  152.2256  141.2277  159.3180 C   0  0  0  0  0  0  0  0  0  0  0  0
  151.8605  140.3054  158.3130 C   0  0  0  0  0  0  0  0  0  0  0  0
  151.7846  138.9234  158.3440 N   0  0  0  0  0  0  0  0  0  0  0  0
  151.3894  138.6483  157.1044 C   0  0  0  0  0  0  0  0  0  0  0  0
  151.2040  139.6904  156.2709 N   0  0  0  0  0  0  0  0  0  0  0  0
  150.7819  139.6432  154.8824 C   0  0  0  0  0  0  0  0  0  0  0  0
  149.5482  140.5266  154.6151 C   0  0  1  0  0  0  0  0  0  0  0  0
  149.6722  141.1345  153.3432 O   0  0  0  0  0  0  0  0  0  0  0  0
  148.2369  139.7172  154.6518 C   0  0  0  0  0  0  0  0  0  0  0  0
  147.0513  140.5726  154.3922 N   0  3  1  0  0  0  0  0  0  0  0  0
  145.7979  139.9573  154.8856 C   0  0  0  0  0  0  0  0  0  0  0  0
  147.2205  141.9722  154.8634 C   0  0  0  0  0  0  0  0  0  0  0  0
  146.0049  142.8512  154.5180 C   0  0  2  0  0  0  0  0  0  0  0  0
  146.2409  143.6960  153.2566 C   0  0  0  0  0  0  0  0  0  0  0  0
  145.6519  143.7137  155.6567 C   0  0  0  0  0  0  0  0  0  0  0  0
  145.3746  144.3928  156.5508 N   0  0  0  0  0  0  0  0  0  0  0  0
  151.5000  140.8159  157.0316 C   0  0  0  0  0  0  0  0  0  0  0  0
  151.4994  142.1959  156.7627 C   0  0  0  0  0  0  0  0  0  0  0  0
  151.8644  143.1035  157.7790 C   0  0  0  0  0  0  0  0  0  0  0  0
  151.8576  144.5923  157.4795 C   0  0  0  0  0  0  0  0  0  0  0  0
  152.9461  143.0346  161.0645 H   0  0  0  0  0  0  0  0  0  0  0  0
  151.7929  144.2138  160.4415 H   0  0  0  0  0  0  0  0  0  0  0  0
  153.4619  144.2041  159.8521 H   0  0  0  0  0  0  0  0  0  0  0  0
  152.5027  140.8572  160.2941 H   0  0  0  0  0  0  0  0  0  0  0  0
  151.2290  137.6295  156.7826 H   0  0  0  0  0  0  0  0  0  0  0  0
  151.6172  139.9470  154.2495 H   0  0  0  0  0  0  0  0  0  0  0  0
  150.5628  138.6043  154.6327 H   0  0  0  0  0  0  0  0  0  0  0  0
  149.5204  141.3208  155.3611 H   0  0  0  0  0  0  0  0  0  0  0  0
  149.5991  140.4666  152.6781 H   0  0  0  0  0  0  0  0  0  0  0  0
  148.2981  138.9216  153.9069 H   0  0  0  0  0  0  0  0  0  0  0  0
  148.1143  139.2195  155.6154 H   0  0  0  0  0  0  0  0  0  0  0  0
  145.8257  139.8276  155.9684 H   0  0  0  0  0  0  0  0  0  0  0  0
  145.6440  138.9790  154.4290 H   0  0  0  0  0  0  0  0  0  0  0  0
  144.9327  140.5716  154.6376 H   0  0  0  0  0  0  0  0  0  0  0  0
  147.3975  141.9712  155.9403 H   0  0  0  0  0  0  0  0  0  0  0  0
  148.1084  142.4252  154.4218 H   0  0  0  0  0  0  0  0  0  0  0  0
  145.1322  142.2189  154.3558 H   0  0  0  0  0  0  0  0  0  0  0  0
  145.3741  144.3200  153.0387 H   0  0  0  0  0  0  0  0  0  0  0  0
  146.4212  143.0694  152.3827 H   0  0  0  0  0  0  0  0  0  0  0  0
  147.1010  144.3552  153.3782 H   0  0  0  0  0  0  0  0  0  0  0  0
  151.2197  142.5530  155.7827 H   0  0  0  0  0  0  0  0  0  0  0  0
  151.4628  144.7955  156.4837 H   0  0  0  0  0  0  0  0  0  0  0  0
  152.8695  144.9949  157.5292 H   0  0  0  0  0  0  0  0  0  0  0  0
  151.2359  145.1260  158.1987 H   0  0  0  0  0  0  0  0  0  0  0  0
  146.9690  140.6149  153.3860 H   0  0  0  0  0  0  0  0  0  0  0  0
  1  2  1  0  0  0  0
  1 23  1  0  0  0  0
  1 24  1  0  0  0  0
  1 25  1  0  0  0  0
  2 21  1  0  0  0  0
  2  3  2  0  0  0  0
  3  4  1  0  0  0  0
  3 26  1  0  0  0  0
  4 19  2  0  0  0  0
  4  5  1  0  0  0  0
  5  6  2  0  0  0  0
  6  7  1  0  0  0  0
  6 27  1  0  0  0  0
  7  8  1  0  0  0  0
  7 19  1  0  0  0  0
  8  9  1  0  0  0  0
  8 28  1  0  0  0  0
  8 29  1  0  0  0  0
  9 10  1  0  0  0  0
  9 11  1  0  0  0  0
  9 30  1  0  0  0  0
 10 31  1  0  0  0  0
 11 12  1  0  0  0  0
 11 32  1  0  0  0  0
 11 33  1  0  0  0  0
 12 13  1  0  0  0  0
 12 14  1  0  0  0  0
 12 47  1  0  0  0  0
 13 34  1  0  0  0  0
 13 35  1  0  0  0  0
 13 36  1  0  0  0  0
 14 15  1  0  0  0  0
 14 37  1  0  0  0  0
 14 38  1  0  0  0  0
 15 16  1  0  0  0  0
 15 17  1  0  0  0  0
 15 39  1  0  0  0  0
 16 40  1  0  0  0  0
 16 41  1  0  0  0  0
 16 42  1  0  0  0  0
 17 18  3  0  0  0  0
 19 20  1  0  0  0  0
 20 21  2  0  0  0  0
 20 43  1  0  0  0  0
 21 22  1  0  0  0  0
 22 44  1  0  0  0  0
 22 45  1  0  0  0  0
 22 46  1  0  0  0  0
M  CHG  1  12   1
M  END
> <s_m_source_file>
AV-unprocessed.smi

> <i_m_source_file_index>
1535

> <i_lp_mmshare_version>
43012

> <i_f3d_flags>
0

> <s_epik_input>
W0NIM11jKFtjSF0xKWMoW0NIM10pW2NIXWMoYzEyKW4oW2NIXW4yKVtDSDJdW0NASF0oW09IXSlbQ0gyXU4oW0NIM10pW0NIMl1bQ0BIXShbQ0gzXSlDI04=

> <s_epik_cmdline>
J2VwaWtfcHl0aG9uJywgJy1waCcsICc3LjAnLCAnLXRuJywgJzgnLCAnLW1hJywgJzIwMCcsICctbWV0YWxfYmluZGluZycsICctaW1hZScsICc8aW5maWxlLm1hZT4nLCAnLW9tYWUnLCAnPG91dGZpbGUubWFlPic=

> <r_epik_Ionization_Penalty>
2.21058

> <r_epik_Ionization_Penalty_Charging>
2.12381

> <r_epik_Ionization_Penalty_Neutral>
0.0867699

> <r_epik_State_Penalty>
2.36208

> <r_epik_Charging_Adjusted_Penalty>
4.48589

> <i_epik_Tot_Q>
1

> <i_epik_Tot_abs_Q>
1

> <r_epik_Metal_State_Penalty>
2.2818

> <b_epik_Metal_Only>
0

> <s_lp_Force_Field>
OPLS_2005

> <r_lp_Energy>
17.3963

> <b_lp_Chiralities_Consistent>
1

> <s_lp_Variant>
AV-unprocessed.smi:1535-12

> <Gold.Version>
5.8.1

> <Gold.Id.Protein>
6NUR|6NUR_protein|mol2

> <Gold.PLP.Fitness>
44.7397

> <Gold.PLP.PLP>
-42.2513

> <Gold.PLP.part.hbond>
-2.9279

> <Gold.PLP.part.metal>
0.0000

> <Gold.PLP.part.buried>
-5.0560

> <Gold.PLP.part.nonpolar>
-33.3527

> <Gold.PLP.part.repulsive>
0.1350

> <Gold.PLP.ligand.clash>
0.0000

> <Gold.PLP.ligand.torsion>
1.4043

> <Gold.PLP.Chemscore.Hbond>
1.6865

> <Gold.PLP.Chemscore.CHOScore>
0.0000

> <Gold.PLP.Chemscore.Metal>
0.0000

> <Gold.Chemscore.Hbonds>
donor molecule, donor type, donor heavy atom, donor atom, acceptor molecule, acceptor atom, score
      L1  H    10    31       P1  7957  0.99
      P1  H  7989  7998       L1    10  0.04
      P1  H  8011  8017       L1    10  0.85

> <Gold.PLP.Chemscore.Internal.Correction>
0.2374

> <Gold.Rescore>
     Score         DG    S(hbond)    S(metal)    S(lipo)     H(rot)  DE(clash)    DE(int)     intcor
     13.41     -14.77       1.02        0.00     107.23       2.60       0.07       1.29       ----

> <Gold.Chemscore.Fitness>
13.4075

> <Gold.Chemscore.DG>
-14.7672

> <Gold.Chemscore.ZeroCoef>
-5.4800

> <Gold.Chemscore.Hbond>
1.0197

> <Gold.Chemscore.Metal>
0.0000

> <Gold.Chemscore.Lipo>
107.2251

> <Gold.Chemscore.Internal_Hbond>
0.0000

> <Gold.Chemscore.DEClash>
0.0650

> <Gold.Chemscore.DEInternal>
1.2947

> <Gold.Chemscore.Rot>
2.6031

> <Gold.Chemscore.Internal.Correction>
   9.000000E+99

> <Gold.Chemscore.Hbonds>
donor molecule, donor type, donor heavy atom, donor atom, acceptor molecule, acceptor atom, score
      L1  H    10    31       P1  7957  0.91
      P1  H  8011  8017       L1    10  0.14

> <Gold.Chemscore.Hbond.Weighted>
-3.4058

> <Gold.Chemscore.Metal.Weighted>
-0.0000

> <Gold.Chemscore.Lipo.Weighted>
-12.5453

> <Gold.Chemscore.Internal_Hbond.Weighted>
0.0000

> <Gold.Chemscore.DEClash.Weighted>
0.0650

> <Gold.Chemscore.DEInternal.Weighted>
1.2947

> <Gold.Chemscore.Rot.Weighted>
6.6640

> <Gold.Chemscore.Internal.Correction.Weighted>
   9.000000E+99

> <Gold.Protein.RotatedTorsions>
[ 6907 6896 6895 6894 ] final  -80.28 input  -60.11 | X-H torsion
[ 7974 7965 7964 7962 ] final   36.22 input  175.53 | X-H torsion
[ 8008 7997 7996 7995 ] final    7.14 input   59.86 | X-H torsion
[ 10167 10162 10161 10158 ] final  -32.05 input  -65.29 | X-H torsion
[ 10718 10713 10712 10709 ] final  -85.46 input   66.30 | X-H torsion
[ 10763 10752 10751 10750 ] final   13.91 input  -60.55 | X-H torsion
[ 11005 11000 10999 10996 ] final -169.24 input  -57.11 | X-H torsion

> <Gold.Protein.ActiveResidues>
 VAL166  LYS551  ARG553  GLY616  TRP617  ASP618  TYR619  PRO620  LYS621  CYS622 
 ASP623  PHE694  ASN695  SER759  ASP760  ASP761  ALA762  ILE779  LEU786  VAL792 
 PHE793  MET794  SER795  GLU796  ALA797  LYS798  CYS799  TRP800  GLU811  SER814 

> <Gold.Protein.RotatedAtoms>
  150.6932  134.3993  159.5111 H   0  0  0  0  0  0  0  0  0  0  0  0  # atno 6907 bound_to 6896
  152.1769  134.8784  160.0539 H   0  0  0  0  0  0  0  0  0  0  0  0  # atno 6908 bound_to 6896
  151.9790  133.3716  159.4137 H   0  0  0  0  0  0  0  0  0  0  0  0  # atno 6909 bound_to 6896
  146.1227  139.6045  142.9279 H   0  0  0  0  0  0  0  0  0  0  0  0  # atno 7974 bound_to 7965
  154.7500  140.2765  155.6301 H   0  0  0  0  0  0  0  0  0  0  0  0  # atno 8008 bound_to 7997
  156.2893  140.2680  156.2177 H   0  0  0  0  0  0  0  0  0  0  0  0  # atno 8009 bound_to 7997
  155.0149  140.0372  157.2404 H   0  0  0  0  0  0  0  0  0  0  0  0  # atno 8010 bound_to 7997
  140.7227  143.3724  151.1754 H   0  0  0  0  0  0  0  0  0  0  0  0  # atno 10167 bound_to 10162
  155.9996  130.4732  150.4566 H   0  0  0  0  0  0  0  0  0  0  0  0  # atno 10718 bound_to 10713
  153.1674  135.6806  153.8656 H   0  0  0  0  0  0  0  0  0  0  0  0  # atno 10763 bound_to 10752
  153.8031  135.3153  155.3393 H   0  0  0  0  0  0  0  0  0  0  0  0  # atno 10764 bound_to 10752
  154.7975  135.4798  154.0286 H   0  0  0  0  0  0  0  0  0  0  0  0  # atno 10765 bound_to 10752
  140.5330  134.5598  157.5080 H   0  0  0  0  0  0  0  0  0  0  0  0  # atno 11005 bound_to 11000
  145.5432  141.0419  143.2319 LP  0  0  0  0  0  0  0  0  0  0  0  0  # atno 17320 bound_to 7965
  144.7612  139.6952  143.7233 LP  0  0  0  0  0  0  0  0  0  0  0  0  # atno 17321 bound_to 7965
  139.7297  143.9091  152.3015 LP  0  0  0  0  0  0  0  0  0  0  0  0  # atno 17342 bound_to 10162
  139.8876  144.6983  150.8806 LP  0  0  0  0  0  0  0  0  0  0  0  0  # atno 17343 bound_to 10162
  157.2594  131.0563  151.2330 LP  0  0  0  0  0  0  0  0  0  0  0  0  # atno 17370 bound_to 10713
  157.3450  130.7052  149.6405 LP  0  0  0  0  0  0  0  0  0  0  0  0  # atno 17371 bound_to 10713
  139.9544  134.7560  156.0375 LP  0  0  0  0  0  0  0  0  0  0  0  0  # atno 17394 bound_to 11000
  141.1271  133.6596  156.3364 LP  0  0  0  0  0  0  0  0  0  0  0  0  # atno 17395 bound_to 11000

$$$$
