AV-unprocessed.smi:671|AV-procd|sdf|3284|dock3
  -GOLD-   22720 0243D 1   1.00000     0.00000
 Structure written by MMmdl.
 50 51  0  0  0  0  0  0  0  0  2 V2000
  149.4417  141.2007  154.2301 C   0  0  0  0  0  0  0  0  0  0  0  0
  150.3116  141.3282  155.4351 C   0  0  0  0  0  0  0  0  0  0  0  0
  150.6513  142.5108  156.0148 N   0  3  0  0  0  0  0  0  0  0  0  0
  151.4438  142.2969  157.0749 N   0  0  0  0  0  0  0  0  0  0  0  0
  151.9197  143.4464  157.8450 C   0  0  0  0  0  0  0  0  0  0  0  0
  151.6581  140.9608  157.2402 C   0  0  0  0  0  0  0  0  0  0  0  0
  152.4914  140.3624  158.3259 C   0  0  0  0  0  0  0  0  0  0  0  0
  150.9415  140.3446  156.2063 C   0  0  0  0  0  0  0  0  0  0  0  0
  150.8631  138.8632  155.9627 C   0  0  0  0  0  0  0  0  0  0  0  0
  151.3830  138.4442  154.5694 C   0  0  1  0  0  0  0  0  0  0  0  0
  152.9157  138.3434  154.5156 C   0  0  0  0  0  0  0  0  0  0  0  0
  150.8134  137.1506  154.1864 N   0  0  0  0  0  0  0  0  0  0  0  0
  150.8632  135.9833  154.8541 C   0  0  0  0  0  0  0  0  0  0  0  0
  151.4436  135.8800  155.9327 O   0  0  0  0  0  0  0  0  0  0  0  0
  150.2414  134.9594  154.2438 N   0  0  0  0  0  0  0  0  0  0  0  0
  150.1368  133.5938  154.7592 C   0  0  1  0  0  0  0  0  0  0  0  0
  149.4313  133.6113  156.1223 C   0  0  0  0  0  0  0  0  0  0  0  0
  147.9710  133.2912  155.8173 C   0  0  0  0  0  0  0  0  0  0  0  0
  148.0383  132.2848  154.6719 C   0  0  0  0  0  0  0  0  0  0  0  0
  149.2964  132.6432  153.8602 C   0  0  1  0  0  0  0  0  0  0  0  0
  148.9540  133.1610  152.4496 C   0  0  0  0  0  0  0  0  0  0  0  0
  150.0175  140.8063  153.3924 H   0  0  0  0  0  0  0  0  0  0  0  0
  149.0336  142.1710  153.9455 H   0  0  0  0  0  0  0  0  0  0  0  0
  148.6127  140.5226  154.4330 H   0  0  0  0  0  0  0  0  0  0  0  0
  152.8987  143.2216  158.2687 H   0  0  0  0  0  0  0  0  0  0  0  0
  151.2127  143.6531  158.6485 H   0  0  0  0  0  0  0  0  0  0  0  0
  152.0035  144.3190  157.1959 H   0  0  0  0  0  0  0  0  0  0  0  0
  152.6093  139.2906  158.1746 H   0  0  0  0  0  0  0  0  0  0  0  0
  152.0190  140.5245  159.2948 H   0  0  0  0  0  0  0  0  0  0  0  0
  153.4826  140.8155  158.3384 H   0  0  0  0  0  0  0  0  0  0  0  0
  151.4187  138.3244  156.7312 H   0  0  0  0  0  0  0  0  0  0  0  0
  149.8288  138.5395  156.0825 H   0  0  0  0  0  0  0  0  0  0  0  0
  151.0859  139.1937  153.8343 H   0  0  0  0  0  0  0  0  0  0  0  0
  153.3883  139.2999  154.7397 H   0  0  0  0  0  0  0  0  0  0  0  0
  153.2531  138.0412  153.5236 H   0  0  0  0  0  0  0  0  0  0  0  0
  153.2910  137.6104  155.2306 H   0  0  0  0  0  0  0  0  0  0  0  0
  150.3333  137.1326  153.2980 H   0  0  0  0  0  0  0  0  0  0  0  0
  149.8032  135.1393  153.3528 H   0  0  0  0  0  0  0  0  0  0  0  0
  151.1406  133.1864  154.8936 H   0  0  0  0  0  0  0  0  0  0  0  0
  149.8454  132.8232  156.7530 H   0  0  0  0  0  0  0  0  0  0  0  0
  149.5508  134.5519  156.6622 H   0  0  0  0  0  0  0  0  0  0  0  0
  147.4357  132.9045  156.6850 H   0  0  0  0  0  0  0  0  0  0  0  0
  147.4558  134.1915  155.4817 H   0  0  0  0  0  0  0  0  0  0  0  0
  148.1472  131.2799  155.0822 H   0  0  0  0  0  0  0  0  0  0  0  0
  147.1262  132.2892  154.0739 H   0  0  0  0  0  0  0  0  0  0  0  0
  149.8683  131.7240  153.7250 H   0  0  0  0  0  0  0  0  0  0  0  0
  148.3531  134.0702  152.4882 H   0  0  0  0  0  0  0  0  0  0  0  0
  148.3853  132.4165  151.8920 H   0  0  0  0  0  0  0  0  0  0  0  0
  149.8564  133.3737  151.8761 H   0  0  0  0  0  0  0  0  0  0  0  0
  150.3844  143.4481  155.7411 H   0  0  0  0  0  0  0  0  0  0  0  0
  1  2  1  0  0  0  0
  1 22  1  0  0  0  0
  1 23  1  0  0  0  0
  1 24  1  0  0  0  0
  2  8  1  0  0  0  0
  2  3  2  0  0  0  0
  3  4  1  0  0  0  0
  3 50  1  0  0  0  0
  4  5  1  0  0  0  0
  4  6  1  0  0  0  0
  5 25  1  0  0  0  0
  5 26  1  0  0  0  0
  5 27  1  0  0  0  0
  6  7  1  0  0  0  0
  6  8  2  0  0  0  0
  7 28  1  0  0  0  0
  7 29  1  0  0  0  0
  7 30  1  0  0  0  0
  8  9  1  0  0  0  0
  9 10  1  0  0  0  0
  9 31  1  0  0  0  0
  9 32  1  0  0  0  0
 10 11  1  0  0  0  0
 10 12  1  0  0  0  0
 10 33  1  0  0  0  0
 11 34  1  0  0  0  0
 11 35  1  0  0  0  0
 11 36  1  0  0  0  0
 12 13  1  0  0  0  0
 12 37  1  0  0  0  0
 13 14  2  0  0  0  0
 13 15  1  0  0  0  0
 15 16  1  0  0  0  0
 15 38  1  0  0  0  0
 16 20  1  0  0  0  0
 16 17  1  0  0  0  0
 16 39  1  0  0  0  0
 17 18  1  0  0  0  0
 17 40  1  0  0  0  0
 17 41  1  0  0  0  0
 18 19  1  0  0  0  0
 18 42  1  0  0  0  0
 18 43  1  0  0  0  0
 19 20  1  0  0  0  0
 19 44  1  0  0  0  0
 19 45  1  0  0  0  0
 20 21  1  0  0  0  0
 20 46  1  0  0  0  0
 21 47  1  0  0  0  0
 21 48  1  0  0  0  0
 21 49  1  0  0  0  0
M  CHG  1   3   1
M  END
> <s_m_source_file>
AV-unprocessed.smi

> <i_m_source_file_index>
671

> <i_lp_mmshare_version>
43012

> <i_f3d_flags>
0

> <s_epik_input>
W0NIM11jMW5uKFtDSDNdKWMoW0NIM10pYzFbQ0gyXVtDQEhdKFtDSDNdKVtOSF1DKD1PKVtOSF1bQ0BASF0yW0NIMl1bQ0gyXVtDSDJdW0NASF0yW0NIM10=

> <s_epik_cmdline>
J2VwaWtfcHl0aG9uJywgJy1waCcsICc3LjAnLCAnLXRuJywgJzgnLCAnLW1hJywgJzIwMCcsICctbWV0YWxfYmluZGluZycsICctaW1hZScsICc8aW5maWxlLm1hZT4nLCAnLW9tYWUnLCAnPG91dGZpbGUubWFlPic=

> <r_lp_tautomer_probability>
1

> <r_epik_Ionization_Penalty>
2.28705

> <r_epik_Ionization_Penalty_Charging>
2.28698

> <r_epik_Ionization_Penalty_Neutral>
6.23157e-05

> <r_epik_State_Penalty>
2.43671

> <r_epik_Charging_Adjusted_Penalty>
4.72369

> <i_epik_Tot_Q>
1

> <i_epik_Tot_abs_Q>
1

> <r_epik_Metal_State_Penalty>
2.44911

> <b_epik_Metal_Only>
0

> <s_lp_Force_Field>
OPLS_2005

> <r_lp_Energy>
36.9698

> <b_lp_Chiralities_Consistent>
1

> <s_lp_Variant>
AV-unprocessed.smi:671-12

> <Gold.Version>
5.8.1

> <Gold.Id.Protein>
6NUR|6NUR_protein|mol2

> <Gold.PLP.Fitness>
50.4159

> <Gold.PLP.PLP>
-38.9436

> <Gold.PLP.part.hbond>
-3.5875

> <Gold.PLP.part.metal>
0.0000

> <Gold.PLP.part.buried>
-5.6341

> <Gold.PLP.part.nonpolar>
-31.3999

> <Gold.PLP.part.repulsive>
0.2802

> <Gold.PLP.ligand.clash>
0.0000

> <Gold.PLP.ligand.torsion>
0.2640

> <Gold.PLP.Chemscore.Hbond>
3.9920

> <Gold.PLP.Chemscore.CHOScore>
0.0000

> <Gold.PLP.Chemscore.Metal>
0.0000

> <Gold.Chemscore.Hbonds>
donor molecule, donor type, donor heavy atom, donor atom, acceptor molecule, acceptor atom, score
      L1  H     3    50       P1  8028  1.82
      L1  H    12    37       P1  7948  0.45
      L1  H    15    38       P1  7948  0.20
      P1  H 10752 10764       L1    14  0.03

> <Gold.PLP.Chemscore.Internal.Correction>
0.0242

> <Gold.Rescore>
     Score         DG    S(hbond)    S(metal)    S(lipo)     H(rot)  DE(clash)    DE(int)     intcor
     17.97     -19.46       2.40        0.00      83.90       1.51       0.03       1.46       ----

> <Gold.Chemscore.Fitness>
17.9676

> <Gold.Chemscore.DG>
-19.4582

> <Gold.Chemscore.ZeroCoef>
-5.4800

> <Gold.Chemscore.Hbond>
2.4002

> <Gold.Chemscore.Metal>
0.0000

> <Gold.Chemscore.Lipo>
83.8985

> <Gold.Chemscore.Internal_Hbond>
0.0000

> <Gold.Chemscore.DEClash>
0.0310

> <Gold.Chemscore.DEInternal>
1.4596

> <Gold.Chemscore.Rot>
1.5057

> <Gold.Chemscore.Internal.Correction>
   9.000000E+99

> <Gold.Chemscore.Hbonds>
donor molecule, donor type, donor heavy atom, donor atom, acceptor molecule, acceptor atom, score
      L1  H     3    50       P1  8028  0.87
      L1  H    12    37       P1  7948  0.03
      P1  H 10752 10764       L1    14  0.02

> <Gold.Chemscore.Hbond.Weighted>
-8.0168

> <Gold.Chemscore.Metal.Weighted>
-0.0000

> <Gold.Chemscore.Lipo.Weighted>
-9.8161

> <Gold.Chemscore.Internal_Hbond.Weighted>
0.0000

> <Gold.Chemscore.DEClash.Weighted>
0.0310

> <Gold.Chemscore.DEInternal.Weighted>
1.4596

> <Gold.Chemscore.Rot.Weighted>
3.8547

> <Gold.Chemscore.Internal.Correction.Weighted>
   9.000000E+99

> <Gold.Protein.RotatedTorsions>
[ 6907 6896 6895 6894 ] final   -6.28 input  -60.11 | X-H torsion
[ 7974 7965 7964 7962 ] final   -4.27 input  175.53 | X-H torsion
[ 8008 7997 7996 7995 ] final  -52.31 input   59.86 | X-H torsion
[ 10167 10162 10161 10158 ] final   17.40 input  -65.29 | X-H torsion
[ 10718 10713 10712 10709 ] final   92.16 input   66.30 | X-H torsion
[ 10763 10752 10751 10750 ] final   10.95 input  -60.55 | X-H torsion
[ 11005 11000 10999 10996 ] final  -83.01 input  -57.11 | X-H torsion

> <Gold.Protein.ActiveResidues>
 VAL166  LYS551  ARG553  GLY616  TRP617  ASP618  TYR619  PRO620  LYS621  CYS622 
 ASP623  PHE694  ASN695  SER759  ASP760  ASP761  ALA762  ILE779  LEU786  VAL792 
 PHE793  MET794  SER795  GLU796  ALA797  LYS798  CYS799  TRP800  GLU811  SER814 

> <Gold.Protein.RotatedAtoms>
  151.4681  135.1043  159.9743 H   0  0  0  0  0  0  0  0  0  0  0  0  # atno 6907 bound_to 6896
  152.4827  133.8291  159.7104 H   0  0  0  0  0  0  0  0  0  0  0  0  # atno 6908 bound_to 6896
  150.8911  133.7181  159.2931 H   0  0  0  0  0  0  0  0  0  0  0  0  # atno 6909 bound_to 6896
  146.2375  140.1845  142.8332 H   0  0  0  0  0  0  0  0  0  0  0  0  # atno 7974 bound_to 7965
  154.4103  140.1227  156.4971 H   0  0  0  0  0  0  0  0  0  0  0  0  # atno 8008 bound_to 7997
  155.6932  140.3495  155.4883 H   0  0  0  0  0  0  0  0  0  0  0  0  # atno 8009 bound_to 7997
  155.9450  140.1094  157.1014 H   0  0  0  0  0  0  0  0  0  0  0  0  # atno 8010 bound_to 7997
  140.5729  143.9128  150.6727 H   0  0  0  0  0  0  0  0  0  0  0  0  # atno 10167 bound_to 10162
  157.6959  131.0433  150.3840 H   0  0  0  0  0  0  0  0  0  0  0  0  # atno 10718 bound_to 10713
  153.1978  135.6851  153.8270 H   0  0  0  0  0  0  0  0  0  0  0  0  # atno 10763 bound_to 10752
  153.7547  135.3219  155.3328 H   0  0  0  0  0  0  0  0  0  0  0  0  # atno 10764 bound_to 10752
  154.8154  135.4689  154.0730 H   0  0  0  0  0  0  0  0  0  0  0  0  # atno 10765 bound_to 10752
  141.1660  133.7273  156.8656 H   0  0  0  0  0  0  0  0  0  0  0  0  # atno 11005 bound_to 11000
  144.9907  140.8544  143.5341 LP  0  0  0  0  0  0  0  0  0  0  0  0  # atno 17320 bound_to 7965
  145.1851  139.2331  143.5272 LP  0  0  0  0  0  0  0  0  0  0  0  0  # atno 17321 bound_to 7965
  140.2607  143.3526  152.1325 LP  0  0  0  0  0  0  0  0  0  0  0  0  # atno 17342 bound_to 10162
  139.5127  144.6921  151.5732 LP  0  0  0  0  0  0  0  0  0  0  0  0  # atno 17343 bound_to 10162
  156.4251  130.3960  149.6798 LP  0  0  0  0  0  0  0  0  0  0  0  0  # atno 17370 bound_to 10713
  156.4036  130.7687  151.2696 LP  0  0  0  0  0  0  0  0  0  0  0  0  # atno 17371 bound_to 10713
  140.1818  134.9028  157.2957 LP  0  0  0  0  0  0  0  0  0  0  0  0  # atno 17394 bound_to 11000
  140.2387  134.3821  155.7490 LP  0  0  0  0  0  0  0  0  0  0  0  0  # atno 17395 bound_to 11000

$$$$
