AV-unprocessed.smi:1451|AV-procd|sdf|5901|dock2
  -GOLD-   22720 5583D 1   1.00000     0.00000
 Structure written by MMmdl.
 47 48  0  0  0  0  0  0  0  0  2 V2000
  146.6947  138.7744  151.7646 C   0  0  0  0  0  0  0  0  0  0  0  0
  146.6204  139.5389  153.0980 C   0  0  2  0  0  0  0  0  0  0  0  0
  146.7285  141.0643  152.9194 C   0  0  0  0  0  0  0  0  0  0  0  0
  148.1674  141.4859  152.5901 C   0  0  0  0  0  0  0  0  0  0  0  0
  149.1561  140.9324  153.6283 C   0  0  0  0  0  0  0  0  0  0  0  0
  149.0454  139.4549  153.7403 N   0  3  1  0  0  0  0  0  0  0  0  0
  150.0932  138.8796  154.6212 C   0  0  0  0  0  0  0  0  0  0  0  0
  149.7378  138.9982  156.1125 C   0  0  0  0  0  0  0  0  0  0  0  0
  150.9418  139.1955  156.9082 N   0  0  0  0  0  0  0  0  0  0  0  0
  150.9540  139.3876  158.2350 C   0  0  0  0  0  0  0  0  0  0  0  0
  149.9332  139.3940  158.9238 O   0  0  0  0  0  0  0  0  0  0  0  0
  152.3336  139.5808  158.8795 C   0  0  0  0  0  0  0  0  0  0  0  0
  152.5503  140.9528  159.3680 N   0  0  0  0  0  0  0  0  0  0  0  0
  152.4427  141.9970  158.4283 C   0  0  0  0  0  0  0  0  0  0  0  0
  152.6347  143.2917  158.7464 C   0  0  0  0  0  0  0  0  0  0  0  0
  152.4616  144.4015  157.7210 C   0  0  0  0  0  0  0  0  0  0  0  0
  152.6903  145.5974  158.2643 F   0  0  0  0  0  0  0  0  0  0  0  0
  153.3213  144.2296  156.7181 F   0  0  0  0  0  0  0  0  0  0  0  0
  151.2276  144.4008  157.2150 F   0  0  0  0  0  0  0  0  0  0  0  0
  152.9314  143.5777  160.1365 C   0  0  0  0  0  0  0  0  0  0  0  0
  153.0309  142.5918  161.0493 C   0  0  0  0  0  0  0  0  0  0  0  0
  152.8432  141.1863  160.6827 C   0  0  0  0  0  0  0  0  0  0  0  0
  152.9428  140.2750  161.5049 O   0  0  0  0  0  0  0  0  0  0  0  0
  147.6663  139.0383  154.1158 C   0  0  0  0  0  0  0  0  0  0  0  0
  147.6605  138.8997  151.2751 H   0  0  0  0  0  0  0  0  0  0  0  0
  145.9257  139.1184  151.0725 H   0  0  0  0  0  0  0  0  0  0  0  0
  146.5409  137.7058  151.9180 H   0  0  0  0  0  0  0  0  0  0  0  0
  145.6339  139.3310  153.5148 H   0  0  0  0  0  0  0  0  0  0  0  0
  146.0444  141.4100  152.1436 H   0  0  0  0  0  0  0  0  0  0  0  0
  146.4169  141.5563  153.8420 H   0  0  0  0  0  0  0  0  0  0  0  0
  148.4417  141.1336  151.5954 H   0  0  0  0  0  0  0  0  0  0  0  0
  148.2355  142.5738  152.5572 H   0  0  0  0  0  0  0  0  0  0  0  0
  150.1694  141.2076  153.3333 H   0  0  0  0  0  0  0  0  0  0  0  0
  148.9746  141.3872  154.6035 H   0  0  0  0  0  0  0  0  0  0  0  0
  150.2158  137.8206  154.3890 H   0  0  0  0  0  0  0  0  0  0  0  0
  151.0533  139.3543  154.4115 H   0  0  0  0  0  0  0  0  0  0  0  0
  149.0556  139.8320  156.2809 H   0  0  0  0  0  0  0  0  0  0  0  0
  149.2319  138.0942  156.4545 H   0  0  0  0  0  0  0  0  0  0  0  0
  151.8255  139.1947  156.4194 H   0  0  0  0  0  0  0  0  0  0  0  0
  152.4298  138.8604  159.6928 H   0  0  0  0  0  0  0  0  0  0  0  0
  153.1159  139.3115  158.1669 H   0  0  0  0  0  0  0  0  0  0  0  0
  152.1977  141.6770  157.4259 H   0  0  0  0  0  0  0  0  0  0  0  0
  153.0820  144.5997  160.4514 H   0  0  0  0  0  0  0  0  0  0  0  0
  153.2562  142.8415  162.0758 H   0  0  0  0  0  0  0  0  0  0  0  0
  147.4338  139.4337  155.1061 H   0  0  0  0  0  0  0  0  0  0  0  0
  147.5962  137.9542  154.1945 H   0  0  0  0  0  0  0  0  0  0  0  0
  149.2202  139.0907  152.8146 H   0  0  0  0  0  0  0  0  0  0  0  0
  1  2  1  0  0  0  0
  1 25  1  0  0  0  0
  1 26  1  0  0  0  0
  1 27  1  0  0  0  0
  2 24  1  0  0  0  0
  2  3  1  0  0  0  0
  2 28  1  0  0  0  0
  3  4  1  0  0  0  0
  3 29  1  0  0  0  0
  3 30  1  0  0  0  0
  4  5  1  0  0  0  0
  4 31  1  0  0  0  0
  4 32  1  0  0  0  0
  5  6  1  0  0  0  0
  5 33  1  0  0  0  0
  5 34  1  0  0  0  0
  6  7  1  0  0  0  0
  6 24  1  0  0  0  0
  6 47  1  0  0  0  0
  7  8  1  0  0  0  0
  7 35  1  0  0  0  0
  7 36  1  0  0  0  0
  8  9  1  0  0  0  0
  8 37  1  0  0  0  0
  8 38  1  0  0  0  0
  9 10  1  0  0  0  0
  9 39  1  0  0  0  0
 10 11  2  0  0  0  0
 10 12  1  0  0  0  0
 12 13  1  0  0  0  0
 12 40  1  0  0  0  0
 12 41  1  0  0  0  0
 13 22  1  0  0  0  0
 13 14  1  0  0  0  0
 14 15  2  0  0  0  0
 14 42  1  0  0  0  0
 15 16  1  0  0  0  0
 15 20  1  0  0  0  0
 16 17  1  0  0  0  0
 16 18  1  0  0  0  0
 16 19  1  0  0  0  0
 20 21  2  0  0  0  0
 20 43  1  0  0  0  0
 21 22  1  0  0  0  0
 21 44  1  0  0  0  0
 22 23  2  0  0  0  0
 24 45  1  0  0  0  0
 24 46  1  0  0  0  0
M  CHG  1   6   1
M  END
> <s_m_source_file>
AV-unprocessed.smi

> <i_m_source_file_index>
1451

> <i_lp_mmshare_version>
43012

> <i_f3d_flags>
0

> <s_epik_input>
W0NIM11bQ0BASF0xW0NIMl1bQ0gyXVtDSDJdTihbQ0gyXTEpW0NIMl1bQ0gyXVtOSF1DKD1PKVtDSDJdbjJbY0hdYyhDKEYpKEYpRilbY0hdW2NIXWMyPU8=

> <s_epik_cmdline>
J2VwaWtfcHl0aG9uJywgJy1waCcsICc3LjAnLCAnLXRuJywgJzgnLCAnLW1hJywgJzIwMCcsICctbWV0YWxfYmluZGluZycsICctaW1hZScsICc8aW5maWxlLm1hZT4nLCAnLW9tYWUnLCAnPG91dGZpbGUubWFlPic=

> <r_lp_tautomer_probability>
1

> <r_epik_Ionization_Penalty>
0.00192452

> <r_epik_Ionization_Penalty_Charging>
0.00192444

> <r_epik_Ionization_Penalty_Neutral>
8.16761e-08

> <r_epik_State_Penalty>
0.00131115

> <r_epik_Charging_Adjusted_Penalty>
0.00323559

> <i_epik_Tot_Q>
1

> <i_epik_Tot_abs_Q>
1

> <r_epik_Metal_State_Penalty>
-0

> <b_epik_Metal_Only>
0

> <s_lp_Force_Field>
OPLS_2005

> <r_lp_Energy>
31.5843

> <b_lp_Chiralities_Consistent>
1

> <s_lp_Variant>
AV-unprocessed.smi:1451-3

> <Gold.Version>
5.8.1

> <Gold.Id.Protein>
6NUR|6NUR_protein|mol2

> <Gold.PLP.Fitness>
57.7617

> <Gold.PLP.PLP>
-55.4375

> <Gold.PLP.part.hbond>
-1.0000

> <Gold.PLP.part.metal>
0.0000

> <Gold.PLP.part.buried>
-3.4804

> <Gold.PLP.part.nonpolar>
-50.7160

> <Gold.PLP.part.repulsive>
0.2244

> <Gold.PLP.ligand.clash>
0.0000

> <Gold.PLP.ligand.torsion>
0.4914

> <Gold.PLP.Chemscore.Hbond>
1.0000

> <Gold.PLP.Chemscore.CHOScore>
0.0000

> <Gold.PLP.Chemscore.Metal>
0.0000

> <Gold.Chemscore.Hbonds>
donor molecule, donor type, donor heavy atom, donor atom, acceptor molecule, acceptor atom, score
      L1  H     6    47       P1  7957  0.61

> <Gold.PLP.Chemscore.Internal.Correction>
0.3069

> <Gold.Rescore>
     Score         DG    S(hbond)    S(metal)    S(lipo)     H(rot)  DE(clash)    DE(int)     intcor
     14.87     -16.33       1.00        0.00     109.79       2.08       0.76       0.71       ----

> <Gold.Chemscore.Fitness>
14.8675

> <Gold.Chemscore.DG>
-16.3346

> <Gold.Chemscore.ZeroCoef>
-5.4800

> <Gold.Chemscore.Hbond>
0.9953

> <Gold.Chemscore.Metal>
0.0000

> <Gold.Chemscore.Lipo>
109.7879

> <Gold.Chemscore.Internal_Hbond>
0.0000

> <Gold.Chemscore.DEClash>
0.7586

> <Gold.Chemscore.DEInternal>
0.7085

> <Gold.Chemscore.Rot>
2.0762

> <Gold.Chemscore.Internal.Correction>
   9.000000E+99

> <Gold.Chemscore.Hbonds>
donor molecule, donor type, donor heavy atom, donor atom, acceptor molecule, acceptor atom, score
      L1  H     6    47       P1  7957  0.61

> <Gold.Chemscore.Hbond.Weighted>
-3.3244

> <Gold.Chemscore.Metal.Weighted>
-0.0000

> <Gold.Chemscore.Lipo.Weighted>
-12.8452

> <Gold.Chemscore.Internal_Hbond.Weighted>
0.0000

> <Gold.Chemscore.DEClash.Weighted>
0.7586

> <Gold.Chemscore.DEInternal.Weighted>
0.7085

> <Gold.Chemscore.Rot.Weighted>
5.3150

> <Gold.Chemscore.Internal.Correction.Weighted>
   9.000000E+99

> <Gold.Protein.RotatedTorsions>
[ 6907 6896 6895 6894 ] final   93.76 input  -60.11 | X-H torsion
[ 7974 7965 7964 7962 ] final  -19.74 input  175.53 | X-H torsion
[ 8008 7997 7996 7995 ] final  130.35 input   59.86 | X-H torsion
[ 10167 10162 10161 10158 ] final   35.42 input  -65.29 | X-H torsion
[ 10718 10713 10712 10709 ] final  162.00 input   66.30 | X-H torsion
[ 10763 10752 10751 10750 ] final  -79.39 input  -60.55 | X-H torsion
[ 11005 11000 10999 10996 ] final  -47.88 input  -57.11 | X-H torsion

> <Gold.Protein.ActiveResidues>
 VAL166  LYS551  ARG553  GLY616  TRP617  ASP618  TYR619  PRO620  LYS621  CYS622 
 ASP623  PHE694  ASN695  SER759  ASP760  ASP761  ALA762  ILE779  LEU786  VAL792 
 PHE793  MET794  SER795  GLU796  ALA797  LYS798  CYS799  TRP800  GLU811  SER814 

> <Gold.Protein.RotatedAtoms>
  152.5452  134.1298  159.8433 H   0  0  0  0  0  0  0  0  0  0  0  0  # atno 6907 bound_to 6896
  151.1345  133.5007  159.2606 H   0  0  0  0  0  0  0  0  0  0  0  0  # atno 6908 bound_to 6896
  151.1639  135.0296  159.8777 H   0  0  0  0  0  0  0  0  0  0  0  0  # atno 6909 bound_to 6896
  146.1825  140.4104  142.8489 H   0  0  0  0  0  0  0  0  0  0  0  0  # atno 7974 bound_to 7965
  156.2953  140.2598  156.2748 H   0  0  0  0  0  0  0  0  0  0  0  0  # atno 8008 bound_to 7997
  154.9659  140.0392  157.2230 H   0  0  0  0  0  0  0  0  0  0  0  0  # atno 8009 bound_to 7997
  154.7903  140.2810  155.6001 H   0  0  0  0  0  0  0  0  0  0  0  0  # atno 8010 bound_to 7997
  140.4224  144.1441  150.6149 H   0  0  0  0  0  0  0  0  0  0  0  0  # atno 10167 bound_to 10162
  157.1286  131.0511  151.2382 H   0  0  0  0  0  0  0  0  0  0  0  0  # atno 10718 bound_to 10713
  154.5380  135.5697  153.6815 H   0  0  0  0  0  0  0  0  0  0  0  0  # atno 10763 bound_to 10752
  152.9956  135.6221  154.2540 H   0  0  0  0  0  0  0  0  0  0  0  0  # atno 10764 bound_to 10752
  154.2470  135.2860  155.2811 H   0  0  0  0  0  0  0  0  0  0  0  0  # atno 10765 bound_to 10752
  141.0667  133.6691  156.3360 H   0  0  0  0  0  0  0  0  0  0  0  0  # atno 11005 bound_to 11000
  144.8340  140.6753  143.6272 LP  0  0  0  0  0  0  0  0  0  0  0  0  # atno 17320 bound_to 7965
  145.4034  139.1593  143.4165 LP  0  0  0  0  0  0  0  0  0  0  0  0  # atno 17321 bound_to 7965
  140.4519  143.2483  151.9336 LP  0  0  0  0  0  0  0  0  0  0  0  0  # atno 17342 bound_to 10162
  139.4783  144.5554  151.8322 LP  0  0  0  0  0  0  0  0  0  0  0  0  # atno 17343 bound_to 10162
  157.4412  130.7545  149.7071 LP  0  0  0  0  0  0  0  0  0  0  0  0  # atno 17370 bound_to 10713
  155.9813  130.4021  150.3481 LP  0  0  0  0  0  0  0  0  0  0  0  0  # atno 17371 bound_to 10713
  140.5758  134.5795  157.5468 LP  0  0  0  0  0  0  0  0  0  0  0  0  # atno 17394 bound_to 11000
  139.9483  134.7662  156.0508 LP  0  0  0  0  0  0  0  0  0  0  0  0  # atno 17395 bound_to 11000

$$$$
