AV-unprocessed.smi:3287|AV-procd|sdf|12590|dock6
  -GOLD-   2272018513D 1   1.00000     0.00000
 Structure written by MMmdl.
 43 44  0  0  0  0  0  0  0  0  2 V2000
  152.5976  143.9216  161.9522 C   0  0  0  0  0  0  0  0  0  0  0  0
  152.3787  143.7319  160.4405 C   0  0  2  0  0  0  0  0  0  0  0  0
  151.1809  144.5845  159.9754 C   0  0  0  0  0  0  0  0  0  0  0  0
  150.9215  144.4398  158.4698 C   0  0  0  0  0  0  0  0  0  0  0  0
  150.6885  142.9706  158.0863 C   0  0  1  0  0  0  0  0  0  0  0  0
  150.4516  142.8659  156.6297 N   0  3  0  0  0  0  0  0  0  0  0  0
  149.8275  141.6028  156.1796 C   0  0  0  0  0  0  0  0  0  0  0  0
  150.4442  141.1097  154.8589 C   0  0  2  0  0  0  0  0  0  0  0  0
  149.4456  141.1159  153.8570 O   0  0  0  0  0  0  0  0  0  0  0  0
  151.0664  139.7323  155.0259 C   0  0  0  0  0  0  0  0  0  0  0  0
  150.6154  138.6445  154.2493 C   0  0  0  0  0  0  0  0  0  0  0  0
  151.2262  137.3873  154.4312 C   0  0  0  0  0  0  0  0  0  0  0  0
  152.2259  137.1694  155.3120 N   0  0  0  0  0  0  0  0  0  0  0  0
  152.6555  138.2138  156.0516 C   0  0  0  0  0  0  0  0  0  0  0  0
  152.1132  139.5102  155.9469 C   0  0  0  0  0  0  0  0  0  0  0  0
  151.8939  142.1172  158.5290 C   0  0  0  0  0  0  0  0  0  0  0  0
  152.1795  142.2459  160.0404 C   0  0  1  0  0  0  0  0  0  0  0  0
  153.3773  141.3575  160.4226 C   0  0  0  0  0  0  0  0  0  0  0  0
  151.7727  143.5008  162.5278 H   0  0  0  0  0  0  0  0  0  0  0  0
  152.6724  144.9792  162.2067 H   0  0  0  0  0  0  0  0  0  0  0  0
  153.5196  143.4502  162.2912 H   0  0  0  0  0  0  0  0  0  0  0  0
  153.2685  144.1047  159.9305 H   0  0  0  0  0  0  0  0  0  0  0  0
  150.2854  144.2936  160.5267 H   0  0  0  0  0  0  0  0  0  0  0  0
  151.3575  145.6348  160.2107 H   0  0  0  0  0  0  0  0  0  0  0  0
  150.0556  145.0414  158.1902 H   0  0  0  0  0  0  0  0  0  0  0  0
  151.7703  144.8417  157.9144 H   0  0  0  0  0  0  0  0  0  0  0  0
  149.7926  142.6240  158.6044 H   0  0  0  0  0  0  0  0  0  0  0  0
  149.8219  143.6114  156.3683 H   0  0  0  0  0  0  0  0  0  0  0  0
  149.9671  140.8419  156.9477 H   0  0  0  0  0  0  0  0  0  0  0  0
  148.7520  141.7463  156.0632 H   0  0  0  0  0  0  0  0  0  0  0  0
  151.2242  141.8047  154.5442 H   0  0  0  0  0  0  0  0  0  0  0  0
  149.7883  140.6822  153.0898 H   0  0  0  0  0  0  0  0  0  0  0  0
  149.8196  138.7641  153.5287 H   0  0  0  0  0  0  0  0  0  0  0  0
  150.9040  136.5343  153.8524 H   0  0  0  0  0  0  0  0  0  0  0  0
  153.4570  138.0113  156.7466 H   0  0  0  0  0  0  0  0  0  0  0  0
  152.4965  140.3121  156.5611 H   0  0  0  0  0  0  0  0  0  0  0  0
  151.7170  141.0684  158.2906 H   0  0  0  0  0  0  0  0  0  0  0  0
  152.7793  142.4144  157.9649 H   0  0  0  0  0  0  0  0  0  0  0  0
  151.3071  141.8657  160.5745 H   0  0  0  0  0  0  0  0  0  0  0  0
  154.3036  141.7292  159.9833 H   0  0  0  0  0  0  0  0  0  0  0  0
  153.2333  140.3345  160.0739 H   0  0  0  0  0  0  0  0  0  0  0  0
  153.5148  141.3052  161.5022 H   0  0  0  0  0  0  0  0  0  0  0  0
  151.3256  143.0021  156.1424 H   0  0  0  0  0  0  0  0  0  0  0  0
  1  2  1  0  0  0  0
  1 19  1  0  0  0  0
  1 20  1  0  0  0  0
  1 21  1  0  0  0  0
  2 17  1  0  0  0  0
  2  3  1  0  0  0  0
  2 22  1  0  0  0  0
  3  4  1  0  0  0  0
  3 23  1  0  0  0  0
  3 24  1  0  0  0  0
  4  5  1  0  0  0  0
  4 25  1  0  0  0  0
  4 26  1  0  0  0  0
  5  6  1  0  0  0  0
  5 16  1  0  0  0  0
  5 27  1  0  0  0  0
  6  7  1  0  0  0  0
  6 28  1  0  0  0  0
  6 43  1  0  0  0  0
  7  8  1  0  0  0  0
  7 29  1  0  0  0  0
  7 30  1  0  0  0  0
  8  9  1  0  0  0  0
  8 10  1  0  0  0  0
  8 31  1  0  0  0  0
  9 32  1  0  0  0  0
 10 15  1  0  0  0  0
 10 11  2  0  0  0  0
 11 12  1  0  0  0  0
 11 33  1  0  0  0  0
 12 13  2  0  0  0  0
 12 34  1  0  0  0  0
 13 14  1  0  0  0  0
 14 15  2  0  0  0  0
 14 35  1  0  0  0  0
 15 36  1  0  0  0  0
 16 17  1  0  0  0  0
 16 37  1  0  0  0  0
 16 38  1  0  0  0  0
 17 18  1  0  0  0  0
 17 39  1  0  0  0  0
 18 40  1  0  0  0  0
 18 41  1  0  0  0  0
 18 42  1  0  0  0  0
M  CHG  1   6   1
M  END
> <s_m_source_file>
AV-unprocessed.smi

> <i_m_source_file_index>
3287

> <i_lp_mmshare_version>
43012

> <i_f3d_flags>
0

> <s_epik_input>
W0NIM11bQ0BASF0xW0NIMl1bQ0gyXVtDQEhdKFtDSDJdW0NASF0xW0NIM10pW05IXVtDSDJdW0NASF0oW09IXSljMltjSF1bY0hdbltjSF1bY0hdMg==

> <s_epik_cmdline>
J2VwaWtfcHl0aG9uJywgJy1waCcsICc3LjAnLCAnLXRuJywgJzgnLCAnLW1hJywgJzIwMCcsICctbWV0YWxfYmluZGluZycsICctaW1hZScsICc8aW5maWxlLm1hZT4nLCAnLW9tYWUnLCAnPG91dGZpbGUubWFlPic=

> <r_lp_tautomer_probability>
1

> <r_epik_Ionization_Penalty>
0.00537262

> <r_epik_Ionization_Penalty_Charging>
0.00321624

> <r_epik_Ionization_Penalty_Neutral>
0.00215638

> <r_epik_State_Penalty>
-0

> <r_epik_Charging_Adjusted_Penalty>
0.00321624

> <i_epik_Tot_Q>
1

> <i_epik_Tot_abs_Q>
1

> <r_epik_Metal_State_Penalty>
-0

> <b_epik_Metal_Only>
0

> <s_lp_Force_Field>
OPLS_2005

> <r_lp_Energy>
16.0387

> <b_lp_Chiralities_Consistent>
1

> <s_lp_Variant>
AV-unprocessed.smi:3287-1

> <Gold.Version>
5.8.1

> <Gold.Id.Protein>
6NUR|6NUR_protein|mol2

> <Gold.PLP.Fitness>
54.9708

> <Gold.PLP.PLP>
-42.8234

> <Gold.PLP.part.hbond>
-5.0000

> <Gold.PLP.part.metal>
0.0000

> <Gold.PLP.part.buried>
0.1021

> <Gold.PLP.part.nonpolar>
-36.9133

> <Gold.PLP.part.repulsive>
0.1063

> <Gold.PLP.ligand.clash>
0.0000

> <Gold.PLP.ligand.torsion>
1.1563

> <Gold.PLP.Chemscore.Hbond>
3.7680

> <Gold.PLP.Chemscore.CHOScore>
1.0450

> <Gold.PLP.Chemscore.Metal>
0.0000

> <Gold.Chemscore.Hbonds>
donor molecule, donor type, donor heavy atom, donor atom, acceptor molecule, acceptor atom, score
      L1  H     6    28       P1  8028  2.00
      L1  H     9    32       P1  7957  0.99
      P1  H 10752 10763       L1    13  0.82
      L1  C    12    34       P1  7948  0.09
      L1  C    12    34       P1  7949  0.91

> <Gold.PLP.Chemscore.Internal.Correction>
0.0209

> <Gold.Rescore>
     Score         DG    S(hbond)    S(metal)    S(lipo)     H(rot)  DE(clash)    DE(int)     intcor
     22.46     -24.94       2.71        0.00     130.54       1.90       1.28       1.20       ----

> <Gold.Chemscore.Fitness>
22.4631

> <Gold.Chemscore.DG>
-24.9438

> <Gold.Chemscore.ZeroCoef>
-5.4800

> <Gold.Chemscore.Hbond>
2.7138

> <Gold.Chemscore.Metal>
0.0000

> <Gold.Chemscore.Lipo>
130.5360

> <Gold.Chemscore.Internal_Hbond>
0.0000

> <Gold.Chemscore.DEClash>
1.2821

> <Gold.Chemscore.DEInternal>
1.1986

> <Gold.Chemscore.Rot>
1.9035

> <Gold.Chemscore.Internal.Correction>
   9.000000E+99

> <Gold.Chemscore.Hbonds>
donor molecule, donor type, donor heavy atom, donor atom, acceptor molecule, acceptor atom, score
      L1  H     6    28       P1  8028  0.99
      L1  H     9    32       P1  7957  0.89
      P1  H 10752 10763       L1    13  0.41

> <Gold.Chemscore.Hbond.Weighted>
-9.0640

> <Gold.Chemscore.Metal.Weighted>
-0.0000

> <Gold.Chemscore.Lipo.Weighted>
-15.2727

> <Gold.Chemscore.Internal_Hbond.Weighted>
0.0000

> <Gold.Chemscore.DEClash.Weighted>
1.2821

> <Gold.Chemscore.DEInternal.Weighted>
1.1986

> <Gold.Chemscore.Rot.Weighted>
4.8729

> <Gold.Chemscore.Internal.Correction.Weighted>
   9.000000E+99

> <Gold.Protein.RotatedTorsions>
[ 6907 6896 6895 6894 ] final  -46.63 input  -60.11 | X-H torsion
[ 7974 7965 7964 7962 ] final    0.97 input  175.53 | X-H torsion
[ 8008 7997 7996 7995 ] final   -5.82 input   59.86 | X-H torsion
[ 10167 10162 10161 10158 ] final  122.77 input  -65.29 | X-H torsion
[ 10718 10713 10712 10709 ] final  102.96 input   66.30 | X-H torsion
[ 10763 10752 10751 10750 ] final   70.78 input  -60.55 | X-H torsion
[ 11005 11000 10999 10996 ] final   47.25 input  -57.11 | X-H torsion

> <Gold.Protein.ActiveResidues>
 VAL166  LYS551  ARG553  GLY616  TRP617  ASP618  TYR619  PRO620  LYS621  CYS622 
 ASP623  PHE694  ASN695  SER759  ASP760  ASP761  ALA762  ILE779  LEU786  VAL792 
 PHE793  MET794  SER795  GLU796  ALA797  LYS798  CYS799  TRP800  GLU811  SER814 

> <Gold.Protein.RotatedAtoms>
  150.9092  134.8509  159.7413 H   0  0  0  0  0  0  0  0  0  0  0  0  # atno 6907 bound_to 6896
  152.4935  134.4384  159.9545 H   0  0  0  0  0  0  0  0  0  0  0  0  # atno 6908 bound_to 6896
  151.4428  133.3599  159.2819 H   0  0  0  0  0  0  0  0  0  0  0  0  # atno 6909 bound_to 6896
  146.2438  140.1057  142.8346 H   0  0  0  0  0  0  0  0  0  0  0  0  # atno 7974 bound_to 7965
  154.6000  140.2448  155.7805 H   0  0  0  0  0  0  0  0  0  0  0  0  # atno 8008 bound_to 7997
  156.2304  140.2968  156.0127 H   0  0  0  0  0  0  0  0  0  0  0  0  # atno 8009 bound_to 7997
  155.2227  140.0401  157.2941 H   0  0  0  0  0  0  0  0  0  0  0  0  # atno 8010 bound_to 7997
  139.5839  144.6998  151.3459 H   0  0  0  0  0  0  0  0  0  0  0  0  # atno 10167 bound_to 10162
  157.6787  131.0766  150.5483 H   0  0  0  0  0  0  0  0  0  0  0  0  # atno 10718 bound_to 10713
  153.0361  135.5161  154.7493 H   0  0  0  0  0  0  0  0  0  0  0  0  # atno 10763 bound_to 10752
  154.6469  135.2920  155.0038 H   0  0  0  0  0  0  0  0  0  0  0  0  # atno 10764 bound_to 10752
  154.0936  135.6646  153.4909 H   0  0  0  0  0  0  0  0  0  0  0  0  # atno 10765 bound_to 10752
  140.1296  134.4723  155.8532 H   0  0  0  0  0  0  0  0  0  0  0  0  # atno 11005 bound_to 11000
  145.0530  140.9032  143.4984 LP  0  0  0  0  0  0  0  0  0  0  0  0  # atno 17320 bound_to 7965
  145.1158  139.2726  143.5614 LP  0  0  0  0  0  0  0  0  0  0  0  0  # atno 17321 bound_to 7965
  140.7113  143.7382  150.7573 LP  0  0  0  0  0  0  0  0  0  0  0  0  # atno 17342 bound_to 10162
  140.0921  143.4868  152.2473 LP  0  0  0  0  0  0  0  0  0  0  0  0  # atno 17343 bound_to 10162
  156.5788  130.4299  149.5986 LP  0  0  0  0  0  0  0  0  0  0  0  0  # atno 17370 bound_to 10713
  156.2678  130.7000  151.1788 LP  0  0  0  0  0  0  0  0  0  0  0  0  # atno 17371 bound_to 10713
  141.2167  133.6791  156.7044 LP  0  0  0  0  0  0  0  0  0  0  0  0  # atno 17394 bound_to 11000
  140.2859  134.8279  157.3975 LP  0  0  0  0  0  0  0  0  0  0  0  0  # atno 17395 bound_to 11000

$$$$
