AV-unprocessed.smi:199|AV-procd|sdf|1574|dock5
  -GOLD-   2262019453D 1   1.00000     0.00000
 Structure written by MMmdl.
 51 55  0  0  0  0  0  0  0  0  1 V2000
  145.1501  134.1578  162.9161 C   0  0  0  0  0  0  0  0  0  0  0  0
  146.5391  134.4680  162.3304 C   0  0  2  0  0  0  0  0  0  0  0  0
  147.3573  134.8861  163.4248 O   0  0  0  0  0  0  0  0  0  0  0  0
  147.9242  136.1641  163.1697 C   0  0  0  0  0  0  0  0  0  0  0  0
  146.9729  136.8028  162.1692 C   0  0  0  0  0  0  0  0  0  0  0  0
  146.5872  135.6172  161.2927 C   0  0  2  0  0  0  0  0  0  0  0  0
  145.3258  135.8721  160.7002 O   0  0  0  0  0  0  0  0  0  0  0  0
  147.6063  135.3074  160.1631 C   0  0  0  0  0  0  0  0  0  0  0  0
  147.8794  136.4305  159.2787 N   0  0  0  0  0  0  0  0  0  0  0  0
  146.9657  137.1162  158.5113 C   0  0  0  0  0  0  0  0  0  0  0  0
  147.4585  138.0934  157.8014 N   0  0  0  0  0  0  0  0  0  0  0  0
  148.8142  138.0930  158.1092 C   0  0  0  0  0  0  0  0  0  0  0  0
  149.9300  138.8814  157.7038 C   0  0  0  0  0  0  0  0  0  0  0  0
  149.8447  139.9037  156.8111 N   0  0  0  0  0  0  0  0  0  0  0  0
  151.0050  140.7083  156.4617 C   0  0  2  0  0  0  0  0  0  0  0  0
  150.3731  141.8447  155.6393 C   0  0  0  0  0  0  0  0  0  0  0  0
  149.2317  141.1008  154.9245 C   0  0  0  0  0  0  0  0  0  0  0  0
  149.4412  139.6631  155.4333 C   0  0  1  0  0  0  0  0  0  0  0  0
  150.6977  139.0775  154.7399 C   0  0  2  0  0  0  0  0  0  0  0  0
  150.7830  137.5396  154.7828 C   0  0  0  0  0  0  0  0  0  0  0  0
  151.7306  137.0814  153.8422 O   0  0  0  0  0  0  0  0  0  0  0  0
  151.8179  139.7947  155.5213 C   0  0  0  0  0  0  0  0  0  0  0  0
  151.1329  138.5939  158.2686 N   0  0  0  0  0  0  0  0  0  0  0  0
  151.2497  137.5915  159.1433 C   0  0  0  0  0  0  0  0  0  0  0  0
  150.3050  136.7658  159.5948 N   0  0  0  0  0  0  0  0  0  0  0  0
  149.0909  137.0584  159.0486 C   0  0  0  0  0  0  0  0  0  0  0  0
  144.4704  133.7841  162.1499 H   0  0  0  0  0  0  0  0  0  0  0  0
  144.6993  135.0434  163.3652 H   0  0  0  0  0  0  0  0  0  0  0  0
  145.2189  133.3932  163.6901 H   0  0  0  0  0  0  0  0  0  0  0  0
  146.9506  133.5498  161.9089 H   0  0  0  0  0  0  0  0  0  0  0  0
  148.0243  136.7461  164.0860 H   0  0  0  0  0  0  0  0  0  0  0  0
  148.9175  136.0388  162.7371 H   0  0  0  0  0  0  0  0  0  0  0  0
  146.0994  137.1793  162.7041 H   0  0  0  0  0  0  0  0  0  0  0  0
  147.4124  137.6437  161.6347 H   0  0  0  0  0  0  0  0  0  0  0  0
  145.1857  135.2420  160.0099 H   0  0  0  0  0  0  0  0  0  0  0  0
  148.5554  134.9780  160.5869 H   0  0  0  0  0  0  0  0  0  0  0  0
  147.2481  134.4756  159.5548 H   0  0  0  0  0  0  0  0  0  0  0  0
  145.9154  136.8629  158.4899 H   0  0  0  0  0  0  0  0  0  0  0  0
  151.5798  141.0780  157.3116 H   0  0  0  0  0  0  0  0  0  0  0  0
  149.9742  142.6243  156.2896 H   0  0  0  0  0  0  0  0  0  0  0  0
  151.0793  142.3062  154.9481 H   0  0  0  0  0  0  0  0  0  0  0  0
  148.2644  141.4875  155.2478 H   0  0  0  0  0  0  0  0  0  0  0  0
  149.2817  141.1834  153.8383 H   0  0  0  0  0  0  0  0  0  0  0  0
  148.5490  139.0537  155.2995 H   0  0  0  0  0  0  0  0  0  0  0  0
  150.7100  139.3838  153.6925 H   0  0  0  0  0  0  0  0  0  0  0  0
  151.0627  137.1751  155.7705 H   0  0  0  0  0  0  0  0  0  0  0  0
  149.8149  137.1009  154.5400 H   0  0  0  0  0  0  0  0  0  0  0  0
  151.2757  136.8380  153.0503 H   0  0  0  0  0  0  0  0  0  0  0  0
  152.4928  140.3540  154.8726 H   0  0  0  0  0  0  0  0  0  0  0  0
  152.4205  139.0882  156.0936 H   0  0  0  0  0  0  0  0  0  0  0  0
  152.2416  137.4284  159.5378 H   0  0  0  0  0  0  0  0  0  0  0  0
  1  2  1  0  0  0  0
  1 27  1  0  0  0  0
  1 28  1  0  0  0  0
  1 29  1  0  0  0  0
  2  6  1  0  0  0  0
  2  3  1  0  0  0  0
  2 30  1  0  0  0  0
  3  4  1  0  0  0  0
  4  5  1  0  0  0  0
  4 31  1  0  0  0  0
  4 32  1  0  0  0  0
  5  6  1  0  0  0  0
  5 33  1  0  0  0  0
  5 34  1  0  0  0  0
  6  7  1  0  0  0  0
  6  8  1  0  0  0  0
  7 35  1  0  0  0  0
  8  9  1  0  0  0  0
  8 36  1  0  0  0  0
  8 37  1  0  0  0  0
  9 26  1  0  0  0  0
  9 10  1  0  0  0  0
 10 11  2  0  0  0  0
 10 38  1  0  0  0  0
 11 12  1  0  0  0  0
 12 26  2  0  0  0  0
 12 13  1  0  0  0  0
 13 14  1  0  0  0  0
 13 23  2  0  0  0  0
 14 18  1  0  0  0  0
 14 15  1  0  0  0  0
 15 22  1  0  0  0  0
 15 16  1  0  0  0  0
 15 39  1  0  0  0  0
 16 17  1  0  0  0  0
 16 40  1  0  0  0  0
 16 41  1  0  0  0  0
 17 18  1  0  0  0  0
 17 42  1  0  0  0  0
 17 43  1  0  0  0  0
 18 19  1  0  0  0  0
 18 44  1  0  0  0  0
 19 20  1  0  0  0  0
 19 22  1  0  0  0  0
 19 45  1  0  0  0  0
 20 21  1  0  0  0  0
 20 46  1  0  0  0  0
 20 47  1  0  0  0  0
 21 48  1  0  0  0  0
 22 49  1  0  0  0  0
 22 50  1  0  0  0  0
 23 24  1  0  0  0  0
 24 25  2  0  0  0  0
 24 51  1  0  0  0  0
 25 26  1  0  0  0  0
M  END
> <s_m_source_file>
AV-unprocessed.smi

> <i_m_source_file_index>
199

> <i_lp_mmshare_version>
43012

> <i_f3d_flags>
0

> <s_epik_input>
W0NIMl0xW0NIMl1PW0NAQEhdKFtDSDNdKVtDQEBdMShbT0hdKVtDSDJdbihbY0hdbjIpYyhjMjMpbltjSF1uYzNOKFtDQEBIXTQ1KVtDQEhdKFtDSDJdW0NIMl00KVtDQEhdKFtDSDJdNSlbQ0gyXVtPSF0=

> <s_epik_cmdline>
J2VwaWtfcHl0aG9uJywgJy1waCcsICc3LjAnLCAnLXRuJywgJzgnLCAnLW1hJywgJzIwMCcsICctbWV0YWxfYmluZGluZycsICctaW1hZScsICc8aW5maWxlLm1hZT4nLCAnLW9tYWUnLCAnPG91dGZpbGUubWFlPic=

> <r_lp_tautomer_probability>
1

> <r_epik_Ionization_Penalty>
0.00583903

> <r_epik_Ionization_Penalty_Charging>
0

> <r_epik_Ionization_Penalty_Neutral>
0.00583903

> <r_epik_State_Penalty>
-0

> <r_epik_Charging_Adjusted_Penalty>
0

> <i_epik_Tot_Q>
0

> <i_epik_Tot_abs_Q>
0

> <r_epik_Metal_State_Penalty>
-0

> <b_epik_Metal_Only>
0

> <s_lp_Force_Field>
OPLS_2005

> <r_lp_Energy>
84.8674

> <b_lp_Chiralities_Consistent>
1

> <s_lp_Variant>
AV-unprocessed.smi:199-15

> <Gold.Version>
5.8.1

> <Gold.Id.Protein>
6NUR|6NUR_protein|mol2

> <Gold.PLP.Fitness>
54.1449

> <Gold.PLP.PLP>
-45.5123

> <Gold.PLP.part.hbond>
-3.8875

> <Gold.PLP.part.metal>
0.0000

> <Gold.PLP.part.buried>
-7.0168

> <Gold.PLP.part.nonpolar>
-35.3809

> <Gold.PLP.part.repulsive>
0.0108

> <Gold.PLP.ligand.clash>
0.0000

> <Gold.PLP.ligand.torsion>
0.2092

> <Gold.PLP.Chemscore.Hbond>
3.0000

> <Gold.PLP.Chemscore.CHOScore>
0.0000

> <Gold.PLP.Chemscore.Metal>
0.0000

> <Gold.Chemscore.Hbonds>
donor molecule, donor type, donor heavy atom, donor atom, acceptor molecule, acceptor atom, score
      L1  H    21    48       P1  7949  1.00
      P1  H  6896  6908       L1    25  1.00
      P1  H 10752 10765       L1    21  1.00

> <Gold.PLP.Chemscore.Internal.Correction>
0.0511

> <Gold.Rescore>
     Score         DG    S(hbond)    S(metal)    S(lipo)     H(rot)  DE(clash)    DE(int)     intcor
     16.31     -17.89       2.62        0.00      98.60       3.07       0.75       0.82       ----

> <Gold.Chemscore.Fitness>
16.3125

> <Gold.Chemscore.DG>
-17.8861

> <Gold.Chemscore.ZeroCoef>
-5.4800

> <Gold.Chemscore.Hbond>
2.6157

> <Gold.Chemscore.Metal>
0.0000

> <Gold.Chemscore.Lipo>
98.6023

> <Gold.Chemscore.Internal_Hbond>
0.0000

> <Gold.Chemscore.DEClash>
0.7502

> <Gold.Chemscore.DEInternal>
0.8234

> <Gold.Chemscore.Rot>
3.0729

> <Gold.Chemscore.Internal.Correction>
   9.000000E+99

> <Gold.Chemscore.Hbonds>
donor molecule, donor type, donor heavy atom, donor atom, acceptor molecule, acceptor atom, score
      L1  H    21    48       P1  7949  0.67
      P1  H  6896  6908       L1    25  0.78
      P1  H 10752 10765       L1    21  0.59

> <Gold.Chemscore.Hbond.Weighted>
-8.7363

> <Gold.Chemscore.Metal.Weighted>
-0.0000

> <Gold.Chemscore.Lipo.Weighted>
-11.5365

> <Gold.Chemscore.Internal_Hbond.Weighted>
0.0000

> <Gold.Chemscore.DEClash.Weighted>
0.7502

> <Gold.Chemscore.DEInternal.Weighted>
0.8234

> <Gold.Chemscore.Rot.Weighted>
7.8667

> <Gold.Chemscore.Internal.Correction.Weighted>
   9.000000E+99

> <Gold.Protein.RotatedTorsions>
[ 6907 6896 6895 6894 ] final -159.26 input  -60.11 | X-H torsion
[ 7974 7965 7964 7962 ] final   56.91 input  175.53 | X-H torsion
[ 8008 7997 7996 7995 ] final   24.99 input   59.86 | X-H torsion
[ 10167 10162 10161 10158 ] final  -15.09 input  -65.29 | X-H torsion
[ 10718 10713 10712 10709 ] final -163.60 input   66.30 | X-H torsion
[ 10763 10752 10751 10750 ] final  158.08 input  -60.55 | X-H torsion
[ 11005 11000 10999 10996 ] final   39.21 input  -57.11 | X-H torsion

> <Gold.Protein.ActiveResidues>
 VAL166  LYS551  ARG553  GLY616  TRP617  ASP618  TYR619  PRO620  LYS621  CYS622 
 ASP623  PHE694  ASN695  SER759  ASP760  ASP761  ALA762  ILE779  LEU786  VAL792 
 PHE793  MET794  SER795  GLU796  ALA797  LYS798  CYS799  TRP800  GLU811  SER814 

> <Gold.Protein.RotatedAtoms>
  151.3308  133.4001  159.2662 H   0  0  0  0  0  0  0  0  0  0  0  0  # atno 6907 bound_to 6896
  150.9957  134.9282  159.7935 H   0  0  0  0  0  0  0  0  0  0  0  0  # atno 6908 bound_to 6896
  152.5260  134.3273  159.9222 H   0  0  0  0  0  0  0  0  0  0  0  0  # atno 6909 bound_to 6896
  145.9347  139.3837  143.0400 H   0  0  0  0  0  0  0  0  0  0  0  0  # atno 7974 bound_to 7965
  155.0048  140.3129  155.4853 H   0  0  0  0  0  0  0  0  0  0  0  0  # atno 8008 bound_to 7997
  156.2919  140.2225  156.5101 H   0  0  0  0  0  0  0  0  0  0  0  0  # atno 8009 bound_to 7997
  154.7586  140.0461  157.0942 H   0  0  0  0  0  0  0  0  0  0  0  0  # atno 8010 bound_to 7997
  140.7212  143.5253  150.9584 H   0  0  0  0  0  0  0  0  0  0  0  0  # atno 10167 bound_to 10162
  156.6270  130.8914  151.2969 H   0  0  0  0  0  0  0  0  0  0  0  0  # atno 10718 bound_to 10713
  154.2103  135.2786  155.2960 H   0  0  0  0  0  0  0  0  0  0  0  0  # atno 10763 bound_to 10752
  154.5784  135.5597  153.7164 H   0  0  0  0  0  0  0  0  0  0  0  0  # atno 10764 bound_to 10752
  153.0066  135.6338  154.2242 H   0  0  0  0  0  0  0  0  0  0  0  0  # atno 10765 bound_to 10752
  140.2050  134.3824  155.8077 H   0  0  0  0  0  0  0  0  0  0  0  0  # atno 11005 bound_to 11000
  145.8379  140.9596  143.0814 LP  0  0  0  0  0  0  0  0  0  0  0  0  # atno 17320 bound_to 7965
  144.6770  140.0247  143.7483 LP  0  0  0  0  0  0  0  0  0  0  0  0  # atno 17321 bound_to 7965
  139.8972  143.6880  152.3137 LP  0  0  0  0  0  0  0  0  0  0  0  0  # atno 17342 bound_to 10162
  139.7217  144.7601  151.0945 LP  0  0  0  0  0  0  0  0  0  0  0  0  # atno 17343 bound_to 10162
  157.7211  130.9560  150.1443 LP  0  0  0  0  0  0  0  0  0  0  0  0  # atno 17370 bound_to 10713
  156.2266  130.3678  149.8494 LP  0  0  0  0  0  0  0  0  0  0  0  0  # atno 17371 bound_to 10713
  141.2227  133.7113  156.8322 LP  0  0  0  0  0  0  0  0  0  0  0  0  # atno 17394 bound_to 11000
  140.2012  134.8895  157.3171 LP  0  0  0  0  0  0  0  0  0  0  0  0  # atno 17395 bound_to 11000

$$$$
