AV-unprocessed.smi:915|AV-procd|sdf|4156|dock1
  -GOLD-   22720 2 63D 1   1.00000     0.00000
 Structure written by MMmdl.
 33 34  0  0  0  0  0  0  0  0  2 V2000
  147.3419  140.4453  152.9527 C   0  0  0  0  0  0  0  0  0  0  0  0
  148.3352  141.1110  153.9119 C   0  0  0  0  0  0  0  0  0  0  0  0
  149.4871  140.2148  154.2520 C   0  0  0  0  0  0  0  0  0  0  0  0
  149.7527  138.9780  153.7240 C   0  0  0  0  0  0  0  0  0  0  0  0
  151.1939  138.2826  154.4082 S   0  0  0  0  0  0  0  0  0  0  0  0
  151.4031  139.7244  155.4046 C   0  0  0  0  0  0  0  0  0  0  0  0
  152.4053  139.9168  156.2776 N   0  5  0  0  0  0  0  0  0  0  0  0
  152.1507  139.9244  157.6058 C   0  0  0  0  0  0  0  0  0  0  0  0
  151.3111  139.2379  158.1929 O   0  0  0  0  0  0  0  0  0  0  0  0
  152.9121  140.7846  158.2969 N   0  0  0  0  0  0  0  0  0  0  0  0
  152.8443  141.0186  159.7362 C   0  0  0  0  0  0  0  0  0  0  0  0
  153.0389  142.5038  160.0951 C   0  0  2  0  0  0  0  0  0  0  0  0
  152.2727  142.9483  161.3495 C   0  0  0  0  0  0  0  0  0  0  0  0
  152.1388  144.4692  161.2679 C   0  0  0  0  0  0  0  0  0  0  0  0
  151.7039  144.7891  159.8369 C   0  0  0  0  0  0  0  0  0  0  0  0
  152.5181  143.5964  158.7431 S   0  0  0  0  0  0  0  0  0  0  0  0
  150.4267  140.6166  155.2051 N   0  0  0  0  0  0  0  0  0  0  0  0
  146.5167  141.1180  152.7190 H   0  0  0  0  0  0  0  0  0  0  0  0
  146.9200  139.5391  153.3889 H   0  0  0  0  0  0  0  0  0  0  0  0
  147.8260  140.1717  152.0147 H   0  0  0  0  0  0  0  0  0  0  0  0
  148.7010  142.0355  153.4642 H   0  0  0  0  0  0  0  0  0  0  0  0
  147.8127  141.4067  154.8225 H   0  0  0  0  0  0  0  0  0  0  0  0
  149.1909  138.4350  152.9793 H   0  0  0  0  0  0  0  0  0  0  0  0
  153.5885  141.3243  157.7774 H   0  0  0  0  0  0  0  0  0  0  0  0
  151.8914  140.6556  160.1241 H   0  0  0  0  0  0  0  0  0  0  0  0
  153.6187  140.4162  160.2118 H   0  0  0  0  0  0  0  0  0  0  0  0
  154.0992  142.7043  160.2545 H   0  0  0  0  0  0  0  0  0  0  0  0
  151.2787  142.4988  161.3592 H   0  0  0  0  0  0  0  0  0  0  0  0
  152.7784  142.6357  162.2637 H   0  0  0  0  0  0  0  0  0  0  0  0
  151.4332  144.8572  162.0029 H   0  0  0  0  0  0  0  0  0  0  0  0
  153.1065  144.9303  161.4699 H   0  0  0  0  0  0  0  0  0  0  0  0
  150.6258  144.6615  159.7362 H   0  0  0  0  0  0  0  0  0  0  0  0
  151.9471  145.8129  159.5515 H   0  0  0  0  0  0  0  0  0  0  0  0
  1  2  1  0  0  0  0
  1 18  1  0  0  0  0
  1 19  1  0  0  0  0
  1 20  1  0  0  0  0
  2  3  1  0  0  0  0
  2 21  1  0  0  0  0
  2 22  1  0  0  0  0
  3 17  1  0  0  0  0
  3  4  2  0  0  0  0
  4  5  1  0  0  0  0
  4 23  1  0  0  0  0
  5  6  1  0  0  0  0
  6  7  1  0  0  0  0
  6 17  2  0  0  0  0
  7  8  1  0  0  0  0
  8  9  2  0  0  0  0
  8 10  1  0  0  0  0
 10 11  1  0  0  0  0
 10 24  1  0  0  0  0
 11 12  1  0  0  0  0
 11 25  1  0  0  0  0
 11 26  1  0  0  0  0
 12 16  1  0  0  0  0
 12 13  1  0  0  0  0
 12 27  1  0  0  0  0
 13 14  1  0  0  0  0
 13 28  1  0  0  0  0
 13 29  1  0  0  0  0
 14 15  1  0  0  0  0
 14 30  1  0  0  0  0
 14 31  1  0  0  0  0
 15 16  1  0  0  0  0
 15 32  1  0  0  0  0
 15 33  1  0  0  0  0
M  CHG  1   7  -1
M  END
> <s_m_source_file>
AV-unprocessed.smi

> <i_m_source_file_index>
915

> <i_lp_mmshare_version>
43012

> <i_f3d_flags>
0

> <s_epik_input>
W0NIM11bQ0gyXWMxW2NIXXNjKG4xKVtOSF1DKD1PKVtOSF1bQ0gyXVtDQEBIXTJbQ0gyXVtDSDJdW0NIMl1TMg==

> <s_epik_cmdline>
J2VwaWtfcHl0aG9uJywgJy1waCcsICc3LjAnLCAnLXRuJywgJzgnLCAnLW1hJywgJzIwMCcsICctbWV0YWxfYmluZGluZycsICctaW1hZScsICc8aW5maWxlLm1hZT4nLCAnLW9tYWUnLCAnPG91dGZpbGUubWFlPic=

> <r_lp_tautomer_probability>
0.999

> <r_epik_Ionization_Penalty>
8.73043

> <r_epik_Ionization_Penalty_Charging>
6.79141

> <r_epik_Ionization_Penalty_Neutral>
1.93902

> <r_epik_State_Penalty>
6.79158

> <r_epik_Charging_Adjusted_Penalty>
13.583

> <i_epik_Tot_Q>
-1

> <i_epik_Tot_abs_Q>
1

> <r_epik_Metal_State_Penalty>
2.71141

> <b_epik_Metal_Only>
1

> <s_lp_Force_Field>
OPLS_2005

> <r_lp_Energy>
4.53782

> <b_lp_Chiralities_Consistent>
1

> <s_lp_Variant>
AV-unprocessed.smi:915-3

> <Gold.Version>
5.8.1

> <Gold.Id.Protein>
6NUR|6NUR_protein|mol2

> <Gold.PLP.Fitness>
47.0232

> <Gold.PLP.PLP>
-40.0469

> <Gold.PLP.part.hbond>
-1.5852

> <Gold.PLP.part.metal>
0.0000

> <Gold.PLP.part.buried>
-0.2518

> <Gold.PLP.part.nonpolar>
-38.3371

> <Gold.PLP.part.repulsive>
0.5747

> <Gold.PLP.ligand.clash>
0.0000

> <Gold.PLP.ligand.torsion>
1.5010

> <Gold.PLP.Chemscore.Hbond>
2.0000

> <Gold.PLP.Chemscore.CHOScore>
1.2579

> <Gold.PLP.Chemscore.Metal>
0.0000

> <Gold.Chemscore.Hbonds>
donor molecule, donor type, donor heavy atom, donor atom, acceptor molecule, acceptor atom, score
      P1  H  7997  8010       L1     7  1.90
      L1  C     4    23       P1  7948  1.00
      L1  C     4    23       P1  7957  0.32

> <Gold.PLP.Chemscore.Internal.Correction>
0.2047

> <Gold.Rescore>
     Score         DG    S(hbond)    S(metal)    S(lipo)     H(rot)  DE(clash)    DE(int)     intcor
     15.29     -17.35       0.89        0.00     105.17       1.33       0.22       1.84       ----

> <Gold.Chemscore.Fitness>
15.2889

> <Gold.Chemscore.DG>
-17.3519

> <Gold.Chemscore.ZeroCoef>
-5.4800

> <Gold.Chemscore.Hbond>
0.8902

> <Gold.Chemscore.Metal>
0.0000

> <Gold.Chemscore.Lipo>
105.1678

> <Gold.Chemscore.Internal_Hbond>
0.0000

> <Gold.Chemscore.DEClash>
0.2247

> <Gold.Chemscore.DEInternal>
1.8383

> <Gold.Chemscore.Rot>
1.3305

> <Gold.Chemscore.Internal.Correction>
   9.000000E+99

> <Gold.Chemscore.Hbonds>
donor molecule, donor type, donor heavy atom, donor atom, acceptor molecule, acceptor atom, score
      P1  H  7997  8010       L1     7  0.21

> <Gold.Chemscore.Hbond.Weighted>
-2.9733

> <Gold.Chemscore.Metal.Weighted>
-0.0000

> <Gold.Chemscore.Lipo.Weighted>
-12.3046

> <Gold.Chemscore.Internal_Hbond.Weighted>
0.0000

> <Gold.Chemscore.DEClash.Weighted>
0.2247

> <Gold.Chemscore.DEInternal.Weighted>
1.8383

> <Gold.Chemscore.Rot.Weighted>
3.4060

> <Gold.Chemscore.Internal.Correction.Weighted>
   9.000000E+99

> <Gold.Protein.RotatedTorsions>
[ 6907 6896 6895 6894 ] final -115.35 input  -60.11 | X-H torsion
[ 7974 7965 7964 7962 ] final  -68.73 input  175.53 | X-H torsion
[ 8008 7997 7996 7995 ] final   78.06 input   59.86 | X-H torsion
[ 10167 10162 10161 10158 ] final   -9.47 input  -65.29 | X-H torsion
[ 10718 10713 10712 10709 ] final  -95.67 input   66.30 | X-H torsion
[ 10763 10752 10751 10750 ] final   30.56 input  -60.55 | X-H torsion
[ 11005 11000 10999 10996 ] final   14.95 input  -57.11 | X-H torsion

> <Gold.Protein.ActiveResidues>
 VAL166  LYS551  ARG553  GLY616  TRP617  ASP618  TYR619  PRO620  LYS621  CYS622 
 ASP623  PHE694  ASN695  SER759  ASP760  ASP761  ALA762  ILE779  LEU786  VAL792 
 PHE793  MET794  SER795  GLU796  ALA797  LYS798  CYS799  TRP800  GLU811  SER814 

> <Gold.Protein.RotatedAtoms>
  150.7971  133.8670  159.3247 H   0  0  0  0  0  0  0  0  0  0  0  0  # atno 6907 bound_to 6896
  151.6492  135.1002  160.0167 H   0  0  0  0  0  0  0  0  0  0  0  0  # atno 6908 bound_to 6896
  152.4055  133.6842  159.6387 H   0  0  0  0  0  0  0  0  0  0  0  0  # atno 6909 bound_to 6896
  145.7127  140.9071  143.0672 H   0  0  0  0  0  0  0  0  0  0  0  0  # atno 7974 bound_to 7965
  155.8504  140.3458  155.5689 H   0  0  0  0  0  0  0  0  0  0  0  0  # atno 8008 bound_to 7997
  155.8044  140.0890  157.1958 H   0  0  0  0  0  0  0  0  0  0  0  0  # atno 8009 bound_to 7997
  154.4007  140.1459  156.3300 H   0  0  0  0  0  0  0  0  0  0  0  0  # atno 8010 bound_to 7997
  140.7088  143.5854  150.8949 H   0  0  0  0  0  0  0  0  0  0  0  0  # atno 10167 bound_to 10162
  156.0047  130.5119  150.6111 H   0  0  0  0  0  0  0  0  0  0  0  0  # atno 10718 bound_to 10713
  153.0365  135.6461  154.1063 H   0  0  0  0  0  0  0  0  0  0  0  0  # atno 10763 bound_to 10752
  154.0777  135.2875  155.3298 H   0  0  0  0  0  0  0  0  0  0  0  0  # atno 10764 bound_to 10752
  154.6551  135.5412  153.8013 H   0  0  0  0  0  0  0  0  0  0  0  0  # atno 10765 bound_to 10752
  140.4638  134.1100  155.7721 H   0  0  0  0  0  0  0  0  0  0  0  0  # atno 11005 bound_to 11000
  144.6937  139.9096  143.7463 LP  0  0  0  0  0  0  0  0  0  0  0  0  # atno 17320 bound_to 7965
  146.0697  139.3687  143.0530 LP  0  0  0  0  0  0  0  0  0  0  0  0  # atno 17321 bound_to 7965
  139.9580  143.6197  152.3010 LP  0  0  0  0  0  0  0  0  0  0  0  0  # atno 17342 bound_to 10162
  139.6739  144.7659  151.1732 LP  0  0  0  0  0  0  0  0  0  0  0  0  # atno 17343 bound_to 10162
  157.3943  131.0800  151.1366 LP  0  0  0  0  0  0  0  0  0  0  0  0  # atno 17370 bound_to 10713
  157.2047  130.6411  149.5751 LP  0  0  0  0  0  0  0  0  0  0  0  0  # atno 17371 bound_to 10713
  141.1609  133.8795  157.1850 LP  0  0  0  0  0  0  0  0  0  0  0  0  # atno 17394 bound_to 11000
  139.9928  135.0058  157.0015 LP  0  0  0  0  0  0  0  0  0  0  0  0  # atno 17395 bound_to 11000

$$$$
