AV-unprocessed.smi:2483|AV-procd|sdf|9785|dock3
  -GOLD-   2272013423D 1   1.00000     0.00000
 Structure written by MMmdl.
 37 38  0  0  0  0  0  0  0  0  1 V2000
  146.7736  142.1309  156.4664 C   0  0  0  0  0  0  0  0  0  0  0  0
  147.3042  142.1496  155.1090 N   0  0  0  0  0  0  0  0  0  0  0  0
  146.3400  142.4062  154.0481 C   0  0  0  0  0  0  0  0  0  0  0  0
  148.2315  141.1382  154.7860 C   0  0  0  0  0  0  0  0  0  0  0  0
  147.8938  140.2537  153.8162 N   0  0  0  0  0  0  0  0  0  0  0  0
  148.7838  139.3114  153.5023 C   0  0  0  0  0  0  0  0  0  0  0  0
  149.9859  139.1367  154.0508 N   0  0  0  0  0  0  0  0  0  0  0  0
  150.3427  140.0043  155.0205 C   0  0  0  0  0  0  0  0  0  0  0  0
  149.4909  141.0577  155.4367 C   0  0  0  0  0  0  0  0  0  0  0  0
  149.8147  141.9588  156.4896 N   0  0  0  0  0  0  0  0  0  0  0  0
  150.9114  141.9698  157.2643 C   0  0  0  0  0  0  0  0  0  0  0  0
  151.8410  141.1669  157.1877 O   0  0  0  0  0  0  0  0  0  0  0  0
  150.8778  142.9936  158.1319 N   0  0  0  0  0  0  0  0  0  0  0  0
  151.9034  143.3459  159.1236 C   0  0  0  0  0  0  0  0  0  0  0  0
  152.5046  142.0792  159.7348 C   0  0  0  0  0  0  0  0  0  0  0  0
  152.8455  144.4544  158.6003 C   0  0  0  0  0  0  0  0  0  0  0  0
  151.8897  145.5069  159.1668 C   0  0  0  0  0  0  0  0  0  0  0  0
  151.3341  144.4120  160.0812 C   0  0  0  0  0  0  0  0  0  0  0  0
  147.5709  141.9780  157.1946 H   0  0  0  0  0  0  0  0  0  0  0  0
  146.0365  141.3362  156.5857 H   0  0  0  0  0  0  0  0  0  0  0  0
  146.2897  143.0807  156.6948 H   0  0  0  0  0  0  0  0  0  0  0  0
  146.8301  142.6402  153.1034 H   0  0  0  0  0  0  0  0  0  0  0  0
  145.7033  143.2517  154.3099 H   0  0  0  0  0  0  0  0  0  0  0  0
  145.7019  141.5352  153.8949 H   0  0  0  0  0  0  0  0  0  0  0  0
  148.4993  138.6158  152.7268 H   0  0  0  0  0  0  0  0  0  0  0  0
  151.3050  139.8231  155.4738 H   0  0  0  0  0  0  0  0  0  0  0  0
  149.1765  142.7323  156.6068 H   0  0  0  0  0  0  0  0  0  0  0  0
  150.0672  143.5946  158.1042 H   0  0  0  0  0  0  0  0  0  0  0  0
  153.1886  142.3206  160.5487 H   0  0  0  0  0  0  0  0  0  0  0  0
  153.0712  141.5036  159.0029 H   0  0  0  0  0  0  0  0  0  0  0  0
  151.7318  141.4274  160.1435 H   0  0  0  0  0  0  0  0  0  0  0  0
  153.8099  144.4569  159.1110 H   0  0  0  0  0  0  0  0  0  0  0  0
  152.9787  144.5027  157.5191 H   0  0  0  0  0  0  0  0  0  0  0  0
  152.3759  146.3333  159.6859 H   0  0  0  0  0  0  0  0  0  0  0  0
  151.1623  145.8579  158.4333 H   0  0  0  0  0  0  0  0  0  0  0  0
  150.2484  144.4154  160.1872 H   0  0  0  0  0  0  0  0  0  0  0  0
  151.8222  144.4047  161.0572 H   0  0  0  0  0  0  0  0  0  0  0  0
  1  2  1  0  0  0  0
  1 19  1  0  0  0  0
  1 20  1  0  0  0  0
  1 21  1  0  0  0  0
  2  3  1  0  0  0  0
  2  4  1  0  0  0  0
  3 22  1  0  0  0  0
  3 23  1  0  0  0  0
  3 24  1  0  0  0  0
  4  9  1  0  0  0  0
  4  5  2  0  0  0  0
  5  6  1  0  0  0  0
  6  7  2  0  0  0  0
  6 25  1  0  0  0  0
  7  8  1  0  0  0  0
  8  9  2  0  0  0  0
  8 26  1  0  0  0  0
  9 10  1  0  0  0  0
 10 11  1  0  0  0  0
 10 27  1  0  0  0  0
 11 12  2  0  0  0  0
 11 13  1  0  0  0  0
 13 14  1  0  0  0  0
 13 28  1  0  0  0  0
 14 18  1  0  0  0  0
 14 15  1  0  0  0  0
 14 16  1  0  0  0  0
 15 29  1  0  0  0  0
 15 30  1  0  0  0  0
 15 31  1  0  0  0  0
 16 17  1  0  0  0  0
 16 32  1  0  0  0  0
 16 33  1  0  0  0  0
 17 18  1  0  0  0  0
 17 34  1  0  0  0  0
 17 35  1  0  0  0  0
 18 36  1  0  0  0  0
 18 37  1  0  0  0  0
M  END
> <s_m_source_file>
AV-unprocessed.smi

> <i_m_source_file_index>
2483

> <i_lp_mmshare_version>
43012

> <i_f3d_flags>
0

> <s_epik_input>
W0NIM11OKFtDSDNdKWMxbltjSF1uW2NIXWMxW05IXUMoPU8pW05IXUMyKFtDSDNdKVtDSDJdW0NIMl1bQ0gyXTI=

> <s_epik_cmdline>
J2VwaWtfcHl0aG9uJywgJy1waCcsICc3LjAnLCAnLXRuJywgJzgnLCAnLW1hJywgJzIwMCcsICctbWV0YWxfYmluZGluZycsICctaW1hZScsICc8aW5maWxlLm1hZT4nLCAnLW9tYWUnLCAnPG91dGZpbGUubWFlPic=

> <r_lp_tautomer_probability>
1

> <r_epik_Ionization_Penalty>
0.0189547

> <r_epik_Ionization_Penalty_Charging>
0

> <r_epik_Ionization_Penalty_Neutral>
0.0189547

> <r_epik_State_Penalty>
0.0144869

> <r_epik_Charging_Adjusted_Penalty>
0.0144869

> <i_epik_Tot_Q>
0

> <i_epik_Tot_abs_Q>
0

> <r_epik_Metal_State_Penalty>
0.0140538

> <b_epik_Metal_Only>
0

> <s_lp_Force_Field>
OPLS_2005

> <r_lp_Energy>
16.2772

> <b_lp_Chiralities_Consistent>
1

> <s_lp_Variant>
AV-unprocessed.smi:2483-1

> <Gold.Version>
5.8.1

> <Gold.Id.Protein>
6NUR|6NUR_protein|mol2

> <Gold.PLP.Fitness>
37.9033

> <Gold.PLP.PLP>
-33.6741

> <Gold.PLP.part.hbond>
-1.0000

> <Gold.PLP.part.metal>
0.0000

> <Gold.PLP.part.buried>
-0.4196

> <Gold.PLP.part.nonpolar>
-33.3529

> <Gold.PLP.part.repulsive>
1.7923

> <Gold.PLP.ligand.clash>
0.0000

> <Gold.PLP.ligand.torsion>
0.6994

> <Gold.PLP.Chemscore.Hbond>
0.5070

> <Gold.PLP.Chemscore.CHOScore>
1.1611

> <Gold.PLP.Chemscore.Metal>
0.0000

> <Gold.Chemscore.Hbonds>
donor molecule, donor type, donor heavy atom, donor atom, acceptor molecule, acceptor atom, score
      L1  H    10    27       P1  8028  0.39
      L1  C     6    25       P1  7948  0.96
      L1  C     6    25       P1  7957  0.18

> <Gold.PLP.Chemscore.Internal.Correction>
0.6237

> <Gold.Rescore>
     Score         DG    S(hbond)    S(metal)    S(lipo)     H(rot)  DE(clash)    DE(int)     intcor
      9.57     -13.24       0.48        0.00      80.16       1.26       0.26       3.41       ----

> <Gold.Chemscore.Fitness>
9.5669

> <Gold.Chemscore.DG>
-13.2403

> <Gold.Chemscore.ZeroCoef>
-5.4800

> <Gold.Chemscore.Hbond>
0.4785

> <Gold.Chemscore.Metal>
0.0000

> <Gold.Chemscore.Lipo>
80.1576

> <Gold.Chemscore.Internal_Hbond>
0.0000

> <Gold.Chemscore.DEClash>
0.2620

> <Gold.Chemscore.DEInternal>
3.4114

> <Gold.Chemscore.Rot>
1.2564

> <Gold.Chemscore.Internal.Correction>
   9.000000E+99

> <Gold.Chemscore.Hbonds>
donor molecule, donor type, donor heavy atom, donor atom, acceptor molecule, acceptor atom, score
      L1  H    10    27       P1  8028  0.37

> <Gold.Chemscore.Hbond.Weighted>
-1.5983

> <Gold.Chemscore.Metal.Weighted>
-0.0000

> <Gold.Chemscore.Lipo.Weighted>
-9.3784

> <Gold.Chemscore.Internal_Hbond.Weighted>
0.0000

> <Gold.Chemscore.DEClash.Weighted>
0.2620

> <Gold.Chemscore.DEInternal.Weighted>
3.4114

> <Gold.Chemscore.Rot.Weighted>
3.2165

> <Gold.Chemscore.Internal.Correction.Weighted>
   9.000000E+99

> <Gold.Protein.RotatedTorsions>
[ 6907 6896 6895 6894 ] final  103.80 input  -60.11 | X-H torsion
[ 7974 7965 7964 7962 ] final  101.91 input  175.53 | X-H torsion
[ 8008 7997 7996 7995 ] final  145.69 input   59.86 | X-H torsion
[ 10167 10162 10161 10158 ] final   90.89 input  -65.29 | X-H torsion
[ 10718 10713 10712 10709 ] final  -55.46 input   66.30 | X-H torsion
[ 10763 10752 10751 10750 ] final  -33.98 input  -60.55 | X-H torsion
[ 11005 11000 10999 10996 ] final -133.44 input  -57.11 | X-H torsion

> <Gold.Protein.ActiveResidues>
 VAL166  LYS551  ARG553  GLY616  TRP617  ASP618  TYR619  PRO620  LYS621  CYS622 
 ASP623  PHE694  ASN695  SER759  ASP760  ASP761  ALA762  ILE779  LEU786  VAL792 
 PHE793  MET794  SER795  GLU796  ALA797  LYS798  CYS799  TRP800  GLU811  SER814 

> <Gold.Protein.RotatedAtoms>
  152.5284  133.9771  159.7788 H   0  0  0  0  0  0  0  0  0  0  0  0  # atno 6907 bound_to 6896
  151.0032  133.6028  159.2699 H   0  0  0  0  0  0  0  0  0  0  0  0  # atno 6908 bound_to 6896
  151.3129  135.0805  159.9332 H   0  0  0  0  0  0  0  0  0  0  0  0  # atno 6909 bound_to 6896
  145.3661  139.2407  143.3480 H   0  0  0  0  0  0  0  0  0  0  0  0  # atno 7974 bound_to 7965
  156.2876  140.2202  156.5256 H   0  0  0  0  0  0  0  0  0  0  0  0  # atno 8008 bound_to 7997
  154.7492  140.0481  157.0900 H   0  0  0  0  0  0  0  0  0  0  0  0  # atno 8009 bound_to 7997
  155.0132  140.3115  155.4825 H   0  0  0  0  0  0  0  0  0  0  0  0  # atno 8010 bound_to 7997
  139.8429  144.6632  150.9262 H   0  0  0  0  0  0  0  0  0  0  0  0  # atno 10167 bound_to 10162
  156.1367  130.4156  150.0174 H   0  0  0  0  0  0  0  0  0  0  0  0  # atno 10718 bound_to 10713
  153.8392  135.6859  153.4805 H   0  0  0  0  0  0  0  0  0  0  0  0  # atno 10763 bound_to 10752
  153.1464  135.4636  154.9570 H   0  0  0  0  0  0  0  0  0  0  0  0  # atno 10764 bound_to 10752
  154.7852  135.3282  154.7847 H   0  0  0  0  0  0  0  0  0  0  0  0  # atno 10765 bound_to 10752
  140.9080  134.1604  157.4410 H   0  0  0  0  0  0  0  0  0  0  0  0  # atno 11005 bound_to 11000
  146.2906  140.4304  142.8741 LP  0  0  0  0  0  0  0  0  0  0  0  0  # atno 17320 bound_to 7965
  144.8610  140.7140  143.6107 LP  0  0  0  0  0  0  0  0  0  0  0  0  # atno 17321 bound_to 7965
  140.7796  143.3897  151.1332 LP  0  0  0  0  0  0  0  0  0  0  0  0  # atno 17342 bound_to 10162
  139.7541  143.8733  152.3084 LP  0  0  0  0  0  0  0  0  0  0  0  0  # atno 17343 bound_to 10162
  156.8071  130.9311  151.3645 LP  0  0  0  0  0  0  0  0  0  0  0  0  # atno 17370 bound_to 10713
  157.6538  130.8907  149.9688 LP  0  0  0  0  0  0  0  0  0  0  0  0  # atno 17371 bound_to 10713
  139.8753  134.9925  156.5598 LP  0  0  0  0  0  0  0  0  0  0  0  0  # atno 17394 bound_to 11000
  140.8146  133.8402  155.8840 LP  0  0  0  0  0  0  0  0  0  0  0  0  # atno 17395 bound_to 11000

$$$$
