AV-unprocessed.smi:223|AV-procd|sdf|1705|dock7
  -GOLD-   2262020163D 1   1.00000     0.00000
 Structure written by MMmdl.
 47 50  0  0  0  0  0  0  0  0  1 V2000
  149.3183  138.5803  154.8791 C   0  0  0  0  0  0  0  0  0  0  0  0
  150.4744  138.0499  155.7346 C   0  0  2  0  0  0  0  0  0  0  0  0
  151.6678  138.8980  155.5842 C   0  0  0  0  0  0  0  0  0  0  0  0
  152.6055  139.5654  155.4663 N   0  0  0  0  0  0  0  0  0  0  0  0
  150.7890  136.5804  155.3962 C   0  0  0  0  0  0  0  0  0  0  0  0
  149.8672  135.6418  156.0351 N   0  0  0  0  0  0  0  0  0  0  0  0
  149.4726  134.5099  155.3782 C   0  0  0  0  0  0  0  0  0  0  0  0
  150.3238  133.4492  155.3978 N   0  0  0  0  0  0  0  0  0  0  0  0
  150.0144  132.3021  154.7903 C   0  0  0  0  0  0  0  0  0  0  0  0
  148.9134  131.9939  154.1080 N   0  0  0  0  0  0  0  0  0  0  0  0
  148.0456  133.0439  154.0743 C   0  0  0  0  0  0  0  0  0  0  0  0
  148.2416  134.3270  154.6683 C   0  0  0  0  0  0  0  0  0  0  0  0
  147.1366  135.1272  154.3884 N   0  0  0  0  0  0  0  0  0  0  0  0
  146.3398  134.3656  153.6925 C   0  0  0  0  0  0  0  0  0  0  0  0
  146.8027  133.0914  153.4666 N   0  0  0  0  0  0  0  0  0  0  0  0
  146.1261  132.0355  152.7277 C   0  0  0  0  0  0  0  0  0  0  0  0
  145.7862  132.4182  151.2673 C   0  0  2  0  0  0  0  0  0  0  0  0
  146.9655  132.8571  150.6160 O   0  0  0  0  0  0  0  0  0  0  0  0
  144.7464  133.5273  151.1720 C   0  0  0  0  0  0  0  0  0  0  0  0
  144.0756  133.2438  149.8349 C   0  0  0  0  0  0  0  0  0  0  0  0
  143.9936  131.8286  149.8139 O   0  0  0  0  0  0  0  0  0  0  0  0
  145.1595  131.2857  150.4276 C   0  0  0  0  0  0  0  0  0  0  0  0
  149.9363  135.5548  157.4941 C   0  0  0  0  0  0  0  0  0  0  0  0
  148.6727  135.2994  158.2927 C   0  0  0  0  0  0  0  0  0  0  0  0
  149.3178  136.6591  158.3267 C   0  0  0  0  0  0  0  0  0  0  0  0
  149.0824  139.6127  155.1380 H   0  0  0  0  0  0  0  0  0  0  0  0
  148.4161  137.9869  155.0289 H   0  0  0  0  0  0  0  0  0  0  0  0
  149.5671  138.5510  153.8178 H   0  0  0  0  0  0  0  0  0  0  0  0
  150.1839  138.1377  156.7806 H   0  0  0  0  0  0  0  0  0  0  0  0
  150.7977  136.4148  154.3199 H   0  0  0  0  0  0  0  0  0  0  0  0
  151.8072  136.3623  155.7192 H   0  0  0  0  0  0  0  0  0  0  0  0
  150.7541  131.5186  154.8637 H   0  0  0  0  0  0  0  0  0  0  0  0
  145.3867  134.7165  153.3244 H   0  0  0  0  0  0  0  0  0  0  0  0
  146.7640  131.1509  152.7435 H   0  0  0  0  0  0  0  0  0  0  0  0
  145.2177  131.7655  153.2682 H   0  0  0  0  0  0  0  0  0  0  0  0
  147.6053  132.1628  150.6537 H   0  0  0  0  0  0  0  0  0  0  0  0
  144.0080  133.4248  151.9686 H   0  0  0  0  0  0  0  0  0  0  0  0
  145.1672  134.5316  151.2372 H   0  0  0  0  0  0  0  0  0  0  0  0
  143.0921  133.7058  149.7482 H   0  0  0  0  0  0  0  0  0  0  0  0
  144.6943  133.5882  149.0048 H   0  0  0  0  0  0  0  0  0  0  0  0
  145.8444  130.9032  149.6690 H   0  0  0  0  0  0  0  0  0  0  0  0
  144.8484  130.4409  151.0412 H   0  0  0  0  0  0  0  0  0  0  0  0
  150.8479  135.1136  157.8931 H   0  0  0  0  0  0  0  0  0  0  0  0
  147.7323  135.2110  157.7520 H   0  0  0  0  0  0  0  0  0  0  0  0
  148.7592  134.6770  159.1808 H   0  0  0  0  0  0  0  0  0  0  0  0
  149.8349  136.9476  159.2394 H   0  0  0  0  0  0  0  0  0  0  0  0
  148.8001  137.4653  157.8102 H   0  0  0  0  0  0  0  0  0  0  0  0
  1  2  1  0  0  0  0
  1 26  1  0  0  0  0
  1 27  1  0  0  0  0
  1 28  1  0  0  0  0
  2  3  1  0  0  0  0
  2  5  1  0  0  0  0
  2 29  1  0  0  0  0
  3  4  3  0  0  0  0
  5  6  1  0  0  0  0
  5 30  1  0  0  0  0
  5 31  1  0  0  0  0
  6  7  1  0  0  0  0
  6 23  1  0  0  0  0
  7 12  1  0  0  0  0
  7  8  2  0  0  0  0
  8  9  1  0  0  0  0
  9 10  2  0  0  0  0
  9 32  1  0  0  0  0
 10 11  1  0  0  0  0
 11 15  1  0  0  0  0
 11 12  2  0  0  0  0
 12 13  1  0  0  0  0
 13 14  2  0  0  0  0
 14 15  1  0  0  0  0
 14 33  1  0  0  0  0
 15 16  1  0  0  0  0
 16 17  1  0  0  0  0
 16 34  1  0  0  0  0
 16 35  1  0  0  0  0
 17 22  1  0  0  0  0
 17 18  1  0  0  0  0
 17 19  1  0  0  0  0
 18 36  1  0  0  0  0
 19 20  1  0  0  0  0
 19 37  1  0  0  0  0
 19 38  1  0  0  0  0
 20 21  1  0  0  0  0
 20 39  1  0  0  0  0
 20 40  1  0  0  0  0
 21 22  1  0  0  0  0
 22 41  1  0  0  0  0
 22 42  1  0  0  0  0
 23 25  1  0  0  0  0
 23 24  1  0  0  0  0
 23 43  1  0  0  0  0
 24 25  1  0  0  0  0
 24 44  1  0  0  0  0
 24 45  1  0  0  0  0
 25 46  1  0  0  0  0
 25 47  1  0  0  0  0
M  END
> <s_m_source_file>
AV-unprocessed.smi

> <i_m_source_file_index>
223

> <i_lp_mmshare_version>
43012

> <i_f3d_flags>
0

> <s_epik_input>
TiNDW0NAQEhdKFtDSDNdKVtDSDJdTihbQ0hdMVtDSDJdW0NIMl0xKWMobltjSF1uMiljKGMyMyluW2NIXW4zW0NIMl1bQ0BAXTQoW09IXSlbQ0gyXVtDSDJdT1tDSDJdNA==

> <s_epik_cmdline>
J2VwaWtfcHl0aG9uJywgJy1waCcsICc3LjAnLCAnLXRuJywgJzgnLCAnLW1hJywgJzIwMCcsICctbWV0YWxfYmluZGluZycsICctaW1hZScsICc8aW5maWxlLm1hZT4nLCAnLW9tYWUnLCAnPG91dGZpbGUubWFlPic=

> <r_lp_tautomer_probability>
1

> <r_epik_Ionization_Penalty>
0.000756152

> <r_epik_Ionization_Penalty_Charging>
0

> <r_epik_Ionization_Penalty_Neutral>
0.000756152

> <r_epik_State_Penalty>
0.00038036

> <r_epik_Charging_Adjusted_Penalty>
0.00038036

> <i_epik_Tot_Q>
0

> <i_epik_Tot_abs_Q>
0

> <r_epik_Metal_State_Penalty>
-0

> <b_epik_Metal_Only>
0

> <s_lp_Force_Field>
OPLS_2005

> <r_lp_Energy>
38.8251

> <b_lp_Chiralities_Consistent>
1

> <s_lp_Variant>
AV-unprocessed.smi:223-3

> <Gold.Version>
5.8.1

> <Gold.Id.Protein>
6NUR|6NUR_protein|mol2

> <Gold.PLP.Fitness>
43.2379

> <Gold.PLP.PLP>
-38.1615

> <Gold.PLP.part.hbond>
-4.0000

> <Gold.PLP.part.metal>
0.0000

> <Gold.PLP.part.buried>
-7.6670

> <Gold.PLP.part.nonpolar>
-28.3976

> <Gold.PLP.part.repulsive>
1.6333

> <Gold.PLP.ligand.clash>
0.0000

> <Gold.PLP.ligand.torsion>
2.1870

> <Gold.PLP.Chemscore.Hbond>
2.6932

> <Gold.PLP.Chemscore.CHOScore>
0.0000

> <Gold.PLP.Chemscore.Metal>
0.0000

> <Gold.Chemscore.Hbonds>
donor molecule, donor type, donor heavy atom, donor atom, acceptor molecule, acceptor atom, score
      L1  H    18    36       P1 10747  1.00
      P1  H  7997  8010       L1     4  1.00
      P1  H 10785 10796       L1    21  0.55

> <Gold.PLP.Chemscore.Internal.Correction>
1.3709

> <Gold.Rescore>
     Score         DG    S(hbond)    S(metal)    S(lipo)     H(rot)  DE(clash)    DE(int)     intcor
     12.42     -15.00       2.50        0.00      69.48       2.72       0.02       2.57       ----

> <Gold.Chemscore.Fitness>
12.4151

> <Gold.Chemscore.DG>
-15.0040

> <Gold.Chemscore.ZeroCoef>
-5.4800

> <Gold.Chemscore.Hbond>
2.5000

> <Gold.Chemscore.Metal>
0.0000

> <Gold.Chemscore.Lipo>
69.4842

> <Gold.Chemscore.Internal_Hbond>
0.0000

> <Gold.Chemscore.DEClash>
0.0199

> <Gold.Chemscore.DEInternal>
2.5689

> <Gold.Chemscore.Rot>
2.7171

> <Gold.Chemscore.Internal.Correction>
   9.000000E+99

> <Gold.Chemscore.Hbonds>
donor molecule, donor type, donor heavy atom, donor atom, acceptor molecule, acceptor atom, score
      L1  H    18    36       P1 10747  0.99
      P1  H  7997  8010       L1     4  0.98
      P1  H 10785 10796       L1    21  0.19

> <Gold.Chemscore.Hbond.Weighted>
-8.3501

> <Gold.Chemscore.Metal.Weighted>
-0.0000

> <Gold.Chemscore.Lipo.Weighted>
-8.1297

> <Gold.Chemscore.Internal_Hbond.Weighted>
0.0000

> <Gold.Chemscore.DEClash.Weighted>
0.0199

> <Gold.Chemscore.DEInternal.Weighted>
2.5689

> <Gold.Chemscore.Rot.Weighted>
6.9558

> <Gold.Chemscore.Internal.Correction.Weighted>
   9.000000E+99

> <Gold.Protein.RotatedTorsions>
[ 6907 6896 6895 6894 ] final   94.46 input  -60.11 | X-H torsion
[ 7974 7965 7964 7962 ] final   27.72 input  175.53 | X-H torsion
[ 8008 7997 7996 7995 ] final   88.54 input   59.86 | X-H torsion
[ 10167 10162 10161 10158 ] final    7.34 input  -65.29 | X-H torsion
[ 10718 10713 10712 10709 ] final   76.87 input   66.30 | X-H torsion
[ 10763 10752 10751 10750 ] final  154.00 input  -60.55 | X-H torsion
[ 11005 11000 10999 10996 ] final -164.29 input  -57.11 | X-H torsion

> <Gold.Protein.ActiveResidues>
 VAL166  LYS551  ARG553  GLY616  TRP617  ASP618  TYR619  PRO620  LYS621  CYS622 
 ASP623  PHE694  ASN695  SER759  ASP760  ASP761  ALA762  ILE779  LEU786  VAL792 
 PHE793  MET794  SER795  GLU796  ALA797  LYS798  CYS799  TRP800  GLU811  SER814 

> <Gold.Protein.RotatedAtoms>
  152.5449  134.1189  159.8390 H   0  0  0  0  0  0  0  0  0  0  0  0  # atno 6907 bound_to 6896
  151.1247  133.5071  159.2608 H   0  0  0  0  0  0  0  0  0  0  0  0  # atno 6908 bound_to 6896
  151.1740  135.0340  159.8818 H   0  0  0  0  0  0  0  0  0  0  0  0  # atno 6909 bound_to 6896
  146.1769  139.7153  142.8928 H   0  0  0  0  0  0  0  0  0  0  0  0  # atno 7974 bound_to 7965
  155.9889  140.3370  155.6734 H   0  0  0  0  0  0  0  0  0  0  0  0  # atno 8008 bound_to 7997
  155.6447  140.0699  157.2625 H   0  0  0  0  0  0  0  0  0  0  0  0  # atno 8009 bound_to 7997
  154.4213  140.1736  156.1598 H   0  0  0  0  0  0  0  0  0  0  0  0  # atno 8010 bound_to 7997
  140.6377  143.7848  150.7383 H   0  0  0  0  0  0  0  0  0  0  0  0  # atno 10167 bound_to 10162
  157.6689  130.9795  150.1559 H   0  0  0  0  0  0  0  0  0  0  0  0  # atno 10718 bound_to 10713
  154.1453  135.2818  155.3150 H   0  0  0  0  0  0  0  0  0  0  0  0  # atno 10763 bound_to 10752
  154.6257  135.5452  153.7627 H   0  0  0  0  0  0  0  0  0  0  0  0  # atno 10764 bound_to 10752
  153.0238  135.6450  154.1599 H   0  0  0  0  0  0  0  0  0  0  0  0  # atno 10765 bound_to 10752
  140.5886  134.5068  157.5189 H   0  0  0  0  0  0  0  0  0  0  0  0  # atno 11005 bound_to 11000
  145.4187  141.0404  143.2976 LP  0  0  0  0  0  0  0  0  0  0  0  0  # atno 17320 bound_to 7965
  144.8250  139.5725  143.6969 LP  0  0  0  0  0  0  0  0  0  0  0  0  # atno 17321 bound_to 7965
  140.1473  143.4389  152.2155 LP  0  0  0  0  0  0  0  0  0  0  0  0  # atno 17342 bound_to 10162
  139.5587  144.7390  151.4219 LP  0  0  0  0  0  0  0  0  0  0  0  0  # atno 17343 bound_to 10162
  156.2347  130.3685  149.8405 LP  0  0  0  0  0  0  0  0  0  0  0  0  # atno 17370 bound_to 10713
  156.6222  130.8631  151.3478 LP  0  0  0  0  0  0  0  0  0  0  0  0  # atno 17371 bound_to 10713
  139.9284  134.8010  156.1000 LP  0  0  0  0  0  0  0  0  0  0  0  0  # atno 17394 bound_to 11000
  141.0950  133.6699  156.2624 LP  0  0  0  0  0  0  0  0  0  0  0  0  # atno 17395 bound_to 11000

$$$$
