AV-unprocessed.smi:633|AV-procd|sdf|3130|dock5
  -GOLD-   22720 0 53D 1   1.00000     0.00000
 Structure written by MMmdl.
 53 56  0  0  0  0  0  0  0  0  1 V2000
  151.9980  144.9553  158.5735 C   0  0  0  0  0  0  0  0  0  0  0  0
  152.4609  143.4966  158.6507 C   0  0  2  0  0  0  0  0  0  0  0  0
  151.5207  142.5549  157.8773 C   0  0  0  0  0  0  0  0  0  0  0  0
  151.9175  141.1641  158.0767 N   0  0  0  0  0  0  0  0  0  0  0  0
  151.3634  140.1867  157.2228 C   0  0  0  0  0  0  0  0  0  0  0  0
  151.7912  140.0967  155.8775 C   0  0  0  0  0  0  0  0  0  0  0  0
  151.2310  139.1132  155.0399 C   0  0  0  0  0  0  0  0  0  0  0  0
  150.2469  138.2447  155.5667 C   0  0  0  0  0  0  0  0  0  0  0  0
  149.6247  137.1979  154.8339 N   0  0  0  0  0  0  0  0  0  0  0  0
  148.6868  136.3285  155.2469 C   0  0  0  0  0  0  0  0  0  0  0  0
  148.2275  136.2687  156.3870 O   0  0  0  0  0  0  0  0  0  0  0  0
  148.3212  135.5064  154.2511 N   0  0  0  0  0  0  0  0  0  0  0  0
  147.3365  134.4283  154.3235 C   0  0  0  0  0  0  0  0  0  0  0  0
  147.9120  133.0490  154.0362 C   0  0  0  0  0  0  0  0  0  0  0  0
  149.3590  132.7281  154.3253 C   0  0  0  0  0  0  0  0  0  0  0  0
  148.8758  132.8269  152.8956 C   0  0  0  0  0  0  0  0  0  0  0  0
  146.0878  134.6807  153.4913 C   0  0  0  0  0  0  0  0  0  0  0  0
  145.2076  133.5405  153.0392 C   0  0  0  0  0  0  0  0  0  0  0  0
  146.0326  134.3063  152.0292 C   0  0  0  0  0  0  0  0  0  0  0  0
  149.8915  138.4063  156.9205 C   0  0  0  0  0  0  0  0  0  0  0  0
  150.4237  139.3493  157.7256 N   0  0  0  0  0  0  0  0  0  0  0  0
  152.0074  140.7882  159.4846 C   0  0  0  0  0  0  0  0  0  0  0  0
  152.9077  141.7678  160.2633 C   0  0  1  0  0  0  0  0  0  0  0  0
  154.4094  141.5625  159.9959 C   0  0  0  0  0  0  0  0  0  0  0  0
  152.4950  143.1157  160.0256 O   0  0  0  0  0  0  0  0  0  0  0  0
  151.9679  145.3034  157.5408 H   0  0  0  0  0  0  0  0  0  0  0  0
  152.6751  145.6083  159.1245 H   0  0  0  0  0  0  0  0  0  0  0  0
  151.0005  145.0759  158.9971 H   0  0  0  0  0  0  0  0  0  0  0  0
  153.4643  143.4392  158.2285 H   0  0  0  0  0  0  0  0  0  0  0  0
  150.4917  142.6865  158.2155 H   0  0  0  0  0  0  0  0  0  0  0  0
  151.5502  142.8065  156.8163 H   0  0  0  0  0  0  0  0  0  0  0  0
  152.5325  140.7732  155.4784 H   0  0  0  0  0  0  0  0  0  0  0  0
  151.5764  139.0395  154.0207 H   0  0  0  0  0  0  0  0  0  0  0  0
  149.9673  137.0672  153.8933 H   0  0  0  0  0  0  0  0  0  0  0  0
  148.7654  135.6389  153.3544 H   0  0  0  0  0  0  0  0  0  0  0  0
  147.0199  134.4230  155.3673 H   0  0  0  0  0  0  0  0  0  0  0  0
  147.2129  132.2362  154.2248 H   0  0  0  0  0  0  0  0  0  0  0  0
  149.9968  133.5294  154.6928 H   0  0  0  0  0  0  0  0  0  0  0  0
  149.5847  131.7371  154.7139 H   0  0  0  0  0  0  0  0  0  0  0  0
  148.7793  131.9019  152.3310 H   0  0  0  0  0  0  0  0  0  0  0  0
  149.1886  133.6951  152.3187 H   0  0  0  0  0  0  0  0  0  0  0  0
  145.5675  135.6004  153.7524 H   0  0  0  0  0  0  0  0  0  0  0  0
  145.5240  132.5282  153.2830 H   0  0  0  0  0  0  0  0  0  0  0  0
  144.1322  133.7059  153.0408 H   0  0  0  0  0  0  0  0  0  0  0  0
  145.5068  134.9817  151.3576 H   0  0  0  0  0  0  0  0  0  0  0  0
  146.8929  133.7980  151.5990 H   0  0  0  0  0  0  0  0  0  0  0  0
  149.1529  137.7617  157.3741 H   0  0  0  0  0  0  0  0  0  0  0  0
  151.0009  140.8058  159.9047 H   0  0  0  0  0  0  0  0  0  0  0  0
  152.3800  139.7727  159.6140 H   0  0  0  0  0  0  0  0  0  0  0  0
  152.7506  141.5865  161.3270 H   0  0  0  0  0  0  0  0  0  0  0  0
  154.7249  140.5687  160.3141 H   0  0  0  0  0  0  0  0  0  0  0  0
  155.0060  142.2896  160.5471 H   0  0  0  0  0  0  0  0  0  0  0  0
  154.6583  141.6560  158.9392 H   0  0  0  0  0  0  0  0  0  0  0  0
  1  2  1  0  0  0  0
  1 26  1  0  0  0  0
  1 27  1  0  0  0  0
  1 28  1  0  0  0  0
  2 25  1  0  0  0  0
  2  3  1  0  0  0  0
  2 29  1  0  0  0  0
  3  4  1  0  0  0  0
  3 30  1  0  0  0  0
  3 31  1  0  0  0  0
  4  5  1  0  0  0  0
  4 22  1  0  0  0  0
  5 21  1  0  0  0  0
  5  6  2  0  0  0  0
  6  7  1  0  0  0  0
  6 32  1  0  0  0  0
  7  8  2  0  0  0  0
  7 33  1  0  0  0  0
  8  9  1  0  0  0  0
  8 20  1  0  0  0  0
  9 10  1  0  0  0  0
  9 34  1  0  0  0  0
 10 11  2  0  0  0  0
 10 12  1  0  0  0  0
 12 13  1  0  0  0  0
 12 35  1  0  0  0  0
 13 14  1  0  0  0  0
 13 17  1  0  0  0  0
 13 36  1  0  0  0  0
 14 16  1  0  0  0  0
 14 15  1  0  0  0  0
 14 37  1  0  0  0  0
 15 16  1  0  0  0  0
 15 38  1  0  0  0  0
 15 39  1  0  0  0  0
 16 40  1  0  0  0  0
 16 41  1  0  0  0  0
 17 19  1  0  0  0  0
 17 18  1  0  0  0  0
 17 42  1  0  0  0  0
 18 19  1  0  0  0  0
 18 43  1  0  0  0  0
 18 44  1  0  0  0  0
 19 45  1  0  0  0  0
 19 46  1  0  0  0  0
 20 21  2  0  0  0  0
 20 47  1  0  0  0  0
 22 23  1  0  0  0  0
 22 48  1  0  0  0  0
 22 49  1  0  0  0  0
 23 24  1  0  0  0  0
 23 25  1  0  0  0  0
 23 50  1  0  0  0  0
 24 51  1  0  0  0  0
 24 52  1  0  0  0  0
 24 53  1  0  0  0  0
M  END
> <s_m_source_file>
AV-unprocessed.smi

> <i_m_source_file_index>
633

> <i_lp_mmshare_version>
43012

> <i_f3d_flags>
0

> <s_epik_input>
W0NIM11bQ0BASF0xW0NIMl1OKFtDSDJdW0NASF0oTzEpW0NIM10pYzJbY0hdW2NIXWMoW2NIXW4yKVtOSF1DKD1PKVtOSF1bQ0hdKFtDSF0zW0NIMl1bQ0gyXTMpW0NIXTRbQ0gyXVtDSDJdNA==

> <s_epik_cmdline>
J2VwaWtfcHl0aG9uJywgJy1waCcsICc3LjAnLCAnLXRuJywgJzgnLCAnLW1hJywgJzIwMCcsICctbWV0YWxfYmluZGluZycsICctaW1hZScsICc8aW5maWxlLm1hZT4nLCAnLW9tYWUnLCAnPG91dGZpbGUubWFlPic=

> <r_lp_tautomer_probability>
1

> <r_epik_Ionization_Penalty>
0.00291159

> <r_epik_Ionization_Penalty_Charging>
0

> <r_epik_Ionization_Penalty_Neutral>
0.00291159

> <r_epik_State_Penalty>
0.00200877

> <r_epik_Charging_Adjusted_Penalty>
0.00200877

> <i_epik_Tot_Q>
0

> <i_epik_Tot_abs_Q>
0

> <r_epik_Metal_State_Penalty>
-0

> <b_epik_Metal_Only>
0

> <s_lp_Force_Field>
OPLS_2005

> <r_lp_Energy>
43.7528

> <b_lp_Chiralities_Consistent>
1

> <s_lp_Variant>
AV-unprocessed.smi:633-1

> <Gold.Version>
5.8.1

> <Gold.Id.Protein>
6NUR|6NUR_protein|mol2

> <Gold.PLP.Fitness>
45.6845

> <Gold.PLP.PLP>
-43.0254

> <Gold.PLP.part.hbond>
-1.5229

> <Gold.PLP.part.metal>
0.0000

> <Gold.PLP.part.buried>
-6.8059

> <Gold.PLP.part.nonpolar>
-36.1519

> <Gold.PLP.part.repulsive>
0.0291

> <Gold.PLP.ligand.clash>
0.0000

> <Gold.PLP.ligand.torsion>
1.6177

> <Gold.PLP.Chemscore.Hbond>
1.1254

> <Gold.PLP.Chemscore.CHOScore>
0.0000

> <Gold.PLP.Chemscore.Metal>
0.0000

> <Gold.Chemscore.Hbonds>
donor molecule, donor type, donor heavy atom, donor atom, acceptor molecule, acceptor atom, score
      L1  H     9    34       P1  7948  0.08
      L1  H    12    35       P1  7948  1.00

> <Gold.PLP.Chemscore.Internal.Correction>
2.5182

> <Gold.Rescore>
     Score         DG    S(hbond)    S(metal)    S(lipo)     H(rot)  DE(clash)    DE(int)     intcor
     17.54     -20.70       1.84        0.00     108.13       1.40       0.06       3.10       ----

> <Gold.Chemscore.Fitness>
17.5361

> <Gold.Chemscore.DG>
-20.6956

> <Gold.Chemscore.ZeroCoef>
-5.4800

> <Gold.Chemscore.Hbond>
1.8426

> <Gold.Chemscore.Metal>
0.0000

> <Gold.Chemscore.Lipo>
108.1273

> <Gold.Chemscore.Internal_Hbond>
0.0000

> <Gold.Chemscore.DEClash>
0.0605

> <Gold.Chemscore.DEInternal>
3.0989

> <Gold.Chemscore.Rot>
1.4022

> <Gold.Chemscore.Internal.Correction>
   9.000000E+99

> <Gold.Chemscore.Hbonds>
donor molecule, donor type, donor heavy atom, donor atom, acceptor molecule, acceptor atom, score
      L1  H     9    34       P1  7948  0.05
      L1  H    12    35       P1  7948  0.94

> <Gold.Chemscore.Hbond.Weighted>
-6.1544

> <Gold.Chemscore.Metal.Weighted>
-0.0000

> <Gold.Chemscore.Lipo.Weighted>
-12.6509

> <Gold.Chemscore.Internal_Hbond.Weighted>
0.0000

> <Gold.Chemscore.DEClash.Weighted>
0.0605

> <Gold.Chemscore.DEInternal.Weighted>
3.0989

> <Gold.Chemscore.Rot.Weighted>
3.5897

> <Gold.Chemscore.Internal.Correction.Weighted>
   9.000000E+99

> <Gold.Protein.RotatedTorsions>
[ 6907 6896 6895 6894 ] final  170.03 input  -60.11 | X-H torsion
[ 7974 7965 7964 7962 ] final   20.56 input  175.53 | X-H torsion
[ 8008 7997 7996 7995 ] final -144.80 input   59.86 | X-H torsion
[ 10167 10162 10161 10158 ] final  -30.82 input  -65.29 | X-H torsion
[ 10718 10713 10712 10709 ] final -140.95 input   66.30 | X-H torsion
[ 10763 10752 10751 10750 ] final   28.80 input  -60.55 | X-H torsion
[ 11005 11000 10999 10996 ] final  162.91 input  -57.11 | X-H torsion

> <Gold.Protein.ActiveResidues>
 VAL166  LYS551  ARG553  GLY616  TRP617  ASP618  TYR619  PRO620  LYS621  CYS622 
 ASP623  PHE694  ASN695  SER759  ASP760  ASP761  ALA762  ILE779  LEU786  VAL792 
 PHE793  MET794  SER795  GLU796  ALA797  LYS798  CYS799  TRP800  GLU811  SER814 

> <Gold.Protein.RotatedAtoms>
  151.8226  133.3397  159.3588 H   0  0  0  0  0  0  0  0  0  0  0  0  # atno 6907 bound_to 6896
  150.7290  134.5559  159.5827 H   0  0  0  0  0  0  0  0  0  0  0  0  # atno 6908 bound_to 6896
  152.2995  134.7629  160.0412 H   0  0  0  0  0  0  0  0  0  0  0  0  # atno 6909 bound_to 6896
  146.2106  139.8152  142.8691 H   0  0  0  0  0  0  0  0  0  0  0  0  # atno 7974 bound_to 7965
  155.5329  140.0601  157.2885 H   0  0  0  0  0  0  0  0  0  0  0  0  # atno 8008 bound_to 7997
  154.4478  140.1933  156.0557 H   0  0  0  0  0  0  0  0  0  0  0  0  # atno 8009 bound_to 7997
  156.0640  140.3269  155.7499 H   0  0  0  0  0  0  0  0  0  0  0  0  # atno 8010 bound_to 7997
  140.7244  143.3819  151.1586 H   0  0  0  0  0  0  0  0  0  0  0  0  # atno 10167 bound_to 10162
  156.3283  130.7572  151.1685 H   0  0  0  0  0  0  0  0  0  0  0  0  # atno 10718 bound_to 10713
  153.0469  135.6504  154.0793 H   0  0  0  0  0  0  0  0  0  0  0  0  # atno 10763 bound_to 10752
  154.0488  135.2897  155.3345 H   0  0  0  0  0  0  0  0  0  0  0  0  # atno 10764 bound_to 10752
  154.6733  135.5348  153.8233 H   0  0  0  0  0  0  0  0  0  0  0  0  # atno 10765 bound_to 10752
  140.2305  134.8127  157.3312 H   0  0  0  0  0  0  0  0  0  0  0  0  # atno 11005 bound_to 11000
  145.3154  141.0230  143.3530 LP  0  0  0  0  0  0  0  0  0  0  0  0  # atno 17320 bound_to 7965
  144.8905  139.4781  143.6680 LP  0  0  0  0  0  0  0  0  0  0  0  0  # atno 17321 bound_to 7965
  139.7409  143.8926  152.3049 LP  0  0  0  0  0  0  0  0  0  0  0  0  # atno 17342 bound_to 10162
  139.8747  144.7050  150.8947 LP  0  0  0  0  0  0  0  0  0  0  0  0  # atno 17343 bound_to 10162
  157.7425  131.0488  150.5015 LP  0  0  0  0  0  0  0  0  0  0  0  0  # atno 17370 bound_to 10713
  156.5178  130.4154  149.6267 LP  0  0  0  0  0  0  0  0  0  0  0  0  # atno 17371 bound_to 10713
  140.1755  134.4555  155.7804 LP  0  0  0  0  0  0  0  0  0  0  0  0  # atno 17394 bound_to 11000
  141.2218  133.6960  156.7780 LP  0  0  0  0  0  0  0  0  0  0  0  0  # atno 17395 bound_to 11000

$$$$
