AV-unprocessed.smi:490|AV-procd|sdf|2703|dock1
  -GOLD-   2262023143D 1   1.00000     0.00000
 Structure written by MMmdl.
 49 51  0  0  0  0  0  0  0  0  1 V2000
  151.6311  145.5040  160.2391 C   0  0  0  0  0  0  0  0  0  0  0  0
  152.1281  144.0686  160.2495 C   0  0  0  0  0  0  0  0  0  0  0  0
  152.5641  143.5062  161.4663 C   0  0  0  0  0  0  0  0  0  0  0  0
  153.0285  142.1803  161.5122 C   0  0  0  0  0  0  0  0  0  0  0  0
  153.0732  141.4048  160.3377 C   0  0  0  0  0  0  0  0  0  0  0  0
  153.5753  139.9744  160.4015 C   0  0  0  0  0  0  0  0  0  0  0  0
  152.6544  141.9648  159.1090 C   0  0  0  0  0  0  0  0  0  0  0  0
  152.7148  141.2018  157.9713 O   0  0  0  0  0  0  0  0  0  0  0  0
  151.7026  140.2076  157.8996 C   0  0  0  0  0  0  0  0  0  0  0  0
  152.0480  139.2263  156.7714 C   0  0  2  0  0  0  0  0  0  0  0  0
  153.4175  138.8901  156.8711 O   0  0  0  0  0  0  0  0  0  0  0  0
  151.7449  139.8073  155.3751 C   0  0  0  0  0  0  0  0  0  0  0  0
  150.4232  139.4378  154.8875 N   0  0  0  0  0  0  0  0  0  0  0  0
  149.9687  138.1994  154.5694 C   0  0  0  0  0  0  0  0  0  0  0  0
  150.8437  136.9855  154.7083 C   0  0  0  0  0  0  0  0  0  0  0  0
  152.0235  137.0356  153.9315 O   0  0  0  0  0  0  0  0  0  0  0  0
  148.7037  138.1411  154.1460 N   0  0  0  0  0  0  0  0  0  0  0  0
  148.3036  139.4620  154.1920 C   0  0  0  0  0  0  0  0  0  0  0  0
  147.0654  140.0583  153.8625 C   0  0  0  0  0  0  0  0  0  0  0  0
  146.8859  141.4508  153.9946 C   0  0  0  0  0  0  0  0  0  0  0  0
  147.9396  142.2653  154.4575 C   0  0  0  0  0  0  0  0  0  0  0  0
  149.1819  141.6914  154.7900 C   0  0  0  0  0  0  0  0  0  0  0  0
  149.3561  140.3007  154.6556 C   0  0  0  0  0  0  0  0  0  0  0  0
  152.1595  143.2928  159.0635 C   0  0  0  0  0  0  0  0  0  0  0  0
  151.6654  143.8817  157.7490 C   0  0  0  0  0  0  0  0  0  0  0  0
  151.8195  145.9965  161.1936 H   0  0  0  0  0  0  0  0  0  0  0  0
  150.5575  145.5332  160.0528 H   0  0  0  0  0  0  0  0  0  0  0  0
  152.1353  146.0807  159.4634 H   0  0  0  0  0  0  0  0  0  0  0  0
  152.5404  144.0895  162.3751 H   0  0  0  0  0  0  0  0  0  0  0  0
  153.3529  141.7627  162.4541 H   0  0  0  0  0  0  0  0  0  0  0  0
  152.9058  139.3072  159.8581 H   0  0  0  0  0  0  0  0  0  0  0  0
  153.6370  139.6218  161.4313 H   0  0  0  0  0  0  0  0  0  0  0  0
  154.5682  139.9023  159.9578 H   0  0  0  0  0  0  0  0  0  0  0  0
  151.6031  139.6784  158.8488 H   0  0  0  0  0  0  0  0  0  0  0  0
  150.7436  140.6870  157.6963 H   0  0  0  0  0  0  0  0  0  0  0  0
  151.4803  138.3077  156.9213 H   0  0  0  0  0  0  0  0  0  0  0  0
  153.5024  138.1371  157.4355 H   0  0  0  0  0  0  0  0  0  0  0  0
  151.8180  140.8950  155.3915 H   0  0  0  0  0  0  0  0  0  0  0  0
  152.4900  139.4691  154.6541 H   0  0  0  0  0  0  0  0  0  0  0  0
  151.1321  136.8591  155.7512 H   0  0  0  0  0  0  0  0  0  0  0  0
  150.2717  136.1035  154.4192 H   0  0  0  0  0  0  0  0  0  0  0  0
  151.7896  136.9275  153.0227 H   0  0  0  0  0  0  0  0  0  0  0  0
  146.2524  139.4424  153.5072 H   0  0  0  0  0  0  0  0  0  0  0  0
  145.9354  141.8958  153.7392 H   0  0  0  0  0  0  0  0  0  0  0  0
  147.7938  143.3311  154.5558 H   0  0  0  0  0  0  0  0  0  0  0  0
  149.9914  142.3133  155.1413 H   0  0  0  0  0  0  0  0  0  0  0  0
  151.4597  143.1122  157.0058 H   0  0  0  0  0  0  0  0  0  0  0  0
  152.4133  144.5596  157.3375 H   0  0  0  0  0  0  0  0  0  0  0  0
  150.7389  144.4371  157.8924 H   0  0  0  0  0  0  0  0  0  0  0  0
  1  2  1  0  0  0  0
  1 26  1  0  0  0  0
  1 27  1  0  0  0  0
  1 28  1  0  0  0  0
  2 24  1  0  0  0  0
  2  3  2  0  0  0  0
  3  4  1  0  0  0  0
  3 29  1  0  0  0  0
  4  5  2  0  0  0  0
  4 30  1  0  0  0  0
  5  6  1  0  0  0  0
  5  7  1  0  0  0  0
  6 31  1  0  0  0  0
  6 32  1  0  0  0  0
  6 33  1  0  0  0  0
  7  8  1  0  0  0  0
  7 24  2  0  0  0  0
  8  9  1  0  0  0  0
  9 10  1  0  0  0  0
  9 34  1  0  0  0  0
  9 35  1  0  0  0  0
 10 11  1  0  0  0  0
 10 12  1  0  0  0  0
 10 36  1  0  0  0  0
 11 37  1  0  0  0  0
 12 13  1  0  0  0  0
 12 38  1  0  0  0  0
 12 39  1  0  0  0  0
 13 23  1  0  0  0  0
 13 14  1  0  0  0  0
 14 15  1  0  0  0  0
 14 17  2  0  0  0  0
 15 16  1  0  0  0  0
 15 40  1  0  0  0  0
 15 41  1  0  0  0  0
 16 42  1  0  0  0  0
 17 18  1  0  0  0  0
 18 23  2  0  0  0  0
 18 19  1  0  0  0  0
 19 20  2  0  0  0  0
 19 43  1  0  0  0  0
 20 21  1  0  0  0  0
 20 44  1  0  0  0  0
 21 22  2  0  0  0  0
 21 45  1  0  0  0  0
 22 23  1  0  0  0  0
 22 46  1  0  0  0  0
 24 25  1  0  0  0  0
 25 47  1  0  0  0  0
 25 48  1  0  0  0  0
 25 49  1  0  0  0  0
M  END
> <s_m_source_file>
AV-unprocessed.smi

> <i_m_source_file_index>
490

> <i_lp_mmshare_version>
43012

> <i_f3d_flags>
0

> <s_epik_input>
W0NIM11jMVtjSF1bY0hdYyhbQ0gzXSljKGMxW0NIM10pT1tDSDJdW0NASF0oW09IXSlbQ0gyXW4oYyhuMilbQ0gyXVtPSF0pYyhjMjMpW2NIXVtjSF1bY0hdW2NIXTM=

> <s_epik_cmdline>
J2VwaWtfcHl0aG9uJywgJy1waCcsICc3LjAnLCAnLXRuJywgJzgnLCAnLW1hJywgJzIwMCcsICctbWV0YWxfYmluZGluZycsICctaW1hZScsICc8aW5maWxlLm1hZT4nLCAnLW9tYWUnLCAnPG91dGZpbGUubWFlPic=

> <r_lp_tautomer_probability>
1

> <r_epik_Ionization_Penalty>
0.0555874

> <r_epik_Ionization_Penalty_Charging>
0

> <r_epik_Ionization_Penalty_Neutral>
0.0555874

> <r_epik_State_Penalty>
0.0478234

> <r_epik_Charging_Adjusted_Penalty>
0.0478234

> <i_epik_Tot_Q>
0

> <i_epik_Tot_abs_Q>
0

> <r_epik_Metal_State_Penalty>
4.98044e-05

> <b_epik_Metal_Only>
0

> <s_lp_Force_Field>
OPLS_2005

> <r_lp_Energy>
19.7492

> <b_lp_Chiralities_Consistent>
1

> <s_lp_Variant>
AV-unprocessed.smi:490-1

> <Gold.Version>
5.8.1

> <Gold.Id.Protein>
6NUR|6NUR_protein|mol2

> <Gold.PLP.Fitness>
65.8532

> <Gold.PLP.PLP>
-58.0107

> <Gold.PLP.part.hbond>
-3.7099

> <Gold.PLP.part.metal>
0.0000

> <Gold.PLP.part.buried>
2.6508

> <Gold.PLP.part.nonpolar>
-57.7132

> <Gold.PLP.part.repulsive>
1.4368

> <Gold.PLP.ligand.clash>
0.0000

> <Gold.PLP.ligand.torsion>
0.8375

> <Gold.PLP.Chemscore.Hbond>
3.0000

> <Gold.PLP.Chemscore.CHOScore>
0.0000

> <Gold.PLP.Chemscore.Metal>
0.0000

> <Gold.Chemscore.Hbonds>
donor molecule, donor type, donor heavy atom, donor atom, acceptor molecule, acceptor atom, score
      L1  H    16    42       P1  7949  1.00
      P1  H  7997  8010       L1    11  1.00
      P1  H 10752 10765       L1    16  1.00

> <Gold.PLP.Chemscore.Internal.Correction>
0.5175

> <Gold.Rescore>
     Score         DG    S(hbond)    S(metal)    S(lipo)     H(rot)  DE(clash)    DE(int)     intcor
     22.12     -25.12       2.38        0.00     163.91       2.93       2.19       0.81       ----

> <Gold.Chemscore.Fitness>
22.1175

> <Gold.Chemscore.DG>
-25.1159

> <Gold.Chemscore.ZeroCoef>
-5.4800

> <Gold.Chemscore.Hbond>
2.3815

> <Gold.Chemscore.Metal>
0.0000

> <Gold.Chemscore.Lipo>
163.9081

> <Gold.Chemscore.Internal_Hbond>
0.0000

> <Gold.Chemscore.DEClash>
2.1893

> <Gold.Chemscore.DEInternal>
0.8090

> <Gold.Chemscore.Rot>
2.9279

> <Gold.Chemscore.Internal.Correction>
   9.000000E+99

> <Gold.Chemscore.Hbonds>
donor molecule, donor type, donor heavy atom, donor atom, acceptor molecule, acceptor atom, score
      L1  H    16    42       P1  7949  0.98
      P1  H  7997  8010       L1    11  0.78
      P1  H 10752 10765       L1    16  0.30

> <Gold.Chemscore.Hbond.Weighted>
-7.9540

> <Gold.Chemscore.Metal.Weighted>
-0.0000

> <Gold.Chemscore.Lipo.Weighted>
-19.1772

> <Gold.Chemscore.Internal_Hbond.Weighted>
0.0000

> <Gold.Chemscore.DEClash.Weighted>
2.1893

> <Gold.Chemscore.DEInternal.Weighted>
0.8090

> <Gold.Chemscore.Rot.Weighted>
7.4954

> <Gold.Chemscore.Internal.Correction.Weighted>
   9.000000E+99

> <Gold.Protein.RotatedTorsions>
[ 6907 6896 6895 6894 ] final -145.79 input  -60.11 | X-H torsion
[ 7974 7965 7964 7962 ] final   35.84 input  175.53 | X-H torsion
[ 8008 7997 7996 7995 ] final   69.89 input   59.86 | X-H torsion
[ 10167 10162 10161 10158 ] final  -55.69 input  -65.29 | X-H torsion
[ 10718 10713 10712 10709 ] final -118.39 input   66.30 | X-H torsion
[ 10763 10752 10751 10750 ] final  161.90 input  -60.55 | X-H torsion
[ 11005 11000 10999 10996 ] final   29.62 input  -57.11 | X-H torsion

> <Gold.Protein.ActiveResidues>
 VAL166  LYS551  ARG553  GLY616  TRP617  ASP618  TYR619  PRO620  LYS621  CYS622 
 ASP623  PHE694  ASN695  SER759  ASP760  ASP761  ALA762  ILE779  LEU786  VAL792 
 PHE793  MET794  SER795  GLU796  ALA797  LYS798  CYS799  TRP800  GLU811  SER814 

> <Gold.Protein.RotatedAtoms>
  151.1326  133.5026  159.2598 H   0  0  0  0  0  0  0  0  0  0  0  0  # atno 6907 bound_to 6896
  151.1741  135.0331  159.8774 H   0  0  0  0  0  0  0  0  0  0  0  0  # atno 6908 bound_to 6896
  152.5460  134.1186  159.8442 H   0  0  0  0  0  0  0  0  0  0  0  0  # atno 6909 bound_to 6896
  146.1254  139.6092  142.9262 H   0  0  0  0  0  0  0  0  0  0  0  0  # atno 7974 bound_to 7965
  155.7305  140.3492  155.5057 H   0  0  0  0  0  0  0  0  0  0  0  0  # atno 8008 bound_to 7997
  155.9187  140.1063  157.1245 H   0  0  0  0  0  0  0  0  0  0  0  0  # atno 8009 bound_to 7997
  154.4066  140.1254  156.4638 H   0  0  0  0  0  0  0  0  0  0  0  0  # atno 8010 bound_to 7997
  140.6360  143.2482  151.5116 H   0  0  0  0  0  0  0  0  0  0  0  0  # atno 10167 bound_to 10162
  156.1103  130.6243  150.9285 H   0  0  0  0  0  0  0  0  0  0  0  0  # atno 10718 bound_to 10713
  154.2701  135.2766  155.2742 H   0  0  0  0  0  0  0  0  0  0  0  0  # atno 10763 bound_to 10752
  154.5309  135.5730  153.6761 H   0  0  0  0  0  0  0  0  0  0  0  0  # atno 10764 bound_to 10752
  152.9946  135.6227  154.2855 H   0  0  0  0  0  0  0  0  0  0  0  0  # atno 10765 bound_to 10752
  140.3031  134.2734  155.7750 H   0  0  0  0  0  0  0  0  0  0  0  0  # atno 11005 bound_to 11000
  145.5376  141.0423  143.2348 LP  0  0  0  0  0  0  0  0  0  0  0  0  # atno 17320 bound_to 7965
  144.7638  139.6894  143.7223 LP  0  0  0  0  0  0  0  0  0  0  0  0  # atno 17321 bound_to 7965
  139.5571  144.2249  152.1630 LP  0  0  0  0  0  0  0  0  0  0  0  0  # atno 17342 bound_to 10162
  140.1506  144.5118  150.6690 LP  0  0  0  0  0  0  0  0  0  0  0  0  # atno 17343 bound_to 10162
  157.6284  131.0923  150.8490 LP  0  0  0  0  0  0  0  0  0  0  0  0  # atno 17370 bound_to 10713
  156.8602  130.5110  149.5304 LP  0  0  0  0  0  0  0  0  0  0  0  0  # atno 17371 bound_to 10713
  141.2124  133.7659  156.9796 LP  0  0  0  0  0  0  0  0  0  0  0  0  # atno 17394 bound_to 11000
  140.1092  134.9487  157.2039 LP  0  0  0  0  0  0  0  0  0  0  0  0  # atno 17395 bound_to 11000

$$$$
