AV-unprocessed.smi:2356|AV-procd|sdf|9399|dock2
  -GOLD-   2272013 33D 1   1.00000     0.00000
 Structure written by MMmdl.
 54 57  0  0  0  0  0  0  0  0  2 V2000
  151.1375  137.9021  154.3628 C   0  0  0  0  0  0  0  0  0  0  0  0
  150.3901  139.1389  154.8276 C   0  0  0  0  0  0  0  0  0  0  0  0
  151.0417  139.9863  155.6549 N   0  3  0  0  0  0  0  0  0  0  0  0
  150.5027  141.1270  156.1471 C   0  0  0  0  0  0  0  0  0  0  0  0
  151.2809  141.9289  157.0033 N   0  0  0  0  0  0  0  0  0  0  0  0
  150.9611  143.3296  157.2295 C   0  0  0  0  0  0  0  0  0  0  0  0
  151.9138  143.7676  158.3406 C   0  0  0  0  0  0  0  0  0  0  0  0
  152.0774  142.4979  159.1765 C   0  0  0  0  0  0  0  0  0  0  0  0
  151.9620  141.3582  158.1571 C   0  0  0  0  0  0  0  0  0  0  0  0
  149.1738  141.4524  155.7914 C   0  0  0  0  0  0  0  0  0  0  0  0
  148.4515  140.6016  154.9311 C   0  0  0  0  0  0  0  0  0  0  0  0
  149.0658  139.4301  154.4240 C   0  0  0  0  0  0  0  0  0  0  0  0
  148.3993  138.5116  153.5676 N   0  0  0  0  0  0  0  0  0  0  0  0
  147.0756  138.3253  153.4007 C   0  0  0  0  0  0  0  0  0  0  0  0
  146.2023  138.9610  153.9871 O   0  0  0  0  0  0  0  0  0  0  0  0
  146.7617  137.3820  152.4944 N   0  0  0  0  0  0  0  0  0  0  0  0
  145.4332  136.9316  152.0730 C   0  0  2  0  0  0  0  0  0  0  0  0
  144.5003  136.7526  153.2831 C   0  0  0  0  0  0  0  0  0  0  0  0
  143.1663  136.1268  152.8486 C   0  0  0  0  0  0  0  0  0  0  0  0
  143.4029  134.8904  152.1849 O   0  0  0  0  0  0  0  0  0  0  0  0
  144.1632  135.0268  150.9851 C   0  0  2  0  0  0  0  0  0  0  0  0
  144.2673  133.6911  150.2662 C   0  0  0  0  0  0  0  0  0  0  0  0
  143.5023  132.4766  150.7479 C   0  0  0  0  0  0  0  0  0  0  0  0
  145.0025  132.5210  150.8845 C   0  0  0  0  0  0  0  0  0  0  0  0
  145.5539  135.5944  151.3273 C   0  0  0  0  0  0  0  0  0  0  0  0
  150.6005  136.9997  154.6564 H   0  0  0  0  0  0  0  0  0  0  0  0
  152.1382  137.8560  154.7939 H   0  0  0  0  0  0  0  0  0  0  0  0
  151.2373  137.9058  153.2773 H   0  0  0  0  0  0  0  0  0  0  0  0
  151.0948  143.9254  156.3259 H   0  0  0  0  0  0  0  0  0  0  0  0
  149.9236  143.4197  157.5547 H   0  0  0  0  0  0  0  0  0  0  0  0
  152.8758  144.0534  157.9127 H   0  0  0  0  0  0  0  0  0  0  0  0
  151.5357  144.6128  158.9167 H   0  0  0  0  0  0  0  0  0  0  0  0
  153.0140  142.4733  159.7340 H   0  0  0  0  0  0  0  0  0  0  0  0
  151.2594  142.4297  159.8950 H   0  0  0  0  0  0  0  0  0  0  0  0
  151.4200  140.5122  158.5814 H   0  0  0  0  0  0  0  0  0  0  0  0
  152.9492  141.0132  157.8484 H   0  0  0  0  0  0  0  0  0  0  0  0
  148.6935  142.3395  156.1769 H   0  0  0  0  0  0  0  0  0  0  0  0
  147.4314  140.8574  154.6895 H   0  0  0  0  0  0  0  0  0  0  0  0
  148.9977  137.9815  152.9511 H   0  0  0  0  0  0  0  0  0  0  0  0
  147.5392  136.9366  152.0278 H   0  0  0  0  0  0  0  0  0  0  0  0
  144.9966  137.6576  151.3846 H   0  0  0  0  0  0  0  0  0  0  0  0
  144.9737  136.1071  154.0243 H   0  0  0  0  0  0  0  0  0  0  0  0
  144.3171  137.7082  153.7743 H   0  0  0  0  0  0  0  0  0  0  0  0
  142.5376  135.9432  153.7200 H   0  0  0  0  0  0  0  0  0  0  0  0
  142.6136  136.8034  152.1950 H   0  0  0  0  0  0  0  0  0  0  0  0
  143.6426  135.7146  150.3165 H   0  0  0  0  0  0  0  0  0  0  0  0
  144.3591  133.7883  149.1862 H   0  0  0  0  0  0  0  0  0  0  0  0
  142.9124  132.5681  151.6575 H   0  0  0  0  0  0  0  0  0  0  0  0
  143.0868  131.8144  149.9910 H   0  0  0  0  0  0  0  0  0  0  0  0
  145.5867  131.8892  150.2188 H   0  0  0  0  0  0  0  0  0  0  0  0
  145.4125  132.6450  151.8848 H   0  0  0  0  0  0  0  0  0  0  0  0
  146.1386  135.7267  150.4160 H   0  0  0  0  0  0  0  0  0  0  0  0
  146.0952  134.8744  151.9434 H   0  0  0  0  0  0  0  0  0  0  0  0
  151.9975  139.7525  155.9231 H   0  0  0  0  0  0  0  0  0  0  0  0
  1  2  1  0  0  0  0
  1 26  1  0  0  0  0
  1 27  1  0  0  0  0
  1 28  1  0  0  0  0
  2 12  1  0  0  0  0
  2  3  2  0  0  0  0
  3  4  1  0  0  0  0
  3 54  1  0  0  0  0
  4  5  1  0  0  0  0
  4 10  2  0  0  0  0
  5  9  1  0  0  0  0
  5  6  1  0  0  0  0
  6  7  1  0  0  0  0
  6 29  1  0  0  0  0
  6 30  1  0  0  0  0
  7  8  1  0  0  0  0
  7 31  1  0  0  0  0
  7 32  1  0  0  0  0
  8  9  1  0  0  0  0
  8 33  1  0  0  0  0
  8 34  1  0  0  0  0
  9 35  1  0  0  0  0
  9 36  1  0  0  0  0
 10 11  1  0  0  0  0
 10 37  1  0  0  0  0
 11 12  2  0  0  0  0
 11 38  1  0  0  0  0
 12 13  1  0  0  0  0
 13 14  1  0  0  0  0
 13 39  1  0  0  0  0
 14 15  2  0  0  0  0
 14 16  1  0  0  0  0
 16 17  1  0  0  0  0
 16 40  1  0  0  0  0
 17 25  1  0  0  0  0
 17 18  1  0  0  0  0
 17 41  1  0  0  0  0
 18 19  1  0  0  0  0
 18 42  1  0  0  0  0
 18 43  1  0  0  0  0
 19 20  1  0  0  0  0
 19 44  1  0  0  0  0
 19 45  1  0  0  0  0
 20 21  1  0  0  0  0
 21 22  1  0  0  0  0
 21 25  1  0  0  0  0
 21 46  1  0  0  0  0
 22 24  1  0  0  0  0
 22 23  1  0  0  0  0
 22 47  1  0  0  0  0
 23 24  1  0  0  0  0
 23 48  1  0  0  0  0
 23 49  1  0  0  0  0
 24 50  1  0  0  0  0
 24 51  1  0  0  0  0
 25 52  1  0  0  0  0
 25 53  1  0  0  0  0
M  CHG  1   3   1
M  END
> <s_m_source_file>
AV-unprocessed.smi

> <i_m_source_file_index>
2356

> <i_lp_mmshare_version>
43012

> <i_f3d_flags>
0

> <s_epik_input>
W0NIMl0xW0NIMl1bQ0gyXVtDSDJdTjFjKG5jMltDSDNdKVtjSF1bY0hdYzJbTkhdQyg9TylbTkhdW0NAQEhdM1tDSDJdW0NIMl1PW0NASF0oW0NIMl0zKVtDSF00W0NIMl1bQ0gyXTQ=

> <s_epik_cmdline>
J2VwaWtfcHl0aG9uJywgJy1waCcsICc3LjAnLCAnLXRuJywgJzgnLCAnLW1hJywgJzIwMCcsICctbWV0YWxfYmluZGluZycsICctaW1hZScsICc8aW5maWxlLm1hZT4nLCAnLW9tYWUnLCAnPG91dGZpbGUubWFlPic=

> <r_lp_tautomer_probability>
0.999994

> <r_epik_Ionization_Penalty>
0.534681

> <r_epik_Ionization_Penalty_Charging>
0.534661

> <r_epik_Ionization_Penalty_Neutral>
1.99132e-05

> <r_epik_State_Penalty>
0.543738

> <r_epik_Charging_Adjusted_Penalty>
1.0784

> <i_epik_Tot_Q>
1

> <i_epik_Tot_abs_Q>
1

> <r_epik_Metal_State_Penalty>
0.74699

> <b_epik_Metal_Only>
0

> <s_lp_Force_Field>
OPLS_2005

> <r_lp_Energy>
57.2966

> <b_lp_Chiralities_Consistent>
1

> <s_lp_Variant>
AV-unprocessed.smi:2356-7

> <Gold.Version>
5.8.1

> <Gold.Id.Protein>
6NUR|6NUR_protein|mol2

> <Gold.PLP.Fitness>
51.3349

> <Gold.PLP.PLP>
-47.8620

> <Gold.PLP.part.hbond>
-2.9013

> <Gold.PLP.part.metal>
0.0000

> <Gold.PLP.part.buried>
-5.0619

> <Gold.PLP.part.nonpolar>
-43.1138

> <Gold.PLP.part.repulsive>
0.5669

> <Gold.PLP.ligand.clash>
0.0000

> <Gold.PLP.ligand.torsion>
1.5922

> <Gold.PLP.Chemscore.Hbond>
1.7840

> <Gold.PLP.Chemscore.CHOScore>
0.0000

> <Gold.PLP.Chemscore.Metal>
0.0000

> <Gold.Chemscore.Hbonds>
donor molecule, donor type, donor heavy atom, donor atom, acceptor molecule, acceptor atom, score
      L1  H    13    39       P1  7948  0.81
      L1  H    16    40       P1  7948  1.00

> <Gold.PLP.Chemscore.Internal.Correction>
1.3052

> <Gold.Rescore>
     Score         DG    S(hbond)    S(metal)    S(lipo)     H(rot)  DE(clash)    DE(int)     intcor
     18.80     -22.87       1.79        0.00     122.68       1.15       0.36       3.71       ----

> <Gold.Chemscore.Fitness>
18.8001

> <Gold.Chemscore.DG>
-22.8714

> <Gold.Chemscore.ZeroCoef>
-5.4800

> <Gold.Chemscore.Hbond>
1.7904

> <Gold.Chemscore.Metal>
0.0000

> <Gold.Chemscore.Lipo>
122.6816

> <Gold.Chemscore.Internal_Hbond>
0.0000

> <Gold.Chemscore.DEClash>
0.3592

> <Gold.Chemscore.DEInternal>
3.7120

> <Gold.Chemscore.Rot>
1.1493

> <Gold.Chemscore.Internal.Correction>
   9.000000E+99

> <Gold.Chemscore.Hbonds>
donor molecule, donor type, donor heavy atom, donor atom, acceptor molecule, acceptor atom, score
      L1  H    13    39       P1  7948  0.75
      L1  H    16    40       P1  7948  0.96

> <Gold.Chemscore.Hbond.Weighted>
-5.9798

> <Gold.Chemscore.Metal.Weighted>
-0.0000

> <Gold.Chemscore.Lipo.Weighted>
-14.3537

> <Gold.Chemscore.Internal_Hbond.Weighted>
0.0000

> <Gold.Chemscore.DEClash.Weighted>
0.3592

> <Gold.Chemscore.DEInternal.Weighted>
3.7120

> <Gold.Chemscore.Rot.Weighted>
2.9421

> <Gold.Chemscore.Internal.Correction.Weighted>
   9.000000E+99

> <Gold.Protein.RotatedTorsions>
[ 6907 6896 6895 6894 ] final    3.05 input  -60.11 | X-H torsion
[ 7974 7965 7964 7962 ] final  -74.03 input  175.53 | X-H torsion
[ 8008 7997 7996 7995 ] final    6.76 input   59.86 | X-H torsion
[ 10167 10162 10161 10158 ] final  -29.07 input  -65.29 | X-H torsion
[ 10718 10713 10712 10709 ] final  123.77 input   66.30 | X-H torsion
[ 10763 10752 10751 10750 ] final    7.99 input  -60.55 | X-H torsion
[ 11005 11000 10999 10996 ] final  134.36 input  -57.11 | X-H torsion

> <Gold.Protein.ActiveResidues>
 VAL166  LYS551  ARG553  GLY616  TRP617  ASP618  TYR619  PRO620  LYS621  CYS622 
 ASP623  PHE694  ASN695  SER759  ASP760  ASP761  ALA762  ILE779  LEU786  VAL792 
 PHE793  MET794  SER795  GLU796  ALA797  LYS798  CYS799  TRP800  GLU811  SER814 

> <Gold.Protein.RotatedAtoms>
  151.6187  135.1034  160.0096 H   0  0  0  0  0  0  0  0  0  0  0  0  # atno 6907 bound_to 6896
  152.4169  133.7049  159.6456 H   0  0  0  0  0  0  0  0  0  0  0  0  # atno 6908 bound_to 6896
  150.8057  133.8441  159.3228 H   0  0  0  0  0  0  0  0  0  0  0  0  # atno 6909 bound_to 6896
  145.6444  140.9301  143.1018 H   0  0  0  0  0  0  0  0  0  0  0  0  # atno 7974 bound_to 7965
  154.7452  140.2756  155.6339 H   0  0  0  0  0  0  0  0  0  0  0  0  # atno 8008 bound_to 7997
  156.2883  140.2689  156.2116 H   0  0  0  0  0  0  0  0  0  0  0  0  # atno 8009 bound_to 7997
  155.0207  140.0371  157.2426 H   0  0  0  0  0  0  0  0  0  0  0  0  # atno 8010 bound_to 7997
  140.7264  143.3958  151.1350 H   0  0  0  0  0  0  0  0  0  0  0  0  # atno 10167 bound_to 10162
  157.5638  131.1088  150.8490 H   0  0  0  0  0  0  0  0  0  0  0  0  # atno 10718 bound_to 10713
  153.2300  135.6891  153.7900 H   0  0  0  0  0  0  0  0  0  0  0  0  # atno 10763 bound_to 10752
  153.7068  135.3288  155.3238 H   0  0  0  0  0  0  0  0  0  0  0  0  # atno 10764 bound_to 10752
  154.8309  135.4581  154.1182 H   0  0  0  0  0  0  0  0  0  0  0  0  # atno 10765 bound_to 10752
  139.9910  134.9515  156.9855 H   0  0  0  0  0  0  0  0  0  0  0  0  # atno 11005 bound_to 11000
  144.7145  139.8246  143.7403 LP  0  0  0  0  0  0  0  0  0  0  0  0  # atno 17320 bound_to 7965
  146.1255  139.4280  143.0201 LP  0  0  0  0  0  0  0  0  0  0  0  0  # atno 17321 bound_to 7965
  139.7570  143.8692  152.3091 LP  0  0  0  0  0  0  0  0  0  0  0  0  # atno 17342 bound_to 10162
  139.8565  144.7138  150.9151 LP  0  0  0  0  0  0  0  0  0  0  0  0  # atno 17343 bound_to 10162
  156.8981  130.5237  149.5283 LP  0  0  0  0  0  0  0  0  0  0  0  0  # atno 17370 bound_to 10713
  156.0688  130.5726  150.9343 LP  0  0  0  0  0  0  0  0  0  0  0  0  # atno 17371 bound_to 10713
  140.4909  134.1194  155.7232 LP  0  0  0  0  0  0  0  0  0  0  0  0  # atno 17394 bound_to 11000
  141.1565  133.8872  157.1962 LP  0  0  0  0  0  0  0  0  0  0  0  0  # atno 17395 bound_to 11000

$$$$
