AV-unprocessed.smi:447|AV-procd|sdf|2601|dock2
  -GOLD-   2262022593D 1   1.00000     0.00000
 Structure written by MMmdl.
 46 48  0  0  0  0  0  0  0  0  2 V2000
  152.8300  137.4034  158.3269 C   0  0  0  0  0  0  0  0  0  0  0  0
  152.6411  137.3321  156.8153 C   0  0  0  0  0  0  0  0  0  0  0  0
  152.6555  136.2426  156.2443 O   0  0  0  0  0  0  0  0  0  0  0  0
  152.4633  138.5004  156.1792 N   0  0  0  0  0  0  0  0  0  0  0  0
  152.2949  138.6588  154.7361 C   0  0  2  0  0  0  0  0  0  0  0  0
  153.4550  139.4909  154.1737 C   0  0  0  0  0  0  0  0  0  0  0  0
  150.9778  139.2799  154.3659 C   0  0  0  0  0  0  0  0  0  0  0  0
  150.0717  138.7798  153.4760 N   0  3  0  0  0  0  0  0  0  0  0  0
  148.9662  139.6266  153.3965 C   0  0  0  0  0  0  0  0  0  0  0  0
  147.8076  139.5449  152.6302 C   0  0  0  0  0  0  0  0  0  0  0  0
  146.8690  140.5857  152.7890 C   0  0  0  0  0  0  0  0  0  0  0  0
  147.0990  141.6520  153.6826 C   0  0  0  0  0  0  0  0  0  0  0  0
  148.2770  141.7229  154.4554 C   0  0  0  0  0  0  0  0  0  0  0  0
  149.2002  140.6905  154.2906 C   0  0  0  0  0  0  0  0  0  0  0  0
  150.4472  140.4325  154.8699 N   0  0  0  0  0  0  0  0  0  0  0  0
  150.9783  141.3766  155.8660 C   0  0  0  0  0  0  0  0  0  0  0  0
  150.7470  140.9090  157.3169 C   0  0  2  0  0  0  0  0  0  0  0  0
  149.3728  140.6446  157.5193 O   0  0  0  0  0  0  0  0  0  0  0  0
  151.2927  141.9163  158.3163 C   0  0  0  0  0  0  0  0  0  0  0  0
  150.8399  143.2529  158.2877 C   0  0  0  0  0  0  0  0  0  0  0  0
  151.3380  144.1912  159.2126 C   0  0  0  0  0  0  0  0  0  0  0  0
  152.2889  143.7976  160.1735 C   0  0  0  0  0  0  0  0  0  0  0  0
  152.7400  142.4643  160.2107 C   0  0  0  0  0  0  0  0  0  0  0  0
  152.2429  141.5256  159.2857 C   0  0  0  0  0  0  0  0  0  0  0  0
  152.3068  138.2621  158.7494 H   0  0  0  0  0  0  0  0  0  0  0  0
  153.8890  137.4915  158.5700 H   0  0  0  0  0  0  0  0  0  0  0  0
  152.4427  136.5026  158.8038 H   0  0  0  0  0  0  0  0  0  0  0  0
  152.4702  139.3454  156.7320 H   0  0  0  0  0  0  0  0  0  0  0  0
  152.3449  137.6654  154.2880 H   0  0  0  0  0  0  0  0  0  0  0  0
  153.3859  139.5781  153.0889 H   0  0  0  0  0  0  0  0  0  0  0  0
  154.4164  139.0309  154.4045 H   0  0  0  0  0  0  0  0  0  0  0  0
  153.4589  140.4996  154.5888 H   0  0  0  0  0  0  0  0  0  0  0  0
  147.6289  138.7293  151.9449 H   0  0  0  0  0  0  0  0  0  0  0  0
  145.9549  140.5661  152.2133 H   0  0  0  0  0  0  0  0  0  0  0  0
  146.3572  142.4319  153.7775 H   0  0  0  0  0  0  0  0  0  0  0  0
  148.4446  142.5442  155.1365 H   0  0  0  0  0  0  0  0  0  0  0  0
  152.0412  141.5204  155.6694 H   0  0  0  0  0  0  0  0  0  0  0  0
  150.5065  142.3450  155.6964 H   0  0  0  0  0  0  0  0  0  0  0  0
  151.2679  139.9633  157.4707 H   0  0  0  0  0  0  0  0  0  0  0  0
  148.9675  141.4190  157.8786 H   0  0  0  0  0  0  0  0  0  0  0  0
  150.1088  143.5643  157.5561 H   0  0  0  0  0  0  0  0  0  0  0  0
  150.9903  145.2134  159.1849 H   0  0  0  0  0  0  0  0  0  0  0  0
  152.6711  144.5175  160.8823 H   0  0  0  0  0  0  0  0  0  0  0  0
  153.4678  142.1610  160.9491 H   0  0  0  0  0  0  0  0  0  0  0  0
  152.5931  140.5043  159.3238 H   0  0  0  0  0  0  0  0  0  0  0  0
  150.2100  137.9241  152.9544 H   0  0  0  0  0  0  0  0  0  0  0  0
  1  2  1  0  0  0  0
  1 25  1  0  0  0  0
  1 26  1  0  0  0  0
  1 27  1  0  0  0  0
  2  3  2  0  0  0  0
  2  4  1  0  0  0  0
  4  5  1  0  0  0  0
  4 28  1  0  0  0  0
  5  6  1  0  0  0  0
  5  7  1  0  0  0  0
  5 29  1  0  0  0  0
  6 30  1  0  0  0  0
  6 31  1  0  0  0  0
  6 32  1  0  0  0  0
  7 15  1  0  0  0  0
  7  8  2  0  0  0  0
  8  9  1  0  0  0  0
  8 46  1  0  0  0  0
  9 14  2  0  0  0  0
  9 10  1  0  0  0  0
 10 11  2  0  0  0  0
 10 33  1  0  0  0  0
 11 12  1  0  0  0  0
 11 34  1  0  0  0  0
 12 13  2  0  0  0  0
 12 35  1  0  0  0  0
 13 14  1  0  0  0  0
 13 36  1  0  0  0  0
 14 15  1  0  0  0  0
 15 16  1  0  0  0  0
 16 17  1  0  0  0  0
 16 37  1  0  0  0  0
 16 38  1  0  0  0  0
 17 18  1  0  0  0  0
 17 19  1  0  0  0  0
 17 39  1  0  0  0  0
 18 40  1  0  0  0  0
 19 24  1  0  0  0  0
 19 20  2  0  0  0  0
 20 21  1  0  0  0  0
 20 41  1  0  0  0  0
 21 22  2  0  0  0  0
 21 42  1  0  0  0  0
 22 23  1  0  0  0  0
 22 43  1  0  0  0  0
 23 24  2  0  0  0  0
 23 44  1  0  0  0  0
 24 45  1  0  0  0  0
M  CHG  1   8   1
M  END
> <s_m_source_file>
AV-unprocessed.smi

> <i_m_source_file_index>
447

> <i_lp_mmshare_version>
43012

> <i_f3d_flags>
0

> <s_epik_input>
W0NIM11DKD1PKVtOSF1bQ0BIXShbQ0gzXSljKG4xKW4oYyhjMTIpW2NIXVtjSF1bY0hdW2NIXTIpW0NIMl1bQ0BIXShbT0hdKWMzW2NIXVtjSF1bY0hdW2NIXVtjSF0z

> <s_epik_cmdline>
J2VwaWtfcHl0aG9uJywgJy1waCcsICc3LjAnLCAnLXRuJywgJzgnLCAnLW1hJywgJzIwMCcsICctbWV0YWxfYmluZGluZycsICctaW1hZScsICc8aW5maWxlLm1hZT4nLCAnLW9tYWUnLCAnPG91dGZpbGUubWFlPic=

> <r_epik_Ionization_Penalty>
0.950381

> <r_epik_Ionization_Penalty_Charging>
0.950379

> <r_epik_Ionization_Penalty_Neutral>
1.42115e-06

> <r_epik_State_Penalty>
0.994584

> <r_epik_Charging_Adjusted_Penalty>
1.94496

> <i_epik_Tot_Q>
1

> <i_epik_Tot_abs_Q>
1

> <r_epik_Metal_State_Penalty>
1.10485

> <b_epik_Metal_Only>
0

> <s_lp_Force_Field>
OPLS_2005

> <r_lp_Energy>
11.6076

> <b_lp_Chiralities_Consistent>
1

> <s_lp_Variant>
AV-unprocessed.smi:447-5

> <Gold.Version>
5.8.1

> <Gold.Id.Protein>
6NUR|6NUR_protein|mol2

> <Gold.PLP.Fitness>
56.1443

> <Gold.PLP.PLP>
-48.1073

> <Gold.PLP.part.hbond>
-3.0000

> <Gold.PLP.part.metal>
0.0000

> <Gold.PLP.part.buried>
2.6979

> <Gold.PLP.part.nonpolar>
-48.0574

> <Gold.PLP.part.repulsive>
0.1764

> <Gold.PLP.ligand.clash>
0.0000

> <Gold.PLP.ligand.torsion>
0.5431

> <Gold.PLP.Chemscore.Hbond>
3.0000

> <Gold.PLP.Chemscore.CHOScore>
0.0000

> <Gold.PLP.Chemscore.Metal>
0.0000

> <Gold.Chemscore.Hbonds>
donor molecule, donor type, donor heavy atom, donor atom, acceptor molecule, acceptor atom, score
      L1  H     8    46       P1  7948  0.39
      P1  H 10752 10763       L1     3  0.80

> <Gold.PLP.Chemscore.Internal.Correction>
0.1233

> <Gold.Rescore>
     Score         DG    S(hbond)    S(metal)    S(lipo)     H(rot)  DE(clash)    DE(int)     intcor
     19.10     -20.15       1.51        0.00     134.99       2.41       0.70       0.35       ----

> <Gold.Chemscore.Fitness>
19.1014

> <Gold.Chemscore.DG>
-20.1515

> <Gold.Chemscore.ZeroCoef>
-5.4800

> <Gold.Chemscore.Hbond>
1.5120

> <Gold.Chemscore.Metal>
0.0000

> <Gold.Chemscore.Lipo>
134.9933

> <Gold.Chemscore.Internal_Hbond>
0.0000

> <Gold.Chemscore.DEClash>
0.6968

> <Gold.Chemscore.DEInternal>
0.3533

> <Gold.Chemscore.Rot>
2.4112

> <Gold.Chemscore.Internal.Correction>
   9.000000E+99

> <Gold.Chemscore.Hbonds>
donor molecule, donor type, donor heavy atom, donor atom, acceptor molecule, acceptor atom, score
      L1  H     8    46       P1  7948  0.04
      P1  H 10752 10763       L1     3  0.77

> <Gold.Chemscore.Hbond.Weighted>
-5.0500

> <Gold.Chemscore.Metal.Weighted>
-0.0000

> <Gold.Chemscore.Lipo.Weighted>
-15.7942

> <Gold.Chemscore.Internal_Hbond.Weighted>
0.0000

> <Gold.Chemscore.DEClash.Weighted>
0.6968

> <Gold.Chemscore.DEInternal.Weighted>
0.3533

> <Gold.Chemscore.Rot.Weighted>
6.1727

> <Gold.Chemscore.Internal.Correction.Weighted>
   9.000000E+99

> <Gold.Protein.RotatedTorsions>
[ 6907 6896 6895 6894 ] final  -16.94 input  -60.11 | X-H torsion
[ 7974 7965 7964 7962 ] final -114.52 input  175.53 | X-H torsion
[ 8008 7997 7996 7995 ] final   -7.86 input   59.86 | X-H torsion
[ 10167 10162 10161 10158 ] final -153.63 input  -65.29 | X-H torsion
[ 10718 10713 10712 10709 ] final   17.09 input   66.30 | X-H torsion
[ 10763 10752 10751 10750 ] final   76.61 input  -60.55 | X-H torsion
[ 11005 11000 10999 10996 ] final   71.65 input  -57.11 | X-H torsion

> <Gold.Protein.ActiveResidues>
 VAL166  LYS551  ARG553  GLY616  TRP617  ASP618  TYR619  PRO620  LYS621  CYS622 
 ASP623  PHE694  ASN695  SER759  ASP760  ASP761  ALA762  ILE779  LEU786  VAL792 
 PHE793  MET794  SER795  GLU796  ALA797  LYS798  CYS799  TRP800  GLU811  SER814 

> <Gold.Protein.RotatedAtoms>
  151.3009  135.0768  159.9237 H   0  0  0  0  0  0  0  0  0  0  0  0  # atno 6907 bound_to 6896
  152.5298  133.9834  159.7827 H   0  0  0  0  0  0  0  0  0  0  0  0  # atno 6908 bound_to 6896
  151.0121  133.5904  159.2712 H   0  0  0  0  0  0  0  0  0  0  0  0  # atno 6909 bound_to 6896
  145.1191  140.8658  143.3824 H   0  0  0  0  0  0  0  0  0  0  0  0  # atno 7974 bound_to 7965
  154.5797  140.2396  155.8071 H   0  0  0  0  0  0  0  0  0  0  0  0  # atno 8008 bound_to 7997
  156.2170  140.3009  155.9819 H   0  0  0  0  0  0  0  0  0  0  0  0  # atno 8009 bound_to 7997
  155.2563  140.0412  157.2983 H   0  0  0  0  0  0  0  0  0  0  0  0  # atno 8010 bound_to 7997
  139.7080  143.9154  152.2457 H   0  0  0  0  0  0  0  0  0  0  0  0  # atno 10167 bound_to 10162
  157.0772  130.6372  149.5818 H   0  0  0  0  0  0  0  0  0  0  0  0  # atno 10718 bound_to 10713
  153.0738  135.4945  154.8361 H   0  0  0  0  0  0  0  0  0  0  0  0  # atno 10763 bound_to 10752
  154.7059  135.3010  154.9273 H   0  0  0  0  0  0  0  0  0  0  0  0  # atno 10764 bound_to 10752
  153.9982  135.6769  153.4810 H   0  0  0  0  0  0  0  0  0  0  0  0  # atno 10765 bound_to 10752
  139.9532  134.7190  156.0813 H   0  0  0  0  0  0  0  0  0  0  0  0  # atno 11005 bound_to 11000
  145.0760  139.2995  143.5808 LP  0  0  0  0  0  0  0  0  0  0  0  0  # atno 17320 bound_to 7965
  146.3522  140.0251  142.8655 LP  0  0  0  0  0  0  0  0  0  0  0  0  # atno 17321 bound_to 7965
  139.9015  144.6909  150.8660 LP  0  0  0  0  0  0  0  0  0  0  0  0  # atno 17342 bound_to 10162
  140.7726  143.3510  151.2014 LP  0  0  0  0  0  0  0  0  0  0  0  0  # atno 17343 bound_to 10162
  155.9934  130.4994  150.7377 LP  0  0  0  0  0  0  0  0  0  0  0  0  # atno 17370 bound_to 10713
  157.4830  131.0904  151.0515 LP  0  0  0  0  0  0  0  0  0  0  0  0  # atno 17371 bound_to 10713
  141.1199  133.6616  156.3188 LP  0  0  0  0  0  0  0  0  0  0  0  0  # atno 17394 bound_to 11000
  140.5670  134.5878  157.5448 LP  0  0  0  0  0  0  0  0  0  0  0  0  # atno 17395 bound_to 11000

$$$$
