AV-unprocessed.smi:1875|AV-procd|sdf|7614|dock3
  -GOLD-   22720 9333D 1   1.00000     0.00000
 Structure written by MMmdl.
 47 49  0  0  0  0  0  0  0  0  1 V2000
  142.8959  136.1150  153.5061 C   0  0  0  0  0  0  0  0  0  0  0  0
  144.1455  136.4212  152.7068 C   0  0  0  0  0  0  0  0  0  0  0  0
  144.4272  135.6064  151.6851 N   0  0  0  0  0  0  0  0  0  0  0  0
  145.5422  135.8821  150.9739 C   0  0  0  0  0  0  0  0  0  0  0  0
  146.3724  136.9767  151.2892 C   0  0  0  0  0  0  0  0  0  0  0  0
  145.9725  137.7649  152.3892 C   0  0  0  0  0  0  0  0  0  0  0  0
  146.7824  138.9665  152.8333 C   0  0  0  0  0  0  0  0  0  0  0  0
  148.1484  138.6045  153.1980 N   0  0  0  0  0  0  0  0  0  0  0  0
  148.5135  139.0262  154.5474 C   0  0  0  0  0  0  0  0  0  0  0  0
  149.4539  140.2426  154.5200 C   0  0  2  0  0  0  0  0  0  0  0  0
  149.2652  140.9250  153.2959 O   0  0  0  0  0  0  0  0  0  0  0  0
  150.9315  139.8201  154.6333 C   0  0  0  0  0  0  0  0  0  0  0  0
  151.3943  139.7710  156.0089 N   0  0  0  0  0  0  0  0  0  0  0  0
  151.7585  138.6785  156.7078 C   0  0  0  0  0  0  0  0  0  0  0  0
  152.1496  138.8629  157.9656 N   0  0  0  0  0  0  0  0  0  0  0  0
  152.0255  140.2355  158.0976 C   0  0  0  0  0  0  0  0  0  0  0  0
  152.2846  141.0778  159.2009 C   0  0  0  0  0  0  0  0  0  0  0  0
  152.0819  142.4734  159.1107 C   0  0  0  0  0  0  0  0  0  0  0  0
  152.3697  143.3411  160.3233 C   0  0  0  0  0  0  0  0  0  0  0  0
  151.6149  143.0470  157.9006 C   0  0  0  0  0  0  0  0  0  0  0  0
  151.3902  144.5439  157.7807 C   0  0  0  0  0  0  0  0  0  0  0  0
  151.3524  142.2203  156.7881 C   0  0  0  0  0  0  0  0  0  0  0  0
  151.5556  140.8327  156.8914 C   0  0  0  0  0  0  0  0  0  0  0  0
  144.8561  137.4836  153.0971 N   0  0  0  0  0  0  0  0  0  0  0  0
  142.3731  135.2421  153.1129 H   0  0  0  0  0  0  0  0  0  0  0  0
  142.2105  136.9624  153.4762 H   0  0  0  0  0  0  0  0  0  0  0  0
  143.1517  135.9170  154.5474 H   0  0  0  0  0  0  0  0  0  0  0  0
  145.7733  135.2261  150.1476 H   0  0  0  0  0  0  0  0  0  0  0  0
  147.2630  137.1964  150.7195 H   0  0  0  0  0  0  0  0  0  0  0  0
  146.7899  139.6956  152.0222 H   0  0  0  0  0  0  0  0  0  0  0  0
  146.2830  139.4438  153.6779 H   0  0  0  0  0  0  0  0  0  0  0  0
  148.7935  139.0166  152.5315 H   0  0  0  0  0  0  0  0  0  0  0  0
  147.6051  139.2962  155.0878 H   0  0  0  0  0  0  0  0  0  0  0  0
  148.9681  138.2037  155.1018 H   0  0  0  0  0  0  0  0  0  0  0  0
  149.2133  140.9182  155.3423 H   0  0  0  0  0  0  0  0  0  0  0  0
  149.1501  140.2824  152.6121 H   0  0  0  0  0  0  0  0  0  0  0  0
  151.0756  138.8325  154.1935 H   0  0  0  0  0  0  0  0  0  0  0  0
  151.5698  140.5056  154.0735 H   0  0  0  0  0  0  0  0  0  0  0  0
  151.7363  137.6922  156.2676 H   0  0  0  0  0  0  0  0  0  0  0  0
  152.6408  140.6403  160.1218 H   0  0  0  0  0  0  0  0  0  0  0  0
  151.4717  143.8767  160.6317 H   0  0  0  0  0  0  0  0  0  0  0  0
  153.1477  144.0703  160.0961 H   0  0  0  0  0  0  0  0  0  0  0  0
  152.7087  142.7428  161.1697 H   0  0  0  0  0  0  0  0  0  0  0  0
  151.0457  144.8159  156.7827 H   0  0  0  0  0  0  0  0  0  0  0  0
  152.3160  145.0860  157.9742 H   0  0  0  0  0  0  0  0  0  0  0  0
  150.6377  144.8755  158.4966 H   0  0  0  0  0  0  0  0  0  0  0  0
  150.9960  142.6429  155.8605 H   0  0  0  0  0  0  0  0  0  0  0  0
  1  2  1  0  0  0  0
  1 25  1  0  0  0  0
  1 26  1  0  0  0  0
  1 27  1  0  0  0  0
  2 24  1  0  0  0  0
  2  3  2  0  0  0  0
  3  4  1  0  0  0  0
  4  5  2  0  0  0  0
  4 28  1  0  0  0  0
  5  6  1  0  0  0  0
  5 29  1  0  0  0  0
  6  7  1  0  0  0  0
  6 24  2  0  0  0  0
  7  8  1  0  0  0  0
  7 30  1  0  0  0  0
  7 31  1  0  0  0  0
  8  9  1  0  0  0  0
  8 32  1  0  0  0  0
  9 10  1  0  0  0  0
  9 33  1  0  0  0  0
  9 34  1  0  0  0  0
 10 11  1  0  0  0  0
 10 12  1  0  0  0  0
 10 35  1  0  0  0  0
 11 36  1  0  0  0  0
 12 13  1  0  0  0  0
 12 37  1  0  0  0  0
 12 38  1  0  0  0  0
 13 23  1  0  0  0  0
 13 14  1  0  0  0  0
 14 15  2  0  0  0  0
 14 39  1  0  0  0  0
 15 16  1  0  0  0  0
 16 23  2  0  0  0  0
 16 17  1  0  0  0  0
 17 18  2  0  0  0  0
 17 40  1  0  0  0  0
 18 19  1  0  0  0  0
 18 20  1  0  0  0  0
 19 41  1  0  0  0  0
 19 42  1  0  0  0  0
 19 43  1  0  0  0  0
 20 21  1  0  0  0  0
 20 22  2  0  0  0  0
 21 44  1  0  0  0  0
 21 45  1  0  0  0  0
 21 46  1  0  0  0  0
 22 23  1  0  0  0  0
 22 47  1  0  0  0  0
M  END
> <s_m_source_file>
AV-unprocessed.smi

> <i_m_source_file_index>
1875

> <i_lp_mmshare_version>
43012

> <i_f3d_flags>
0

> <s_epik_input>
W0NIM11jMW5bY0hdW2NIXWMobjEpW0NIMl1bTkhdW0NIMl1bQ0BIXShbT0hdKVtDSDJdbihbY0hdbjIpYyhjMjMpW2NIXWMoW0NIM10pYyhbY0hdMylbQ0gzXQ==

> <s_epik_cmdline>
J2VwaWtfcHl0aG9uJywgJy1waCcsICc3LjAnLCAnLXRuJywgJzgnLCAnLW1hJywgJzIwMCcsICctbWV0YWxfYmluZGluZycsICctaW1hZScsICc8aW5maWxlLm1hZT4nLCAnLW9tYWUnLCAnPG91dGZpbGUubWFlPic=

> <r_lp_tautomer_probability>
1

> <r_epik_Ionization_Penalty>
1.21192

> <r_epik_Ionization_Penalty_Charging>
0

> <r_epik_Ionization_Penalty_Neutral>
1.21192

> <r_epik_State_Penalty>
1.26105

> <r_epik_Charging_Adjusted_Penalty>
1.26105

> <i_epik_Tot_Q>
0

> <i_epik_Tot_abs_Q>
0

> <r_epik_Metal_State_Penalty>
1.2224

> <b_epik_Metal_Only>
0

> <s_epik_Chemistry_Notes>
This compound contains an electron-poor aromatic ring that is susceptible to covalent hydrolysis at low pH, typically resulting in measured values for nitrogen ring protonation that are around two units higher than predicted values.

> <s_lp_Force_Field>
OPLS_2005

> <r_lp_Energy>
12.1971

> <b_lp_Chiralities_Consistent>
1

> <s_lp_Variant>
AV-unprocessed.smi:1875-3

> <Gold.Version>
5.8.1

> <Gold.Id.Protein>
6NUR|6NUR_protein|mol2

> <Gold.PLP.Fitness>
54.2996

> <Gold.PLP.PLP>
-45.9424

> <Gold.PLP.part.hbond>
-4.4309

> <Gold.PLP.part.metal>
0.0000

> <Gold.PLP.part.buried>
-0.8549

> <Gold.PLP.part.nonpolar>
-41.7471

> <Gold.PLP.part.repulsive>
0.3949

> <Gold.PLP.ligand.clash>
0.0000

> <Gold.PLP.ligand.torsion>
1.6198

> <Gold.PLP.Chemscore.Hbond>
2.7980

> <Gold.PLP.Chemscore.CHOScore>
1.0000

> <Gold.PLP.Chemscore.Metal>
0.0000

> <Gold.Chemscore.Hbonds>
donor molecule, donor type, donor heavy atom, donor atom, acceptor molecule, acceptor atom, score
      L1  H     8    32       P1  7957  1.00
      L1  H    11    36       P1  7957  0.77
      P1  H  8011  8017       L1    11  1.00
      L1  C     4    28       P1  7921  0.92

> <Gold.PLP.Chemscore.Internal.Correction>
0.2027

> <Gold.Rescore>
     Score         DG    S(hbond)    S(metal)    S(lipo)     H(rot)  DE(clash)    DE(int)     intcor
     15.58     -20.07       1.99        0.00     127.37       2.72       2.82       1.68       ----

> <Gold.Chemscore.Fitness>
15.5830

> <Gold.Chemscore.DG>
-20.0743

> <Gold.Chemscore.ZeroCoef>
-5.4800

> <Gold.Chemscore.Hbond>
1.9948

> <Gold.Chemscore.Metal>
0.0000

> <Gold.Chemscore.Lipo>
127.3677

> <Gold.Chemscore.Internal_Hbond>
0.0000

> <Gold.Chemscore.DEClash>
2.8162

> <Gold.Chemscore.DEInternal>
1.6751

> <Gold.Chemscore.Rot>
2.7228

> <Gold.Chemscore.Internal.Correction>
   9.000000E+99

> <Gold.Chemscore.Hbonds>
donor molecule, donor type, donor heavy atom, donor atom, acceptor molecule, acceptor atom, score
      L1  H     8    32       P1  7957  1.00
      L1  H    11    36       P1  7957  0.72
      P1  H  8011  8017       L1    11  0.30

> <Gold.Chemscore.Hbond.Weighted>
-6.6625

> <Gold.Chemscore.Metal.Weighted>
-0.0000

> <Gold.Chemscore.Lipo.Weighted>
-14.9020

> <Gold.Chemscore.Internal_Hbond.Weighted>
0.0000

> <Gold.Chemscore.DEClash.Weighted>
2.8162

> <Gold.Chemscore.DEInternal.Weighted>
1.6751

> <Gold.Chemscore.Rot.Weighted>
6.9702

> <Gold.Chemscore.Internal.Correction.Weighted>
   9.000000E+99

> <Gold.Protein.RotatedTorsions>
[ 6907 6896 6895 6894 ] final  100.69 input  -60.11 | X-H torsion
[ 7974 7965 7964 7962 ] final   82.32 input  175.53 | X-H torsion
[ 8008 7997 7996 7995 ] final  156.38 input   59.86 | X-H torsion
[ 10167 10162 10161 10158 ] final  -87.76 input  -65.29 | X-H torsion
[ 10718 10713 10712 10709 ] final    0.14 input   66.30 | X-H torsion
[ 10763 10752 10751 10750 ] final    0.65 input  -60.55 | X-H torsion
[ 11005 11000 10999 10996 ] final   45.84 input  -57.11 | X-H torsion

> <Gold.Protein.ActiveResidues>
 VAL166  LYS551  ARG553  GLY616  TRP617  ASP618  TYR619  PRO620  LYS621  CYS622 
 ASP623  PHE694  ASN695  SER759  ASP760  ASP761  ALA762  ILE779  LEU786  VAL792 
 PHE793  MET794  SER795  GLU796  ALA797  LYS798  CYS799  TRP800  GLU811  SER814 

> <Gold.Protein.RotatedAtoms>
  152.5366  134.0239  159.7993 H   0  0  0  0  0  0  0  0  0  0  0  0  # atno 6907 bound_to 6896
  151.0421  133.5689  159.2657 H   0  0  0  0  0  0  0  0  0  0  0  0  # atno 6908 bound_to 6896
  151.2655  135.0675  159.9168 H   0  0  0  0  0  0  0  0  0  0  0  0  # atno 6909 bound_to 6896
  145.6266  139.2396  143.2108 H   0  0  0  0  0  0  0  0  0  0  0  0  # atno 7974 bound_to 7965
  156.2425  140.1914  156.6946 H   0  0  0  0  0  0  0  0  0  0  0  0  # atno 8008 bound_to 7997
  154.6226  140.0606  156.9660 H   0  0  0  0  0  0  0  0  0  0  0  0  # atno 8009 bound_to 7997
  155.1837  140.3278  155.4373 H   0  0  0  0  0  0  0  0  0  0  0  0  # atno 8010 bound_to 7997
  140.3813  143.2747  151.9380 H   0  0  0  0  0  0  0  0  0  0  0  0  # atno 10167 bound_to 10162
  156.8290  130.5482  149.5689 H   0  0  0  0  0  0  0  0  0  0  0  0  # atno 10718 bound_to 10713
  153.3179  135.6967  153.7056 H   0  0  0  0  0  0  0  0  0  0  0  0  # atno 10763 bound_to 10752
  153.5908  135.3480  155.2910 H   0  0  0  0  0  0  0  0  0  0  0  0  # atno 10764 bound_to 10752
  154.8591  135.4317  154.2336 H   0  0  0  0  0  0  0  0  0  0  0  0  # atno 10765 bound_to 10752
  140.1423  134.4568  155.8441 H   0  0  0  0  0  0  0  0  0  0  0  0  # atno 11005 bound_to 11000
  146.1389  140.7084  142.9376 LP  0  0  0  0  0  0  0  0  0  0  0  0  # atno 17320 bound_to 7965
  144.7210  140.4372  143.7008 LP  0  0  0  0  0  0  0  0  0  0  0  0  # atno 17321 bound_to 7965
  139.4795  144.5816  151.7923 LP  0  0  0  0  0  0  0  0  0  0  0  0  # atno 17342 bound_to 10162
  140.4935  144.1276  150.5955 LP  0  0  0  0  0  0  0  0  0  0  0  0  # atno 17343 bound_to 10162
  156.0945  130.5922  150.9790 LP  0  0  0  0  0  0  0  0  0  0  0  0  # atno 17370 bound_to 10713
  157.6417  131.0909  150.8238 LP  0  0  0  0  0  0  0  0  0  0  0  0  # atno 17371 bound_to 10713
  141.2187  133.6838  156.7269 LP  0  0  0  0  0  0  0  0  0  0  0  0  # atno 17394 bound_to 11000
  140.2707  134.8394  157.3844 LP  0  0  0  0  0  0  0  0  0  0  0  0  # atno 17395 bound_to 11000

$$$$
