AV-unprocessed.smi:26|AV-procd|sdf|184|dock1
  -GOLD-   2262015443D 1   1.00000     0.00000
 Structure written by MMmdl.
 58 61  0  0  0  0  0  0  0  0  1 V2000
  146.9931  137.3051  156.9214 C   0  0  0  0  0  0  0  0  0  0  0  0
  148.2860  137.1131  156.1942 C   0  0  0  0  0  0  0  0  0  0  0  0
  149.4263  137.8551  156.2715 C   0  0  0  0  0  0  0  0  0  0  0  0
  150.3999  137.2756  155.4159 C   0  0  0  0  0  0  0  0  0  0  0  0
  151.7849  137.7297  155.1438 C   0  0  0  0  0  0  0  0  0  0  0  0
  152.7674  137.0072  155.3087 O   0  0  0  0  0  0  0  0  0  0  0  0
  151.9725  139.1787  154.6651 C   0  0  0  0  0  0  0  0  0  0  0  0
  151.0717  140.0872  155.3655 N   0  0  0  0  0  0  0  0  0  0  0  0
  149.8332  140.4113  154.7539 C   0  0  0  0  0  0  0  0  0  0  0  0
  149.5132  139.9812  153.6451 O   0  0  0  0  0  0  0  0  0  0  0  0
  148.9769  141.2901  155.5428 C   0  0  0  0  0  0  0  0  0  0  0  0
  147.7839  141.6686  155.0542 F   0  0  0  0  0  0  0  0  0  0  0  0
  149.3615  141.7324  156.7587 C   0  0  0  0  0  0  0  0  0  0  0  0
  150.5716  141.3919  157.3378 N   0  0  0  0  0  0  0  0  0  0  0  0
  150.9599  141.9150  158.7024 C   0  0  1  0  0  0  0  0  0  0  0  0
  152.1696  142.8491  158.5877 C   0  0  0  0  0  0  0  0  0  0  0  0
  151.5105  144.2104  158.5333 C   0  0  0  0  0  0  0  0  0  0  0  0
  150.3075  144.0049  159.4458 C   0  0  0  0  0  0  0  0  0  0  0  0
  149.8965  142.6591  159.2241 O   0  0  0  0  0  0  0  0  0  0  0  0
  151.4740  140.5607  156.6393 C   0  0  0  0  0  0  0  0  0  0  0  0
  152.5668  140.2644  157.1280 O   0  0  0  0  0  0  0  0  0  0  0  0
  149.8231  136.1827  154.8129 C   0  0  0  0  0  0  0  0  0  0  0  0
  150.4117  135.2030  153.8359 C   0  0  0  0  0  0  0  0  0  0  0  0
  148.5055  136.0839  155.2809 N   0  0  0  0  0  0  0  0  0  0  0  0
  147.5073  135.0613  154.9318 C   0  0  2  0  0  0  0  0  0  0  0  0
  148.0684  133.6432  155.1561 C   0  0  0  0  0  0  0  0  0  0  0  0
  146.8502  135.3174  153.5728 C   0  0  0  0  0  0  0  0  0  0  0  0
  146.1872  136.5462  153.3566 C   0  0  0  0  0  0  0  0  0  0  0  0
  145.5674  136.8198  152.1223 C   0  0  0  0  0  0  0  0  0  0  0  0
  145.6004  135.8633  151.0907 C   0  0  0  0  0  0  0  0  0  0  0  0
  146.2523  134.6334  151.2967 C   0  0  0  0  0  0  0  0  0  0  0  0
  146.8720  134.3591  152.5313 C   0  0  0  0  0  0  0  0  0  0  0  0
  147.0739  138.1128  157.6494 H   0  0  0  0  0  0  0  0  0  0  0  0
  146.7085  136.4018  157.4614 H   0  0  0  0  0  0  0  0  0  0  0  0
  146.1904  137.5618  156.2299 H   0  0  0  0  0  0  0  0  0  0  0  0
  149.5483  138.7309  156.8917 H   0  0  0  0  0  0  0  0  0  0  0  0
  152.9928  139.5234  154.8418 H   0  0  0  0  0  0  0  0  0  0  0  0
  151.8174  139.2833  153.5912 H   0  0  0  0  0  0  0  0  0  0  0  0
  148.6854  142.3839  157.2919 H   0  0  0  0  0  0  0  0  0  0  0  0
  151.1338  141.0414  159.3320 H   0  0  0  0  0  0  0  0  0  0  0  0
  152.7706  142.7515  159.4925 H   0  0  0  0  0  0  0  0  0  0  0  0
  152.7929  142.6201  157.7222 H   0  0  0  0  0  0  0  0  0  0  0  0
  152.1641  145.0174  158.8653 H   0  0  0  0  0  0  0  0  0  0  0  0
  151.1824  144.4318  157.5172 H   0  0  0  0  0  0  0  0  0  0  0  0
  150.6013  144.1143  160.4906 H   0  0  0  0  0  0  0  0  0  0  0  0
  149.4999  144.7087  159.2438 H   0  0  0  0  0  0  0  0  0  0  0  0
  150.1912  135.5001  152.8107 H   0  0  0  0  0  0  0  0  0  0  0  0
  150.0347  134.1947  153.9869 H   0  0  0  0  0  0  0  0  0  0  0  0
  151.4940  135.1368  153.9386 H   0  0  0  0  0  0  0  0  0  0  0  0
  146.6745  135.1577  155.6267 H   0  0  0  0  0  0  0  0  0  0  0  0
  147.2933  132.8881  155.0233 H   0  0  0  0  0  0  0  0  0  0  0  0
  148.4495  133.5368  156.1721 H   0  0  0  0  0  0  0  0  0  0  0  0
  148.8877  133.4050  154.4794 H   0  0  0  0  0  0  0  0  0  0  0  0
  146.1563  137.2874  154.1420 H   0  0  0  0  0  0  0  0  0  0  0  0
  145.0668  137.7640  151.9671 H   0  0  0  0  0  0  0  0  0  0  0  0
  145.1259  136.0726  150.1434 H   0  0  0  0  0  0  0  0  0  0  0  0
  146.2779  133.8983  150.5059 H   0  0  0  0  0  0  0  0  0  0  0  0
  147.3663  133.4082  152.6577 H   0  0  0  0  0  0  0  0  0  0  0  0
  1  2  1  0  0  0  0
  1 33  1  0  0  0  0
  1 34  1  0  0  0  0
  1 35  1  0  0  0  0
  2 24  1  0  0  0  0
  2  3  2  0  0  0  0
  3  4  1  0  0  0  0
  3 36  1  0  0  0  0
  4  5  1  0  0  0  0
  4 22  2  0  0  0  0
  5  6  2  0  0  0  0
  5  7  1  0  0  0  0
  7  8  1  0  0  0  0
  7 37  1  0  0  0  0
  7 38  1  0  0  0  0
  8 20  1  0  0  0  0
  8  9  1  0  0  0  0
  9 10  2  0  0  0  0
  9 11  1  0  0  0  0
 11 12  1  0  0  0  0
 11 13  2  0  0  0  0
 13 14  1  0  0  0  0
 13 39  1  0  0  0  0
 14 15  1  0  0  0  0
 14 20  1  0  0  0  0
 15 19  1  0  0  0  0
 15 16  1  0  0  0  0
 15 40  1  0  0  0  0
 16 17  1  0  0  0  0
 16 41  1  0  0  0  0
 16 42  1  0  0  0  0
 17 18  1  0  0  0  0
 17 43  1  0  0  0  0
 17 44  1  0  0  0  0
 18 19  1  0  0  0  0
 18 45  1  0  0  0  0
 18 46  1  0  0  0  0
 20 21  2  0  0  0  0
 22 23  1  0  0  0  0
 22 24  1  0  0  0  0
 23 47  1  0  0  0  0
 23 48  1  0  0  0  0
 23 49  1  0  0  0  0
 24 25  1  0  0  0  0
 25 26  1  0  0  0  0
 25 27  1  0  0  0  0
 25 50  1  0  0  0  0
 26 51  1  0  0  0  0
 26 52  1  0  0  0  0
 26 53  1  0  0  0  0
 27 32  1  0  0  0  0
 27 28  2  0  0  0  0
 28 29  1  0  0  0  0
 28 54  1  0  0  0  0
 29 30  2  0  0  0  0
 29 55  1  0  0  0  0
 30 31  1  0  0  0  0
 30 56  1  0  0  0  0
 31 32  2  0  0  0  0
 31 57  1  0  0  0  0
 32 58  1  0  0  0  0
M  END
> <s_m_source_file>
AV-unprocessed.smi

> <i_m_source_file_index>
26

> <i_lp_mmshare_version>
43012

> <i_f3d_flags>
0

> <s_epik_input>
W2NIXTFbY0hdW2NIXVtjSF1bY0hdYzFbQ0BASF0oW0NIM10pbjJjKFtDSDNdKWMoW2NIXWMyW0NIM10pQyg9TylbQ0gyXW4zYyg9TyljKEYpW2NIXW4oYzM9TylbQ0BASF00W0NIMl1bQ0gyXVtDSDJdTzQ=

> <s_epik_cmdline>
J2VwaWtfcHl0aG9uJywgJy1waCcsICc3LjAnLCAnLXRuJywgJzgnLCAnLW1hJywgJzIwMCcsICctbWV0YWxfYmluZGluZycsICctaW1hZScsICc8aW5maWxlLm1hZT4nLCAnLW9tYWUnLCAnPG91dGZpbGUubWFlPic=

> <r_lp_tautomer_probability>
1

> <r_epik_Ionization_Penalty>
5.02402e-09

> <r_epik_Ionization_Penalty_Charging>
5.01743e-09

> <r_epik_Ionization_Penalty_Neutral>
6.58831e-12

> <r_epik_State_Penalty>
-0

> <r_epik_Charging_Adjusted_Penalty>
5.01743e-09

> <i_epik_Tot_Q>
0

> <i_epik_Tot_abs_Q>
0

> <r_epik_Metal_State_Penalty>
-0

> <b_epik_Metal_Only>
0

> <s_epik_Chemistry_Notes>
This compound contains an acetal/aminal-like group ( X-CH(R)-Y where X, Y are N, S, or O) that may be acid/base labile, releasing an aldehyde.

> <s_lp_Force_Field>
OPLS_2005

> <r_lp_Energy>
51.2992

> <b_lp_Chiralities_Consistent>
1

> <s_lp_Variant>
AV-unprocessed.smi:26-2

> <Gold.Version>
5.8.1

> <Gold.Id.Protein>
6NUR|6NUR_protein|mol2

> <Gold.PLP.Fitness>
50.5122

> <Gold.PLP.PLP>
-45.6238

> <Gold.PLP.part.hbond>
-3.2126

> <Gold.PLP.part.metal>
0.0000

> <Gold.PLP.part.buried>
-5.8208

> <Gold.PLP.part.nonpolar>
-40.9645

> <Gold.PLP.part.repulsive>
3.0703

> <Gold.PLP.ligand.clash>
0.0000

> <Gold.PLP.ligand.torsion>
2.0256

> <Gold.PLP.Chemscore.Hbond>
2.0000

> <Gold.PLP.Chemscore.CHOScore>
0.8757

> <Gold.PLP.Chemscore.Metal>
0.0000

> <Gold.Chemscore.Hbonds>
donor molecule, donor type, donor heavy atom, donor atom, acceptor molecule, acceptor atom, score
      P1  H  7997  8008       L1    21  1.00
      P1  H 10752 10764       L1     6  0.54
      L1  C    13    39       P1  8028  0.08

> <Gold.PLP.Chemscore.Internal.Correction>
0.3124

> <Gold.Rescore>
     Score         DG    S(hbond)    S(metal)    S(lipo)     H(rot)  DE(clash)    DE(int)     intcor
     12.46     -17.62       1.89        0.00      89.93       1.84       1.70       3.47       ----

> <Gold.Chemscore.Fitness>
12.4578

> <Gold.Chemscore.DG>
-17.6228

> <Gold.Chemscore.ZeroCoef>
-5.4800

> <Gold.Chemscore.Hbond>
1.8925

> <Gold.Chemscore.Metal>
0.0000

> <Gold.Chemscore.Lipo>
89.9299

> <Gold.Chemscore.Internal_Hbond>
0.0000

> <Gold.Chemscore.DEClash>
1.6973

> <Gold.Chemscore.DEInternal>
3.4677

> <Gold.Chemscore.Rot>
1.8359

> <Gold.Chemscore.Internal.Correction>
   9.000000E+99

> <Gold.Chemscore.Hbonds>
donor molecule, donor type, donor heavy atom, donor atom, acceptor molecule, acceptor atom, score
      P1  H  7997  8008       L1    21  0.94
      P1  H 10752 10764       L1     6  0.51

> <Gold.Chemscore.Hbond.Weighted>
-6.3210

> <Gold.Chemscore.Metal.Weighted>
-0.0000

> <Gold.Chemscore.Lipo.Weighted>
-10.5218

> <Gold.Chemscore.Internal_Hbond.Weighted>
0.0000

> <Gold.Chemscore.DEClash.Weighted>
1.6973

> <Gold.Chemscore.DEInternal.Weighted>
3.4677

> <Gold.Chemscore.Rot.Weighted>
4.7000

> <Gold.Chemscore.Internal.Correction.Weighted>
   9.000000E+99

> <Gold.Protein.RotatedTorsions>
[ 6907 6896 6895 6894 ] final  177.56 input  -60.11 | X-H torsion
[ 7974 7965 7964 7962 ] final  -60.13 input  175.53 | X-H torsion
[ 8008 7997 7996 7995 ] final  -55.16 input   59.86 | X-H torsion
[ 10167 10162 10161 10158 ] final   40.69 input  -65.29 | X-H torsion
[ 10718 10713 10712 10709 ] final   15.19 input   66.30 | X-H torsion
[ 10763 10752 10751 10750 ] final  -39.82 input  -60.55 | X-H torsion
[ 11005 11000 10999 10996 ] final  -69.31 input  -57.11 | X-H torsion

> <Gold.Protein.ActiveResidues>
 VAL166  LYS551  ARG553  GLY616  TRP617  ASP618  TYR619  PRO620  LYS621  CYS622 
 ASP623  PHE694  ASN695  SER759  ASP760  ASP761  ALA762  ILE779  LEU786  VAL792 
 PHE793  MET794  SER795  GLU796  ALA797  LYS798  CYS799  TRP800  GLU811  SER814 

> <Gold.Protein.RotatedAtoms>
  151.7021  133.3311  159.3268 H   0  0  0  0  0  0  0  0  0  0  0  0  # atno 6907 bound_to 6896
  150.7731  134.6607  159.6347 H   0  0  0  0  0  0  0  0  0  0  0  0  # atno 6908 bound_to 6896
  152.3763  134.6661  160.0210 H   0  0  0  0  0  0  0  0  0  0  0  0  # atno 6909 bound_to 6896
  145.8192  140.8551  143.0141 H   0  0  0  0  0  0  0  0  0  0  0  0  # atno 7974 bound_to 7965
  154.4186  140.1159  156.5431 H   0  0  0  0  0  0  0  0  0  0  0  0  # atno 8008 bound_to 7997
  155.6487  140.3496  155.4721 H   0  0  0  0  0  0  0  0  0  0  0  0  # atno 8009 bound_to 7997
  155.9810  140.1160  157.0716 H   0  0  0  0  0  0  0  0  0  0  0  0  # atno 8010 bound_to 7997
  140.3717  144.2097  150.6133 H   0  0  0  0  0  0  0  0  0  0  0  0  # atno 10167 bound_to 10162
  157.0499  130.6265  149.5766 H   0  0  0  0  0  0  0  0  0  0  0  0  # atno 10718 bound_to 10713
  153.9356  135.6767  153.4745 H   0  0  0  0  0  0  0  0  0  0  0  0  # atno 10763 bound_to 10752
  153.0957  135.4852  154.8771 H   0  0  0  0  0  0  0  0  0  0  0  0  # atno 10764 bound_to 10752
  154.7404  135.3159  154.8695 H   0  0  0  0  0  0  0  0  0  0  0  0  # atno 10765 bound_to 10752
  141.1551  133.6761  156.6580 H   0  0  0  0  0  0  0  0  0  0  0  0  # atno 11005 bound_to 11000
  144.6749  140.0508  143.7479 LP  0  0  0  0  0  0  0  0  0  0  0  0  # atno 17320 bound_to 7965
  145.9694  139.2858  143.1108 LP  0  0  0  0  0  0  0  0  0  0  0  0  # atno 17321 bound_to 7965
  140.5027  143.2313  151.8654 LP  0  0  0  0  0  0  0  0  0  0  0  0  # atno 17342 bound_to 10162
  139.4803  144.5041  151.9021 LP  0  0  0  0  0  0  0  0  0  0  0  0  # atno 17343 bound_to 10162
  156.0011  130.5090  150.7666 LP  0  0  0  0  0  0  0  0  0  0  0  0  # atno 17370 bound_to 10713
  157.5038  131.0920  151.0281 LP  0  0  0  0  0  0  0  0  0  0  0  0  # atno 17371 bound_to 10713
  140.3269  134.7961  157.4296 LP  0  0  0  0  0  0  0  0  0  0  0  0  # atno 17394 bound_to 11000
  140.1049  134.5423  155.8318 LP  0  0  0  0  0  0  0  0  0  0  0  0  # atno 17395 bound_to 11000

$$$$
