AV-unprocessed.smi:967|AV-procd|sdf|4288|dock2
  -GOLD-   22720 2193D 1   1.00000     0.00000
 Structure written by MMmdl.
 42 43  0  0  0  0  0  0  0  0  1 V2000
  148.1242  141.8391  157.5694 C   0  0  0  0  0  0  0  0  0  0  0  0
  147.3336  141.9293  156.3515 N   0  0  0  0  0  0  0  0  0  0  0  0
  146.0614  142.6260  156.4632 C   0  0  0  0  0  0  0  0  0  0  0  0
  147.2270  140.7069  155.6750 C   0  0  0  0  0  0  0  0  0  0  0  0
  146.4959  139.6266  156.2194 C   0  0  0  0  0  0  0  0  0  0  0  0
  146.4214  138.4232  155.4924 C   0  0  0  0  0  0  0  0  0  0  0  0
  147.0737  138.3400  154.2394 C   0  0  0  0  0  0  0  0  0  0  0  0
  147.0880  137.1779  153.4220 N   0  0  0  0  0  0  0  0  0  0  0  0
  146.2006  136.1691  153.3886 C   0  0  0  0  0  0  0  0  0  0  0  0
  145.1756  136.1029  154.0668 O   0  0  0  0  0  0  0  0  0  0  0  0
  146.5644  135.2377  152.4953 N   0  0  0  0  0  0  0  0  0  0  0  0
  145.8274  134.0161  152.1824 C   0  0  2  0  0  0  0  0  0  0  0  0
  146.7461  132.7945  152.3656 C   0  0  0  0  0  0  0  0  0  0  0  0
  146.0326  131.4874  151.9776 C   0  0  0  0  0  0  0  0  0  0  0  0
  145.4551  131.5394  150.5503 C   0  0  2  0  0  0  0  0  0  0  0  0
  146.5042  131.5258  149.6022 O   0  0  0  0  0  0  0  0  0  0  0  0
  144.5707  132.7838  150.3431 C   0  0  0  0  0  0  0  0  0  0  0  0
  145.2891  134.0853  150.7414 C   0  0  0  0  0  0  0  0  0  0  0  0
  147.7891  139.4712  153.7957 C   0  0  0  0  0  0  0  0  0  0  0  0
  147.8637  140.6284  154.4866 N   0  0  0  0  0  0  0  0  0  0  0  0
  149.0543  141.2986  157.3901 H   0  0  0  0  0  0  0  0  0  0  0  0
  147.5721  141.3256  158.3573 H   0  0  0  0  0  0  0  0  0  0  0  0
  148.3789  142.8372  157.9266 H   0  0  0  0  0  0  0  0  0  0  0  0
  145.5443  142.6480  155.5029 H   0  0  0  0  0  0  0  0  0  0  0  0
  146.2238  143.6558  156.7818 H   0  0  0  0  0  0  0  0  0  0  0  0
  145.4130  142.1411  157.1941 H   0  0  0  0  0  0  0  0  0  0  0  0
  146.0035  139.7133  157.1768 H   0  0  0  0  0  0  0  0  0  0  0  0
  145.8815  137.5901  155.9148 H   0  0  0  0  0  0  0  0  0  0  0  0
  147.8329  137.1367  152.7419 H   0  0  0  0  0  0  0  0  0  0  0  0
  147.4208  135.3879  151.9823 H   0  0  0  0  0  0  0  0  0  0  0  0
  144.9785  133.9024  152.8590 H   0  0  0  0  0  0  0  0  0  0  0  0
  147.6449  132.9123  151.7585 H   0  0  0  0  0  0  0  0  0  0  0  0
  147.0816  132.7331  153.4016 H   0  0  0  0  0  0  0  0  0  0  0  0
  146.7146  130.6426  152.0803 H   0  0  0  0  0  0  0  0  0  0  0  0
  145.2195  131.3074  152.6822 H   0  0  0  0  0  0  0  0  0  0  0  0
  144.8573  130.6446  150.3742 H   0  0  0  0  0  0  0  0  0  0  0  0
  147.2828  131.1915  150.0207 H   0  0  0  0  0  0  0  0  0  0  0  0
  144.2357  132.8421  149.3069 H   0  0  0  0  0  0  0  0  0  0  0  0
  143.6687  132.6816  150.9477 H   0  0  0  0  0  0  0  0  0  0  0  0
  144.6026  134.9268  150.6402 H   0  0  0  0  0  0  0  0  0  0  0  0
  146.1101  134.2740  150.0480 H   0  0  0  0  0  0  0  0  0  0  0  0
  148.3154  139.4513  152.8525 H   0  0  0  0  0  0  0  0  0  0  0  0
  1  2  1  0  0  0  0
  1 21  1  0  0  0  0
  1 22  1  0  0  0  0
  1 23  1  0  0  0  0
  2  3  1  0  0  0  0
  2  4  1  0  0  0  0
  3 24  1  0  0  0  0
  3 25  1  0  0  0  0
  3 26  1  0  0  0  0
  4 20  1  0  0  0  0
  4  5  2  0  0  0  0
  5  6  1  0  0  0  0
  5 27  1  0  0  0  0
  6  7  2  0  0  0  0
  6 28  1  0  0  0  0
  7  8  1  0  0  0  0
  7 19  1  0  0  0  0
  8  9  1  0  0  0  0
  8 29  1  0  0  0  0
  9 10  2  0  0  0  0
  9 11  1  0  0  0  0
 11 12  1  0  0  0  0
 11 30  1  0  0  0  0
 12 18  1  0  0  0  0
 12 13  1  0  0  0  0
 12 31  1  0  0  0  0
 13 14  1  0  0  0  0
 13 32  1  0  0  0  0
 13 33  1  0  0  0  0
 14 15  1  0  0  0  0
 14 34  1  0  0  0  0
 14 35  1  0  0  0  0
 15 16  1  0  0  0  0
 15 17  1  0  0  0  0
 15 36  1  0  0  0  0
 16 37  1  0  0  0  0
 17 18  1  0  0  0  0
 17 38  1  0  0  0  0
 17 39  1  0  0  0  0
 18 40  1  0  0  0  0
 18 41  1  0  0  0  0
 19 20  2  0  0  0  0
 19 42  1  0  0  0  0
M  END
> <s_m_source_file>
AV-unprocessed.smi

> <i_m_source_file_index>
967

> <i_lp_mmshare_version>
43012

> <i_f3d_flags>
0

> <s_epik_input>
W0NIM11OKFtDSDNdKWMxW2NIXVtjSF1jKFtjSF1uMSlbTkhdQyg9TylbTkhdW0NAQEhdMltDSDJdW0NIMl1bQ0BASF0oW09IXSlbQ0gyXVtDSDJdMg==

> <s_epik_cmdline>
J2VwaWtfcHl0aG9uJywgJy1waCcsICc3LjAnLCAnLXRuJywgJzgnLCAnLW1hJywgJzIwMCcsICctbWV0YWxfYmluZGluZycsICctaW1hZScsICc8aW5maWxlLm1hZT4nLCAnLW9tYWUnLCAnPG91dGZpbGUubWFlPic=

> <r_lp_tautomer_probability>
1

> <r_epik_Ionization_Penalty>
0.629464

> <r_epik_Ionization_Penalty_Charging>
0

> <r_epik_Ionization_Penalty_Neutral>
0.629464

> <r_epik_State_Penalty>
0.645019

> <r_epik_Charging_Adjusted_Penalty>
0.645019

> <i_epik_Tot_Q>
0

> <i_epik_Tot_abs_Q>
0

> <r_epik_Metal_State_Penalty>
0.308581

> <b_epik_Metal_Only>
0

> <s_lp_Force_Field>
OPLS_2005

> <r_lp_Energy>
18.5045

> <b_lp_Chiralities_Consistent>
1

> <s_lp_Variant>
AV-unprocessed.smi:967-4

> <Gold.Version>
5.8.1

> <Gold.Id.Protein>
6NUR|6NUR_protein|mol2

> <Gold.PLP.Fitness>
35.1348

> <Gold.PLP.PLP>
-23.4517

> <Gold.PLP.part.hbond>
-3.0000

> <Gold.PLP.part.metal>
0.0000

> <Gold.PLP.part.buried>
-5.1227

> <Gold.PLP.part.nonpolar>
-15.9197

> <Gold.PLP.part.repulsive>
0.3041

> <Gold.PLP.ligand.clash>
0.0000

> <Gold.PLP.ligand.torsion>
0.2626

> <Gold.PLP.Chemscore.Hbond>
3.0000

> <Gold.PLP.Chemscore.CHOScore>
1.0000

> <Gold.PLP.Chemscore.Metal>
0.0000

> <Gold.Chemscore.Hbonds>
donor molecule, donor type, donor heavy atom, donor atom, acceptor molecule, acceptor atom, score
      L1  H     8    29       P1  7948  1.00
      L1  H    11    30       P1  7948  0.99
      L1  H    16    37       P1 10747  1.00
      L1  C    19    42       P1  7957  1.00

> <Gold.PLP.Chemscore.Internal.Correction>
0.2083

> <Gold.Rescore>
     Score         DG    S(hbond)    S(metal)    S(lipo)     H(rot)  DE(clash)    DE(int)     intcor
     16.64     -17.07       2.94        0.00      52.55       1.71       0.00       0.43       ----

> <Gold.Chemscore.Fitness>
16.6444

> <Gold.Chemscore.DG>
-17.0704

> <Gold.Chemscore.ZeroCoef>
-5.4800

> <Gold.Chemscore.Hbond>
2.9390

> <Gold.Chemscore.Metal>
0.0000

> <Gold.Chemscore.Lipo>
52.5451

> <Gold.Chemscore.Internal_Hbond>
0.0000

> <Gold.Chemscore.DEClash>
0.0000

> <Gold.Chemscore.DEInternal>
0.4260

> <Gold.Chemscore.Rot>
1.7084

> <Gold.Chemscore.Internal.Correction>
   9.000000E+99

> <Gold.Chemscore.Hbonds>
donor molecule, donor type, donor heavy atom, donor atom, acceptor molecule, acceptor atom, score
      L1  H     8    29       P1  7948  0.94
      L1  H    11    30       P1  7948  0.94
      L1  H    16    37       P1 10747  0.99

> <Gold.Chemscore.Hbond.Weighted>
-9.8162

> <Gold.Chemscore.Metal.Weighted>
-0.0000

> <Gold.Chemscore.Lipo.Weighted>
-6.1478

> <Gold.Chemscore.Internal_Hbond.Weighted>
0.0000

> <Gold.Chemscore.DEClash.Weighted>
0.0000

> <Gold.Chemscore.DEInternal.Weighted>
0.4260

> <Gold.Chemscore.Rot.Weighted>
4.3735

> <Gold.Chemscore.Internal.Correction.Weighted>
   9.000000E+99

> <Gold.Protein.RotatedTorsions>
[ 6907 6896 6895 6894 ] final  -32.21 input  -60.11 | X-H torsion
[ 7974 7965 7964 7962 ] final  176.44 input  175.53 | X-H torsion
[ 8008 7997 7996 7995 ] final   -6.63 input   59.86 | X-H torsion
[ 10167 10162 10161 10158 ] final   81.66 input  -65.29 | X-H torsion
[ 10718 10713 10712 10709 ] final  101.42 input   66.30 | X-H torsion
[ 10763 10752 10751 10750 ] final  166.93 input  -60.55 | X-H torsion
[ 11005 11000 10999 10996 ] final  -90.98 input  -57.11 | X-H torsion

> <Gold.Protein.ActiveResidues>
 VAL166  LYS551  ARG553  GLY616  TRP617  ASP618  TYR619  PRO620  LYS621  CYS622 
 ASP623  PHE694  ASN695  SER759  ASP760  ASP761  ALA762  ILE779  LEU786  VAL792 
 PHE793  MET794  SER795  GLU796  ALA797  LYS798  CYS799  TRP800  GLU811  SER814 

> <Gold.Protein.RotatedAtoms>
  151.0817  134.9862  159.8359 H   0  0  0  0  0  0  0  0  0  0  0  0  # atno 6907 bound_to 6896
  152.5420  134.2173  159.8784 H   0  0  0  0  0  0  0  0  0  0  0  0  # atno 6908 bound_to 6896
  151.2204  133.4462  159.2634 H   0  0  0  0  0  0  0  0  0  0  0  0  # atno 6909 bound_to 6896
  144.7184  140.0097  143.6440 H   0  0  0  0  0  0  0  0  0  0  0  0  # atno 7974 bound_to 7965
  154.5918  140.2428  155.7910 H   0  0  0  0  0  0  0  0  0  0  0  0  # atno 8008 bound_to 7997
  156.2252  140.2985  156.0004 H   0  0  0  0  0  0  0  0  0  0  0  0  # atno 8009 bound_to 7997
  155.2360  140.0405  157.2959 H   0  0  0  0  0  0  0  0  0  0  0  0  # atno 8010 bound_to 7997
  139.9369  144.6115  150.8290 H   0  0  0  0  0  0  0  0  0  0  0  0  # atno 10167 bound_to 10162
  157.6829  131.0725  150.5250 H   0  0  0  0  0  0  0  0  0  0  0  0  # atno 10718 bound_to 10713
  154.3463  135.2753  155.2396 H   0  0  0  0  0  0  0  0  0  0  0  0  # atno 10763 bound_to 10752
  154.4645  135.5899  153.6282 H   0  0  0  0  0  0  0  0  0  0  0  0  # atno 10764 bound_to 10752
  152.9853  135.6073  154.3669 H   0  0  0  0  0  0  0  0  0  0  0  0  # atno 10765 bound_to 10752
  141.1554  133.7726  156.9814 H   0  0  0  0  0  0  0  0  0  0  0  0  # atno 11005 bound_to 11000
  146.0268  139.3299  143.0779 LP  0  0  0  0  0  0  0  0  0  0  0  0  # atno 17320 bound_to 7965
  145.8501  140.9533  143.0754 LP  0  0  0  0  0  0  0  0  0  0  0  0  # atno 17321 bound_to 7965
  140.7622  143.3192  151.2661 LP  0  0  0  0  0  0  0  0  0  0  0  0  # atno 17342 bound_to 10162
  139.6736  143.9976  152.2768 LP  0  0  0  0  0  0  0  0  0  0  0  0  # atno 17343 bound_to 10162
  156.5562  130.4244  149.6084 LP  0  0  0  0  0  0  0  0  0  0  0  0  # atno 17370 bound_to 10713
  156.2860  130.7097  151.1934 LP  0  0  0  0  0  0  0  0  0  0  0  0  # atno 17371 bound_to 10713
  140.1063  134.9504  157.1999 LP  0  0  0  0  0  0  0  0  0  0  0  0  # atno 17394 bound_to 11000
  140.3252  134.2872  155.7238 LP  0  0  0  0  0  0  0  0  0  0  0  0  # atno 17395 bound_to 11000

$$$$
