AV-unprocessed.smi:287|AV-procd|sdf|2189|dock10
  -GOLD-   2262021583D 1   1.00000     0.00000
 Structure written by MMmdl.
 55 58  0  0  0  0  0  0  0  0  1 V2000
  141.5141  134.1858  163.2024 C   0  0  0  0  0  0  0  0  0  0  0  0
  142.8764  134.5915  162.7553 C   0  0  0  0  0  0  0  0  0  0  0  0
  144.0517  133.9211  162.5813 C   0  0  0  0  0  0  0  0  0  0  0  0
  145.0230  134.8693  162.1412 C   0  0  0  0  0  0  0  0  0  0  0  0
  146.4839  134.5719  161.8295 C   0  0  1  0  0  0  0  0  0  0  0  0
  147.2423  134.2640  163.1312 C   0  0  0  0  0  0  0  0  0  0  0  0
  146.6510  133.4255  161.0178 O   0  0  0  0  0  0  0  0  0  0  0  0
  147.1730  135.7328  161.0751 C   0  0  0  0  0  0  0  0  0  0  0  0
  146.8219  135.7781  159.6591 N   0  0  0  0  0  0  0  0  0  0  0  0
  147.1596  136.8491  158.9113 C   0  0  0  0  0  0  0  0  0  0  0  0
  146.2073  137.6450  158.3606 N   0  0  0  0  0  0  0  0  0  0  0  0
  146.5672  138.6975  157.6222 C   0  0  0  0  0  0  0  0  0  0  0  0
  147.7955  139.1193  157.3160 N   0  0  0  0  0  0  0  0  0  0  0  0
  148.7618  138.3255  157.8644 C   0  0  0  0  0  0  0  0  0  0  0  0
  148.5188  137.1789  158.6737 C   0  0  0  0  0  0  0  0  0  0  0  0
  149.7223  136.6130  159.0665 N   0  0  0  0  0  0  0  0  0  0  0  0
  150.6228  137.3846  158.5224 C   0  0  0  0  0  0  0  0  0  0  0  0
  150.1404  138.4325  157.7676 N   0  0  0  0  0  0  0  0  0  0  0  0
  150.9779  139.4670  157.0651 C   0  0  2  0  0  0  0  0  0  0  0  0
  151.2770  140.4800  157.9717 O   0  0  0  0  0  0  0  0  0  0  0  0
  150.3763  141.5598  157.7895 C   0  0  1  0  0  0  0  0  0  0  0  0
  150.9717  142.8600  158.3584 C   0  0  0  0  0  0  0  0  0  0  0  0
  150.0331  143.9163  158.3623 O   0  0  0  0  0  0  0  0  0  0  0  0
  150.0244  141.5549  156.2919 C   0  0  2  0  0  0  0  0  0  0  0  0
  148.6667  141.9047  156.1123 O   0  0  0  0  0  0  0  0  0  0  0  0
  150.2774  140.1084  155.8502 C   0  0  1  0  0  0  0  0  0  0  0  0
  151.1188  140.0888  154.7145 O   0  0  0  0  0  0  0  0  0  0  0  0
  144.3406  136.0600  162.0654 C   0  0  0  0  0  0  0  0  0  0  0  0
  144.7182  137.4499  161.6711 C   0  0  0  0  0  0  0  0  0  0  0  0
  143.0403  135.9006  162.4395 O   0  0  0  0  0  0  0  0  0  0  0  0
  151.8861  138.9243  156.7989 H   0  0  0  0  0  0  0  0  0  0  0  0
  149.4926  141.3177  158.3798 H   0  0  0  0  0  0  0  0  0  0  0  0
  150.6513  142.2472  155.7292 H   0  0  0  0  0  0  0  0  0  0  0  0
  149.3659  139.5653  155.6007 H   0  0  0  0  0  0  0  0  0  0  0  0
  141.5006  133.1396  163.5086 H   0  0  0  0  0  0  0  0  0  0  0  0
  140.7895  134.3125  162.3980 H   0  0  0  0  0  0  0  0  0  0  0  0
  141.1897  134.7892  164.0504 H   0  0  0  0  0  0  0  0  0  0  0  0
  144.2028  132.8667  162.7595 H   0  0  0  0  0  0  0  0  0  0  0  0
  147.2039  135.1088  163.8201 H   0  0  0  0  0  0  0  0  0  0  0  0
  148.2938  134.0465  162.9403 H   0  0  0  0  0  0  0  0  0  0  0  0
  146.8143  133.4025  163.6458 H   0  0  0  0  0  0  0  0  0  0  0  0
  145.8881  132.8764  161.1150 H   0  0  0  0  0  0  0  0  0  0  0  0
  146.8432  136.6742  161.5173 H   0  0  0  0  0  0  0  0  0  0  0  0
  148.2565  135.6933  161.1988 H   0  0  0  0  0  0  0  0  0  0  0  0
  146.2150  135.0397  159.3313 H   0  0  0  0  0  0  0  0  0  0  0  0
  145.7558  139.2839  157.2168 H   0  0  0  0  0  0  0  0  0  0  0  0
  151.6798  137.2059  158.6579 H   0  0  0  0  0  0  0  0  0  0  0  0
  151.2962  142.6953  159.3860 H   0  0  0  0  0  0  0  0  0  0  0  0
  151.8526  143.1582  157.7896 H   0  0  0  0  0  0  0  0  0  0  0  0
  149.8414  144.1512  157.4672 H   0  0  0  0  0  0  0  0  0  0  0  0
  148.6106  142.8447  156.0254 H   0  0  0  0  0  0  0  0  0  0  0  0
  151.5523  139.2495  154.6783 H   0  0  0  0  0  0  0  0  0  0  0  0
  145.1786  137.4599  160.6828 H   0  0  0  0  0  0  0  0  0  0  0  0
  145.4286  137.8729  162.3816 H   0  0  0  0  0  0  0  0  0  0  0  0
  143.8453  138.1028  161.6397 H   0  0  0  0  0  0  0  0  0  0  0  0
  1  2  1  0  0  0  0
  1 35  1  0  0  0  0
  1 36  1  0  0  0  0
  1 37  1  0  0  0  0
  2 30  1  0  0  0  0
  2  3  2  0  0  0  0
  3  4  1  0  0  0  0
  3 38  1  0  0  0  0
  4  5  1  0  0  0  0
  4 28  2  0  0  0  0
  5  6  1  0  0  0  0
  5  7  1  0  0  0  0
  5  8  1  0  0  0  0
  6 39  1  0  0  0  0
  6 40  1  0  0  0  0
  6 41  1  0  0  0  0
  7 42  1  0  0  0  0
  8  9  1  0  0  0  0
  8 43  1  0  0  0  0
  8 44  1  0  0  0  0
  9 10  1  0  0  0  0
  9 45  1  0  0  0  0
 10 15  1  0  0  0  0
 10 11  2  0  0  0  0
 11 12  1  0  0  0  0
 12 13  2  0  0  0  0
 12 46  1  0  0  0  0
 13 14  1  0  0  0  0
 14 18  1  0  0  0  0
 14 15  2  0  0  0  0
 15 16  1  0  0  0  0
 16 17  2  0  0  0  0
 17 18  1  0  0  0  0
 17 47  1  0  0  0  0
 18 19  1  0  0  0  0
 19 31  1  0  0  0  0
 19 26  1  0  0  0  0
 19 20  1  0  0  0  0
 20 21  1  0  0  0  0
 21 32  1  0  0  0  0
 21 22  1  0  0  0  0
 21 24  1  0  0  0  0
 22 23  1  0  0  0  0
 22 48  1  0  0  0  0
 22 49  1  0  0  0  0
 23 50  1  0  0  0  0
 24 33  1  0  0  0  0
 24 25  1  0  0  0  0
 24 26  1  0  0  0  0
 25 51  1  0  0  0  0
 26 34  1  0  0  0  0
 26 27  1  0  0  0  0
 27 52  1  0  0  0  0
 28 29  1  0  0  0  0
 28 30  1  0  0  0  0
 29 53  1  0  0  0  0
 29 54  1  0  0  0  0
 29 55  1  0  0  0  0
M  END
> <s_m_source_file>
AV-unprocessed.smi

> <i_m_source_file_index>
287

> <i_lp_mmshare_version>
43012

> <i_f3d_flags>
0

> <s_epik_input>
W0NIM11jMVtjSF1jKGMobzEpW0NIM10pW0NAQF0oW0NIM10pKFtPSF0pW0NIMl1bTkhdYyhuW2NIXW4yKWMoYzIzKW5bY0hdbjNbQ0BASF00T1tDQEhdKFtDSDJdW09IXSlbQ0BASF0oW09IXSlbQ0BIXTRbT0hd

> <s_epik_cmdline>
J2VwaWtfcHl0aG9uJywgJy1waCcsICc3LjAnLCAnLXRuJywgJzgnLCAnLW1hJywgJzIwMCcsICctbWV0YWxfYmluZGluZycsICctaW1hZScsICc8aW5maWxlLm1hZT4nLCAnLW9tYWUnLCAnPG91dGZpbGUubWFlPic=

> <r_lp_tautomer_probability>
1

> <r_epik_Ionization_Penalty>
0.000992612

> <r_epik_Ionization_Penalty_Charging>
0

> <r_epik_Ionization_Penalty_Neutral>
0.000992612

> <r_epik_State_Penalty>
-0

> <r_epik_Charging_Adjusted_Penalty>
0

> <i_epik_Tot_Q>
0

> <i_epik_Tot_abs_Q>
0

> <r_epik_Metal_State_Penalty>
-0

> <b_epik_Metal_Only>
0

> <s_epik_Chemistry_Notes>
This compound contains an acetal/aminal-like group ( X-CH(R)-Y where X, Y are N, S, or O) that may be acid/base labile, releasing an aldehyde.

> <s_lp_Force_Field>
OPLS_2005

> <r_lp_Energy>
40.6201

> <b_lp_Chiralities_Consistent>
1

> <s_lp_Variant>
AV-unprocessed.smi:287-13

> <Gold.Version>
5.8.1

> <Gold.Id.Protein>
6NUR|6NUR_protein|mol2

> <Gold.PLP.Fitness>
49.8889

> <Gold.PLP.PLP>
-41.9443

> <Gold.PLP.part.hbond>
-4.0919

> <Gold.PLP.part.metal>
0.0000

> <Gold.PLP.part.buried>
-6.7622

> <Gold.PLP.part.nonpolar>
-33.0561

> <Gold.PLP.part.repulsive>
0.1161

> <Gold.PLP.ligand.clash>
0.0000

> <Gold.PLP.ligand.torsion>
2.0126

> <Gold.PLP.Chemscore.Hbond>
3.9500

> <Gold.PLP.Chemscore.CHOScore>
0.0000

> <Gold.PLP.Chemscore.Metal>
0.0000

> <Gold.Chemscore.Hbonds>
donor molecule, donor type, donor heavy atom, donor atom, acceptor molecule, acceptor atom, score
      L1  H    23    50       P1  8028  0.84
      L1  H    25    51       P1  8028  1.00
      P1  H  6896  6907       L1    16  0.68
      P1  H  7989  7998       L1    27  1.00

> <Gold.PLP.Chemscore.Internal.Correction>
0.1198

> <Gold.Rescore>
     Score         DG    S(hbond)    S(metal)    S(lipo)     H(rot)  DE(clash)    DE(int)     intcor
      9.58     -13.20       3.11        0.00      92.48       5.27       0.09       3.54       ----

> <Gold.Chemscore.Fitness>
9.5760

> <Gold.Chemscore.DG>
-13.2049

> <Gold.Chemscore.ZeroCoef>
-5.4800

> <Gold.Chemscore.Hbond>
3.1104

> <Gold.Chemscore.Metal>
0.0000

> <Gold.Chemscore.Lipo>
92.4795

> <Gold.Chemscore.Internal_Hbond>
0.0000

> <Gold.Chemscore.DEClash>
0.0923

> <Gold.Chemscore.DEInternal>
3.5367

> <Gold.Chemscore.Rot>
5.2672

> <Gold.Chemscore.Internal.Correction>
   9.000000E+99

> <Gold.Chemscore.Hbonds>
donor molecule, donor type, donor heavy atom, donor atom, acceptor molecule, acceptor atom, score
      L1  H    23    50       P1  8028  0.37
      L1  H    25    51       P1  8028  0.99
      P1  H  6896  6907       L1    16  0.27
      P1  H  7989  7998       L1    27  0.47

> <Gold.Chemscore.Hbond.Weighted>
-10.3888

> <Gold.Chemscore.Metal.Weighted>
-0.0000

> <Gold.Chemscore.Lipo.Weighted>
-10.8201

> <Gold.Chemscore.Internal_Hbond.Weighted>
0.0000

> <Gold.Chemscore.DEClash.Weighted>
0.0923

> <Gold.Chemscore.DEInternal.Weighted>
3.5367

> <Gold.Chemscore.Rot.Weighted>
13.4839

> <Gold.Chemscore.Internal.Correction.Weighted>
   9.000000E+99

> <Gold.Protein.RotatedTorsions>
[ 6907 6896 6895 6894 ] final  -44.66 input  -60.11 | X-H torsion
[ 7974 7965 7964 7962 ] final  -87.15 input  175.53 | X-H torsion
[ 8008 7997 7996 7995 ] final  178.85 input   59.86 | X-H torsion
[ 10167 10162 10161 10158 ] final   98.33 input  -65.29 | X-H torsion
[ 10718 10713 10712 10709 ] final  -17.95 input   66.30 | X-H torsion
[ 10763 10752 10751 10750 ] final  -79.25 input  -60.55 | X-H torsion
[ 11005 11000 10999 10996 ] final  -11.39 input  -57.11 | X-H torsion

> <Gold.Protein.ActiveResidues>
 VAL166  LYS551  ARG553  GLY616  TRP617  ASP618  TYR619  PRO620  LYS621  CYS622 
 ASP623  PHE694  ASN695  SER759  ASP760  ASP761  ALA762  ILE779  LEU786  VAL792 
 PHE793  MET794  SER795  GLU796  ALA797  LYS798  CYS799  TRP800  GLU811  SER814 

> <Gold.Protein.RotatedAtoms>
  150.9304  134.8719  159.7547 H   0  0  0  0  0  0  0  0  0  0  0  0  # atno 6907 bound_to 6896
  152.5035  134.4087  159.9451 H   0  0  0  0  0  0  0  0  0  0  0  0  # atno 6908 bound_to 6896
  151.4114  133.3686  159.2779 H   0  0  0  0  0  0  0  0  0  0  0  0  # atno 6909 bound_to 6896
  145.4704  140.9560  143.1920 H   0  0  0  0  0  0  0  0  0  0  0  0  # atno 7974 bound_to 7965
  156.0500  140.1323  157.0061 H   0  0  0  0  0  0  0  0  0  0  0  0  # atno 8008 bound_to 7997
  154.4430  140.1013  156.6432 H   0  0  0  0  0  0  0  0  0  0  0  0  # atno 8009 bound_to 7997
  155.5538  140.3463  155.4477 H   0  0  0  0  0  0  0  0  0  0  0  0  # atno 8010 bound_to 7997
  139.7719  144.6919  151.0144 H   0  0  0  0  0  0  0  0  0  0  0  0  # atno 10167 bound_to 10162
  156.5663  130.4738  149.6383 H   0  0  0  0  0  0  0  0  0  0  0  0  # atno 10718 bound_to 10713
  154.5363  135.5702  153.6801 H   0  0  0  0  0  0  0  0  0  0  0  0  # atno 10763 bound_to 10752
  152.9952  135.6217  154.2562 H   0  0  0  0  0  0  0  0  0  0  0  0  # atno 10764 bound_to 10752
  154.2491  135.2860  155.2803 H   0  0  0  0  0  0  0  0  0  0  0  0  # atno 10765 bound_to 10752
  140.7548  133.8563  155.9075 H   0  0  0  0  0  0  0  0  0  0  0  0  # atno 11005 bound_to 11000
  144.7949  139.6255  143.7097 LP  0  0  0  0  0  0  0  0  0  0  0  0  # atno 17320 bound_to 7965
  146.2400  139.5982  142.9498 LP  0  0  0  0  0  0  0  0  0  0  0  0  # atno 17321 bound_to 7965
  140.7814  143.4579  151.0319 LP  0  0  0  0  0  0  0  0  0  0  0  0  # atno 17342 bound_to 10162
  139.8263  143.7752  152.3178 LP  0  0  0  0  0  0  0  0  0  0  0  0  # atno 17343 bound_to 10162
  156.2754  130.7041  151.1850 LP  0  0  0  0  0  0  0  0  0  0  0  0  # atno 17370 bound_to 10713
  157.7358  131.0569  150.5451 LP  0  0  0  0  0  0  0  0  0  0  0  0  # atno 17371 bound_to 10713
  140.9718  134.1522  157.4570 LP  0  0  0  0  0  0  0  0  0  0  0  0  # atno 17394 bound_to 11000
  139.8781  134.9981  156.5881 LP  0  0  0  0  0  0  0  0  0  0  0  0  # atno 17395 bound_to 11000

$$$$
