AV-unprocessed.smi:2118|AV-procd|sdf|8629|dock1
  -GOLD-   2272011373D 1   1.00000     0.00000
 Structure written by MMmdl.
 39 40  0  0  0  0  0  0  0  0  2 V2000
  145.5589  135.9453  153.8640 C   0  0  0  0  0  0  0  0  0  0  0  0
  146.6734  136.9896  153.7080 C   0  0  0  0  0  0  0  0  0  0  0  0
  147.7846  136.7985  154.7478 C   0  0  0  0  0  0  0  0  0  0  0  0
  148.8993  137.8455  154.5836 C   0  0  0  0  0  0  0  0  0  0  0  0
  148.3696  139.2244  154.6247 N   0  0  0  0  0  0  0  0  0  0  0  0
  149.5346  140.5016  154.8245 S   0  0  0  0  0  0  0  0  0  0  0  0
  150.8627  139.8885  154.6580 O   0  0  0  0  0  0  0  0  0  0  0  0
  149.1417  141.5542  153.8731 O   0  0  0  0  0  0  0  0  0  0  0  0
  149.2037  140.8572  156.3714 N   0  5  0  0  0  0  0  0  0  0  0  0
  150.3053  141.0800  157.2902 C   0  0  0  0  0  0  0  0  0  0  0  0
  150.8302  142.5220  157.1377 C   0  0  0  0  0  0  0  0  0  0  0  0
  151.0900  143.2241  158.4644 C   0  0  0  0  0  0  0  0  0  0  0  0
  152.0403  142.7196  159.3789 C   0  0  0  0  0  0  0  0  0  0  0  0
  152.2551  143.4088  160.5879 C   0  0  0  0  0  0  0  0  0  0  0  0
  151.5115  144.5801  160.8332 C   0  0  0  0  0  0  0  0  0  0  0  0
  150.6050  145.0786  159.9656 N   0  0  0  0  0  0  0  0  0  0  0  0
  150.4046  144.4115  158.8082 C   0  0  0  0  0  0  0  0  0  0  0  0
  147.2600  139.4592  153.6719 C   0  0  0  0  0  0  0  0  0  0  0  0
  146.1374  138.4214  153.8350 C   0  0  0  0  0  0  0  0  0  0  0  0
  145.0800  136.0183  154.8412 H   0  0  0  0  0  0  0  0  0  0  0  0
  145.9522  134.9335  153.7604 H   0  0  0  0  0  0  0  0  0  0  0  0
  144.7879  136.0781  153.1045 H   0  0  0  0  0  0  0  0  0  0  0  0
  147.1072  136.8702  152.7138 H   0  0  0  0  0  0  0  0  0  0  0  0
  147.3675  136.8686  155.7536 H   0  0  0  0  0  0  0  0  0  0  0  0
  148.2100  135.7982  154.6597 H   0  0  0  0  0  0  0  0  0  0  0  0
  149.6320  137.7068  155.3782 H   0  0  0  0  0  0  0  0  0  0  0  0
  149.4253  137.6974  153.6396 H   0  0  0  0  0  0  0  0  0  0  0  0
  150.0032  140.9230  158.3264 H   0  0  0  0  0  0  0  0  0  0  0  0
  151.1226  140.3816  157.1068 H   0  0  0  0  0  0  0  0  0  0  0  0
  151.7556  142.5204  156.5597 H   0  0  0  0  0  0  0  0  0  0  0  0
  150.1169  143.1172  156.5656 H   0  0  0  0  0  0  0  0  0  0  0  0
  152.5941  141.8185  159.1585 H   0  0  0  0  0  0  0  0  0  0  0  0
  152.9725  143.0481  161.3099 H   0  0  0  0  0  0  0  0  0  0  0  0
  151.6504  145.1331  161.7504 H   0  0  0  0  0  0  0  0  0  0  0  0
  149.6735  144.8370  158.1364 H   0  0  0  0  0  0  0  0  0  0  0  0
  146.8442  140.4564  153.8115 H   0  0  0  0  0  0  0  0  0  0  0  0
  147.6565  139.4280  152.6562 H   0  0  0  0  0  0  0  0  0  0  0  0
  145.3670  138.5997  153.0842 H   0  0  0  0  0  0  0  0  0  0  0  0
  145.6582  138.5548  154.8062 H   0  0  0  0  0  0  0  0  0  0  0  0
  1  2  1  0  0  0  0
  1 20  1  0  0  0  0
  1 21  1  0  0  0  0
  1 22  1  0  0  0  0
  2 19  1  0  0  0  0
  2  3  1  0  0  0  0
  2 23  1  0  0  0  0
  3  4  1  0  0  0  0
  3 24  1  0  0  0  0
  3 25  1  0  0  0  0
  4  5  1  0  0  0  0
  4 26  1  0  0  0  0
  4 27  1  0  0  0  0
  5  6  1  0  0  0  0
  5 18  1  0  0  0  0
  6  7  2  0  0  0  0
  6  8  2  0  0  0  0
  6  9  1  0  0  0  0
  9 10  1  0  0  0  0
 10 11  1  0  0  0  0
 10 28  1  0  0  0  0
 10 29  1  0  0  0  0
 11 12  1  0  0  0  0
 11 30  1  0  0  0  0
 11 31  1  0  0  0  0
 12 17  1  0  0  0  0
 12 13  2  0  0  0  0
 13 14  1  0  0  0  0
 13 32  1  0  0  0  0
 14 15  2  0  0  0  0
 14 33  1  0  0  0  0
 15 16  1  0  0  0  0
 15 34  1  0  0  0  0
 16 17  2  0  0  0  0
 17 35  1  0  0  0  0
 18 19  1  0  0  0  0
 18 36  1  0  0  0  0
 18 37  1  0  0  0  0
 19 38  1  0  0  0  0
 19 39  1  0  0  0  0
M  CHG  1   9  -1
M  END
> <s_m_source_file>
AV-unprocessed.smi

> <i_m_source_file_index>
2118

> <i_lp_mmshare_version>
43012

> <i_f3d_flags>
0

> <s_epik_input>
W0NIM11bQ0hdMVtDSDJdW0NIMl1OKFtDSDJdW0NIMl0xKVMoPU8pKD1PKVtOSF1bQ0gyXVtDSDJdYzJbY0hdW2NIXVtjSF1uW2NIXTI=

> <s_epik_cmdline>
J2VwaWtfcHl0aG9uJywgJy1waCcsICc3LjAnLCAnLXRuJywgJzgnLCAnLW1hJywgJzIwMCcsICctbWV0YWxfYmluZGluZycsICctaW1hZScsICc8aW5maWxlLm1hZT4nLCAnLW9tYWUnLCAnPG91dGZpbGUubWFlPic=

> <r_epik_Ionization_Penalty>
1.98317

> <r_epik_Ionization_Penalty_Charging>
1.95606

> <r_epik_Ionization_Penalty_Neutral>
0.0271171

> <r_epik_State_Penalty>
2.28376

> <r_epik_Charging_Adjusted_Penalty>
4.23982

> <i_epik_Tot_Q>
-1

> <i_epik_Tot_abs_Q>
1

> <r_epik_Metal_State_Penalty>
0.598332

> <b_epik_Metal_Only>
0

> <s_lp_Force_Field>
OPLS_2005

> <r_lp_Energy>
6.66289

> <b_lp_Chiralities_Consistent>
1

> <s_lp_Variant>
AV-unprocessed.smi:2118-2

> <Gold.Version>
5.8.1

> <Gold.Id.Protein>
6NUR|6NUR_protein|mol2

> <Gold.PLP.Fitness>
38.3351

> <Gold.PLP.PLP>
-31.1251

> <Gold.PLP.part.hbond>
-3.0000

> <Gold.PLP.part.metal>
0.0000

> <Gold.PLP.part.buried>
-6.1901

> <Gold.PLP.part.nonpolar>
-23.5515

> <Gold.PLP.part.repulsive>
0.9695

> <Gold.PLP.ligand.clash>
0.0000

> <Gold.PLP.ligand.torsion>
1.3366

> <Gold.PLP.Chemscore.Hbond>
1.7200

> <Gold.PLP.Chemscore.CHOScore>
1.0379

> <Gold.PLP.Chemscore.Metal>
0.0000

> <Gold.Chemscore.Hbonds>
donor molecule, donor type, donor heavy atom, donor atom, acceptor molecule, acceptor atom, score
      P1  H  7989  7998       L1     7  1.00
      P1  H  8011  8017       L1     8  0.69
      L1  C    17    35       P1  8028  0.17
      L1  C    17    35       P1  8029  0.88

> <Gold.PLP.Chemscore.Internal.Correction>
1.6096

> <Gold.Rescore>
     Score         DG    S(hbond)    S(metal)    S(lipo)     H(rot)  DE(clash)    DE(int)     intcor
     15.43     -16.82       1.51        0.00      84.84       1.42       0.02       1.36       ----

> <Gold.Chemscore.Fitness>
15.4323

> <Gold.Chemscore.DG>
-16.8162

> <Gold.Chemscore.ZeroCoef>
-5.4800

> <Gold.Chemscore.Hbond>
1.5116

> <Gold.Chemscore.Metal>
0.0000

> <Gold.Chemscore.Lipo>
84.8444

> <Gold.Chemscore.Internal_Hbond>
0.0000

> <Gold.Chemscore.DEClash>
0.0208

> <Gold.Chemscore.DEInternal>
1.3631

> <Gold.Chemscore.Rot>
1.4216

> <Gold.Chemscore.Internal.Correction>
   9.000000E+99

> <Gold.Chemscore.Hbonds>
donor molecule, donor type, donor heavy atom, donor atom, acceptor molecule, acceptor atom, score
      P1  H  7989  7998       L1     7  0.45
      P1  H  8011  8017       L1     8  0.70

> <Gold.Chemscore.Hbond.Weighted>
-5.0487

> <Gold.Chemscore.Metal.Weighted>
-0.0000

> <Gold.Chemscore.Lipo.Weighted>
-9.9268

> <Gold.Chemscore.Internal_Hbond.Weighted>
0.0000

> <Gold.Chemscore.DEClash.Weighted>
0.0208

> <Gold.Chemscore.DEInternal.Weighted>
1.3631

> <Gold.Chemscore.Rot.Weighted>
3.6392

> <Gold.Chemscore.Internal.Correction.Weighted>
   9.000000E+99

> <Gold.Protein.RotatedTorsions>
[ 6907 6896 6895 6894 ] final  140.00 input  -60.11 | X-H torsion
[ 7974 7965 7964 7962 ] final  122.22 input  175.53 | X-H torsion
[ 8008 7997 7996 7995 ] final -112.65 input   59.86 | X-H torsion
[ 10167 10162 10161 10158 ] final  -21.60 input  -65.29 | X-H torsion
[ 10718 10713 10712 10709 ] final   73.52 input   66.30 | X-H torsion
[ 10763 10752 10751 10750 ] final -165.32 input  -60.55 | X-H torsion
[ 11005 11000 10999 10996 ] final   75.73 input  -57.11 | X-H torsion

> <Gold.Protein.ActiveResidues>
 VAL166  LYS551  ARG553  GLY616  TRP617  ASP618  TYR619  PRO620  LYS621  CYS622 
 ASP623  PHE694  ASN695  SER759  ASP760  ASP761  ALA762  ILE779  LEU786  VAL792 
 PHE793  MET794  SER795  GLU796  ALA797  LYS798  CYS799  TRP800  GLU811  SER814 

> <Gold.Protein.RotatedAtoms>
  152.2482  133.5193  159.5309 H   0  0  0  0  0  0  0  0  0  0  0  0  # atno 6907 bound_to 6896
  150.7085  134.0996  159.3970 H   0  0  0  0  0  0  0  0  0  0  0  0  # atno 6908 bound_to 6896
  151.8916  135.0414  160.0549 H   0  0  0  0  0  0  0  0  0  0  0  0  # atno 6909 bound_to 6896
  145.1102  139.3458  143.4767 H   0  0  0  0  0  0  0  0  0  0  0  0  # atno 7974 bound_to 7965
  155.0086  140.0394  157.2390 H   0  0  0  0  0  0  0  0  0  0  0  0  # atno 8008 bound_to 7997
  154.7480  140.2761  155.6293 H   0  0  0  0  0  0  0  0  0  0  0  0  # atno 8009 bound_to 7997
  156.2879  140.2652  156.2226 H   0  0  0  0  0  0  0  0  0  0  0  0  # atno 8010 bound_to 7997
  140.7282  143.4612  151.0376 H   0  0  0  0  0  0  0  0  0  0  0  0  # atno 10167 bound_to 10162
  157.6551  130.9633  150.1081 H   0  0  0  0  0  0  0  0  0  0  0  0  # atno 10718 bound_to 10713
  154.6943  135.2976  154.9434 H   0  0  0  0  0  0  0  0  0  0  0  0  # atno 10763 bound_to 10752
  154.0387  135.6660  153.4792 H   0  0  0  0  0  0  0  0  0  0  0  0  # atno 10764 bound_to 10752
  153.0634  135.5102  154.8052 H   0  0  0  0  0  0  0  0  0  0  0  0  # atno 10765 bound_to 10752
  139.9330  134.7542  156.1307 H   0  0  0  0  0  0  0  0  0  0  0  0  # atno 11005 bound_to 11000
  146.3526  140.1017  142.8607 LP  0  0  0  0  0  0  0  0  0  0  0  0  # atno 17320 bound_to 7965
  145.0856  140.9250  143.4799 LP  0  0  0  0  0  0  0  0  0  0  0  0  # atno 17321 bound_to 7965
  139.8297  143.7707  152.3179 LP  0  0  0  0  0  0  0  0  0  0  0  0  # atno 17342 bound_to 10162
  139.7819  144.7441  151.0076 LP  0  0  0  0  0  0  0  0  0  0  0  0  # atno 17343 bound_to 10162
  156.1985  130.3659  149.8818 LP  0  0  0  0  0  0  0  0  0  0  0  0  # atno 17370 bound_to 10713
  156.6728  130.8827  151.3564 LP  0  0  0  0  0  0  0  0  0  0  0  0  # atno 17371 bound_to 10713
  141.0930  133.6707  156.2582 LP  0  0  0  0  0  0  0  0  0  0  0  0  # atno 17394 bound_to 11000
  140.6150  134.5420  157.5539 LP  0  0  0  0  0  0  0  0  0  0  0  0  # atno 17395 bound_to 11000

$$$$
