AV-unprocessed.smi:1566|AV-procd|sdf|6305|dock1
  -GOLD-   22720 6503D 1   1.00000     0.00000
 Structure written by MMmdl.
 42 43  0  0  0  0  0  0  0  0  1 V2000
  145.7036  136.8870  152.2197 C   0  0  0  0  0  0  0  0  0  0  0  0
  146.3449  138.2507  151.9320 C   0  0  0  0  0  0  0  0  0  0  0  0
  147.5986  138.4144  152.6587 N   0  0  0  0  0  0  0  0  0  0  0  0
  147.8447  139.3708  153.5652 C   0  0  0  0  0  0  0  0  0  0  0  0
  147.0272  140.2356  153.8800 O   0  0  0  0  0  0  0  0  0  0  0  0
  149.0766  139.2392  154.0862 N   0  0  0  0  0  0  0  0  0  0  0  0
  149.7039  140.0362  155.0810 C   0  0  0  0  0  0  0  0  0  0  0  0
  151.0951  140.0366  155.3407 C   0  0  0  0  0  0  0  0  0  0  0  0
  151.5945  140.8606  156.3675 C   0  0  0  0  0  0  0  0  0  0  0  0
  150.6911  141.6518  157.1062 C   0  0  0  0  0  0  0  0  0  0  0  0
  151.1862  142.4759  158.1262 N   0  0  0  0  0  0  0  0  0  0  0  0
  152.1120  141.7990  159.0233 C   0  0  0  0  0  0  0  0  0  0  0  0
  152.4661  142.7181  160.2063 C   0  0  1  0  0  0  0  0  0  0  0  0
  153.5243  142.0913  161.1198 C   0  0  0  0  0  0  0  0  0  0  0  0
  152.9838  143.9537  159.7107 O   0  0  0  0  0  0  0  0  0  0  0  0
  152.1137  144.6557  158.8185 C   0  0  2  0  0  0  0  0  0  0  0  0
  150.9100  145.2752  159.5507 C   0  0  0  0  0  0  0  0  0  0  0  0
  151.7146  143.7443  157.6408 C   0  0  0  0  0  0  0  0  0  0  0  0
  149.3572  141.6451  156.8728 N   0  0  0  0  0  0  0  0  0  0  0  0
  148.8849  140.8519  155.8885 C   0  0  0  0  0  0  0  0  0  0  0  0
  144.7802  136.7663  151.6529 H   0  0  0  0  0  0  0  0  0  0  0  0
  145.4590  136.7784  153.2768 H   0  0  0  0  0  0  0  0  0  0  0  0
  146.3721  136.0709  151.9437 H   0  0  0  0  0  0  0  0  0  0  0  0
  146.5543  138.3410  150.8661 H   0  0  0  0  0  0  0  0  0  0  0  0
  145.6524  139.0563  152.1819 H   0  0  0  0  0  0  0  0  0  0  0  0
  148.3276  137.7435  152.4646 H   0  0  0  0  0  0  0  0  0  0  0  0
  149.6009  138.4304  153.7864 H   0  0  0  0  0  0  0  0  0  0  0  0
  151.7828  139.4163  154.7870 H   0  0  0  0  0  0  0  0  0  0  0  0
  152.6526  140.8810  156.5848 H   0  0  0  0  0  0  0  0  0  0  0  0
  151.6621  140.8742  159.3873 H   0  0  0  0  0  0  0  0  0  0  0  0
  153.0169  141.5248  158.4787 H   0  0  0  0  0  0  0  0  0  0  0  0
  151.5735  142.9068  160.8031 H   0  0  0  0  0  0  0  0  0  0  0  0
  153.1740  141.1456  161.5341 H   0  0  0  0  0  0  0  0  0  0  0  0
  153.7594  142.7529  161.9538 H   0  0  0  0  0  0  0  0  0  0  0  0
  154.4499  141.8968  160.5772 H   0  0  0  0  0  0  0  0  0  0  0  0
  152.6962  145.4837  158.4139 H   0  0  0  0  0  0  0  0  0  0  0  0
  150.3295  145.9031  158.8745 H   0  0  0  0  0  0  0  0  0  0  0  0
  151.2400  145.9005  160.3803 H   0  0  0  0  0  0  0  0  0  0  0  0
  150.2337  144.5198  159.9494 H   0  0  0  0  0  0  0  0  0  0  0  0
  152.5900  143.5528  157.0186 H   0  0  0  0  0  0  0  0  0  0  0  0
  150.9773  144.2406  157.0085 H   0  0  0  0  0  0  0  0  0  0  0  0
  147.8155  140.8749  155.7376 H   0  0  0  0  0  0  0  0  0  0  0  0
  1  2  1  0  0  0  0
  1 21  1  0  0  0  0
  1 22  1  0  0  0  0
  1 23  1  0  0  0  0
  2  3  1  0  0  0  0
  2 24  1  0  0  0  0
  2 25  1  0  0  0  0
  3  4  1  0  0  0  0
  3 26  1  0  0  0  0
  4  5  2  0  0  0  0
  4  6  1  0  0  0  0
  6  7  1  0  0  0  0
  6 27  1  0  0  0  0
  7 20  1  0  0  0  0
  7  8  2  0  0  0  0
  8  9  1  0  0  0  0
  8 28  1  0  0  0  0
  9 10  2  0  0  0  0
  9 29  1  0  0  0  0
 10 11  1  0  0  0  0
 10 19  1  0  0  0  0
 11 18  1  0  0  0  0
 11 12  1  0  0  0  0
 12 13  1  0  0  0  0
 12 30  1  0  0  0  0
 12 31  1  0  0  0  0
 13 14  1  0  0  0  0
 13 15  1  0  0  0  0
 13 32  1  0  0  0  0
 14 33  1  0  0  0  0
 14 34  1  0  0  0  0
 14 35  1  0  0  0  0
 15 16  1  0  0  0  0
 16 17  1  0  0  0  0
 16 18  1  0  0  0  0
 16 36  1  0  0  0  0
 17 37  1  0  0  0  0
 17 38  1  0  0  0  0
 17 39  1  0  0  0  0
 18 40  1  0  0  0  0
 18 41  1  0  0  0  0
 19 20  2  0  0  0  0
 20 42  1  0  0  0  0
M  END
> <s_m_source_file>
AV-unprocessed.smi

> <i_m_source_file_index>
1566

> <i_lp_mmshare_version>
43012

> <i_f3d_flags>
0

> <s_epik_input>
W0NIM11bQ0gyXVtOSF1DKD1PKVtOSF1jMVtjSF1bY0hdYyhuW2NIXTEpTjJbQ0gyXVtDQEBIXShbQ0gzXSlPW0NAQEhdKFtDSDNdKVtDSDJdMg==

> <s_epik_cmdline>
J2VwaWtfcHl0aG9uJywgJy1waCcsICc3LjAnLCAnLXRuJywgJzgnLCAnLW1hJywgJzIwMCcsICctbWV0YWxfYmluZGluZycsICctaW1hZScsICc8aW5maWxlLm1hZT4nLCAnLW9tYWUnLCAnPG91dGZpbGUubWFlPic=

> <r_lp_tautomer_probability>
1

> <r_epik_Ionization_Penalty>
0.0027066

> <r_epik_Ionization_Penalty_Charging>
0

> <r_epik_Ionization_Penalty_Neutral>
0.0027066

> <r_epik_State_Penalty>
0.00185803

> <r_epik_Charging_Adjusted_Penalty>
0.00185803

> <i_epik_Tot_Q>
0

> <i_epik_Tot_abs_Q>
0

> <r_epik_Metal_State_Penalty>
-0

> <b_epik_Metal_Only>
0

> <s_lp_Force_Field>
OPLS_2005

> <r_lp_Energy>
23.2127

> <b_lp_Chiralities_Consistent>
1

> <s_lp_Variant>
AV-unprocessed.smi:1566-3

> <Gold.Version>
5.8.1

> <Gold.Id.Protein>
6NUR|6NUR_protein|mol2

> <Gold.PLP.Fitness>
44.6026

> <Gold.PLP.PLP>
-42.5139

> <Gold.PLP.part.hbond>
-3.0000

> <Gold.PLP.part.metal>
0.0000

> <Gold.PLP.part.buried>
-1.9087

> <Gold.PLP.part.nonpolar>
-38.7473

> <Gold.PLP.part.repulsive>
0.4778

> <Gold.PLP.ligand.clash>
0.0000

> <Gold.PLP.ligand.torsion>
0.5061

> <Gold.PLP.Chemscore.Hbond>
1.0000

> <Gold.PLP.Chemscore.CHOScore>
0.0000

> <Gold.PLP.Chemscore.Metal>
0.0000

> <Gold.Chemscore.Hbonds>
donor molecule, donor type, donor heavy atom, donor atom, acceptor molecule, acceptor atom, score
      L1  H     3    26       P1  7948  1.00

> <Gold.PLP.Chemscore.Internal.Correction>
0.1010

> <Gold.Rescore>
     Score         DG    S(hbond)    S(metal)    S(lipo)     H(rot)  DE(clash)    DE(int)     intcor
     15.82     -18.07       0.99        0.00     105.35       1.19       0.17       2.08       ----

> <Gold.Chemscore.Fitness>
15.8224

> <Gold.Chemscore.DG>
-18.0686

> <Gold.Chemscore.ZeroCoef>
-5.4800

> <Gold.Chemscore.Hbond>
0.9886

> <Gold.Chemscore.Metal>
0.0000

> <Gold.Chemscore.Lipo>
105.3527

> <Gold.Chemscore.Internal_Hbond>
0.0000

> <Gold.Chemscore.DEClash>
0.1658

> <Gold.Chemscore.DEInternal>
2.0803

> <Gold.Chemscore.Rot>
1.1873

> <Gold.Chemscore.Internal.Correction>
   9.000000E+99

> <Gold.Chemscore.Hbonds>
donor molecule, donor type, donor heavy atom, donor atom, acceptor molecule, acceptor atom, score
      L1  H     3    26       P1  7948  0.98

> <Gold.Chemscore.Hbond.Weighted>
-3.3019

> <Gold.Chemscore.Metal.Weighted>
-0.0000

> <Gold.Chemscore.Lipo.Weighted>
-12.3263

> <Gold.Chemscore.Internal_Hbond.Weighted>
0.0000

> <Gold.Chemscore.DEClash.Weighted>
0.1658

> <Gold.Chemscore.DEInternal.Weighted>
2.0803

> <Gold.Chemscore.Rot.Weighted>
3.0396

> <Gold.Chemscore.Internal.Correction.Weighted>
   9.000000E+99

> <Gold.Protein.RotatedTorsions>
[ 6907 6896 6895 6894 ] final  172.59 input  -60.11 | X-H torsion
[ 7974 7965 7964 7962 ] final -125.16 input  175.53 | X-H torsion
[ 8008 7997 7996 7995 ] final  -61.10 input   59.86 | X-H torsion
[ 10167 10162 10161 10158 ] final -111.64 input  -65.29 | X-H torsion
[ 10718 10713 10712 10709 ] final   24.93 input   66.30 | X-H torsion
[ 10763 10752 10751 10750 ] final  100.97 input  -60.55 | X-H torsion
[ 11005 11000 10999 10996 ] final   44.43 input  -57.11 | X-H torsion

> <Gold.Protein.ActiveResidues>
 VAL166  LYS551  ARG553  GLY616  TRP617  ASP618  TYR619  PRO620  LYS621  CYS622 
 ASP623  PHE694  ASN695  SER759  ASP760  ASP761  ALA762  ILE779  LEU786  VAL792 
 PHE793  MET794  SER795  GLU796  ALA797  LYS798  CYS799  TRP800  GLU811  SER814 

> <Gold.Protein.RotatedAtoms>
  151.7819  133.3350  159.3473 H   0  0  0  0  0  0  0  0  0  0  0  0  # atno 6907 bound_to 6896
  150.7423  134.5923  159.6003 H   0  0  0  0  0  0  0  0  0  0  0  0  # atno 6908 bound_to 6896
  152.3270  134.7309  160.0350 H   0  0  0  0  0  0  0  0  0  0  0  0  # atno 6909 bound_to 6896
  145.0005  140.7816  143.4499 H   0  0  0  0  0  0  0  0  0  0  0  0  # atno 7974 bound_to 7965
  154.4431  140.1025  156.6378 H   0  0  0  0  0  0  0  0  0  0  0  0  # atno 8008 bound_to 7997
  155.5534  140.3486  155.4455 H   0  0  0  0  0  0  0  0  0  0  0  0  # atno 8009 bound_to 7997
  156.0512  140.1304  157.0037 H   0  0  0  0  0  0  0  0  0  0  0  0  # atno 8010 bound_to 7997
  140.1314  143.4358  152.1625 H   0  0  0  0  0  0  0  0  0  0  0  0  # atno 10167 bound_to 10162
  157.1865  130.6826  149.6133 H   0  0  0  0  0  0  0  0  0  0  0  0  # atno 10718 bound_to 10713
  153.3207  135.4060  155.1414 H   0  0  0  0  0  0  0  0  0  0  0  0  # atno 10763 bound_to 10752
  154.8599  135.3587  154.5600 H   0  0  0  0  0  0  0  0  0  0  0  0  # atno 10764 bound_to 10752
  153.6034  135.7070  153.5434 H   0  0  0  0  0  0  0  0  0  0  0  0  # atno 10765 bound_to 10752
  140.1553  134.4410  155.8354 H   0  0  0  0  0  0  0  0  0  0  0  0  # atno 11005 bound_to 11000
  145.2159  139.2182  143.5118 LP  0  0  0  0  0  0  0  0  0  0  0  0  # atno 17320 bound_to 7965
  146.3451  140.2007  142.8589 LP  0  0  0  0  0  0  0  0  0  0  0  0  # atno 17321 bound_to 7965
  139.5518  144.7343  151.4413 LP  0  0  0  0  0  0  0  0  0  0  0  0  # atno 17342 bound_to 10162
  140.6815  143.8071  150.7128 LP  0  0  0  0  0  0  0  0  0  0  0  0  # atno 17343 bound_to 10162
  155.9717  130.4629  150.6162 LP  0  0  0  0  0  0  0  0  0  0  0  0  # atno 17370 bound_to 10713
  157.3902  131.0794  151.1400 LP  0  0  0  0  0  0  0  0  0  0  0  0  # atno 17371 bound_to 10713
  141.2203  133.6890  156.7496 LP  0  0  0  0  0  0  0  0  0  0  0  0  # atno 17394 bound_to 11000
  140.2555  134.8507  157.3709 LP  0  0  0  0  0  0  0  0  0  0  0  0  # atno 17395 bound_to 11000

$$$$
