AV-unprocessed.smi:1832|AV-procd|sdf|7464|dock8
  -GOLD-   22720 9153D 1   1.00000     0.00000
 Structure written by MMmdl.
 35 35  0  0  0  0  0  0  0  0  1 V2000
  151.8448  145.3803  160.0820 C   0  0  0  0  0  0  0  0  0  0  0  0
  151.3806  144.1758  159.2565 C   0  0  0  0  0  0  0  0  0  0  0  0
  151.6047  144.3765  157.7490 C   0  0  0  0  0  0  0  0  0  0  0  0
  150.9783  143.3184  156.9653 N   0  0  0  0  0  0  0  0  0  0  0  0
  151.1716  142.0036  157.1490 C   0  0  0  0  0  0  0  0  0  0  0  0
  151.9272  141.5469  158.0083 O   0  0  0  0  0  0  0  0  0  0  0  0
  150.4044  141.0732  156.1983 C   0  0  0  0  0  0  0  0  0  0  0  0
  149.0059  141.4830  155.9840 N   0  0  0  0  0  0  0  0  0  0  0  0
  148.2382  141.7627  157.1323 C   0  0  0  0  0  0  0  0  0  0  0  0
  146.9467  142.1541  157.0580 C   0  0  0  0  0  0  0  0  0  0  0  0
  146.1247  142.4630  158.2318 C   0  0  0  0  0  0  0  0  0  0  0  0
  146.4019  142.1161  159.3807 O   0  0  0  0  0  0  0  0  0  0  0  0
  145.0147  143.1704  157.9588 N   0  0  0  0  0  0  0  0  0  0  0  0
  144.0392  143.5915  158.9527 C   0  0  0  0  0  0  0  0  0  0  0  0
  146.3649  142.2754  155.7351 C   0  0  0  0  0  0  0  0  0  0  0  0
  147.0953  142.0151  154.6332 C   0  0  0  0  0  0  0  0  0  0  0  0
  148.4976  141.5984  154.7197 C   0  0  0  0  0  0  0  0  0  0  0  0
  149.1737  141.3669  153.7170 O   0  0  0  0  0  0  0  0  0  0  0  0
  151.6759  145.2111  161.1456 H   0  0  0  0  0  0  0  0  0  0  0  0
  151.3031  146.2830  159.7986 H   0  0  0  0  0  0  0  0  0  0  0  0
  152.9094  145.5684  159.9401 H   0  0  0  0  0  0  0  0  0  0  0  0
  151.9128  143.2847  159.5912 H   0  0  0  0  0  0  0  0  0  0  0  0
  150.3232  143.9960  159.4540 H   0  0  0  0  0  0  0  0  0  0  0  0
  151.2292  145.3511  157.4318 H   0  0  0  0  0  0  0  0  0  0  0  0
  152.6726  144.3700  157.5291 H   0  0  0  0  0  0  0  0  0  0  0  0
  150.3454  143.6075  156.2333 H   0  0  0  0  0  0  0  0  0  0  0  0
  150.9321  141.0173  155.2442 H   0  0  0  0  0  0  0  0  0  0  0  0
  150.4476  140.0617  156.6044 H   0  0  0  0  0  0  0  0  0  0  0  0
  148.7832  141.6442  158.0578 H   0  0  0  0  0  0  0  0  0  0  0  0
  144.8358  143.4275  156.9990 H   0  0  0  0  0  0  0  0  0  0  0  0
  143.2302  144.1394  158.4696 H   0  0  0  0  0  0  0  0  0  0  0  0
  144.4985  144.2452  159.6952 H   0  0  0  0  0  0  0  0  0  0  0  0
  143.6091  142.7295  159.4643 H   0  0  0  0  0  0  0  0  0  0  0  0
  145.3346  142.5792  155.6165 H   0  0  0  0  0  0  0  0  0  0  0  0
  146.6370  142.1153  153.6604 H   0  0  0  0  0  0  0  0  0  0  0  0
  1  2  1  0  0  0  0
  1 19  1  0  0  0  0
  1 20  1  0  0  0  0
  1 21  1  0  0  0  0
  2  3  1  0  0  0  0
  2 22  1  0  0  0  0
  2 23  1  0  0  0  0
  3  4  1  0  0  0  0
  3 24  1  0  0  0  0
  3 25  1  0  0  0  0
  4  5  1  0  0  0  0
  4 26  1  0  0  0  0
  5  6  2  0  0  0  0
  5  7  1  0  0  0  0
  7  8  1  0  0  0  0
  7 27  1  0  0  0  0
  7 28  1  0  0  0  0
  8 17  1  0  0  0  0
  8  9  1  0  0  0  0
  9 10  2  0  0  0  0
  9 29  1  0  0  0  0
 10 11  1  0  0  0  0
 10 15  1  0  0  0  0
 11 12  2  0  0  0  0
 11 13  1  0  0  0  0
 13 14  1  0  0  0  0
 13 30  1  0  0  0  0
 14 31  1  0  0  0  0
 14 32  1  0  0  0  0
 14 33  1  0  0  0  0
 15 16  2  0  0  0  0
 15 34  1  0  0  0  0
 16 17  1  0  0  0  0
 16 35  1  0  0  0  0
 17 18  2  0  0  0  0
M  END
> <s_m_source_file>
AV-unprocessed.smi

> <i_m_source_file_index>
1832

> <i_lp_mmshare_version>
43012

> <i_f3d_flags>
0

> <s_epik_input>
W0NIM11bQ0gyXVtDSDJdW05IXUMoPU8pW0NIMl1uMVtjSF1jKEMoPU8pW05IXVtDSDNdKVtjSF1bY0hdYzE9Tw==

> <s_epik_cmdline>
J2VwaWtfcHl0aG9uJywgJy1waCcsICc3LjAnLCAnLXRuJywgJzgnLCAnLW1hJywgJzIwMCcsICctbWV0YWxfYmluZGluZycsICctaW1hZScsICc8aW5maWxlLm1hZT4nLCAnLW9tYWUnLCAnPG91dGZpbGUubWFlPic=

> <r_lp_tautomer_probability>
1

> <r_epik_Ionization_Penalty>
3.67838e-07

> <r_epik_Ionization_Penalty_Charging>
4.72549e-08

> <r_epik_Ionization_Penalty_Neutral>
3.20583e-07

> <r_epik_State_Penalty>
-0

> <r_epik_Charging_Adjusted_Penalty>
4.72549e-08

> <i_epik_Tot_Q>
0

> <i_epik_Tot_abs_Q>
0

> <r_epik_Metal_State_Penalty>
-0

> <b_epik_Metal_Only>
0

> <s_lp_Force_Field>
OPLS_2005

> <r_lp_Energy>
14.7098

> <b_lp_Chiralities_Consistent>
1

> <s_lp_Variant>
AV-unprocessed.smi:1832-1

> <Gold.Version>
5.8.1

> <Gold.Id.Protein>
6NUR|6NUR_protein|mol2

> <Gold.PLP.Fitness>
41.2297

> <Gold.PLP.PLP>
-33.7787

> <Gold.PLP.part.hbond>
-4.0000

> <Gold.PLP.part.metal>
0.0000

> <Gold.PLP.part.buried>
-5.9613

> <Gold.PLP.part.nonpolar>
-26.2991

> <Gold.PLP.part.repulsive>
1.7972

> <Gold.PLP.ligand.clash>
0.0000

> <Gold.PLP.ligand.torsion>
0.5025

> <Gold.PLP.Chemscore.Hbond>
2.8080

> <Gold.PLP.Chemscore.CHOScore>
0.0000

> <Gold.PLP.Chemscore.Metal>
0.0000

> <Gold.Chemscore.Hbonds>
donor molecule, donor type, donor heavy atom, donor atom, acceptor molecule, acceptor atom, score
      L1  H     4    26       P1  8028  0.98
      P1  H  6934  6946       L1    12  1.00
      P1  H  8011  8017       L1    18  0.83

> <Gold.PLP.Chemscore.Internal.Correction>
0.0320

> <Gold.Rescore>
     Score         DG    S(hbond)    S(metal)    S(lipo)     H(rot)  DE(clash)    DE(int)     intcor
     14.67     -16.98       2.76        0.00      58.36       1.78       0.78       1.53       ----

> <Gold.Chemscore.Fitness>
14.6667

> <Gold.Chemscore.DG>
-16.9832

> <Gold.Chemscore.ZeroCoef>
-5.4800

> <Gold.Chemscore.Hbond>
2.7631

> <Gold.Chemscore.Metal>
0.0000

> <Gold.Chemscore.Lipo>
58.3552

> <Gold.Chemscore.Internal_Hbond>
0.0000

> <Gold.Chemscore.DEClash>
0.7820

> <Gold.Chemscore.DEInternal>
1.5345

> <Gold.Chemscore.Rot>
1.7785

> <Gold.Chemscore.Internal.Correction>
   9.000000E+99

> <Gold.Chemscore.Hbonds>
donor molecule, donor type, donor heavy atom, donor atom, acceptor molecule, acceptor atom, score
      L1  H     4    26       P1  8028  0.93
      P1  H  6934  6946       L1    12  0.96
      P1  H  7989  7998       L1    18  0.01
      P1  H  8011  8017       L1    18  0.83

> <Gold.Chemscore.Hbond.Weighted>
-9.2287

> <Gold.Chemscore.Metal.Weighted>
-0.0000

> <Gold.Chemscore.Lipo.Weighted>
-6.8276

> <Gold.Chemscore.Internal_Hbond.Weighted>
0.0000

> <Gold.Chemscore.DEClash.Weighted>
0.7820

> <Gold.Chemscore.DEInternal.Weighted>
1.5345

> <Gold.Chemscore.Rot.Weighted>
4.5530

> <Gold.Chemscore.Internal.Correction.Weighted>
   9.000000E+99

> <Gold.Protein.RotatedTorsions>
[ 6907 6896 6895 6894 ] final   69.72 input  -60.11 | X-H torsion
[ 7974 7965 7964 7962 ] final   21.32 input  175.53 | X-H torsion
[ 8008 7997 7996 7995 ] final  -71.24 input   59.86 | X-H torsion
[ 10167 10162 10161 10158 ] final  -92.08 input  -65.29 | X-H torsion
[ 10718 10713 10712 10709 ] final  -66.64 input   66.30 | X-H torsion
[ 10763 10752 10751 10750 ] final   39.15 input  -60.55 | X-H torsion
[ 11005 11000 10999 10996 ] final   83.59 input  -57.11 | X-H torsion

> <Gold.Protein.ActiveResidues>
 VAL166  LYS551  ARG553  GLY616  TRP617  ASP618  TYR619  PRO620  LYS621  CYS622 
 ASP623  PHE694  ASN695  SER759  ASP760  ASP761  ALA762  ILE779  LEU786  VAL792 
 PHE793  MET794  SER795  GLU796  ALA797  LYS798  CYS799  TRP800  GLU811  SER814 

> <Gold.Protein.RotatedAtoms>
  152.4704  134.4974  159.9713 H   0  0  0  0  0  0  0  0  0  0  0  0  # atno 6907 bound_to 6896
  151.5002  133.3500  159.2875 H   0  0  0  0  0  0  0  0  0  0  0  0  # atno 6908 bound_to 6896
  150.8711  134.8113  159.7217 H   0  0  0  0  0  0  0  0  0  0  0  0  # atno 6909 bound_to 6896
  146.2076  139.8044  142.8714 H   0  0  0  0  0  0  0  0  0  0  0  0  # atno 7974 bound_to 7965
  154.5073  140.0819  156.7920 H   0  0  0  0  0  0  0  0  0  0  0  0  # atno 8008 bound_to 7997
  155.3865  140.3430  155.4231 H   0  0  0  0  0  0  0  0  0  0  0  0  # atno 8009 bound_to 7997
  156.1531  140.1564  156.8725 H   0  0  0  0  0  0  0  0  0  0  0  0  # atno 8010 bound_to 7997
  140.3384  143.2955  151.9862 H   0  0  0  0  0  0  0  0  0  0  0  0  # atno 10167 bound_to 10162
  156.0601  130.4265  150.1738 H   0  0  0  0  0  0  0  0  0  0  0  0  # atno 10718 bound_to 10713
  152.9977  135.6229  154.2419 H   0  0  0  0  0  0  0  0  0  0  0  0  # atno 10763 bound_to 10752
  154.2159  135.2798  155.2943 H   0  0  0  0  0  0  0  0  0  0  0  0  # atno 10764 bound_to 10752
  154.5568  135.5717  153.7030 H   0  0  0  0  0  0  0  0  0  0  0  0  # atno 10765 bound_to 10752
  139.9026  134.8156  156.2330 H   0  0  0  0  0  0  0  0  0  0  0  0  # atno 11005 bound_to 11000
  145.3262  141.0256  143.3472 LP  0  0  0  0  0  0  0  0  0  0  0  0  # atno 17320 bound_to 7965
  144.8831  139.4876  143.6713 LP  0  0  0  0  0  0  0  0  0  0  0  0  # atno 17321 bound_to 7965
  139.4844  144.6177  151.7315 LP  0  0  0  0  0  0  0  0  0  0  0  0  # atno 17342 bound_to 10162
  140.5331  144.0698  150.6061 LP  0  0  0  0  0  0  0  0  0  0  0  0  # atno 17343 bound_to 10162
  156.9808  130.9863  151.3438 LP  0  0  0  0  0  0  0  0  0  0  0  0  # atno 17370 bound_to 10713
  157.5603  130.8241  149.8257 LP  0  0  0  0  0  0  0  0  0  0  0  0  # atno 17371 bound_to 10713
  141.0333  133.6977  156.1468 LP  0  0  0  0  0  0  0  0  0  0  0  0  # atno 17394 bound_to 11000
  140.7064  134.4508  157.5584 LP  0  0  0  0  0  0  0  0  0  0  0  0  # atno 17395 bound_to 11000

$$$$
