AV-unprocessed.smi:2974|AV-procd|sdf|11354|dock2
  -GOLD-   2272016273D 1   1.00000     0.00000
 Structure written by MMmdl.
 26 27  0  0  0  0  0  0  0  0  2 V2000
  153.5549  138.2360  155.3991 O   0  0  0  0  0  0  0  0  0  0  0  0
  152.3159  138.2171  155.2223 C   0  0  0  0  0  0  0  0  0  0  0  0
  151.7200  137.2064  154.7857 O   0  5  0  0  0  0  0  0  0  0  0  0
  151.5169  139.4514  155.5459 C   0  0  0  0  0  0  0  0  0  0  0  0
  151.8433  140.2404  156.6748 C   0  0  0  0  0  0  0  0  0  0  0  0
  151.0744  141.3922  156.9538 C   0  0  0  0  0  0  0  0  0  0  0  0
  151.3410  142.2174  158.0551 N   0  0  0  0  0  0  0  0  0  0  0  0
  152.2833  141.6298  158.9989 C   0  0  0  0  0  0  0  0  0  0  0  0
  152.4315  142.5411  160.2298 C   0  0  0  0  0  0  0  0  0  0  0  0
  152.8230  143.8470  159.8143 O   0  0  0  0  0  0  0  0  0  0  0  0
  151.8621  144.4435  158.9472 C   0  0  0  0  0  0  0  0  0  0  0  0
  151.7002  143.5802  157.6838 C   0  0  0  0  0  0  0  0  0  0  0  0
  150.0070  141.7111  156.0927 C   0  0  0  0  0  0  0  0  0  0  0  0
  149.7571  140.8680  154.9938 C   0  0  0  0  0  0  0  0  0  0  0  0
  150.4880  139.7674  154.7227 N   0  0  0  0  0  0  0  0  0  0  0  0
  152.6678  139.9690  157.3181 H   0  0  0  0  0  0  0  0  0  0  0  0
  151.9345  140.6420  159.3034 H   0  0  0  0  0  0  0  0  0  0  0  0
  153.2541  141.4963  158.5196 H   0  0  0  0  0  0  0  0  0  0  0  0
  151.4971  142.5920  160.7910 H   0  0  0  0  0  0  0  0  0  0  0  0
  153.1880  142.1408  160.9049 H   0  0  0  0  0  0  0  0  0  0  0  0
  150.9089  144.5557  159.4664 H   0  0  0  0  0  0  0  0  0  0  0  0
  152.1988  145.4446  158.6780 H   0  0  0  0  0  0  0  0  0  0  0  0
  152.6326  143.5779  157.1176 H   0  0  0  0  0  0  0  0  0  0  0  0
  150.9301  144.0025  157.0369 H   0  0  0  0  0  0  0  0  0  0  0  0
  149.3920  142.5817  156.2679 H   0  0  0  0  0  0  0  0  0  0  0  0
  148.9467  141.0837  154.3136 H   0  0  0  0  0  0  0  0  0  0  0  0
  1  2  2  0  0  0  0
  2  3  1  0  0  0  0
  2  4  1  0  0  0  0
  4 15  1  0  0  0  0
  4  5  2  0  0  0  0
  5  6  1  0  0  0  0
  5 16  1  0  0  0  0
  6  7  1  0  0  0  0
  6 13  2  0  0  0  0
  7 12  1  0  0  0  0
  7  8  1  0  0  0  0
  8  9  1  0  0  0  0
  8 17  1  0  0  0  0
  8 18  1  0  0  0  0
  9 10  1  0  0  0  0
  9 19  1  0  0  0  0
  9 20  1  0  0  0  0
 10 11  1  0  0  0  0
 11 12  1  0  0  0  0
 11 21  1  0  0  0  0
 11 22  1  0  0  0  0
 12 23  1  0  0  0  0
 12 24  1  0  0  0  0
 13 14  1  0  0  0  0
 13 25  1  0  0  0  0
 14 15  2  0  0  0  0
 14 26  1  0  0  0  0
M  CHG  1   3  -1
M  END
> <s_m_source_file>
AV-unprocessed.smi

> <i_m_source_file_index>
2974

> <i_lp_mmshare_version>
43012

> <i_f3d_flags>
0

> <s_epik_input>
Tz1DKFtPSF0pYzFbY0hdYyhbY0hdW2NIXW4xKU4yW0NIMl1bQ0gyXU9bQ0gyXVtDSDJdMg==

> <s_epik_cmdline>
J2VwaWtfcHl0aG9uJywgJy1waCcsICc3LjAnLCAnLXRuJywgJzgnLCAnLW1hJywgJzIwMCcsICctbWV0YWxfYmluZGluZycsICctaW1hZScsICc8aW5maWxlLm1hZT4nLCAnLW9tYWUnLCAnPG91dGZpbGUubWFlPic=

> <r_epik_Ionization_Penalty>
1.89136

> <r_epik_Ionization_Penalty_Charging>
0.000208402

> <r_epik_Ionization_Penalty_Neutral>
1.89115

> <r_epik_State_Penalty>
2.01169

> <r_epik_Charging_Adjusted_Penalty>
2.0119

> <i_epik_Tot_Q>
-1

> <i_epik_Tot_abs_Q>
1

> <r_epik_Metal_State_Penalty>
0.0168368

> <b_epik_Metal_Only>
0

> <s_lp_Force_Field>
OPLS_2005

> <r_lp_Energy>
22.2384

> <b_lp_Chiralities_Consistent>
1

> <s_lp_Variant>
AV-unprocessed.smi:2974-2

> <Gold.Version>
5.8.1

> <Gold.Id.Protein>
6NUR|6NUR_protein|mol2

> <Gold.PLP.Fitness>
45.5778

> <Gold.PLP.PLP>
-35.3832

> <Gold.PLP.part.hbond>
-3.0000

> <Gold.PLP.part.metal>
0.0000

> <Gold.PLP.part.buried>
-4.6818

> <Gold.PLP.part.nonpolar>
-28.0254

> <Gold.PLP.part.repulsive>
0.2821

> <Gold.PLP.ligand.clash>
0.2460

> <Gold.PLP.ligand.torsion>
0.6985

> <Gold.PLP.Chemscore.Hbond>
3.9135

> <Gold.PLP.Chemscore.CHOScore>
0.0000

> <Gold.PLP.Chemscore.Metal>
0.0000

> <Gold.Chemscore.Hbonds>
donor molecule, donor type, donor heavy atom, donor atom, acceptor molecule, acceptor atom, score
      P1  H  7989  7998       L1    15  0.32
      P1  H  7997  8008       L1     1  0.76
      P1  H 10752 10765       L1     3  2.00

> <Gold.PLP.Chemscore.Internal.Correction>
0.0971

> <Gold.Rescore>
     Score         DG    S(hbond)    S(metal)    S(lipo)     H(rot)  DE(clash)    DE(int)     intcor
     17.13     -17.82       1.69        0.00      79.20       1.00       0.02       0.67       ----

> <Gold.Chemscore.Fitness>
17.1327

> <Gold.Chemscore.DG>
-17.8172

> <Gold.Chemscore.ZeroCoef>
-5.4800

> <Gold.Chemscore.Hbond>
1.6858

> <Gold.Chemscore.Metal>
0.0000

> <Gold.Chemscore.Lipo>
79.2013

> <Gold.Chemscore.Internal_Hbond>
0.0000

> <Gold.Chemscore.DEClash>
0.0163

> <Gold.Chemscore.DEInternal>
0.6682

> <Gold.Chemscore.Rot>
1.0000

> <Gold.Chemscore.Internal.Correction>
   9.000000E+99

> <Gold.Chemscore.Hbonds>
donor molecule, donor type, donor heavy atom, donor atom, acceptor molecule, acceptor atom, score
      P1  H  7997  8008       L1     1  0.38
      P1  H 10752 10765       L1     3  0.78

> <Gold.Chemscore.Hbond.Weighted>
-5.6306

> <Gold.Chemscore.Metal.Weighted>
-0.0000

> <Gold.Chemscore.Lipo.Weighted>
-9.2666

> <Gold.Chemscore.Internal_Hbond.Weighted>
0.0000

> <Gold.Chemscore.DEClash.Weighted>
0.0163

> <Gold.Chemscore.DEInternal.Weighted>
0.6682

> <Gold.Chemscore.Rot.Weighted>
2.5600

> <Gold.Chemscore.Internal.Correction.Weighted>
   9.000000E+99

> <Gold.Protein.RotatedTorsions>
[ 6907 6896 6895 6894 ] final -127.45 input  -60.11 | X-H torsion
[ 7974 7965 7964 7962 ] final  170.98 input  175.53 | X-H torsion
[ 8008 7997 7996 7995 ] final  -10.11 input   59.86 | X-H torsion
[ 10167 10162 10161 10158 ] final  109.03 input  -65.29 | X-H torsion
[ 10718 10713 10712 10709 ] final  103.24 input   66.30 | X-H torsion
[ 10763 10752 10751 10750 ] final  161.36 input  -60.55 | X-H torsion
[ 11005 11000 10999 10996 ] final -164.47 input  -57.11 | X-H torsion

> <Gold.Protein.ActiveResidues>
 VAL166  LYS551  ARG553  GLY616  TRP617  ASP618  TYR619  PRO620  LYS621  CYS622 
 ASP623  PHE694  ASN695  SER759  ASP760  ASP761  ALA762  ILE779  LEU786  VAL792 
 PHE793  MET794  SER795  GLU796  ALA797  LYS798  CYS799  TRP800  GLU811  SER814 

> <Gold.Protein.RotatedAtoms>
  150.9074  133.7041  159.2863 H   0  0  0  0  0  0  0  0  0  0  0  0  # atno 6907 bound_to 6896
  151.4539  135.1031  159.9715 H   0  0  0  0  0  0  0  0  0  0  0  0  # atno 6908 bound_to 6896
  152.4911  133.8453  159.7229 H   0  0  0  0  0  0  0  0  0  0  0  0  # atno 6909 bound_to 6896
  144.7308  139.9282  143.6423 H   0  0  0  0  0  0  0  0  0  0  0  0  # atno 7974 bound_to 7965
  154.5584  140.2337  155.8373 H   0  0  0  0  0  0  0  0  0  0  0  0  # atno 8008 bound_to 7997
  156.2008  140.3053  155.9483 H   0  0  0  0  0  0  0  0  0  0  0  0  # atno 8009 bound_to 7997
  155.2935  140.0428  157.3015 H   0  0  0  0  0  0  0  0  0  0  0  0  # atno 8010 bound_to 7997
  139.6799  144.7119  151.1534 H   0  0  0  0  0  0  0  0  0  0  0  0  # atno 10167 bound_to 10162
  157.6778  131.0774  150.5525 H   0  0  0  0  0  0  0  0  0  0  0  0  # atno 10718 bound_to 10713
  154.2618  135.2768  155.2775 H   0  0  0  0  0  0  0  0  0  0  0  0  # atno 10763 bound_to 10752
  154.5377  135.5711  153.6816 H   0  0  0  0  0  0  0  0  0  0  0  0  # atno 10764 bound_to 10752
  152.9961  135.6243  154.2769 H   0  0  0  0  0  0  0  0  0  0  0  0  # atno 10765 bound_to 10752
  140.5866  134.5088  157.5186 H   0  0  0  0  0  0  0  0  0  0  0  0  # atno 11005 bound_to 11000
  146.0878  139.3866  143.0425 LP  0  0  0  0  0  0  0  0  0  0  0  0  # atno 17320 bound_to 7965
  145.7753  140.9879  143.1128 LP  0  0  0  0  0  0  0  0  0  0  0  0  # atno 17321 bound_to 7965
  140.7648  143.5715  150.8991 LP  0  0  0  0  0  0  0  0  0  0  0  0  # atno 17342 bound_to 10162
  139.9386  143.6408  152.3059 LP  0  0  0  0  0  0  0  0  0  0  0  0  # atno 17343 bound_to 10162
  156.5829  130.4309  149.5969 LP  0  0  0  0  0  0  0  0  0  0  0  0  # atno 17370 bound_to 10713
  156.2646  130.6982  151.1761 LP  0  0  0  0  0  0  0  0  0  0  0  0  # atno 17371 bound_to 10713
  139.9293  134.7995  156.0977 LP  0  0  0  0  0  0  0  0  0  0  0  0  # atno 17394 bound_to 11000
  141.0962  133.6694  156.2651 LP  0  0  0  0  0  0  0  0  0  0  0  0  # atno 17395 bound_to 11000

$$$$
