AV-unprocessed.smi:2416|AV-procd|sdf|9545|dock5
  -GOLD-   2272013173D 1   1.00000     0.00000
 Structure written by MMmdl.
 40 41  0  0  0  0  0  0  0  0  1 V2000
  146.2647  142.9387  154.2093 C   0  0  0  0  0  0  0  0  0  0  0  0
  146.6442  141.7232  154.8428 O   0  0  0  0  0  0  0  0  0  0  0  0
  147.7571  141.0093  154.2862 C   0  0  2  0  0  0  0  0  0  0  0  0
  149.0515  141.8148  154.4550 C   0  0  0  0  0  0  0  0  0  0  0  0
  147.3905  140.4504  152.8976 C   0  0  0  0  0  0  0  0  0  0  0  0
  146.7389  139.2761  153.6251 C   0  0  1  0  0  0  0  0  0  0  0  0
  146.9306  138.0051  152.9337 N   0  0  0  0  0  0  0  0  0  0  0  0
  145.9476  137.1313  152.6758 C   0  0  0  0  0  0  0  0  0  0  0  0
  144.7758  137.3144  153.0069 O   0  0  0  0  0  0  0  0  0  0  0  0
  146.4120  136.0514  152.0221 N   0  0  0  0  0  0  0  0  0  0  0  0
  145.6837  134.9170  151.5734 C   0  0  0  0  0  0  0  0  0  0  0  0
  146.4757  133.8475  151.0966 C   0  0  0  0  0  0  0  0  0  0  0  0
  145.8490  132.6768  150.6262 C   0  0  0  0  0  0  0  0  0  0  0  0
  144.4447  132.6072  150.6466 C   0  0  0  0  0  0  0  0  0  0  0  0
  143.7976  131.5028  150.2049 F   0  0  0  0  0  0  0  0  0  0  0  0
  143.7297  133.7146  151.1386 C   0  0  0  0  0  0  0  0  0  0  0  0
  144.3293  134.8373  151.5889 N   0  0  0  0  0  0  0  0  0  0  0  0
  147.7086  139.5352  154.8072 C   0  0  0  0  0  0  0  0  0  0  0  0
  149.0448  138.7686  154.7886 C   0  0  0  0  0  0  0  0  0  0  0  0
  147.1270  139.3216  156.2092 C   0  0  0  0  0  0  0  0  0  0  0  0
  145.3186  143.2779  154.6309 H   0  0  0  0  0  0  0  0  0  0  0  0
  146.1249  142.8227  153.1351 H   0  0  0  0  0  0  0  0  0  0  0  0
  146.9960  143.7273  154.3845 H   0  0  0  0  0  0  0  0  0  0  0  0
  149.9252  141.2496  154.1326 H   0  0  0  0  0  0  0  0  0  0  0  0
  149.2100  142.0952  155.4965 H   0  0  0  0  0  0  0  0  0  0  0  0
  149.0456  142.7270  153.8587 H   0  0  0  0  0  0  0  0  0  0  0  0
  146.6983  141.0486  152.3058 H   0  0  0  0  0  0  0  0  0  0  0  0
  148.2660  140.1700  152.3092 H   0  0  0  0  0  0  0  0  0  0  0  0
  145.6969  139.4886  153.8762 H   0  0  0  0  0  0  0  0  0  0  0  0
  147.8673  137.7832  152.6299 H   0  0  0  0  0  0  0  0  0  0  0  0
  147.3999  136.0424  151.8166 H   0  0  0  0  0  0  0  0  0  0  0  0
  147.5535  133.9191  151.0881 H   0  0  0  0  0  0  0  0  0  0  0  0
  146.4359  131.8489  150.2565 H   0  0  0  0  0  0  0  0  0  0  0  0
  142.6504  133.7004  151.1716 H   0  0  0  0  0  0  0  0  0  0  0  0
  148.9023  137.7062  154.9890 H   0  0  0  0  0  0  0  0  0  0  0  0
  149.7335  139.1479  155.5443 H   0  0  0  0  0  0  0  0  0  0  0  0
  149.5509  138.8452  153.8263 H   0  0  0  0  0  0  0  0  0  0  0  0
  147.0665  138.2626  156.4614 H   0  0  0  0  0  0  0  0  0  0  0  0
  146.1159  139.7198  156.2967 H   0  0  0  0  0  0  0  0  0  0  0  0
  147.7351  139.8092  156.9717 H   0  0  0  0  0  0  0  0  0  0  0  0
  1  2  1  0  0  0  0
  1 21  1  0  0  0  0
  1 22  1  0  0  0  0
  1 23  1  0  0  0  0
  2  3  1  0  0  0  0
  3 18  1  0  0  0  0
  3  4  1  0  0  0  0
  3  5  1  0  0  0  0
  4 24  1  0  0  0  0
  4 25  1  0  0  0  0
  4 26  1  0  0  0  0
  5  6  1  0  0  0  0
  5 27  1  0  0  0  0
  5 28  1  0  0  0  0
  6  7  1  0  0  0  0
  6 18  1  0  0  0  0
  6 29  1  0  0  0  0
  7  8  1  0  0  0  0
  7 30  1  0  0  0  0
  8  9  2  0  0  0  0
  8 10  1  0  0  0  0
 10 11  1  0  0  0  0
 10 31  1  0  0  0  0
 11 17  1  0  0  0  0
 11 12  2  0  0  0  0
 12 13  1  0  0  0  0
 12 32  1  0  0  0  0
 13 14  2  0  0  0  0
 13 33  1  0  0  0  0
 14 15  1  0  0  0  0
 14 16  1  0  0  0  0
 16 17  2  0  0  0  0
 16 34  1  0  0  0  0
 18 19  1  0  0  0  0
 18 20  1  0  0  0  0
 19 35  1  0  0  0  0
 19 36  1  0  0  0  0
 19 37  1  0  0  0  0
 20 38  1  0  0  0  0
 20 39  1  0  0  0  0
 20 40  1  0  0  0  0
M  END
> <s_m_source_file>
AV-unprocessed.smi

> <i_m_source_file_index>
2416

> <i_lp_mmshare_version>
43012

> <i_f3d_flags>
0

> <s_epik_input>
W0NIM11PW0NAQF0xKFtDSDNdKVtDSDJdW0NASF0oQzEoW0NIM10pW0NIM10pW05IXUMoPU8pW05IXWMyW2NIXVtjSF1jKEYpW2NIXW4y

> <s_epik_cmdline>
J2VwaWtfcHl0aG9uJywgJy1waCcsICc3LjAnLCAnLXRuJywgJzgnLCAnLW1hJywgJzIwMCcsICctbWV0YWxfYmluZGluZycsICctaW1hZScsICc8aW5maWxlLm1hZT4nLCAnLW9tYWUnLCAnPG91dGZpbGUubWFlPic=

> <r_lp_tautomer_probability>
1

> <r_epik_Ionization_Penalty>
3.67756e-05

> <r_epik_Ionization_Penalty_Charging>
0

> <r_epik_Ionization_Penalty_Neutral>
3.67756e-05

> <r_epik_State_Penalty>
-0

> <r_epik_Charging_Adjusted_Penalty>
0

> <i_epik_Tot_Q>
0

> <i_epik_Tot_abs_Q>
0

> <r_epik_Metal_State_Penalty>
-0

> <b_epik_Metal_Only>
0

> <s_lp_Force_Field>
OPLS_2005

> <r_lp_Energy>
27.4355

> <b_lp_Chiralities_Consistent>
1

> <s_lp_Variant>
AV-unprocessed.smi:2416-2

> <Gold.Version>
5.8.1

> <Gold.Id.Protein>
6NUR|6NUR_protein|mol2

> <Gold.PLP.Fitness>
36.6313

> <Gold.PLP.PLP>
-28.2149

> <Gold.PLP.part.hbond>
-1.9937

> <Gold.PLP.part.metal>
0.0000

> <Gold.PLP.part.buried>
1.6023

> <Gold.PLP.part.nonpolar>
-28.9262

> <Gold.PLP.part.repulsive>
0.5414

> <Gold.PLP.ligand.clash>
0.0000

> <Gold.PLP.ligand.torsion>
0.2263

> <Gold.PLP.Chemscore.Hbond>
1.8320

> <Gold.PLP.Chemscore.CHOScore>
1.0000

> <Gold.PLP.Chemscore.Metal>
0.0000

> <Gold.Chemscore.Hbonds>
donor molecule, donor type, donor heavy atom, donor atom, acceptor molecule, acceptor atom, score
      L1  H     7    30       P1  7948  0.83
      L1  H    10    31       P1  7948  1.00
      L1  C    16    34       P1 10186  1.00

> <Gold.PLP.Chemscore.Internal.Correction>
0.3730

> <Gold.Rescore>
     Score         DG    S(hbond)    S(metal)    S(lipo)     H(rot)  DE(clash)    DE(int)     intcor
     14.26     -16.44       1.81        0.00      69.78       1.27       0.68       1.50       ----

> <Gold.Chemscore.Fitness>
14.2617

> <Gold.Chemscore.DG>
-16.4368

> <Gold.Chemscore.ZeroCoef>
-5.4800

> <Gold.Chemscore.Hbond>
1.8059

> <Gold.Chemscore.Metal>
0.0000

> <Gold.Chemscore.Lipo>
69.7812

> <Gold.Chemscore.Internal_Hbond>
0.0000

> <Gold.Chemscore.DEClash>
0.6779

> <Gold.Chemscore.DEInternal>
1.4971

> <Gold.Chemscore.Rot>
1.2653

> <Gold.Chemscore.Internal.Correction>
   9.000000E+99

> <Gold.Chemscore.Hbonds>
donor molecule, donor type, donor heavy atom, donor atom, acceptor molecule, acceptor atom, score
      L1  H     7    30       P1  7948  0.76
      L1  H    10    31       P1  7948  0.93

> <Gold.Chemscore.Hbond.Weighted>
-6.0316

> <Gold.Chemscore.Metal.Weighted>
-0.0000

> <Gold.Chemscore.Lipo.Weighted>
-8.1644

> <Gold.Chemscore.Internal_Hbond.Weighted>
0.0000

> <Gold.Chemscore.DEClash.Weighted>
0.6779

> <Gold.Chemscore.DEInternal.Weighted>
1.4971

> <Gold.Chemscore.Rot.Weighted>
3.2392

> <Gold.Chemscore.Internal.Correction.Weighted>
   9.000000E+99

> <Gold.Protein.RotatedTorsions>
[ 6907 6896 6895 6894 ] final -104.32 input  -60.11 | X-H torsion
[ 7974 7965 7964 7962 ] final   52.81 input  175.53 | X-H torsion
[ 8008 7997 7996 7995 ] final    1.41 input   59.86 | X-H torsion
[ 10167 10162 10161 10158 ] final -103.41 input  -65.29 | X-H torsion
[ 10718 10713 10712 10709 ] final    8.97 input   66.30 | X-H torsion
[ 10763 10752 10751 10750 ] final  -25.91 input  -60.55 | X-H torsion
[ 11005 11000 10999 10996 ] final   40.18 input  -57.11 | X-H torsion

> <Gold.Protein.ActiveResidues>
 VAL166  LYS551  ARG553  GLY616  TRP617  ASP618  TYR619  PRO620  LYS621  CYS622 
 ASP623  PHE694  ASN695  SER759  ASP760  ASP761  ALA762  ILE779  LEU786  VAL792 
 PHE793  MET794  SER795  GLU796  ALA797  LYS798  CYS799  TRP800  GLU811  SER814 

> <Gold.Protein.RotatedAtoms>
  150.7281  134.0296  159.3728 H   0  0  0  0  0  0  0  0  0  0  0  0  # atno 6907 bound_to 6896
  151.8265  135.0633  160.0441 H   0  0  0  0  0  0  0  0  0  0  0  0  # atno 6908 bound_to 6896
  152.2965  133.5577  159.5627 H   0  0  0  0  0  0  0  0  0  0  0  0  # atno 6909 bound_to 6896
  145.9775  139.4209  143.0152 H   0  0  0  0  0  0  0  0  0  0  0  0  # atno 7974 bound_to 7965
  154.6794  140.2629  155.6924 H   0  0  0  0  0  0  0  0  0  0  0  0  # atno 8008 bound_to 7997
  156.2691  140.2813  156.1255 H   0  0  0  0  0  0  0  0  0  0  0  0  # atno 8009 bound_to 7997
  155.1053  140.0375  157.2699 H   0  0  0  0  0  0  0  0  0  0  0  0  # atno 8010 bound_to 7997
  140.2203  143.3681  152.0975 H   0  0  0  0  0  0  0  0  0  0  0  0  # atno 10167 bound_to 10162
  156.9595  130.5927  149.5661 H   0  0  0  0  0  0  0  0  0  0  0  0  # atno 10718 bound_to 10713
  153.7074  135.6952  153.5046 H   0  0  0  0  0  0  0  0  0  0  0  0  # atno 10763 bound_to 10752
  153.2297  135.4341  155.0581 H   0  0  0  0  0  0  0  0  0  0  0  0  # atno 10764 bound_to 10752
  154.8325  135.3481  154.6612 H   0  0  0  0  0  0  0  0  0  0  0  0  # atno 10765 bound_to 10752
  140.1955  134.3934  155.8123 H   0  0  0  0  0  0  0  0  0  0  0  0  # atno 11005 bound_to 11000
  145.7817  140.9853  143.1095 LP  0  0  0  0  0  0  0  0  0  0  0  0  # atno 17320 bound_to 7965
  144.6852  139.9573  143.7479 LP  0  0  0  0  0  0  0  0  0  0  0  0  # atno 17321 bound_to 7965
  139.5147  144.6951  151.5652 LP  0  0  0  0  0  0  0  0  0  0  0  0  # atno 17342 bound_to 10162
  140.6260  143.9168  150.6565 LP  0  0  0  0  0  0  0  0  0  0  0  0  # atno 17343 bound_to 10162
  156.0328  130.5418  150.8578 LP  0  0  0  0  0  0  0  0  0  0  0  0  # atno 17370 bound_to 10713
  157.5667  131.0946  150.9478 LP  0  0  0  0  0  0  0  0  0  0  0  0  # atno 17371 bound_to 10713
  141.2227  133.7068  156.8169 LP  0  0  0  0  0  0  0  0  0  0  0  0  # atno 17394 bound_to 11000
  140.2112  134.8826  157.3276 LP  0  0  0  0  0  0  0  0  0  0  0  0  # atno 17395 bound_to 11000

$$$$
