AV-unprocessed.smi:2190|AV-procd|sdf|8888|dock5
  -GOLD-   2272012 93D 1   1.00000     0.00000
 Structure written by MMmdl.
 46 48  0  0  0  0  0  0  0  0  1 V2000
  145.1915  144.8288  152.1429 C   0  0  0  0  0  0  0  0  0  0  0  0
  144.9945  143.9871  153.3869 C   0  0  0  0  0  0  0  0  0  0  0  0
  143.9576  144.2861  154.2914 C   0  0  0  0  0  0  0  0  0  0  0  0
  143.7813  143.4981  155.4428 C   0  0  0  0  0  0  0  0  0  0  0  0
  144.6385  142.4074  155.6969 C   0  0  0  0  0  0  0  0  0  0  0  0
  144.4327  141.5672  156.9433 C   0  0  0  0  0  0  0  0  0  0  0  0
  145.6836  142.0951  154.7966 C   0  0  0  0  0  0  0  0  0  0  0  0
  146.4849  141.0142  155.1032 O   0  0  0  0  0  0  0  0  0  0  0  0
  147.8383  141.0264  154.6693 C   0  0  0  0  0  0  0  0  0  0  0  0
  148.7532  141.1841  155.8944 C   0  0  2  0  0  0  0  0  0  0  0  0
  148.2588  142.2417  156.6926 O   0  0  0  0  0  0  0  0  0  0  0  0
  150.2079  141.4955  155.4856 C   0  0  0  0  0  0  0  0  0  0  0  0
  151.1839  141.0555  156.4747 N   0  0  0  0  0  0  0  0  0  0  0  0
  151.9750  139.9536  156.4339 C   0  0  0  0  0  0  0  0  0  0  0  0
  151.9287  139.0002  155.2730 C   0  0  0  0  0  0  0  0  0  0  0  0
  152.8352  137.9209  155.3782 O   0  0  0  0  0  0  0  0  0  0  0  0
  152.7897  139.7901  157.4792 N   0  0  0  0  0  0  0  0  0  0  0  0
  152.5006  140.8856  158.2682 C   0  0  0  0  0  0  0  0  0  0  0  0
  153.0332  141.2854  159.5147 C   0  0  0  0  0  0  0  0  0  0  0  0
  152.5775  142.4640  160.1408 C   0  0  0  0  0  0  0  0  0  0  0  0
  151.5853  143.2583  159.5305 C   0  0  0  0  0  0  0  0  0  0  0  0
  151.0419  142.8782  158.2882 C   0  0  0  0  0  0  0  0  0  0  0  0
  151.4999  141.7002  157.6675 C   0  0  0  0  0  0  0  0  0  0  0  0
  145.8515  142.8969  153.6384 C   0  0  0  0  0  0  0  0  0  0  0  0
  144.5652  145.7211  152.1632 H   0  0  0  0  0  0  0  0  0  0  0  0
  144.9364  144.2520  151.2537 H   0  0  0  0  0  0  0  0  0  0  0  0
  146.2311  145.1468  152.0600 H   0  0  0  0  0  0  0  0  0  0  0  0
  143.2943  145.1185  154.1069 H   0  0  0  0  0  0  0  0  0  0  0  0
  142.9832  143.7354  156.1308 H   0  0  0  0  0  0  0  0  0  0  0  0
  145.3351  141.5685  157.5554 H   0  0  0  0  0  0  0  0  0  0  0  0
  144.2042  140.5367  156.6698 H   0  0  0  0  0  0  0  0  0  0  0  0
  143.6109  141.9469  157.5510 H   0  0  0  0  0  0  0  0  0  0  0  0
  148.0497  140.0722  154.1838 H   0  0  0  0  0  0  0  0  0  0  0  0
  148.0230  141.8197  153.9424 H   0  0  0  0  0  0  0  0  0  0  0  0
  148.7335  140.2661  156.4819 H   0  0  0  0  0  0  0  0  0  0  0  0
  148.4312  143.0588  156.2504 H   0  0  0  0  0  0  0  0  0  0  0  0
  150.4422  141.0243  154.5308 H   0  0  0  0  0  0  0  0  0  0  0  0
  150.3335  142.5675  155.3277 H   0  0  0  0  0  0  0  0  0  0  0  0
  150.9229  138.5920  155.1791 H   0  0  0  0  0  0  0  0  0  0  0  0
  152.1476  139.5468  154.3555 H   0  0  0  0  0  0  0  0  0  0  0  0
  153.4022  137.9295  154.6225 H   0  0  0  0  0  0  0  0  0  0  0  0
  153.7938  140.6834  159.9896 H   0  0  0  0  0  0  0  0  0  0  0  0
  152.9908  142.7595  161.0939 H   0  0  0  0  0  0  0  0  0  0  0  0
  151.2413  144.1593  160.0168 H   0  0  0  0  0  0  0  0  0  0  0  0
  150.2806  143.4838  157.8201 H   0  0  0  0  0  0  0  0  0  0  0  0
  146.6342  142.6935  152.9235 H   0  0  0  0  0  0  0  0  0  0  0  0
  1  2  1  0  0  0  0
  1 25  1  0  0  0  0
  1 26  1  0  0  0  0
  1 27  1  0  0  0  0
  2 24  1  0  0  0  0
  2  3  2  0  0  0  0
  3  4  1  0  0  0  0
  3 28  1  0  0  0  0
  4  5  2  0  0  0  0
  4 29  1  0  0  0  0
  5  6  1  0  0  0  0
  5  7  1  0  0  0  0
  6 30  1  0  0  0  0
  6 31  1  0  0  0  0
  6 32  1  0  0  0  0
  7  8  1  0  0  0  0
  7 24  2  0  0  0  0
  8  9  1  0  0  0  0
  9 10  1  0  0  0  0
  9 33  1  0  0  0  0
  9 34  1  0  0  0  0
 10 11  1  0  0  0  0
 10 12  1  0  0  0  0
 10 35  1  0  0  0  0
 11 36  1  0  0  0  0
 12 13  1  0  0  0  0
 12 37  1  0  0  0  0
 12 38  1  0  0  0  0
 13 23  1  0  0  0  0
 13 14  1  0  0  0  0
 14 15  1  0  0  0  0
 14 17  2  0  0  0  0
 15 16  1  0  0  0  0
 15 39  1  0  0  0  0
 15 40  1  0  0  0  0
 16 41  1  0  0  0  0
 17 18  1  0  0  0  0
 18 23  2  0  0  0  0
 18 19  1  0  0  0  0
 19 20  2  0  0  0  0
 19 42  1  0  0  0  0
 20 21  1  0  0  0  0
 20 43  1  0  0  0  0
 21 22  2  0  0  0  0
 21 44  1  0  0  0  0
 22 23  1  0  0  0  0
 22 45  1  0  0  0  0
 24 46  1  0  0  0  0
M  END
> <s_m_source_file>
AV-unprocessed.smi

> <i_m_source_file_index>
2190

> <i_lp_mmshare_version>
43012

> <i_f3d_flags>
0

> <s_epik_input>
W0NIM11jMVtjSF1bY0hdYyhbQ0gzXSljKFtjSF0xKU9bQ0gyXVtDQEhdKFtPSF0pW0NIMl1uKGMobjIpW0NIMl1bT0hdKWMoYzIzKVtjSF1bY0hdW2NIXVtjSF0z

> <s_epik_cmdline>
J2VwaWtfcHl0aG9uJywgJy1waCcsICc3LjAnLCAnLXRuJywgJzgnLCAnLW1hJywgJzIwMCcsICctbWV0YWxfYmluZGluZycsICctaW1hZScsICc8aW5maWxlLm1hZT4nLCAnLW9tYWUnLCAnPG91dGZpbGUubWFlPic=

> <r_lp_tautomer_probability>
1

> <r_epik_Ionization_Penalty>
0.0555874

> <r_epik_Ionization_Penalty_Charging>
0

> <r_epik_Ionization_Penalty_Neutral>
0.0555874

> <r_epik_State_Penalty>
0.0478234

> <r_epik_Charging_Adjusted_Penalty>
0.0478234

> <i_epik_Tot_Q>
0

> <i_epik_Tot_abs_Q>
0

> <r_epik_Metal_State_Penalty>
4.98044e-05

> <b_epik_Metal_Only>
0

> <s_lp_Force_Field>
OPLS_2005

> <r_lp_Energy>
17.5677

> <b_lp_Chiralities_Consistent>
1

> <s_lp_Variant>
AV-unprocessed.smi:2190-1

> <Gold.Version>
5.8.1

> <Gold.Id.Protein>
6NUR|6NUR_protein|mol2

> <Gold.PLP.Fitness>
53.2774

> <Gold.PLP.PLP>
-49.9304

> <Gold.PLP.part.hbond>
-2.8152

> <Gold.PLP.part.metal>
0.0000

> <Gold.PLP.part.buried>
-5.5517

> <Gold.PLP.part.nonpolar>
-41.1380

> <Gold.PLP.part.repulsive>
0.0998

> <Gold.PLP.ligand.clash>
0.0000

> <Gold.PLP.ligand.torsion>
1.3535

> <Gold.PLP.Chemscore.Hbond>
2.0000

> <Gold.PLP.Chemscore.CHOScore>
0.0000

> <Gold.PLP.Chemscore.Metal>
0.0000

> <Gold.Chemscore.Hbonds>
donor molecule, donor type, donor heavy atom, donor atom, acceptor molecule, acceptor atom, score
      L1  H    11    36       P1  8028  1.00
      P1  H  7997  8010       L1    17  0.85

> <Gold.PLP.Chemscore.Internal.Correction>
0.0538

> <Gold.Rescore>
     Score         DG    S(hbond)    S(metal)    S(lipo)     H(rot)  DE(clash)    DE(int)     intcor
     14.86     -16.30       0.99        0.00     128.85       2.96       0.23       1.21       ----

> <Gold.Chemscore.Fitness>
14.8571

> <Gold.Chemscore.DG>
-16.2963

> <Gold.Chemscore.ZeroCoef>
-5.4800

> <Gold.Chemscore.Hbond>
0.9905

> <Gold.Chemscore.Metal>
0.0000

> <Gold.Chemscore.Lipo>
128.8527

> <Gold.Chemscore.Internal_Hbond>
0.0000

> <Gold.Chemscore.DEClash>
0.2323

> <Gold.Chemscore.DEInternal>
1.2068

> <Gold.Chemscore.Rot>
2.9561

> <Gold.Chemscore.Internal.Correction>
   9.000000E+99

> <Gold.Chemscore.Hbonds>
donor molecule, donor type, donor heavy atom, donor atom, acceptor molecule, acceptor atom, score
      L1  H    11    36       P1  8028  0.85
      P1  H  7997  8010       L1    17  0.10

> <Gold.Chemscore.Hbond.Weighted>
-3.3081

> <Gold.Chemscore.Metal.Weighted>
-0.0000

> <Gold.Chemscore.Lipo.Weighted>
-15.0758

> <Gold.Chemscore.Internal_Hbond.Weighted>
0.0000

> <Gold.Chemscore.DEClash.Weighted>
0.2323

> <Gold.Chemscore.DEInternal.Weighted>
1.2068

> <Gold.Chemscore.Rot.Weighted>
7.5677

> <Gold.Chemscore.Internal.Correction.Weighted>
   9.000000E+99

> <Gold.Protein.RotatedTorsions>
[ 6907 6896 6895 6894 ] final -127.08 input  -60.11 | X-H torsion
[ 7974 7965 7964 7962 ] final   76.99 input  175.53 | X-H torsion
[ 8008 7997 7996 7995 ] final   63.68 input   59.86 | X-H torsion
[ 10167 10162 10161 10158 ] final   62.03 input  -65.29 | X-H torsion
[ 10718 10713 10712 10709 ] final  130.96 input   66.30 | X-H torsion
[ 10763 10752 10751 10750 ] final  -72.47 input  -60.55 | X-H torsion
[ 11005 11000 10999 10996 ] final -100.30 input  -57.11 | X-H torsion

> <Gold.Protein.ActiveResidues>
 VAL166  LYS551  ARG553  GLY616  TRP617  ASP618  TYR619  PRO620  LYS621  CYS622 
 ASP623  PHE694  ASN695  SER759  ASP760  ASP761  ALA762  ILE779  LEU786  VAL792 
 PHE793  MET794  SER795  GLU796  ALA797  LYS798  CYS799  TRP800  GLU811  SER814 

> <Gold.Protein.RotatedAtoms>
  150.9035  133.7087  159.2872 H   0  0  0  0  0  0  0  0  0  0  0  0  # atno 6907 bound_to 6896
  151.4598  135.1036  159.9731 H   0  0  0  0  0  0  0  0  0  0  0  0  # atno 6908 bound_to 6896
  152.4890  133.8401  159.7203 H   0  0  0  0  0  0  0  0  0  0  0  0  # atno 6909 bound_to 6896
  145.6958  139.2566  143.1734 H   0  0  0  0  0  0  0  0  0  0  0  0  # atno 7974 bound_to 7965
  155.6340  140.3496  155.4692 H   0  0  0  0  0  0  0  0  0  0  0  0  # atno 8008 bound_to 7997
  155.9980  140.1207  157.0598 H   0  0  0  0  0  0  0  0  0  0  0  0  # atno 8009 bound_to 7997
  154.4239  140.1106  156.5643 H   0  0  0  0  0  0  0  0  0  0  0  0  # atno 8010 bound_to 7997
  140.1483  144.4487  150.6773 H   0  0  0  0  0  0  0  0  0  0  0  0  # atno 10167 bound_to 10162
  157.5013  131.1094  150.9423 H   0  0  0  0  0  0  0  0  0  0  0  0  # atno 10718 bound_to 10713
  154.4462  135.5928  153.6161 H   0  0  0  0  0  0  0  0  0  0  0  0  # atno 10763 bound_to 10752
  152.9809  135.6010  154.3661 H   0  0  0  0  0  0  0  0  0  0  0  0  # atno 10764 bound_to 10752
  154.3517  135.2841  155.2347 H   0  0  0  0  0  0  0  0  0  0  0  0  # atno 10765 bound_to 10752
  141.1276  133.8389  157.1085 H   0  0  0  0  0  0  0  0  0  0  0  0  # atno 11005 bound_to 11000
  146.0842  140.7730  142.9627 LP  0  0  0  0  0  0  0  0  0  0  0  0  # atno 17320 bound_to 7965
  144.6983  140.3536  143.7177 LP  0  0  0  0  0  0  0  0  0  0  0  0  # atno 17321 bound_to 7965
  140.6718  143.2289  151.5606 LP  0  0  0  0  0  0  0  0  0  0  0  0  # atno 17342 bound_to 10162
  139.5438  144.2576  152.1403 LP  0  0  0  0  0  0  0  0  0  0  0  0  # atno 17343 bound_to 10162
  157.0093  130.5630  149.5319 LP  0  0  0  0  0  0  0  0  0  0  0  0  # atno 17370 bound_to 10713
  156.0231  130.5325  150.8330 LP  0  0  0  0  0  0  0  0  0  0  0  0  # atno 17371 bound_to 10713
  140.0289  134.9910  157.0742 LP  0  0  0  0  0  0  0  0  0  0  0  0  # atno 17394 bound_to 11000
  140.4317  134.1774  155.7168 LP  0  0  0  0  0  0  0  0  0  0  0  0  # atno 17395 bound_to 11000

$$$$
