AV-unprocessed.smi:2137|AV-procd|sdf|8706|dock2
  -GOLD-   2272011463D 1   1.00000     0.00000
 Structure written by MMmdl.
 50 51  0  0  0  0  0  0  0  0  2 V2000
  144.6101  133.4516  149.9909 C   0  0  0  0  0  0  0  0  0  0  0  0
  145.6942  132.5314  150.5687 C   0  0  2  0  0  0  0  0  0  0  0  0
  145.0789  131.3824  151.3849 C   0  0  0  0  0  0  0  0  0  0  0  0
  146.1843  130.4962  151.9724 C   0  0  0  0  0  0  0  0  0  0  0  0
  147.1805  131.3301  152.7938 C   0  0  0  0  0  0  0  0  0  0  0  0
  147.7610  132.4280  151.9780 N   0  3  2  0  0  0  0  0  0  0  0  0
  148.8257  133.1642  152.7051 C   0  0  0  0  0  0  0  0  0  0  0  0
  148.2880  133.9047  153.9448 C   0  0  0  0  0  0  0  0  0  0  0  0
  149.3988  134.4097  154.8829 C   0  0  0  0  0  0  0  0  0  0  0  0
  150.0018  135.6511  154.4111 N   0  0  0  0  0  0  0  0  0  0  0  0
  151.0764  136.2452  154.9525 C   0  0  0  0  0  0  0  0  0  0  0  0
  151.6887  135.7882  155.9171 O   0  0  0  0  0  0  0  0  0  0  0  0
  151.5352  137.5558  154.3058 C   0  0  0  0  0  0  0  0  0  0  0  0
  150.7822  138.7078  154.8166 N   0  0  0  0  0  0  0  0  0  0  0  0
  149.4442  138.8425  154.4917 C   0  0  0  0  0  0  0  0  0  0  0  0
  148.6750  139.8711  154.9099 C   0  0  0  0  0  0  0  0  0  0  0  0
  149.2307  140.9266  155.7472 C   0  0  0  0  0  0  0  0  0  0  0  0
  148.5705  141.8792  156.1643 O   0  0  0  0  0  0  0  0  0  0  0  0
  150.6016  140.7726  156.0565 N   0  0  0  0  0  0  0  0  0  0  0  0
  151.1962  141.7962  156.8911 C   0  0  0  0  0  0  0  0  0  0  0  0
  151.3998  139.6869  155.6263 C   0  0  0  0  0  0  0  0  0  0  0  0
  152.5892  139.5796  155.9346 O   0  0  0  0  0  0  0  0  0  0  0  0
  146.7023  133.3186  151.4302 C   0  0  0  0  0  0  0  0  0  0  0  0
  144.0242  133.9203  150.7822 H   0  0  0  0  0  0  0  0  0  0  0  0
  143.9228  132.8955  149.3529 H   0  0  0  0  0  0  0  0  0  0  0  0
  145.0494  134.2462  149.3870 H   0  0  0  0  0  0  0  0  0  0  0  0
  146.2372  132.0961  149.7282 H   0  0  0  0  0  0  0  0  0  0  0  0
  144.4639  131.7849  152.1912 H   0  0  0  0  0  0  0  0  0  0  0  0
  144.4175  130.7833  150.7577 H   0  0  0  0  0  0  0  0  0  0  0  0
  145.7445  129.7183  152.5975 H   0  0  0  0  0  0  0  0  0  0  0  0
  146.7113  129.9841  151.1662 H   0  0  0  0  0  0  0  0  0  0  0  0
  146.6881  131.7488  153.6732 H   0  0  0  0  0  0  0  0  0  0  0  0
  147.9760  130.6774  153.1555 H   0  0  0  0  0  0  0  0  0  0  0  0
  149.6301  132.4773  152.9725 H   0  0  0  0  0  0  0  0  0  0  0  0
  149.2657  133.9077  152.0388 H   0  0  0  0  0  0  0  0  0  0  0  0
  147.6932  134.7591  153.6200 H   0  0  0  0  0  0  0  0  0  0  0  0
  147.6115  133.2650  154.5108 H   0  0  0  0  0  0  0  0  0  0  0  0
  148.9921  134.5871  155.8789 H   0  0  0  0  0  0  0  0  0  0  0  0
  150.1685  133.6447  154.9996 H   0  0  0  0  0  0  0  0  0  0  0  0
  149.5566  136.1079  153.6277 H   0  0  0  0  0  0  0  0  0  0  0  0
  152.5985  137.6961  154.5074 H   0  0  0  0  0  0  0  0  0  0  0  0
  151.4561  137.4769  153.2202 H   0  0  0  0  0  0  0  0  0  0  0  0
  148.9877  138.0861  153.8698 H   0  0  0  0  0  0  0  0  0  0  0  0
  147.6350  139.9139  154.6206 H   0  0  0  0  0  0  0  0  0  0  0  0
  152.2820  141.7059  156.9116 H   0  0  0  0  0  0  0  0  0  0  0  0
  150.7802  141.6713  157.8921 H   0  0  0  0  0  0  0  0  0  0  0  0
  150.9340  142.7674  156.4677 H   0  0  0  0  0  0  0  0  0  0  0  0
  147.1512  134.1017  150.8201 H   0  0  0  0  0  0  0  0  0  0  0  0
  146.1871  133.8187  152.2524 H   0  0  0  0  0  0  0  0  0  0  0  0
  148.2091  131.9835  151.1895 H   0  0  0  0  0  0  0  0  0  0  0  0
  1  2  1  0  0  0  0
  1 24  1  0  0  0  0
  1 25  1  0  0  0  0
  1 26  1  0  0  0  0
  2 23  1  0  0  0  0
  2  3  1  0  0  0  0
  2 27  1  0  0  0  0
  3  4  1  0  0  0  0
  3 28  1  0  0  0  0
  3 29  1  0  0  0  0
  4  5  1  0  0  0  0
  4 30  1  0  0  0  0
  4 31  1  0  0  0  0
  5  6  1  0  0  0  0
  5 32  1  0  0  0  0
  5 33  1  0  0  0  0
  6  7  1  0  0  0  0
  6 23  1  0  0  0  0
  6 50  1  0  0  0  0
  7  8  1  0  0  0  0
  7 34  1  0  0  0  0
  7 35  1  0  0  0  0
  8  9  1  0  0  0  0
  8 36  1  0  0  0  0
  8 37  1  0  0  0  0
  9 10  1  0  0  0  0
  9 38  1  0  0  0  0
  9 39  1  0  0  0  0
 10 11  1  0  0  0  0
 10 40  1  0  0  0  0
 11 12  2  0  0  0  0
 11 13  1  0  0  0  0
 13 14  1  0  0  0  0
 13 41  1  0  0  0  0
 13 42  1  0  0  0  0
 14 21  1  0  0  0  0
 14 15  1  0  0  0  0
 15 16  2  0  0  0  0
 15 43  1  0  0  0  0
 16 17  1  0  0  0  0
 16 44  1  0  0  0  0
 17 18  2  0  0  0  0
 17 19  1  0  0  0  0
 19 20  1  0  0  0  0
 19 21  1  0  0  0  0
 20 45  1  0  0  0  0
 20 46  1  0  0  0  0
 20 47  1  0  0  0  0
 21 22  2  0  0  0  0
 23 48  1  0  0  0  0
 23 49  1  0  0  0  0
M  CHG  1   6   1
M  END
> <s_m_source_file>
AV-unprocessed.smi

> <i_m_source_file_index>
2137

> <i_lp_mmshare_version>
43012

> <i_f3d_flags>
0

> <s_epik_input>
W0NIM11bQ0BASF0xW0NIMl1bQ0gyXVtDSDJdTihbQ0gyXTEpW0NIMl1bQ0gyXVtDSDJdW05IXUMoPU8pW0NIMl1uMltjSF1bY0hdYyg9TyluKFtDSDNdKWMyPU8=

> <s_epik_cmdline>
J2VwaWtfcHl0aG9uJywgJy1waCcsICc3LjAnLCAnLXRuJywgJzgnLCAnLW1hJywgJzIwMCcsICctbWV0YWxfYmluZGluZycsICctaW1hZScsICc8aW5maWxlLm1hZT4nLCAnLW9tYWUnLCAnPG91dGZpbGUubWFlPic=

> <r_lp_tautomer_probability>
1

> <r_epik_Ionization_Penalty>
0.000384839

> <r_epik_Ionization_Penalty_Charging>
0.000384812

> <r_epik_Ionization_Penalty_Neutral>
2.6907e-08

> <r_epik_State_Penalty>
0.000235226

> <r_epik_Charging_Adjusted_Penalty>
0.000620038

> <i_epik_Tot_Q>
1

> <i_epik_Tot_abs_Q>
1

> <r_epik_Metal_State_Penalty>
-0

> <b_epik_Metal_Only>
0

> <s_lp_Force_Field>
OPLS_2005

> <r_lp_Energy>
29.3938

> <b_lp_Chiralities_Consistent>
1

> <s_lp_Variant>
AV-unprocessed.smi:2137-1

> <Gold.Version>
5.8.1

> <Gold.Id.Protein>
6NUR|6NUR_protein|mol2

> <Gold.PLP.Fitness>
58.3141

> <Gold.PLP.PLP>
-44.2960

> <Gold.PLP.part.hbond>
-4.5364

> <Gold.PLP.part.metal>
0.0000

> <Gold.PLP.part.buried>
-3.5409

> <Gold.PLP.part.nonpolar>
-38.5597

> <Gold.PLP.part.repulsive>
2.1249

> <Gold.PLP.ligand.clash>
0.0000

> <Gold.PLP.ligand.torsion>
0.5772

> <Gold.PLP.Chemscore.Hbond>
3.9913

> <Gold.PLP.Chemscore.CHOScore>
1.0000

> <Gold.PLP.Chemscore.Metal>
0.0000

> <Gold.Chemscore.Hbonds>
donor molecule, donor type, donor heavy atom, donor atom, acceptor molecule, acceptor atom, score
      L1  H     6    50       P1 10747  1.00
      L1  H    10    40       P1  7948  1.00
      P1  H  7997  8009       L1    22  1.00
      P1  H 10752 10764       L1    12  0.90
      L1  C    15    43       P1  7948  0.54

> <Gold.PLP.Chemscore.Internal.Correction>
0.1986

> <Gold.Rescore>
     Score         DG    S(hbond)    S(metal)    S(lipo)     H(rot)  DE(clash)    DE(int)     intcor
     18.73     -19.63       2.76        0.00      91.86       2.27       0.45       0.45       ----

> <Gold.Chemscore.Fitness>
18.7289

> <Gold.Chemscore.DG>
-19.6305

> <Gold.Chemscore.ZeroCoef>
-5.4800

> <Gold.Chemscore.Hbond>
2.7623

> <Gold.Chemscore.Metal>
0.0000

> <Gold.Chemscore.Lipo>
91.8618

> <Gold.Chemscore.Internal_Hbond>
0.0000

> <Gold.Chemscore.DEClash>
0.4511

> <Gold.Chemscore.DEInternal>
0.4506

> <Gold.Chemscore.Rot>
2.2748

> <Gold.Chemscore.Internal.Correction>
   9.000000E+99

> <Gold.Chemscore.Hbonds>
donor molecule, donor type, donor heavy atom, donor atom, acceptor molecule, acceptor atom, score
      L1  H     6    50       P1 10747  0.99
      L1  H    10    40       P1  7948  0.44
      P1  H  7997  8009       L1    22  1.00
      P1  H 10752 10764       L1    12  0.18

> <Gold.Chemscore.Hbond.Weighted>
-9.2260

> <Gold.Chemscore.Metal.Weighted>
-0.0000

> <Gold.Chemscore.Lipo.Weighted>
-10.7478

> <Gold.Chemscore.Internal_Hbond.Weighted>
0.0000

> <Gold.Chemscore.DEClash.Weighted>
0.4511

> <Gold.Chemscore.DEInternal.Weighted>
0.4506

> <Gold.Chemscore.Rot.Weighted>
5.8234

> <Gold.Chemscore.Internal.Correction.Weighted>
   9.000000E+99

> <Gold.Protein.RotatedTorsions>
[ 6907 6896 6895 6894 ] final  138.75 input  -60.11 | X-H torsion
[ 7974 7965 7964 7962 ] final -121.86 input  175.53 | X-H torsion
[ 8008 7997 7996 7995 ] final -154.62 input   59.86 | X-H torsion
[ 10167 10162 10161 10158 ] final -118.08 input  -65.29 | X-H torsion
[ 10718 10713 10712 10709 ] final  108.64 input   66.30 | X-H torsion
[ 10763 10752 10751 10750 ] final  -23.94 input  -60.55 | X-H torsion
[ 11005 11000 10999 10996 ] final  -99.66 input  -57.11 | X-H torsion

> <Gold.Protein.ActiveResidues>
 VAL166  LYS551  ARG553  GLY616  TRP617  ASP618  TYR619  PRO620  LYS621  CYS622 
 ASP623  PHE694  ASN695  SER759  ASP760  ASP761  ALA762  ILE779  LEU786  VAL792 
 PHE793  MET794  SER795  GLU796  ALA797  LYS798  CYS799  TRP800  GLU811  SER814 

> <Gold.Protein.RotatedAtoms>
  152.2629  133.5313  159.5392 H   0  0  0  0  0  0  0  0  0  0  0  0  # atno 6907 bound_to 6896
  150.7131  134.0804  159.3905 H   0  0  0  0  0  0  0  0  0  0  0  0  # atno 6908 bound_to 6896
  151.8721  135.0485  160.0531 H   0  0  0  0  0  0  0  0  0  0  0  0  # atno 6909 bound_to 6896
  145.0357  140.8104  143.4296 H   0  0  0  0  0  0  0  0  0  0  0  0  # atno 7974 bound_to 7965
  155.6892  140.0753  157.2455 H   0  0  0  0  0  0  0  0  0  0  0  0  # atno 8008 bound_to 7997
  154.4091  140.1668  156.2120 H   0  0  0  0  0  0  0  0  0  0  0  0  # atno 8009 bound_to 7997
  155.9467  140.3380  155.6376 H   0  0  0  0  0  0  0  0  0  0  0  0  # atno 8010 bound_to 7997
  140.0614  143.4964  152.2029 H   0  0  0  0  0  0  0  0  0  0  0  0  # atno 10167 bound_to 10162
  157.6577  131.0898  150.6335 H   0  0  0  0  0  0  0  0  0  0  0  0  # atno 10718 bound_to 10713
  153.6759  135.6969  153.5133 H   0  0  0  0  0  0  0  0  0  0  0  0  # atno 10763 bound_to 10752
  153.2522  135.4271  155.0808 H   0  0  0  0  0  0  0  0  0  0  0  0  # atno 10764 bound_to 10752
  154.8414  135.3534  154.6303 H   0  0  0  0  0  0  0  0  0  0  0  0  # atno 10765 bound_to 10752
  141.1300  133.8339  157.1001 H   0  0  0  0  0  0  0  0  0  0  0  0  # atno 11005 bound_to 11000
  145.1712  139.2403  143.5341 LP  0  0  0  0  0  0  0  0  0  0  0  0  # atno 17320 bound_to 7965
  146.3504  140.1463  142.8593 LP  0  0  0  0  0  0  0  0  0  0  0  0  # atno 17321 bound_to 7965
  139.5891  144.7543  151.3445 LP  0  0  0  0  0  0  0  0  0  0  0  0  # atno 17342 bound_to 10162
  140.7170  143.7240  150.7674 LP  0  0  0  0  0  0  0  0  0  0  0  0  # atno 17343 bound_to 10162
  156.6641  130.4520  149.5678 LP  0  0  0  0  0  0  0  0  0  0  0  0  # atno 17370 bound_to 10713
  156.2046  130.6641  151.1204 LP  0  0  0  0  0  0  0  0  0  0  0  0  # atno 17371 bound_to 10713
  140.0338  134.9888  157.0832 LP  0  0  0  0  0  0  0  0  0  0  0  0  # atno 17394 bound_to 11000
  140.4242  134.1848  155.7165 LP  0  0  0  0  0  0  0  0  0  0  0  0  # atno 17395 bound_to 11000

$$$$
