AV-unprocessed.smi:3201|AV-procd|sdf|12237|dock5
  -GOLD-   2272018 73D 1   1.00000     0.00000
 Structure written by MMmdl.
 41 43  0  0  0  0  0  0  0  0  2 V2000
  151.8757  144.7228  160.4127 C   0  0  0  0  0  0  0  0  0  0  0  0
  152.1930  143.3331  159.9629 C   0  0  0  0  0  0  0  0  0  0  0  0
  151.9739  142.7085  158.7643 C   0  0  0  0  0  0  0  0  0  0  0  0
  151.3301  143.2474  157.5163 C   0  0  0  0  0  0  0  0  0  0  0  0
  151.0054  142.1231  156.5245 C   0  0  0  0  0  0  0  0  0  0  0  0
  149.6874  142.3357  155.8932 N   0  3  0  0  0  0  0  0  0  0  0  0
  149.4029  141.4400  154.7508 C   0  0  2  0  0  0  0  0  0  0  0  0
  148.0527  141.7145  154.0526 C   0  0  0  0  0  0  0  0  0  0  0  0
  147.3920  140.3220  154.0352 C   0  0  2  0  0  0  0  0  0  0  0  0
  146.8844  139.9941  155.4502 C   0  0  0  0  0  0  0  0  0  0  0  0
  148.1907  139.7410  156.2247 C   0  0  0  0  0  0  0  0  0  0  0  0
  149.2795  139.9535  155.1497 C   0  0  1  0  0  0  0  0  0  0  0  0
  148.5915  139.3866  153.9116 C   0  0  0  0  0  0  0  0  0  0  0  0
  152.4988  141.4006  158.9652 C   0  0  0  0  0  0  0  0  0  0  0  0
  152.9971  141.2277  160.1760 N   0  0  0  0  0  0  0  0  0  0  0  0
  152.8109  142.4140  160.7904 N   0  0  0  0  0  0  0  0  0  0  0  0
  153.2533  142.5818  162.1615 C   0  0  0  0  0  0  0  0  0  0  0  0
  151.2943  145.2587  159.6628 H   0  0  0  0  0  0  0  0  0  0  0  0
  152.7898  145.2875  160.5961 H   0  0  0  0  0  0  0  0  0  0  0  0
  151.2949  144.7102  161.3351 H   0  0  0  0  0  0  0  0  0  0  0  0
  150.4176  143.7932  157.7590 H   0  0  0  0  0  0  0  0  0  0  0  0
  151.9869  143.9725  157.0342 H   0  0  0  0  0  0  0  0  0  0  0  0
  151.7758  142.0767  155.7537 H   0  0  0  0  0  0  0  0  0  0  0  0
  151.0055  141.1611  157.0387 H   0  0  0  0  0  0  0  0  0  0  0  0
  148.9792  142.1814  156.5965 H   0  0  0  0  0  0  0  0  0  0  0  0
  150.2146  141.5368  154.0273 H   0  0  0  0  0  0  0  0  0  0  0  0
  147.4359  142.4464  154.5760 H   0  0  0  0  0  0  0  0  0  0  0  0
  148.2164  142.0831  153.0393 H   0  0  0  0  0  0  0  0  0  0  0  0
  146.6325  140.2062  153.2614 H   0  0  0  0  0  0  0  0  0  0  0  0
  146.2937  140.8043  155.8794 H   0  0  0  0  0  0  0  0  0  0  0  0
  146.2639  139.0971  155.4421 H   0  0  0  0  0  0  0  0  0  0  0  0
  148.3012  140.4017  157.0845 H   0  0  0  0  0  0  0  0  0  0  0  0
  148.2156  138.7156  156.5964 H   0  0  0  0  0  0  0  0  0  0  0  0
  150.2337  139.4862  155.3949 H   0  0  0  0  0  0  0  0  0  0  0  0
  148.3285  138.3314  154.0058 H   0  0  0  0  0  0  0  0  0  0  0  0
  149.1602  139.5313  152.9911 H   0  0  0  0  0  0  0  0  0  0  0  0
  152.5295  140.5750  158.2694 H   0  0  0  0  0  0  0  0  0  0  0  0
  154.0469  143.3283  162.2006 H   0  0  0  0  0  0  0  0  0  0  0  0
  153.6331  141.6411  162.5628 H   0  0  0  0  0  0  0  0  0  0  0  0
  152.4189  142.9144  162.7789 H   0  0  0  0  0  0  0  0  0  0  0  0
  149.6234  143.2927  155.5766 H   0  0  0  0  0  0  0  0  0  0  0  0
  1  2  1  0  0  0  0
  1 18  1  0  0  0  0
  1 19  1  0  0  0  0
  1 20  1  0  0  0  0
  2 16  1  0  0  0  0
  2  3  2  0  0  0  0
  3  4  1  0  0  0  0
  3 14  1  0  0  0  0
  4  5  1  0  0  0  0
  4 21  1  0  0  0  0
  4 22  1  0  0  0  0
  5  6  1  0  0  0  0
  5 23  1  0  0  0  0
  5 24  1  0  0  0  0
  6  7  1  0  0  0  0
  6 25  1  0  0  0  0
  6 41  1  0  0  0  0
  7 12  1  0  0  0  0
  7  8  1  0  0  0  0
  7 26  1  0  0  0  0
  8  9  1  0  0  0  0
  8 27  1  0  0  0  0
  8 28  1  0  0  0  0
  9 13  1  0  0  0  0
  9 10  1  0  0  0  0
  9 29  1  0  0  0  0
 10 11  1  0  0  0  0
 10 30  1  0  0  0  0
 10 31  1  0  0  0  0
 11 12  1  0  0  0  0
 11 32  1  0  0  0  0
 11 33  1  0  0  0  0
 12 13  1  0  0  0  0
 12 34  1  0  0  0  0
 13 35  1  0  0  0  0
 13 36  1  0  0  0  0
 14 15  2  0  0  0  0
 14 37  1  0  0  0  0
 15 16  1  0  0  0  0
 16 17  1  0  0  0  0
 17 38  1  0  0  0  0
 17 39  1  0  0  0  0
 17 40  1  0  0  0  0
M  CHG  1   6   1
M  END
> <s_m_source_file>
AV-unprocessed.smi

> <i_m_source_file_index>
3201

> <i_lp_mmshare_version>
43012

> <i_f3d_flags>
0

> <s_epik_input>
W0NIM11uMW5bY0hdYyhjMVtDSDNdKVtDSDJdW0NIMl1bTkhdW0NASF0oW0NIMl1bQ0BIXTIzKVtDQEhdKFtDSDJdMylbQ0gyXVtDSDJdMg==

> <s_epik_cmdline>
J2VwaWtfcHl0aG9uJywgJy1waCcsICc3LjAnLCAnLXRuJywgJzgnLCAnLW1hJywgJzIwMCcsICctbWV0YWxfYmluZGluZycsICctaW1hZScsICc8aW5maWxlLm1hZT4nLCAnLW9tYWUnLCAnPG91dGZpbGUubWFlPic=

> <r_lp_tautomer_probability>
1

> <r_epik_Ionization_Penalty>
0.000331174

> <r_epik_Ionization_Penalty_Charging>
0.000242709

> <r_epik_Ionization_Penalty_Neutral>
8.84659e-05

> <r_epik_State_Penalty>
-0

> <r_epik_Charging_Adjusted_Penalty>
0.000242709

> <i_epik_Tot_Q>
1

> <i_epik_Tot_abs_Q>
1

> <r_epik_Metal_State_Penalty>
-0

> <b_epik_Metal_Only>
0

> <s_lp_Force_Field>
OPLS_2005

> <r_lp_Energy>
50.9619

> <b_lp_Chiralities_Consistent>
1

> <s_lp_Variant>
AV-unprocessed.smi:3201-1

> <Gold.Version>
5.8.1

> <Gold.Id.Protein>
6NUR|6NUR_protein|mol2

> <Gold.PLP.Fitness>
44.4884

> <Gold.PLP.PLP>
-39.4106

> <Gold.PLP.part.hbond>
-1.0000

> <Gold.PLP.part.metal>
0.0000

> <Gold.PLP.part.buried>
-4.7358

> <Gold.PLP.part.nonpolar>
-33.5866

> <Gold.PLP.part.repulsive>
0.1309

> <Gold.PLP.ligand.clash>
0.0000

> <Gold.PLP.ligand.torsion>
0.4694

> <Gold.PLP.Chemscore.Hbond>
2.0000

> <Gold.PLP.Chemscore.CHOScore>
0.0000

> <Gold.PLP.Chemscore.Metal>
0.0000

> <Gold.Chemscore.Hbonds>
donor molecule, donor type, donor heavy atom, donor atom, acceptor molecule, acceptor atom, score
      L1  H     6    41       P1  8028  1.98

> <Gold.PLP.Chemscore.Internal.Correction>
0.0166

> <Gold.Rescore>
     Score         DG    S(hbond)    S(metal)    S(lipo)     H(rot)  DE(clash)    DE(int)     intcor
     17.61     -18.14       0.96        0.00     110.62       1.36       0.08       0.44       ----

> <Gold.Chemscore.Fitness>
17.6105

> <Gold.Chemscore.DG>
-18.1366

> <Gold.Chemscore.ZeroCoef>
-5.4800

> <Gold.Chemscore.Hbond>
0.9560

> <Gold.Chemscore.Metal>
0.0000

> <Gold.Chemscore.Lipo>
110.6163

> <Gold.Chemscore.Internal_Hbond>
0.0000

> <Gold.Chemscore.DEClash>
0.0822

> <Gold.Chemscore.DEInternal>
0.4439

> <Gold.Chemscore.Rot>
1.3588

> <Gold.Chemscore.Internal.Correction>
   9.000000E+99

> <Gold.Chemscore.Hbonds>
donor molecule, donor type, donor heavy atom, donor atom, acceptor molecule, acceptor atom, score
      L1  H     6    41       P1  8028  0.92

> <Gold.Chemscore.Hbond.Weighted>
-3.1931

> <Gold.Chemscore.Metal.Weighted>
-0.0000

> <Gold.Chemscore.Lipo.Weighted>
-12.9421

> <Gold.Chemscore.Internal_Hbond.Weighted>
0.0000

> <Gold.Chemscore.DEClash.Weighted>
0.0822

> <Gold.Chemscore.DEInternal.Weighted>
0.4439

> <Gold.Chemscore.Rot.Weighted>
3.4786

> <Gold.Chemscore.Internal.Correction.Weighted>
   9.000000E+99

> <Gold.Protein.RotatedTorsions>
[ 6907 6896 6895 6894 ] final    7.60 input  -60.11 | X-H torsion
[ 7974 7965 7964 7962 ] final -100.67 input  175.53 | X-H torsion
[ 8008 7997 7996 7995 ] final  148.61 input   59.86 | X-H torsion
[ 10167 10162 10161 10158 ] final   69.72 input  -65.29 | X-H torsion
[ 10718 10713 10712 10709 ] final  -77.87 input   66.30 | X-H torsion
[ 10763 10752 10751 10750 ] final  -18.85 input  -60.55 | X-H torsion
[ 11005 11000 10999 10996 ] final  170.74 input  -57.11 | X-H torsion

> <Gold.Protein.ActiveResidues>
 VAL166  LYS551  ARG553  GLY616  TRP617  ASP618  TYR619  PRO620  LYS621  CYS622 
 ASP623  PHE694  ASN695  SER759  ASP760  ASP761  ALA762  ILE779  LEU786  VAL792 
 PHE793  MET794  SER795  GLU796  ALA797  LYS798  CYS799  TRP800  GLU811  SER814 

> <Gold.Protein.RotatedAtoms>
  151.6924  135.0944  160.0235 H   0  0  0  0  0  0  0  0  0  0  0  0  # atno 6907 bound_to 6896
  152.3770  133.6490  159.6140 H   0  0  0  0  0  0  0  0  0  0  0  0  # atno 6908 bound_to 6896
  150.7717  133.9093  159.3406 H   0  0  0  0  0  0  0  0  0  0  0  0  # atno 6909 bound_to 6896
  145.2915  140.9354  143.2875 H   0  0  0  0  0  0  0  0  0  0  0  0  # atno 7974 bound_to 7965
  156.2785  140.2124  156.5726 H   0  0  0  0  0  0  0  0  0  0  0  0  # atno 8008 bound_to 7997
  154.7123  140.0511  157.0584 H   0  0  0  0  0  0  0  0  0  0  0  0  # atno 8009 bound_to 7997
  155.0589  140.3164  155.4670 H   0  0  0  0  0  0  0  0  0  0  0  0  # atno 8010 bound_to 7997
  140.0647  144.5203  150.7269 H   0  0  0  0  0  0  0  0  0  0  0  0  # atno 10167 bound_to 10162
  156.0133  130.4503  150.3411 H   0  0  0  0  0  0  0  0  0  0  0  0  # atno 10718 bound_to 10713
  153.5957  135.7001  153.5405 H   0  0  0  0  0  0  0  0  0  0  0  0  # atno 10763 bound_to 10752
  153.3140  135.4093  155.1360 H   0  0  0  0  0  0  0  0  0  0  0  0  # atno 10764 bound_to 10752
  154.8592  135.3679  154.5490 H   0  0  0  0  0  0  0  0  0  0  0  0  # atno 10765 bound_to 10752
  140.3116  134.7512  157.3995 H   0  0  0  0  0  0  0  0  0  0  0  0  # atno 11005 bound_to 11000
  144.9169  139.4459  143.6560 LP  0  0  0  0  0  0  0  0  0  0  0  0  # atno 17320 bound_to 7965
  146.3183  139.8008  142.8966 LP  0  0  0  0  0  0  0  0  0  0  0  0  # atno 17321 bound_to 7965
  140.7155  143.2541  151.4448 LP  0  0  0  0  0  0  0  0  0  0  0  0  # atno 17342 bound_to 10162
  139.5872  144.1578  152.2044 LP  0  0  0  0  0  0  0  0  0  0  0  0  # atno 17343 bound_to 10162
  157.1506  131.0320  151.2886 LP  0  0  0  0  0  0  0  0  0  0  0  0  # atno 17370 bound_to 10713
  157.4395  130.7536  149.7057 LP  0  0  0  0  0  0  0  0  0  0  0  0  # atno 17371 bound_to 10713
  140.1020  134.5460  155.8344 LP  0  0  0  0  0  0  0  0  0  0  0  0  # atno 17394 bound_to 11000
  141.2107  133.6697  156.6527 LP  0  0  0  0  0  0  0  0  0  0  0  0  # atno 17395 bound_to 11000

$$$$
