AV-unprocessed.smi:1284|AV-procd|sdf|5365|dock3
  -GOLD-   22720 4503D 1   1.00000     0.00000
 Structure written by MMmdl.
 40 42  0  0  0  0  0  0  0  0  2 V2000
  151.7356  137.6756  156.9403 N   0  0  0  0  0  0  0  0  0  0  0  0
  152.4925  138.1250  155.9360 C   0  0  0  0  0  0  0  0  0  0  0  0
  153.6176  138.5866  156.1166 O   0  0  0  0  0  0  0  0  0  0  0  0
  151.9053  138.0508  154.5246 C   0  0  0  0  0  0  0  0  0  0  0  0
  150.6832  138.9123  154.4063 C   0  0  0  0  0  0  0  0  0  0  0  0
  149.5676  138.6135  153.6786 N   0  3  0  0  0  0  0  0  0  0  0  0
  148.6335  139.6423  153.7936 C   0  0  0  0  0  0  0  0  0  0  0  0
  147.3681  139.7914  153.2344 C   0  0  0  0  0  0  0  0  0  0  0  0
  146.6704  140.9745  153.5550 C   0  0  0  0  0  0  0  0  0  0  0  0
  147.2333  141.9524  154.4008 C   0  0  0  0  0  0  0  0  0  0  0  0
  148.5163  141.7885  154.9633 C   0  0  0  0  0  0  0  0  0  0  0  0
  149.1993  140.6156  154.6415 C   0  0  0  0  0  0  0  0  0  0  0  0
  150.4575  140.1209  155.0039 N   0  0  0  0  0  0  0  0  0  0  0  0
  151.2949  140.9190  155.9151 C   0  0  0  0  0  0  0  0  0  0  0  0
  151.0069  140.6391  157.4034 C   0  0  2  0  0  0  0  0  0  0  0  0
  149.6123  140.5322  157.6125 O   0  0  0  0  0  0  0  0  0  0  0  0
  151.6434  141.6949  158.2930 C   0  0  0  0  0  0  0  0  0  0  0  0
  151.3547  143.0604  158.0818 C   0  0  0  0  0  0  0  0  0  0  0  0
  151.9328  144.0443  158.9077 C   0  0  0  0  0  0  0  0  0  0  0  0
  152.8011  143.6683  159.9503 C   0  0  0  0  0  0  0  0  0  0  0  0
  153.0901  142.3076  160.1683 C   0  0  0  0  0  0  0  0  0  0  0  0
  152.5119  141.3233  159.3434 C   0  0  0  0  0  0  0  0  0  0  0  0
  152.0848  137.7131  157.8873 H   0  0  0  0  0  0  0  0  0  0  0  0
  150.8143  137.3051  156.7532 H   0  0  0  0  0  0  0  0  0  0  0  0
  152.6504  138.3889  153.8038 H   0  0  0  0  0  0  0  0  0  0  0  0
  151.6732  137.0156  154.2758 H   0  0  0  0  0  0  0  0  0  0  0  0
  146.9357  139.0435  152.5858 H   0  0  0  0  0  0  0  0  0  0  0  0
  145.6844  141.1353  153.1434 H   0  0  0  0  0  0  0  0  0  0  0  0
  146.6695  142.8468  154.6229 H   0  0  0  0  0  0  0  0  0  0  0  0
  148.9384  142.5442  155.6091 H   0  0  0  0  0  0  0  0  0  0  0  0
  152.3413  140.7190  155.6814 H   0  0  0  0  0  0  0  0  0  0  0  0
  151.1380  141.9726  155.6854 H   0  0  0  0  0  0  0  0  0  0  0  0
  151.4324  139.6710  157.6696 H   0  0  0  0  0  0  0  0  0  0  0  0
  149.3294  141.2789  158.1188 H   0  0  0  0  0  0  0  0  0  0  0  0
  150.6877  143.3593  157.2866 H   0  0  0  0  0  0  0  0  0  0  0  0
  151.7096  145.0879  158.7416 H   0  0  0  0  0  0  0  0  0  0  0  0
  153.2440  144.4231  160.5834 H   0  0  0  0  0  0  0  0  0  0  0  0
  153.7547  142.0188  160.9691 H   0  0  0  0  0  0  0  0  0  0  0  0
  152.7360  140.2818  159.5217 H   0  0  0  0  0  0  0  0  0  0  0  0
  149.4624  137.7664  153.1345 H   0  0  0  0  0  0  0  0  0  0  0  0
  1  2  1  0  0  0  0
  1 23  1  0  0  0  0
  1 24  1  0  0  0  0
  2  3  2  0  0  0  0
  2  4  1  0  0  0  0
  4  5  1  0  0  0  0
  4 25  1  0  0  0  0
  4 26  1  0  0  0  0
  5 13  1  0  0  0  0
  5  6  2  0  0  0  0
  6  7  1  0  0  0  0
  6 40  1  0  0  0  0
  7 12  2  0  0  0  0
  7  8  1  0  0  0  0
  8  9  2  0  0  0  0
  8 27  1  0  0  0  0
  9 10  1  0  0  0  0
  9 28  1  0  0  0  0
 10 11  2  0  0  0  0
 10 29  1  0  0  0  0
 11 12  1  0  0  0  0
 11 30  1  0  0  0  0
 12 13  1  0  0  0  0
 13 14  1  0  0  0  0
 14 15  1  0  0  0  0
 14 31  1  0  0  0  0
 14 32  1  0  0  0  0
 15 16  1  0  0  0  0
 15 17  1  0  0  0  0
 15 33  1  0  0  0  0
 16 34  1  0  0  0  0
 17 22  1  0  0  0  0
 17 18  2  0  0  0  0
 18 19  1  0  0  0  0
 18 35  1  0  0  0  0
 19 20  2  0  0  0  0
 19 36  1  0  0  0  0
 20 21  1  0  0  0  0
 20 37  1  0  0  0  0
 21 22  2  0  0  0  0
 21 38  1  0  0  0  0
 22 39  1  0  0  0  0
M  CHG  1   6   1
M  END
> <s_m_source_file>
AV-unprocessed.smi

> <i_m_source_file_index>
1284

> <i_lp_mmshare_version>
43012

> <i_f3d_flags>
0

> <s_epik_input>
W2NIXTFbY0hdW2NIXVtjSF1jKGMxMiluKGMobjIpW0NIMl1DKD1PKVtOSDJdKVtDSDJdW0NASF0oW09IXSljM1tjSF1bY0hdW2NIXVtjSF1bY0hdMw==

> <s_epik_cmdline>
J2VwaWtfcHl0aG9uJywgJy1waCcsICc3LjAnLCAnLXRuJywgJzgnLCAnLW1hJywgJzIwMCcsICctbWV0YWxfYmluZGluZycsICctaW1hZScsICc8aW5maWxlLm1hZT4nLCAnLW9tYWUnLCAnPG91dGZpbGUubWFlPic=

> <r_epik_Ionization_Penalty>
1.66646

> <r_epik_Ionization_Penalty_Charging>
1.66645

> <r_epik_Ionization_Penalty_Neutral>
1.67657e-06

> <r_epik_State_Penalty>
1.76975

> <r_epik_Charging_Adjusted_Penalty>
3.43621

> <i_epik_Tot_Q>
1

> <i_epik_Tot_abs_Q>
1

> <r_epik_Metal_State_Penalty>
1.80493

> <b_epik_Metal_Only>
0

> <s_lp_Force_Field>
OPLS_2005

> <r_lp_Energy>
13.978

> <b_lp_Chiralities_Consistent>
1

> <s_lp_Variant>
AV-unprocessed.smi:1284-3

> <Gold.Version>
5.8.1

> <Gold.Id.Protein>
6NUR|6NUR_protein|mol2

> <Gold.PLP.Fitness>
54.8988

> <Gold.PLP.PLP>
-48.3181

> <Gold.PLP.part.hbond>
-2.9763

> <Gold.PLP.part.metal>
0.0000

> <Gold.PLP.part.buried>
1.5287

> <Gold.PLP.part.nonpolar>
-46.7838

> <Gold.PLP.part.repulsive>
0.1534

> <Gold.PLP.ligand.clash>
0.0000

> <Gold.PLP.ligand.torsion>
0.9351

> <Gold.PLP.Chemscore.Hbond>
2.7840

> <Gold.PLP.Chemscore.CHOScore>
0.0000

> <Gold.PLP.Chemscore.Metal>
0.0000

> <Gold.Chemscore.Hbonds>
donor molecule, donor type, donor heavy atom, donor atom, acceptor molecule, acceptor atom, score
      L1  H     6    40       P1  7948  2.00
      P1  H  7997  8008       L1     3  0.78

> <Gold.PLP.Chemscore.Internal.Correction>
0.0990

> <Gold.Rescore>
     Score         DG    S(hbond)    S(metal)    S(lipo)     H(rot)  DE(clash)    DE(int)     intcor
     17.38     -18.60       1.73        0.00     126.62       2.92       0.63       0.59       ----

> <Gold.Chemscore.Fitness>
17.3825

> <Gold.Chemscore.DG>
-18.6001

> <Gold.Chemscore.ZeroCoef>
-5.4800

> <Gold.Chemscore.Hbond>
1.7324

> <Gold.Chemscore.Metal>
0.0000

> <Gold.Chemscore.Lipo>
126.6245

> <Gold.Chemscore.Internal_Hbond>
0.0000

> <Gold.Chemscore.DEClash>
0.6267

> <Gold.Chemscore.DEInternal>
0.5909

> <Gold.Chemscore.Rot>
2.9223

> <Gold.Chemscore.Internal.Correction>
   9.000000E+99

> <Gold.Chemscore.Hbonds>
donor molecule, donor type, donor heavy atom, donor atom, acceptor molecule, acceptor atom, score
      L1  H     6    40       P1  7948  0.85
      P1  H  7997  8008       L1     3  0.78

> <Gold.Chemscore.Hbond.Weighted>
-5.7863

> <Gold.Chemscore.Metal.Weighted>
-0.0000

> <Gold.Chemscore.Lipo.Weighted>
-14.8151

> <Gold.Chemscore.Internal_Hbond.Weighted>
0.0000

> <Gold.Chemscore.DEClash.Weighted>
0.6267

> <Gold.Chemscore.DEInternal.Weighted>
0.5909

> <Gold.Chemscore.Rot.Weighted>
7.4812

> <Gold.Chemscore.Internal.Correction.Weighted>
   9.000000E+99

> <Gold.Protein.RotatedTorsions>
[ 6907 6896 6895 6894 ] final  136.99 input  -60.11 | X-H torsion
[ 7974 7965 7964 7962 ] final  -45.20 input  175.53 | X-H torsion
[ 8008 7997 7996 7995 ] final  -45.31 input   59.86 | X-H torsion
[ 10167 10162 10161 10158 ] final  -59.96 input  -65.29 | X-H torsion
[ 10718 10713 10712 10709 ] final -116.38 input   66.30 | X-H torsion
[ 10763 10752 10751 10750 ] final  105.44 input  -60.55 | X-H torsion
[ 11005 11000 10999 10996 ] final  -52.35 input  -57.11 | X-H torsion

> <Gold.Protein.ActiveResidues>
 VAL166  LYS551  ARG553  GLY616  TRP617  ASP618  TYR619  PRO620  LYS621  CYS622 
 ASP623  PHE694  ASN695  SER759  ASP760  ASP761  ALA762  ILE779  LEU786  VAL792 
 PHE793  MET794  SER795  GLU796  ALA797  LYS798  CYS799  TRP800  GLU811  SER814 

> <Gold.Protein.RotatedAtoms>
  152.2831  133.5489  159.5509 H   0  0  0  0  0  0  0  0  0  0  0  0  # atno 6907 bound_to 6896
  150.7204  134.0535  159.3815 H   0  0  0  0  0  0  0  0  0  0  0  0  # atno 6908 bound_to 6896
  151.8445  135.0579  160.0503 H   0  0  0  0  0  0  0  0  0  0  0  0  # atno 6909 bound_to 6896
  145.9845  140.7248  142.9347 H   0  0  0  0  0  0  0  0  0  0  0  0  # atno 7974 bound_to 7965
  154.4000  140.1400  156.3826 H   0  0  0  0  0  0  0  0  0  0  0  0  # atno 8008 bound_to 7997
  155.7989  140.3476  155.5371 H   0  0  0  0  0  0  0  0  0  0  0  0  # atno 8009 bound_to 7997
  155.8503  140.0940  157.1669 H   0  0  0  0  0  0  0  0  0  0  0  0  # atno 8010 bound_to 7997
  140.6102  143.2385  151.5728 H   0  0  0  0  0  0  0  0  0  0  0  0  # atno 10167 bound_to 10162
  156.0959  130.6132  150.9028 H   0  0  0  0  0  0  0  0  0  0  0  0  # atno 10718 bound_to 10713
  153.3795  135.3910  155.1846 H   0  0  0  0  0  0  0  0  0  0  0  0  # atno 10763 bound_to 10752
  154.8705  135.3722  154.4876 H   0  0  0  0  0  0  0  0  0  0  0  0  # atno 10764 bound_to 10752
  153.5351  135.7085  153.5725 H   0  0  0  0  0  0  0  0  0  0  0  0  # atno 10765 bound_to 10752
  141.0920  133.6631  156.4011 H   0  0  0  0  0  0  0  0  0  0  0  0  # atno 11005 bound_to 11000
  144.6871  140.2964  143.7270 LP  0  0  0  0  0  0  0  0  0  0  0  0  # atno 17320 bound_to 7965
  145.7721  139.1861  143.2206 LP  0  0  0  0  0  0  0  0  0  0  0  0  # atno 17321 bound_to 7965
  139.5355  144.2793  152.1242 LP  0  0  0  0  0  0  0  0  0  0  0  0  # atno 17342 bound_to 10162
  140.1991  144.4676  150.6440 LP  0  0  0  0  0  0  0  0  0  0  0  0  # atno 17343 bound_to 10162
  157.6120  131.0936  150.8778 LP  0  0  0  0  0  0  0  0  0  0  0  0  # atno 17370 bound_to 10713
  156.8916  130.5215  149.5286 LP  0  0  0  0  0  0  0  0  0  0  0  0  # atno 17371 bound_to 10713
  140.5230  134.6285  157.5324 LP  0  0  0  0  0  0  0  0  0  0  0  0  # atno 17394 bound_to 11000
  139.9747  134.7234  155.9972 LP  0  0  0  0  0  0  0  0  0  0  0  0  # atno 17395 bound_to 11000

$$$$
