AV-unprocessed.smi:54|AV-procd|sdf|558|dock7
  -GOLD-   2262016463D 1   1.00000     0.00000
 Structure written by MMmdl.
 43 45  0  0  0  0  0  0  0  0  2 V2000
  145.8559  135.5672  159.3400 C   0  0  0  0  0  0  0  0  0  0  0  0
  146.9461  135.3416  160.4005 C   0  0  0  0  0  0  0  0  0  0  0  0
  146.3699  135.4455  161.8225 C   0  0  0  0  0  0  0  0  0  0  0  0
  148.1044  136.3310  160.2069 C   0  0  0  0  0  0  0  0  0  0  0  0
  148.3088  137.1884  161.0687 O   0  0  0  0  0  0  0  0  0  0  0  0
  148.8130  136.1717  159.0665 N   0  0  0  0  0  0  0  0  0  0  0  0
  149.9034  136.9062  158.5828 C   0  0  0  0  0  0  0  0  0  0  0  0
  149.6564  137.4894  157.4346 N   0  0  0  0  0  0  0  0  0  0  0  0
  150.7381  138.2059  156.9585 C   0  0  0  0  0  0  0  0  0  0  0  0
  151.9671  138.3537  157.5395 C   0  0  0  0  0  0  0  0  0  0  0  0
  152.7992  139.1571  156.7694 N   0  0  0  0  0  0  0  0  0  0  0  0
  152.0150  139.4618  155.7363 C   0  0  0  0  0  0  0  0  0  0  0  0
  150.7778  138.9225  155.7677 N   0  0  0  0  0  0  0  0  0  0  0  0
  149.6629  139.0771  154.7770 C   0  0  1  0  0  0  0  0  0  0  0  0
  148.5391  138.4053  155.2644 O   0  0  0  0  0  0  0  0  0  0  0  0
  147.6969  139.3261  155.9497 C   0  0  2  0  0  0  0  0  0  0  0  0
  146.2819  138.7537  156.1424 C   0  0  0  0  0  0  0  0  0  0  0  0
  146.3395  137.5860  156.9334 O   0  0  0  0  0  0  0  0  0  0  0  0
  147.7979  140.5664  155.0538 C   0  0  2  0  0  0  0  0  0  0  0  0
  146.9302  140.4454  153.9378 O   0  0  0  0  0  0  0  0  0  0  0  0
  149.2739  140.5632  154.6546 C   0  0  2  0  0  0  0  0  0  0  0  0
  149.4946  141.0947  153.3615 O   0  0  0  0  0  0  0  0  0  0  0  0
  152.1823  137.6643  158.8331 C   0  0  0  0  0  0  0  0  0  0  0  0
  153.2717  137.7682  159.3936 O   0  0  0  0  0  0  0  0  0  0  0  0
  151.1152  136.9502  159.3013 N   0  5  0  0  0  0  0  0  0  0  0  0
  150.0388  138.6192  153.8611 H   0  0  0  0  0  0  0  0  0  0  0  0
  148.1375  139.5673  156.9191 H   0  0  0  0  0  0  0  0  0  0  0  0
  147.5316  141.4763  155.5925 H   0  0  0  0  0  0  0  0  0  0  0  0
  149.8430  141.1504  155.3778 H   0  0  0  0  0  0  0  0  0  0  0  0
  146.2646  135.4996  158.3311 H   0  0  0  0  0  0  0  0  0  0  0  0
  145.3895  136.5476  159.4455 H   0  0  0  0  0  0  0  0  0  0  0  0
  145.0694  134.8171  159.4247 H   0  0  0  0  0  0  0  0  0  0  0  0
  147.3322  134.3289  160.2715 H   0  0  0  0  0  0  0  0  0  0  0  0
  147.1442  135.2962  162.5760 H   0  0  0  0  0  0  0  0  0  0  0  0
  145.6030  134.6884  161.9876 H   0  0  0  0  0  0  0  0  0  0  0  0
  145.9142  136.4203  162.0015 H   0  0  0  0  0  0  0  0  0  0  0  0
  148.4752  135.4370  158.4630 H   0  0  0  0  0  0  0  0  0  0  0  0
  152.3571  140.0967  154.9326 H   0  0  0  0  0  0  0  0  0  0  0  0
  145.6538  139.4743  156.6669 H   0  0  0  0  0  0  0  0  0  0  0  0
  145.8035  138.5377  155.1867 H   0  0  0  0  0  0  0  0  0  0  0  0
  146.8218  137.7844  157.7215 H   0  0  0  0  0  0  0  0  0  0  0  0
  146.0898  140.1444  154.2485 H   0  0  0  0  0  0  0  0  0  0  0  0
  149.3838  140.3981  152.7322 H   0  0  0  0  0  0  0  0  0  0  0  0
  1  2  1  0  0  0  0
  1 30  1  0  0  0  0
  1 31  1  0  0  0  0
  1 32  1  0  0  0  0
  2  3  1  0  0  0  0
  2  4  1  0  0  0  0
  2 33  1  0  0  0  0
  3 34  1  0  0  0  0
  3 35  1  0  0  0  0
  3 36  1  0  0  0  0
  4  5  2  0  0  0  0
  4  6  1  0  0  0  0
  6 37  1  0  0  0  0
  6  7  1  0  0  0  0
  7 25  1  0  0  0  0
  7  8  2  0  0  0  0
  8  9  1  0  0  0  0
  9 13  1  0  0  0  0
  9 10  2  0  0  0  0
 10 11  1  0  0  0  0
 10 23  1  0  0  0  0
 11 12  2  0  0  0  0
 12 13  1  0  0  0  0
 12 38  1  0  0  0  0
 13 14  1  0  0  0  0
 14 26  1  0  0  0  0
 14 21  1  0  0  0  0
 14 15  1  0  0  0  0
 15 16  1  0  0  0  0
 16 27  1  0  0  0  0
 16 17  1  0  0  0  0
 16 19  1  0  0  0  0
 17 18  1  0  0  0  0
 17 39  1  0  0  0  0
 17 40  1  0  0  0  0
 18 41  1  0  0  0  0
 19 28  1  0  0  0  0
 19 20  1  0  0  0  0
 19 21  1  0  0  0  0
 20 42  1  0  0  0  0
 21 29  1  0  0  0  0
 21 22  1  0  0  0  0
 22 43  1  0  0  0  0
 23 24  2  0  0  0  0
 23 25  1  0  0  0  0
M  CHG  1  25  -1
M  END
> <s_m_source_file>
AV-unprocessed.smi

> <i_m_source_file_index>
54

> <i_lp_mmshare_version>
43012

> <i_f3d_flags>
0

> <s_epik_input>
W0NIM11bQ0hdKFtDSDNdKUMoPU8pW05IXWMobjEpW25IXWMoPU8pYyhjMTIpbltjSF1uMltDQEBIXTNPW0NASF0oW0NIMl1bT0hdKVtDQEBIXShbT0hdKVtDQEhdM1tPSF0=

> <s_epik_cmdline>
J2VwaWtfcHl0aG9uJywgJy1waCcsICc3LjAnLCAnLXRuJywgJzgnLCAnLW1hJywgJzIwMCcsICctbWV0YWxfYmluZGluZycsICctaW1hZScsICc8aW5maWxlLm1hZT4nLCAnLW9tYWUnLCAnPG91dGZpbGUubWFlPic=

> <r_lp_tautomer_probability>
0.85571

> <r_epik_Ionization_Penalty>
1.75936

> <r_epik_Ionization_Penalty_Charging>
4.55893e-11

> <r_epik_Ionization_Penalty_Neutral>
1.75936

> <r_epik_State_Penalty>
1.72072

> <r_epik_Charging_Adjusted_Penalty>
1.72072

> <i_epik_Tot_Q>
-1

> <i_epik_Tot_abs_Q>
1

> <r_epik_Metal_State_Penalty>
0.400338

> <b_epik_Metal_Only>
1

> <s_epik_Chemistry_Notes>
This compound contains an acetal/aminal-like group ( X-CH(R)-Y where X, Y are N, S, or O) that may be acid/base labile, releasing an aldehyde.

> <s_lp_Force_Field>
OPLS_2005

> <r_lp_Energy>
63.0293

> <b_lp_Chiralities_Consistent>
1

> <s_lp_Variant>
AV-unprocessed.smi:54-30

> <Gold.Version>
5.8.1

> <Gold.Id.Protein>
6NUR|6NUR_protein|mol2

> <Gold.PLP.Fitness>
44.4814

> <Gold.PLP.PLP>
-26.7957

> <Gold.PLP.part.hbond>
-6.4232

> <Gold.PLP.part.metal>
0.0000

> <Gold.PLP.part.buried>
-4.2935

> <Gold.PLP.part.nonpolar>
-16.1386

> <Gold.PLP.part.repulsive>
0.2158

> <Gold.PLP.ligand.clash>
0.0000

> <Gold.PLP.ligand.torsion>
0.7327

> <Gold.PLP.Chemscore.Hbond>
6.3646

> <Gold.PLP.Chemscore.CHOScore>
0.0000

> <Gold.PLP.Chemscore.Metal>
0.0000

> <Gold.Chemscore.Hbonds>
donor molecule, donor type, donor heavy atom, donor atom, acceptor molecule, acceptor atom, score
      L1  H    22    43       P1  7957  0.83
      P1  H  6896  6907       L1    25  2.00
      P1  H  6931  6943       L1     5  1.00
      P1  H  6934  6947       L1     5  0.41
      P1  H  7989  7998       L1    22  0.07
      P1  H  7997  8010       L1    11  1.00
      P1  H  8011  8017       L1    22  1.00

> <Gold.PLP.Chemscore.Internal.Correction>
0.0575

> <Gold.Rescore>
     Score         DG    S(hbond)    S(metal)    S(lipo)     H(rot)  DE(clash)    DE(int)     intcor
     11.02     -13.52       4.45        0.00      29.71       4.02       0.01       2.49       ----

> <Gold.Chemscore.Fitness>
11.0180

> <Gold.Chemscore.DG>
-13.5192

> <Gold.Chemscore.ZeroCoef>
-5.4800

> <Gold.Chemscore.Hbond>
4.4467

> <Gold.Chemscore.Metal>
0.0000

> <Gold.Chemscore.Lipo>
29.7144

> <Gold.Chemscore.Internal_Hbond>
0.0000

> <Gold.Chemscore.DEClash>
0.0089

> <Gold.Chemscore.DEInternal>
2.4923

> <Gold.Chemscore.Rot>
4.0192

> <Gold.Chemscore.Internal.Correction>
   9.000000E+99

> <Gold.Chemscore.Hbonds>
donor molecule, donor type, donor heavy atom, donor atom, acceptor molecule, acceptor atom, score
      L1  H    22    43       P1  7957  0.83
      P1  H  6896  6907       L1    25  0.25
      P1  H  6931  6943       L1     5  0.89
      P1  H  6934  6947       L1     5  0.39
      P1  H  7997  8010       L1    11  0.88
      P1  H  8011  8017       L1    22  0.30

> <Gold.Chemscore.Hbond.Weighted>
-14.8519

> <Gold.Chemscore.Metal.Weighted>
-0.0000

> <Gold.Chemscore.Lipo.Weighted>
-3.4766

> <Gold.Chemscore.Internal_Hbond.Weighted>
0.0000

> <Gold.Chemscore.DEClash.Weighted>
0.0089

> <Gold.Chemscore.DEInternal.Weighted>
2.4923

> <Gold.Chemscore.Rot.Weighted>
10.2893

> <Gold.Chemscore.Internal.Correction.Weighted>
   9.000000E+99

> <Gold.Protein.RotatedTorsions>
[ 6907 6896 6895 6894 ] final  -20.92 input  -60.11 | X-H torsion
[ 7974 7965 7964 7962 ] final  -37.42 input  175.53 | X-H torsion
[ 8008 7997 7996 7995 ] final   49.95 input   59.86 | X-H torsion
[ 10167 10162 10161 10158 ] final  -51.04 input  -65.29 | X-H torsion
[ 10718 10713 10712 10709 ] final -111.76 input   66.30 | X-H torsion
[ 10763 10752 10751 10750 ] final  156.97 input  -60.55 | X-H torsion
[ 11005 11000 10999 10996 ] final  -15.94 input  -57.11 | X-H torsion

> <Gold.Protein.ActiveResidues>
 VAL166  LYS551  ARG553  GLY616  TRP617  ASP618  TYR619  PRO620  LYS621  CYS622 
 ASP623  PHE694  ASN695  SER759  ASP760  ASP761  ALA762  ILE779  LEU786  VAL792 
 PHE793  MET794  SER795  GLU796  ALA797  LYS798  CYS799  TRP800  GLU811  SER814 

> <Gold.Protein.RotatedAtoms>
  151.2409  135.0588  159.9024 H   0  0  0  0  0  0  0  0  0  0  0  0  # atno 6907 bound_to 6896
  152.5393  134.0435  159.8088 H   0  0  0  0  0  0  0  0  0  0  0  0  # atno 6908 bound_to 6896
  151.0629  133.5481  159.2664 H   0  0  0  0  0  0  0  0  0  0  0  0  # atno 6909 bound_to 6896
  146.0576  140.6394  142.9012 H   0  0  0  0  0  0  0  0  0  0  0  0  # atno 7974 bound_to 7965
  155.4107  140.3442  155.4263 H   0  0  0  0  0  0  0  0  0  0  0  0  # atno 8008 bound_to 7997
  156.1450  140.1553  156.8893 H   0  0  0  0  0  0  0  0  0  0  0  0  # atno 8009 bound_to 7997
  154.5003  140.0816  156.7764 H   0  0  0  0  0  0  0  0  0  0  0  0  # atno 8010 bound_to 7997
  140.6608  143.2634  151.4447 H   0  0  0  0  0  0  0  0  0  0  0  0  # atno 10167 bound_to 10162
  156.0666  130.5884  150.8418 H   0  0  0  0  0  0  0  0  0  0  0  0  # atno 10718 bound_to 10713
  154.1927  135.2794  155.3016 H   0  0  0  0  0  0  0  0  0  0  0  0  # atno 10763 bound_to 10752
  154.5916  135.5558  153.7287 H   0  0  0  0  0  0  0  0  0  0  0  0  # atno 10764 bound_to 10752
  153.0108  135.6369  154.2066 H   0  0  0  0  0  0  0  0  0  0  0  0  # atno 10765 bound_to 10752
  140.8017  133.8208  155.9477 H   0  0  0  0  0  0  0  0  0  0  0  0  # atno 11005 bound_to 11000
  144.7156  140.4199  143.7046 LP  0  0  0  0  0  0  0  0  0  0  0  0  # atno 17320 bound_to 7965
  145.6617  139.1582  143.2805 LP  0  0  0  0  0  0  0  0  0  0  0  0  # atno 17321 bound_to 7965
  139.5841  144.1643  152.2006 LP  0  0  0  0  0  0  0  0  0  0  0  0  # atno 17342 bound_to 10162
  140.0978  144.5566  150.7010 LP  0  0  0  0  0  0  0  0  0  0  0  0  # atno 17343 bound_to 10162
  157.5711  131.0946  150.9416 LP  0  0  0  0  0  0  0  0  0  0  0  0  # atno 17370 bound_to 10713
  156.9632  130.5463  149.5287 LP  0  0  0  0  0  0  0  0  0  0  0  0  # atno 17371 bound_to 10713
  140.9287  134.2049  157.4878 LP  0  0  0  0  0  0  0  0  0  0  0  0  # atno 17394 bound_to 11000
  139.8721  134.9824  156.5154 LP  0  0  0  0  0  0  0  0  0  0  0  0  # atno 17395 bound_to 11000

$$$$
