AV-unprocessed.smi:1473|AV-procd|sdf|5967|dock2
  -GOLD-   22720 6 53D 1   1.00000     0.00000
 Structure written by MMmdl.
 33 34  0  0  0  0  0  0  0  0  2 V2000
  153.7584  138.1018  154.6577 N   0  0  0  0  0  0  0  0  0  0  0  0
  152.3672  138.2235  155.6576 S   0  0  0  0  0  0  0  0  0  0  0  0
  151.6773  139.4542  155.2390 O   0  0  0  0  0  0  0  0  0  0  0  0
  151.6595  136.9401  155.5218 O   0  0  0  0  0  0  0  0  0  0  0  0
  153.1739  138.3742  157.0549 N   0  5  0  0  0  0  0  0  0  0  0  0
  152.4338  138.4981  158.3007 C   0  0  0  0  0  0  0  0  0  0  0  0
  152.8431  139.7263  159.1055 C   0  0  0  0  0  0  0  0  0  0  0  0
  154.0119  139.7134  159.8964 C   0  0  0  0  0  0  0  0  0  0  0  0
  154.3491  140.8791  160.6064 C   0  0  0  0  0  0  0  0  0  0  0  0
  153.6127  142.0084  160.5707 N   0  0  0  0  0  0  0  0  0  0  0  0
  152.4887  142.0408  159.8141 C   0  0  0  0  0  0  0  0  0  0  0  0
  151.7614  143.2539  159.8147 N   0  0  0  0  0  0  0  0  0  0  0  0
  150.4689  143.2955  159.1351 C   0  0  0  0  0  0  0  0  0  0  0  0
  149.6976  144.5715  159.5123 C   0  0  0  0  0  0  0  0  0  0  0  0
  150.5000  145.7169  159.2497 O   0  0  0  0  0  0  0  0  0  0  0  0
  151.6907  145.7120  160.0290 C   0  0  0  0  0  0  0  0  0  0  0  0
  152.5433  144.4824  159.6729 C   0  0  0  0  0  0  0  0  0  0  0  0
  152.0679  140.9087  159.0698 C   0  0  0  0  0  0  0  0  0  0  0  0
  154.5563  138.6063  155.0423 H   0  0  0  0  0  0  0  0  0  0  0  0
  153.5560  138.3283  153.6849 H   0  0  0  0  0  0  0  0  0  0  0  0
  151.3572  138.5350  158.1291 H   0  0  0  0  0  0  0  0  0  0  0  0
  152.5887  137.6245  158.9348 H   0  0  0  0  0  0  0  0  0  0  0  0
  154.6485  138.8415  159.9616 H   0  0  0  0  0  0  0  0  0  0  0  0
  155.2369  140.9062  161.2206 H   0  0  0  0  0  0  0  0  0  0  0  0
  150.6280  143.2574  158.0567 H   0  0  0  0  0  0  0  0  0  0  0  0
  149.8662  142.4301  159.4120 H   0  0  0  0  0  0  0  0  0  0  0  0
  148.7793  144.6395  158.9287 H   0  0  0  0  0  0  0  0  0  0  0  0
  149.4054  144.5525  160.5635 H   0  0  0  0  0  0  0  0  0  0  0  0
  152.2497  146.6259  159.8279 H   0  0  0  0  0  0  0  0  0  0  0  0
  151.4438  145.7185  161.0921 H   0  0  0  0  0  0  0  0  0  0  0  0
  153.4260  144.4760  160.3121 H   0  0  0  0  0  0  0  0  0  0  0  0
  152.8955  144.5568  158.6433 H   0  0  0  0  0  0  0  0  0  0  0  0
  151.1784  140.9432  158.4569 H   0  0  0  0  0  0  0  0  0  0  0  0
  1  2  1  0  0  0  0
  1 19  1  0  0  0  0
  1 20  1  0  0  0  0
  2  3  2  0  0  0  0
  2  4  2  0  0  0  0
  2  5  1  0  0  0  0
  5  6  1  0  0  0  0
  6  7  1  0  0  0  0
  6 21  1  0  0  0  0
  6 22  1  0  0  0  0
  7 18  1  0  0  0  0
  7  8  2  0  0  0  0
  8  9  1  0  0  0  0
  8 23  1  0  0  0  0
  9 10  2  0  0  0  0
  9 24  1  0  0  0  0
 10 11  1  0  0  0  0
 11 12  1  0  0  0  0
 11 18  2  0  0  0  0
 12 17  1  0  0  0  0
 12 13  1  0  0  0  0
 13 14  1  0  0  0  0
 13 25  1  0  0  0  0
 13 26  1  0  0  0  0
 14 15  1  0  0  0  0
 14 27  1  0  0  0  0
 14 28  1  0  0  0  0
 15 16  1  0  0  0  0
 16 17  1  0  0  0  0
 16 29  1  0  0  0  0
 16 30  1  0  0  0  0
 17 31  1  0  0  0  0
 17 32  1  0  0  0  0
 18 33  1  0  0  0  0
M  CHG  1   5  -1
M  END
> <s_m_source_file>
AV-unprocessed.smi

> <i_m_source_file_index>
1473

> <i_lp_mmshare_version>
43012

> <i_f3d_flags>
0

> <s_epik_input>
W05IMl1TKD1PKSg9TylbTkhdW0NIMl1jMVtjSF1bY0hdbmMoW2NIXTEpTjJbQ0gyXVtDSDJdT1tDSDJdW0NIMl0y

> <s_epik_cmdline>
J2VwaWtfcHl0aG9uJywgJy1waCcsICc3LjAnLCAnLXRuJywgJzgnLCAnLW1hJywgJzIwMCcsICctbWV0YWxfYmluZGluZycsICctaW1hZScsICc8aW5maWxlLm1hZT4nLCAnLW9tYWUnLCAnPG91dGZpbGUubWFlPic=

> <r_lp_tautomer_probability>
1

> <r_epik_Ionization_Penalty>
1.02326

> <r_epik_Ionization_Penalty_Charging>
0.789613

> <r_epik_Ionization_Penalty_Neutral>
0.233646

> <r_epik_State_Penalty>
0.93706

> <r_epik_Charging_Adjusted_Penalty>
1.72667

> <i_epik_Tot_Q>
-1

> <i_epik_Tot_abs_Q>
1

> <r_epik_Metal_State_Penalty>
0.736197

> <b_epik_Metal_Only>
0

> <s_lp_Force_Field>
OPLS_2005

> <r_lp_Energy>
11.8177

> <b_lp_Chiralities_Consistent>
1

> <s_lp_Variant>
AV-unprocessed.smi:1473-2

> <Gold.Version>
5.8.1

> <Gold.Id.Protein>
6NUR|6NUR_protein|mol2

> <Gold.PLP.Fitness>
44.5096

> <Gold.PLP.PLP>
-33.8162

> <Gold.PLP.part.hbond>
-6.2324

> <Gold.PLP.part.metal>
0.0000

> <Gold.PLP.part.buried>
-5.0412

> <Gold.PLP.part.nonpolar>
-23.3783

> <Gold.PLP.part.repulsive>
0.3373

> <Gold.PLP.ligand.clash>
0.0000

> <Gold.PLP.ligand.torsion>
1.1977

> <Gold.PLP.Chemscore.Hbond>
3.9040

> <Gold.PLP.Chemscore.CHOScore>
0.0000

> <Gold.PLP.Chemscore.Metal>
0.0000

> <Gold.Chemscore.Hbonds>
donor molecule, donor type, donor heavy atom, donor atom, acceptor molecule, acceptor atom, score
      P1  H  7989  7998       L1     3  0.49
      P1  H  7997  8008       L1     5  1.59
      P1  H 10752 10764       L1     4  0.79

> <Gold.PLP.Chemscore.Internal.Correction>
1.3768

> <Gold.Rescore>
     Score         DG    S(hbond)    S(metal)    S(lipo)     H(rot)  DE(clash)    DE(int)     intcor
     15.16     -16.60       2.36        0.00      68.83       1.88       0.14       1.30       ----

> <Gold.Chemscore.Fitness>
15.1631

> <Gold.Chemscore.DG>
-16.6027

> <Gold.Chemscore.ZeroCoef>
-5.4800

> <Gold.Chemscore.Hbond>
2.3611

> <Gold.Chemscore.Metal>
0.0000

> <Gold.Chemscore.Lipo>
68.8298

> <Gold.Chemscore.Internal_Hbond>
0.0000

> <Gold.Chemscore.DEClash>
0.1363

> <Gold.Chemscore.DEInternal>
1.3033

> <Gold.Chemscore.Rot>
1.8814

> <Gold.Chemscore.Internal.Correction>
   9.000000E+99

> <Gold.Chemscore.Hbonds>
donor molecule, donor type, donor heavy atom, donor atom, acceptor molecule, acceptor atom, score
      P1  H  7989  7998       L1     3  0.47
      P1  H  7997  8008       L1     5  0.25
      P1  H 10752 10764       L1     4  0.44

> <Gold.Chemscore.Hbond.Weighted>
-7.8861

> <Gold.Chemscore.Metal.Weighted>
-0.0000

> <Gold.Chemscore.Lipo.Weighted>
-8.0531

> <Gold.Chemscore.Internal_Hbond.Weighted>
0.0000

> <Gold.Chemscore.DEClash.Weighted>
0.1363

> <Gold.Chemscore.DEInternal.Weighted>
1.3033

> <Gold.Chemscore.Rot.Weighted>
4.8165

> <Gold.Chemscore.Internal.Correction.Weighted>
   9.000000E+99

> <Gold.Protein.RotatedTorsions>
[ 6907 6896 6895 6894 ] final  -33.38 input  -60.11 | X-H torsion
[ 7974 7965 7964 7962 ] final -124.68 input  175.53 | X-H torsion
[ 8008 7997 7996 7995 ] final  -64.05 input   59.86 | X-H torsion
[ 10167 10162 10161 10158 ] final -100.46 input  -65.29 | X-H torsion
[ 10718 10713 10712 10709 ] final  -87.58 input   66.30 | X-H torsion
[ 10763 10752 10751 10750 ] final  -67.85 input  -60.55 | X-H torsion
[ 11005 11000 10999 10996 ] final   91.59 input  -57.11 | X-H torsion

> <Gold.Protein.ActiveResidues>
 VAL166  LYS551  ARG553  GLY616  TRP617  ASP618  TYR619  PRO620  LYS621  CYS622 
 ASP623  PHE694  ASN695  SER759  ASP760  ASP761  ALA762  ILE779  LEU786  VAL792 
 PHE793  MET794  SER795  GLU796  ALA797  LYS798  CYS799  TRP800  GLU811  SER814 

> <Gold.Protein.RotatedAtoms>
  151.0663  134.9769  159.8285 H   0  0  0  0  0  0  0  0  0  0  0  0  # atno 6907 bound_to 6896
  152.5402  134.2354  159.8851 H   0  0  0  0  0  0  0  0  0  0  0  0  # atno 6908 bound_to 6896
  151.2377  133.4373  159.2640 H   0  0  0  0  0  0  0  0  0  0  0  0  # atno 6909 bound_to 6896
  145.0055  140.7859  143.4470 H   0  0  0  0  0  0  0  0  0  0  0  0  # atno 7974 bound_to 7965
  154.4589  140.0962  156.6837 H   0  0  0  0  0  0  0  0  0  0  0  0  # atno 8008 bound_to 7997
  155.5054  140.3475  155.4360 H   0  0  0  0  0  0  0  0  0  0  0  0  # atno 8009 bound_to 7997
  156.0832  140.1378  156.9675 H   0  0  0  0  0  0  0  0  0  0  0  0  # atno 8010 bound_to 7997
  140.2517  143.3468  152.0708 H   0  0  0  0  0  0  0  0  0  0  0  0  # atno 10167 bound_to 10162
  155.9985  130.4805  150.4889 H   0  0  0  0  0  0  0  0  0  0  0  0  # atno 10718 bound_to 10713
  154.3805  135.6075  153.5788 H   0  0  0  0  0  0  0  0  0  0  0  0  # atno 10763 bound_to 10752
  152.9788  135.5859  154.4416 H   0  0  0  0  0  0  0  0  0  0  0  0  # atno 10764 bound_to 10752
  154.4184  135.2845  155.1969 H   0  0  0  0  0  0  0  0  0  0  0  0  # atno 10765 bound_to 10752
  139.8836  134.8683  156.3449 H   0  0  0  0  0  0  0  0  0  0  0  0  # atno 11005 bound_to 11000
  145.2094  139.2212  143.5151 LP  0  0  0  0  0  0  0  0  0  0  0  0  # atno 17320 bound_to 7965
  146.3460  140.1928  142.8589 LP  0  0  0  0  0  0  0  0  0  0  0  0  # atno 17321 bound_to 7965
  139.5044  144.6775  151.6092 LP  0  0  0  0  0  0  0  0  0  0  0  0  # atno 17342 bound_to 10162
  140.6035  143.9566  150.6402 LP  0  0  0  0  0  0  0  0  0  0  0  0  # atno 17343 bound_to 10162
  157.2886  131.0621  151.2149 LP  0  0  0  0  0  0  0  0  0  0  0  0  # atno 17370 bound_to 10713
  157.3170  130.6918  149.6247 LP  0  0  0  0  0  0  0  0  0  0  0  0  # atno 17371 bound_to 10713
  140.9633  133.7374  156.0432 LP  0  0  0  0  0  0  0  0  0  0  0  0  # atno 17394 bound_to 11000
  140.7962  134.3561  157.5452 LP  0  0  0  0  0  0  0  0  0  0  0  0  # atno 17395 bound_to 11000

$$$$
