AV-unprocessed.smi:876|AV-procd|sdf|4021|dock7
  -GOLD-   22720 1513D 1   1.00000     0.00000
 Structure written by MMmdl.
 41 42  0  0  0  0  0  0  0  0  2 V2000
  150.7214  142.0020  156.3337 C   0  0  0  0  0  0  0  0  0  0  0  0
  150.6339  140.7301  155.6281 N   0  0  0  0  0  0  0  0  0  0  0  0
  151.7282  139.7689  155.7068 C   0  0  0  0  0  0  0  0  0  0  0  0
  149.4456  140.3857  154.9480 C   0  0  0  0  0  0  0  0  0  0  0  0
  148.6239  141.3351  154.2919 C   0  0  0  0  0  0  0  0  0  0  0  0
  147.4506  140.9154  153.6316 C   0  0  0  0  0  0  0  0  0  0  0  0
  147.1073  139.5412  153.6223 C   0  0  0  0  0  0  0  0  0  0  0  0
  145.9425  139.0132  153.0026 N   0  0  0  0  0  0  0  0  0  0  0  0
  145.6100  137.7261  152.8026 C   0  0  0  0  0  0  0  0  0  0  0  0
  146.2795  136.7549  153.1545 O   0  0  0  0  0  0  0  0  0  0  0  0
  144.4281  137.6217  152.1793 N   0  0  0  0  0  0  0  0  0  0  0  0
  143.7764  136.3636  151.8331 C   0  0  2  0  0  0  0  0  0  0  0  0
  143.7058  135.4582  153.0320 C   0  0  0  0  0  0  0  0  0  0  0  0
  144.3131  134.2910  152.8315 C   0  0  0  0  0  0  0  0  0  0  0  0
  144.9373  134.1821  151.4636 C   0  0  1  0  0  0  0  0  0  0  0  0
  144.4305  132.9637  150.6726 C   0  0  0  0  0  0  0  0  0  0  0  0
  145.2055  132.7687  149.5079 O   0  0  0  0  0  0  0  0  0  0  0  0
  144.5797  135.5349  150.7958 C   0  0  0  0  0  0  0  0  0  0  0  0
  147.9507  138.6398  154.3018 C   0  0  0  0  0  0  0  0  0  0  0  0
  149.0649  139.0850  154.9211 N   0  3  0  0  0  0  0  0  0  0  0  0
  142.7602  136.5483  151.4800 H   0  0  0  0  0  0  0  0  0  0  0  0
  146.0189  134.1143  151.5899 H   0  0  0  0  0  0  0  0  0  0  0  0
  149.9432  142.0738  157.0942 H   0  0  0  0  0  0  0  0  0  0  0  0
  150.6083  142.8344  155.6383 H   0  0  0  0  0  0  0  0  0  0  0  0
  151.6848  142.1138  156.8318 H   0  0  0  0  0  0  0  0  0  0  0  0
  152.0528  139.4724  154.7088 H   0  0  0  0  0  0  0  0  0  0  0  0
  151.4154  138.8766  156.2502 H   0  0  0  0  0  0  0  0  0  0  0  0
  152.5904  140.1908  156.2237 H   0  0  0  0  0  0  0  0  0  0  0  0
  148.8715  142.3861  154.2863 H   0  0  0  0  0  0  0  0  0  0  0  0
  146.8320  141.6611  153.1571 H   0  0  0  0  0  0  0  0  0  0  0  0
  145.2507  139.6954  152.7282 H   0  0  0  0  0  0  0  0  0  0  0  0
  143.9395  138.4697  151.9312 H   0  0  0  0  0  0  0  0  0  0  0  0
  143.1984  135.7452  153.9413 H   0  0  0  0  0  0  0  0  0  0  0  0
  144.3805  133.4946  153.5582 H   0  0  0  0  0  0  0  0  0  0  0  0
  144.4659  132.0607  151.2834 H   0  0  0  0  0  0  0  0  0  0  0  0
  143.3921  133.1120  150.3746 H   0  0  0  0  0  0  0  0  0  0  0  0
  145.4621  133.6144  149.1729 H   0  0  0  0  0  0  0  0  0  0  0  0
  143.9803  135.3865  149.8964 H   0  0  0  0  0  0  0  0  0  0  0  0
  145.4888  136.0492  150.4804 H   0  0  0  0  0  0  0  0  0  0  0  0
  147.7738  137.5757  154.3646 H   0  0  0  0  0  0  0  0  0  0  0  0
  149.6542  138.4015  155.3968 H   0  0  0  0  0  0  0  0  0  0  0  0
  1  2  1  0  0  0  0
  1 23  1  0  0  0  0
  1 24  1  0  0  0  0
  1 25  1  0  0  0  0
  2  3  1  0  0  0  0
  2  4  1  0  0  0  0
  3 26  1  0  0  0  0
  3 27  1  0  0  0  0
  3 28  1  0  0  0  0
  4 20  1  0  0  0  0
  4  5  2  0  0  0  0
  5  6  1  0  0  0  0
  5 29  1  0  0  0  0
  6  7  2  0  0  0  0
  6 30  1  0  0  0  0
  7  8  1  0  0  0  0
  7 19  1  0  0  0  0
  8  9  1  0  0  0  0
  8 31  1  0  0  0  0
  9 10  2  0  0  0  0
  9 11  1  0  0  0  0
 11 12  1  0  0  0  0
 11 32  1  0  0  0  0
 12 21  1  0  0  0  0
 12 18  1  0  0  0  0
 12 13  1  0  0  0  0
 13 14  2  0  0  0  0
 13 33  1  0  0  0  0
 14 15  1  0  0  0  0
 14 34  1  0  0  0  0
 15 22  1  0  0  0  0
 15 16  1  0  0  0  0
 15 18  1  0  0  0  0
 16 17  1  0  0  0  0
 16 35  1  0  0  0  0
 16 36  1  0  0  0  0
 17 37  1  0  0  0  0
 18 38  1  0  0  0  0
 18 39  1  0  0  0  0
 19 20  2  0  0  0  0
 19 40  1  0  0  0  0
 20 41  1  0  0  0  0
M  CHG  1  20   1
M  END
> <s_m_source_file>
AV-unprocessed.smi

> <i_m_source_file_index>
876

> <i_lp_mmshare_version>
43012

> <i_f3d_flags>
0

> <s_epik_input>
W0NIM11OKFtDSDNdKWMxW2NIXVtjSF1jKFtjSF1uMSlbTkhdQyg9TylbTkhdW0NAQEhdMltDSF09W0NIXVtDQEBIXShbQ0gyXTIpW0NIMl1bT0hd

> <s_epik_cmdline>
J2VwaWtfcHl0aG9uJywgJy1waCcsICc3LjAnLCAnLXRuJywgJzgnLCAnLW1hJywgJzIwMCcsICctbWV0YWxfYmluZGluZycsICctaW1hZScsICc8aW5maWxlLm1hZT4nLCAnLW9tYWUnLCAnPG91dGZpbGUubWFlPic=

> <r_lp_tautomer_probability>
0.999994

> <r_epik_Ionization_Penalty>
0.257994

> <r_epik_Ionization_Penalty_Charging>
0.257974

> <r_epik_Ionization_Penalty_Neutral>
1.95938e-05

> <r_epik_State_Penalty>
0.249586

> <r_epik_Charging_Adjusted_Penalty>
0.50756

> <i_epik_Tot_Q>
1

> <i_epik_Tot_abs_Q>
1

> <r_epik_Metal_State_Penalty>
0.538508

> <b_epik_Metal_Only>
0

> <s_lp_Force_Field>
OPLS_2005

> <r_lp_Energy>
26.2592

> <b_lp_Chiralities_Consistent>
1

> <s_lp_Variant>
AV-unprocessed.smi:876-3

> <Gold.Version>
5.8.1

> <Gold.Id.Protein>
6NUR|6NUR_protein|mol2

> <Gold.PLP.Fitness>
43.9625

> <Gold.PLP.PLP>
-36.3904

> <Gold.PLP.part.hbond>
-4.0000

> <Gold.PLP.part.metal>
0.0000

> <Gold.PLP.part.buried>
-3.3374

> <Gold.PLP.part.nonpolar>
-29.8990

> <Gold.PLP.part.repulsive>
1.1324

> <Gold.PLP.ligand.clash>
0.0000

> <Gold.PLP.ligand.torsion>
0.5694

> <Gold.PLP.Chemscore.Hbond>
2.8960

> <Gold.PLP.Chemscore.CHOScore>
0.0000

> <Gold.PLP.Chemscore.Metal>
0.0000

> <Gold.Chemscore.Hbonds>
donor molecule, donor type, donor heavy atom, donor atom, acceptor molecule, acceptor atom, score
      L1  H     8    31       P1 10175  1.00
      L1  H    11    32       P1 10175  0.86
      L1  H    17    37       P1  7921  0.94

> <Gold.PLP.Chemscore.Internal.Correction>
0.0228

> <Gold.Rescore>
     Score         DG    S(hbond)    S(metal)    S(lipo)     H(rot)  DE(clash)    DE(int)     intcor
     14.39     -17.86       2.63        0.00      70.51       1.82       0.34       3.14       ----

> <Gold.Chemscore.Fitness>
14.3857

> <Gold.Chemscore.DG>
-17.8624

> <Gold.Chemscore.ZeroCoef>
-5.4800

> <Gold.Chemscore.Hbond>
2.6320

> <Gold.Chemscore.Metal>
0.0000

> <Gold.Chemscore.Lipo>
70.5130

> <Gold.Chemscore.Internal_Hbond>
0.0000

> <Gold.Chemscore.DEClash>
0.3402

> <Gold.Chemscore.DEInternal>
3.1365

> <Gold.Chemscore.Rot>
1.8197

> <Gold.Chemscore.Internal.Correction>
   9.000000E+99

> <Gold.Chemscore.Hbonds>
donor molecule, donor type, donor heavy atom, donor atom, acceptor molecule, acceptor atom, score
      L1  H     8    31       P1 10175  1.00
      L1  H    11    32       P1 10175  0.79
      L1  H    17    37       P1  7921  0.38

> <Gold.Chemscore.Hbond.Weighted>
-8.7909

> <Gold.Chemscore.Metal.Weighted>
-0.0000

> <Gold.Chemscore.Lipo.Weighted>
-8.2500

> <Gold.Chemscore.Internal_Hbond.Weighted>
0.0000

> <Gold.Chemscore.DEClash.Weighted>
0.3402

> <Gold.Chemscore.DEInternal.Weighted>
3.1365

> <Gold.Chemscore.Rot.Weighted>
4.6585

> <Gold.Chemscore.Internal.Correction.Weighted>
   9.000000E+99

> <Gold.Protein.RotatedTorsions>
[ 6907 6896 6895 6894 ] final -103.65 input  -60.11 | X-H torsion
[ 7974 7965 7964 7962 ] final -149.42 input  175.53 | X-H torsion
[ 8008 7997 7996 7995 ] final -169.92 input   59.86 | X-H torsion
[ 10167 10162 10161 10158 ] final  121.84 input  -65.29 | X-H torsion
[ 10718 10713 10712 10709 ] final  107.50 input   66.30 | X-H torsion
[ 10763 10752 10751 10750 ] final    2.02 input  -60.55 | X-H torsion
[ 11005 11000 10999 10996 ] final    7.95 input  -57.11 | X-H torsion

> <Gold.Protein.ActiveResidues>
 VAL166  LYS551  ARG553  GLY616  TRP617  ASP618  TYR619  PRO620  LYS621  CYS622 
 ASP623  PHE694  ASN695  SER759  ASP760  ASP761  ALA762  ILE779  LEU786  VAL792 
 PHE793  MET794  SER795  GLU796  ALA797  LYS798  CYS799  TRP800  GLU811  SER814 

> <Gold.Protein.RotatedAtoms>
  150.7250  134.0396  159.3760 H   0  0  0  0  0  0  0  0  0  0  0  0  # atno 6907 bound_to 6896
  151.8369  135.0601  160.0453 H   0  0  0  0  0  0  0  0  0  0  0  0  # atno 6908 bound_to 6896
  152.2892  133.5508  159.5583 H   0  0  0  0  0  0  0  0  0  0  0  0  # atno 6909 bound_to 6896
  144.7968  140.5066  143.5734 H   0  0  0  0  0  0  0  0  0  0  0  0  # atno 7974 bound_to 7965
  155.9114  140.1058  157.1276 H   0  0  0  0  0  0  0  0  0  0  0  0  # atno 8008 bound_to 7997
  154.4040  140.1273  156.4627 H   0  0  0  0  0  0  0  0  0  0  0  0  # atno 8009 bound_to 7997
  155.7305  140.3468  155.5059 H   0  0  0  0  0  0  0  0  0  0  0  0  # atno 8010 bound_to 7997
  139.5895  144.7019  151.3326 H   0  0  0  0  0  0  0  0  0  0  0  0  # atno 10167 bound_to 10162
  157.6626  131.0874  150.6165 H   0  0  0  0  0  0  0  0  0  0  0  0  # atno 10718 bound_to 10713
  153.3007  135.6955  153.7206 H   0  0  0  0  0  0  0  0  0  0  0  0  # atno 10763 bound_to 10752
  153.6121  135.3442  155.2983 H   0  0  0  0  0  0  0  0  0  0  0  0  # atno 10764 bound_to 10752
  154.8550  135.4366  154.2117 H   0  0  0  0  0  0  0  0  0  0  0  0  # atno 10765 bound_to 10752
  140.5425  134.0361  155.7909 H   0  0  0  0  0  0  0  0  0  0  0  0  # atno 11005 bound_to 11000
  145.5652  139.1481  143.3319 LP  0  0  0  0  0  0  0  0  0  0  0  0  # atno 17320 bound_to 7965
  146.2239  140.5787  142.9005 LP  0  0  0  0  0  0  0  0  0  0  0  0  # atno 17321 bound_to 7965
  140.7161  143.7263  150.7657 LP  0  0  0  0  0  0  0  0  0  0  0  0  # atno 17342 bound_to 10162
  140.0816  143.4963  152.2527 LP  0  0  0  0  0  0  0  0  0  0  0  0  # atno 17343 bound_to 10162
  156.6467  130.4473  149.5733 LP  0  0  0  0  0  0  0  0  0  0  0  0  # atno 17370 bound_to 10713
  156.2168  130.6713  151.1327 LP  0  0  0  0  0  0  0  0  0  0  0  0  # atno 17371 bound_to 10713
  141.1219  133.9447  157.2713 LP  0  0  0  0  0  0  0  0  0  0  0  0  # atno 17394 bound_to 11000
  139.9496  135.0178  156.8956 LP  0  0  0  0  0  0  0  0  0  0  0  0  # atno 17395 bound_to 11000

$$$$
