AV-unprocessed.smi:476|AV-procd|sdf|2669|dock7
  -GOLD-   2262023 83D 1   1.00000     0.00000
 Structure written by MMmdl.
 39 40  0  0  0  0  0  0  0  0  1 V2000
  150.6665  145.4911  159.6247 C   0  0  0  0  0  0  0  0  0  0  0  0
  151.4822  144.3620  160.2296 C   0  0  0  0  0  0  0  0  0  0  0  0
  151.7606  144.2130  161.5290 C   0  0  0  0  0  0  0  0  0  0  0  0
  152.6874  142.7699  161.8606 S   0  0  0  0  0  0  0  0  0  0  0  0
  152.6822  142.3542  160.1094 C   0  0  0  0  0  0  0  0  0  0  0  0
  153.2253  141.3456  159.6615 O   0  0  0  0  0  0  0  0  0  0  0  0
  151.9886  143.3427  159.4113 N   0  0  0  0  0  0  0  0  0  0  0  0
  151.8219  143.3085  157.9524 C   0  0  0  0  0  0  0  0  0  0  0  0
  151.1476  142.0214  157.4625 C   0  0  0  0  0  0  0  0  0  0  0  0
  151.4413  140.9291  157.9501 O   0  0  0  0  0  0  0  0  0  0  0  0
  150.2324  142.1714  156.4934 N   0  0  0  0  0  0  0  0  0  0  0  0
  149.5132  141.0826  155.8389 C   0  0  0  0  0  0  0  0  0  0  0  0
  148.8464  141.5194  154.5179 C   0  0  0  0  0  0  0  0  0  0  0  0
  147.4611  142.1233  154.6990 C   0  0  0  0  0  0  0  0  0  0  0  0
  146.8788  142.2216  155.9103 C   0  0  0  0  0  0  0  0  0  0  0  0
  145.4877  142.7826  156.1443 C   0  0  0  0  0  0  0  0  0  0  0  0
  144.6766  142.8930  154.8428 C   0  0  0  0  0  0  0  0  0  0  0  0
  145.5305  143.4695  153.7063 C   0  0  0  0  0  0  0  0  0  0  0  0
  146.7623  142.5896  153.4271 C   0  0  0  0  0  0  0  0  0  0  0  0
  150.1091  146.0151  160.4016 H   0  0  0  0  0  0  0  0  0  0  0  0
  149.9434  145.1178  158.8994 H   0  0  0  0  0  0  0  0  0  0  0  0
  151.3210  146.2110  159.1331 H   0  0  0  0  0  0  0  0  0  0  0  0
  151.4589  144.8737  162.3284 H   0  0  0  0  0  0  0  0  0  0  0  0
  151.2596  144.1682  157.5897 H   0  0  0  0  0  0  0  0  0  0  0  0
  152.8052  143.3919  157.4854 H   0  0  0  0  0  0  0  0  0  0  0  0
  150.0470  143.1056  156.1573 H   0  0  0  0  0  0  0  0  0  0  0  0
  150.1848  140.2408  155.6641 H   0  0  0  0  0  0  0  0  0  0  0  0
  148.7522  140.7262  156.5334 H   0  0  0  0  0  0  0  0  0  0  0  0
  149.4879  142.2460  154.0175 H   0  0  0  0  0  0  0  0  0  0  0  0
  148.7746  140.6684  153.8402 H   0  0  0  0  0  0  0  0  0  0  0  0
  147.4089  141.8881  156.7908 H   0  0  0  0  0  0  0  0  0  0  0  0
  144.9592  142.1491  156.8568 H   0  0  0  0  0  0  0  0  0  0  0  0
  145.5931  143.7635  156.6085 H   0  0  0  0  0  0  0  0  0  0  0  0
  144.3163  141.9047  154.5539 H   0  0  0  0  0  0  0  0  0  0  0  0
  143.7921  143.5093  155.0058 H   0  0  0  0  0  0  0  0  0  0  0  0
  144.9349  143.5737  152.7989 H   0  0  0  0  0  0  0  0  0  0  0  0
  145.8560  144.4743  153.9787 H   0  0  0  0  0  0  0  0  0  0  0  0
  147.4679  143.1381  152.8026 H   0  0  0  0  0  0  0  0  0  0  0  0
  146.4619  141.7061  152.8629 H   0  0  0  0  0  0  0  0  0  0  0  0
  1  2  1  0  0  0  0
  1 20  1  0  0  0  0
  1 21  1  0  0  0  0
  1 22  1  0  0  0  0
  2  7  1  0  0  0  0
  2  3  2  0  0  0  0
  3  4  1  0  0  0  0
  3 23  1  0  0  0  0
  4  5  1  0  0  0  0
  5  6  2  0  0  0  0
  5  7  1  0  0  0  0
  7  8  1  0  0  0  0
  8  9  1  0  0  0  0
  8 24  1  0  0  0  0
  8 25  1  0  0  0  0
  9 10  2  0  0  0  0
  9 11  1  0  0  0  0
 11 12  1  0  0  0  0
 11 26  1  0  0  0  0
 12 13  1  0  0  0  0
 12 27  1  0  0  0  0
 12 28  1  0  0  0  0
 13 14  1  0  0  0  0
 13 29  1  0  0  0  0
 13 30  1  0  0  0  0
 14 19  1  0  0  0  0
 14 15  2  0  0  0  0
 15 16  1  0  0  0  0
 15 31  1  0  0  0  0
 16 17  1  0  0  0  0
 16 32  1  0  0  0  0
 16 33  1  0  0  0  0
 17 18  1  0  0  0  0
 17 34  1  0  0  0  0
 17 35  1  0  0  0  0
 18 19  1  0  0  0  0
 18 36  1  0  0  0  0
 18 37  1  0  0  0  0
 19 38  1  0  0  0  0
 19 39  1  0  0  0  0
M  END
> <s_m_source_file>
AV-unprocessed.smi

> <i_m_source_file_index>
476

> <i_lp_mmshare_version>
43012

> <i_f3d_flags>
0

> <s_epik_input>
W0NIM11jMVtjSF1zYyg9TyluMVtDSDJdQyg9TylbTkhdW0NIMl1bQ0gyXUMyPVtDSF1bQ0gyXVtDSDJdW0NIMl1bQ0gyXTI=

> <s_epik_cmdline>
J2VwaWtfcHl0aG9uJywgJy1waCcsICc3LjAnLCAnLXRuJywgJzgnLCAnLW1hJywgJzIwMCcsICctbWV0YWxfYmluZGluZycsICctaW1hZScsICc8aW5maWxlLm1hZT4nLCAnLW9tYWUnLCAnPG91dGZpbGUubWFlPic=

> <r_lp_tautomer_probability>
1

> <r_epik_Ionization_Penalty>
1.31088e-06

> <r_epik_Ionization_Penalty_Charging>
1.18065e-06

> <r_epik_Ionization_Penalty_Neutral>
1.30231e-07

> <r_epik_State_Penalty>
-0

> <r_epik_Charging_Adjusted_Penalty>
1.18065e-06

> <i_epik_Tot_Q>
0

> <i_epik_Tot_abs_Q>
0

> <r_epik_Metal_State_Penalty>
-0

> <b_epik_Metal_Only>
0

> <s_lp_Force_Field>
OPLS_2005

> <r_lp_Energy>
10.5339

> <b_lp_Chiralities_Consistent>
1

> <s_lp_Variant>
AV-unprocessed.smi:476-1

> <Gold.Version>
5.8.1

> <Gold.Id.Protein>
6NUR|6NUR_protein|mol2

> <Gold.PLP.Fitness>
48.0722

> <Gold.PLP.PLP>
-46.1054

> <Gold.PLP.part.hbond>
-1.0000

> <Gold.PLP.part.metal>
0.0000

> <Gold.PLP.part.buried>
-5.1587

> <Gold.PLP.part.nonpolar>
-39.7417

> <Gold.PLP.part.repulsive>
0.0632

> <Gold.PLP.ligand.clash>
0.0000

> <Gold.PLP.ligand.torsion>
0.5331

> <Gold.PLP.Chemscore.Hbond>
1.0000

> <Gold.PLP.Chemscore.CHOScore>
0.0000

> <Gold.PLP.Chemscore.Metal>
0.0000

> <Gold.Chemscore.Hbonds>
donor molecule, donor type, donor heavy atom, donor atom, acceptor molecule, acceptor atom, score
      L1  H    11    26       P1  8028  0.96

> <Gold.PLP.Chemscore.Internal.Correction>
0.0330

> <Gold.Rescore>
     Score         DG    S(hbond)    S(metal)    S(lipo)     H(rot)  DE(clash)    DE(int)     intcor
     12.89     -15.44       0.99        0.00      94.44       1.72       0.02       2.53       ----

> <Gold.Chemscore.Fitness>
12.8885

> <Gold.Chemscore.DG>
-15.4400

> <Gold.Chemscore.ZeroCoef>
-5.4800

> <Gold.Chemscore.Hbond>
0.9932

> <Gold.Chemscore.Metal>
0.0000

> <Gold.Chemscore.Lipo>
94.4437

> <Gold.Chemscore.Internal_Hbond>
0.0000

> <Gold.Chemscore.DEClash>
0.0224

> <Gold.Chemscore.DEInternal>
2.5292

> <Gold.Chemscore.Rot>
1.7215

> <Gold.Chemscore.Internal.Correction>
   9.000000E+99

> <Gold.Chemscore.Hbonds>
donor molecule, donor type, donor heavy atom, donor atom, acceptor molecule, acceptor atom, score
      L1  H    11    26       P1  8028  0.90

> <Gold.Chemscore.Hbond.Weighted>
-3.3172

> <Gold.Chemscore.Metal.Weighted>
-0.0000

> <Gold.Chemscore.Lipo.Weighted>
-11.0499

> <Gold.Chemscore.Internal_Hbond.Weighted>
0.0000

> <Gold.Chemscore.DEClash.Weighted>
0.0224

> <Gold.Chemscore.DEInternal.Weighted>
2.5292

> <Gold.Chemscore.Rot.Weighted>
4.4070

> <Gold.Chemscore.Internal.Correction.Weighted>
   9.000000E+99

> <Gold.Protein.RotatedTorsions>
[ 6907 6896 6895 6894 ] final  -97.71 input  -60.11 | X-H torsion
[ 7974 7965 7964 7962 ] final  -36.25 input  175.53 | X-H torsion
[ 8008 7997 7996 7995 ] final   19.22 input   59.86 | X-H torsion
[ 10167 10162 10161 10158 ] final   21.13 input  -65.29 | X-H torsion
[ 10718 10713 10712 10709 ] final   71.58 input   66.30 | X-H torsion
[ 10763 10752 10751 10750 ] final   28.27 input  -60.55 | X-H torsion
[ 11005 11000 10999 10996 ] final  -47.77 input  -57.11 | X-H torsion

> <Gold.Protein.ActiveResidues>
 VAL166  LYS551  ARG553  GLY616  TRP617  ASP618  TYR619  PRO620  LYS621  CYS622 
 ASP623  PHE694  ASN695  SER759  ASP760  ASP761  ALA762  ILE779  LEU786  VAL792 
 PHE793  MET794  SER795  GLU796  ALA797  LYS798  CYS799  TRP800  GLU811  SER814 

> <Gold.Protein.RotatedAtoms>
  150.7024  134.1307  159.4068 H   0  0  0  0  0  0  0  0  0  0  0  0  # atno 6907 bound_to 6896
  151.9292  135.0261  160.0537 H   0  0  0  0  0  0  0  0  0  0  0  0  # atno 6908 bound_to 6896
  152.2190  133.4933  159.5188 H   0  0  0  0  0  0  0  0  0  0  0  0  # atno 6909 bound_to 6896
  146.0678  140.6256  142.8967 H   0  0  0  0  0  0  0  0  0  0  0  0  # atno 7974 bound_to 7965
  154.9175  140.3022  155.5234 H   0  0  0  0  0  0  0  0  0  0  0  0  # atno 8008 bound_to 7997
  156.3011  140.2378  156.4157 H   0  0  0  0  0  0  0  0  0  0  0  0  # atno 8009 bound_to 7997
  154.8364  140.0416  157.1501 H   0  0  0  0  0  0  0  0  0  0  0  0  # atno 8010 bound_to 7997
  140.5450  143.9610  150.6542 H   0  0  0  0  0  0  0  0  0  0  0  0  # atno 10167 bound_to 10162
  157.6459  130.9535  150.0809 H   0  0  0  0  0  0  0  0  0  0  0  0  # atno 10718 bound_to 10713
  153.0502  135.6517  154.0712 H   0  0  0  0  0  0  0  0  0  0  0  0  # atno 10763 bound_to 10752
  154.0402  135.2904  155.3357 H   0  0  0  0  0  0  0  0  0  0  0  0  # atno 10764 bound_to 10752
  154.6786  135.5328  153.8299 H   0  0  0  0  0  0  0  0  0  0  0  0  # atno 10765 bound_to 10752
  141.0661  133.6693  156.3345 H   0  0  0  0  0  0  0  0  0  0  0  0  # atno 11005 bound_to 11000
  144.7213  140.4381  143.7006 LP  0  0  0  0  0  0  0  0  0  0  0  0  # atno 17320 bound_to 7965
  145.6446  139.1555  143.2896 LP  0  0  0  0  0  0  0  0  0  0  0  0  # atno 17321 bound_to 7965
  140.3021  143.3254  152.0962 LP  0  0  0  0  0  0  0  0  0  0  0  0  # atno 17342 bound_to 10162
  139.5004  144.6690  151.6287 LP  0  0  0  0  0  0  0  0  0  0  0  0  # atno 17343 bound_to 10162
  156.1785  130.3649  149.9067 LP  0  0  0  0  0  0  0  0  0  0  0  0  # atno 17370 bound_to 10713
  156.7025  130.8938  151.3601 LP  0  0  0  0  0  0  0  0  0  0  0  0  # atno 17371 bound_to 10713
  140.5771  134.5783  157.5471 LP  0  0  0  0  0  0  0  0  0  0  0  0  # atno 17394 bound_to 11000
  139.9477  134.7672  156.0521 LP  0  0  0  0  0  0  0  0  0  0  0  0  # atno 17395 bound_to 11000

$$$$
