AV-unprocessed.smi:112|AV-procd|sdf|1086|dock9
  -GOLD-   2262018183D 1   1.00000     0.00000
 Structure written by MMmdl.
 54 57  0  0  0  0  0  0  0  0  3 V2000
  149.3745  134.3027  154.3299 C   0  0  0  0  0  0  0  0  0  0  0  0
  148.6534  133.0693  153.8105 C   0  0  0  0  0  0  0  0  0  0  0  0
  147.7434  133.1355  152.8122 C   0  0  0  0  0  0  0  0  0  0  0  0
  147.0716  132.0345  152.3169 N   0  0  0  0  0  0  0  0  0  0  0  0
  146.0789  132.1935  151.1915 C   0  0  1  0  0  0  0  0  0  0  0  0
  144.6723  131.8009  151.6347 C   0  0  0  0  0  0  0  0  0  0  0  0
  143.8120  132.6452  150.7112 C   0  0  2  0  0  0  0  0  0  0  0  0
  143.4839  131.9148  149.5447 O   0  0  0  0  0  0  0  0  0  0  0  0
  144.7198  133.8416  150.3572 C   0  0  1  0  0  0  0  0  0  0  0  0
  144.2857  135.1997  150.9390 C   0  0  0  0  0  0  0  0  0  0  0  0
  145.0179  136.2710  150.3785 O   0  0  0  0  0  0  0  0  0  0  0  0
  146.0293  133.5361  150.8308 O   0  0  0  0  0  0  0  0  0  0  0  0
  147.3106  130.7601  152.8698 C   0  0  0  0  0  0  0  0  0  0  0  0
  146.7165  129.7639  152.4514 O   0  0  0  0  0  0  0  0  0  0  0  0
  148.2480  130.6578  153.9228 N   0  0  0  0  0  0  0  0  0  0  0  0
  148.5059  129.3270  154.5195 C   0  0  0  0  0  0  0  0  0  0  0  0
  148.7377  128.2063  153.4822 C   0  0  0  0  0  0  0  0  0  0  0  0
  149.1569  128.5073  152.3641 O   0  0  0  0  0  0  0  0  0  0  0  0
  148.4626  126.9315  153.8561 N   0  0  0  0  0  0  0  0  0  0  0  0
  147.9591  126.5678  155.1923 C   0  0  0  0  0  0  0  0  0  0  0  0
  147.7851  125.0336  155.1886 C   0  0  0  0  0  0  0  0  0  0  0  0
  148.2185  124.6465  153.8060 C   0  0  0  0  0  0  0  0  0  0  0  0
  148.2545  123.3475  153.2717 C   0  0  0  0  0  0  0  0  0  0  0  0
  148.6938  123.1687  151.9365 C   0  0  0  0  0  0  0  0  0  0  0  0
  148.7438  121.8184  151.3413 N   0  3  0  0  0  0  0  0  0  0  0  0
  148.3661  120.8690  152.0203 O   0  0  0  0  0  0  0  0  0  0  0  0
  149.1612  121.7051  150.1933 O   0  5  0  0  0  0  0  0  0  0  0  0
  149.0848  124.3057  151.1804 C   0  0  0  0  0  0  0  0  0  0  0  0
  149.0436  125.6042  151.7340 C   0  0  0  0  0  0  0  0  0  0  0  0
  148.6016  125.7592  153.0658 C   0  0  0  0  0  0  0  0  0  0  0  0
  148.9613  131.7754  154.4242 C   0  0  0  0  0  0  0  0  0  0  0  0
  149.7908  131.6374  155.3254 O   0  0  0  0  0  0  0  0  0  0  0  0
  149.0637  135.2054  153.8033 H   0  0  0  0  0  0  0  0  0  0  0  0
  150.4523  134.1963  154.2021 H   0  0  0  0  0  0  0  0  0  0  0  0
  149.1670  134.4475  155.3907 H   0  0  0  0  0  0  0  0  0  0  0  0
  147.5271  134.1019  152.3793 H   0  0  0  0  0  0  0  0  0  0  0  0
  146.4320  131.6226  150.3318 H   0  0  0  0  0  0  0  0  0  0  0  0
  144.5124  130.7248  151.5564 H   0  0  0  0  0  0  0  0  0  0  0  0
  144.5161  132.1080  152.6697 H   0  0  0  0  0  0  0  0  0  0  0  0
  142.8810  132.9450  151.1938 H   0  0  0  0  0  0  0  0  0  0  0  0
  143.3703  132.5223  148.8299 H   0  0  0  0  0  0  0  0  0  0  0  0
  144.7921  133.9492  149.2734 H   0  0  0  0  0  0  0  0  0  0  0  0
  143.2194  135.3632  150.7814 H   0  0  0  0  0  0  0  0  0  0  0  0
  144.4543  135.2082  152.0161 H   0  0  0  0  0  0  0  0  0  0  0  0
  144.5511  137.0749  150.5483 H   0  0  0  0  0  0  0  0  0  0  0  0
  149.3669  129.3800  155.1866 H   0  0  0  0  0  0  0  0  0  0  0  0
  147.6826  129.0337  155.1723 H   0  0  0  0  0  0  0  0  0  0  0  0
  148.6676  126.8635  155.9672 H   0  0  0  0  0  0  0  0  0  0  0  0
  147.0055  127.0579  155.3936 H   0  0  0  0  0  0  0  0  0  0  0  0
  148.4173  124.5515  155.9348 H   0  0  0  0  0  0  0  0  0  0  0  0
  146.7488  124.7406  155.3604 H   0  0  0  0  0  0  0  0  0  0  0  0
  147.9490  122.5093  153.8808 H   0  0  0  0  0  0  0  0  0  0  0  0
  149.4227  124.1928  150.1607 H   0  0  0  0  0  0  0  0  0  0  0  0
  149.3502  126.4404  151.1259 H   0  0  0  0  0  0  0  0  0  0  0  0
  1  2  1  0  0  0  0
  1 33  1  0  0  0  0
  1 34  1  0  0  0  0
  1 35  1  0  0  0  0
  2 31  1  0  0  0  0
  2  3  2  0  0  0  0
  3  4  1  0  0  0  0
  3 36  1  0  0  0  0
  4  5  1  0  0  0  0
  4 13  1  0  0  0  0
  5 12  1  0  0  0  0
  5  6  1  0  0  0  0
  5 37  1  0  0  0  0
  6  7  1  0  0  0  0
  6 38  1  0  0  0  0
  6 39  1  0  0  0  0
  7  8  1  0  0  0  0
  7  9  1  0  0  0  0
  7 40  1  0  0  0  0
  8 41  1  0  0  0  0
  9 10  1  0  0  0  0
  9 12  1  0  0  0  0
  9 42  1  0  0  0  0
 10 11  1  0  0  0  0
 10 43  1  0  0  0  0
 10 44  1  0  0  0  0
 11 45  1  0  0  0  0
 13 14  2  0  0  0  0
 13 15  1  0  0  0  0
 15 16  1  0  0  0  0
 15 31  1  0  0  0  0
 16 17  1  0  0  0  0
 16 46  1  0  0  0  0
 16 47  1  0  0  0  0
 17 18  2  0  0  0  0
 17 19  1  0  0  0  0
 19 30  1  0  0  0  0
 19 20  1  0  0  0  0
 20 21  1  0  0  0  0
 20 48  1  0  0  0  0
 20 49  1  0  0  0  0
 21 22  1  0  0  0  0
 21 50  1  0  0  0  0
 21 51  1  0  0  0  0
 22 30  2  0  0  0  0
 22 23  1  0  0  0  0
 23 24  2  0  0  0  0
 23 52  1  0  0  0  0
 24 25  1  0  0  0  0
 24 28  1  0  0  0  0
 25 26  2  0  0  0  0
 25 27  1  0  0  0  0
 28 29  2  0  0  0  0
 28 53  1  0  0  0  0
 29 30  1  0  0  0  0
 29 54  1  0  0  0  0
 31 32  2  0  0  0  0
M  CHG  1  25   1
M  CHG  1  27  -1
M  END
> <s_m_source_file>
AV-unprocessed.smi

> <i_m_source_file_index>
112

> <i_lp_mmshare_version>
43012

> <i_f3d_flags>
0

> <s_epik_input>
W09IXVtDSDJdW0NAQEhdKE8xKVtDQEhdKFtPSF0pW0NIMl1bQ0BIXTFuKFtjSF1jMltDSDNdKWMoPU8pbihjMj1PKVtDSDJdQyg9TylOKFtDSDJdW0NIMl0zKWMoYzM0KVtjSF1bY0hdYyhbY0hdNClbTitdKD1PKVtPLV0=

> <s_epik_cmdline>
J2VwaWtfcHl0aG9uJywgJy1waCcsICc3LjAnLCAnLXRuJywgJzgnLCAnLW1hJywgJzIwMCcsICctbWV0YWxfYmluZGluZycsICctaW1hZScsICc8aW5maWxlLm1hZT4nLCAnLW9tYWUnLCAnPG91dGZpbGUubWFlPic=

> <r_lp_tautomer_probability>
1

> <r_epik_Ionization_Penalty>
2.5696e-07

> <r_epik_Ionization_Penalty_Charging>
1.04886e-08

> <r_epik_Ionization_Penalty_Neutral>
2.46472e-07

> <r_epik_State_Penalty>
-0

> <r_epik_Charging_Adjusted_Penalty>
1.04886e-08

> <i_epik_Tot_Q>
0

> <i_epik_Tot_abs_Q>
2

> <r_epik_Metal_State_Penalty>
-0

> <b_epik_Metal_Only>
0

> <s_epik_Chemistry_Notes>
This compound contains an acetal/aminal-like group ( X-CH(R)-Y where X, Y are N, S, or O) that may be acid/base labile, releasing an aldehyde.

> <s_lp_Force_Field>
OPLS_2005

> <r_lp_Energy>
61.0713

> <b_lp_Chiralities_Consistent>
1

> <s_lp_Variant>
AV-unprocessed.smi:112-4

> <Gold.Version>
5.8.1

> <Gold.Id.Protein>
6NUR|6NUR_protein|mol2

> <Gold.PLP.Fitness>
49.6899

> <Gold.PLP.PLP>
-41.7887

> <Gold.PLP.part.hbond>
-3.3287

> <Gold.PLP.part.metal>
0.0000

> <Gold.PLP.part.buried>
-2.5054

> <Gold.PLP.part.nonpolar>
-35.2797

> <Gold.PLP.part.repulsive>
0.5179

> <Gold.PLP.ligand.clash>
0.0000

> <Gold.PLP.ligand.torsion>
0.5555

> <Gold.PLP.Chemscore.Hbond>
2.0000

> <Gold.PLP.Chemscore.CHOScore>
1.0000

> <Gold.PLP.Chemscore.Metal>
0.0000

> <Gold.Chemscore.Hbonds>
donor molecule, donor type, donor heavy atom, donor atom, acceptor molecule, acceptor atom, score
      L1  H    11    45       P1 10171  0.90
      P1  H 10785 10796       L1     8  1.00
      L1  C     3    36       P1  7948  0.91

> <Gold.PLP.Chemscore.Internal.Correction>
0.0123

> <Gold.Rescore>
     Score         DG    S(hbond)    S(metal)    S(lipo)     H(rot)  DE(clash)    DE(int)     intcor
      4.98      -9.03       1.32        0.00      64.73       3.29       0.23       3.82       ----

> <Gold.Chemscore.Fitness>
4.9840

> <Gold.Chemscore.DG>
-9.0311

> <Gold.Chemscore.ZeroCoef>
-5.4800

> <Gold.Chemscore.Hbond>
1.3187

> <Gold.Chemscore.Metal>
0.0000

> <Gold.Chemscore.Lipo>
64.7275

> <Gold.Chemscore.Internal_Hbond>
0.0000

> <Gold.Chemscore.DEClash>
0.2258

> <Gold.Chemscore.DEInternal>
3.8214

> <Gold.Chemscore.Rot>
3.2916

> <Gold.Chemscore.Internal.Correction>
   9.000000E+99

> <Gold.Chemscore.Hbonds>
donor molecule, donor type, donor heavy atom, donor atom, acceptor molecule, acceptor atom, score
      L1  H    11    45       P1 10171  0.87
      P1  H 10785 10796       L1     8  0.47

> <Gold.Chemscore.Hbond.Weighted>
-4.4045

> <Gold.Chemscore.Metal.Weighted>
-0.0000

> <Gold.Chemscore.Lipo.Weighted>
-7.5731

> <Gold.Chemscore.Internal_Hbond.Weighted>
0.0000

> <Gold.Chemscore.DEClash.Weighted>
0.2258

> <Gold.Chemscore.DEInternal.Weighted>
3.8214

> <Gold.Chemscore.Rot.Weighted>
8.4265

> <Gold.Chemscore.Internal.Correction.Weighted>
   9.000000E+99

> <Gold.Protein.RotatedTorsions>
[ 6907 6896 6895 6894 ] final -178.55 input  -60.11 | X-H torsion
[ 7974 7965 7964 7962 ] final  -80.08 input  175.53 | X-H torsion
[ 8008 7997 7996 7995 ] final  -12.46 input   59.86 | X-H torsion
[ 10167 10162 10161 10158 ] final   89.89 input  -65.29 | X-H torsion
[ 10718 10713 10712 10709 ] final    0.27 input   66.30 | X-H torsion
[ 10763 10752 10751 10750 ] final   70.57 input  -60.55 | X-H torsion
[ 11005 11000 10999 10996 ] final  153.32 input  -57.11 | X-H torsion

> <Gold.Protein.ActiveResidues>
 VAL166  LYS551  ARG553  GLY616  TRP617  ASP618  TYR619  PRO620  LYS621  CYS622 
 ASP623  PHE694  ASN695  SER759  ASP760  ASP761  ALA762  ILE779  LEU786  VAL792 
 PHE793  MET794  SER795  GLU796  ALA797  LYS798  CYS799  TRP800  GLU811  SER814 

> <Gold.Protein.RotatedAtoms>
  151.6391  133.3327  159.3125 H   0  0  0  0  0  0  0  0  0  0  0  0  # atno 6907 bound_to 6896
  150.8017  134.7119  159.6618 H   0  0  0  0  0  0  0  0  0  0  0  0  # atno 6908 bound_to 6896
  152.4110  134.6129  160.0082 H   0  0  0  0  0  0  0  0  0  0  0  0  # atno 6909 bound_to 6896
  145.5647  140.9476  143.1428 H   0  0  0  0  0  0  0  0  0  0  0  0  # atno 7974 bound_to 7965
  154.5375  140.2275  155.8697 H   0  0  0  0  0  0  0  0  0  0  0  0  # atno 8008 bound_to 7997
  156.1826  140.3096  155.9140 H   0  0  0  0  0  0  0  0  0  0  0  0  # atno 8009 bound_to 7997
  155.3325  140.0446  157.3033 H   0  0  0  0  0  0  0  0  0  0  0  0  # atno 8010 bound_to 7997
  139.8528  144.6585  150.9150 H   0  0  0  0  0  0  0  0  0  0  0  0  # atno 10167 bound_to 10162
  156.8309  130.5488  149.5687 H   0  0  0  0  0  0  0  0  0  0  0  0  # atno 10718 bound_to 10713
  153.0349  135.5169  154.7461 H   0  0  0  0  0  0  0  0  0  0  0  0  # atno 10763 bound_to 10752
  154.6446  135.2917  155.0064 H   0  0  0  0  0  0  0  0  0  0  0  0  # atno 10764 bound_to 10752
  154.0970  135.6642  153.4914 H   0  0  0  0  0  0  0  0  0  0  0  0  # atno 10765 bound_to 10752
  140.1387  134.8753  157.2302 H   0  0  0  0  0  0  0  0  0  0  0  0  # atno 11005 bound_to 11000
  144.7466  139.7304  143.7290 LP  0  0  0  0  0  0  0  0  0  0  0  0  # atno 17320 bound_to 7965
  146.1827  139.5026  142.9856 LP  0  0  0  0  0  0  0  0  0  0  0  0  # atno 17321 bound_to 7965
  140.7785  143.3812  151.1473 LP  0  0  0  0  0  0  0  0  0  0  0  0  # atno 17342 bound_to 10162
  139.7449  143.8867  152.3060 LP  0  0  0  0  0  0  0  0  0  0  0  0  # atno 17343 bound_to 10162
  156.0935  130.5914  150.9773 LP  0  0  0  0  0  0  0  0  0  0  0  0  # atno 17370 bound_to 10713
  157.6407  131.0910  150.8256 LP  0  0  0  0  0  0  0  0  0  0  0  0  # atno 17371 bound_to 10713
  140.2750  134.3416  155.7361 LP  0  0  0  0  0  0  0  0  0  0  0  0  # atno 17394 bound_to 11000
  141.2182  133.7445  156.9279 LP  0  0  0  0  0  0  0  0  0  0  0  0  # atno 17395 bound_to 11000

$$$$
