AV-unprocessed.smi:1367|AV-procd|sdf|5574|dock4
  -GOLD-   22720 5163D 1   1.00000     0.00000
 Structure written by MMmdl.
 29 29  0  0  0  0  0  0  0  0  2 V2000
  152.2823  138.6277  154.6909 C   0  0  0  0  0  0  0  0  0  0  0  0
  151.1334  139.3729  155.3362 C   0  0  0  0  0  0  0  0  0  0  0  0
  150.5013  140.2553  154.6603 N   0  0  0  0  0  0  0  0  0  0  0  0
  149.4347  140.9499  155.2559 C   0  0  0  0  0  0  0  0  0  0  0  0
  148.7454  141.9839  154.3830 C   0  0  0  0  0  0  0  0  0  0  0  0
  149.0595  140.6981  156.5426 C   0  0  0  0  0  0  0  0  0  0  0  0
  147.9130  141.4328  157.2389 C   0  0  0  0  0  0  0  0  0  0  0  0
  148.3008  142.2616  158.4655 C   0  0  0  0  0  0  0  0  0  0  0  0
  147.6374  142.1768  159.4987 O   0  0  0  0  0  0  0  0  0  0  0  0
  149.3765  143.0540  158.3420 N   0  0  0  0  0  0  0  0  0  0  0  0
  149.8825  143.9568  159.3691 C   0  0  0  0  0  0  0  0  0  0  0  0
  151.4164  144.0700  159.3313 C   0  0  0  0  0  0  0  0  0  0  0  0
  151.7917  145.1393  160.0326 F   0  0  0  0  0  0  0  0  0  0  0  0
  151.9733  142.9872  159.8744 F   0  0  0  0  0  0  0  0  0  0  0  0
  151.8554  144.2082  158.0802 F   0  0  0  0  0  0  0  0  0  0  0  0
  149.8159  139.6758  157.2879 C   0  0  0  0  0  0  0  0  0  0  0  0
  149.5304  139.4228  158.4578 O   0  0  0  0  0  0  0  0  0  0  0  0
  150.8352  139.0443  156.6395 N   0  5  0  0  0  0  0  0  0  0  0  0
  152.5336  139.0569  153.7199 H   0  0  0  0  0  0  0  0  0  0  0  0
  152.0173  137.5802  154.5453 H   0  0  0  0  0  0  0  0  0  0  0  0
  153.1694  138.6756  155.3232 H   0  0  0  0  0  0  0  0  0  0  0  0
  147.7040  141.7093  154.2162 H   0  0  0  0  0  0  0  0  0  0  0  0
  149.2301  142.0654  153.4095 H   0  0  0  0  0  0  0  0  0  0  0  0
  148.7761  142.9666  154.8538 H   0  0  0  0  0  0  0  0  0  0  0  0
  147.4393  142.0961  156.5148 H   0  0  0  0  0  0  0  0  0  0  0  0
  147.1247  140.7376  157.5292 H   0  0  0  0  0  0  0  0  0  0  0  0
  149.8607  143.0554  157.4551 H   0  0  0  0  0  0  0  0  0  0  0  0
  149.4246  144.9425  159.2723 H   0  0  0  0  0  0  0  0  0  0  0  0
  149.5681  143.5666  160.3374 H   0  0  0  0  0  0  0  0  0  0  0  0
  1  2  1  0  0  0  0
  1 19  1  0  0  0  0
  1 20  1  0  0  0  0
  1 21  1  0  0  0  0
  2 18  1  0  0  0  0
  2  3  2  0  0  0  0
  3  4  1  0  0  0  0
  4  5  1  0  0  0  0
  4  6  2  0  0  0  0
  5 22  1  0  0  0  0
  5 23  1  0  0  0  0
  5 24  1  0  0  0  0
  6  7  1  0  0  0  0
  6 16  1  0  0  0  0
  7  8  1  0  0  0  0
  7 25  1  0  0  0  0
  7 26  1  0  0  0  0
  8  9  2  0  0  0  0
  8 10  1  0  0  0  0
 10 11  1  0  0  0  0
 10 27  1  0  0  0  0
 11 12  1  0  0  0  0
 11 28  1  0  0  0  0
 11 29  1  0  0  0  0
 12 13  1  0  0  0  0
 12 14  1  0  0  0  0
 12 15  1  0  0  0  0
 16 17  2  0  0  0  0
 16 18  1  0  0  0  0
M  CHG  1  18  -1
M  END
> <s_m_source_file>
AV-unprocessed.smi

> <i_m_source_file_index>
1367

> <i_lp_mmshare_version>
43012

> <i_f3d_flags>
0

> <s_epik_input>
W0NIM11jMW5jKFtDSDNdKWMoYyg9TylbbkhdMSlbQ0gyXUMoPU8pW05IXVtDSDJdQyhGKShGKUY=

> <s_epik_cmdline>
J2VwaWtfcHl0aG9uJywgJy1waCcsICc3LjAnLCAnLXRuJywgJzgnLCAnLW1hJywgJzIwMCcsICctbWV0YWxfYmluZGluZycsICctaW1hZScsICc8aW5maWxlLm1hZT4nLCAnLW9tYWUnLCAnPG91dGZpbGUubWFlPic=

> <r_lp_tautomer_probability>
0.839158

> <r_epik_Ionization_Penalty>
6.39142

> <r_epik_Ionization_Penalty_Charging>
4.71143e-08

> <r_epik_Ionization_Penalty_Neutral>
6.39142

> <r_epik_State_Penalty>
4.29634

> <r_epik_Charging_Adjusted_Penalty>
4.29634

> <i_epik_Tot_Q>
-1

> <i_epik_Tot_abs_Q>
1

> <r_epik_Metal_State_Penalty>
0.740852

> <b_epik_Metal_Only>
1

> <s_lp_Force_Field>
OPLS_2005

> <r_lp_Energy>
6.28206

> <b_lp_Chiralities_Consistent>
1

> <s_lp_Variant>
AV-unprocessed.smi:1367-3

> <Gold.Version>
5.8.1

> <Gold.Id.Protein>
6NUR|6NUR_protein|mol2

> <Gold.PLP.Fitness>
39.8835

> <Gold.PLP.PLP>
-36.4524

> <Gold.PLP.part.hbond>
-4.4817

> <Gold.PLP.part.metal>
0.0000

> <Gold.PLP.part.buried>
-1.5299

> <Gold.PLP.part.nonpolar>
-32.2675

> <Gold.PLP.part.repulsive>
0.2233

> <Gold.PLP.ligand.clash>
0.0000

> <Gold.PLP.ligand.torsion>
0.5303

> <Gold.PLP.Chemscore.Hbond>
1.4932

> <Gold.PLP.Chemscore.CHOScore>
0.0000

> <Gold.PLP.Chemscore.Metal>
0.0000

> <Gold.Chemscore.Hbonds>
donor molecule, donor type, donor heavy atom, donor atom, acceptor molecule, acceptor atom, score
      P1  H  6933  6944       L1     9  0.30
      P1  H  6934  6946       L1     9  0.43
      P1  H  7989  7998       L1     3  1.00

> <Gold.PLP.Chemscore.Internal.Correction>
0.0121

> <Gold.Rescore>
     Score         DG    S(hbond)    S(metal)    S(lipo)     H(rot)  DE(clash)    DE(int)     intcor
      9.61     -11.33       1.61        0.00      44.77       1.86       0.27       1.44       ----

> <Gold.Chemscore.Fitness>
9.6102

> <Gold.Chemscore.DG>
-11.3251

> <Gold.Chemscore.ZeroCoef>
-5.4800

> <Gold.Chemscore.Hbond>
1.6087

> <Gold.Chemscore.Metal>
0.0000

> <Gold.Chemscore.Lipo>
44.7683

> <Gold.Chemscore.Internal_Hbond>
0.0000

> <Gold.Chemscore.DEClash>
0.2732

> <Gold.Chemscore.DEInternal>
1.4418

> <Gold.Chemscore.Rot>
1.8617

> <Gold.Chemscore.Internal.Correction>
   9.000000E+99

> <Gold.Chemscore.Hbonds>
donor molecule, donor type, donor heavy atom, donor atom, acceptor molecule, acceptor atom, score
      P1  H  6933  6944       L1     9  0.29
      P1  H  6934  6946       L1     9  0.44
      P1  H  7989  7998       L1     3  0.60

> <Gold.Chemscore.Hbond.Weighted>
-5.3732

> <Gold.Chemscore.Metal.Weighted>
-0.0000

> <Gold.Chemscore.Lipo.Weighted>
-5.2379

> <Gold.Chemscore.Internal_Hbond.Weighted>
0.0000

> <Gold.Chemscore.DEClash.Weighted>
0.2732

> <Gold.Chemscore.DEInternal.Weighted>
1.4418

> <Gold.Chemscore.Rot.Weighted>
4.7660

> <Gold.Chemscore.Internal.Correction.Weighted>
   9.000000E+99

> <Gold.Protein.RotatedTorsions>
[ 6907 6896 6895 6894 ] final  170.35 input  -60.11 | X-H torsion
[ 7974 7965 7964 7962 ] final  -88.64 input  175.53 | X-H torsion
[ 8008 7997 7996 7995 ] final  178.12 input   59.86 | X-H torsion
[ 10167 10162 10161 10158 ] final -169.46 input  -65.29 | X-H torsion
[ 10718 10713 10712 10709 ] final  -78.03 input   66.30 | X-H torsion
[ 10763 10752 10751 10750 ] final -147.24 input  -60.55 | X-H torsion
[ 11005 11000 10999 10996 ] final  133.03 input  -57.11 | X-H torsion

> <Gold.Protein.ActiveResidues>
 VAL166  LYS551  ARG553  GLY616  TRP617  ASP618  TYR619  PRO620  LYS621  CYS622 
 ASP623  PHE694  ASN695  SER759  ASP760  ASP761  ALA762  ILE779  LEU786  VAL792 
 PHE793  MET794  SER795  GLU796  ALA797  LYS798  CYS799  TRP800  GLU811  SER814 

> <Gold.Protein.RotatedAtoms>
  151.8175  133.3390  159.3573 H   0  0  0  0  0  0  0  0  0  0  0  0  # atno 6907 bound_to 6896
  150.7305  134.5605  159.5849 H   0  0  0  0  0  0  0  0  0  0  0  0  # atno 6908 bound_to 6896
  152.3030  134.7590  160.0405 H   0  0  0  0  0  0  0  0  0  0  0  0  # atno 6909 bound_to 6896
  145.4504  140.9560  143.2025 H   0  0  0  0  0  0  0  0  0  0  0  0  # atno 7974 bound_to 7965
  156.0581  140.1341  156.9973 H   0  0  0  0  0  0  0  0  0  0  0  0  # atno 8008 bound_to 7997
  154.4468  140.0997  156.6547 H   0  0  0  0  0  0  0  0  0  0  0  0  # atno 8009 bound_to 7997
  155.5420  140.3461  155.4451 H   0  0  0  0  0  0  0  0  0  0  0  0  # atno 8010 bound_to 7997
  139.5921  144.1190  152.1646 H   0  0  0  0  0  0  0  0  0  0  0  0  # atno 10167 bound_to 10162
  156.0128  130.4507  150.3434 H   0  0  0  0  0  0  0  0  0  0  0  0  # atno 10718 bound_to 10713
  154.8296  135.3365  154.6787 H   0  0  0  0  0  0  0  0  0  0  0  0  # atno 10763 bound_to 10752
  153.7408  135.6946  153.4972 H   0  0  0  0  0  0  0  0  0  0  0  0  # atno 10764 bound_to 10752
  153.2245  135.4437  155.0478 H   0  0  0  0  0  0  0  0  0  0  0  0  # atno 10765 bound_to 10752
  139.9826  134.9543  156.9666 H   0  0  0  0  0  0  0  0  0  0  0  0  # atno 11005 bound_to 11000
  144.8065  139.6042  143.7048 LP  0  0  0  0  0  0  0  0  0  0  0  0  # atno 17320 bound_to 7965
  146.2507  139.6194  142.9429 LP  0  0  0  0  0  0  0  0  0  0  0  0  # atno 17321 bound_to 7965
  140.0767  144.5734  150.7152 LP  0  0  0  0  0  0  0  0  0  0  0  0  # atno 17342 bound_to 10162
  140.7182  143.2563  151.4366 LP  0  0  0  0  0  0  0  0  0  0  0  0  # atno 17343 bound_to 10162
  157.1529  131.0325  151.2877 LP  0  0  0  0  0  0  0  0  0  0  0  0  # atno 17370 bound_to 10713
  157.4377  130.7526  149.7043 LP  0  0  0  0  0  0  0  0  0  0  0  0  # atno 17371 bound_to 10713
  140.5065  134.1044  155.7261 LP  0  0  0  0  0  0  0  0  0  0  0  0  # atno 17394 bound_to 11000
  141.1496  133.8993  157.2130 LP  0  0  0  0  0  0  0  0  0  0  0  0  # atno 17395 bound_to 11000

$$$$
