AV-unprocessed.smi:3159|AV-procd|sdf|12050|dock5
  -GOLD-   2272017473D 1   1.00000     0.00000
 Structure written by MMmdl.
 35 36  0  0  0  0  0  0  0  0  1 V2000
  153.9644  141.3994  160.2468 C   0  0  0  0  0  0  0  0  0  0  0  0
  152.9961  142.1041  159.3431 C   0  0  0  0  0  0  0  0  0  0  0  0
  152.2153  141.5474  158.2891 C   0  0  0  0  0  0  0  0  0  0  0  0
  151.5287  142.6324  157.8161 C   0  0  0  0  0  0  0  0  0  0  0  0
  150.6264  142.6930  156.8003 N   0  0  0  0  0  0  0  0  0  0  0  0
  150.1432  141.6930  156.0423 C   0  0  0  0  0  0  0  0  0  0  0  0
  150.4469  140.5048  156.1494 O   0  0  0  0  0  0  0  0  0  0  0  0
  149.2740  142.1550  155.1315 N   0  0  0  0  0  0  0  0  0  0  0  0
  148.5687  141.3424  154.1447 C   0  0  0  0  0  0  0  0  0  0  0  0
  147.0423  141.5310  154.2303 C   0  0  1  0  0  0  0  0  0  0  0  0
  146.4489  141.3868  155.6187 C   0  0  0  0  0  0  0  0  0  0  0  0
  145.1028  142.0887  155.4654 C   0  0  0  0  0  0  0  0  0  0  0  0
  145.2921  143.0873  154.4665 O   0  0  0  0  0  0  0  0  0  0  0  0
  146.5738  142.9385  153.8638 C   0  0  0  0  0  0  0  0  0  0  0  0
  151.8913  143.7421  158.5500 N   0  0  0  0  0  0  0  0  0  0  0  0
  151.4522  145.1204  158.4445 C   0  0  0  0  0  0  0  0  0  0  0  0
  152.7994  143.4090  159.4920 N   0  0  0  0  0  0  0  0  0  0  0  0
  153.9105  140.3185  160.1154 H   0  0  0  0  0  0  0  0  0  0  0  0
  153.7553  141.6161  161.2946 H   0  0  0  0  0  0  0  0  0  0  0  0
  154.9891  141.7082  160.0392 H   0  0  0  0  0  0  0  0  0  0  0  0
  152.1811  140.5217  157.9543 H   0  0  0  0  0  0  0  0  0  0  0  0
  150.2788  143.6169  156.5903 H   0  0  0  0  0  0  0  0  0  0  0  0
  149.0851  143.1466  155.1170 H   0  0  0  0  0  0  0  0  0  0  0  0
  148.9280  141.5550  153.1362 H   0  0  0  0  0  0  0  0  0  0  0  0
  148.8158  140.2986  154.3399 H   0  0  0  0  0  0  0  0  0  0  0  0
  146.5505  140.8193  153.5647 H   0  0  0  0  0  0  0  0  0  0  0  0
  146.3500  140.3495  155.9401 H   0  0  0  0  0  0  0  0  0  0  0  0
  147.0631  141.9134  156.3506 H   0  0  0  0  0  0  0  0  0  0  0  0
  144.3457  141.3874  155.1129 H   0  0  0  0  0  0  0  0  0  0  0  0
  144.7522  142.5232  156.4018 H   0  0  0  0  0  0  0  0  0  0  0  0
  147.2414  143.6907  154.2866 H   0  0  0  0  0  0  0  0  0  0  0  0
  146.5272  143.0966  152.7862 H   0  0  0  0  0  0  0  0  0  0  0  0
  150.6977  145.2276  157.6654 H   0  0  0  0  0  0  0  0  0  0  0  0
  152.3023  145.7586  158.2017 H   0  0  0  0  0  0  0  0  0  0  0  0
  151.0244  145.4429  159.3943 H   0  0  0  0  0  0  0  0  0  0  0  0
  1  2  1  0  0  0  0
  1 18  1  0  0  0  0
  1 19  1  0  0  0  0
  1 20  1  0  0  0  0
  2 17  2  0  0  0  0
  2  3  1  0  0  0  0
  3  4  2  0  0  0  0
  3 21  1  0  0  0  0
  4  5  1  0  0  0  0
  4 15  1  0  0  0  0
  5  6  1  0  0  0  0
  5 22  1  0  0  0  0
  6  7  2  0  0  0  0
  6  8  1  0  0  0  0
  8  9  1  0  0  0  0
  8 23  1  0  0  0  0
  9 10  1  0  0  0  0
  9 24  1  0  0  0  0
  9 25  1  0  0  0  0
 10 14  1  0  0  0  0
 10 11  1  0  0  0  0
 10 26  1  0  0  0  0
 11 12  1  0  0  0  0
 11 27  1  0  0  0  0
 11 28  1  0  0  0  0
 12 13  1  0  0  0  0
 12 29  1  0  0  0  0
 12 30  1  0  0  0  0
 13 14  1  0  0  0  0
 14 31  1  0  0  0  0
 14 32  1  0  0  0  0
 15 16  1  0  0  0  0
 15 17  1  0  0  0  0
 16 33  1  0  0  0  0
 16 34  1  0  0  0  0
 16 35  1  0  0  0  0
M  END
> <s_m_source_file>
AV-unprocessed.smi

> <i_m_source_file_index>
3159

> <i_lp_mmshare_version>
43012

> <i_f3d_flags>
0

> <s_epik_input>
W0NIM11jMVtjSF1jKG4objEpW0NIM10pW05IXUMoPU8pW05IXVtDSDJdW0NAQEhdMltDSDJdW0NIMl1PW0NIMl0y

> <s_epik_cmdline>
J2VwaWtfcHl0aG9uJywgJy1waCcsICc3LjAnLCAnLXRuJywgJzgnLCAnLW1hJywgJzIwMCcsICctbWV0YWxfYmluZGluZycsICctaW1hZScsICc8aW5maWxlLm1hZT4nLCAnLW9tYWUnLCAnPG91dGZpbGUubWFlPic=

> <r_lp_tautomer_probability>
1

> <r_epik_Ionization_Penalty>
9.40319e-05

> <r_epik_Ionization_Penalty_Charging>
0

> <r_epik_Ionization_Penalty_Neutral>
9.40319e-05

> <r_epik_State_Penalty>
-0

> <r_epik_Charging_Adjusted_Penalty>
0

> <i_epik_Tot_Q>
0

> <i_epik_Tot_abs_Q>
0

> <r_epik_Metal_State_Penalty>
-0

> <b_epik_Metal_Only>
0

> <s_lp_Force_Field>
OPLS_2005

> <r_lp_Energy>
19.8906

> <b_lp_Chiralities_Consistent>
1

> <s_lp_Variant>
AV-unprocessed.smi:3159-2

> <Gold.Version>
5.8.1

> <Gold.Id.Protein>
6NUR|6NUR_protein|mol2

> <Gold.PLP.Fitness>
42.6482

> <Gold.PLP.PLP>
-36.8502

> <Gold.PLP.part.hbond>
-2.0000

> <Gold.PLP.part.metal>
0.0000

> <Gold.PLP.part.buried>
-6.5339

> <Gold.PLP.part.nonpolar>
-28.0373

> <Gold.PLP.part.repulsive>
0.4867

> <Gold.PLP.ligand.clash>
0.0000

> <Gold.PLP.ligand.torsion>
0.0437

> <Gold.PLP.Chemscore.Hbond>
1.9600

> <Gold.PLP.Chemscore.CHOScore>
0.0000

> <Gold.PLP.Chemscore.Metal>
0.0000

> <Gold.Chemscore.Hbonds>
donor molecule, donor type, donor heavy atom, donor atom, acceptor molecule, acceptor atom, score
      L1  H     5    22       P1  8028  0.96
      L1  H     8    23       P1  8028  1.00

> <Gold.PLP.Chemscore.Internal.Correction>
0.0053

> <Gold.Rescore>
     Score         DG    S(hbond)    S(metal)    S(lipo)     H(rot)  DE(clash)    DE(int)     intcor
     15.83     -17.00       1.97        0.00      69.41       1.25       0.01       1.16       ----

> <Gold.Chemscore.Fitness>
15.8272

> <Gold.Chemscore.DG>
-17.0005

> <Gold.Chemscore.ZeroCoef>
-5.4800

> <Gold.Chemscore.Hbond>
1.9742

> <Gold.Chemscore.Metal>
0.0000

> <Gold.Chemscore.Lipo>
69.4121

> <Gold.Chemscore.Internal_Hbond>
0.0000

> <Gold.Chemscore.DEClash>
0.0106

> <Gold.Chemscore.DEInternal>
1.1627

> <Gold.Chemscore.Rot>
1.2478

> <Gold.Chemscore.Internal.Correction>
   9.000000E+99

> <Gold.Chemscore.Hbonds>
donor molecule, donor type, donor heavy atom, donor atom, acceptor molecule, acceptor atom, score
      L1  H     5    22       P1  8028  0.89
      L1  H     8    23       P1  8028  1.00

> <Gold.Chemscore.Hbond.Weighted>
-6.5937

> <Gold.Chemscore.Metal.Weighted>
-0.0000

> <Gold.Chemscore.Lipo.Weighted>
-8.1212

> <Gold.Chemscore.Internal_Hbond.Weighted>
0.0000

> <Gold.Chemscore.DEClash.Weighted>
0.0106

> <Gold.Chemscore.DEInternal.Weighted>
1.1627

> <Gold.Chemscore.Rot.Weighted>
3.1944

> <Gold.Chemscore.Internal.Correction.Weighted>
   9.000000E+99

> <Gold.Protein.RotatedTorsions>
[ 6907 6896 6895 6894 ] final -155.42 input  -60.11 | X-H torsion
[ 7974 7965 7964 7962 ] final   16.74 input  175.53 | X-H torsion
[ 8008 7997 7996 7995 ] final -103.47 input   59.86 | X-H torsion
[ 10167 10162 10161 10158 ] final -116.72 input  -65.29 | X-H torsion
[ 10718 10713 10712 10709 ] final   45.29 input   66.30 | X-H torsion
[ 10763 10752 10751 10750 ] final  -99.96 input  -60.55 | X-H torsion
[ 11005 11000 10999 10996 ] final   78.65 input  -57.11 | X-H torsion

> <Gold.Protein.ActiveResidues>
 VAL166  LYS551  ARG553  GLY616  TRP617  ASP618  TYR619  PRO620  LYS621  CYS622 
 ASP623  PHE694  ASN695  SER759  ASP760  ASP761  ALA762  ILE779  LEU786  VAL792 
 PHE793  MET794  SER795  GLU796  ALA797  LYS798  CYS799  TRP800  GLU811  SER814 

> <Gold.Protein.RotatedAtoms>
  151.2722  133.4250  159.2621 H   0  0  0  0  0  0  0  0  0  0  0  0  # atno 6907 bound_to 6896
  151.0435  134.9624  159.8184 H   0  0  0  0  0  0  0  0  0  0  0  0  # atno 6908 bound_to 6896
  152.5369  134.2679  159.9013 H   0  0  0  0  0  0  0  0  0  0  0  0  # atno 6909 bound_to 6896
  146.2240  139.8703  142.8588 H   0  0  0  0  0  0  0  0  0  0  0  0  # atno 7974 bound_to 7965
  154.8714  140.0422  157.1727 H   0  0  0  0  0  0  0  0  0  0  0  0  # atno 8008 bound_to 7997
  154.8735  140.2962  155.5446 H   0  0  0  0  0  0  0  0  0  0  0  0  # atno 8009 bound_to 7997
  156.2999  140.2424  156.3727 H   0  0  0  0  0  0  0  0  0  0  0  0  # atno 8010 bound_to 7997
  140.0762  143.4831  152.1952 H   0  0  0  0  0  0  0  0  0  0  0  0  # atno 10167 bound_to 10162
  157.4359  130.8052  149.7647 H   0  0  0  0  0  0  0  0  0  0  0  0  # atno 10718 bound_to 10713
  154.7541  135.4953  153.9342 H   0  0  0  0  0  0  0  0  0  0  0  0  # atno 10763 bound_to 10752
  153.1176  135.6724  153.9400 H   0  0  0  0  0  0  0  0  0  0  0  0  # atno 10764 bound_to 10752
  153.9141  135.3095  155.3427 H   0  0  0  0  0  0  0  0  0  0  0  0  # atno 10765 bound_to 10752
  139.9204  134.7780  156.1676 H   0  0  0  0  0  0  0  0  0  0  0  0  # atno 11005 bound_to 11000
  145.2615  141.0078  143.3824 LP  0  0  0  0  0  0  0  0  0  0  0  0  # atno 17320 bound_to 7965
  144.9295  139.4315  143.6502 LP  0  0  0  0  0  0  0  0  0  0  0  0  # atno 17321 bound_to 7965
  139.5807  144.7509  151.3648 LP  0  0  0  0  0  0  0  0  0  0  0  0  # atno 17342 bound_to 10162
  140.7101  143.7413  150.7551 LP  0  0  0  0  0  0  0  0  0  0  0  0  # atno 17343 bound_to 10162
  155.9930  130.3927  150.2917 LP  0  0  0  0  0  0  0  0  0  0  0  0  # atno 17370 bound_to 10713
  157.1078  131.0213  151.3060 LP  0  0  0  0  0  0  0  0  0  0  0  0  # atno 17371 bound_to 10713
  141.0720  133.6793  156.2159 LP  0  0  0  0  0  0  0  0  0  0  0  0  # atno 17394 bound_to 11000
  140.6492  134.5085  157.5576 LP  0  0  0  0  0  0  0  0  0  0  0  0  # atno 17395 bound_to 11000

$$$$
