AV-unprocessed.smi:1157|AV-procd|sdf|4906|dock1
  -GOLD-   22720 3483D 1   1.00000     0.00000
 Structure written by MMmdl.
 54 56  0  0  0  0  0  0  0  0  1 V2000
  148.4672  133.4970  155.8636 C   0  0  0  0  0  0  0  0  0  0  0  0
  149.0926  133.3063  154.4579 C   0  0  0  0  0  0  0  0  0  0  0  0
  148.1173  133.9337  153.4328 C   0  0  0  0  0  0  0  0  0  0  0  0
  150.3918  134.1613  154.4413 C   0  0  0  0  0  0  0  0  0  0  0  0
  150.1094  135.5931  154.4628 N   0  0  0  0  0  0  0  0  0  0  0  0
  150.7196  136.4767  155.2617 C   0  0  0  0  0  0  0  0  0  0  0  0
  151.5999  136.1685  156.0649 O   0  0  0  0  0  0  0  0  0  0  0  0
  150.2293  137.7146  155.0801 N   0  0  0  0  0  0  0  0  0  0  0  0
  150.6143  138.9191  155.7276 C   0  0  0  0  0  0  0  0  0  0  0  0
  150.2626  140.2122  155.2761 C   0  0  0  0  0  0  0  0  0  0  0  0
  150.6903  141.3322  156.0147 C   0  0  0  0  0  0  0  0  0  0  0  0
  151.4554  141.1341  157.1884 C   0  0  0  0  0  0  0  0  0  0  0  0
  151.9014  142.2289  157.9552 N   0  0  0  0  0  0  0  0  0  0  0  0
  151.2122  143.5099  157.9348 C   0  0  0  0  0  0  0  0  0  0  0  0
  151.9222  144.3472  158.9973 C   0  0  0  0  0  0  0  0  0  0  0  0
  152.3423  143.3062  160.0348 C   0  0  0  0  0  0  0  0  0  0  0  0
  152.6180  142.0437  159.2097 C   0  0  0  0  0  0  0  0  0  0  0  0
  151.7726  139.8936  157.6300 N   0  0  0  0  0  0  0  0  0  0  0  0
  151.3595  138.8236  156.9194 C   0  0  0  0  0  0  0  0  0  0  0  0
  149.3777  131.8686  154.1889 N   0  0  0  0  0  0  0  0  0  0  0  0
  148.1895  131.0124  154.0904 C   0  0  0  0  0  0  0  0  0  0  0  0
  148.5468  129.5715  153.6886 C   0  0  0  0  0  0  0  0  0  0  0  0
  149.4746  129.0308  154.6213 O   0  0  0  0  0  0  0  0  0  0  0  0
  150.6689  129.7987  154.7056 C   0  0  0  0  0  0  0  0  0  0  0  0
  150.3304  131.2428  155.1133 C   0  0  0  0  0  0  0  0  0  0  0  0
  148.4119  134.5514  156.1371 H   0  0  0  0  0  0  0  0  0  0  0  0
  149.0480  132.9916  156.6359 H   0  0  0  0  0  0  0  0  0  0  0  0
  147.4466  133.1180  155.9169 H   0  0  0  0  0  0  0  0  0  0  0  0
  147.9252  134.9813  153.6675 H   0  0  0  0  0  0  0  0  0  0  0  0
  147.1496  133.4327  153.4237 H   0  0  0  0  0  0  0  0  0  0  0  0
  148.5137  133.9083  152.4179 H   0  0  0  0  0  0  0  0  0  0  0  0
  151.0402  133.9144  155.2827 H   0  0  0  0  0  0  0  0  0  0  0  0
  150.9796  133.9315  153.5505 H   0  0  0  0  0  0  0  0  0  0  0  0
  149.3911  135.9240  153.8353 H   0  0  0  0  0  0  0  0  0  0  0  0
  149.4460  137.7937  154.4480 H   0  0  0  0  0  0  0  0  0  0  0  0
  149.6636  140.3677  154.3926 H   0  0  0  0  0  0  0  0  0  0  0  0
  150.4176  142.3209  155.6772 H   0  0  0  0  0  0  0  0  0  0  0  0
  151.2617  143.9792  156.9517 H   0  0  0  0  0  0  0  0  0  0  0  0
  150.1633  143.3640  158.1971 H   0  0  0  0  0  0  0  0  0  0  0  0
  152.8079  144.8166  158.5669 H   0  0  0  0  0  0  0  0  0  0  0  0
  151.2897  145.1331  159.4106 H   0  0  0  0  0  0  0  0  0  0  0  0
  153.2016  143.6194  160.6284 H   0  0  0  0  0  0  0  0  0  0  0  0
  151.5132  143.1208  160.7188 H   0  0  0  0  0  0  0  0  0  0  0  0
  152.2909  141.1511  159.7442 H   0  0  0  0  0  0  0  0  0  0  0  0
  153.6828  141.9460  158.9956 H   0  0  0  0  0  0  0  0  0  0  0  0
  151.6400  137.8582  157.3152 H   0  0  0  0  0  0  0  0  0  0  0  0
  147.6613  130.9897  155.0437 H   0  0  0  0  0  0  0  0  0  0  0  0
  147.4907  131.3985  153.3505 H   0  0  0  0  0  0  0  0  0  0  0  0
  147.6519  128.9492  153.6753 H   0  0  0  0  0  0  0  0  0  0  0  0
  148.9707  129.5447  152.6835 H   0  0  0  0  0  0  0  0  0  0  0  0
  151.3332  129.3438  155.4404 H   0  0  0  0  0  0  0  0  0  0  0  0
  151.1904  129.7801  153.7472 H   0  0  0  0  0  0  0  0  0  0  0  0
  151.2633  131.8025  155.1484 H   0  0  0  0  0  0  0  0  0  0  0  0
  149.9256  131.2361  156.1254 H   0  0  0  0  0  0  0  0  0  0  0  0
  1  2  1  0  0  0  0
  1 26  1  0  0  0  0
  1 27  1  0  0  0  0
  1 28  1  0  0  0  0
  2  3  1  0  0  0  0
  2  4  1  0  0  0  0
  2 20  1  0  0  0  0
  3 29  1  0  0  0  0
  3 30  1  0  0  0  0
  3 31  1  0  0  0  0
  4  5  1  0  0  0  0
  4 32  1  0  0  0  0
  4 33  1  0  0  0  0
  5  6  1  0  0  0  0
  5 34  1  0  0  0  0
  6  7  2  0  0  0  0
  6  8  1  0  0  0  0
  8  9  1  0  0  0  0
  8 35  1  0  0  0  0
  9 19  1  0  0  0  0
  9 10  2  0  0  0  0
 10 11  1  0  0  0  0
 10 36  1  0  0  0  0
 11 12  2  0  0  0  0
 11 37  1  0  0  0  0
 12 13  1  0  0  0  0
 12 18  1  0  0  0  0
 13 17  1  0  0  0  0
 13 14  1  0  0  0  0
 14 15  1  0  0  0  0
 14 38  1  0  0  0  0
 14 39  1  0  0  0  0
 15 16  1  0  0  0  0
 15 40  1  0  0  0  0
 15 41  1  0  0  0  0
 16 17  1  0  0  0  0
 16 42  1  0  0  0  0
 16 43  1  0  0  0  0
 17 44  1  0  0  0  0
 17 45  1  0  0  0  0
 18 19  2  0  0  0  0
 19 46  1  0  0  0  0
 20 25  1  0  0  0  0
 20 21  1  0  0  0  0
 21 22  1  0  0  0  0
 21 47  1  0  0  0  0
 21 48  1  0  0  0  0
 22 23  1  0  0  0  0
 22 49  1  0  0  0  0
 22 50  1  0  0  0  0
 23 24  1  0  0  0  0
 24 25  1  0  0  0  0
 24 51  1  0  0  0  0
 24 52  1  0  0  0  0
 25 53  1  0  0  0  0
 25 54  1  0  0  0  0
M  END
> <s_m_source_file>
AV-unprocessed.smi

> <i_m_source_file_index>
1157

> <i_lp_mmshare_version>
43012

> <i_f3d_flags>
0

> <s_epik_input>
W0NIMl0xW0NIMl1PW0NIMl1bQ0gyXU4xQyhbQ0gzXSkoW0NIM10pW0NIMl1bTkhdQyg9TylbTkhdYzJbY0hdW2NIXWMobltjSF0yKU4zW0NIMl1bQ0gyXVtDSDJdW0NIMl0z

> <s_epik_cmdline>
J2VwaWtfcHl0aG9uJywgJy1waCcsICc3LjAnLCAnLXRuJywgJzgnLCAnLW1hJywgJzIwMCcsICctbWV0YWxfYmluZGluZycsICctaW1hZScsICc8aW5maWxlLm1hZT4nLCAnLW9tYWUnLCAnPG91dGZpbGUubWFlPic=

> <r_lp_tautomer_probability>
1

> <r_epik_Ionization_Penalty>
0.366523

> <r_epik_Ionization_Penalty_Charging>
0

> <r_epik_Ionization_Penalty_Neutral>
0.366523

> <r_epik_State_Penalty>
0.351681

> <r_epik_Charging_Adjusted_Penalty>
0.351681

> <i_epik_Tot_Q>
0

> <i_epik_Tot_abs_Q>
0

> <r_epik_Metal_State_Penalty>
0.334658

> <b_epik_Metal_Only>
0

> <s_lp_Force_Field>
OPLS_2005

> <r_lp_Energy>
67.3279

> <b_lp_Chiralities_Consistent>
1

> <s_lp_Variant>
AV-unprocessed.smi:1157-1

> <Gold.Version>
5.8.1

> <Gold.Id.Protein>
6NUR|6NUR_protein|mol2

> <Gold.PLP.Fitness>
44.6678

> <Gold.PLP.PLP>
-39.6199

> <Gold.PLP.part.hbond>
-2.5413

> <Gold.PLP.part.metal>
0.0000

> <Gold.PLP.part.buried>
-3.7892

> <Gold.PLP.part.nonpolar>
-33.6202

> <Gold.PLP.part.repulsive>
0.2307

> <Gold.PLP.ligand.clash>
0.0000

> <Gold.PLP.ligand.torsion>
0.3951

> <Gold.PLP.Chemscore.Hbond>
1.8480

> <Gold.PLP.Chemscore.CHOScore>
0.0000

> <Gold.PLP.Chemscore.Metal>
0.0000

> <Gold.Chemscore.Hbonds>
donor molecule, donor type, donor heavy atom, donor atom, acceptor molecule, acceptor atom, score
      L1  H     5    34       P1  7948  0.83
      P1  H 10752 10763       L1     7  1.00

> <Gold.PLP.Chemscore.Internal.Correction>
0.2941

> <Gold.Rescore>
     Score         DG    S(hbond)    S(metal)    S(lipo)     H(rot)  DE(clash)    DE(int)     intcor
     16.93     -18.80       1.38        0.00     104.78       1.38       0.17       1.71       ----

> <Gold.Chemscore.Fitness>
16.9281

> <Gold.Chemscore.DG>
-18.8025

> <Gold.Chemscore.ZeroCoef>
-5.4800

> <Gold.Chemscore.Hbond>
1.3770

> <Gold.Chemscore.Metal>
0.0000

> <Gold.Chemscore.Lipo>
104.7802

> <Gold.Chemscore.Internal_Hbond>
0.0000

> <Gold.Chemscore.DEClash>
0.1688

> <Gold.Chemscore.DEInternal>
1.7056

> <Gold.Chemscore.Rot>
1.3812

> <Gold.Chemscore.Internal.Correction>
   9.000000E+99

> <Gold.Chemscore.Hbonds>
donor molecule, donor type, donor heavy atom, donor atom, acceptor molecule, acceptor atom, score
      L1  H     5    34       P1  7948  0.51
      P1  H 10752 10763       L1     7  0.29

> <Gold.Chemscore.Hbond.Weighted>
-4.5990

> <Gold.Chemscore.Metal.Weighted>
-0.0000

> <Gold.Chemscore.Lipo.Weighted>
-12.2593

> <Gold.Chemscore.Internal_Hbond.Weighted>
0.0000

> <Gold.Chemscore.DEClash.Weighted>
0.1688

> <Gold.Chemscore.DEInternal.Weighted>
1.7056

> <Gold.Chemscore.Rot.Weighted>
3.5358

> <Gold.Chemscore.Internal.Correction.Weighted>
   9.000000E+99

> <Gold.Protein.RotatedTorsions>
[ 6907 6896 6895 6894 ] final  -17.12 input  -60.11 | X-H torsion
[ 7974 7965 7964 7962 ] final  -46.52 input  175.53 | X-H torsion
[ 8008 7997 7996 7995 ] final -152.87 input   59.86 | X-H torsion
[ 10167 10162 10161 10158 ] final -125.46 input  -65.29 | X-H torsion
[ 10718 10713 10712 10709 ] final   17.27 input   66.30 | X-H torsion
[ 10763 10752 10751 10750 ] final   75.61 input  -60.55 | X-H torsion
[ 11005 11000 10999 10996 ] final  -51.36 input  -57.11 | X-H torsion

> <Gold.Protein.ActiveResidues>
 VAL166  LYS551  ARG553  GLY616  TRP617  ASP618  TYR619  PRO620  LYS621  CYS622 
 ASP623  PHE694  ASN695  SER759  ASP760  ASP761  ALA762  ILE779  LEU786  VAL792 
 PHE793  MET794  SER795  GLU796  ALA797  LYS798  CYS799  TRP800  GLU811  SER814 

> <Gold.Protein.RotatedAtoms>
  151.2982  135.0761  159.9228 H   0  0  0  0  0  0  0  0  0  0  0  0  # atno 6907 bound_to 6896
  152.5303  133.9861  159.7839 H   0  0  0  0  0  0  0  0  0  0  0  0  # atno 6908 bound_to 6896
  151.0143  133.5884  159.2709 H   0  0  0  0  0  0  0  0  0  0  0  0  # atno 6909 bound_to 6896
  145.9711  140.7382  142.9410 H   0  0  0  0  0  0  0  0  0  0  0  0  # atno 7974 bound_to 7965
  155.6619  140.0723  157.2551 H   0  0  0  0  0  0  0  0  0  0  0  0  # atno 8008 bound_to 7997
  154.4140  140.1714  156.1836 H   0  0  0  0  0  0  0  0  0  0  0  0  # atno 8009 bound_to 7997
  155.9690  140.3363  155.6561 H   0  0  0  0  0  0  0  0  0  0  0  0  # atno 8010 bound_to 7997
  139.9819  143.5733  152.2375 H   0  0  0  0  0  0  0  0  0  0  0  0  # atno 10167 bound_to 10162
  157.0798  130.6383  149.5824 H   0  0  0  0  0  0  0  0  0  0  0  0  # atno 10718 bound_to 10713
  153.0667  135.4982  154.8215 H   0  0  0  0  0  0  0  0  0  0  0  0  # atno 10763 bound_to 10752
  154.6964  135.2993  154.9408 H   0  0  0  0  0  0  0  0  0  0  0  0  # atno 10764 bound_to 10752
  154.0146  135.6750  153.4820 H   0  0  0  0  0  0  0  0  0  0  0  0  # atno 10765 bound_to 10752
  141.0866  133.6641  156.3865 H   0  0  0  0  0  0  0  0  0  0  0  0  # atno 11005 bound_to 11000
  144.6837  140.2750  143.7300 LP  0  0  0  0  0  0  0  0  0  0  0  0  # atno 17320 bound_to 7965
  145.7905  139.1925  143.2105 LP  0  0  0  0  0  0  0  0  0  0  0  0  # atno 17321 bound_to 7965
  139.6403  144.7654  151.2352 LP  0  0  0  0  0  0  0  0  0  0  0  0  # atno 17342 bound_to 10162
  140.7486  143.6328  150.8407 LP  0  0  0  0  0  0  0  0  0  0  0  0  # atno 17343 bound_to 10162
  155.9927  130.4985  150.7350 LP  0  0  0  0  0  0  0  0  0  0  0  0  # atno 17370 bound_to 10713
  157.4809  131.0902  151.0537 LP  0  0  0  0  0  0  0  0  0  0  0  0  # atno 17371 bound_to 10713
  140.5348  134.6178  157.5361 LP  0  0  0  0  0  0  0  0  0  0  0  0  # atno 17394 bound_to 11000
  139.9686  134.7331  156.0088 LP  0  0  0  0  0  0  0  0  0  0  0  0  # atno 17395 bound_to 11000

$$$$
