AV-unprocessed.smi:2527|AV-procd|sdf|9945|dock7
  -GOLD-   2272013583D 1   1.00000     0.00000
 Structure written by MMmdl.
 35 37  0  0  0  0  0  0  0  0  2 V2000
  151.9296  138.4218  154.5744 C   0  0  0  0  0  0  0  0  0  0  0  0
  151.1424  139.5604  154.8738 O   0  0  0  0  0  0  0  0  0  0  0  0
  151.6955  140.3472  155.9165 C   0  0  0  0  0  0  0  0  0  0  0  0
  151.5632  139.6004  157.2512 C   0  0  0  0  0  0  0  0  0  0  0  0
  152.0915  140.3743  158.3653 N   0  0  0  0  0  0  0  0  0  0  0  0
  152.8301  139.9296  159.4127 C   0  0  0  0  0  0  0  0  0  0  0  0
  153.2802  138.2243  159.5602 S   0  0  0  0  0  0  0  0  0  0  0  0
  154.7485  138.3654  160.6214 C   0  0  0  0  0  0  0  0  0  0  0  0
  155.9019  139.1024  159.9782 C   0  0  0  0  0  0  0  0  0  0  0  0
  156.8239  139.6908  160.7943 N   0  0  0  0  0  0  0  0  0  0  0  0
  157.7246  140.2576  159.9981 C   0  0  0  0  0  0  0  0  0  0  0  0
  158.6950  140.8744  160.4325 O   0  0  0  0  0  0  0  0  0  0  0  0
  157.3731  140.0285  158.7089 N   0  5  0  0  0  0  0  0  0  0  0  0
  156.1634  139.2607  158.7328 N   0  0  0  0  0  0  0  0  0  0  0  0
  153.1881  140.8644  160.2956 N   0  0  0  0  0  0  0  0  0  0  0  0
  152.6350  142.0152  159.7722 C   0  0  0  0  0  0  0  0  0  0  0  0
  152.6648  143.3460  160.2462 C   0  0  0  0  0  0  0  0  0  0  0  0
  152.0214  144.3745  159.5266 C   0  0  0  0  0  0  0  0  0  0  0  0
  152.0691  145.9944  160.1181 Cl  0  0  0  0  0  0  0  0  0  0  0  0
  151.3405  144.0856  158.3257 C   0  0  0  0  0  0  0  0  0  0  0  0
  151.2979  142.7656  157.8373 C   0  0  0  0  0  0  0  0  0  0  0  0
  151.9414  141.7436  158.5604 C   0  0  0  0  0  0  0  0  0  0  0  0
  156.8134  139.6888  161.8032 H   0  0  0  0  0  0  0  0  0  0  0  0
  151.4599  137.8536  153.7714 H   0  0  0  0  0  0  0  0  0  0  0  0
  152.0214  137.7665  155.4415 H   0  0  0  0  0  0  0  0  0  0  0  0
  152.9286  138.7091  154.2440 H   0  0  0  0  0  0  0  0  0  0  0  0
  152.7474  140.5515  155.7116 H   0  0  0  0  0  0  0  0  0  0  0  0
  151.1817  141.3082  155.9727 H   0  0  0  0  0  0  0  0  0  0  0  0
  150.5147  139.3760  157.4490 H   0  0  0  0  0  0  0  0  0  0  0  0
  152.0741  138.6386  157.2043 H   0  0  0  0  0  0  0  0  0  0  0  0
  154.4659  138.8707  161.5457 H   0  0  0  0  0  0  0  0  0  0  0  0
  155.0887  137.3661  160.8949 H   0  0  0  0  0  0  0  0  0  0  0  0
  153.1854  143.5749  161.1643 H   0  0  0  0  0  0  0  0  0  0  0  0
  150.8515  144.8775  157.7776 H   0  0  0  0  0  0  0  0  0  0  0  0
  150.7806  142.5428  156.9160 H   0  0  0  0  0  0  0  0  0  0  0  0
  1  2  1  0  0  0  0
  1 24  1  0  0  0  0
  1 25  1  0  0  0  0
  1 26  1  0  0  0  0
  2  3  1  0  0  0  0
  3  4  1  0  0  0  0
  3 27  1  0  0  0  0
  3 28  1  0  0  0  0
  4  5  1  0  0  0  0
  4 29  1  0  0  0  0
  4 30  1  0  0  0  0
  5 22  1  0  0  0  0
  5  6  1  0  0  0  0
  6  7  1  0  0  0  0
  6 15  2  0  0  0  0
  7  8  1  0  0  0  0
  8 31  1  0  0  0  0
  8 32  1  0  0  0  0
  8  9  1  0  0  0  0
  9 14  2  0  0  0  0
  9 10  1  0  0  0  0
 10 11  1  0  0  0  0
 10 23  1  0  0  0  0
 11 13  1  0  0  0  0
 11 12  2  0  0  0  0
 13 14  1  0  0  0  0
 15 16  1  0  0  0  0
 16 22  2  0  0  0  0
 16 17  1  0  0  0  0
 17 18  2  0  0  0  0
 17 33  1  0  0  0  0
 18 19  1  0  0  0  0
 18 20  1  0  0  0  0
 20 21  2  0  0  0  0
 20 34  1  0  0  0  0
 21 22  1  0  0  0  0
 21 35  1  0  0  0  0
M  CHG  1  13  -1
M  END
> <s_m_source_file>
AV-unprocessed.smi

> <i_m_source_file_index>
2527

> <i_lp_mmshare_version>
43012

> <i_f3d_flags>
0

> <s_epik_input>
W2NIXTFjKENsKVtjSF1bY0hdYyhjMTIpbihbQ0gyXVtDSDJdT1tDSDNdKWMobjIpU1tDSDJdYzNuYyg9TylbbkhdW25IXTM=

> <s_epik_cmdline>
J2VwaWtfcHl0aG9uJywgJy1waCcsICc3LjAnLCAnLXRuJywgJzgnLCAnLW1hJywgJzIwMCcsICctbWV0YWxfYmluZGluZycsICctaW1hZScsICc8aW5maWxlLm1hZT4nLCAnLW9tYWUnLCAnPG91dGZpbGUubWFlPic=

> <r_lp_tautomer_probability>
0.999897

> <r_epik_Ionization_Penalty>
2.94119

> <r_epik_Ionization_Penalty_Charging>
1.40065e-06

> <r_epik_Ionization_Penalty_Neutral>
2.94119

> <r_epik_State_Penalty>
4.57578

> <r_epik_Charging_Adjusted_Penalty>
4.57578

> <i_epik_Tot_Q>
-1

> <i_epik_Tot_abs_Q>
1

> <r_epik_Metal_State_Penalty>
2.1052

> <b_epik_Metal_Only>
1

> <s_lp_Force_Field>
OPLS_2005

> <r_lp_Energy>
14.3955

> <b_lp_Chiralities_Consistent>
1

> <s_lp_Variant>
AV-unprocessed.smi:2527-4

> <Gold.Version>
5.8.1

> <Gold.Id.Protein>
6NUR|6NUR_protein|mol2

> <Gold.PLP.Fitness>
47.5499

> <Gold.PLP.PLP>
-44.3230

> <Gold.PLP.part.hbond>
-3.5913

> <Gold.PLP.part.metal>
0.0000

> <Gold.PLP.part.buried>
-5.9121

> <Gold.PLP.part.nonpolar>
-34.4719

> <Gold.PLP.part.repulsive>
0.2659

> <Gold.PLP.ligand.clash>
0.0000

> <Gold.PLP.ligand.torsion>
0.9731

> <Gold.PLP.Chemscore.Hbond>
1.7000

> <Gold.PLP.Chemscore.CHOScore>
0.0000

> <Gold.PLP.Chemscore.Metal>
0.0000

> <Gold.Chemscore.Hbonds>
donor molecule, donor type, donor heavy atom, donor atom, acceptor molecule, acceptor atom, score
      P1  H  7989  7998       L1     2  0.65
      P1  H  7997  8010       L1    14  0.65

> <Gold.PLP.Chemscore.Internal.Correction>
0.0730

> <Gold.Rescore>
     Score         DG    S(hbond)    S(metal)    S(lipo)     H(rot)  DE(clash)    DE(int)     intcor
     13.89     -14.88       1.14        0.00     109.32       2.81       0.55       0.44       ----

> <Gold.Chemscore.Fitness>
13.8909

> <Gold.Chemscore.DG>
-14.8848

> <Gold.Chemscore.ZeroCoef>
-5.4800

> <Gold.Chemscore.Hbond>
1.1395

> <Gold.Chemscore.Metal>
0.0000

> <Gold.Chemscore.Lipo>
109.3206

> <Gold.Chemscore.Internal_Hbond>
0.0000

> <Gold.Chemscore.DEClash>
0.5494

> <Gold.Chemscore.DEInternal>
0.4445

> <Gold.Chemscore.Rot>
2.8092

> <Gold.Chemscore.Internal.Correction>
   9.000000E+99

> <Gold.Chemscore.Hbonds>
donor molecule, donor type, donor heavy atom, donor atom, acceptor molecule, acceptor atom, score
      P1  H  7989  7998       L1     2  0.02
      P1  H  7997  8010       L1    14  0.06

> <Gold.Chemscore.Hbond.Weighted>
-3.8060

> <Gold.Chemscore.Metal.Weighted>
-0.0000

> <Gold.Chemscore.Lipo.Weighted>
-12.7905

> <Gold.Chemscore.Internal_Hbond.Weighted>
0.0000

> <Gold.Chemscore.DEClash.Weighted>
0.5494

> <Gold.Chemscore.DEInternal.Weighted>
0.4445

> <Gold.Chemscore.Rot.Weighted>
7.1916

> <Gold.Chemscore.Internal.Correction.Weighted>
   9.000000E+99

> <Gold.Protein.RotatedTorsions>
[ 6907 6896 6895 6894 ] final  173.23 input  -60.11 | X-H torsion
[ 7974 7965 7964 7962 ] final   19.32 input  175.53 | X-H torsion
[ 8008 7997 7996 7995 ] final  -22.90 input   59.86 | X-H torsion
[ 10167 10162 10161 10158 ] final -164.58 input  -65.29 | X-H torsion
[ 10718 10713 10712 10709 ] final   40.19 input   66.30 | X-H torsion
[ 10763 10752 10751 10750 ] final   71.92 input  -60.55 | X-H torsion
[ 11005 11000 10999 10996 ] final   70.72 input  -57.11 | X-H torsion

> <Gold.Protein.ActiveResidues>
 VAL166  LYS551  ARG553  GLY616  TRP617  ASP618  TYR619  PRO620  LYS621  CYS622 
 ASP623  PHE694  ASN695  SER759  ASP760  ASP761  ALA762  ILE779  LEU786  VAL792 
 PHE793  MET794  SER795  GLU796  ALA797  LYS798  CYS799  TRP800  GLU811  SER814 

> <Gold.Protein.RotatedAtoms>
  151.7717  133.3342  159.3446 H   0  0  0  0  0  0  0  0  0  0  0  0  # atno 6907 bound_to 6896
  150.7459  134.6012  159.6047 H   0  0  0  0  0  0  0  0  0  0  0  0  # atno 6908 bound_to 6896
  152.3337  134.7228  160.0334 H   0  0  0  0  0  0  0  0  0  0  0  0  # atno 6909 bound_to 6896
  146.2153  139.8330  142.8656 H   0  0  0  0  0  0  0  0  0  0  0  0  # atno 7974 bound_to 7965
  154.4616  140.1995  156.0228 H   0  0  0  0  0  0  0  0  0  0  0  0  # atno 8008 bound_to 7997
  156.0851  140.3266  155.7715 H   0  0  0  0  0  0  0  0  0  0  0  0  # atno 8009 bound_to 7997
  155.5048  140.0557  157.2924 H   0  0  0  0  0  0  0  0  0  0  0  0  # atno 8010 bound_to 7997
  139.6240  144.0568  152.1958 H   0  0  0  0  0  0  0  0  0  0  0  0  # atno 10167 bound_to 10162
  157.3793  130.7745  149.7180 H   0  0  0  0  0  0  0  0  0  0  0  0  # atno 10718 bound_to 10713
  153.0428  135.5119  154.7666 H   0  0  0  0  0  0  0  0  0  0  0  0  # atno 10763 bound_to 10752
  154.6590  135.2936  154.9893 H   0  0  0  0  0  0  0  0  0  0  0  0  # atno 10764 bound_to 10752
  154.0750  135.6672  153.4882 H   0  0  0  0  0  0  0  0  0  0  0  0  # atno 10765 bound_to 10752
  139.9582  134.7107  156.0705 H   0  0  0  0  0  0  0  0  0  0  0  0  # atno 11005 bound_to 11000
  145.2978  141.0185  143.3626 LP  0  0  0  0  0  0  0  0  0  0  0  0  # atno 17320 bound_to 7965
  144.9029  139.4626  143.6624 LP  0  0  0  0  0  0  0  0  0  0  0  0  # atno 17321 bound_to 7965
  140.0217  144.6148  150.7561 LP  0  0  0  0  0  0  0  0  0  0  0  0  # atno 17342 bound_to 10162
  140.7400  143.2798  151.3632 LP  0  0  0  0  0  0  0  0  0  0  0  0  # atno 17343 bound_to 10162
  155.9772  130.4066  150.3727 LP  0  0  0  0  0  0  0  0  0  0  0  0  # atno 17370 bound_to 10713
  157.1829  131.0396  151.2739 LP  0  0  0  0  0  0  0  0  0  0  0  0  # atno 17371 bound_to 10713
  141.1256  133.6600  156.3329 LP  0  0  0  0  0  0  0  0  0  0  0  0  # atno 17394 bound_to 11000
  140.5560  134.5981  157.5421 LP  0  0  0  0  0  0  0  0  0  0  0  0  # atno 17395 bound_to 11000

$$$$
