AV-unprocessed.smi:1518|AV-procd|sdf|6124|dock2
  -GOLD-   22720 6263D 1   1.00000     0.00000
 Structure written by MMmdl.
 45 47  0  0  0  0  0  0  0  0  1 V2000
  150.1263  134.2150  155.9241 C   0  0  0  0  0  0  0  0  0  0  0  0
  150.3495  135.7261  155.8852 C   0  0  0  0  0  0  0  0  0  0  0  0
  151.4658  136.1639  156.1621 O   0  0  0  0  0  0  0  0  0  0  0  0
  149.1944  136.5940  155.5153 C   0  0  0  0  0  0  0  0  0  0  0  0
  147.9435  135.9967  155.2410 C   0  0  0  0  0  0  0  0  0  0  0  0
  146.8368  136.7893  154.8876 C   0  0  0  0  0  0  0  0  0  0  0  0
  146.9690  138.1868  154.8065 C   0  0  0  0  0  0  0  0  0  0  0  0
  148.2032  138.8087  155.0783 C   0  0  0  0  0  0  0  0  0  0  0  0
  148.2408  140.1826  154.9750 O   0  0  0  0  0  0  0  0  0  0  0  0
  149.5061  140.8317  154.9951 C   0  0  0  0  0  0  0  0  0  0  0  0
  149.8694  141.2192  156.4373 C   0  0  2  0  0  0  0  0  0  0  0  0
  149.0927  142.3340  156.8274 O   0  0  0  0  0  0  0  0  0  0  0  0
  151.3777  141.4698  156.6450 C   0  0  0  0  0  0  0  0  0  0  0  0
  151.7268  141.6824  158.0429 N   0  0  0  0  0  0  0  0  0  0  0  0
  152.0646  140.7523  158.9713 C   0  0  0  0  0  0  0  0  0  0  0  0
  152.1262  139.2905  158.6283 C   0  0  0  0  0  0  0  0  0  0  0  0
  153.1507  138.9577  157.7134 O   0  0  0  0  0  0  0  0  0  0  0  0
  152.3471  141.2277  160.1867 N   0  0  0  0  0  0  0  0  0  0  0  0
  152.1753  142.5891  160.0314 C   0  0  0  0  0  0  0  0  0  0  0  0
  152.3259  143.6456  160.9579 C   0  0  0  0  0  0  0  0  0  0  0  0
  152.0947  144.9797  160.5632 C   0  0  0  0  0  0  0  0  0  0  0  0
  151.7109  145.2757  159.2392 C   0  0  0  0  0  0  0  0  0  0  0  0
  151.5561  144.2379  158.3003 C   0  0  0  0  0  0  0  0  0  0  0  0
  151.7878  142.9078  158.6996 C   0  0  0  0  0  0  0  0  0  0  0  0
  149.3148  138.0028  155.4342 C   0  0  0  0  0  0  0  0  0  0  0  0
  149.8690  133.8421  154.9327 H   0  0  0  0  0  0  0  0  0  0  0  0
  149.3216  133.9641  156.6154 H   0  0  0  0  0  0  0  0  0  0  0  0
  151.0303  133.7040  156.2562 H   0  0  0  0  0  0  0  0  0  0  0  0
  147.8192  134.9247  155.2968 H   0  0  0  0  0  0  0  0  0  0  0  0
  145.8848  136.3244  154.6785 H   0  0  0  0  0  0  0  0  0  0  0  0
  146.1140  138.7879  154.5340 H   0  0  0  0  0  0  0  0  0  0  0  0
  150.2812  140.1950  154.5647 H   0  0  0  0  0  0  0  0  0  0  0  0
  149.4510  141.7412  154.3946 H   0  0  0  0  0  0  0  0  0  0  0  0
  149.5577  140.3999  157.0853 H   0  0  0  0  0  0  0  0  0  0  0  0
  148.7224  142.7268  156.0516 H   0  0  0  0  0  0  0  0  0  0  0  0
  151.9564  140.6301  156.2597 H   0  0  0  0  0  0  0  0  0  0  0  0
  151.7019  142.3424  156.0769 H   0  0  0  0  0  0  0  0  0  0  0  0
  152.2820  138.7091  159.5364 H   0  0  0  0  0  0  0  0  0  0  0  0
  151.1684  138.9861  158.2057 H   0  0  0  0  0  0  0  0  0  0  0  0
  152.7533  138.6131  156.9286 H   0  0  0  0  0  0  0  0  0  0  0  0
  152.6203  143.4287  161.9741 H   0  0  0  0  0  0  0  0  0  0  0  0
  152.2124  145.7794  161.2797 H   0  0  0  0  0  0  0  0  0  0  0  0
  151.5354  146.3002  158.9449 H   0  0  0  0  0  0  0  0  0  0  0  0
  151.2609  144.4617  157.2860 H   0  0  0  0  0  0  0  0  0  0  0  0
  150.2656  138.4651  155.6463 H   0  0  0  0  0  0  0  0  0  0  0  0
  1  2  1  0  0  0  0
  1 26  1  0  0  0  0
  1 27  1  0  0  0  0
  1 28  1  0  0  0  0
  2  3  2  0  0  0  0
  2  4  1  0  0  0  0
  4 25  1  0  0  0  0
  4  5  2  0  0  0  0
  5  6  1  0  0  0  0
  5 29  1  0  0  0  0
  6  7  2  0  0  0  0
  6 30  1  0  0  0  0
  7  8  1  0  0  0  0
  7 31  1  0  0  0  0
  8  9  1  0  0  0  0
  8 25  2  0  0  0  0
  9 10  1  0  0  0  0
 10 11  1  0  0  0  0
 10 32  1  0  0  0  0
 10 33  1  0  0  0  0
 11 12  1  0  0  0  0
 11 13  1  0  0  0  0
 11 34  1  0  0  0  0
 12 35  1  0  0  0  0
 13 14  1  0  0  0  0
 13 36  1  0  0  0  0
 13 37  1  0  0  0  0
 14 24  1  0  0  0  0
 14 15  1  0  0  0  0
 15 16  1  0  0  0  0
 15 18  2  0  0  0  0
 16 17  1  0  0  0  0
 16 38  1  0  0  0  0
 16 39  1  0  0  0  0
 17 40  1  0  0  0  0
 18 19  1  0  0  0  0
 19 24  2  0  0  0  0
 19 20  1  0  0  0  0
 20 21  2  0  0  0  0
 20 41  1  0  0  0  0
 21 22  1  0  0  0  0
 21 42  1  0  0  0  0
 22 23  2  0  0  0  0
 22 43  1  0  0  0  0
 23 24  1  0  0  0  0
 23 44  1  0  0  0  0
 25 45  1  0  0  0  0
M  END
> <s_m_source_file>
AV-unprocessed.smi

> <i_m_source_file_index>
1518

> <i_lp_mmshare_version>
43012

> <i_f3d_flags>
0

> <s_epik_input>
W0NIM11DKD1PKWMxW2NIXVtjSF1bY0hdYyhbY0hdMSlPW0NIMl1bQ0BIXShbT0hdKVtDSDJdbihjKG4yKVtDSDJdW09IXSljKGMyMylbY0hdW2NIXVtjSF1bY0hdMw==

> <s_epik_cmdline>
J2VwaWtfcHl0aG9uJywgJy1waCcsICc3LjAnLCAnLXRuJywgJzgnLCAnLW1hJywgJzIwMCcsICctbWV0YWxfYmluZGluZycsICctaW1hZScsICc8aW5maWxlLm1hZT4nLCAnLW9tYWUnLCAnPG91dGZpbGUubWFlPic=

> <r_lp_tautomer_probability>
0.99995

> <r_epik_Ionization_Penalty>
0.0583159

> <r_epik_Ionization_Penalty_Charging>
0

> <r_epik_Ionization_Penalty_Neutral>
0.0583159

> <r_epik_State_Penalty>
0.0503525

> <r_epik_Charging_Adjusted_Penalty>
0.0503525

> <i_epik_Tot_Q>
0

> <i_epik_Tot_abs_Q>
0

> <r_epik_Metal_State_Penalty>
5.25517e-05

> <b_epik_Metal_Only>
0

> <s_lp_Force_Field>
OPLS_2005

> <r_lp_Energy>
22.7276

> <b_lp_Chiralities_Consistent>
1

> <s_lp_Variant>
AV-unprocessed.smi:1518-1

> <Gold.Version>
5.8.1

> <Gold.Id.Protein>
6NUR|6NUR_protein|mol2

> <Gold.PLP.Fitness>
49.7622

> <Gold.PLP.PLP>
-43.5911

> <Gold.PLP.part.hbond>
-3.0000

> <Gold.PLP.part.metal>
0.0000

> <Gold.PLP.part.buried>
-7.4669

> <Gold.PLP.part.nonpolar>
-33.3484

> <Gold.PLP.part.repulsive>
0.1189

> <Gold.PLP.ligand.clash>
0.0000

> <Gold.PLP.ligand.torsion>
0.9019

> <Gold.PLP.Chemscore.Hbond>
2.4640

> <Gold.PLP.Chemscore.CHOScore>
0.0000

> <Gold.PLP.Chemscore.Metal>
0.0000

> <Gold.Chemscore.Hbonds>
donor molecule, donor type, donor heavy atom, donor atom, acceptor molecule, acceptor atom, score
      L1  H    12    35       P1  8028  0.44
      P1  H  7997  8010       L1    17  0.85
      P1  H 10752 10763       L1     3  0.76

> <Gold.PLP.Chemscore.Internal.Correction>
0.5828

> <Gold.Rescore>
     Score         DG    S(hbond)    S(metal)    S(lipo)     H(rot)  DE(clash)    DE(int)     intcor
     16.51     -17.59       2.10        0.00     114.69       3.25       0.20       0.89       ----

> <Gold.Chemscore.Fitness>
16.5056

> <Gold.Chemscore.DG>
-17.5888

> <Gold.Chemscore.ZeroCoef>
-5.4800

> <Gold.Chemscore.Hbond>
2.0976

> <Gold.Chemscore.Metal>
0.0000

> <Gold.Chemscore.Lipo>
114.6876

> <Gold.Chemscore.Internal_Hbond>
0.0000

> <Gold.Chemscore.DEClash>
0.1962

> <Gold.Chemscore.DEInternal>
0.8870

> <Gold.Chemscore.Rot>
3.2482

> <Gold.Chemscore.Internal.Correction>
   9.000000E+99

> <Gold.Chemscore.Hbonds>
donor molecule, donor type, donor heavy atom, donor atom, acceptor molecule, acceptor atom, score
      L1  H    12    35       P1  8028  0.42
      P1  H  7997  8010       L1    17  0.15
      P1  H 10752 10763       L1     3  0.72

> <Gold.Chemscore.Hbond.Weighted>
-7.0058

> <Gold.Chemscore.Metal.Weighted>
-0.0000

> <Gold.Chemscore.Lipo.Weighted>
-13.4184

> <Gold.Chemscore.Internal_Hbond.Weighted>
0.0000

> <Gold.Chemscore.DEClash.Weighted>
0.1962

> <Gold.Chemscore.DEInternal.Weighted>
0.8870

> <Gold.Chemscore.Rot.Weighted>
8.3155

> <Gold.Chemscore.Internal.Correction.Weighted>
   9.000000E+99

> <Gold.Protein.RotatedTorsions>
[ 6907 6896 6895 6894 ] final  105.02 input  -60.11 | X-H torsion
[ 7974 7965 7964 7962 ] final   -1.47 input  175.53 | X-H torsion
[ 8008 7997 7996 7995 ] final   45.92 input   59.86 | X-H torsion
[ 10167 10162 10161 10158 ] final  -61.24 input  -65.29 | X-H torsion
[ 10718 10713 10712 10709 ] final  139.09 input   66.30 | X-H torsion
[ 10763 10752 10751 10750 ] final   90.88 input  -60.55 | X-H torsion
[ 11005 11000 10999 10996 ] final -135.33 input  -57.11 | X-H torsion

> <Gold.Protein.ActiveResidues>
 VAL166  LYS551  ARG553  GLY616  TRP617  ASP618  TYR619  PRO620  LYS621  CYS622 
 ASP623  PHE694  ASN695  SER759  ASP760  ASP761  ALA762  ILE779  LEU786  VAL792 
 PHE793  MET794  SER795  GLU796  ALA797  LYS798  CYS799  TRP800  GLU811  SER814 

> <Gold.Protein.RotatedAtoms>
  152.5245  133.9590  159.7707 H   0  0  0  0  0  0  0  0  0  0  0  0  # atno 6907 bound_to 6896
  150.9884  133.6166  159.2719 H   0  0  0  0  0  0  0  0  0  0  0  0  # atno 6908 bound_to 6896
  151.3318  135.0849  159.9394 H   0  0  0  0  0  0  0  0  0  0  0  0  # atno 6909 bound_to 6896
  146.2416  140.1426  142.8335 H   0  0  0  0  0  0  0  0  0  0  0  0  # atno 7974 bound_to 7965
  155.3440  140.3409  155.4239 H   0  0  0  0  0  0  0  0  0  0  0  0  # atno 8008 bound_to 7997
  156.1799  140.1660  156.8330 H   0  0  0  0  0  0  0  0  0  0  0  0  # atno 8009 bound_to 7997
  154.5322  140.0743  156.8347 H   0  0  0  0  0  0  0  0  0  0  0  0  # atno 8010 bound_to 7997
  140.6019  143.2363  151.5909 H   0  0  0  0  0  0  0  0  0  0  0  0  # atno 10167 bound_to 10162
  157.4182  131.1035  151.0382 H   0  0  0  0  0  0  0  0  0  0  0  0  # atno 10718 bound_to 10713
  153.2023  135.4418  155.0281 H   0  0  0  0  0  0  0  0  0  0  0  0  # atno 10763 bound_to 10752
  154.8154  135.3312  154.7194 H   0  0  0  0  0  0  0  0  0  0  0  0  # atno 10764 bound_to 10752
  153.7638  135.6989  153.4975 H   0  0  0  0  0  0  0  0  0  0  0  0  # atno 10765 bound_to 10752
  140.8908  134.1813  157.4528 H   0  0  0  0  0  0  0  0  0  0  0  0  # atno 11005 bound_to 11000
  145.0234  140.8812  143.5153 LP  0  0  0  0  0  0  0  0  0  0  0  0  # atno 17320 bound_to 7965
  145.1478  139.2533  143.5457 LP  0  0  0  0  0  0  0  0  0  0  0  0  # atno 17321 bound_to 7965
  139.5297  144.2952  152.1119 LP  0  0  0  0  0  0  0  0  0  0  0  0  # atno 17342 bound_to 10162
  140.2135  144.4539  150.6375 LP  0  0  0  0  0  0  0  0  0  0  0  0  # atno 17343 bound_to 10162
  157.1322  130.6107  149.5532 LP  0  0  0  0  0  0  0  0  0  0  0  0  # atno 17370 bound_to 10713
  155.9872  130.4910  150.7113 LP  0  0  0  0  0  0  0  0  0  0  0  0  # atno 17371 bound_to 10713
  139.8729  134.9858  156.5296 LP  0  0  0  0  0  0  0  0  0  0  0  0  # atno 17394 bound_to 11000
  140.8349  133.8250  155.9019 LP  0  0  0  0  0  0  0  0  0  0  0  0  # atno 17395 bound_to 11000

$$$$
