AV-unprocessed.smi:2014|AV-procd|sdf|8162|dock2
  -GOLD-   2272010413D 1   1.00000     0.00000
 Structure written by MMmdl.
 46 48  0  0  0  0  0  0  0  0  1 V2000
  144.4179  145.7467  156.5843 C   0  0  0  0  0  0  0  0  0  0  0  0
  144.5760  144.2211  156.5187 C   0  0  2  0  0  0  0  0  0  0  0  0
  145.2982  143.6749  157.7657 C   0  0  0  0  0  0  0  0  0  0  0  0
  145.4770  142.1462  157.7002 C   0  0  0  0  0  0  0  0  0  0  0  0
  146.1999  141.6993  156.4147 C   0  0  2  0  0  0  0  0  0  0  0  0
  147.5985  142.1211  156.4594 N   0  0  0  0  0  0  0  0  0  0  0  0
  148.5650  141.5608  157.2014 C   0  0  0  0  0  0  0  0  0  0  0  0
  148.3669  140.6349  157.9884 O   0  0  0  0  0  0  0  0  0  0  0  0
  149.9723  142.1465  157.0282 C   0  0  0  0  0  0  0  0  0  0  0  0
  150.9289  141.5953  158.0114 N   0  0  0  0  0  0  0  0  0  0  0  0
  151.0857  140.1867  158.0734 C   0  0  0  0  0  0  0  0  0  0  0  0
  150.4624  139.4443  157.3118 O   0  0  0  0  0  0  0  0  0  0  0  0
  152.0091  139.7004  159.0956 C   0  0  0  0  0  0  0  0  0  0  0  0
  152.1676  138.2884  159.2096 C   0  0  0  0  0  0  0  0  0  0  0  0
  152.2812  137.1418  159.3197 N   0  0  0  0  0  0  0  0  0  0  0  0
  152.6738  140.5589  159.8962 C   0  0  0  0  0  0  0  0  0  0  0  0
  152.5368  141.9262  159.7932 N   0  0  0  0  0  0  0  0  0  0  0  0
  153.1295  142.8118  160.7557 C   0  0  0  0  0  0  0  0  0  0  0  0
  152.9662  142.5502  162.2404 C   0  0  0  0  0  0  0  0  0  0  0  0
  152.2292  143.6959  161.5910 C   0  0  0  0  0  0  0  0  0  0  0  0
  151.6154  142.4805  158.8777 C   0  0  0  0  0  0  0  0  0  0  0  0
  151.4065  143.6955  158.8401 O   0  0  0  0  0  0  0  0  0  0  0  0
  145.4750  142.2585  155.1707 C   0  0  0  0  0  0  0  0  0  0  0  0
  145.3093  143.7868  155.2352 C   0  0  0  0  0  0  0  0  0  0  0  0
  145.3875  146.2455  156.6028 H   0  0  0  0  0  0  0  0  0  0  0  0
  143.8712  146.0472  157.4785 H   0  0  0  0  0  0  0  0  0  0  0  0
  143.8670  146.1219  155.7214 H   0  0  0  0  0  0  0  0  0  0  0  0
  143.5748  143.7880  156.4950 H   0  0  0  0  0  0  0  0  0  0  0  0
  146.2729  144.1544  157.8657 H   0  0  0  0  0  0  0  0  0  0  0  0
  144.7370  143.9361  158.6633 H   0  0  0  0  0  0  0  0  0  0  0  0
  146.0188  141.7963  158.5798 H   0  0  0  0  0  0  0  0  0  0  0  0
  144.4960  141.6715  157.7418 H   0  0  0  0  0  0  0  0  0  0  0  0
  146.1807  140.6089  156.3739 H   0  0  0  0  0  0  0  0  0  0  0  0
  147.8586  142.8807  155.8472 H   0  0  0  0  0  0  0  0  0  0  0  0
  150.3284  141.9697  156.0115 H   0  0  0  0  0  0  0  0  0  0  0  0
  149.8986  143.2326  157.0968 H   0  0  0  0  0  0  0  0  0  0  0  0
  153.3442  140.1623  160.6451 H   0  0  0  0  0  0  0  0  0  0  0  0
  154.0791  143.2522  160.4564 H   0  0  0  0  0  0  0  0  0  0  0  0
  152.3743  141.6912  162.5509 H   0  0  0  0  0  0  0  0  0  0  0  0
  153.8065  142.7945  162.8869 H   0  0  0  0  0  0  0  0  0  0  0  0
  152.5771  144.7042  161.8055 H   0  0  0  0  0  0  0  0  0  0  0  0
  151.1525  143.5906  161.4723 H   0  0  0  0  0  0  0  0  0  0  0  0
  146.0015  141.9807  154.2573 H   0  0  0  0  0  0  0  0  0  0  0  0
  144.4892  141.7979  155.0974 H   0  0  0  0  0  0  0  0  0  0  0  0
  144.7589  144.1292  154.3584 H   0  0  0  0  0  0  0  0  0  0  0  0
  146.2886  144.2652  155.1864 H   0  0  0  0  0  0  0  0  0  0  0  0
  1  2  1  0  0  0  0
  1 25  1  0  0  0  0
  1 26  1  0  0  0  0
  1 27  1  0  0  0  0
  2 24  1  0  0  0  0
  2  3  1  0  0  0  0
  2 28  1  0  0  0  0
  3  4  1  0  0  0  0
  3 29  1  0  0  0  0
  3 30  1  0  0  0  0
  4  5  1  0  0  0  0
  4 31  1  0  0  0  0
  4 32  1  0  0  0  0
  5  6  1  0  0  0  0
  5 23  1  0  0  0  0
  5 33  1  0  0  0  0
  6  7  1  0  0  0  0
  6 34  1  0  0  0  0
  7  8  2  0  0  0  0
  7  9  1  0  0  0  0
  9 10  1  0  0  0  0
  9 35  1  0  0  0  0
  9 36  1  0  0  0  0
 10 21  1  0  0  0  0
 10 11  1  0  0  0  0
 11 12  2  0  0  0  0
 11 13  1  0  0  0  0
 13 14  1  0  0  0  0
 13 16  2  0  0  0  0
 14 15  3  0  0  0  0
 16 17  1  0  0  0  0
 16 37  1  0  0  0  0
 17 18  1  0  0  0  0
 17 21  1  0  0  0  0
 18 20  1  0  0  0  0
 18 19  1  0  0  0  0
 18 38  1  0  0  0  0
 19 20  1  0  0  0  0
 19 39  1  0  0  0  0
 19 40  1  0  0  0  0
 20 41  1  0  0  0  0
 20 42  1  0  0  0  0
 21 22  2  0  0  0  0
 23 24  1  0  0  0  0
 23 43  1  0  0  0  0
 23 44  1  0  0  0  0
 24 45  1  0  0  0  0
 24 46  1  0  0  0  0
M  END
> <s_m_source_file>
AV-unprocessed.smi

> <i_m_source_file_index>
2014

> <i_lp_mmshare_version>
43012

> <i_f3d_flags>
0

> <s_epik_input>
W0NIM11bQ0BASF0xW0NIMl1bQ0gyXVtDQEhdKFtDSDJdW0NIMl0xKVtOSF1DKD1PKVtDSDJdbjJjKD1PKWMoQyNOKVtjSF1uKGMyPU8pW0NIXTNbQ0gyXVtDSDJdMw==

> <s_epik_cmdline>
J2VwaWtfcHl0aG9uJywgJy1waCcsICc3LjAnLCAnLXRuJywgJzgnLCAnLW1hJywgJzIwMCcsICctbWV0YWxfYmluZGluZycsICctaW1hZScsICc8aW5maWxlLm1hZT4nLCAnLW9tYWUnLCAnPG91dGZpbGUubWFlPic=

> <r_lp_tautomer_probability>
1

> <r_epik_Ionization_Penalty>
1.91358e-08

> <r_epik_Ionization_Penalty_Charging>
8.89021e-11

> <r_epik_Ionization_Penalty_Neutral>
1.90469e-08

> <r_epik_State_Penalty>
-0

> <r_epik_Charging_Adjusted_Penalty>
8.89021e-11

> <i_epik_Tot_Q>
0

> <i_epik_Tot_abs_Q>
0

> <r_epik_Metal_State_Penalty>
-0

> <b_epik_Metal_Only>
0

> <s_lp_Force_Field>
OPLS_2005

> <r_lp_Energy>
34.0364

> <b_lp_Chiralities_Consistent>
1

> <s_lp_Variant>
AV-unprocessed.smi:2014-2

> <Gold.Version>
5.8.1

> <Gold.Id.Protein>
6NUR|6NUR_protein|mol2

> <Gold.PLP.Fitness>
44.5655

> <Gold.PLP.PLP>
-40.7356

> <Gold.PLP.part.hbond>
-2.1377

> <Gold.PLP.part.metal>
0.0000

> <Gold.PLP.part.buried>
-6.6686

> <Gold.PLP.part.nonpolar>
-31.2290

> <Gold.PLP.part.repulsive>
0.0810

> <Gold.PLP.ligand.clash>
0.0000

> <Gold.PLP.ligand.torsion>
0.3837

> <Gold.PLP.Chemscore.Hbond>
1.4599

> <Gold.PLP.Chemscore.CHOScore>
0.0000

> <Gold.PLP.Chemscore.Metal>
0.0000

> <Gold.Chemscore.Hbonds>
donor molecule, donor type, donor heavy atom, donor atom, acceptor molecule, acceptor atom, score
      L1  H     6    34       P1  8028  0.80
      P1  H  6896  6908       L1    15  0.63

> <Gold.PLP.Chemscore.Internal.Correction>
0.2177

> <Gold.Rescore>
     Score         DG    S(hbond)    S(metal)    S(lipo)     H(rot)  DE(clash)    DE(int)     intcor
      8.50     -15.29       1.64        0.00      74.16       1.70       0.49       6.30       ----

> <Gold.Chemscore.Fitness>
8.4963

> <Gold.Chemscore.DG>
-15.2882

> <Gold.Chemscore.ZeroCoef>
-5.4800

> <Gold.Chemscore.Hbond>
1.6447

> <Gold.Chemscore.Metal>
0.0000

> <Gold.Chemscore.Lipo>
74.1610

> <Gold.Chemscore.Internal_Hbond>
0.0000

> <Gold.Chemscore.DEClash>
0.4946

> <Gold.Chemscore.DEInternal>
6.2973

> <Gold.Chemscore.Rot>
1.7038

> <Gold.Chemscore.Internal.Correction>
   9.000000E+99

> <Gold.Chemscore.Hbonds>
donor molecule, donor type, donor heavy atom, donor atom, acceptor molecule, acceptor atom, score
      L1  H     6    34       P1  8028  0.45
      P1  H  6896  6908       L1    15  0.64

> <Gold.Chemscore.Hbond.Weighted>
-5.4932

> <Gold.Chemscore.Metal.Weighted>
-0.0000

> <Gold.Chemscore.Lipo.Weighted>
-8.6768

> <Gold.Chemscore.Internal_Hbond.Weighted>
0.0000

> <Gold.Chemscore.DEClash.Weighted>
0.4946

> <Gold.Chemscore.DEInternal.Weighted>
6.2973

> <Gold.Chemscore.Rot.Weighted>
4.3618

> <Gold.Chemscore.Internal.Correction.Weighted>
   9.000000E+99

> <Gold.Protein.RotatedTorsions>
[ 6907 6896 6895 6894 ] final -107.67 input  -60.11 | X-H torsion
[ 7974 7965 7964 7962 ] final -143.64 input  175.53 | X-H torsion
[ 8008 7997 7996 7995 ] final  -80.88 input   59.86 | X-H torsion
[ 10167 10162 10161 10158 ] final -170.98 input  -65.29 | X-H torsion
[ 10718 10713 10712 10709 ] final   49.33 input   66.30 | X-H torsion
[ 10763 10752 10751 10750 ] final -137.45 input  -60.55 | X-H torsion
[ 11005 11000 10999 10996 ] final  -76.58 input  -57.11 | X-H torsion

> <Gold.Protein.ActiveResidues>
 VAL166  LYS551  ARG553  GLY616  TRP617  ASP618  TYR619  PRO620  LYS621  CYS622 
 ASP623  PHE694  ASN695  SER759  ASP760  ASP761  ALA762  ILE779  LEU786  VAL792 
 PHE793  MET794  SER795  GLU796  ALA797  LYS798  CYS799  TRP800  GLU811  SER814 

> <Gold.Protein.RotatedAtoms>
  150.7457  133.9791  159.3570 H   0  0  0  0  0  0  0  0  0  0  0  0  # atno 6907 bound_to 6896
  151.7731  135.0779  160.0372 H   0  0  0  0  0  0  0  0  0  0  0  0  # atno 6908 bound_to 6896
  152.3325  133.5938  159.5856 H   0  0  0  0  0  0  0  0  0  0  0  0  # atno 6909 bound_to 6896
  144.8354  140.5809  143.5487 H   0  0  0  0  0  0  0  0  0  0  0  0  # atno 7974 bound_to 7965
  154.5927  140.0656  156.9261 H   0  0  0  0  0  0  0  0  0  0  0  0  # atno 8008 bound_to 7997
  155.2267  140.3334  155.4290 H   0  0  0  0  0  0  0  0  0  0  0  0  # atno 8009 bound_to 7997
  156.2266  140.1822  156.7331 H   0  0  0  0  0  0  0  0  0  0  0  0  # atno 8010 bound_to 7997
  139.5829  144.1382  152.1539 H   0  0  0  0  0  0  0  0  0  0  0  0  # atno 10167 bound_to 10162
  157.4776  130.8295  149.8057 H   0  0  0  0  0  0  0  0  0  0  0  0  # atno 10718 bound_to 10713
  154.8661  135.3642  154.5225 H   0  0  0  0  0  0  0  0  0  0  0  0  # atno 10763 bound_to 10752
  153.5855  135.7017  153.5450 H   0  0  0  0  0  0  0  0  0  0  0  0  # atno 10764 bound_to 10752
  153.3419  135.4095  155.1541 H   0  0  0  0  0  0  0  0  0  0  0  0  # atno 10765 bound_to 10752
  141.1655  133.6989  156.7690 H   0  0  0  0  0  0  0  0  0  0  0  0  # atno 11005 bound_to 11000
  145.4805  139.1496  143.3764 LP  0  0  0  0  0  0  0  0  0  0  0  0  # atno 17320 bound_to 7965
  146.2654  140.4941  142.8836 LP  0  0  0  0  0  0  0  0  0  0  0  0  # atno 17321 bound_to 7965
  140.0940  144.5597  150.7035 LP  0  0  0  0  0  0  0  0  0  0  0  0  # atno 17342 bound_to 10162
  140.7105  143.2501  151.4595 LP  0  0  0  0  0  0  0  0  0  0  0  0  # atno 17343 bound_to 10162
  156.0105  130.3835  150.2282 LP  0  0  0  0  0  0  0  0  0  0  0  0  # atno 17370 bound_to 10713
  157.0467  131.0051  151.3267 LP  0  0  0  0  0  0  0  0  0  0  0  0  # atno 17371 bound_to 10713
  140.2478  134.8564  157.3637 LP  0  0  0  0  0  0  0  0  0  0  0  0  # atno 17394 bound_to 11000
  140.1732  134.4582  155.7818 LP  0  0  0  0  0  0  0  0  0  0  0  0  # atno 17395 bound_to 11000

$$$$
