AV-unprocessed.smi:1604|AV-procd|sdf|6447|dock2
  -GOLD-   22720 7 93D 1   1.00000     0.00000
 Structure written by MMmdl.
 46 48  0  0  0  0  0  0  0  0  1 V2000
  147.4955  132.7120  154.1587 O   0  0  0  0  0  0  0  0  0  0  0  0
  147.7847  133.7531  153.5683 C   0  0  0  0  0  0  0  0  0  0  0  0
  148.8331  134.5413  153.8571 N   0  0  0  0  0  0  0  0  0  0  0  0
  149.8374  134.3325  154.8431 C   0  0  0  0  0  0  0  0  0  0  0  0
  150.0172  133.0682  155.4553 C   0  0  0  0  0  0  0  0  0  0  0  0
  150.9742  132.9253  156.4745 C   0  0  0  0  0  0  0  0  0  0  0  0
  151.7094  134.0587  156.8588 C   0  0  0  0  0  0  0  0  0  0  0  0
  151.5405  135.2717  156.2956 N   0  0  0  0  0  0  0  0  0  0  0  0
  150.6315  135.4229  155.3009 C   0  0  0  0  0  0  0  0  0  0  0  0
  150.5119  136.7137  154.7358 N   0  0  0  0  0  0  0  0  0  0  0  0
  151.6989  137.5643  154.7121 C   0  0  0  0  0  0  0  0  0  0  0  0
  151.2132  138.9955  154.9656 C   0  0  0  0  0  0  0  0  0  0  0  0
  149.7361  138.9474  154.5870 C   0  0  0  0  0  0  0  0  0  0  0  0
  149.3386  137.5365  155.0111 C   0  0  0  0  0  0  0  0  0  0  0  0
  147.0926  134.2348  152.5264 N   0  0  0  0  0  0  0  0  0  0  0  0
  145.8961  133.6307  151.9414 C   0  0  2  0  0  0  0  0  0  0  0  0
  146.2817  132.6516  150.8027 C   0  0  0  0  0  0  0  0  0  0  0  0
  145.2008  132.3972  149.7315 C   0  0  0  0  0  0  0  0  0  0  0  0
  143.8264  131.9498  150.2686 C   0  0  0  0  0  0  0  0  0  0  0  0
  143.1547  132.8701  151.3160 C   0  0  0  0  0  0  0  0  0  0  0  0
  143.6015  134.2622  151.2742 N   0  0  0  0  0  0  0  0  0  0  0  0
  144.8406  134.6904  151.5711 C   0  0  0  0  0  0  0  0  0  0  0  0
  145.1341  135.8844  151.5285 O   0  0  0  0  0  0  0  0  0  0  0  0
  148.9990  135.3120  153.2265 H   0  0  0  0  0  0  0  0  0  0  0  0
  149.4199  132.2136  155.1758 H   0  0  0  0  0  0  0  0  0  0  0  0
  151.1304  131.9728  156.9586 H   0  0  0  0  0  0  0  0  0  0  0  0
  152.4480  133.9925  157.6439 H   0  0  0  0  0  0  0  0  0  0  0  0
  152.4400  137.2586  155.4523 H   0  0  0  0  0  0  0  0  0  0  0  0
  152.1587  137.4984  153.7257 H   0  0  0  0  0  0  0  0  0  0  0  0
  151.3101  139.2340  156.0256 H   0  0  0  0  0  0  0  0  0  0  0  0
  151.7749  139.7400  154.4011 H   0  0  0  0  0  0  0  0  0  0  0  0
  149.1432  139.7212  155.0750 H   0  0  0  0  0  0  0  0  0  0  0  0
  149.6229  139.0605  153.5079 H   0  0  0  0  0  0  0  0  0  0  0  0
  148.4647  137.1792  154.4657 H   0  0  0  0  0  0  0  0  0  0  0  0
  149.1040  137.5329  156.0763 H   0  0  0  0  0  0  0  0  0  0  0  0
  147.4067  135.0979  152.1069 H   0  0  0  0  0  0  0  0  0  0  0  0
  145.4382  133.0418  152.7375 H   0  0  0  0  0  0  0  0  0  0  0  0
  147.1672  133.0273  150.2881 H   0  0  0  0  0  0  0  0  0  0  0  0
  146.5814  131.6998  151.2431 H   0  0  0  0  0  0  0  0  0  0  0  0
  145.0753  133.2943  149.1237 H   0  0  0  0  0  0  0  0  0  0  0  0
  145.5685  131.6389  149.0399 H   0  0  0  0  0  0  0  0  0  0  0  0
  143.1556  131.8576  149.4138 H   0  0  0  0  0  0  0  0  0  0  0  0
  143.9073  130.9443  150.6829 H   0  0  0  0  0  0  0  0  0  0  0  0
  142.0738  132.8526  151.1742 H   0  0  0  0  0  0  0  0  0  0  0  0
  143.3173  132.4745  152.3191 H   0  0  0  0  0  0  0  0  0  0  0  0
  142.9134  134.9549  151.0167 H   0  0  0  0  0  0  0  0  0  0  0  0
  1  2  2  0  0  0  0
  2  3  1  0  0  0  0
  2 15  1  0  0  0  0
  3  4  1  0  0  0  0
  3 24  1  0  0  0  0
  4  9  1  0  0  0  0
  4  5  2  0  0  0  0
  5  6  1  0  0  0  0
  5 25  1  0  0  0  0
  6  7  2  0  0  0  0
  6 26  1  0  0  0  0
  7  8  1  0  0  0  0
  7 27  1  0  0  0  0
  8  9  2  0  0  0  0
  9 10  1  0  0  0  0
 10 14  1  0  0  0  0
 10 11  1  0  0  0  0
 11 12  1  0  0  0  0
 11 28  1  0  0  0  0
 11 29  1  0  0  0  0
 12 13  1  0  0  0  0
 12 30  1  0  0  0  0
 12 31  1  0  0  0  0
 13 14  1  0  0  0  0
 13 32  1  0  0  0  0
 13 33  1  0  0  0  0
 14 34  1  0  0  0  0
 14 35  1  0  0  0  0
 15 16  1  0  0  0  0
 15 36  1  0  0  0  0
 16 22  1  0  0  0  0
 16 17  1  0  0  0  0
 16 37  1  0  0  0  0
 17 18  1  0  0  0  0
 17 38  1  0  0  0  0
 17 39  1  0  0  0  0
 18 19  1  0  0  0  0
 18 40  1  0  0  0  0
 18 41  1  0  0  0  0
 19 20  1  0  0  0  0
 19 42  1  0  0  0  0
 19 43  1  0  0  0  0
 20 21  1  0  0  0  0
 20 44  1  0  0  0  0
 20 45  1  0  0  0  0
 21 22  1  0  0  0  0
 21 46  1  0  0  0  0
 22 23  2  0  0  0  0
M  END
> <s_m_source_file>
AV-unprocessed.smi

> <i_m_source_file_index>
1604

> <i_lp_mmshare_version>
43012

> <i_f3d_flags>
0

> <s_epik_input>
Tz1DMVtOSF1bQ0gyXVtDSDJdW0NIMl1bQ0gyXVtDQEhdMVtOSF1DKD1PKVtOSF1jMltjSF1bY0hdW2NIXW5jMk4zW0NIMl1bQ0gyXVtDSDJdW0NIMl0z

> <s_epik_cmdline>
J2VwaWtfcHl0aG9uJywgJy1waCcsICc3LjAnLCAnLXRuJywgJzgnLCAnLW1hJywgJzIwMCcsICctbWV0YWxfYmluZGluZycsICctaW1hZScsICc8aW5maWxlLm1hZT4nLCAnLW9tYWUnLCAnPG91dGZpbGUubWFlPic=

> <r_lp_tautomer_probability>
1

> <r_epik_Ionization_Penalty>
0.0837267

> <r_epik_Ionization_Penalty_Charging>
0

> <r_epik_Ionization_Penalty_Neutral>
0.0837267

> <r_epik_State_Penalty>
0.0738331

> <r_epik_Charging_Adjusted_Penalty>
0.0738331

> <i_epik_Tot_Q>
0

> <i_epik_Tot_abs_Q>
0

> <r_epik_Metal_State_Penalty>
0.0646802

> <b_epik_Metal_Only>
0

> <s_lp_Force_Field>
OPLS_2005

> <r_lp_Energy>
41.479

> <b_lp_Chiralities_Consistent>
1

> <s_lp_Variant>
AV-unprocessed.smi:1604-1

> <Gold.Version>
5.8.1

> <Gold.Id.Protein>
6NUR|6NUR_protein|mol2

> <Gold.PLP.Fitness>
44.0715

> <Gold.PLP.PLP>
-36.9264

> <Gold.PLP.part.hbond>
-3.6785

> <Gold.PLP.part.metal>
0.0000

> <Gold.PLP.part.buried>
-2.0421

> <Gold.PLP.part.nonpolar>
-32.8468

> <Gold.PLP.part.repulsive>
0.4509

> <Gold.PLP.ligand.clash>
0.0000

> <Gold.PLP.ligand.torsion>
0.8963

> <Gold.PLP.Chemscore.Hbond>
2.8560

> <Gold.PLP.Chemscore.CHOScore>
0.0000

> <Gold.PLP.Chemscore.Metal>
0.0000

> <Gold.Chemscore.Hbonds>
donor molecule, donor type, donor heavy atom, donor atom, acceptor molecule, acceptor atom, score
      L1  H     3    24       P1  7948  1.00
      L1  H    15    36       P1  7948  0.86
      P1  H 10752 10764       L1     8  0.91

> <Gold.PLP.Chemscore.Internal.Correction>
0.3698

> <Gold.Rescore>
     Score         DG    S(hbond)    S(metal)    S(lipo)     H(rot)  DE(clash)    DE(int)     intcor
     14.73     -16.88       1.43        0.00      83.77       1.25       0.14       2.02       ----

> <Gold.Chemscore.Fitness>
14.7292

> <Gold.Chemscore.DG>
-16.8843

> <Gold.Chemscore.ZeroCoef>
-5.4800

> <Gold.Chemscore.Hbond>
1.4350

> <Gold.Chemscore.Metal>
0.0000

> <Gold.Chemscore.Lipo>
83.7721

> <Gold.Chemscore.Internal_Hbond>
0.0000

> <Gold.Chemscore.DEClash>
0.1363

> <Gold.Chemscore.DEInternal>
2.0188

> <Gold.Chemscore.Rot>
1.2461

> <Gold.Chemscore.Internal.Correction>
   9.000000E+99

> <Gold.Chemscore.Hbonds>
donor molecule, donor type, donor heavy atom, donor atom, acceptor molecule, acceptor atom, score
      L1  H     3    24       P1  7948  0.44
      L1  H    15    36       P1  7948  0.83
      P1  H 10752 10764       L1     8  0.05

> <Gold.Chemscore.Hbond.Weighted>
-4.7929

> <Gold.Chemscore.Metal.Weighted>
-0.0000

> <Gold.Chemscore.Lipo.Weighted>
-9.8013

> <Gold.Chemscore.Internal_Hbond.Weighted>
0.0000

> <Gold.Chemscore.DEClash.Weighted>
0.1363

> <Gold.Chemscore.DEInternal.Weighted>
2.0188

> <Gold.Chemscore.Rot.Weighted>
3.1899

> <Gold.Chemscore.Internal.Correction.Weighted>
   9.000000E+99

> <Gold.Protein.RotatedTorsions>
[ 6907 6896 6895 6894 ] final  -40.71 input  -60.11 | X-H torsion
[ 7974 7965 7964 7962 ] final -152.48 input  175.53 | X-H torsion
[ 8008 7997 7996 7995 ] final  110.75 input   59.86 | X-H torsion
[ 10167 10162 10161 10158 ] final  -77.61 input  -65.29 | X-H torsion
[ 10718 10713 10712 10709 ] final   88.79 input   66.30 | X-H torsion
[ 10763 10752 10751 10750 ] final  -15.90 input  -60.55 | X-H torsion
[ 11005 11000 10999 10996 ] final   84.14 input  -57.11 | X-H torsion

> <Gold.Protein.ActiveResidues>
 VAL166  LYS551  ARG553  GLY616  TRP617  ASP618  TYR619  PRO620  LYS621  CYS622 
 ASP623  PHE694  ASN695  SER759  ASP760  ASP761  ALA762  ILE779  LEU786  VAL792 
 PHE793  MET794  SER795  GLU796  ALA797  LYS798  CYS799  TRP800  GLU811  SER814 

> <Gold.Protein.RotatedAtoms>
  150.9752  134.9118  159.7811 H   0  0  0  0  0  0  0  0  0  0  0  0  # atno 6907 bound_to 6896
  152.5204  134.3486  159.9253 H   0  0  0  0  0  0  0  0  0  0  0  0  # atno 6908 bound_to 6896
  151.3494  133.3890  159.2713 H   0  0  0  0  0  0  0  0  0  0  0  0  # atno 6909 bound_to 6896
  144.7792  140.4656  143.5851 H   0  0  0  0  0  0  0  0  0  0  0  0  # atno 7974 bound_to 7965
  156.2075  140.3032  155.9659 H   0  0  0  0  0  0  0  0  0  0  0  0  # atno 8008 bound_to 7997
  155.2805  140.0437  157.3032 H   0  0  0  0  0  0  0  0  0  0  0  0  # atno 8009 bound_to 7997
  154.5653  140.2332  155.8281 H   0  0  0  0  0  0  0  0  0  0  0  0  # atno 8010 bound_to 7997
  140.4755  143.2415  151.8139 H   0  0  0  0  0  0  0  0  0  0  0  0  # atno 10167 bound_to 10162
  157.6951  131.0308  150.3327 H   0  0  0  0  0  0  0  0  0  0  0  0  # atno 10718 bound_to 10713
  153.5503  135.7011  153.5594 H   0  0  0  0  0  0  0  0  0  0  0  0  # atno 10763 bound_to 10752
  153.3521  135.3992  155.1654 H   0  0  0  0  0  0  0  0  0  0  0  0  # atno 10764 bound_to 10752
  154.8662  135.3768  154.5014 H   0  0  0  0  0  0  0  0  0  0  0  0  # atno 10765 bound_to 10752
  139.9009  134.8195  156.2405 H   0  0  0  0  0  0  0  0  0  0  0  0  # atno 11005 bound_to 11000
  145.6099  139.1512  143.3082 LP  0  0  0  0  0  0  0  0  0  0  0  0  # atno 17320 bound_to 7965
  146.1990  140.6215  142.9111 LP  0  0  0  0  0  0  0  0  0  0  0  0  # atno 17321 bound_to 7965
  139.4825  144.4838  151.9273 LP  0  0  0  0  0  0  0  0  0  0  0  0  # atno 17342 bound_to 10162
  140.3923  144.2599  150.5899 LP  0  0  0  0  0  0  0  0  0  0  0  0  # atno 17343 bound_to 10162
  156.3799  130.3878  149.7110 LP  0  0  0  0  0  0  0  0  0  0  0  0  # atno 17370 bound_to 10713
  156.4496  130.7900  151.2921 LP  0  0  0  0  0  0  0  0  0  0  0  0  # atno 17371 bound_to 10713
  141.0288  133.7000  156.1394 LP  0  0  0  0  0  0  0  0  0  0  0  0  # atno 17394 bound_to 11000
  140.7127  134.4444  157.5580 LP  0  0  0  0  0  0  0  0  0  0  0  0  # atno 17395 bound_to 11000

$$$$
