AV-unprocessed.smi:1022|AV-procd|sdf|4459|dock8
  -GOLD-   22720 2433D 1   1.00000     0.00000
 Structure written by MMmdl.
 33 34  0  0  0  0  0  0  0  0  1 V2000
  145.7846  133.6659  151.0949 C   0  0  0  0  0  0  0  0  0  0  0  0
  145.8369  134.8554  151.8629 O   0  0  0  0  0  0  0  0  0  0  0  0
  145.2679  135.9651  151.1867 C   0  0  0  0  0  0  0  0  0  0  0  0
  145.3683  137.2133  152.0768 C   0  0  1  0  0  0  0  0  0  0  0  0
  144.5179  137.0659  153.3491 C   0  0  0  0  0  0  0  0  0  0  0  0
  146.7664  137.4512  152.4279 N   0  0  0  0  0  0  0  0  0  0  0  0
  147.2073  138.4230  153.2399 C   0  0  0  0  0  0  0  0  0  0  0  0
  146.4639  139.2281  153.8014 O   0  0  0  0  0  0  0  0  0  0  0  0
  148.5471  138.3932  153.3502 N   0  0  0  0  0  0  0  0  0  0  0  0
  149.3853  139.2388  154.1243 C   0  0  0  0  0  0  0  0  0  0  0  0
  150.7155  139.0980  154.2041 N   0  0  0  0  0  0  0  0  0  0  0  0
  151.2903  140.0604  155.0224 N   0  0  0  0  0  0  0  0  0  0  0  0
  150.3816  140.8968  155.5387 C   0  0  0  0  0  0  0  0  0  0  0  0
  150.7577  142.0173  156.4499 C   0  0  0  0  0  0  0  0  0  0  0  0
  151.5573  141.7583  157.7065 C   0  0  0  0  0  0  0  0  0  0  0  0
  150.1141  142.1814  157.8096 C   0  0  0  0  0  0  0  0  0  0  0  0
  148.7205  140.5714  155.0532 S   0  0  0  0  0  0  0  0  0  0  0  0
  146.2317  132.8466  151.6579 H   0  0  0  0  0  0  0  0  0  0  0  0
  146.3376  133.7735  150.1608 H   0  0  0  0  0  0  0  0  0  0  0  0
  144.7546  133.3913  150.8630 H   0  0  0  0  0  0  0  0  0  0  0  0
  145.8050  136.1321  150.2514 H   0  0  0  0  0  0  0  0  0  0  0  0
  144.2262  135.7617  150.9320 H   0  0  0  0  0  0  0  0  0  0  0  0
  144.9906  138.0644  151.5068 H   0  0  0  0  0  0  0  0  0  0  0  0
  143.4699  136.8960  153.1014 H   0  0  0  0  0  0  0  0  0  0  0  0
  144.5655  137.9643  153.9652 H   0  0  0  0  0  0  0  0  0  0  0  0
  144.8562  136.2266  153.9575 H   0  0  0  0  0  0  0  0  0  0  0  0
  147.4482  136.8381  152.0053 H   0  0  0  0  0  0  0  0  0  0  0  0
  149.0239  137.6790  152.8200 H   0  0  0  0  0  0  0  0  0  0  0  0
  150.9793  142.9179  155.8804 H   0  0  0  0  0  0  0  0  0  0  0  0
  151.7962  140.7246  157.9500 H   0  0  0  0  0  0  0  0  0  0  0  0
  152.3166  142.4892  157.9772 H   0  0  0  0  0  0  0  0  0  0  0  0
  149.9105  143.1954  158.1477 H   0  0  0  0  0  0  0  0  0  0  0  0
  149.3991  141.4290  158.1365 H   0  0  0  0  0  0  0  0  0  0  0  0
  1  2  1  0  0  0  0
  1 18  1  0  0  0  0
  1 19  1  0  0  0  0
  1 20  1  0  0  0  0
  2  3  1  0  0  0  0
  3  4  1  0  0  0  0
  3 21  1  0  0  0  0
  3 22  1  0  0  0  0
  4  5  1  0  0  0  0
  4  6  1  0  0  0  0
  4 23  1  0  0  0  0
  5 24  1  0  0  0  0
  5 25  1  0  0  0  0
  5 26  1  0  0  0  0
  6  7  1  0  0  0  0
  6 27  1  0  0  0  0
  7  8  2  0  0  0  0
  7  9  1  0  0  0  0
  9 10  1  0  0  0  0
  9 28  1  0  0  0  0
 10 17  1  0  0  0  0
 10 11  2  0  0  0  0
 11 12  1  0  0  0  0
 12 13  2  0  0  0  0
 13 14  1  0  0  0  0
 13 17  1  0  0  0  0
 14 16  1  0  0  0  0
 14 15  1  0  0  0  0
 14 29  1  0  0  0  0
 15 16  1  0  0  0  0
 15 30  1  0  0  0  0
 15 31  1  0  0  0  0
 16 32  1  0  0  0  0
 16 33  1  0  0  0  0
M  END
> <s_m_source_file>
AV-unprocessed.smi

> <i_m_source_file_index>
1022

> <i_lp_mmshare_version>
43012

> <i_f3d_flags>
0

> <s_epik_input>
W0NIM11PW0NIMl1bQ0BIXShbQ0gzXSlbTkhdQyg9TylbTkhdYzFubmMoczEpW0NIXTJbQ0gyXVtDSDJdMg==

> <s_epik_cmdline>
J2VwaWtfcHl0aG9uJywgJy1waCcsICc3LjAnLCAnLXRuJywgJzgnLCAnLW1hJywgJzIwMCcsICctbWV0YWxfYmluZGluZycsICctaW1hZScsICc8aW5maWxlLm1hZT4nLCAnLW9tYWUnLCAnPG91dGZpbGUubWFlPic=

> <r_lp_tautomer_probability>
1

> <r_epik_Ionization_Penalty>
0.00129266

> <r_epik_Ionization_Penalty_Charging>
0

> <r_epik_Ionization_Penalty_Neutral>
0.00129266

> <r_epik_State_Penalty>
-0

> <r_epik_Charging_Adjusted_Penalty>
0

> <i_epik_Tot_Q>
0

> <i_epik_Tot_abs_Q>
0

> <r_epik_Metal_State_Penalty>
0.30857

> <b_epik_Metal_Only>
0

> <s_lp_Force_Field>
OPLS_2005

> <r_lp_Energy>
1.4297

> <b_lp_Chiralities_Consistent>
1

> <s_lp_Variant>
AV-unprocessed.smi:1022-2

> <Gold.Version>
5.8.1

> <Gold.Id.Protein>
6NUR|6NUR_protein|mol2

> <Gold.PLP.Fitness>
33.1390

> <Gold.PLP.PLP>
-26.6198

> <Gold.PLP.part.hbond>
-4.8191

> <Gold.PLP.part.metal>
0.0000

> <Gold.PLP.part.buried>
-0.6417

> <Gold.PLP.part.nonpolar>
-22.1881

> <Gold.PLP.part.repulsive>
0.6696

> <Gold.PLP.ligand.clash>
0.0000

> <Gold.PLP.ligand.torsion>
0.0965

> <Gold.PLP.Chemscore.Hbond>
2.1920

> <Gold.PLP.Chemscore.CHOScore>
0.0000

> <Gold.PLP.Chemscore.Metal>
0.0000

> <Gold.Chemscore.Hbonds>
donor molecule, donor type, donor heavy atom, donor atom, acceptor molecule, acceptor atom, score
      L1  H     6    27       P1  7948  1.00
      L1  H     9    28       P1  7948  1.00
      P1  H  7989  7998       L1    12  0.20

> <Gold.PLP.Chemscore.Internal.Correction>
0.1362

> <Gold.Rescore>
     Score         DG    S(hbond)    S(metal)    S(lipo)     H(rot)  DE(clash)    DE(int)     intcor
     12.64     -14.06       1.94        0.00      55.82       1.73       0.06       1.36       ----

> <Gold.Chemscore.Fitness>
12.6415

> <Gold.Chemscore.DG>
-14.0612

> <Gold.Chemscore.ZeroCoef>
-5.4800

> <Gold.Chemscore.Hbond>
1.9412

> <Gold.Chemscore.Metal>
0.0000

> <Gold.Chemscore.Lipo>
55.8204

> <Gold.Chemscore.Internal_Hbond>
0.0000

> <Gold.Chemscore.DEClash>
0.0634

> <Gold.Chemscore.DEInternal>
1.3562

> <Gold.Chemscore.Rot>
1.7318

> <Gold.Chemscore.Internal.Correction>
   9.000000E+99

> <Gold.Chemscore.Hbonds>
donor molecule, donor type, donor heavy atom, donor atom, acceptor molecule, acceptor atom, score
      L1  H     6    27       P1  7948  0.97
      L1  H     9    28       P1  7948  0.95

> <Gold.Chemscore.Hbond.Weighted>
-6.4836

> <Gold.Chemscore.Metal.Weighted>
-0.0000

> <Gold.Chemscore.Lipo.Weighted>
-6.5310

> <Gold.Chemscore.Internal_Hbond.Weighted>
0.0000

> <Gold.Chemscore.DEClash.Weighted>
0.0634

> <Gold.Chemscore.DEInternal.Weighted>
1.3562

> <Gold.Chemscore.Rot.Weighted>
4.4335

> <Gold.Chemscore.Internal.Correction.Weighted>
   9.000000E+99

> <Gold.Protein.RotatedTorsions>
[ 6907 6896 6895 6894 ] final  -73.74 input  -60.11 | X-H torsion
[ 7974 7965 7964 7962 ] final   29.22 input  175.53 | X-H torsion
[ 8008 7997 7996 7995 ] final  107.10 input   59.86 | X-H torsion
[ 10167 10162 10161 10158 ] final  164.21 input  -65.29 | X-H torsion
[ 10718 10713 10712 10709 ] final  -96.79 input   66.30 | X-H torsion
[ 10763 10752 10751 10750 ] final -155.89 input  -60.55 | X-H torsion
[ 11005 11000 10999 10996 ] final   94.09 input  -57.11 | X-H torsion

> <Gold.Protein.ActiveResidues>
 VAL166  LYS551  ARG553  GLY616  TRP617  ASP618  TYR619  PRO620  LYS621  CYS622 
 ASP623  PHE694  ASN695  SER759  ASP760  ASP761  ALA762  ILE779  LEU786  VAL792 
 PHE793  MET794  SER795  GLU796  ALA797  LYS798  CYS799  TRP800  GLU811  SER814 

> <Gold.Protein.RotatedAtoms>
  150.7119  134.4972  159.5543 H   0  0  0  0  0  0  0  0  0  0  0  0  # atno 6907 bound_to 6896
  152.2577  134.8064  160.0445 H   0  0  0  0  0  0  0  0  0  0  0  0  # atno 6908 bound_to 6896
  151.8789  133.3456  159.3796 H   0  0  0  0  0  0  0  0  0  0  0  0  # atno 6909 bound_to 6896
  146.1684  139.6951  142.8985 H   0  0  0  0  0  0  0  0  0  0  0  0  # atno 7974 bound_to 7965
  156.1797  140.3101  155.9126 H   0  0  0  0  0  0  0  0  0  0  0  0  # atno 8008 bound_to 7997
  155.3410  140.0466  157.3062 H   0  0  0  0  0  0  0  0  0  0  0  0  # atno 8009 bound_to 7997
  154.5329  140.2236  155.8783 H   0  0  0  0  0  0  0  0  0  0  0  0  # atno 8010 bound_to 7997
  139.4885  144.4258  151.9131 H   0  0  0  0  0  0  0  0  0  0  0  0  # atno 10167 bound_to 10162
  156.0069  130.5166  150.6278 H   0  0  0  0  0  0  0  0  0  0  0  0  # atno 10718 bound_to 10713
  154.7753  135.3158  154.8104 H   0  0  0  0  0  0  0  0  0  0  0  0  # atno 10763 bound_to 10752
  153.8829  135.6833  153.4770 H   0  0  0  0  0  0  0  0  0  0  0  0  # atno 10764 bound_to 10752
  153.1376  135.4753  154.9382 H   0  0  0  0  0  0  0  0  0  0  0  0  # atno 10765 bound_to 10752
  139.8802  134.8826  156.3813 H   0  0  0  0  0  0  0  0  0  0  0  0  # atno 11005 bound_to 11000
  145.4406  141.0422  143.2859 LP  0  0  0  0  0  0  0  0  0  0  0  0  # atno 17320 bound_to 7965
  144.8126  139.5934  143.7022 LP  0  0  0  0  0  0  0  0  0  0  0  0  # atno 17321 bound_to 7965
  140.3704  144.2863  150.5921 LP  0  0  0  0  0  0  0  0  0  0  0  0  # atno 17342 bound_to 10162
  140.5324  143.2240  151.8217 LP  0  0  0  0  0  0  0  0  0  0  0  0  # atno 17343 bound_to 10162
  157.4081  131.0820  151.1246 LP  0  0  0  0  0  0  0  0  0  0  0  0  # atno 17370 bound_to 10713
  157.1886  130.6342  149.5696 LP  0  0  0  0  0  0  0  0  0  0  0  0  # atno 17371 bound_to 10713
  140.9397  133.7523  156.0130 LP  0  0  0  0  0  0  0  0  0  0  0  0  # atno 17394 bound_to 11000
  140.8234  134.3263  157.5374 LP  0  0  0  0  0  0  0  0  0  0  0  0  # atno 17395 bound_to 11000

$$$$
