AV-unprocessed.smi:1683|AV-procd|sdf|6750|dock7
  -GOLD-   22720 7503D 1   1.00000     0.00000
 Structure written by MMmdl.
 37 38  0  0  0  0  0  0  0  0  2 V2000
  144.3593  136.4621  152.1241 O   0  0  0  0  0  0  0  0  0  0  0  0
  145.5704  136.3996  151.9110 C   0  0  0  0  0  0  0  0  0  0  0  0
  146.4334  137.3620  152.2667 N   0  0  0  0  0  0  0  0  0  0  0  0
  146.0647  138.6066  152.9333 C   0  0  0  0  0  0  0  0  0  0  0  0
  147.2915  139.4900  153.2302 C   0  0  1  0  0  0  0  0  0  0  0  0
  147.0530  140.5961  154.2546 C   0  0  0  0  0  0  0  0  0  0  0  0
  148.4704  140.9439  154.7009 C   0  0  0  0  0  0  0  0  0  0  0  0
  149.2157  139.6644  154.6959 N   0  3  2  0  0  0  0  0  0  0  0  0
  150.6642  139.7790  154.3931 C   0  0  0  0  0  0  0  0  0  0  0  0
  151.4959  138.6338  154.9985 C   0  0  0  0  0  0  0  0  0  0  0  0
  151.1550  137.4904  154.4060 F   0  0  0  0  0  0  0  0  0  0  0  0
  152.8006  138.8312  154.8125 F   0  0  0  0  0  0  0  0  0  0  0  0
  151.2480  138.5289  156.3040 F   0  0  0  0  0  0  0  0  0  0  0  0
  148.4834  138.7213  153.8156 C   0  0  0  0  0  0  0  0  0  0  0  0
  146.1976  135.3761  151.3083 N   0  0  0  0  0  0  0  0  0  0  0  0
  145.6090  134.2011  150.7756 C   0  0  0  0  0  0  0  0  0  0  0  0
  146.2992  132.9781  150.5553 C   0  0  0  0  0  0  0  0  0  0  0  0
  145.4971  132.0552  150.0440 N   0  0  0  0  0  0  0  0  0  0  0  0
  144.3019  132.6779  149.9340 N   0  0  0  0  0  0  0  0  0  0  0  0
  144.3230  133.9855  150.3664 C   0  0  0  0  0  0  0  0  0  0  0  0
  143.4903  132.2032  149.5645 H   0  0  0  0  0  0  0  0  0  0  0  0
  147.4112  137.2295  152.0524 H   0  0  0  0  0  0  0  0  0  0  0  0
  145.3644  139.1403  152.2903 H   0  0  0  0  0  0  0  0  0  0  0  0
  145.5260  138.3859  153.8565 H   0  0  0  0  0  0  0  0  0  0  0  0
  147.6263  139.9596  152.3033 H   0  0  0  0  0  0  0  0  0  0  0  0
  146.5199  141.4523  153.8400 H   0  0  0  0  0  0  0  0  0  0  0  0
  146.4777  140.2150  155.0998 H   0  0  0  0  0  0  0  0  0  0  0  0
  148.9130  141.6374  153.9839 H   0  0  0  0  0  0  0  0  0  0  0  0
  148.4903  141.4169  155.6831 H   0  0  0  0  0  0  0  0  0  0  0  0
  150.7877  139.7489  153.3095 H   0  0  0  0  0  0  0  0  0  0  0  0
  151.0424  140.7487  154.7210 H   0  0  0  0  0  0  0  0  0  0  0  0
  148.1441  137.8873  154.4311 H   0  0  0  0  0  0  0  0  0  0  0  0
  149.1083  138.3079  153.0221 H   0  0  0  0  0  0  0  0  0  0  0  0
  147.2002  135.4462  151.2135 H   0  0  0  0  0  0  0  0  0  0  0  0
  147.3341  132.7341  150.7456 H   0  0  0  0  0  0  0  0  0  0  0  0
  143.4474  134.6171  150.3401 H   0  0  0  0  0  0  0  0  0  0  0  0
  149.1419  139.2809  155.6275 H   0  0  0  0  0  0  0  0  0  0  0  0
  1  2  2  0  0  0  0
  2  3  1  0  0  0  0
  2 15  1  0  0  0  0
  3  4  1  0  0  0  0
  3 22  1  0  0  0  0
  4  5  1  0  0  0  0
  4 23  1  0  0  0  0
  4 24  1  0  0  0  0
  5 14  1  0  0  0  0
  5  6  1  0  0  0  0
  5 25  1  0  0  0  0
  6  7  1  0  0  0  0
  6 26  1  0  0  0  0
  6 27  1  0  0  0  0
  7  8  1  0  0  0  0
  7 28  1  0  0  0  0
  7 29  1  0  0  0  0
  8  9  1  0  0  0  0
  8 14  1  0  0  0  0
  8 37  1  0  0  0  0
  9 10  1  0  0  0  0
  9 30  1  0  0  0  0
  9 31  1  0  0  0  0
 10 11  1  0  0  0  0
 10 12  1  0  0  0  0
 10 13  1  0  0  0  0
 14 32  1  0  0  0  0
 14 33  1  0  0  0  0
 15 16  1  0  0  0  0
 15 34  1  0  0  0  0
 16 20  2  0  0  0  0
 16 17  1  0  0  0  0
 17 18  2  0  0  0  0
 17 35  1  0  0  0  0
 18 19  1  0  0  0  0
 19 21  1  0  0  0  0
 19 20  1  0  0  0  0
 20 36  1  0  0  0  0
M  CHG  1   8   1
M  END
> <s_m_source_file>
AV-unprocessed.smi

> <i_m_source_file_index>
1683

> <i_lp_mmshare_version>
43012

> <i_f3d_flags>
0

> <s_epik_input>
W2NIXTFbbkhdbltjSF1jMVtOSF1DKD1PKVtOSF1bQ0gyXVtDQEBIXTJbQ0gyXVtDSDJdTihbQ0gyXTIpW0NIMl1DKEYpKEYpRg==

> <s_epik_cmdline>
J2VwaWtfcHl0aG9uJywgJy1waCcsICc3LjAnLCAnLXRuJywgJzgnLCAnLW1hJywgJzIwMCcsICctbWV0YWxfYmluZGluZycsICctaW1hZScsICc8aW5maWxlLm1hZT4nLCAnLW9tYWUnLCAnPG91dGZpbGUubWFlPic=

> <r_lp_tautomer_probability>
0.5

> <r_epik_Ionization_Penalty>
0.641865

> <r_epik_Ionization_Penalty_Charging>
0.64182

> <r_epik_Ionization_Penalty_Neutral>
4.50685e-05

> <r_epik_State_Penalty>
0.65957

> <r_epik_Charging_Adjusted_Penalty>
1.30139

> <i_epik_Tot_Q>
1

> <i_epik_Tot_abs_Q>
1

> <r_epik_Metal_State_Penalty>
0.659571

> <b_epik_Metal_Only>
0

> <s_lp_Force_Field>
OPLS_2005

> <r_lp_Energy>
31.4735

> <b_lp_Chiralities_Consistent>
1

> <s_lp_Variant>
AV-unprocessed.smi:1683-4

> <Gold.Version>
5.8.1

> <Gold.Id.Protein>
6NUR|6NUR_protein|mol2

> <Gold.PLP.Fitness>
42.3722

> <Gold.PLP.PLP>
-31.2273

> <Gold.PLP.part.hbond>
-2.0000

> <Gold.PLP.part.metal>
0.0000

> <Gold.PLP.part.buried>
0.1552

> <Gold.PLP.part.nonpolar>
-30.1158

> <Gold.PLP.part.repulsive>
0.6229

> <Gold.PLP.ligand.clash>
0.0000

> <Gold.PLP.ligand.torsion>
0.5122

> <Gold.PLP.Chemscore.Hbond>
2.0000

> <Gold.PLP.Chemscore.CHOScore>
1.9058

> <Gold.PLP.Chemscore.Metal>
0.0000

> <Gold.Chemscore.Hbonds>
donor molecule, donor type, donor heavy atom, donor atom, acceptor molecule, acceptor atom, score
      L1  H     3    22       P1  7948  1.00
      L1  H    15    34       P1  7948  1.00
      L1  C    17    35       P1 10747  1.00
      L1  C    20    36       P1 10186  0.92

> <Gold.PLP.Chemscore.Internal.Correction>
0.4517

> <Gold.Rescore>
     Score         DG    S(hbond)    S(metal)    S(lipo)     H(rot)  DE(clash)    DE(int)     intcor
     12.80     -14.68       1.95        0.00      62.69       1.81       0.33       1.55       ----

> <Gold.Chemscore.Fitness>
12.7998

> <Gold.Chemscore.DG>
-14.6832

> <Gold.Chemscore.ZeroCoef>
-5.4800

> <Gold.Chemscore.Hbond>
1.9478

> <Gold.Chemscore.Metal>
0.0000

> <Gold.Chemscore.Lipo>
62.6945

> <Gold.Chemscore.Internal_Hbond>
0.0000

> <Gold.Chemscore.DEClash>
0.3286

> <Gold.Chemscore.DEInternal>
1.5548

> <Gold.Chemscore.Rot>
1.8116

> <Gold.Chemscore.Internal.Correction>
   9.000000E+99

> <Gold.Chemscore.Hbonds>
donor molecule, donor type, donor heavy atom, donor atom, acceptor molecule, acceptor atom, score
      L1  H     3    22       P1  7948  0.98
      L1  H    15    34       P1  7948  0.80

> <Gold.Chemscore.Hbond.Weighted>
-6.5057

> <Gold.Chemscore.Metal.Weighted>
-0.0000

> <Gold.Chemscore.Lipo.Weighted>
-7.3353

> <Gold.Chemscore.Internal_Hbond.Weighted>
0.0000

> <Gold.Chemscore.DEClash.Weighted>
0.3286

> <Gold.Chemscore.DEInternal.Weighted>
1.5548

> <Gold.Chemscore.Rot.Weighted>
4.6378

> <Gold.Chemscore.Internal.Correction.Weighted>
   9.000000E+99

> <Gold.Protein.RotatedTorsions>
[ 6907 6896 6895 6894 ] final  168.85 input  -60.11 | X-H torsion
[ 7974 7965 7964 7962 ] final  163.72 input  175.53 | X-H torsion
[ 8008 7997 7996 7995 ] final -122.32 input   59.86 | X-H torsion
[ 10167 10162 10161 10158 ] final   83.74 input  -65.29 | X-H torsion
[ 10718 10713 10712 10709 ] final  -23.95 input   66.30 | X-H torsion
[ 10763 10752 10751 10750 ] final    2.53 input  -60.55 | X-H torsion
[ 11005 11000 10999 10996 ] final   88.41 input  -57.11 | X-H torsion

> <Gold.Protein.ActiveResidues>
 VAL166  LYS551  ARG553  GLY616  TRP617  ASP618  TYR619  PRO620  LYS621  CYS622 
 ASP623  PHE694  ASN695  SER759  ASP760  ASP761  ALA762  ILE779  LEU786  VAL792 
 PHE793  MET794  SER795  GLU796  ALA797  LYS798  CYS799  TRP800  GLU811  SER814 

> <Gold.Protein.RotatedAtoms>
  151.8411  133.3424  159.3643 H   0  0  0  0  0  0  0  0  0  0  0  0  # atno 6907 bound_to 6896
  150.7234  134.5390  159.5747 H   0  0  0  0  0  0  0  0  0  0  0  0  # atno 6908 bound_to 6896
  152.2864  134.7772  160.0437 H   0  0  0  0  0  0  0  0  0  0  0  0  # atno 6909 bound_to 6896
  144.7577  139.8224  143.6344 H   0  0  0  0  0  0  0  0  0  0  0  0  # atno 7974 bound_to 7965
  155.1623  140.0406  157.2845 H   0  0  0  0  0  0  0  0  0  0  0  0  # atno 8008 bound_to 7997
  154.6327  140.2528  155.7387 H   0  0  0  0  0  0  0  0  0  0  0  0  # atno 8009 bound_to 7997
  156.2493  140.2872  156.0686 H   0  0  0  0  0  0  0  0  0  0  0  0  # atno 8010 bound_to 7997
  139.9153  144.6247  150.8496 H   0  0  0  0  0  0  0  0  0  0  0  0  # atno 10167 bound_to 10162
  156.4842  130.4552  149.6793 H   0  0  0  0  0  0  0  0  0  0  0  0  # atno 10718 bound_to 10713
  153.2945  135.6951  153.7261 H   0  0  0  0  0  0  0  0  0  0  0  0  # atno 10763 bound_to 10752
  153.6199  135.3429  155.3008 H   0  0  0  0  0  0  0  0  0  0  0  0  # atno 10764 bound_to 10752
  154.8533  135.4384  154.2038 H   0  0  0  0  0  0  0  0  0  0  0  0  # atno 10765 bound_to 10752
  139.8897  134.8486  156.2997 H   0  0  0  0  0  0  0  0  0  0  0  0  # atno 11005 bound_to 11000
  146.1605  139.4718  142.9991 LP  0  0  0  0  0  0  0  0  0  0  0  0  # atno 17320 bound_to 7965
  145.6724  141.0213  143.1650 LP  0  0  0  0  0  0  0  0  0  0  0  0  # atno 17321 bound_to 7965
  140.7675  143.3336  151.2357 LP  0  0  0  0  0  0  0  0  0  0  0  0  # atno 17342 bound_to 10162
  139.6908  143.9696  152.2858 LP  0  0  0  0  0  0  0  0  0  0  0  0  # atno 17343 bound_to 10162
  156.3491  130.7422  151.2379 LP  0  0  0  0  0  0  0  0  0  0  0  0  # atno 17370 bound_to 10713
  157.7480  131.0382  150.4492 LP  0  0  0  0  0  0  0  0  0  0  0  0  # atno 17371 bound_to 10713
  140.9922  133.7202  156.0831 LP  0  0  0  0  0  0  0  0  0  0  0  0  # atno 17394 bound_to 11000
  140.7610  134.3939  157.5525 LP  0  0  0  0  0  0  0  0  0  0  0  0  # atno 17395 bound_to 11000

$$$$
