AV-unprocessed.smi:2309|AV-procd|sdf|9254|dock6
  -GOLD-   2272012473D 1   1.00000     0.00000
 Structure written by MMmdl.
 34 35  0  0  0  0  0  0  0  0  1 V2000
  145.7304  142.4327  156.5097 C   0  0  0  0  0  0  0  0  0  0  0  0
  147.1882  142.0804  156.2722 C   0  0  0  0  0  0  0  0  0  0  0  0
  148.0116  142.1213  157.4011 N   0  0  0  0  0  0  0  0  0  0  0  0
  149.2688  141.8395  157.2929 C   0  0  0  0  0  0  0  0  0  0  0  0
  149.8427  141.4860  156.0605 N   0  0  0  0  0  0  0  0  0  0  0  0
  151.2869  141.1957  156.0729 C   0  0  0  0  0  0  0  0  0  0  0  0
  151.7151  140.3947  157.3231 C   0  0  1  0  0  0  0  0  0  0  0  0
  152.7356  139.4890  156.9470 O   0  0  0  0  0  0  0  0  0  0  0  0
  152.1775  141.3344  158.4354 C   0  0  0  0  0  0  0  0  0  0  0  0
  151.9498  142.7252  158.3139 C   0  0  0  0  0  0  0  0  0  0  0  0
  152.3582  143.6121  159.3279 C   0  0  0  0  0  0  0  0  0  0  0  0
  152.0743  145.3051  159.1585 Cl  0  0  0  0  0  0  0  0  0  0  0  0
  152.9955  143.1166  160.4796 C   0  0  0  0  0  0  0  0  0  0  0  0
  153.2174  141.7345  160.6169 C   0  0  0  0  0  0  0  0  0  0  0  0
  152.8097  140.8412  159.6058 C   0  0  0  0  0  0  0  0  0  0  0  0
  153.0929  139.1524  159.8453 Cl  0  0  0  0  0  0  0  0  0  0  0  0
  149.1113  141.4229  154.9103 C   0  0  0  0  0  0  0  0  0  0  0  0
  149.6247  141.1166  153.8328 O   0  0  0  0  0  0  0  0  0  0  0  0
  147.6821  141.7466  155.0488 C   0  0  0  0  0  0  0  0  0  0  0  0
  146.8348  141.6883  153.7839 C   0  0  0  0  0  0  0  0  0  0  0  0
  145.0860  141.5965  156.2373 H   0  0  0  0  0  0  0  0  0  0  0  0
  145.4457  143.3014  155.9154 H   0  0  0  0  0  0  0  0  0  0  0  0
  145.5443  142.6694  157.5581 H   0  0  0  0  0  0  0  0  0  0  0  0
  149.9548  141.8628  158.1413 H   0  0  0  0  0  0  0  0  0  0  0  0
  151.6164  140.6892  155.1632 H   0  0  0  0  0  0  0  0  0  0  0  0
  151.8222  142.1472  156.0573 H   0  0  0  0  0  0  0  0  0  0  0  0
  150.8880  139.7852  157.6841 H   0  0  0  0  0  0  0  0  0  0  0  0
  152.3888  138.6110  156.9933 H   0  0  0  0  0  0  0  0  0  0  0  0
  151.4545  143.1209  157.4393 H   0  0  0  0  0  0  0  0  0  0  0  0
  153.3099  143.7937  161.2603 H   0  0  0  0  0  0  0  0  0  0  0  0
  153.7003  141.3573  161.5064 H   0  0  0  0  0  0  0  0  0  0  0  0
  147.2143  142.3952  153.0453 H   0  0  0  0  0  0  0  0  0  0  0  0
  145.7867  141.9265  153.9571 H   0  0  0  0  0  0  0  0  0  0  0  0
  146.8757  140.6892  153.3491 H   0  0  0  0  0  0  0  0  0  0  0  0
  1  2  1  0  0  0  0
  1 21  1  0  0  0  0
  1 22  1  0  0  0  0
  1 23  1  0  0  0  0
  2 19  2  0  0  0  0
  2  3  1  0  0  0  0
  3  4  2  0  0  0  0
  4  5  1  0  0  0  0
  4 24  1  0  0  0  0
  5  6  1  0  0  0  0
  5 17  1  0  0  0  0
  6  7  1  0  0  0  0
  6 25  1  0  0  0  0
  6 26  1  0  0  0  0
  7  8  1  0  0  0  0
  7  9  1  0  0  0  0
  7 27  1  0  0  0  0
  8 28  1  0  0  0  0
  9 15  1  0  0  0  0
  9 10  2  0  0  0  0
 10 11  1  0  0  0  0
 10 29  1  0  0  0  0
 11 12  1  0  0  0  0
 11 13  2  0  0  0  0
 13 14  1  0  0  0  0
 13 30  1  0  0  0  0
 14 15  2  0  0  0  0
 14 31  1  0  0  0  0
 15 16  1  0  0  0  0
 17 18  2  0  0  0  0
 17 19  1  0  0  0  0
 19 20  1  0  0  0  0
 20 32  1  0  0  0  0
 20 33  1  0  0  0  0
 20 34  1  0  0  0  0
M  END
> <s_m_source_file>
AV-unprocessed.smi

> <i_m_source_file_index>
2309

> <i_lp_mmshare_version>
43012

> <i_f3d_flags>
0

> <s_epik_input>
W0NIM11jMW5bY0hdbihjKD1PKWMxW0NIM10pW0NIMl1bQ0BIXShbT0hdKWMyW2NIXWMoQ2wpW2NIXVtjSF1jMkNs

> <s_epik_cmdline>
J2VwaWtfcHl0aG9uJywgJy1waCcsICc3LjAnLCAnLXRuJywgJzgnLCAnLW1hJywgJzIwMCcsICctbWV0YWxfYmluZGluZycsICctaW1hZScsICc8aW5maWxlLm1hZT4nLCAnLW9tYWUnLCAnPG91dGZpbGUubWFlPic=

> <r_lp_tautomer_probability>
1

> <r_epik_Ionization_Penalty>
5.09224e-05

> <r_epik_Ionization_Penalty_Charging>
7.56727e-08

> <r_epik_Ionization_Penalty_Neutral>
5.08468e-05

> <r_epik_State_Penalty>
-0

> <r_epik_Charging_Adjusted_Penalty>
7.56727e-08

> <i_epik_Tot_Q>
0

> <i_epik_Tot_abs_Q>
0

> <r_epik_Metal_State_Penalty>
-0

> <b_epik_Metal_Only>
0

> <s_lp_Force_Field>
OPLS_2005

> <r_lp_Energy>
18.7705

> <b_lp_Chiralities_Consistent>
1

> <s_lp_Variant>
AV-unprocessed.smi:2309-2

> <Gold.Version>
5.8.1

> <Gold.Id.Protein>
6NUR|6NUR_protein|mol2

> <Gold.PLP.Fitness>
48.6274

> <Gold.PLP.PLP>
-43.8124

> <Gold.PLP.part.hbond>
-3.0000

> <Gold.PLP.part.metal>
0.0000

> <Gold.PLP.part.buried>
-5.7403

> <Gold.PLP.part.nonpolar>
-37.0042

> <Gold.PLP.part.repulsive>
1.9128

> <Gold.PLP.ligand.clash>
0.0000

> <Gold.PLP.ligand.torsion>
0.9643

> <Gold.PLP.Chemscore.Hbond>
2.2449

> <Gold.PLP.Chemscore.CHOScore>
0.0000

> <Gold.PLP.Chemscore.Metal>
0.0000

> <Gold.Chemscore.Hbonds>
donor molecule, donor type, donor heavy atom, donor atom, acceptor molecule, acceptor atom, score
      P1  H  7989  7998       L1    18  0.34
      P1  H  7997  8008       L1     8  1.00
      P1  H  8011  8017       L1    18  0.88

> <Gold.PLP.Chemscore.Internal.Correction>
0.0088

> <Gold.Rescore>
     Score         DG    S(hbond)    S(metal)    S(lipo)     H(rot)  DE(clash)    DE(int)     intcor
     18.78     -21.18       2.12        0.00     115.70       1.93       0.56       1.84       ----

> <Gold.Chemscore.Fitness>
18.7837

> <Gold.Chemscore.DG>
-21.1769

> <Gold.Chemscore.ZeroCoef>
-5.4800

> <Gold.Chemscore.Hbond>
2.1233

> <Gold.Chemscore.Metal>
0.0000

> <Gold.Chemscore.Lipo>
115.6996

> <Gold.Chemscore.Internal_Hbond>
0.0000

> <Gold.Chemscore.DEClash>
0.5565

> <Gold.Chemscore.DEInternal>
1.8367

> <Gold.Chemscore.Rot>
1.9265

> <Gold.Chemscore.Internal.Correction>
   9.000000E+99

> <Gold.Chemscore.Hbonds>
donor molecule, donor type, donor heavy atom, donor atom, acceptor molecule, acceptor atom, score
      P1  H  7989  7998       L1    18  0.32
      P1  H  7997  8008       L1     8  0.98
      P1  H  8011  8017       L1    18  0.83

> <Gold.Chemscore.Hbond.Weighted>
-7.0918

> <Gold.Chemscore.Metal.Weighted>
-0.0000

> <Gold.Chemscore.Lipo.Weighted>
-13.5369

> <Gold.Chemscore.Internal_Hbond.Weighted>
0.0000

> <Gold.Chemscore.DEClash.Weighted>
0.5565

> <Gold.Chemscore.DEInternal.Weighted>
1.8367

> <Gold.Chemscore.Rot.Weighted>
4.9317

> <Gold.Chemscore.Internal.Correction.Weighted>
   9.000000E+99

> <Gold.Protein.RotatedTorsions>
[ 6907 6896 6895 6894 ] final   51.35 input  -60.11 | X-H torsion
[ 7974 7965 7964 7962 ] final -113.91 input  175.53 | X-H torsion
[ 8008 7997 7996 7995 ] final  -60.72 input   59.86 | X-H torsion
[ 10167 10162 10161 10158 ] final   -7.08 input  -65.29 | X-H torsion
[ 10718 10713 10712 10709 ] final -113.40 input   66.30 | X-H torsion
[ 10763 10752 10751 10750 ] final -128.20 input  -60.55 | X-H torsion
[ 11005 11000 10999 10996 ] final   23.20 input  -57.11 | X-H torsion

> <Gold.Protein.ActiveResidues>
 VAL166  LYS551  ARG553  GLY616  TRP617  ASP618  TYR619  PRO620  LYS621  CYS622 
 ASP623  PHE694  ASN695  SER759  ASP760  ASP761  ALA762  ILE779  LEU786  VAL792 
 PHE793  MET794  SER795  GLU796  ALA797  LYS798  CYS799  TRP800  GLU811  SER814 

> <Gold.Protein.RotatedAtoms>
  152.3117  134.7490  160.0334 H   0  0  0  0  0  0  0  0  0  0  0  0  # atno 6907 bound_to 6896
  151.7968  133.3360  159.3523 H   0  0  0  0  0  0  0  0  0  0  0  0  # atno 6908 bound_to 6896
  150.7323  134.5721  159.5940 H   0  0  0  0  0  0  0  0  0  0  0  0  # atno 6909 bound_to 6896
  145.1264  140.8699  143.3784 H   0  0  0  0  0  0  0  0  0  0  0  0  # atno 7974 bound_to 7965
  154.4412  140.1033  156.6318 H   0  0  0  0  0  0  0  0  0  0  0  0  # atno 8008 bound_to 7997
  155.5596  140.3487  155.4469 H   0  0  0  0  0  0  0  0  0  0  0  0  # atno 8009 bound_to 7997
  156.0469  140.1295  157.0083 H   0  0  0  0  0  0  0  0  0  0  0  0  # atno 8010 bound_to 7997
  140.7018  143.6121  150.8694 H   0  0  0  0  0  0  0  0  0  0  0  0  # atno 10167 bound_to 10162
  156.0764  130.5971  150.8637 H   0  0  0  0  0  0  0  0  0  0  0  0  # atno 10718 bound_to 10713
  154.8755  135.3936  154.3718 H   0  0  0  0  0  0  0  0  0  0  0  0  # atno 10763 bound_to 10752
  153.4477  135.7028  153.6134 H   0  0  0  0  0  0  0  0  0  0  0  0  # atno 10764 bound_to 10752
  153.4687  135.3795  155.2348 H   0  0  0  0  0  0  0  0  0  0  0  0  # atno 10765 bound_to 10752
  140.3722  134.2010  155.7666 H   0  0  0  0  0  0  0  0  0  0  0  0  # atno 11005 bound_to 11000
  145.0684  139.3051  143.5845 LP  0  0  0  0  0  0  0  0  0  0  0  0  # atno 17320 bound_to 7965
  146.3517  140.0150  142.8663 LP  0  0  0  0  0  0  0  0  0  0  0  0  # atno 17321 bound_to 7965
  139.9843  143.5916  152.2932 LP  0  0  0  0  0  0  0  0  0  0  0  0  # atno 17342 bound_to 10162
  139.6548  144.7662  151.2076 LP  0  0  0  0  0  0  0  0  0  0  0  0  # atno 17343 bound_to 10162
  157.5862  131.0945  150.9193 LP  0  0  0  0  0  0  0  0  0  0  0  0  # atno 17370 bound_to 10713
  156.9378  130.5373  149.5280 LP  0  0  0  0  0  0  0  0  0  0  0  0  # atno 17371 bound_to 10713
  141.1951  133.8114  157.0730 LP  0  0  0  0  0  0  0  0  0  0  0  0  # atno 17394 bound_to 11000
  140.0543  134.9789  157.1192 LP  0  0  0  0  0  0  0  0  0  0  0  0  # atno 17395 bound_to 11000

$$$$
