AV-unprocessed.smi:1632|AV-procd|sdf|6528|dock1
  -GOLD-   22720 7203D 1   1.00000     0.00000
 Structure written by MMmdl.
 42 44  0  0  0  0  0  0  0  0  1 V2000
  146.5144  137.7788  150.6506 O   0  0  0  0  0  0  0  0  0  0  0  0
  146.5018  138.6127  151.7894 C   0  0  0  0  0  0  0  0  0  0  0  0
  146.1483  137.8057  153.0468 C   0  0  0  0  0  0  0  0  0  0  0  0
  144.7797  137.1094  152.9595 C   0  0  0  0  0  0  0  0  0  0  0  0
  144.8614  135.7446  152.3346 C   0  0  0  0  0  0  0  0  0  0  0  0
  146.0210  135.2844  151.8619 N   0  0  0  0  0  0  0  0  0  0  0  0
  145.6868  134.0357  151.3802 C   0  0  0  0  0  0  0  0  0  0  0  0
  146.4849  133.0445  150.7656 C   0  0  0  0  0  0  0  0  0  0  0  0
  145.9119  131.8265  150.3449 C   0  0  0  0  0  0  0  0  0  0  0  0
  144.5356  131.5842  150.5314 C   0  0  0  0  0  0  0  0  0  0  0  0
  143.7232  132.5598  151.1403 C   0  0  0  0  0  0  0  0  0  0  0  0
  144.3007  133.7734  151.5605 C   0  0  0  0  0  0  0  0  0  0  0  0
  143.7932  134.9151  152.1750 N   0  0  0  0  0  0  0  0  0  0  0  0
  142.3917  135.1151  152.5282 C   0  0  0  0  0  0  0  0  0  0  0  0
  142.2059  135.6264  153.9706 C   0  0  2  0  0  0  0  0  0  0  0  0
  141.9971  134.5054  154.8057 O   0  0  0  0  0  0  0  0  0  0  0  0
  141.0851  136.6507  154.0999 C   0  0  0  0  0  0  0  0  0  0  0  0
  139.7457  136.2720  153.8576 C   0  0  0  0  0  0  0  0  0  0  0  0
  138.7043  137.2106  153.9896 C   0  0  0  0  0  0  0  0  0  0  0  0
  138.9949  138.5361  154.3634 C   0  0  0  0  0  0  0  0  0  0  0  0
  140.3279  138.9227  154.6001 C   0  0  0  0  0  0  0  0  0  0  0  0
  141.3716  137.9860  154.4662 C   0  0  0  0  0  0  0  0  0  0  0  0
  142.6487  138.3791  154.6900 F   0  0  0  0  0  0  0  0  0  0  0  0
  145.6546  137.7910  150.2587 H   0  0  0  0  0  0  0  0  0  0  0  0
  147.4894  139.0612  151.8992 H   0  0  0  0  0  0  0  0  0  0  0  0
  145.7941  139.4279  151.6375 H   0  0  0  0  0  0  0  0  0  0  0  0
  146.9323  137.0751  153.2510 H   0  0  0  0  0  0  0  0  0  0  0  0
  146.1423  138.4834  153.8988 H   0  0  0  0  0  0  0  0  0  0  0  0
  144.3518  137.0598  153.9568 H   0  0  0  0  0  0  0  0  0  0  0  0
  144.0923  137.7136  152.3669 H   0  0  0  0  0  0  0  0  0  0  0  0
  147.5399  133.2219  150.6174 H   0  0  0  0  0  0  0  0  0  0  0  0
  146.5309  131.0757  149.8762 H   0  0  0  0  0  0  0  0  0  0  0  0
  144.1037  130.6493  150.2057 H   0  0  0  0  0  0  0  0  0  0  0  0
  142.6687  132.3767  151.2833 H   0  0  0  0  0  0  0  0  0  0  0  0
  141.8944  135.7619  151.8088 H   0  0  0  0  0  0  0  0  0  0  0  0
  141.8977  134.1477  152.4259 H   0  0  0  0  0  0  0  0  0  0  0  0
  143.1400  136.0760  154.3082 H   0  0  0  0  0  0  0  0  0  0  0  0
  142.3845  133.7486  154.3929 H   0  0  0  0  0  0  0  0  0  0  0  0
  139.5123  135.2574  153.5694 H   0  0  0  0  0  0  0  0  0  0  0  0
  137.6829  136.9134  153.8033 H   0  0  0  0  0  0  0  0  0  0  0  0
  138.1969  139.2568  154.4643 H   0  0  0  0  0  0  0  0  0  0  0  0
  140.5513  139.9412  154.8812 H   0  0  0  0  0  0  0  0  0  0  0  0
  1  2  1  0  0  0  0
  1 24  1  0  0  0  0
  2  3  1  0  0  0  0
  2 25  1  0  0  0  0
  2 26  1  0  0  0  0
  3  4  1  0  0  0  0
  3 27  1  0  0  0  0
  3 28  1  0  0  0  0
  4  5  1  0  0  0  0
  4 29  1  0  0  0  0
  4 30  1  0  0  0  0
  5 13  1  0  0  0  0
  5  6  2  0  0  0  0
  6  7  1  0  0  0  0
  7 12  2  0  0  0  0
  7  8  1  0  0  0  0
  8  9  2  0  0  0  0
  8 31  1  0  0  0  0
  9 10  1  0  0  0  0
  9 32  1  0  0  0  0
 10 11  2  0  0  0  0
 10 33  1  0  0  0  0
 11 12  1  0  0  0  0
 11 34  1  0  0  0  0
 12 13  1  0  0  0  0
 13 14  1  0  0  0  0
 14 15  1  0  0  0  0
 14 35  1  0  0  0  0
 14 36  1  0  0  0  0
 15 16  1  0  0  0  0
 15 17  1  0  0  0  0
 15 37  1  0  0  0  0
 16 38  1  0  0  0  0
 17 22  1  0  0  0  0
 17 18  2  0  0  0  0
 18 19  1  0  0  0  0
 18 39  1  0  0  0  0
 19 20  2  0  0  0  0
 19 40  1  0  0  0  0
 20 21  1  0  0  0  0
 20 41  1  0  0  0  0
 21 22  2  0  0  0  0
 21 42  1  0  0  0  0
 22 23  1  0  0  0  0
M  END
> <s_m_source_file>
AV-unprocessed.smi

> <i_m_source_file_index>
1632

> <i_lp_mmshare_version>
43012

> <i_f3d_flags>
0

> <s_epik_input>
W09IXVtDSDJdW0NIMl1bQ0gyXWMobjEpbihjKGMxMilbY0hdW2NIXVtjSF1bY0hdMilbQ0gyXVtDQEhdKFtPSF0pYzNbY0hdW2NIXVtjSF1bY0hdYzNG

> <s_epik_cmdline>
J2VwaWtfcHl0aG9uJywgJy1waCcsICc3LjAnLCAnLXRuJywgJzgnLCAnLW1hJywgJzIwMCcsICctbWV0YWxfYmluZGluZycsICctaW1hZScsICc8aW5maWxlLm1hZT4nLCAnLW9tYWUnLCAnPG91dGZpbGUubWFlPic=

> <r_epik_Ionization_Penalty>
0.182561

> <r_epik_Ionization_Penalty_Charging>
0

> <r_epik_Ionization_Penalty_Neutral>
0.182561

> <r_epik_State_Penalty>
0.172086

> <r_epik_Charging_Adjusted_Penalty>
0.172086

> <i_epik_Tot_Q>
0

> <i_epik_Tot_abs_Q>
0

> <r_epik_Metal_State_Penalty>
0.000199649

> <b_epik_Metal_Only>
0

> <s_lp_Force_Field>
OPLS_2005

> <r_lp_Energy>
12.9461

> <b_lp_Chiralities_Consistent>
1

> <s_lp_Variant>
AV-unprocessed.smi:1632-1

> <Gold.Version>
5.8.1

> <Gold.Id.Protein>
6NUR|6NUR_protein|mol2

> <Gold.PLP.Fitness>
54.8186

> <Gold.PLP.PLP>
-45.7453

> <Gold.PLP.part.hbond>
-4.7292

> <Gold.PLP.part.metal>
0.0000

> <Gold.PLP.part.buried>
-8.2324

> <Gold.PLP.part.nonpolar>
-34.5571

> <Gold.PLP.part.repulsive>
0.6759

> <Gold.PLP.ligand.clash>
0.0000

> <Gold.PLP.ligand.torsion>
0.8247

> <Gold.PLP.Chemscore.Hbond>
3.5520

> <Gold.PLP.Chemscore.CHOScore>
0.0000

> <Gold.PLP.Chemscore.Metal>
0.0000

> <Gold.Chemscore.Hbonds>
donor molecule, donor type, donor heavy atom, donor atom, acceptor molecule, acceptor atom, score
      L1  H     1    24       P1 10171  1.00
      L1  H    16    38       P1 10957  0.77
      P1  H  7954  7966       L1     1  1.00
      P1  H 11000 11005       L1    16  0.78

> <Gold.PLP.Chemscore.Internal.Correction>
0.0667

> <Gold.Rescore>
     Score         DG    S(hbond)    S(metal)    S(lipo)     H(rot)  DE(clash)    DE(int)     intcor
     19.29     -21.67       3.32        0.00     110.76       3.07       0.36       2.02       ----

> <Gold.Chemscore.Fitness>
19.2921

> <Gold.Chemscore.DG>
-21.6708

> <Gold.Chemscore.ZeroCoef>
-5.4800

> <Gold.Chemscore.Hbond>
3.3239

> <Gold.Chemscore.Metal>
0.0000

> <Gold.Chemscore.Lipo>
110.7589

> <Gold.Chemscore.Internal_Hbond>
0.0000

> <Gold.Chemscore.DEClash>
0.3591

> <Gold.Chemscore.DEInternal>
2.0195

> <Gold.Chemscore.Rot>
3.0741

> <Gold.Chemscore.Internal.Correction>
   9.000000E+99

> <Gold.Chemscore.Hbonds>
donor molecule, donor type, donor heavy atom, donor atom, acceptor molecule, acceptor atom, score
      L1  H     1    24       P1 10171  0.95
      L1  H    16    38       P1 10957  0.71
      P1  H  7954  7966       L1     1  0.67
      P1  H 11000 11005       L1    16  0.43

> <Gold.Chemscore.Hbond.Weighted>
-11.1018

> <Gold.Chemscore.Metal.Weighted>
-0.0000

> <Gold.Chemscore.Lipo.Weighted>
-12.9588

> <Gold.Chemscore.Internal_Hbond.Weighted>
0.0000

> <Gold.Chemscore.DEClash.Weighted>
0.3591

> <Gold.Chemscore.DEInternal.Weighted>
2.0195

> <Gold.Chemscore.Rot.Weighted>
7.8698

> <Gold.Chemscore.Internal.Correction.Weighted>
   9.000000E+99

> <Gold.Protein.RotatedTorsions>
[ 6907 6896 6895 6894 ] final -106.29 input  -60.11 | X-H torsion
[ 7974 7965 7964 7962 ] final  -27.91 input  175.53 | X-H torsion
[ 8008 7997 7996 7995 ] final -128.87 input   59.86 | X-H torsion
[ 10167 10162 10161 10158 ] final   76.83 input  -65.29 | X-H torsion
[ 10718 10713 10712 10709 ] final  145.58 input   66.30 | X-H torsion
[ 10763 10752 10751 10750 ] final  166.35 input  -60.55 | X-H torsion
[ 11005 11000 10999 10996 ] final   -9.22 input  -57.11 | X-H torsion

> <Gold.Protein.ActiveResidues>
 VAL166  LYS551  ARG553  GLY616  TRP617  ASP618  TYR619  PRO620  LYS621  CYS622 
 ASP623  PHE694  ASN695  SER759  ASP760  ASP761  ALA762  ILE779  LEU786  VAL792 
 PHE793  MET794  SER795  GLU796  ALA797  LYS798  CYS799  TRP800  GLU811  SER814 

> <Gold.Protein.RotatedAtoms>
  150.7381  133.9999  159.3634 H   0  0  0  0  0  0  0  0  0  0  0  0  # atno 6907 bound_to 6896
  151.7952  135.0722  160.0402 H   0  0  0  0  0  0  0  0  0  0  0  0  # atno 6908 bound_to 6896
  152.3179  133.5786  159.5761 H   0  0  0  0  0  0  0  0  0  0  0  0  # atno 6909 bound_to 6896
  146.1325  140.5213  142.8687 H   0  0  0  0  0  0  0  0  0  0  0  0  # atno 7974 bound_to 7965
  155.2698  140.0439  157.3006 H   0  0  0  0  0  0  0  0  0  0  0  0  # atno 8008 bound_to 7997
  154.5660  140.2360  155.8231 H   0  0  0  0  0  0  0  0  0  0  0  0  # atno 8009 bound_to 7997
  156.2085  140.3005  155.9688 H   0  0  0  0  0  0  0  0  0  0  0  0  # atno 8010 bound_to 7997
  139.9881  144.5777  150.7842 H   0  0  0  0  0  0  0  0  0  0  0  0  # atno 10167 bound_to 10162
  157.3435  131.0939  151.1062 H   0  0  0  0  0  0  0  0  0  0  0  0  # atno 10718 bound_to 10713
  154.3376  135.2754  155.2439 H   0  0  0  0  0  0  0  0  0  0  0  0  # atno 10763 bound_to 10752
  154.4724  135.5879  153.6334 H   0  0  0  0  0  0  0  0  0  0  0  0  # atno 10764 bound_to 10752
  152.9860  135.6091  154.3575 H   0  0  0  0  0  0  0  0  0  0  0  0  # atno 10765 bound_to 10752
  140.7318  133.8742  155.8899 H   0  0  0  0  0  0  0  0  0  0  0  0  # atno 11005 bound_to 11000
  144.7705  140.5628  143.6673 LP  0  0  0  0  0  0  0  0  0  0  0  0  # atno 17320 bound_to 7965
  145.5229  139.1476  143.3542 LP  0  0  0  0  0  0  0  0  0  0  0  0  # atno 17321 bound_to 7965
  140.7465  143.2891  151.3380 LP  0  0  0  0  0  0  0  0  0  0  0  0  # atno 17342 bound_to 10162
  139.6360  144.0629  152.2516 LP  0  0  0  0  0  0  0  0  0  0  0  0  # atno 17343 bound_to 10162
  157.2264  130.6505  149.5832 LP  0  0  0  0  0  0  0  0  0  0  0  0  # atno 17370 bound_to 10713
  155.9711  130.4612  150.6103 LP  0  0  0  0  0  0  0  0  0  0  0  0  # atno 17371 bound_to 10713
  140.9914  134.1273  157.4404 LP  0  0  0  0  0  0  0  0  0  0  0  0  # atno 17394 bound_to 11000
  139.8824  135.0041  156.6231 LP  0  0  0  0  0  0  0  0  0  0  0  0  # atno 17395 bound_to 11000

$$$$
