AV-unprocessed.smi:351|AV-procd|sdf|2400|dock1
  -GOLD-   2262022333D 1   1.00000     0.00000
 Structure written by MMmdl.
 39 40  0  0  0  0  0  0  0  0  1 V2000
  153.5324  141.0135  160.7706 C   0  0  0  0  0  0  0  0  0  0  0  0
  152.7485  142.2893  160.5261 C   0  0  0  0  0  0  0  0  0  0  0  0
  152.7516  143.3065  161.5035 C   0  0  0  0  0  0  0  0  0  0  0  0
  152.0291  144.4947  161.2926 C   0  0  0  0  0  0  0  0  0  0  0  0
  151.2998  144.6679  160.1031 C   0  0  0  0  0  0  0  0  0  0  0  0
  151.2926  143.6555  159.1248 C   0  0  0  0  0  0  0  0  0  0  0  0
  152.0179  142.4530  159.3257 C   0  0  0  0  0  0  0  0  0  0  0  0
  152.0559  141.4191  158.4127 O   0  0  0  0  0  0  0  0  0  0  0  0
  150.9296  141.2146  157.5721 C   0  0  0  0  0  0  0  0  0  0  0  0
  151.4368  140.8960  156.1538 C   0  0  0  0  0  0  0  0  0  0  0  0
  150.4071  140.2178  155.3326 N   0  0  0  0  0  0  0  0  0  0  0  0
  150.6090  138.8707  154.8957 C   0  0  0  0  0  0  0  0  0  0  0  0
  151.9122  138.1446  155.2594 C   0  0  0  0  0  0  0  0  0  0  0  0
  151.9156  136.8961  154.7896 F   0  0  0  0  0  0  0  0  0  0  0  0
  152.9821  138.7469  154.7414 F   0  0  0  0  0  0  0  0  0  0  0  0
  152.0531  138.0601  156.5828 F   0  0  0  0  0  0  0  0  0  0  0  0
  149.6673  138.2608  154.1525 C   0  0  0  0  0  0  0  0  0  0  0  0
  148.4586  138.9550  153.8047 C   0  0  0  0  0  0  0  0  0  0  0  0
  148.2514  140.2279  154.2118 C   0  0  0  0  0  0  0  0  0  0  0  0
  147.0243  140.9855  153.8744 C   0  0  0  0  0  0  0  0  0  0  0  0
  146.1597  140.3169  153.1008 N   0  0  0  0  0  0  0  0  0  0  0  0
  146.7385  142.1295  154.2277 O   0  0  0  0  0  0  0  0  0  0  0  0
  149.2715  140.9343  155.0294 C   0  0  0  0  0  0  0  0  0  0  0  0
  149.1453  142.0947  155.4328 O   0  0  0  0  0  0  0  0  0  0  0  0
  154.1143  141.0720  161.6909 H   0  0  0  0  0  0  0  0  0  0  0  0
  154.2216  140.8260  159.9469 H   0  0  0  0  0  0  0  0  0  0  0  0
  152.8535  140.1642  160.8508 H   0  0  0  0  0  0  0  0  0  0  0  0
  153.3078  143.1790  162.4204 H   0  0  0  0  0  0  0  0  0  0  0  0
  152.0332  145.2713  162.0431 H   0  0  0  0  0  0  0  0  0  0  0  0
  150.7434  145.5790  159.9396 H   0  0  0  0  0  0  0  0  0  0  0  0
  150.7197  143.8272  158.2266 H   0  0  0  0  0  0  0  0  0  0  0  0
  150.3283  140.3883  157.9532 H   0  0  0  0  0  0  0  0  0  0  0  0
  150.3037  142.1073  157.5595 H   0  0  0  0  0  0  0  0  0  0  0  0
  151.8131  141.8043  155.6937 H   0  0  0  0  0  0  0  0  0  0  0  0
  152.3342  140.2783  156.2247 H   0  0  0  0  0  0  0  0  0  0  0  0
  149.8006  137.2465  153.8070 H   0  0  0  0  0  0  0  0  0  0  0  0
  147.7364  138.4172  153.2084 H   0  0  0  0  0  0  0  0  0  0  0  0
  145.2941  140.7514  152.8164 H   0  0  0  0  0  0  0  0  0  0  0  0
  146.3796  139.3773  152.8030 H   0  0  0  0  0  0  0  0  0  0  0  0
  1  2  1  0  0  0  0
  1 25  1  0  0  0  0
  1 26  1  0  0  0  0
  1 27  1  0  0  0  0
  2  7  1  0  0  0  0
  2  3  2  0  0  0  0
  3  4  1  0  0  0  0
  3 28  1  0  0  0  0
  4  5  2  0  0  0  0
  4 29  1  0  0  0  0
  5  6  1  0  0  0  0
  5 30  1  0  0  0  0
  6  7  2  0  0  0  0
  6 31  1  0  0  0  0
  7  8  1  0  0  0  0
  8  9  1  0  0  0  0
  9 10  1  0  0  0  0
  9 32  1  0  0  0  0
  9 33  1  0  0  0  0
 10 11  1  0  0  0  0
 10 34  1  0  0  0  0
 10 35  1  0  0  0  0
 11 23  1  0  0  0  0
 11 12  1  0  0  0  0
 12 13  1  0  0  0  0
 12 17  2  0  0  0  0
 13 14  1  0  0  0  0
 13 15  1  0  0  0  0
 13 16  1  0  0  0  0
 17 18  1  0  0  0  0
 17 36  1  0  0  0  0
 18 19  2  0  0  0  0
 18 37  1  0  0  0  0
 19 20  1  0  0  0  0
 19 23  1  0  0  0  0
 20 21  1  0  0  0  0
 20 22  2  0  0  0  0
 21 38  1  0  0  0  0
 21 39  1  0  0  0  0
 23 24  2  0  0  0  0
M  END
> <s_m_source_file>
AV-unprocessed.smi

> <i_m_source_file_index>
351

> <i_lp_mmshare_version>
43012

> <i_f3d_flags>
0

> <s_epik_input>
W0NIM11jMVtjSF1bY0hdW2NIXVtjSF1jMU9bQ0gyXVtDSDJdbjJjKEMoRikoRilGKVtjSF1bY0hdYyhjMj1PKUMoPU8pW05IMl0=

> <s_epik_cmdline>
J2VwaWtfcHl0aG9uJywgJy1waCcsICc3LjAnLCAnLXRuJywgJzgnLCAnLW1hJywgJzIwMCcsICctbWV0YWxfYmluZGluZycsICctaW1hZScsICc8aW5maWxlLm1hZT4nLCAnLW9tYWUnLCAnPG91dGZpbGUubWFlPic=

> <r_lp_tautomer_probability>
1

> <r_epik_Ionization_Penalty>
1.75286e-06

> <r_epik_Ionization_Penalty_Charging>
1.15608e-09

> <r_epik_Ionization_Penalty_Neutral>
1.7517e-06

> <r_epik_State_Penalty>
-0

> <r_epik_Charging_Adjusted_Penalty>
1.15608e-09

> <i_epik_Tot_Q>
0

> <i_epik_Tot_abs_Q>
0

> <r_epik_Metal_State_Penalty>
-0

> <b_epik_Metal_Only>
0

> <s_lp_Force_Field>
OPLS_2005

> <r_lp_Energy>
33.8975

> <b_lp_Chiralities_Consistent>
1

> <s_lp_Variant>
AV-unprocessed.smi:351-1

> <Gold.Version>
5.8.1

> <Gold.Id.Protein>
6NUR|6NUR_protein|mol2

> <Gold.PLP.Fitness>
46.9297

> <Gold.PLP.PLP>
-45.8890

> <Gold.PLP.part.hbond>
-1.0000

> <Gold.PLP.part.metal>
0.0000

> <Gold.PLP.part.buried>
-0.2421

> <Gold.PLP.part.nonpolar>
-48.3951

> <Gold.PLP.part.repulsive>
3.2763

> <Gold.PLP.ligand.clash>
3.7694

> <Gold.PLP.ligand.torsion>
0.8005

> <Gold.PLP.Chemscore.Hbond>
0.8320

> <Gold.PLP.Chemscore.CHOScore>
0.0000

> <Gold.PLP.Chemscore.Metal>
0.0000

> <Gold.Chemscore.Hbonds>
donor molecule, donor type, donor heavy atom, donor atom, acceptor molecule, acceptor atom, score
      L1  H    21    38       P1 10175  0.91

> <Gold.PLP.Chemscore.Internal.Correction>
3.9153

> <Gold.Rescore>
     Score         DG    S(hbond)    S(metal)    S(lipo)     H(rot)  DE(clash)    DE(int)     intcor
     11.47     -17.58       0.99        0.00     115.53       1.84       1.39       4.72       ----

> <Gold.Chemscore.Fitness>
11.4697

> <Gold.Chemscore.DG>
-17.5754

> <Gold.Chemscore.ZeroCoef>
-5.4800

> <Gold.Chemscore.Hbond>
0.9857

> <Gold.Chemscore.Metal>
0.0000

> <Gold.Chemscore.Lipo>
115.5272

> <Gold.Chemscore.Internal_Hbond>
0.0000

> <Gold.Chemscore.DEClash>
1.3878

> <Gold.Chemscore.DEInternal>
4.7180

> <Gold.Chemscore.Rot>
1.8412

> <Gold.Chemscore.Internal.Correction>
   9.000000E+99

> <Gold.Chemscore.Hbonds>
donor molecule, donor type, donor heavy atom, donor atom, acceptor molecule, acceptor atom, score
      L1  H    21    38       P1 10175  0.40

> <Gold.Chemscore.Hbond.Weighted>
-3.2921

> <Gold.Chemscore.Metal.Weighted>
-0.0000

> <Gold.Chemscore.Lipo.Weighted>
-13.5167

> <Gold.Chemscore.Internal_Hbond.Weighted>
0.0000

> <Gold.Chemscore.DEClash.Weighted>
1.3878

> <Gold.Chemscore.DEInternal.Weighted>
4.7180

> <Gold.Chemscore.Rot.Weighted>
4.7134

> <Gold.Chemscore.Internal.Correction.Weighted>
   9.000000E+99

> <Gold.Protein.RotatedTorsions>
[ 6907 6896 6895 6894 ] final  113.69 input  -60.11 | X-H torsion
[ 7974 7965 7964 7962 ] final  -64.38 input  175.53 | X-H torsion
[ 8008 7997 7996 7995 ] final   55.80 input   59.86 | X-H torsion
[ 10167 10162 10161 10158 ] final   61.99 input  -65.29 | X-H torsion
[ 10718 10713 10712 10709 ] final   43.55 input   66.30 | X-H torsion
[ 10763 10752 10751 10750 ] final  -98.76 input  -60.55 | X-H torsion
[ 11005 11000 10999 10996 ] final  162.64 input  -57.11 | X-H torsion

> <Gold.Protein.ActiveResidues>
 VAL166  LYS551  ARG553  GLY616  TRP617  ASP618  TYR619  PRO620  LYS621  CYS622 
 ASP623  PHE694  ASN695  SER759  ASP760  ASP761  ALA762  ILE779  LEU786  VAL792 
 PHE793  MET794  SER795  GLU796  ALA797  LYS798  CYS799  TRP800  GLU811  SER814 

> <Gold.Protein.RotatedAtoms>
  152.4846  133.8340  159.7117 H   0  0  0  0  0  0  0  0  0  0  0  0  # atno 6907 bound_to 6896
  150.8922  133.7219  159.2908 H   0  0  0  0  0  0  0  0  0  0  0  0  # atno 6908 bound_to 6896
  151.4688  135.1048  159.9797 H   0  0  0  0  0  0  0  0  0  0  0  0  # atno 6909 bound_to 6896
  145.7675  140.8830  143.0398 H   0  0  0  0  0  0  0  0  0  0  0  0  # atno 7974 bound_to 7965
  155.5071  140.3476  155.4381 H   0  0  0  0  0  0  0  0  0  0  0  0  # atno 8008 bound_to 7997
  156.0875  140.1402  156.9662 H   0  0  0  0  0  0  0  0  0  0  0  0  # atno 8009 bound_to 7997
  154.4615  140.0933  156.6882 H   0  0  0  0  0  0  0  0  0  0  0  0  # atno 8010 bound_to 7997
  140.1488  144.4482  150.6770 H   0  0  0  0  0  0  0  0  0  0  0  0  # atno 10167 bound_to 10162
  157.4171  130.7948  149.7482 H   0  0  0  0  0  0  0  0  0  0  0  0  # atno 10718 bound_to 10713
  154.7441  135.4997  153.9173 H   0  0  0  0  0  0  0  0  0  0  0  0  # atno 10763 bound_to 10752
  153.1074  135.6700  153.9570 H   0  0  0  0  0  0  0  0  0  0  0  0  # atno 10764 bound_to 10752
  153.9339  135.3075  155.3424 H   0  0  0  0  0  0  0  0  0  0  0  0  # atno 10765 bound_to 10752
  140.2278  134.8147  157.3286 H   0  0  0  0  0  0  0  0  0  0  0  0  # atno 11005 bound_to 11000
  144.6819  139.9808  143.7483 LP  0  0  0  0  0  0  0  0  0  0  0  0  # atno 17320 bound_to 7965
  146.0203  139.3245  143.0817 LP  0  0  0  0  0  0  0  0  0  0  0  0  # atno 17321 bound_to 7965
  140.6715  143.2288  151.5613 LP  0  0  0  0  0  0  0  0  0  0  0  0  # atno 17342 bound_to 10162
  139.5436  144.2582  152.1398 LP  0  0  0  0  0  0  0  0  0  0  0  0  # atno 17343 bound_to 10162
  155.9869  130.3971  150.3192 LP  0  0  0  0  0  0  0  0  0  0  0  0  # atno 17370 bound_to 10713
  157.1336  131.0278  151.2958 LP  0  0  0  0  0  0  0  0  0  0  0  0  # atno 17371 bound_to 10713
  140.1782  134.4523  155.7788 LP  0  0  0  0  0  0  0  0  0  0  0  0  # atno 17394 bound_to 11000
  141.2219  133.6972  156.7824 LP  0  0  0  0  0  0  0  0  0  0  0  0  # atno 17395 bound_to 11000

$$$$
