AV-unprocessed.smi:2425|AV-procd|sdf|9575|dock1
  -GOLD-   2272013203D 1   1.00000     0.00000
 Structure written by MMmdl.
 35 36  0  0  0  0  0  0  0  0  3 V2000
  153.0579  142.5557  161.6089 C   0  0  0  0  0  0  0  0  0  0  0  0
  152.4410  141.9551  160.3370 C   0  0  0  0  0  0  0  0  0  0  0  0
  151.9005  143.0033  159.3526 C   0  0  0  0  0  0  0  0  0  0  0  0
  151.2611  142.3514  158.1992 N   0  0  0  0  0  0  0  0  0  0  0  0
  151.6722  141.2402  157.5673 C   0  0  0  0  0  0  0  0  0  0  0  0
  152.6831  140.6110  157.8792 O   0  0  0  0  0  0  0  0  0  0  0  0
  150.8461  140.9297  156.5537 N   0  0  0  0  0  0  0  0  0  0  0  0
  150.9429  139.8548  155.6236 C   0  0  0  0  0  0  0  0  0  0  0  0
  152.1838  139.4423  155.0788 C   0  0  0  0  0  0  0  0  0  0  0  0
  152.2142  138.3393  154.2053 C   0  0  0  0  0  0  0  0  0  0  0  0
  151.1174  137.6352  153.8640 N   0  0  0  0  0  0  0  0  0  0  0  0
  149.9370  138.0161  154.3941 C   0  0  0  0  0  0  0  0  0  0  0  0
  149.7816  139.1114  155.2746 C   0  0  0  0  0  0  0  0  0  0  0  0
  148.4377  139.4340  155.7907 N   0  3  0  0  0  0  0  0  0  0  0  0
  147.5114  138.6685  155.5437 O   0  0  0  0  0  0  0  0  0  0  0  0
  148.3199  140.4496  156.4680 O   0  5  0  0  0  0  0  0  0  0  0  0
  150.9533  144.0919  159.8977 C   0  0  0  0  0  0  0  0  0  0  0  0
  151.6263  145.1153  158.9796 C   0  0  0  0  0  0  0  0  0  0  0  0
  152.8215  144.1622  158.9053 C   0  0  0  0  0  0  0  0  0  0  0  0
  153.4563  141.7704  162.2514 H   0  0  0  0  0  0  0  0  0  0  0  0
  152.3206  143.1110  162.1888 H   0  0  0  0  0  0  0  0  0  0  0  0
  153.8769  143.2340  161.3685 H   0  0  0  0  0  0  0  0  0  0  0  0
  153.2018  141.3509  159.8418 H   0  0  0  0  0  0  0  0  0  0  0  0
  151.6571  141.2520  160.6186 H   0  0  0  0  0  0  0  0  0  0  0  0
  150.4216  142.7936  157.8549 H   0  0  0  0  0  0  0  0  0  0  0  0
  150.1120  141.5972  156.3662 H   0  0  0  0  0  0  0  0  0  0  0  0
  153.1113  139.9352  155.3267 H   0  0  0  0  0  0  0  0  0  0  0  0
  153.1487  138.0063  153.7788 H   0  0  0  0  0  0  0  0  0  0  0  0
  149.0831  137.4255  154.0965 H   0  0  0  0  0  0  0  0  0  0  0  0
  149.8924  143.9316  159.7014 H   0  0  0  0  0  0  0  0  0  0  0  0
  151.1277  144.3088  160.9530 H   0  0  0  0  0  0  0  0  0  0  0  0
  151.1146  145.2296  158.0227 H   0  0  0  0  0  0  0  0  0  0  0  0
  151.8383  146.0779  159.4457 H   0  0  0  0  0  0  0  0  0  0  0  0
  153.5835  144.4013  159.6489 H   0  0  0  0  0  0  0  0  0  0  0  0
  153.2638  144.0724  157.9128 H   0  0  0  0  0  0  0  0  0  0  0  0
  1  2  1  0  0  0  0
  1 20  1  0  0  0  0
  1 21  1  0  0  0  0
  1 22  1  0  0  0  0
  2  3  1  0  0  0  0
  2 23  1  0  0  0  0
  2 24  1  0  0  0  0
  3 19  1  0  0  0  0
  3  4  1  0  0  0  0
  3 17  1  0  0  0  0
  4  5  1  0  0  0  0
  4 25  1  0  0  0  0
  5  6  2  0  0  0  0
  5  7  1  0  0  0  0
  7  8  1  0  0  0  0
  7 26  1  0  0  0  0
  8 13  1  0  0  0  0
  8  9  2  0  0  0  0
  9 10  1  0  0  0  0
  9 27  1  0  0  0  0
 10 11  2  0  0  0  0
 10 28  1  0  0  0  0
 11 12  1  0  0  0  0
 12 13  2  0  0  0  0
 12 29  1  0  0  0  0
 13 14  1  0  0  0  0
 14 15  2  0  0  0  0
 14 16  1  0  0  0  0
 17 18  1  0  0  0  0
 17 30  1  0  0  0  0
 17 31  1  0  0  0  0
 18 19  1  0  0  0  0
 18 32  1  0  0  0  0
 18 33  1  0  0  0  0
 19 34  1  0  0  0  0
 19 35  1  0  0  0  0
M  CHG  1  14   1
M  CHG  1  16  -1
M  END
> <s_m_source_file>
AV-unprocessed.smi

> <i_m_source_file_index>
2425

> <i_lp_mmshare_version>
43012

> <i_f3d_flags>
0

> <s_epik_input>
W0NIMl0xW0NIMl1bQ0gyXUMxKFtDSDJdW0NIM10pW05IXUMoPU8pW05IXWMyW2NIXVtjSF1uW2NIXWMyW04rXSg9TylbTy1d

> <s_epik_cmdline>
J2VwaWtfcHl0aG9uJywgJy1waCcsICc3LjAnLCAnLXRuJywgJzgnLCAnLW1hJywgJzIwMCcsICctbWV0YWxfYmluZGluZycsICctaW1hZScsICc8aW5maWxlLm1hZT4nLCAnLW9tYWUnLCAnPG91dGZpbGUubWFlPic=

> <r_lp_tautomer_probability>
1

> <r_epik_Ionization_Penalty>
0.00016416

> <r_epik_Ionization_Penalty_Charging>
0

> <r_epik_Ionization_Penalty_Neutral>
0.00016416

> <r_epik_State_Penalty>
-0

> <r_epik_Charging_Adjusted_Penalty>
0

> <i_epik_Tot_Q>
0

> <i_epik_Tot_abs_Q>
2

> <r_epik_Metal_State_Penalty>
-0

> <b_epik_Metal_Only>
0

> <s_lp_Force_Field>
OPLS_2005

> <r_lp_Energy>
29.2252

> <b_lp_Chiralities_Consistent>
1

> <s_lp_Variant>
AV-unprocessed.smi:2425-1

> <Gold.Version>
5.8.1

> <Gold.Id.Protein>
6NUR|6NUR_protein|mol2

> <Gold.PLP.Fitness>
41.4324

> <Gold.PLP.PLP>
-35.2102

> <Gold.PLP.part.hbond>
-2.0000

> <Gold.PLP.part.metal>
0.0000

> <Gold.PLP.part.buried>
-0.9581

> <Gold.PLP.part.nonpolar>
-33.7162

> <Gold.PLP.part.repulsive>
1.1236

> <Gold.PLP.ligand.clash>
0.0000

> <Gold.PLP.ligand.torsion>
0.7497

> <Gold.PLP.Chemscore.Hbond>
1.4383

> <Gold.PLP.Chemscore.CHOScore>
1.0000

> <Gold.PLP.Chemscore.Metal>
0.0000

> <Gold.Chemscore.Hbonds>
donor molecule, donor type, donor heavy atom, donor atom, acceptor molecule, acceptor atom, score
      P1  H  7997  8008       L1     6  0.59
      L1  C    12    29       P1  7948  0.83

> <Gold.PLP.Chemscore.Internal.Correction>
0.4066

> <Gold.Rescore>
     Score         DG    S(hbond)    S(metal)    S(lipo)     H(rot)  DE(clash)    DE(int)     intcor
     11.94     -17.75       0.81        0.00     108.58       1.23       1.88       3.93       ----

> <Gold.Chemscore.Fitness>
11.9350

> <Gold.Chemscore.DG>
-17.7466

> <Gold.Chemscore.ZeroCoef>
-5.4800

> <Gold.Chemscore.Hbond>
0.8105

> <Gold.Chemscore.Metal>
0.0000

> <Gold.Chemscore.Lipo>
108.5769

> <Gold.Chemscore.Internal_Hbond>
0.0000

> <Gold.Chemscore.DEClash>
1.8802

> <Gold.Chemscore.DEInternal>
3.9313

> <Gold.Chemscore.Rot>
1.2282

> <Gold.Chemscore.Internal.Correction>
   9.000000E+99

> <Gold.Chemscore.Hbonds>
donor molecule, donor type, donor heavy atom, donor atom, acceptor molecule, acceptor atom, score
      P1  H  7997  8008       L1     6  0.58

> <Gold.Chemscore.Hbond.Weighted>
-2.7072

> <Gold.Chemscore.Metal.Weighted>
-0.0000

> <Gold.Chemscore.Lipo.Weighted>
-12.7035

> <Gold.Chemscore.Internal_Hbond.Weighted>
0.0000

> <Gold.Chemscore.DEClash.Weighted>
1.8802

> <Gold.Chemscore.DEInternal.Weighted>
3.9313

> <Gold.Chemscore.Rot.Weighted>
3.1441

> <Gold.Chemscore.Internal.Correction.Weighted>
   9.000000E+99

> <Gold.Protein.RotatedTorsions>
[ 6907 6896 6895 6894 ] final -178.65 input  -60.11 | X-H torsion
[ 7974 7965 7964 7962 ] final   65.14 input  175.53 | X-H torsion
[ 8008 7997 7996 7995 ] final  -78.36 input   59.86 | X-H torsion
[ 10167 10162 10161 10158 ] final -143.74 input  -65.29 | X-H torsion
[ 10718 10713 10712 10709 ] final   -8.48 input   66.30 | X-H torsion
[ 10763 10752 10751 10750 ] final  153.97 input  -60.55 | X-H torsion
[ 11005 11000 10999 10996 ] final    9.30 input  -57.11 | X-H torsion

> <Gold.Protein.ActiveResidues>
 VAL166  LYS551  ARG553  GLY616  TRP617  ASP618  TYR619  PRO620  LYS621  CYS622 
 ASP623  PHE694  ASN695  SER759  ASP760  ASP761  ALA762  ILE779  LEU786  VAL792 
 PHE793  MET794  SER795  GLU796  ALA797  LYS798  CYS799  TRP800  GLU811  SER814 

> <Gold.Protein.RotatedAtoms>
  151.6407  133.3326  159.3129 H   0  0  0  0  0  0  0  0  0  0  0  0  # atno 6907 bound_to 6896
  150.8009  134.7107  159.6611 H   0  0  0  0  0  0  0  0  0  0  0  0  # atno 6908 bound_to 6896
  152.4102  134.6142  160.0085 H   0  0  0  0  0  0  0  0  0  0  0  0  # atno 6909 bound_to 6896
  145.8420  139.3201  143.0926 H   0  0  0  0  0  0  0  0  0  0  0  0  # atno 7974 bound_to 7965
  154.5683  140.0695  156.8925 H   0  0  0  0  0  0  0  0  0  0  0  0  # atno 8008 bound_to 7997
  155.2683  140.3363  155.4249 H   0  0  0  0  0  0  0  0  0  0  0  0  # atno 8009 bound_to 7997
  156.2098  140.1754  156.7706 H   0  0  0  0  0  0  0  0  0  0  0  0  # atno 8010 bound_to 7997
  139.7965  143.7893  152.2654 H   0  0  0  0  0  0  0  0  0  0  0  0  # atno 10167 bound_to 10162
  156.7019  130.5096  149.5915 H   0  0  0  0  0  0  0  0  0  0  0  0  # atno 10718 bound_to 10713
  154.1448  135.2818  155.3151 H   0  0  0  0  0  0  0  0  0  0  0  0  # atno 10763 bound_to 10752
  154.6261  135.5451  153.7632 H   0  0  0  0  0  0  0  0  0  0  0  0  # atno 10764 bound_to 10752
  153.0239  135.6451  154.1593 H   0  0  0  0  0  0  0  0  0  0  0  0  # atno 10765 bound_to 10752
  140.5273  134.0501  155.7862 H   0  0  0  0  0  0  0  0  0  0  0  0  # atno 11005 bound_to 11000
  145.9455  140.8948  143.0286 LP  0  0  0  0  0  0  0  0  0  0  0  0  # atno 17320 bound_to 7965
  144.6733  140.1607  143.7422 LP  0  0  0  0  0  0  0  0  0  0  0  0  # atno 17321 bound_to 7965
  139.8000  144.7378  150.9838 LP  0  0  0  0  0  0  0  0  0  0  0  0  # atno 17342 bound_to 10162
  140.7820  143.4355  151.0630 LP  0  0  0  0  0  0  0  0  0  0  0  0  # atno 17343 bound_to 10162
  156.1722  130.6444  151.0851 LP  0  0  0  0  0  0  0  0  0  0  0  0  # atno 17370 bound_to 10713
  157.6969  131.0790  150.6940 LP  0  0  0  0  0  0  0  0  0  0  0  0  # atno 17371 bound_to 10713
  141.1301  133.9316  157.2553 LP  0  0  0  0  0  0  0  0  0  0  0  0  # atno 17394 bound_to 11000
  139.9573  135.0162  156.9164 LP  0  0  0  0  0  0  0  0  0  0  0  0  # atno 17395 bound_to 11000

$$$$
