AV-unprocessed.smi:3303|AV-procd|sdf|12680|dock1
  -GOLD-   2272019 13D 1   1.00000     0.00000
 Structure written by MMmdl.
 44 45  0  0  0  0  0  0  0  0  2 V2000
  151.2937  144.7269  158.1480 C   0  0  0  0  0  0  0  0  0  0  0  0
  151.8339  143.2885  158.0712 C   0  0  1  0  0  0  0  0  0  0  0  0
  152.5468  142.9197  159.3871 C   0  0  0  0  0  0  0  0  0  0  0  0
  153.1163  141.5708  159.3330 N   0  0  0  0  0  0  0  0  0  0  0  0
  153.8593  141.3651  160.5736 C   0  0  0  0  0  0  0  0  0  0  0  0
  152.0473  140.5728  159.1575 C   0  0  2  0  0  0  0  0  0  0  0  0
  152.5927  139.1300  159.1530 C   0  0  0  0  0  0  0  0  0  0  0  0
  151.3152  140.8488  157.8273 C   0  0  0  0  0  0  0  0  0  0  0  0
  150.7224  142.2636  157.7736 C   0  0  2  0  0  0  0  0  0  0  0  0
  150.1255  142.5014  156.4402 N   0  3  0  0  0  0  0  0  0  0  0  0
  148.9547  141.6584  156.1261 C   0  0  0  0  0  0  0  0  0  0  0  0
  149.1009  141.0068  154.7442 C   0  0  0  0  0  0  0  0  0  0  0  0
  150.1001  139.8657  154.7497 C   0  0  0  0  0  0  0  0  0  0  0  0
  149.6746  138.5337  154.5593 C   0  0  0  0  0  0  0  0  0  0  0  0
  150.6428  137.5110  154.5800 C   0  0  0  0  0  0  0  0  0  0  0  0
  151.9914  137.8580  154.7895 C   0  0  0  0  0  0  0  0  0  0  0  0
  152.3135  139.2179  154.9706 C   0  0  0  0  0  0  0  0  0  0  0  0
  151.3923  140.2060  154.9550 N   0  0  0  0  0  0  0  0  0  0  0  0
  150.5318  144.8238  158.9222 H   0  0  0  0  0  0  0  0  0  0  0  0
  150.8501  145.0408  157.2029 H   0  0  0  0  0  0  0  0  0  0  0  0
  152.0921  145.4324  158.3794 H   0  0  0  0  0  0  0  0  0  0  0  0
  152.5711  143.2500  157.2672 H   0  0  0  0  0  0  0  0  0  0  0  0
  153.3470  143.6391  159.5676 H   0  0  0  0  0  0  0  0  0  0  0  0
  151.8555  142.9988  160.2282 H   0  0  0  0  0  0  0  0  0  0  0  0
  154.4208  140.4316  160.5518 H   0  0  0  0  0  0  0  0  0  0  0  0
  153.1943  141.3490  161.4383 H   0  0  0  0  0  0  0  0  0  0  0  0
  154.5893  142.1619  160.7217 H   0  0  0  0  0  0  0  0  0  0  0  0
  151.3349  140.6691  159.9790 H   0  0  0  0  0  0  0  0  0  0  0  0
  151.8073  138.4196  158.8934 H   0  0  0  0  0  0  0  0  0  0  0  0
  152.9687  138.8283  160.1304 H   0  0  0  0  0  0  0  0  0  0  0  0
  153.3976  139.0090  158.4271 H   0  0  0  0  0  0  0  0  0  0  0  0
  152.0073  140.7060  156.9953 H   0  0  0  0  0  0  0  0  0  0  0  0
  150.5165  140.1186  157.6893 H   0  0  0  0  0  0  0  0  0  0  0  0
  149.9539  142.3419  158.5450 H   0  0  0  0  0  0  0  0  0  0  0  0
  149.8444  143.4702  156.3906 H   0  0  0  0  0  0  0  0  0  0  0  0
  148.8505  140.8927  156.8959 H   0  0  0  0  0  0  0  0  0  0  0  0
  148.0523  142.2708  156.1525 H   0  0  0  0  0  0  0  0  0  0  0  0
  148.1341  140.6327  154.4042 H   0  0  0  0  0  0  0  0  0  0  0  0
  149.4178  141.7499  154.0109 H   0  0  0  0  0  0  0  0  0  0  0  0
  148.6324  138.2978  154.4014 H   0  0  0  0  0  0  0  0  0  0  0  0
  150.3562  136.4794  154.4385 H   0  0  0  0  0  0  0  0  0  0  0  0
  152.7607  137.1003  154.8107 H   0  0  0  0  0  0  0  0  0  0  0  0
  153.3376  139.5198  155.1334 H   0  0  0  0  0  0  0  0  0  0  0  0
  150.8347  142.3384  155.7396 H   0  0  0  0  0  0  0  0  0  0  0  0
  1  2  1  0  0  0  0
  1 19  1  0  0  0  0
  1 20  1  0  0  0  0
  1 21  1  0  0  0  0
  2  9  1  0  0  0  0
  2  3  1  0  0  0  0
  2 22  1  0  0  0  0
  3  4  1  0  0  0  0
  3 23  1  0  0  0  0
  3 24  1  0  0  0  0
  4  5  1  0  0  0  0
  4  6  1  0  0  0  0
  5 25  1  0  0  0  0
  5 26  1  0  0  0  0
  5 27  1  0  0  0  0
  6  7  1  0  0  0  0
  6  8  1  0  0  0  0
  6 28  1  0  0  0  0
  7 29  1  0  0  0  0
  7 30  1  0  0  0  0
  7 31  1  0  0  0  0
  8  9  1  0  0  0  0
  8 32  1  0  0  0  0
  8 33  1  0  0  0  0
  9 10  1  0  0  0  0
  9 34  1  0  0  0  0
 10 11  1  0  0  0  0
 10 35  1  0  0  0  0
 10 44  1  0  0  0  0
 11 12  1  0  0  0  0
 11 36  1  0  0  0  0
 11 37  1  0  0  0  0
 12 13  1  0  0  0  0
 12 38  1  0  0  0  0
 12 39  1  0  0  0  0
 13 18  1  0  0  0  0
 13 14  2  0  0  0  0
 14 15  1  0  0  0  0
 14 40  1  0  0  0  0
 15 16  2  0  0  0  0
 15 41  1  0  0  0  0
 16 17  1  0  0  0  0
 16 42  1  0  0  0  0
 17 18  2  0  0  0  0
 17 43  1  0  0  0  0
M  CHG  1  10   1
M  END
> <s_m_source_file>
AV-unprocessed.smi

> <i_m_source_file_index>
3303

> <i_lp_mmshare_version>
43012

> <i_f3d_flags>
0

> <s_epik_input>
W0NIM11bQ0BASF0xW0NIMl1OKFtDSDNdKVtDQEBIXShbQ0gzXSlbQ0gyXVtDQEhdMVtOSF1bQ0gyXVtDSDJdYzJbY0hdW2NIXVtjSF1bY0hdbjI=

> <s_epik_cmdline>
J2VwaWtfcHl0aG9uJywgJy1waCcsICc3LjAnLCAnLXRuJywgJzgnLCAnLW1hJywgJzIwMCcsICctbWV0YWxfYmluZGluZycsICctaW1hZScsICc8aW5maWxlLm1hZT4nLCAnLW9tYWUnLCAnPG91dGZpbGUubWFlPic=

> <r_epik_Ionization_Penalty>
1.37325

> <r_epik_Ionization_Penalty_Charging>
0.000251572

> <r_epik_Ionization_Penalty_Neutral>
1.373

> <r_epik_State_Penalty>
1.46343

> <r_epik_Charging_Adjusted_Penalty>
1.46368

> <i_epik_Tot_Q>
1

> <i_epik_Tot_abs_Q>
1

> <r_epik_Metal_State_Penalty>
1.46331

> <b_epik_Metal_Only>
0

> <s_lp_Force_Field>
OPLS_2005

> <r_lp_Energy>
21.6133

> <b_lp_Chiralities_Consistent>
1

> <s_lp_Variant>
AV-unprocessed.smi:3303-24

> <Gold.Version>
5.8.1

> <Gold.Id.Protein>
6NUR|6NUR_protein|mol2

> <Gold.PLP.Fitness>
48.8790

> <Gold.PLP.PLP>
-40.8183

> <Gold.PLP.part.hbond>
-2.0000

> <Gold.PLP.part.metal>
0.0000

> <Gold.PLP.part.buried>
-3.8803

> <Gold.PLP.part.nonpolar>
-35.3726

> <Gold.PLP.part.repulsive>
0.1281

> <Gold.PLP.ligand.clash>
0.0000

> <Gold.PLP.ligand.torsion>
0.4724

> <Gold.PLP.Chemscore.Hbond>
3.0000

> <Gold.PLP.Chemscore.CHOScore>
0.0000

> <Gold.PLP.Chemscore.Metal>
0.0000

> <Gold.Chemscore.Hbonds>
donor molecule, donor type, donor heavy atom, donor atom, acceptor molecule, acceptor atom, score
      L1  H    10    35       P1  8028  2.00
      P1  H  7989  7998       L1    18  0.85

> <Gold.PLP.Chemscore.Internal.Correction>
0.0055

> <Gold.Rescore>
     Score         DG    S(hbond)    S(metal)    S(lipo)     H(rot)  DE(clash)    DE(int)     intcor
     20.46     -21.35       1.82        0.00     112.79       1.33       0.07       0.81       ----

> <Gold.Chemscore.Fitness>
20.4593

> <Gold.Chemscore.DG>
-21.3453

> <Gold.Chemscore.ZeroCoef>
-5.4800

> <Gold.Chemscore.Hbond>
1.8185

> <Gold.Chemscore.Metal>
0.0000

> <Gold.Chemscore.Lipo>
112.7854

> <Gold.Chemscore.Internal_Hbond>
0.0000

> <Gold.Chemscore.DEClash>
0.0728

> <Gold.Chemscore.DEInternal>
0.8132

> <Gold.Chemscore.Rot>
1.3298

> <Gold.Chemscore.Internal.Correction>
   9.000000E+99

> <Gold.Chemscore.Hbonds>
donor molecule, donor type, donor heavy atom, donor atom, acceptor molecule, acceptor atom, score
      L1  H    10    35       P1  8028  0.95
      P1  H  7989  7998       L1    18  0.05

> <Gold.Chemscore.Hbond.Weighted>
-6.0737

> <Gold.Chemscore.Metal.Weighted>
-0.0000

> <Gold.Chemscore.Lipo.Weighted>
-13.1959

> <Gold.Chemscore.Internal_Hbond.Weighted>
0.0000

> <Gold.Chemscore.DEClash.Weighted>
0.0728

> <Gold.Chemscore.DEInternal.Weighted>
0.8132

> <Gold.Chemscore.Rot.Weighted>
3.4043

> <Gold.Chemscore.Internal.Correction.Weighted>
   9.000000E+99

> <Gold.Protein.RotatedTorsions>
[ 6907 6896 6895 6894 ] final  -92.86 input  -60.11 | X-H torsion
[ 7974 7965 7964 7962 ] final   50.47 input  175.53 | X-H torsion
[ 8008 7997 7996 7995 ] final -123.70 input   59.86 | X-H torsion
[ 10167 10162 10161 10158 ] final -111.67 input  -65.29 | X-H torsion
[ 10718 10713 10712 10709 ] final -133.35 input   66.30 | X-H torsion
[ 10763 10752 10751 10750 ] final -157.46 input  -60.55 | X-H torsion
[ 11005 11000 10999 10996 ] final -113.27 input  -57.11 | X-H torsion

> <Gold.Protein.ActiveResidues>
 VAL166  LYS551  ARG553  GLY616  TRP617  ASP618  TYR619  PRO620  LYS621  CYS622 
 ASP623  PHE694  ASN695  SER759  ASP760  ASP761  ALA762  ILE779  LEU786  VAL792 
 PHE793  MET794  SER795  GLU796  ALA797  LYS798  CYS799  TRP800  GLU811  SER814 

> <Gold.Protein.RotatedAtoms>
  150.6913  134.2056  159.4338 H   0  0  0  0  0  0  0  0  0  0  0  0  # atno 6907 bound_to 6896
  152.0020  134.9920  160.0574 H   0  0  0  0  0  0  0  0  0  0  0  0  # atno 6908 bound_to 6896
  152.1569  133.4522  159.4878 H   0  0  0  0  0  0  0  0  0  0  0  0  # atno 6909 bound_to 6896
  146.0009  139.4438  143.0016 H   0  0  0  0  0  0  0  0  0  0  0  0  # atno 7974 bound_to 7965
  155.1849  140.0411  157.2889 H   0  0  0  0  0  0  0  0  0  0  0  0  # atno 8008 bound_to 7997
  154.6178  140.2493  155.7559 H   0  0  0  0  0  0  0  0  0  0  0  0  # atno 8009 bound_to 7997
  156.2416  140.2901  156.0472 H   0  0  0  0  0  0  0  0  0  0  0  0  # atno 8010 bound_to 7997
  140.1311  143.4360  152.1626 H   0  0  0  0  0  0  0  0  0  0  0  0  # atno 10167 bound_to 10162
  156.2440  130.7113  151.0986 H   0  0  0  0  0  0  0  0  0  0  0  0  # atno 10718 bound_to 10713
  154.7634  135.3124  154.8334 H   0  0  0  0  0  0  0  0  0  0  0  0  # atno 10763 bound_to 10752
  153.9089  135.6808  153.4756 H   0  0  0  0  0  0  0  0  0  0  0  0  # atno 10764 bound_to 10752
  153.1237  135.4811  154.9169 H   0  0  0  0  0  0  0  0  0  0  0  0  # atno 10765 bound_to 10752
  141.0625  133.9513  157.2641 H   0  0  0  0  0  0  0  0  0  0  0  0  # atno 11005 bound_to 11000
  145.7489  140.9980  143.1261 LP  0  0  0  0  0  0  0  0  0  0  0  0  # atno 17320 bound_to 7965
  144.6919  139.9190  143.7467 LP  0  0  0  0  0  0  0  0  0  0  0  0  # atno 17321 bound_to 7965
  139.5519  144.7344  151.4409 LP  0  0  0  0  0  0  0  0  0  0  0  0  # atno 17342 bound_to 10162
  140.6816  143.8068  150.7129 LP  0  0  0  0  0  0  0  0  0  0  0  0  # atno 17343 bound_to 10162
  157.7187  131.0694  150.6223 LP  0  0  0  0  0  0  0  0  0  0  0  0  # atno 17370 bound_to 10713
  156.6298  130.4429  149.5791 LP  0  0  0  0  0  0  0  0  0  0  0  0  # atno 17371 bound_to 10713
  139.9445  135.0186  156.8811 LP  0  0  0  0  0  0  0  0  0  0  0  0  # atno 17394 bound_to 11000
  140.5841  134.0324  155.7475 LP  0  0  0  0  0  0  0  0  0  0  0  0  # atno 17395 bound_to 11000

$$$$
