AV-unprocessed.smi:1948|AV-procd|sdf|7876|dock8
  -GOLD-   2272010 23D 1   1.00000     0.00000
 Structure written by MMmdl.
 29 30  0  0  0  0  0  0  0  0  2 V2000
  151.0301  139.5008  158.7530 O   0  0  0  0  0  0  0  0  0  0  0  0
  152.0183  139.9719  158.1852 C   0  0  0  0  0  0  0  0  0  0  0  0
  152.8615  139.3069  157.3624 N   0  5  0  0  0  0  0  0  0  0  0  0
  152.3872  138.7007  156.2615 C   0  0  0  0  0  0  0  0  0  0  0  0
  153.0371  137.6902  155.6615 N   0  0  0  0  0  0  0  0  0  0  0  0
  152.3743  137.2018  154.5436 N   0  0  0  0  0  0  0  0  0  0  0  0
  151.2320  137.8552  154.3323 C   0  0  0  0  0  0  0  0  0  0  0  0
  150.8597  139.1222  155.4819 S   0  0  0  0  0  0  0  0  0  0  0  0
  152.3412  141.2615  158.3615 N   0  0  0  0  0  0  0  0  0  0  0  0
  151.6254  142.2226  159.1968 C   0  0  2  0  0  0  0  0  0  0  0  0
  150.7943  143.1881  158.3281 C   0  0  0  0  0  0  0  0  0  0  0  0
  150.0811  144.2475  159.1866 C   0  0  0  0  0  0  0  0  0  0  0  0
  151.0559  145.0164  160.0986 C   0  0  2  0  0  0  0  0  0  0  0  0
  151.8777  145.8682  159.3247 O   0  0  0  0  0  0  0  0  0  0  0  0
  151.9264  144.0588  160.9337 C   0  0  0  0  0  0  0  0  0  0  0  0
  152.6304  143.0020  160.0642 C   0  0  0  0  0  0  0  0  0  0  0  0
  150.6027  137.5866  153.4972 H   0  0  0  0  0  0  0  0  0  0  0  0
  153.1565  141.6031  157.8742 H   0  0  0  0  0  0  0  0  0  0  0  0
  150.9537  141.6801  159.8651 H   0  0  0  0  0  0  0  0  0  0  0  0
  151.4416  143.6814  157.6015 H   0  0  0  0  0  0  0  0  0  0  0  0
  150.0550  142.6324  157.7504 H   0  0  0  0  0  0  0  0  0  0  0  0
  149.5320  144.9403  158.5481 H   0  0  0  0  0  0  0  0  0  0  0  0
  149.3339  143.7505  159.8066 H   0  0  0  0  0  0  0  0  0  0  0  0
  150.4840  145.6555  160.7721 H   0  0  0  0  0  0  0  0  0  0  0  0
  151.5759  145.8449  158.4296 H   0  0  0  0  0  0  0  0  0  0  0  0
  152.6620  144.6212  161.5099 H   0  0  0  0  0  0  0  0  0  0  0  0
  151.2947  143.5500  161.6631 H   0  0  0  0  0  0  0  0  0  0  0  0
  153.1833  142.3131  160.7038 H   0  0  0  0  0  0  0  0  0  0  0  0
  153.3699  143.4891  159.4267 H   0  0  0  0  0  0  0  0  0  0  0  0
  1  2  2  0  0  0  0
  2  3  1  0  0  0  0
  2  9  1  0  0  0  0
  3  4  1  0  0  0  0
  4  8  1  0  0  0  0
  4  5  2  0  0  0  0
  5  6  1  0  0  0  0
  6  7  2  0  0  0  0
  7  8  1  0  0  0  0
  7 17  1  0  0  0  0
  9 10  1  0  0  0  0
  9 18  1  0  0  0  0
 10 16  1  0  0  0  0
 10 11  1  0  0  0  0
 10 19  1  0  0  0  0
 11 12  1  0  0  0  0
 11 20  1  0  0  0  0
 11 21  1  0  0  0  0
 12 13  1  0  0  0  0
 12 22  1  0  0  0  0
 12 23  1  0  0  0  0
 13 14  1  0  0  0  0
 13 15  1  0  0  0  0
 13 24  1  0  0  0  0
 14 25  1  0  0  0  0
 15 16  1  0  0  0  0
 15 26  1  0  0  0  0
 15 27  1  0  0  0  0
 16 28  1  0  0  0  0
 16 29  1  0  0  0  0
M  CHG  1   3  -1
M  END
> <s_m_source_file>
AV-unprocessed.smi

> <i_m_source_file_index>
1948

> <i_lp_mmshare_version>
43012

> <i_f3d_flags>
0

> <s_epik_input>
czFbY0hdbm5jMVtOSF1DKD1PKVtOSF1bQ0BASF0yW0NIMl1bQ0gyXVtDQEBIXShbT0hdKVtDSDJdW0NIMl0y

> <s_epik_cmdline>
J2VwaWtfcHl0aG9uJywgJy1waCcsICc3LjAnLCAnLXRuJywgJzgnLCAnLW1hJywgJzIwMCcsICctbWV0YWxfYmluZGluZycsICctaW1hZScsICc8aW5maWxlLm1hZT4nLCAnLW9tYWUnLCAnPG91dGZpbGUubWFlPic=

> <r_lp_tautomer_probability>
1

> <r_epik_Ionization_Penalty>
4.52057

> <r_epik_Ionization_Penalty_Charging>
4.4725

> <r_epik_Ionization_Penalty_Neutral>
0.048076

> <r_epik_State_Penalty>
4.47218

> <r_epik_Charging_Adjusted_Penalty>
8.94468

> <i_epik_Tot_Q>
-1

> <i_epik_Tot_abs_Q>
1

> <r_epik_Metal_State_Penalty>
0.805713

> <b_epik_Metal_Only>
1

> <s_lp_Force_Field>
OPLS_2005

> <r_lp_Energy>
8.18749

> <b_lp_Chiralities_Consistent>
1

> <s_lp_Variant>
AV-unprocessed.smi:1948-4

> <Gold.Version>
5.8.1

> <Gold.Id.Protein>
6NUR|6NUR_protein|mol2

> <Gold.PLP.Fitness>
42.2424

> <Gold.PLP.PLP>
-32.4279

> <Gold.PLP.part.hbond>
-4.0000

> <Gold.PLP.part.metal>
0.0000

> <Gold.PLP.part.buried>
-7.1532

> <Gold.PLP.part.nonpolar>
-23.0339

> <Gold.PLP.part.repulsive>
0.2420

> <Gold.PLP.ligand.clash>
0.0000

> <Gold.PLP.ligand.torsion>
0.8137

> <Gold.PLP.Chemscore.Hbond>
2.7840

> <Gold.PLP.Chemscore.CHOScore>
1.0277

> <Gold.PLP.Chemscore.Metal>
0.0000

> <Gold.Chemscore.Hbonds>
donor molecule, donor type, donor heavy atom, donor atom, acceptor molecule, acceptor atom, score
      P1  H  7997  8008       L1     3  2.00
      P1  H 10752 10763       L1     6  0.64
      L1  C     7    17       P1  7948  0.47
      L1  C     7    17       P1  7949  0.49

> <Gold.PLP.Chemscore.Internal.Correction>
0.0069

> <Gold.Rescore>
     Score         DG    S(hbond)    S(metal)    S(lipo)     H(rot)  DE(clash)    DE(int)     intcor
     13.92     -14.63       1.37        0.00      72.65       1.53       0.21       0.51       ----

> <Gold.Chemscore.Fitness>
13.9178

> <Gold.Chemscore.DG>
-14.6341

> <Gold.Chemscore.ZeroCoef>
-5.4800

> <Gold.Chemscore.Hbond>
1.3713

> <Gold.Chemscore.Metal>
0.0000

> <Gold.Chemscore.Lipo>
72.6499

> <Gold.Chemscore.Internal_Hbond>
0.0000

> <Gold.Chemscore.DEClash>
0.2102

> <Gold.Chemscore.DEInternal>
0.5061

> <Gold.Chemscore.Rot>
1.5337

> <Gold.Chemscore.Internal.Correction>
   9.000000E+99

> <Gold.Chemscore.Hbonds>
donor molecule, donor type, donor heavy atom, donor atom, acceptor molecule, acceptor atom, score
      P1  H  7997  8008       L1     3  0.30
      P1  H 10752 10763       L1     6  0.48

> <Gold.Chemscore.Hbond.Weighted>
-4.5802

> <Gold.Chemscore.Metal.Weighted>
-0.0000

> <Gold.Chemscore.Lipo.Weighted>
-8.5000

> <Gold.Chemscore.Internal_Hbond.Weighted>
0.0000

> <Gold.Chemscore.DEClash.Weighted>
0.2102

> <Gold.Chemscore.DEInternal.Weighted>
0.5061

> <Gold.Chemscore.Rot.Weighted>
3.9262

> <Gold.Chemscore.Internal.Correction.Weighted>
   9.000000E+99

> <Gold.Protein.RotatedTorsions>
[ 6907 6896 6895 6894 ] final   23.01 input  -60.11 | X-H torsion
[ 7974 7965 7964 7962 ] final   35.96 input  175.53 | X-H torsion
[ 8008 7997 7996 7995 ] final  -63.25 input   59.86 | X-H torsion
[ 10167 10162 10161 10158 ] final  105.69 input  -65.29 | X-H torsion
[ 10718 10713 10712 10709 ] final -150.30 input   66.30 | X-H torsion
[ 10763 10752 10751 10750 ] final   27.11 input  -60.55 | X-H torsion
[ 11005 11000 10999 10996 ] final  -44.63 input  -57.11 | X-H torsion

> <Gold.Protein.ActiveResidues>
 VAL166  LYS551  ARG553  GLY616  TRP617  ASP618  TYR619  PRO620  LYS621  CYS622 
 ASP623  PHE694  ASN695  SER759  ASP760  ASP761  ALA762  ILE779  LEU786  VAL792 
 PHE793  MET794  SER795  GLU796  ALA797  LYS798  CYS799  TRP800  GLU811  SER814 

> <Gold.Protein.RotatedAtoms>
  151.9358  135.0236  160.0532 H   0  0  0  0  0  0  0  0  0  0  0  0  # atno 6907 bound_to 6896
  152.2079  133.4884  159.5102 H   0  0  0  0  0  0  0  0  0  0  0  0  # atno 6908 bound_to 6896
  150.6969  134.1422  159.4152 H   0  0  0  0  0  0  0  0  0  0  0  0  # atno 6909 bound_to 6896
  146.1245  139.6077  142.9267 H   0  0  0  0  0  0  0  0  0  0  0  0  # atno 7974 bound_to 7965
  154.4544  140.0979  156.6714 H   0  0  0  0  0  0  0  0  0  0  0  0  # atno 8008 bound_to 7997
  155.5184  140.3478  155.4383 H   0  0  0  0  0  0  0  0  0  0  0  0  # atno 8009 bound_to 7997
  156.0748  140.1358  156.9774 H   0  0  0  0  0  0  0  0  0  0  0  0  # atno 8010 bound_to 7997
  139.7071  144.7084  151.1088 H   0  0  0  0  0  0  0  0  0  0  0  0  # atno 10167 bound_to 10162
  156.4444  130.8137  151.2367 H   0  0  0  0  0  0  0  0  0  0  0  0  # atno 10718 bound_to 10713
  153.0577  135.6544  154.0537 H   0  0  0  0  0  0  0  0  0  0  0  0  # atno 10763 bound_to 10752
  154.0212  135.2919  155.3382 H   0  0  0  0  0  0  0  0  0  0  0  0  # atno 10764 bound_to 10752
  154.6900  135.5286  153.8447 H   0  0  0  0  0  0  0  0  0  0  0  0  # atno 10765 bound_to 10752
  141.0463  133.6760  156.2899 H   0  0  0  0  0  0  0  0  0  0  0  0  # atno 11005 bound_to 11000
  145.5394  141.0422  143.2339 LP  0  0  0  0  0  0  0  0  0  0  0  0  # atno 17320 bound_to 7965
  144.7629  139.6913  143.7227 LP  0  0  0  0  0  0  0  0  0  0  0  0  # atno 17321 bound_to 7965
  140.7724  143.5343  150.9387 LP  0  0  0  0  0  0  0  0  0  0  0  0  # atno 17342 bound_to 10162
  139.9027  143.6817  152.3128 LP  0  0  0  0  0  0  0  0  0  0  0  0  # atno 17343 bound_to 10162
  157.7505  131.0158  150.3518 LP  0  0  0  0  0  0  0  0  0  0  0  0  # atno 17370 bound_to 10713
  156.3883  130.3893  149.7049 LP  0  0  0  0  0  0  0  0  0  0  0  0  # atno 17371 bound_to 10713
  140.6140  134.5429  157.5538 LP  0  0  0  0  0  0  0  0  0  0  0  0  # atno 17394 bound_to 11000
  139.9314  134.7956  156.0920 LP  0  0  0  0  0  0  0  0  0  0  0  0  # atno 17395 bound_to 11000

$$$$
