AV-unprocessed.smi:743|AV-procd|sdf|3566|dock5
  -GOLD-   22720 0563D 1   1.00000     0.00000
 Structure written by MMmdl.
 28 29  0  0  0  0  0  0  0  0  1 V2000
  151.7063  144.6938  159.7639 C   0  0  0  0  0  0  0  0  0  0  0  0
  151.5998  143.5284  158.9124 N   0  0  0  0  0  0  0  0  0  0  0  0
  151.2427  143.4658  157.5830 C   0  0  0  0  0  0  0  0  0  0  0  0
  151.2900  142.1535  157.2023 C   0  0  0  0  0  0  0  0  0  0  0  0
  150.9950  141.5588  155.8451 C   0  0  2  0  0  0  0  0  0  0  0  0
  149.6932  142.0189  155.3513 N   0  0  0  0  0  0  0  0  0  0  0  0
  148.7855  141.3039  154.6624 C   0  0  0  0  0  0  0  0  0  0  0  0
  147.7446  141.8130  154.2536 O   0  0  0  0  0  0  0  0  0  0  0  0
  149.0440  139.8115  154.4116 C   0  0  0  0  0  0  0  0  0  0  0  0
  150.5164  139.4129  154.5883 C   0  0  0  0  0  0  0  0  0  0  0  0
  151.0861  140.0144  155.8781 C   0  0  1  0  0  0  0  0  0  0  0  0
  152.4588  139.5759  156.0561 N   0  0  0  0  0  0  0  0  0  0  0  0
  151.6961  141.4852  158.3948 C   0  0  0  0  0  0  0  0  0  0  0  0
  151.8795  142.3084  159.4136 N   0  0  0  0  0  0  0  0  0  0  0  0
  150.5040  139.6375  156.7207 H   0  0  0  0  0  0  0  0  0  0  0  0
  151.1321  145.5180  159.3403 H   0  0  0  0  0  0  0  0  0  0  0  0
  152.7515  144.9925  159.8448 H   0  0  0  0  0  0  0  0  0  0  0  0
  151.3192  144.4693  160.7587 H   0  0  0  0  0  0  0  0  0  0  0  0
  150.9898  144.3523  157.0201 H   0  0  0  0  0  0  0  0  0  0  0  0
  151.7211  141.9277  155.1186 H   0  0  0  0  0  0  0  0  0  0  0  0
  149.4765  142.9909  155.5181 H   0  0  0  0  0  0  0  0  0  0  0  0
  148.4274  139.2481  155.1128 H   0  0  0  0  0  0  0  0  0  0  0  0
  148.7017  139.5452  153.4108 H   0  0  0  0  0  0  0  0  0  0  0  0
  150.5974  138.3253  154.6084 H   0  0  0  0  0  0  0  0  0  0  0  0
  151.0947  139.7518  153.7271 H   0  0  0  0  0  0  0  0  0  0  0  0
  152.5411  139.0685  156.9255 H   0  0  0  0  0  0  0  0  0  0  0  0
  152.7045  138.9271  155.3222 H   0  0  0  0  0  0  0  0  0  0  0  0
  151.8647  140.4293  158.5479 H   0  0  0  0  0  0  0  0  0  0  0  0
  1  2  1  0  0  0  0
  1 16  1  0  0  0  0
  1 17  1  0  0  0  0
  1 18  1  0  0  0  0
  2 14  1  0  0  0  0
  2  3  1  0  0  0  0
  3  4  2  0  0  0  0
  3 19  1  0  0  0  0
  4  5  1  0  0  0  0
  4 13  1  0  0  0  0
  5 11  1  0  0  0  0
  5  6  1  0  0  0  0
  5 20  1  0  0  0  0
  6  7  1  0  0  0  0
  6 21  1  0  0  0  0
  7  8  2  0  0  0  0
  7  9  1  0  0  0  0
  9 10  1  0  0  0  0
  9 22  1  0  0  0  0
  9 23  1  0  0  0  0
 10 11  1  0  0  0  0
 10 24  1  0  0  0  0
 10 25  1  0  0  0  0
 11 15  1  0  0  0  0
 11 12  1  0  0  0  0
 12 26  1  0  0  0  0
 12 27  1  0  0  0  0
 13 14  2  0  0  0  0
 13 28  1  0  0  0  0
M  END
> <s_m_source_file>
AV-unprocessed.smi

> <i_m_source_file_index>
743

> <i_lp_mmshare_version>
43012

> <i_f3d_flags>
0

> <s_epik_input>
W0NIM11uMVtjSF1jKFtjSF1uMSlbQ0BASF0yW05IXUMoPU8pW0NIMl1bQ0gyXVtDQEBIXTJbTkgyXQ==

> <s_epik_cmdline>
J2VwaWtfcHl0aG9uJywgJy1waCcsICc3LjAnLCAnLXRuJywgJzgnLCAnLW1hJywgJzIwMCcsICctbWV0YWxfYmluZGluZycsICctaW1hZScsICc8aW5maWxlLm1hZT4nLCAnLW9tYWUnLCAnPG91dGZpbGUubWFlPic=

> <r_lp_tautomer_probability>
1

> <r_epik_Ionization_Penalty>
2.50279

> <r_epik_Ionization_Penalty_Charging>
0

> <r_epik_Ionization_Penalty_Neutral>
2.50279

> <r_epik_State_Penalty>
2.66754

> <r_epik_Charging_Adjusted_Penalty>
2.66754

> <i_epik_Tot_Q>
0

> <i_epik_Tot_abs_Q>
0

> <r_epik_Metal_State_Penalty>
2.66721

> <b_epik_Metal_Only>
0

> <s_lp_Force_Field>
OPLS_2005

> <r_lp_Energy>
8.43832

> <b_lp_Chiralities_Consistent>
1

> <s_lp_Variant>
AV-unprocessed.smi:743-7

> <Gold.Version>
5.8.1

> <Gold.Id.Protein>
6NUR|6NUR_protein|mol2

> <Gold.PLP.Fitness>
36.8951

> <Gold.PLP.PLP>
-30.2624

> <Gold.PLP.part.hbond>
-2.0000

> <Gold.PLP.part.metal>
0.0000

> <Gold.PLP.part.buried>
-4.6615

> <Gold.PLP.part.nonpolar>
-23.7088

> <Gold.PLP.part.repulsive>
0.3366

> <Gold.PLP.ligand.clash>
0.0000

> <Gold.PLP.ligand.torsion>
0.0901

> <Gold.PLP.Chemscore.Hbond>
1.3250

> <Gold.PLP.Chemscore.CHOScore>
0.9374

> <Gold.PLP.Chemscore.Metal>
0.0000

> <Gold.Chemscore.Hbonds>
donor molecule, donor type, donor heavy atom, donor atom, acceptor molecule, acceptor atom, score
      L1  H     6    21       P1  8028  1.00
      P1  H  7997  8008       L1    12  0.25
      L1  C     3    19       P1  8028  0.95

> <Gold.PLP.Chemscore.Internal.Correction>
0.0258

> <Gold.Rescore>
     Score         DG    S(hbond)    S(metal)    S(lipo)     H(rot)  DE(clash)    DE(int)     intcor
     14.18     -14.22       1.00        0.00      68.02       1.00       0.02       0.03       ----

> <Gold.Chemscore.Fitness>
14.1752

> <Gold.Chemscore.DG>
-14.2187

> <Gold.Chemscore.ZeroCoef>
-5.4800

> <Gold.Chemscore.Hbond>
1.0002

> <Gold.Chemscore.Metal>
0.0000

> <Gold.Chemscore.Lipo>
68.0174

> <Gold.Chemscore.Internal_Hbond>
0.0000

> <Gold.Chemscore.DEClash>
0.0168

> <Gold.Chemscore.DEInternal>
0.0267

> <Gold.Chemscore.Rot>
1.0000

> <Gold.Chemscore.Internal.Correction>
   9.000000E+99

> <Gold.Chemscore.Hbonds>
donor molecule, donor type, donor heavy atom, donor atom, acceptor molecule, acceptor atom, score
      L1  H     6    21       P1  8028  1.00

> <Gold.Chemscore.Hbond.Weighted>
-3.3407

> <Gold.Chemscore.Metal.Weighted>
-0.0000

> <Gold.Chemscore.Lipo.Weighted>
-7.9580

> <Gold.Chemscore.Internal_Hbond.Weighted>
0.0000

> <Gold.Chemscore.DEClash.Weighted>
0.0168

> <Gold.Chemscore.DEInternal.Weighted>
0.0267

> <Gold.Chemscore.Rot.Weighted>
2.5600

> <Gold.Chemscore.Internal.Correction.Weighted>
   9.000000E+99

> <Gold.Protein.RotatedTorsions>
[ 6907 6896 6895 6894 ] final  -99.00 input  -60.11 | X-H torsion
[ 7974 7965 7964 7962 ] final   48.54 input  175.53 | X-H torsion
[ 8008 7997 7996 7995 ] final  -36.97 input   59.86 | X-H torsion
[ 10167 10162 10161 10158 ] final  112.61 input  -65.29 | X-H torsion
[ 10718 10713 10712 10709 ] final  165.88 input   66.30 | X-H torsion
[ 10763 10752 10751 10750 ] final  -18.23 input  -60.55 | X-H torsion
[ 11005 11000 10999 10996 ] final   97.67 input  -57.11 | X-H torsion

> <Gold.Protein.ActiveResidues>
 VAL166  LYS551  ARG553  GLY616  TRP617  ASP618  TYR619  PRO620  LYS621  CYS622 
 ASP623  PHE694  ASN695  SER759  ASP760  ASP761  ALA762  ILE779  LEU786  VAL792 
 PHE793  MET794  SER795  GLU796  ALA797  LYS798  CYS799  TRP800  GLU811  SER814 

> <Gold.Protein.RotatedAtoms>
  150.7065  134.1107  159.3999 H   0  0  0  0  0  0  0  0  0  0  0  0  # atno 6907 bound_to 6896
  151.9094  135.0343  160.0522 H   0  0  0  0  0  0  0  0  0  0  0  0  # atno 6908 bound_to 6896
  152.2348  133.5052  159.5273 H   0  0  0  0  0  0  0  0  0  0  0  0  # atno 6909 bound_to 6896
  146.0195  139.4634  142.9906 H   0  0  0  0  0  0  0  0  0  0  0  0  # atno 7974 bound_to 7965
  154.4062  140.1616  156.2460 H   0  0  0  0  0  0  0  0  0  0  0  0  # atno 8008 bound_to 7997
  155.9160  140.3424  155.6113 H   0  0  0  0  0  0  0  0  0  0  0  0  # atno 8009 bound_to 7997
  155.7279  140.0776  157.2292 H   0  0  0  0  0  0  0  0  0  0  0  0  # atno 8010 bound_to 7997
  139.6523  144.7128  151.2025 H   0  0  0  0  0  0  0  0  0  0  0  0  # atno 10167 bound_to 10162
  157.0739  131.0373  151.2601 H   0  0  0  0  0  0  0  0  0  0  0  0  # atno 10718 bound_to 10713
  153.5860  135.7004  153.5443 H   0  0  0  0  0  0  0  0  0  0  0  0  # atno 10763 bound_to 10752
  153.3219  135.4071  155.1423 H   0  0  0  0  0  0  0  0  0  0  0  0  # atno 10764 bound_to 10752
  154.8609  135.3697  154.5390 H   0  0  0  0  0  0  0  0  0  0  0  0  # atno 10765 bound_to 10752
  139.8775  134.9012  156.4342 H   0  0  0  0  0  0  0  0  0  0  0  0  # atno 11005 bound_to 11000
  145.7216  141.0073  143.1399 LP  0  0  0  0  0  0  0  0  0  0  0  0  # atno 17320 bound_to 7965
  144.6984  139.8877  143.7451 LP  0  0  0  0  0  0  0  0  0  0  0  0  # atno 17321 bound_to 7965
  140.7543  143.6130  150.8587 LP  0  0  0  0  0  0  0  0  0  0  0  0  # atno 17342 bound_to 10162
  139.9779  143.5983  152.2952 LP  0  0  0  0  0  0  0  0  0  0  0  0  # atno 17343 bound_to 10162
  157.4856  130.7791  149.7456 LP  0  0  0  0  0  0  0  0  0  0  0  0  # atno 17370 bound_to 10713
  155.9942  130.3919  150.2866 LP  0  0  0  0  0  0  0  0  0  0  0  0  # atno 17371 bound_to 10713
  140.9045  133.7755  155.9719 LP  0  0  0  0  0  0  0  0  0  0  0  0  # atno 17394 bound_to 11000
  140.8614  134.2836  157.5232 LP  0  0  0  0  0  0  0  0  0  0  0  0  # atno 17395 bound_to 11000

$$$$
