AV-unprocessed.smi:1180|AV-procd|sdf|4963|dock8
  -GOLD-   22720 3553D 1   1.00000     0.00000
 Structure written by MMmdl.
 38 39  0  0  0  0  0  0  0  0  1 V2000
  147.1722  139.4127  153.0140 C   0  0  0  0  0  0  0  0  0  0  0  0
  148.4345  139.5847  153.8311 C   0  0  0  0  0  0  0  0  0  0  0  0
  149.2661  138.4775  153.8082 N   0  0  0  0  0  0  0  0  0  0  0  0
  150.4528  138.5426  154.5169 C   0  0  0  0  0  0  0  0  0  0  0  0
  151.3068  137.2901  154.4247 C   0  0  0  0  0  0  0  0  0  0  0  0
  150.7910  139.6545  155.2189 C   0  0  0  0  0  0  0  0  0  0  0  0
  152.0891  139.7786  156.0137 C   0  0  0  0  0  0  0  0  0  0  0  0
  151.9157  139.9528  157.5227 C   0  0  0  0  0  0  0  0  0  0  0  0
  151.4215  139.0491  158.1959 O   0  0  0  0  0  0  0  0  0  0  0  0
  152.3253  141.1225  158.0372 N   0  0  0  0  0  0  0  0  0  0  0  0
  152.2441  141.5080  159.4422 C   0  0  0  0  0  0  0  0  0  0  0  0
  152.5569  143.0021  159.6481 C   0  0  1  0  0  0  0  0  0  0  0  0
  151.9073  143.9091  158.6232 C   0  0  0  0  0  0  0  0  0  0  0  0
  151.9889  145.2706  159.3074 C   0  0  0  0  0  0  0  0  0  0  0  0
  151.9201  145.0092  160.7062 O   0  0  0  0  0  0  0  0  0  0  0  0
  152.0229  143.6092  160.9469 C   0  0  0  0  0  0  0  0  0  0  0  0
  149.8529  140.8021  155.2174 C   0  0  0  0  0  0  0  0  0  0  0  0
  150.0933  141.8290  155.8514 O   0  0  0  0  0  0  0  0  0  0  0  0
  148.6673  140.6886  154.4736 N   0  0  0  0  0  0  0  0  0  0  0  0
  149.0553  137.6333  153.2955 H   0  0  0  0  0  0  0  0  0  0  0  0
  146.5534  140.3100  153.0578 H   0  0  0  0  0  0  0  0  0  0  0  0
  146.5851  138.5756  153.3928 H   0  0  0  0  0  0  0  0  0  0  0  0
  147.4186  139.2193  151.9694 H   0  0  0  0  0  0  0  0  0  0  0  0
  151.4740  136.8666  155.4148 H   0  0  0  0  0  0  0  0  0  0  0  0
  152.2744  137.5190  153.9780 H   0  0  0  0  0  0  0  0  0  0  0  0
  150.8306  136.5240  153.8115 H   0  0  0  0  0  0  0  0  0  0  0  0
  152.6949  140.5955  155.6186 H   0  0  0  0  0  0  0  0  0  0  0  0
  152.6974  138.8892  155.8510 H   0  0  0  0  0  0  0  0  0  0  0  0
  152.7183  141.8029  157.4029 H   0  0  0  0  0  0  0  0  0  0  0  0
  151.2284  141.3010  159.7797 H   0  0  0  0  0  0  0  0  0  0  0  0
  152.9001  140.8870  160.0549 H   0  0  0  0  0  0  0  0  0  0  0  0
  153.6369  143.1552  159.6076 H   0  0  0  0  0  0  0  0  0  0  0  0
  152.4078  143.8913  157.6547 H   0  0  0  0  0  0  0  0  0  0  0  0
  150.8635  143.6295  158.4730 H   0  0  0  0  0  0  0  0  0  0  0  0
  152.9455  145.7481  159.0919 H   0  0  0  0  0  0  0  0  0  0  0  0
  151.1941  145.9449  158.9876 H   0  0  0  0  0  0  0  0  0  0  0  0
  151.0262  143.2265  161.1709 H   0  0  0  0  0  0  0  0  0  0  0  0
  152.6654  143.4001  161.8025 H   0  0  0  0  0  0  0  0  0  0  0  0
  1 21  1  0  0  0  0
  1 22  1  0  0  0  0
  1 23  1  0  0  0  0
  1  2  1  0  0  0  0
  2  3  1  0  0  0  0
  2 19  2  0  0  0  0
  3  4  1  0  0  0  0
  3 20  1  0  0  0  0
  4  6  2  0  0  0  0
  4  5  1  0  0  0  0
  5 24  1  0  0  0  0
  5 25  1  0  0  0  0
  5 26  1  0  0  0  0
  6 17  1  0  0  0  0
  6  7  1  0  0  0  0
  7  8  1  0  0  0  0
  7 27  1  0  0  0  0
  7 28  1  0  0  0  0
  8  9  2  0  0  0  0
  8 10  1  0  0  0  0
 10 11  1  0  0  0  0
 10 29  1  0  0  0  0
 11 12  1  0  0  0  0
 11 30  1  0  0  0  0
 11 31  1  0  0  0  0
 12 16  1  0  0  0  0
 12 13  1  0  0  0  0
 12 32  1  0  0  0  0
 13 14  1  0  0  0  0
 13 33  1  0  0  0  0
 13 34  1  0  0  0  0
 14 15  1  0  0  0  0
 14 35  1  0  0  0  0
 14 36  1  0  0  0  0
 15 16  1  0  0  0  0
 16 37  1  0  0  0  0
 16 38  1  0  0  0  0
 17 18  2  0  0  0  0
 17 19  1  0  0  0  0
M  END
> <s_m_source_file>
AV-unprocessed.smi

> <i_m_source_file_index>
1180

> <i_lp_mmshare_version>
43012

> <i_f3d_flags>
0

> <s_epik_input>
W0NIM11jMW5jKFtDSDNdKWMoYyg9TylbbkhdMSlbQ0gyXUMoPU8pW05IXVtDSDJdW0NAQEhdMltDSDJdW0NIMl1PW0NIMl0y

> <s_epik_cmdline>
J2VwaWtfcHl0aG9uJywgJy1waCcsICc3LjAnLCAnLXRuJywgJzgnLCAnLW1hJywgJzIwMCcsICctbWV0YWxfYmluZGluZycsICctaW1hZScsICc8aW5maWxlLm1hZT4nLCAnLW9tYWUnLCAnPG91dGZpbGUubWFlPic=

> <r_lp_tautomer_probability>
0.156392

> <r_epik_Ionization_Penalty>
0.014237

> <r_epik_Ionization_Penalty_Charging>
0.0141173

> <r_epik_Ionization_Penalty_Neutral>
0.000119724

> <r_epik_State_Penalty>
1.52876

> <r_epik_Charging_Adjusted_Penalty>
1.54288

> <i_epik_Tot_Q>
0

> <i_epik_Tot_abs_Q>
0

> <r_epik_Metal_State_Penalty>
1.70686

> <b_epik_Metal_Only>
0

> <s_lp_Force_Field>
OPLS_2005

> <r_lp_Energy>
23.3722

> <b_lp_Chiralities_Consistent>
1

> <s_lp_Variant>
AV-unprocessed.smi:1180-4

> <Gold.Version>
5.8.1

> <Gold.Id.Protein>
6NUR|6NUR_protein|mol2

> <Gold.PLP.Fitness>
41.8588

> <Gold.PLP.PLP>
-39.3704

> <Gold.PLP.part.hbond>
-2.0000

> <Gold.PLP.part.metal>
0.0000

> <Gold.PLP.part.buried>
-1.8869

> <Gold.PLP.part.nonpolar>
-37.4436

> <Gold.PLP.part.repulsive>
1.1181

> <Gold.PLP.ligand.clash>
0.0000

> <Gold.PLP.ligand.torsion>
0.2615

> <Gold.PLP.Chemscore.Hbond>
1.0000

> <Gold.PLP.Chemscore.CHOScore>
0.0000

> <Gold.PLP.Chemscore.Metal>
0.0000

> <Gold.Chemscore.Hbonds>
donor molecule, donor type, donor heavy atom, donor atom, acceptor molecule, acceptor atom, score
      L1  H     3    20       P1  7948  1.00

> <Gold.PLP.Chemscore.Internal.Correction>
0.0114

> <Gold.Rescore>
     Score         DG    S(hbond)    S(metal)    S(lipo)     H(rot)  DE(clash)    DE(int)     intcor
     14.95     -15.17       0.97        0.00      94.75       1.81       0.06       0.15       ----

> <Gold.Chemscore.Fitness>
14.9515

> <Gold.Chemscore.DG>
-15.1678

> <Gold.Chemscore.ZeroCoef>
-5.4800

> <Gold.Chemscore.Hbond>
0.9661

> <Gold.Chemscore.Metal>
0.0000

> <Gold.Chemscore.Lipo>
94.7491

> <Gold.Chemscore.Internal_Hbond>
0.0000

> <Gold.Chemscore.DEClash>
0.0638

> <Gold.Chemscore.DEInternal>
0.1526

> <Gold.Chemscore.Rot>
1.8065

> <Gold.Chemscore.Internal.Correction>
   9.000000E+99

> <Gold.Chemscore.Hbonds>
donor molecule, donor type, donor heavy atom, donor atom, acceptor molecule, acceptor atom, score
      L1  H     3    20       P1  7948  0.97

> <Gold.Chemscore.Hbond.Weighted>
-3.2268

> <Gold.Chemscore.Metal.Weighted>
-0.0000

> <Gold.Chemscore.Lipo.Weighted>
-11.0856

> <Gold.Chemscore.Internal_Hbond.Weighted>
0.0000

> <Gold.Chemscore.DEClash.Weighted>
0.0638

> <Gold.Chemscore.DEInternal.Weighted>
0.1526

> <Gold.Chemscore.Rot.Weighted>
4.6246

> <Gold.Chemscore.Internal.Correction.Weighted>
   9.000000E+99

> <Gold.Protein.RotatedTorsions>
[ 6907 6896 6895 6894 ] final   -0.91 input  -60.11 | X-H torsion
[ 7974 7965 7964 7962 ] final  -51.18 input  175.53 | X-H torsion
[ 8008 7997 7996 7995 ] final   -3.72 input   59.86 | X-H torsion
[ 10167 10162 10161 10158 ] final   75.94 input  -65.29 | X-H torsion
[ 10718 10713 10712 10709 ] final  170.12 input   66.30 | X-H torsion
[ 10763 10752 10751 10750 ] final -160.61 input  -60.55 | X-H torsion
[ 11005 11000 10999 10996 ] final   -7.60 input  -57.11 | X-H torsion

> <Gold.Protein.ActiveResidues>
 VAL166  LYS551  ARG553  GLY616  TRP617  ASP618  TYR619  PRO620  LYS621  CYS622 
 ASP623  PHE694  ASN695  SER759  ASP760  ASP761  ALA762  ILE779  LEU786  VAL792 
 PHE793  MET794  SER795  GLU796  ALA797  LYS798  CYS799  TRP800  GLU811  SER814 

> <Gold.Protein.RotatedAtoms>
  151.5545  135.1067  159.9957 H   0  0  0  0  0  0  0  0  0  0  0  0  # atno 6907 bound_to 6896
  152.4476  133.7561  159.6732 H   0  0  0  0  0  0  0  0  0  0  0  0  # atno 6908 bound_to 6896
  150.8395  133.7891  159.3090 H   0  0  0  0  0  0  0  0  0  0  0  0  # atno 6909 bound_to 6896
  145.9218  140.7827  142.9644 H   0  0  0  0  0  0  0  0  0  0  0  0  # atno 7974 bound_to 7965
  154.6219  140.2502  155.7539 H   0  0  0  0  0  0  0  0  0  0  0  0  # atno 8008 bound_to 7997
  156.2431  140.2925  156.0450 H   0  0  0  0  0  0  0  0  0  0  0  0  # atno 8009 bound_to 7997
  155.1883  140.0391  157.2886 H   0  0  0  0  0  0  0  0  0  0  0  0  # atno 8010 bound_to 7997
  139.9976  144.5710  150.7764 H   0  0  0  0  0  0  0  0  0  0  0  0  # atno 10167 bound_to 10162
  157.0128  131.0209  151.2798 H   0  0  0  0  0  0  0  0  0  0  0  0  # atno 10718 bound_to 10713
  154.7375  135.3061  154.8786 H   0  0  0  0  0  0  0  0  0  0  0  0  # atno 10763 bound_to 10752
  153.9610  135.6753  153.4749 H   0  0  0  0  0  0  0  0  0  0  0  0  # atno 10764 bound_to 10752
  153.0976  135.4927  154.8732 H   0  0  0  0  0  0  0  0  0  0  0  0  # atno 10765 bound_to 10752
  140.7145  133.8881  155.8775 H   0  0  0  0  0  0  0  0  0  0  0  0  # atno 11005 bound_to 11000
  144.6754  140.1987  143.7389 LP  0  0  0  0  0  0  0  0  0  0  0  0  # atno 17320 bound_to 7965
  145.8540  139.2190  143.1755 LP  0  0  0  0  0  0  0  0  0  0  0  0  # atno 17321 bound_to 7965
  140.7431  143.2841  151.3513 LP  0  0  0  0  0  0  0  0  0  0  0  0  # atno 17342 bound_to 10162
  139.6295  144.0749  152.2463 LP  0  0  0  0  0  0  0  0  0  0  0  0  # atno 17343 bound_to 10162
  157.5308  130.8057  149.7914 LP  0  0  0  0  0  0  0  0  0  0  0  0  # atno 17370 bound_to 10713
  156.0130  130.3825  150.2202 LP  0  0  0  0  0  0  0  0  0  0  0  0  # atno 17371 bound_to 10713
  141.0056  134.1090  157.4273 LP  0  0  0  0  0  0  0  0  0  0  0  0  # atno 17394 bound_to 11000
  139.8863  135.0080  156.6491 LP  0  0  0  0  0  0  0  0  0  0  0  0  # atno 17395 bound_to 11000

$$$$
