AV-unprocessed.smi:1742|AV-procd|sdf|7020|dock5
  -GOLD-   22720 8233D 1   1.00000     0.00000
 Structure written by MMmdl.
 34 35  0  0  0  0  0  0  0  0  1 V2000
  145.2910  132.0225  149.3845 C   0  0  0  0  0  0  0  0  0  0  0  0
  143.9500  132.5964  149.8576 C   0  0  0  0  0  0  0  0  0  0  0  0
  144.1289  133.7750  150.6829 N   0  0  0  0  0  0  0  0  0  0  0  0
  144.8248  134.9293  150.3829 C   0  0  0  0  0  0  0  0  0  0  0  0
  144.6951  135.7340  151.4794 C   0  0  0  0  0  0  0  0  0  0  0  0
  145.2097  137.0349  151.7075 N   0  0  0  0  0  0  0  0  0  0  0  0
  145.7877  137.5041  152.8296 C   0  0  0  0  0  0  0  0  0  0  0  0
  145.9538  136.8454  153.8542 O   0  0  0  0  0  0  0  0  0  0  0  0
  146.1763  138.7901  152.7576 N   0  0  0  0  0  0  0  0  0  0  0  0
  146.8294  139.5990  153.7883 C   0  0  2  0  0  0  0  0  0  0  0  0
  147.2235  140.9814  153.2355 C   0  0  0  0  0  0  0  0  0  0  0  0
  148.1986  141.6464  154.2154 C   0  0  0  0  0  0  0  0  0  0  0  0
  149.1224  140.2826  155.0198 S   0  0  0  0  0  0  0  0  0  0  0  0
  150.4799  140.2052  154.4594 O   0  0  0  0  0  0  0  0  0  0  0  0
  148.9053  140.3542  156.4726 O   0  0  0  0  0  0  0  0  0  0  0  0
  148.1067  138.9286  154.3203 C   0  0  0  0  0  0  0  0  0  0  0  0
  143.9073  135.0027  152.4057 C   0  0  0  0  0  0  0  0  0  0  0  0
  143.5683  133.8195  151.9171 N   0  0  0  0  0  0  0  0  0  0  0  0
  145.1362  131.1482  148.7523 H   0  0  0  0  0  0  0  0  0  0  0  0
  145.9101  131.7166  150.2283 H   0  0  0  0  0  0  0  0  0  0  0  0
  145.8513  132.7571  148.8056 H   0  0  0  0  0  0  0  0  0  0  0  0
  143.3320  132.8625  148.9993 H   0  0  0  0  0  0  0  0  0  0  0  0
  143.3962  131.8491  150.4273 H   0  0  0  0  0  0  0  0  0  0  0  0
  145.3332  135.0638  149.4396 H   0  0  0  0  0  0  0  0  0  0  0  0
  145.1257  137.6810  150.9365 H   0  0  0  0  0  0  0  0  0  0  0  0
  145.9718  139.2685  151.8920 H   0  0  0  0  0  0  0  0  0  0  0  0
  146.1436  139.7650  154.6212 H   0  0  0  0  0  0  0  0  0  0  0  0
  147.7287  140.8537  152.2769 H   0  0  0  0  0  0  0  0  0  0  0  0
  146.3509  141.6095  153.0532 H   0  0  0  0  0  0  0  0  0  0  0  0
  148.8894  142.3338  153.7267 H   0  0  0  0  0  0  0  0  0  0  0  0
  147.6581  142.1891  154.9913 H   0  0  0  0  0  0  0  0  0  0  0  0
  147.9143  138.1735  155.0827 H   0  0  0  0  0  0  0  0  0  0  0  0
  148.6768  138.4693  153.5119 H   0  0  0  0  0  0  0  0  0  0  0  0
  143.5768  135.2844  153.3947 H   0  0  0  0  0  0  0  0  0  0  0  0
  1  2  1  0  0  0  0
  1 19  1  0  0  0  0
  1 20  1  0  0  0  0
  1 21  1  0  0  0  0
  2  3  1  0  0  0  0
  2 22  1  0  0  0  0
  2 23  1  0  0  0  0
  3 18  1  0  0  0  0
  3  4  1  0  0  0  0
  4  5  2  0  0  0  0
  4 24  1  0  0  0  0
  5  6  1  0  0  0  0
  5 17  1  0  0  0  0
  6  7  1  0  0  0  0
  6 25  1  0  0  0  0
  7  8  2  0  0  0  0
  7  9  1  0  0  0  0
  9 10  1  0  0  0  0
  9 26  1  0  0  0  0
 10 16  1  0  0  0  0
 10 11  1  0  0  0  0
 10 27  1  0  0  0  0
 11 12  1  0  0  0  0
 11 28  1  0  0  0  0
 11 29  1  0  0  0  0
 12 13  1  0  0  0  0
 12 30  1  0  0  0  0
 12 31  1  0  0  0  0
 13 14  2  0  0  0  0
 13 15  2  0  0  0  0
 13 16  1  0  0  0  0
 16 32  1  0  0  0  0
 16 33  1  0  0  0  0
 17 18  2  0  0  0  0
 17 34  1  0  0  0  0
M  END
> <s_m_source_file>
AV-unprocessed.smi

> <i_m_source_file_index>
1742

> <i_lp_mmshare_version>
43012

> <i_f3d_flags>
0

> <s_epik_input>
W0NIM11bQ0gyXW4xW2NIXWMoW2NIXW4xKVtOSF1DKD1PKVtOSF1bQ0BASF0oW0NIMl0yKVtDSDJdW0NIMl1TMig9Tyk9Tw==

> <s_epik_cmdline>
J2VwaWtfcHl0aG9uJywgJy1waCcsICc3LjAnLCAnLXRuJywgJzgnLCAnLW1hJywgJzIwMCcsICctbWV0YWxfYmluZGluZycsICctaW1hZScsICc8aW5maWxlLm1hZT4nLCAnLW9tYWUnLCAnPG91dGZpbGUubWFlPic=

> <r_lp_tautomer_probability>
1

> <r_epik_Ionization_Penalty>
0.000152028

> <r_epik_Ionization_Penalty_Charging>
0

> <r_epik_Ionization_Penalty_Neutral>
0.000152028

> <r_epik_State_Penalty>
-0

> <r_epik_Charging_Adjusted_Penalty>
0

> <i_epik_Tot_Q>
0

> <i_epik_Tot_abs_Q>
0

> <r_epik_Metal_State_Penalty>
-0

> <b_epik_Metal_Only>
0

> <s_lp_Force_Field>
OPLS_2005

> <r_lp_Energy>
18.8919

> <b_lp_Chiralities_Consistent>
1

> <s_lp_Variant>
AV-unprocessed.smi:1742-1

> <Gold.Version>
5.8.1

> <Gold.Id.Protein>
6NUR|6NUR_protein|mol2

> <Gold.PLP.Fitness>
40.3783

> <Gold.PLP.PLP>
-32.2170

> <Gold.PLP.part.hbond>
-2.8121

> <Gold.PLP.part.metal>
0.0000

> <Gold.PLP.part.buried>
-5.6157

> <Gold.PLP.part.nonpolar>
-24.4798

> <Gold.PLP.part.repulsive>
0.4494

> <Gold.PLP.ligand.clash>
0.0000

> <Gold.PLP.ligand.torsion>
0.4195

> <Gold.PLP.Chemscore.Hbond>
2.0000

> <Gold.PLP.Chemscore.CHOScore>
1.0000

> <Gold.PLP.Chemscore.Metal>
0.0000

> <Gold.Chemscore.Hbonds>
donor molecule, donor type, donor heavy atom, donor atom, acceptor molecule, acceptor atom, score
      L1  H     6    25       P1 10171  0.88
      P1  H  7989  7998       L1    14  1.00
      L1  C     4    24       P1  7921  0.89

> <Gold.PLP.Chemscore.Internal.Correction>
0.0003

> <Gold.Rescore>
     Score         DG    S(hbond)    S(metal)    S(lipo)     H(rot)  DE(clash)    DE(int)     intcor
     15.64     -16.04       2.00        0.00      60.77       1.26       0.02       0.38       ----

> <Gold.Chemscore.Fitness>
15.6419

> <Gold.Chemscore.DG>
-16.0429

> <Gold.Chemscore.ZeroCoef>
-5.4800

> <Gold.Chemscore.Hbond>
1.9961

> <Gold.Chemscore.Metal>
0.0000

> <Gold.Chemscore.Lipo>
60.7680

> <Gold.Chemscore.Internal_Hbond>
0.0000

> <Gold.Chemscore.DEClash>
0.0243

> <Gold.Chemscore.DEInternal>
0.3767

> <Gold.Chemscore.Rot>
1.2554

> <Gold.Chemscore.Internal.Correction>
   9.000000E+99

> <Gold.Chemscore.Hbonds>
donor molecule, donor type, donor heavy atom, donor atom, acceptor molecule, acceptor atom, score
      L1  H     6    25       P1 10171  0.86
      P1  H  7989  7998       L1    14  0.99

> <Gold.Chemscore.Hbond.Weighted>
-6.6669

> <Gold.Chemscore.Metal.Weighted>
-0.0000

> <Gold.Chemscore.Lipo.Weighted>
-7.1099

> <Gold.Chemscore.Internal_Hbond.Weighted>
0.0000

> <Gold.Chemscore.DEClash.Weighted>
0.0243

> <Gold.Chemscore.DEInternal.Weighted>
0.3767

> <Gold.Chemscore.Rot.Weighted>
3.2139

> <Gold.Chemscore.Internal.Correction.Weighted>
   9.000000E+99

> <Gold.Protein.RotatedTorsions>
[ 6907 6896 6895 6894 ] final  176.13 input  -60.11 | X-H torsion
[ 7974 7965 7964 7962 ] final  -54.03 input  175.53 | X-H torsion
[ 8008 7997 7996 7995 ] final   39.16 input   59.86 | X-H torsion
[ 10167 10162 10161 10158 ] final  178.16 input  -65.29 | X-H torsion
[ 10718 10713 10712 10709 ] final   -7.04 input   66.30 | X-H torsion
[ 10763 10752 10751 10750 ] final   47.08 input  -60.55 | X-H torsion
[ 11005 11000 10999 10996 ] final  -18.16 input  -57.11 | X-H torsion

> <Gold.Protein.ActiveResidues>
 VAL166  LYS551  ARG553  GLY616  TRP617  ASP618  TYR619  PRO620  LYS621  CYS622 
 ASP623  PHE694  ASN695  SER759  ASP760  ASP761  ALA762  ILE779  LEU786  VAL792 
 PHE793  MET794  SER795  GLU796  ALA797  LYS798  CYS799  TRP800  GLU811  SER814 

> <Gold.Protein.RotatedAtoms>
  151.7251  133.3315  159.3325 H   0  0  0  0  0  0  0  0  0  0  0  0  # atno 6907 bound_to 6896
  150.7636  134.6413  159.6248 H   0  0  0  0  0  0  0  0  0  0  0  0  # atno 6908 bound_to 6896
  152.3627  134.6851  160.0253 H   0  0  0  0  0  0  0  0  0  0  0  0  # atno 6909 bound_to 6896
  145.8901  140.8077  142.9796 H   0  0  0  0  0  0  0  0  0  0  0  0  # atno 7974 bound_to 7965
  155.2321  140.3339  155.4302 H   0  0  0  0  0  0  0  0  0  0  0  0  # atno 8008 bound_to 7997
  156.2290  140.1842  156.7335 H   0  0  0  0  0  0  0  0  0  0  0  0  # atno 8009 bound_to 7997
  154.5947  140.0632  156.9272 H   0  0  0  0  0  0  0  0  0  0  0  0  # atno 8010 bound_to 7997
  139.5283  144.2712  152.0626 H   0  0  0  0  0  0  0  0  0  0  0  0  # atno 10167 bound_to 10162
  156.7230  130.5157  149.5863 H   0  0  0  0  0  0  0  0  0  0  0  0  # atno 10718 bound_to 10713
  152.9803  135.5987  154.3704 H   0  0  0  0  0  0  0  0  0  0  0  0  # atno 10763 bound_to 10752
  154.3378  135.2768  155.2440 H   0  0  0  0  0  0  0  0  0  0  0  0  # atno 10764 bound_to 10752
  154.4535  135.5984  153.6263 H   0  0  0  0  0  0  0  0  0  0  0  0  # atno 10765 bound_to 10752
  140.8240  133.8046  155.9689 H   0  0  0  0  0  0  0  0  0  0  0  0  # atno 11005 bound_to 11000
  144.6730  140.1517  143.7429 LP  0  0  0  0  0  0  0  0  0  0  0  0  # atno 17320 bound_to 7965
  145.8918  139.2380  143.1545 LP  0  0  0  0  0  0  0  0  0  0  0  0  # atno 17321 bound_to 7965
  140.2172  144.4503  150.6358 LP  0  0  0  0  0  0  0  0  0  0  0  0  # atno 17342 bound_to 10162
  140.6442  143.2210  151.6223 LP  0  0  0  0  0  0  0  0  0  0  0  0  # atno 17343 bound_to 10162
  156.1581  130.6355  151.0683 LP  0  0  0  0  0  0  0  0  0  0  0  0  # atno 17370 bound_to 10713
  157.6890  131.0816  150.7161 LP  0  0  0  0  0  0  0  0  0  0  0  0  # atno 17371 bound_to 10713
  140.9069  134.2309  157.5009 LP  0  0  0  0  0  0  0  0  0  0  0  0  # atno 17394 bound_to 11000
  139.8707  134.9732  156.4801 LP  0  0  0  0  0  0  0  0  0  0  0  0  # atno 17395 bound_to 11000

$$$$
