AV-unprocessed.smi:2070|AV-procd|sdf|8439|dock3
  -GOLD-   2272011133D 1   1.00000     0.00000
 Structure written by MMmdl.
 40 41  0  0  0  0  0  0  0  0  1 V2000
  154.7858  140.3256  160.0804 C   0  0  0  0  0  0  0  0  0  0  0  0
  153.7136  141.3641  160.1872 C   0  0  0  0  0  0  0  0  0  0  0  0
  153.5594  142.2860  161.1923 C   0  0  0  0  0  0  0  0  0  0  0  0
  152.1781  143.3137  160.9258 S   0  0  0  0  0  0  0  0  0  0  0  0
  151.8485  142.4331  159.4387 C   0  0  0  0  0  0  0  0  0  0  0  0
  150.7225  142.7778  158.5168 C   0  0  0  0  0  0  0  0  0  0  0  0
  151.1058  142.7374  157.0245 C   0  0  0  0  0  0  0  0  0  0  0  0
  149.9965  142.3267  156.1700 N   0  0  0  0  0  0  0  0  0  0  0  0
  150.0380  141.3333  155.2669 C   0  0  0  0  0  0  0  0  0  0  0  0
  151.0284  140.6130  155.1328 O   0  0  0  0  0  0  0  0  0  0  0  0
  148.9065  141.1886  154.5314 N   0  0  0  0  0  0  0  0  0  0  0  0
  148.3780  139.9258  153.9876 C   0  0  0  0  0  0  0  0  0  0  0  0
  147.1883  139.4772  154.8549 C   0  0  0  0  0  0  0  0  0  0  0  0
  146.0957  140.5708  154.9091 C   0  0  0  0  0  0  0  0  0  0  0  0
  144.9724  140.1802  155.8787 C   0  0  0  0  0  0  0  0  0  0  0  0
  143.7497  140.0271  155.3638 N   0  0  0  0  0  0  0  0  0  0  0  0
  145.2008  140.0187  157.0759 O   0  0  0  0  0  0  0  0  0  0  0  0
  146.7066  141.9414  155.2867 C   0  0  0  0  0  0  0  0  0  0  0  0
  147.9229  142.2703  154.4012 C   0  0  0  0  0  0  0  0  0  0  0  0
  152.7372  141.4660  159.1923 N   0  0  0  0  0  0  0  0  0  0  0  0
  155.7010  140.7473  159.6642 H   0  0  0  0  0  0  0  0  0  0  0  0
  154.4802  139.4988  159.4385 H   0  0  0  0  0  0  0  0  0  0  0  0
  155.0290  139.9077  161.0576 H   0  0  0  0  0  0  0  0  0  0  0  0
  154.1735  142.4231  162.0700 H   0  0  0  0  0  0  0  0  0  0  0  0
  149.8982  142.0887  158.7053 H   0  0  0  0  0  0  0  0  0  0  0  0
  150.3534  143.7706  158.7756 H   0  0  0  0  0  0  0  0  0  0  0  0
  151.4949  143.7051  156.7042 H   0  0  0  0  0  0  0  0  0  0  0  0
  151.9116  142.0177  156.8782 H   0  0  0  0  0  0  0  0  0  0  0  0
  149.1483  142.8708  156.2321 H   0  0  0  0  0  0  0  0  0  0  0  0
  148.0487  140.0881  152.9602 H   0  0  0  0  0  0  0  0  0  0  0  0
  149.1154  139.1253  153.9279 H   0  0  0  0  0  0  0  0  0  0  0  0
  146.7720  138.5504  154.4581 H   0  0  0  0  0  0  0  0  0  0  0  0
  147.5477  139.2496  155.8591 H   0  0  0  0  0  0  0  0  0  0  0  0
  145.6708  140.6630  153.9079 H   0  0  0  0  0  0  0  0  0  0  0  0
  142.9786  139.7687  155.9620 H   0  0  0  0  0  0  0  0  0  0  0  0
  143.6020  140.1691  154.3751 H   0  0  0  0  0  0  0  0  0  0  0  0
  145.9562  142.7265  155.1859 H   0  0  0  0  0  0  0  0  0  0  0  0
  147.0172  141.9441  156.3332 H   0  0  0  0  0  0  0  0  0  0  0  0
  148.3303  143.2449  154.6735 H   0  0  0  0  0  0  0  0  0  0  0  0
  147.6162  142.3607  153.3582 H   0  0  0  0  0  0  0  0  0  0  0  0
  1  2  1  0  0  0  0
  1 21  1  0  0  0  0
  1 22  1  0  0  0  0
  1 23  1  0  0  0  0
  2 20  1  0  0  0  0
  2  3  2  0  0  0  0
  3  4  1  0  0  0  0
  3 24  1  0  0  0  0
  4  5  1  0  0  0  0
  5  6  1  0  0  0  0
  5 20  2  0  0  0  0
  6  7  1  0  0  0  0
  6 25  1  0  0  0  0
  6 26  1  0  0  0  0
  7  8  1  0  0  0  0
  7 27  1  0  0  0  0
  7 28  1  0  0  0  0
  8  9  1  0  0  0  0
  8 29  1  0  0  0  0
  9 10  2  0  0  0  0
  9 11  1  0  0  0  0
 11 19  1  0  0  0  0
 11 12  1  0  0  0  0
 12 13  1  0  0  0  0
 12 30  1  0  0  0  0
 12 31  1  0  0  0  0
 13 14  1  0  0  0  0
 13 32  1  0  0  0  0
 13 33  1  0  0  0  0
 14 15  1  0  0  0  0
 14 18  1  0  0  0  0
 14 34  1  0  0  0  0
 15 16  1  0  0  0  0
 15 17  2  0  0  0  0
 16 35  1  0  0  0  0
 16 36  1  0  0  0  0
 18 19  1  0  0  0  0
 18 37  1  0  0  0  0
 18 38  1  0  0  0  0
 19 39  1  0  0  0  0
 19 40  1  0  0  0  0
M  END
> <s_m_source_file>
AV-unprocessed.smi

> <i_m_source_file_index>
2070

> <i_lp_mmshare_version>
43012

> <i_f3d_flags>
0

> <s_epik_input>
W0NIM11jMVtjSF1zYyhuMSlbQ0gyXVtDSDJdW05IXUMoPU8pTjJbQ0gyXVtDSDJdW0NIXShDKD1PKVtOSDJdKVtDSDJdW0NIMl0y

> <s_epik_cmdline>
J2VwaWtfcHl0aG9uJywgJy1waCcsICc3LjAnLCAnLXRuJywgJzgnLCAnLW1hJywgJzIwMCcsICctbWV0YWxfYmluZGluZycsICctaW1hZScsICc8aW5maWxlLm1hZT4nLCAnLW9tYWUnLCAnPG91dGZpbGUubWFlPic=

> <r_epik_Ionization_Penalty>
0.00203811

> <r_epik_Ionization_Penalty_Charging>
0

> <r_epik_Ionization_Penalty_Neutral>
0.00203811

> <r_epik_State_Penalty>
0.00135523

> <r_epik_Charging_Adjusted_Penalty>
0.00135523

> <i_epik_Tot_Q>
0

> <i_epik_Tot_abs_Q>
0

> <r_epik_Metal_State_Penalty>
-0

> <b_epik_Metal_Only>
0

> <s_lp_Force_Field>
OPLS_2005

> <r_lp_Energy>
19.595

> <b_lp_Chiralities_Consistent>
1

> <s_lp_Variant>
AV-unprocessed.smi:2070-1

> <Gold.Version>
5.8.1

> <Gold.Id.Protein>
6NUR|6NUR_protein|mol2

> <Gold.PLP.Fitness>
42.5243

> <Gold.PLP.PLP>
-36.9089

> <Gold.PLP.part.hbond>
-3.0000

> <Gold.PLP.part.metal>
0.0000

> <Gold.PLP.part.buried>
-2.1420

> <Gold.PLP.part.nonpolar>
-31.4557

> <Gold.PLP.part.repulsive>
0.1565

> <Gold.PLP.ligand.clash>
0.8647

> <Gold.PLP.ligand.torsion>
0.7921

> <Gold.PLP.Chemscore.Hbond>
2.6640

> <Gold.PLP.Chemscore.CHOScore>
0.0000

> <Gold.PLP.Chemscore.Metal>
0.0000

> <Gold.Chemscore.Hbonds>
donor molecule, donor type, donor heavy atom, donor atom, acceptor molecule, acceptor atom, score
      L1  H     8    29       P1  8028  0.56
      L1  H    16    36       P1 10175  1.00
      P1  H  7989  7998       L1    10  0.93

> <Gold.PLP.Chemscore.Internal.Correction>
0.0724

> <Gold.Rescore>
     Score         DG    S(hbond)    S(metal)    S(lipo)     H(rot)  DE(clash)    DE(int)     intcor
     16.90     -18.17       2.14        0.00      90.00       1.95       0.57       0.70       ----

> <Gold.Chemscore.Fitness>
16.8954

> <Gold.Chemscore.DG>
-18.1703

> <Gold.Chemscore.ZeroCoef>
-5.4800

> <Gold.Chemscore.Hbond>
2.1408

> <Gold.Chemscore.Metal>
0.0000

> <Gold.Chemscore.Lipo>
90.0017

> <Gold.Chemscore.Internal_Hbond>
0.0000

> <Gold.Chemscore.DEClash>
0.5746

> <Gold.Chemscore.DEInternal>
0.7003

> <Gold.Chemscore.Rot>
1.9492

> <Gold.Chemscore.Internal.Correction>
   9.000000E+99

> <Gold.Chemscore.Hbonds>
donor molecule, donor type, donor heavy atom, donor atom, acceptor molecule, acceptor atom, score
      L1  H     8    29       P1  8028  0.55
      L1  H    16    36       P1 10175  1.00
      P1  H  7989  7998       L1    10  0.54

> <Gold.Chemscore.Hbond.Weighted>
-7.1501

> <Gold.Chemscore.Metal.Weighted>
-0.0000

> <Gold.Chemscore.Lipo.Weighted>
-10.5302

> <Gold.Chemscore.Internal_Hbond.Weighted>
0.0000

> <Gold.Chemscore.DEClash.Weighted>
0.5746

> <Gold.Chemscore.DEInternal.Weighted>
0.7003

> <Gold.Chemscore.Rot.Weighted>
4.9900

> <Gold.Chemscore.Internal.Correction.Weighted>
   9.000000E+99

> <Gold.Protein.RotatedTorsions>
[ 6907 6896 6895 6894 ] final -171.46 input  -60.11 | X-H torsion
[ 7974 7965 7964 7962 ] final   -9.60 input  175.53 | X-H torsion
[ 8008 7997 7996 7995 ] final  -43.76 input   59.86 | X-H torsion
[ 10167 10162 10161 10158 ] final  -12.83 input  -65.29 | X-H torsion
[ 10718 10713 10712 10709 ] final  -40.02 input   66.30 | X-H torsion
[ 10763 10752 10751 10750 ] final -108.46 input  -60.55 | X-H torsion
[ 11005 11000 10999 10996 ] final   -7.49 input  -57.11 | X-H torsion

> <Gold.Protein.ActiveResidues>
 VAL166  LYS551  ARG553  GLY616  TRP617  ASP618  TYR619  PRO620  LYS621  CYS622 
 ASP623  PHE694  ASN695  SER759  ASP760  ASP761  ALA762  ILE779  LEU786  VAL792 
 PHE793  MET794  SER795  GLU796  ALA797  LYS798  CYS799  TRP800  GLU811  SER814 

> <Gold.Protein.RotatedAtoms>
  151.5242  133.3461  159.2906 H   0  0  0  0  0  0  0  0  0  0  0  0  # atno 6907 bound_to 6896
  150.8633  134.7993  159.7110 H   0  0  0  0  0  0  0  0  0  0  0  0  # atno 6908 bound_to 6896
  152.4646  134.5115  159.9807 H   0  0  0  0  0  0  0  0  0  0  0  0  # atno 6909 bound_to 6896
  146.2246  140.2641  142.8353 H   0  0  0  0  0  0  0  0  0  0  0  0  # atno 7974 bound_to 7965
  154.3997  140.1439  156.3572 H   0  0  0  0  0  0  0  0  0  0  0  0  # atno 8008 bound_to 7997
  155.8214  140.3469  155.5495 H   0  0  0  0  0  0  0  0  0  0  0  0  # atno 8009 bound_to 7997
  155.8284  140.0908  157.1798 H   0  0  0  0  0  0  0  0  0  0  0  0  # atno 8010 bound_to 7997
  140.7169  143.5491  150.9322 H   0  0  0  0  0  0  0  0  0  0  0  0  # atno 10167 bound_to 10162
  156.2860  130.4222  149.8287 H   0  0  0  0  0  0  0  0  0  0  0  0  # atno 10718 bound_to 10713
  154.8137  135.4637  154.0584 H   0  0  0  0  0  0  0  0  0  0  0  0  # atno 10763 bound_to 10752
  153.1995  135.6867  153.8256 H   0  0  0  0  0  0  0  0  0  0  0  0  # atno 10764 bound_to 10752
  153.7746  135.3265  155.3334 H   0  0  0  0  0  0  0  0  0  0  0  0  # atno 10765 bound_to 10752
  140.7133  133.8890  155.8767 H   0  0  0  0  0  0  0  0  0  0  0  0  # atno 11005 bound_to 11000
  144.9317  140.7982  143.5685 LP  0  0  0  0  0  0  0  0  0  0  0  0  # atno 17320 bound_to 7965
  145.2585  139.2002  143.4905 LP  0  0  0  0  0  0  0  0  0  0  0  0  # atno 17321 bound_to 7965
  139.9215  143.6601  152.3096 LP  0  0  0  0  0  0  0  0  0  0  0  0  # atno 17342 bound_to 10162
  139.7019  144.7634  151.1258 LP  0  0  0  0  0  0  0  0  0  0  0  0  # atno 17343 bound_to 10162
  156.5718  130.8428  151.3358 LP  0  0  0  0  0  0  0  0  0  0  0  0  # atno 17370 bound_to 10713
  157.7328  130.9721  150.1949 LP  0  0  0  0  0  0  0  0  0  0  0  0  # atno 17371 bound_to 10713
  141.0066  134.1078  157.4264 LP  0  0  0  0  0  0  0  0  0  0  0  0  # atno 17394 bound_to 11000
  139.8866  135.0083  156.6509 LP  0  0  0  0  0  0  0  0  0  0  0  0  # atno 17395 bound_to 11000

$$$$
