AV-unprocessed.smi:647|AV-procd|sdf|3169|dock4
  -GOLD-   22720 0 93D 1   1.00000     0.00000
 Structure written by MMmdl.
 46 48  0  0  0  0  0  0  0  0  1 V2000
  144.6742  137.4775  152.6410 O   0  0  0  0  0  0  0  0  0  0  0  0
  145.8110  137.4118  152.1709 C   0  0  0  0  0  0  0  0  0  0  0  0
  146.6403  138.6827  151.9550 C   0  0  0  0  0  0  0  0  0  0  0  0
  147.7802  138.7730  152.8637 N   0  0  0  0  0  0  0  0  0  0  0  0
  147.9755  139.7548  153.7568 C   0  0  0  0  0  0  0  0  0  0  0  0
  147.1962  140.6960  153.9103 O   0  0  0  0  0  0  0  0  0  0  0  0
  149.1150  139.5683  154.4457 N   0  0  0  0  0  0  0  0  0  0  0  0
  149.6492  140.3740  155.4857 C   0  0  0  0  0  0  0  0  0  0  0  0
  151.0375  140.2429  155.6995 C   0  0  0  0  0  0  0  0  0  0  0  0
  151.6301  141.0066  156.7192 C   0  0  0  0  0  0  0  0  0  0  0  0
  150.7910  141.8556  157.4644 C   0  0  0  0  0  0  0  0  0  0  0  0
  151.3067  142.7247  158.5690 C   0  0  0  0  0  0  0  0  0  0  0  0
  152.1759  143.9290  158.2809 C   0  0  0  0  0  0  0  0  0  0  0  0
  152.7708  142.7122  158.9450 C   0  0  0  0  0  0  0  0  0  0  0  0
  149.4663  141.9537  157.2148 N   0  0  0  0  0  0  0  0  0  0  0  0
  148.9081  141.2223  156.2447 N   0  0  0  0  0  0  0  0  0  0  0  0
  146.3907  136.2602  151.7995 N   0  0  0  0  0  0  0  0  0  0  0  0
  145.7888  134.9356  151.9113 C   0  0  0  0  0  0  0  0  0  0  0  0
  146.7499  133.8526  151.3764 C   0  0  0  0  0  0  0  0  0  0  0  0
  146.1021  132.4591  151.4097 C   0  0  0  0  0  0  0  0  0  0  0  0
  144.7721  132.4430  150.6397 C   0  0  0  0  0  0  0  0  0  0  0  0
  143.8097  133.5150  151.1746 C   0  0  0  0  0  0  0  0  0  0  0  0
  144.4548  134.9102  151.1408 C   0  0  0  0  0  0  0  0  0  0  0  0
  146.9816  138.7425  150.9197 H   0  0  0  0  0  0  0  0  0  0  0  0
  145.9976  139.5470  152.1224 H   0  0  0  0  0  0  0  0  0  0  0  0
  148.4732  138.0422  152.7967 H   0  0  0  0  0  0  0  0  0  0  0  0
  149.6552  138.7497  154.2083 H   0  0  0  0  0  0  0  0  0  0  0  0
  151.6359  139.5727  155.0997 H   0  0  0  0  0  0  0  0  0  0  0  0
  152.6890  140.9417  156.9209 H   0  0  0  0  0  0  0  0  0  0  0  0
  150.5773  142.8099  159.3723 H   0  0  0  0  0  0  0  0  0  0  0  0
  152.4655  144.1220  157.2497 H   0  0  0  0  0  0  0  0  0  0  0  0
  152.0447  144.8117  158.9034 H   0  0  0  0  0  0  0  0  0  0  0  0
  153.0253  142.8020  159.9990 H   0  0  0  0  0  0  0  0  0  0  0  0
  153.4441  142.0970  158.3506 H   0  0  0  0  0  0  0  0  0  0  0  0
  147.3261  136.3035  151.4214 H   0  0  0  0  0  0  0  0  0  0  0  0
  145.5764  134.7314  152.9626 H   0  0  0  0  0  0  0  0  0  0  0  0
  147.0416  134.0910  150.3523 H   0  0  0  0  0  0  0  0  0  0  0  0
  147.6694  133.8395  151.9626 H   0  0  0  0  0  0  0  0  0  0  0  0
  146.7852  131.7218  150.9868 H   0  0  0  0  0  0  0  0  0  0  0  0
  145.9288  132.1624  152.4449 H   0  0  0  0  0  0  0  0  0  0  0  0
  144.9611  132.6171  149.5795 H   0  0  0  0  0  0  0  0  0  0  0  0
  144.3108  131.4578  150.7140 H   0  0  0  0  0  0  0  0  0  0  0  0
  142.8914  133.5161  150.5867 H   0  0  0  0  0  0  0  0  0  0  0  0
  143.5216  133.2702  152.1979 H   0  0  0  0  0  0  0  0  0  0  0  0
  143.7654  135.6432  151.5619 H   0  0  0  0  0  0  0  0  0  0  0  0
  144.6213  135.2040  150.1033 H   0  0  0  0  0  0  0  0  0  0  0  0
  1  2  2  0  0  0  0
  2  3  1  0  0  0  0
  2 17  1  0  0  0  0
  3  4  1  0  0  0  0
  3 24  1  0  0  0  0
  3 25  1  0  0  0  0
  4  5  1  0  0  0  0
  4 26  1  0  0  0  0
  5  6  2  0  0  0  0
  5  7  1  0  0  0  0
  7  8  1  0  0  0  0
  7 27  1  0  0  0  0
  8 16  1  0  0  0  0
  8  9  2  0  0  0  0
  9 10  1  0  0  0  0
  9 28  1  0  0  0  0
 10 11  2  0  0  0  0
 10 29  1  0  0  0  0
 11 12  1  0  0  0  0
 11 15  1  0  0  0  0
 12 14  1  0  0  0  0
 12 13  1  0  0  0  0
 12 30  1  0  0  0  0
 13 14  1  0  0  0  0
 13 31  1  0  0  0  0
 13 32  1  0  0  0  0
 14 33  1  0  0  0  0
 14 34  1  0  0  0  0
 15 16  2  0  0  0  0
 17 18  1  0  0  0  0
 17 35  1  0  0  0  0
 18 23  1  0  0  0  0
 18 19  1  0  0  0  0
 18 36  1  0  0  0  0
 19 20  1  0  0  0  0
 19 37  1  0  0  0  0
 19 38  1  0  0  0  0
 20 21  1  0  0  0  0
 20 39  1  0  0  0  0
 20 40  1  0  0  0  0
 21 22  1  0  0  0  0
 21 41  1  0  0  0  0
 21 42  1  0  0  0  0
 22 23  1  0  0  0  0
 22 43  1  0  0  0  0
 22 44  1  0  0  0  0
 23 45  1  0  0  0  0
 23 46  1  0  0  0  0
M  END
> <s_m_source_file>
AV-unprocessed.smi

> <i_m_source_file_index>
647

> <i_lp_mmshare_version>
43012

> <i_f3d_flags>
0

> <s_epik_input>
W0NIMl0xW0NIMl1bQ0gyXVtDSDJdW0NIMl1bQ0hdMVtOSF1DKD1PKVtDSDJdW05IXUMoPU8pW05IXWMyW2NIXVtjSF1jKG5uMilbQ0hdM1tDSDJdW0NIMl0z

> <s_epik_cmdline>
J2VwaWtfcHl0aG9uJywgJy1waCcsICc3LjAnLCAnLXRuJywgJzgnLCAnLW1hJywgJzIwMCcsICctbWV0YWxfYmluZGluZycsICctaW1hZScsICc8aW5maWxlLm1hZT4nLCAnLW9tYWUnLCAnPG91dGZpbGUubWFlPic=

> <r_lp_tautomer_probability>
1

> <r_epik_Ionization_Penalty>
0.00779169

> <r_epik_Ionization_Penalty_Charging>
0

> <r_epik_Ionization_Penalty_Neutral>
0.00779169

> <r_epik_State_Penalty>
-0

> <r_epik_Charging_Adjusted_Penalty>
0

> <i_epik_Tot_Q>
0

> <i_epik_Tot_abs_Q>
0

> <r_epik_Metal_State_Penalty>
-0

> <b_epik_Metal_Only>
0

> <s_lp_Force_Field>
OPLS_2005

> <r_lp_Energy>
15.7946

> <b_lp_Chiralities_Consistent>
1

> <s_lp_Variant>
AV-unprocessed.smi:647-1

> <Gold.Version>
5.8.1

> <Gold.Id.Protein>
6NUR|6NUR_protein|mol2

> <Gold.PLP.Fitness>
48.5596

> <Gold.PLP.PLP>
-43.6864

> <Gold.PLP.part.hbond>
-2.7957

> <Gold.PLP.part.metal>
0.0000

> <Gold.PLP.part.buried>
-5.2531

> <Gold.PLP.part.nonpolar>
-36.2558

> <Gold.PLP.part.repulsive>
0.8644

> <Gold.PLP.ligand.clash>
0.0000

> <Gold.PLP.ligand.torsion>
0.3041

> <Gold.PLP.Chemscore.Hbond>
1.7760

> <Gold.PLP.Chemscore.CHOScore>
0.0000

> <Gold.PLP.Chemscore.Metal>
0.0000

> <Gold.Chemscore.Hbonds>
donor molecule, donor type, donor heavy atom, donor atom, acceptor molecule, acceptor atom, score
      L1  H     4    26       P1  7948  0.80
      L1  H    17    35       P1  7948  0.90

> <Gold.PLP.Chemscore.Internal.Correction>
0.1534

> <Gold.Rescore>
     Score         DG    S(hbond)    S(metal)    S(lipo)     H(rot)  DE(clash)    DE(int)     intcor
     17.22     -18.54       1.80        0.00      97.71       1.72       0.02       1.30       ----

> <Gold.Chemscore.Fitness>
17.2183

> <Gold.Chemscore.DG>
-18.5371

> <Gold.Chemscore.ZeroCoef>
-5.4800

> <Gold.Chemscore.Hbond>
1.8040

> <Gold.Chemscore.Metal>
0.0000

> <Gold.Chemscore.Lipo>
97.7060

> <Gold.Chemscore.Internal_Hbond>
0.0000

> <Gold.Chemscore.DEClash>
0.0196

> <Gold.Chemscore.DEInternal>
1.2992

> <Gold.Chemscore.Rot>
1.7187

> <Gold.Chemscore.Internal.Correction>
   9.000000E+99

> <Gold.Chemscore.Hbonds>
donor molecule, donor type, donor heavy atom, donor atom, acceptor molecule, acceptor atom, score
      L1  H     4    26       P1  7948  0.77
      L1  H    17    35       P1  7948  0.88

> <Gold.Chemscore.Hbond.Weighted>
-6.0254

> <Gold.Chemscore.Metal.Weighted>
-0.0000

> <Gold.Chemscore.Lipo.Weighted>
-11.4316

> <Gold.Chemscore.Internal_Hbond.Weighted>
0.0000

> <Gold.Chemscore.DEClash.Weighted>
0.0196

> <Gold.Chemscore.DEInternal.Weighted>
1.2992

> <Gold.Chemscore.Rot.Weighted>
4.4000

> <Gold.Chemscore.Internal.Correction.Weighted>
   9.000000E+99

> <Gold.Protein.RotatedTorsions>
[ 6907 6896 6895 6894 ] final  171.16 input  -60.11 | X-H torsion
[ 7974 7965 7964 7962 ] final  -18.43 input  175.53 | X-H torsion
[ 8008 7997 7996 7995 ] final   -3.74 input   59.86 | X-H torsion
[ 10167 10162 10161 10158 ] final -176.31 input  -65.29 | X-H torsion
[ 10718 10713 10712 10709 ] final  131.64 input   66.30 | X-H torsion
[ 10763 10752 10751 10750 ] final   41.52 input  -60.55 | X-H torsion
[ 11005 11000 10999 10996 ] final  -62.01 input  -57.11 | X-H torsion

> <Gold.Protein.ActiveResidues>
 VAL166  LYS551  ARG553  GLY616  TRP617  ASP618  TYR619  PRO620  LYS621  CYS622 
 ASP623  PHE694  ASN695  SER759  ASP760  ASP761  ALA762  ILE779  LEU786  VAL792 
 PHE793  MET794  SER795  GLU796  ALA797  LYS798  CYS799  TRP800  GLU811  SER814 

> <Gold.Protein.RotatedAtoms>
  151.8046  133.3374  159.3536 H   0  0  0  0  0  0  0  0  0  0  0  0  # atno 6907 bound_to 6896
  150.7347  134.5721  159.5905 H   0  0  0  0  0  0  0  0  0  0  0  0  # atno 6908 bound_to 6896
  152.3119  134.7488  160.0386 H   0  0  0  0  0  0  0  0  0  0  0  0  # atno 6909 bound_to 6896
  146.1893  140.3919  142.8464 H   0  0  0  0  0  0  0  0  0  0  0  0  # atno 7974 bound_to 7965
  154.6217  140.2501  155.7541 H   0  0  0  0  0  0  0  0  0  0  0  0  # atno 8008 bound_to 7997
  156.2430  140.2925  156.0447 H   0  0  0  0  0  0  0  0  0  0  0  0  # atno 8009 bound_to 7997
  155.1887  140.0391  157.2886 H   0  0  0  0  0  0  0  0  0  0  0  0  # atno 8010 bound_to 7997
  139.5536  144.2045  152.1121 H   0  0  0  0  0  0  0  0  0  0  0  0  # atno 10167 bound_to 10162
  157.4948  131.1092  150.9508 H   0  0  0  0  0  0  0  0  0  0  0  0  # atno 10718 bound_to 10713
  152.9906  135.6159  154.2801 H   0  0  0  0  0  0  0  0  0  0  0  0  # atno 10763 bound_to 10752
  154.2530  135.2784  155.2810 H   0  0  0  0  0  0  0  0  0  0  0  0  # atno 10764 bound_to 10752
  154.5271  135.5798  153.6786 H   0  0  0  0  0  0  0  0  0  0  0  0  # atno 10765 bound_to 10752
  141.1345  133.6635  156.5463 H   0  0  0  0  0  0  0  0  0  0  0  0  # atno 11005 bound_to 11000
  144.8455  140.6923  143.6202 LP  0  0  0  0  0  0  0  0  0  0  0  0  # atno 17320 bound_to 7965
  145.3843  139.1630  143.4263 LP  0  0  0  0  0  0  0  0  0  0  0  0  # atno 17321 bound_to 7965
  140.1545  144.5083  150.6668 LP  0  0  0  0  0  0  0  0  0  0  0  0  # atno 17342 bound_to 10162
  140.6804  143.2324  151.5398 LP  0  0  0  0  0  0  0  0  0  0  0  0  # atno 17343 bound_to 10162
  157.0198  130.5669  149.5330 LP  0  0  0  0  0  0  0  0  0  0  0  0  # atno 17370 bound_to 10713
  156.0194  130.5289  150.8231 LP  0  0  0  0  0  0  0  0  0  0  0  0  # atno 17371 bound_to 10713
  140.4099  134.7281  157.4830 LP  0  0  0  0  0  0  0  0  0  0  0  0  # atno 17394 bound_to 11000
  140.0435  134.6234  155.8951 LP  0  0  0  0  0  0  0  0  0  0  0  0  # atno 17395 bound_to 11000

$$$$
