AV-unprocessed.smi:15|AV-procd|sdf|85|dock1
  -GOLD-   2262015223D 1   1.00000     0.00000
 Structure written by MMmdl.
 53 56  0  0  0  0  0  0  0  0  1 V2000
  149.6033  142.4254  158.3426 C   0  0  0  0  0  0  0  0  0  0  0  0
  150.8551  142.8595  157.5633 C   0  0  0  0  0  0  0  0  0  0  0  0
  151.7676  141.7543  157.2680 N   0  0  0  0  0  0  0  0  0  0  0  0
  152.3700  141.0655  158.4062 C   0  0  0  0  0  0  0  0  0  0  0  0
  152.8572  142.0423  159.4880 C   0  0  2  0  0  0  0  0  0  0  0  0
  153.6552  141.3837  160.6131 C   0  0  0  0  0  0  0  0  0  0  0  0
  153.4297  142.3061  161.8014 C   0  0  0  0  0  0  0  0  0  0  0  0
  152.2585  143.1938  161.3704 C   0  0  0  0  0  0  0  0  0  0  0  0
  151.7528  142.5936  160.1861 O   0  0  0  0  0  0  0  0  0  0  0  0
  151.3361  140.8882  156.3254 C   0  0  0  0  0  0  0  0  0  0  0  0
  152.1525  139.8514  156.0159 N   0  0  0  0  0  0  0  0  0  0  0  0
  151.7796  138.9638  155.0891 C   0  0  0  0  0  0  0  0  0  0  0  0
  150.6538  138.9272  154.3723 N   0  0  0  0  0  0  0  0  0  0  0  0
  149.8265  139.9637  154.6923 C   0  0  0  0  0  0  0  0  0  0  0  0
  150.0869  140.9828  155.6508 C   0  0  0  0  0  0  0  0  0  0  0  0
  149.0159  141.8660  155.7086 N   0  0  0  0  0  0  0  0  0  0  0  0
  148.1722  141.3986  154.8291 C   0  0  0  0  0  0  0  0  0  0  0  0
  148.5761  140.2555  154.1759 N   0  0  0  0  0  0  0  0  0  0  0  0
  147.8366  139.5273  153.1554 C   0  0  0  0  0  0  0  0  0  0  0  0
  146.6651  138.6852  153.7254 C   0  0  2  0  0  0  0  0  0  0  0  0
  145.7495  139.5772  154.3398 O   0  0  0  0  0  0  0  0  0  0  0  0
  147.0960  137.6624  154.7720 C   0  0  0  0  0  0  0  0  0  0  0  0
  146.0232  136.5902  154.6598 C   0  0  0  0  0  0  0  0  0  0  0  0
  145.8074  136.5146  153.2615 O   0  0  0  0  0  0  0  0  0  0  0  0
  145.8674  137.8261  152.7040 C   0  0  2  0  0  0  0  0  0  0  0  0
  146.4676  137.6959  151.2952 C   0  0  0  0  0  0  0  0  0  0  0  0
  148.9254  143.2679  158.4794 H   0  0  0  0  0  0  0  0  0  0  0  0
  149.8529  142.0439  159.3331 H   0  0  0  0  0  0  0  0  0  0  0  0
  149.0598  141.6458  157.8080 H   0  0  0  0  0  0  0  0  0  0  0  0
  150.5377  143.3141  156.6256 H   0  0  0  0  0  0  0  0  0  0  0  0
  151.3828  143.6393  158.1124 H   0  0  0  0  0  0  0  0  0  0  0  0
  151.6319  140.3862  158.8345 H   0  0  0  0  0  0  0  0  0  0  0  0
  153.2068  140.4436  158.0820 H   0  0  0  0  0  0  0  0  0  0  0  0
  153.4279  142.8627  159.0499 H   0  0  0  0  0  0  0  0  0  0  0  0
  153.2486  140.3962  160.8358 H   0  0  0  0  0  0  0  0  0  0  0  0
  154.7095  141.2627  160.3621 H   0  0  0  0  0  0  0  0  0  0  0  0
  153.1905  141.7315  162.6969 H   0  0  0  0  0  0  0  0  0  0  0  0
  154.3123  142.9097  162.0153 H   0  0  0  0  0  0  0  0  0  0  0  0
  151.4848  143.2680  162.1348 H   0  0  0  0  0  0  0  0  0  0  0  0
  152.6069  144.2017  161.1399 H   0  0  0  0  0  0  0  0  0  0  0  0
  152.4844  138.1691  154.8933 H   0  0  0  0  0  0  0  0  0  0  0  0
  147.2220  141.8747  154.6346 H   0  0  0  0  0  0  0  0  0  0  0  0
  147.4670  140.2481  152.4249 H   0  0  0  0  0  0  0  0  0  0  0  0
  148.5459  138.8897  152.6275 H   0  0  0  0  0  0  0  0  0  0  0  0
  145.2925  140.0504  153.6613 H   0  0  0  0  0  0  0  0  0  0  0  0
  148.0564  137.2256  154.4961 H   0  0  0  0  0  0  0  0  0  0  0  0
  147.1933  138.0723  155.7785 H   0  0  0  0  0  0  0  0  0  0  0  0
  146.3385  135.6312  155.0712 H   0  0  0  0  0  0  0  0  0  0  0  0
  145.1037  136.8981  155.1599 H   0  0  0  0  0  0  0  0  0  0  0  0
  144.8448  138.1964  152.6088 H   0  0  0  0  0  0  0  0  0  0  0  0
  146.5347  138.6636  150.7982 H   0  0  0  0  0  0  0  0  0  0  0  0
  145.8468  137.0524  150.6715 H   0  0  0  0  0  0  0  0  0  0  0  0
  147.4648  137.2562  151.3250 H   0  0  0  0  0  0  0  0  0  0  0  0
  1  2  1  0  0  0  0
  1 27  1  0  0  0  0
  1 28  1  0  0  0  0
  1 29  1  0  0  0  0
  2  3  1  0  0  0  0
  2 30  1  0  0  0  0
  2 31  1  0  0  0  0
  3  4  1  0  0  0  0
  3 10  1  0  0  0  0
  4  5  1  0  0  0  0
  4 32  1  0  0  0  0
  4 33  1  0  0  0  0
  5  9  1  0  0  0  0
  5  6  1  0  0  0  0
  5 34  1  0  0  0  0
  6  7  1  0  0  0  0
  6 35  1  0  0  0  0
  6 36  1  0  0  0  0
  7  8  1  0  0  0  0
  7 37  1  0  0  0  0
  7 38  1  0  0  0  0
  8  9  1  0  0  0  0
  8 39  1  0  0  0  0
  8 40  1  0  0  0  0
 10 15  1  0  0  0  0
 10 11  2  0  0  0  0
 11 12  1  0  0  0  0
 12 13  2  0  0  0  0
 12 41  1  0  0  0  0
 13 14  1  0  0  0  0
 14 18  1  0  0  0  0
 14 15  2  0  0  0  0
 15 16  1  0  0  0  0
 16 17  2  0  0  0  0
 17 18  1  0  0  0  0
 17 42  1  0  0  0  0
 18 19  1  0  0  0  0
 19 20  1  0  0  0  0
 19 43  1  0  0  0  0
 19 44  1  0  0  0  0
 20 25  1  0  0  0  0
 20 21  1  0  0  0  0
 20 22  1  0  0  0  0
 21 45  1  0  0  0  0
 22 23  1  0  0  0  0
 22 46  1  0  0  0  0
 22 47  1  0  0  0  0
 23 24  1  0  0  0  0
 23 48  1  0  0  0  0
 23 49  1  0  0  0  0
 24 25  1  0  0  0  0
 25 26  1  0  0  0  0
 25 50  1  0  0  0  0
 26 51  1  0  0  0  0
 26 52  1  0  0  0  0
 26 53  1  0  0  0  0
M  END
> <s_m_source_file>
AV-unprocessed.smi

> <i_m_source_file_index>
15

> <i_lp_mmshare_version>
43012

> <i_f3d_flags>
0

> <s_epik_input>
TzFbQ0gyXVtDSDJdW0NIMl1bQ0BIXTFbQ0gyXU4oW0NIMl1bQ0gzXSljKG5bY0hdbjIpYyhjMjMpbltjSF1uM1tDSDJdW0NAQF00KFtPSF0pW0NIMl1bQ0gyXU9bQ0BIXTRbQ0gzXQ==

> <s_epik_cmdline>
J2VwaWtfcHl0aG9uJywgJy1waCcsICc3LjAnLCAnLXRuJywgJzgnLCAnLW1hJywgJzIwMCcsICctbWV0YWxfYmluZGluZycsICctaW1hZScsICc8aW5maWxlLm1hZT4nLCAnLW9tYWUnLCAnPG91dGZpbGUubWFlPic=

> <r_lp_tautomer_probability>
1

> <r_epik_Ionization_Penalty>
0.00360814

> <r_epik_Ionization_Penalty_Charging>
0

> <r_epik_Ionization_Penalty_Neutral>
0.00360814

> <r_epik_State_Penalty>
0.00237482

> <r_epik_Charging_Adjusted_Penalty>
0.00237482

> <i_epik_Tot_Q>
0

> <i_epik_Tot_abs_Q>
0

> <r_epik_Metal_State_Penalty>
-0

> <b_epik_Metal_Only>
0

> <s_lp_Force_Field>
OPLS_2005

> <r_lp_Energy>
47.4065

> <b_lp_Chiralities_Consistent>
1

> <s_lp_Variant>
AV-unprocessed.smi:15-7

> <Gold.Version>
5.8.1

> <Gold.Id.Protein>
6NUR|6NUR_protein|mol2

> <Gold.PLP.Fitness>
45.8995

> <Gold.PLP.PLP>
-41.6610

> <Gold.PLP.part.hbond>
-1.8809

> <Gold.PLP.part.metal>
0.0000

> <Gold.PLP.part.buried>
2.0029

> <Gold.PLP.part.nonpolar>
-43.1081

> <Gold.PLP.part.repulsive>
2.2749

> <Gold.PLP.ligand.clash>
0.0000

> <Gold.PLP.ligand.torsion>
0.5763

> <Gold.PLP.Chemscore.Hbond>
1.5038

> <Gold.PLP.Chemscore.CHOScore>
0.0000

> <Gold.PLP.Chemscore.Metal>
0.0000

> <Gold.Chemscore.Hbonds>
donor molecule, donor type, donor heavy atom, donor atom, acceptor molecule, acceptor atom, score
      L1  H    21    45       P1 10175  0.96
      P1  H  7997  8008       L1    11  0.54

> <Gold.PLP.Chemscore.Internal.Correction>
0.8799

> <Gold.Rescore>
     Score         DG    S(hbond)    S(metal)    S(lipo)     H(rot)  DE(clash)    DE(int)     intcor
      7.31     -14.56       1.26        0.00     100.83       2.71       3.58       3.67       ----

> <Gold.Chemscore.Fitness>
7.3090

> <Gold.Chemscore.DG>
-14.5565

> <Gold.Chemscore.ZeroCoef>
-5.4800

> <Gold.Chemscore.Hbond>
1.2606

> <Gold.Chemscore.Metal>
0.0000

> <Gold.Chemscore.Lipo>
100.8274

> <Gold.Chemscore.Internal_Hbond>
0.0000

> <Gold.Chemscore.DEClash>
3.5757

> <Gold.Chemscore.DEInternal>
3.6718

> <Gold.Chemscore.Rot>
2.7074

> <Gold.Chemscore.Internal.Correction>
   9.000000E+99

> <Gold.Chemscore.Hbonds>
donor molecule, donor type, donor heavy atom, donor atom, acceptor molecule, acceptor atom, score
      L1  H    21    45       P1 10175  0.89
      P1  H  7997  8008       L1    11  0.48

> <Gold.Chemscore.Hbond.Weighted>
-4.2105

> <Gold.Chemscore.Metal.Weighted>
-0.0000

> <Gold.Chemscore.Lipo.Weighted>
-11.7968

> <Gold.Chemscore.Internal_Hbond.Weighted>
0.0000

> <Gold.Chemscore.DEClash.Weighted>
3.5757

> <Gold.Chemscore.DEInternal.Weighted>
3.6718

> <Gold.Chemscore.Rot.Weighted>
6.9308

> <Gold.Chemscore.Internal.Correction.Weighted>
   9.000000E+99

> <Gold.Protein.RotatedTorsions>
[ 6907 6896 6895 6894 ] final  123.87 input  -60.11 | X-H torsion
[ 7974 7965 7964 7962 ] final   10.64 input  175.53 | X-H torsion
[ 8008 7997 7996 7995 ] final  -37.81 input   59.86 | X-H torsion
[ 10167 10162 10161 10158 ] final  -49.59 input  -65.29 | X-H torsion
[ 10718 10713 10712 10709 ] final   63.95 input   66.30 | X-H torsion
[ 10763 10752 10751 10750 ] final  -51.68 input  -60.55 | X-H torsion
[ 11005 11000 10999 10996 ] final   83.18 input  -57.11 | X-H torsion

> <Gold.Protein.ActiveResidues>
 VAL166  LYS551  ARG553  GLY616  TRP617  ASP618  TYR619  PRO620  LYS621  CYS622 
 ASP623  PHE694  ASN695  SER759  ASP760  ASP761  ALA762  ILE779  LEU786  VAL792 
 PHE793  MET794  SER795  GLU796  ALA797  LYS798  CYS799  TRP800  GLU811  SER814 

> <Gold.Protein.RotatedAtoms>
  152.4126  133.6987  159.6410 H   0  0  0  0  0  0  0  0  0  0  0  0  # atno 6907 bound_to 6896
  150.8005  133.8598  159.3237 H   0  0  0  0  0  0  0  0  0  0  0  0  # atno 6908 bound_to 6896
  151.6336  135.1022  160.0178 H   0  0  0  0  0  0  0  0  0  0  0  0  # atno 6909 bound_to 6896
  146.2385  139.9603  142.8459 H   0  0  0  0  0  0  0  0  0  0  0  0  # atno 7974 bound_to 7965
  154.4047  140.1594  156.2597 H   0  0  0  0  0  0  0  0  0  0  0  0  # atno 8008 bound_to 7997
  155.9047  140.3431  155.6030 H   0  0  0  0  0  0  0  0  0  0  0  0  # atno 8009 bound_to 7997
  155.7407  140.0792  157.2238 H   0  0  0  0  0  0  0  0  0  0  0  0  # atno 8010 bound_to 7997
  140.6678  143.2692  151.4236 H   0  0  0  0  0  0  0  0  0  0  0  0  # atno 10167 bound_to 10162
  157.6006  130.9133  149.9782 H   0  0  0  0  0  0  0  0  0  0  0  0  # atno 10718 bound_to 10713
  154.1304  135.6521  153.4921 H   0  0  0  0  0  0  0  0  0  0  0  0  # atno 10763 bound_to 10752
  153.0197  135.5291  154.7006 H   0  0  0  0  0  0  0  0  0  0  0  0  # atno 10764 bound_to 10752
  154.6240  135.2968  155.0264 H   0  0  0  0  0  0  0  0  0  0  0  0  # atno 10765 bound_to 10752
  139.9039  134.8126  156.2275 H   0  0  0  0  0  0  0  0  0  0  0  0  # atno 11005 bound_to 11000
  145.1777  140.9752  143.4285 LP  0  0  0  0  0  0  0  0  0  0  0  0  # atno 17320 bound_to 7965
  144.9971  139.3634  143.6186 LP  0  0  0  0  0  0  0  0  0  0  0  0  # atno 17321 bound_to 7965
  139.5934  144.1450  152.2115 LP  0  0  0  0  0  0  0  0  0  0  0  0  # atno 17342 bound_to 10162
  140.0812  144.5699  150.7121 LP  0  0  0  0  0  0  0  0  0  0  0  0  # atno 17343 bound_to 10162
  156.1078  130.3651  150.0102 LP  0  0  0  0  0  0  0  0  0  0  0  0  # atno 17370 bound_to 10713
  156.8205  130.9357  151.3641 LP  0  0  0  0  0  0  0  0  0  0  0  0  # atno 17371 bound_to 10713
  141.0367  133.6960  156.1524 LP  0  0  0  0  0  0  0  0  0  0  0  0  # atno 17394 bound_to 11000
  140.7017  134.4557  157.5586 LP  0  0  0  0  0  0  0  0  0  0  0  0  # atno 17395 bound_to 11000

$$$$
