AV-unprocessed.smi:2083|AV-procd|sdf|8511|dock6
  -GOLD-   2272011223D 1   1.00000     0.00000
 Structure written by MMmdl.
 44 45  0  0  0  0  0  0  0  0  3 V2000
  147.7610  136.1349  163.0887 C   0  0  0  0  0  0  0  0  0  0  0  0
  147.6798  135.9983  161.6070 C   0  0  0  0  0  0  0  0  0  0  0  0
  147.6223  134.9160  160.7750 C   0  0  0  0  0  0  0  0  0  0  0  0
  147.5586  135.5061  159.4843 C   0  0  0  0  0  0  0  0  0  0  0  0
  147.4846  134.6944  158.3217 N   0  0  0  0  0  0  0  0  0  0  0  0
  148.4607  133.9897  157.7205 C   0  0  0  0  0  0  0  0  0  0  0  0
  149.6083  133.9909  158.1820 O   0  0  0  0  0  0  0  0  0  0  0  0
  148.0124  133.3338  156.6155 N   0  5  0  0  0  0  0  0  0  0  0  0
  147.1536  133.9257  155.5912 C   0  0  0  0  0  0  0  0  0  0  0  0
  147.9767  134.2239  154.2966 C   0  0  1  0  0  0  0  0  0  0  0  0
  149.2300  133.3289  154.1453 C   0  0  0  0  0  0  0  0  0  0  0  0
  147.1925  134.2251  153.0141 N   0  3  1  0  0  0  0  0  0  0  0  0
  147.2811  133.0078  152.1533 C   0  0  0  0  0  0  0  0  0  0  0  0
  146.7422  133.3008  150.7448 C   0  0  0  0  0  0  0  0  0  0  0  0
  145.3049  133.8385  150.8063 C   0  0  0  0  0  0  0  0  0  0  0  0
  145.1987  135.0580  151.7421 C   0  0  2  0  0  0  0  0  0  0  0  0
  145.8100  136.3316  151.1319 C   0  0  0  0  0  0  0  0  0  0  0  0
  145.7938  134.7316  153.1274 C   0  0  0  0  0  0  0  0  0  0  0  0
  147.5770  136.8302  159.5262 N   0  0  0  0  0  0  0  0  0  0  0  0
  147.6556  137.1522  160.8863 O   0  0  0  0  0  0  0  0  0  0  0  0
  147.5498  135.1848  163.5797 H   0  0  0  0  0  0  0  0  0  0  0  0
  147.0406  136.8689  163.4502 H   0  0  0  0  0  0  0  0  0  0  0  0
  148.7566  136.4583  163.3921 H   0  0  0  0  0  0  0  0  0  0  0  0
  147.6245  133.8710  161.0470 H   0  0  0  0  0  0  0  0  0  0  0  0
  146.5768  134.6434  157.8841 H   0  0  0  0  0  0  0  0  0  0  0  0
  146.3125  133.2808  155.3340 H   0  0  0  0  0  0  0  0  0  0  0  0
  146.7115  134.8558  155.9497 H   0  0  0  0  0  0  0  0  0  0  0  0
  148.3614  135.2406  154.3950 H   0  0  0  0  0  0  0  0  0  0  0  0
  149.9346  133.4666  154.9677 H   0  0  0  0  0  0  0  0  0  0  0  0
  149.7702  133.5781  153.2314 H   0  0  0  0  0  0  0  0  0  0  0  0
  148.9891  132.2661  154.1001 H   0  0  0  0  0  0  0  0  0  0  0  0
  148.3130  132.6685  152.0723 H   0  0  0  0  0  0  0  0  0  0  0  0
  146.7116  132.1883  152.5946 H   0  0  0  0  0  0  0  0  0  0  0  0
  147.3903  134.0206  150.2438 H   0  0  0  0  0  0  0  0  0  0  0  0
  146.7716  132.3929  150.1415 H   0  0  0  0  0  0  0  0  0  0  0  0
  144.9509  134.0908  149.8061 H   0  0  0  0  0  0  0  0  0  0  0  0
  144.6471  133.0488  151.1721 H   0  0  0  0  0  0  0  0  0  0  0  0
  144.1373  135.2661  151.8840 H   0  0  0  0  0  0  0  0  0  0  0  0
  146.8863  136.2382  150.9859 H   0  0  0  0  0  0  0  0  0  0  0  0
  145.6398  137.1936  151.7776 H   0  0  0  0  0  0  0  0  0  0  0  0
  145.3621  136.5561  150.1635 H   0  0  0  0  0  0  0  0  0  0  0  0
  145.1718  133.9829  153.6198 H   0  0  0  0  0  0  0  0  0  0  0  0
  145.7636  135.6232  153.7549 H   0  0  0  0  0  0  0  0  0  0  0  0
  147.6571  134.9399  152.4735 H   0  0  0  0  0  0  0  0  0  0  0  0
  1  2  1  0  0  0  0
  1 21  1  0  0  0  0
  1 22  1  0  0  0  0
  1 23  1  0  0  0  0
  2 20  1  0  0  0  0
  2  3  2  0  0  0  0
  3  4  1  0  0  0  0
  3 24  1  0  0  0  0
  4  5  1  0  0  0  0
  4 19  2  0  0  0  0
  5  6  1  0  0  0  0
  5 25  1  0  0  0  0
  6  7  2  0  0  0  0
  6  8  1  0  0  0  0
  8  9  1  0  0  0  0
  9 10  1  0  0  0  0
  9 26  1  0  0  0  0
  9 27  1  0  0  0  0
 10 11  1  0  0  0  0
 10 12  1  0  0  0  0
 10 28  1  0  0  0  0
 11 29  1  0  0  0  0
 11 30  1  0  0  0  0
 11 31  1  0  0  0  0
 12 18  1  0  0  0  0
 12 13  1  0  0  0  0
 12 44  1  0  0  0  0
 13 14  1  0  0  0  0
 13 32  1  0  0  0  0
 13 33  1  0  0  0  0
 14 15  1  0  0  0  0
 14 34  1  0  0  0  0
 14 35  1  0  0  0  0
 15 16  1  0  0  0  0
 15 36  1  0  0  0  0
 15 37  1  0  0  0  0
 16 17  1  0  0  0  0
 16 18  1  0  0  0  0
 16 38  1  0  0  0  0
 17 39  1  0  0  0  0
 17 40  1  0  0  0  0
 17 41  1  0  0  0  0
 18 42  1  0  0  0  0
 18 43  1  0  0  0  0
 19 20  1  0  0  0  0
M  CHG  1   8  -1
M  CHG  1  12   1
M  END
> <s_m_source_file>
AV-unprocessed.smi

> <i_m_source_file_index>
2083

> <i_lp_mmshare_version>
43012

> <i_f3d_flags>
0

> <s_epik_input>
W0NIM11jMVtjSF1jKG5vMSlbTkhdQyg9TylbTkhdW0NIMl1bQ0BIXShbQ0gzXSlOMltDSDJdW0NIMl1bQ0gyXVtDQEBIXShbQ0gzXSlbQ0gyXTI=

> <s_epik_cmdline>
J2VwaWtfcHl0aG9uJywgJy1waCcsICc3LjAnLCAnLXRuJywgJzgnLCAnLW1hJywgJzIwMCcsICctbWV0YWxfYmluZGluZycsICctaW1hZScsICc8aW5maWxlLm1hZT4nLCAnLW9tYWUnLCAnPG91dGZpbGUubWFlPic=

> <r_epik_Ionization_Penalty>
6.76934

> <r_epik_Ionization_Penalty_Charging>
6.76934

> <r_epik_Ionization_Penalty_Neutral>
5.77849e-06

> <r_epik_State_Penalty>
6.79457

> <r_epik_Charging_Adjusted_Penalty>
13.5639

> <i_epik_Tot_Q>
0

> <i_epik_Tot_abs_Q>
2

> <r_epik_Metal_State_Penalty>
2.72837

> <b_epik_Metal_Only>
1

> <s_lp_Force_Field>
OPLS_2005

> <r_lp_Energy>
23.3528

> <b_lp_Chiralities_Consistent>
1

> <s_lp_Variant>
AV-unprocessed.smi:2083-22

> <Gold.Version>
5.8.1

> <Gold.Id.Protein>
6NUR|6NUR_protein|mol2

> <Gold.PLP.Fitness>
41.8663

> <Gold.PLP.PLP>
-31.8005

> <Gold.PLP.part.hbond>
-4.0000

> <Gold.PLP.part.metal>
0.0000

> <Gold.PLP.part.buried>
-3.1816

> <Gold.PLP.part.nonpolar>
-24.9903

> <Gold.PLP.part.repulsive>
0.0292

> <Gold.PLP.ligand.clash>
0.0000

> <Gold.PLP.ligand.torsion>
2.2592

> <Gold.PLP.Chemscore.Hbond>
4.7920

> <Gold.PLP.Chemscore.CHOScore>
0.0000

> <Gold.PLP.Chemscore.Metal>
0.0000

> <Gold.Chemscore.Hbonds>
donor molecule, donor type, donor heavy atom, donor atom, acceptor molecule, acceptor atom, score
      L1  H    12    44       P1  7948  2.00
      P1  H  6896  6909       L1     7  1.00
      P1  H  6931  6943       L1    20  0.86
      P1  H  6934  6947       L1    20  0.93

> <Gold.PLP.Chemscore.Internal.Correction>
0.2082

> <Gold.Rescore>
     Score         DG    S(hbond)    S(metal)    S(lipo)     H(rot)  DE(clash)    DE(int)     intcor
     17.44     -19.68       2.89        0.00      72.24       1.52       0.03       2.20       ----

> <Gold.Chemscore.Fitness>
17.4424

> <Gold.Chemscore.DG>
-19.6794

> <Gold.Chemscore.ZeroCoef>
-5.4800

> <Gold.Chemscore.Hbond>
2.8851

> <Gold.Chemscore.Metal>
0.0000

> <Gold.Chemscore.Lipo>
72.2386

> <Gold.Chemscore.Internal_Hbond>
0.0000

> <Gold.Chemscore.DEClash>
0.0330

> <Gold.Chemscore.DEInternal>
2.2041

> <Gold.Chemscore.Rot>
1.5190

> <Gold.Chemscore.Internal.Correction>
   9.000000E+99

> <Gold.Chemscore.Hbonds>
donor molecule, donor type, donor heavy atom, donor atom, acceptor molecule, acceptor atom, score
      L1  H    12    44       P1  7948  0.95
      P1  H  6896  6909       L1     7  0.97
      P1  H  6931  6943       L1    20  0.24
      P1  H  6934  6947       L1    20  0.36

> <Gold.Chemscore.Hbond.Weighted>
-9.6361

> <Gold.Chemscore.Metal.Weighted>
-0.0000

> <Gold.Chemscore.Lipo.Weighted>
-8.4519

> <Gold.Chemscore.Internal_Hbond.Weighted>
0.0000

> <Gold.Chemscore.DEClash.Weighted>
0.0330

> <Gold.Chemscore.DEInternal.Weighted>
2.2041

> <Gold.Chemscore.Rot.Weighted>
3.8886

> <Gold.Chemscore.Internal.Correction.Weighted>
   9.000000E+99

> <Gold.Protein.RotatedTorsions>
[ 6907 6896 6895 6894 ] final    8.12 input  -60.11 | X-H torsion
[ 7974 7965 7964 7962 ] final   67.79 input  175.53 | X-H torsion
[ 8008 7997 7996 7995 ] final  -74.13 input   59.86 | X-H torsion
[ 10167 10162 10161 10158 ] final  -43.61 input  -65.29 | X-H torsion
[ 10718 10713 10712 10709 ] final  -50.55 input   66.30 | X-H torsion
[ 10763 10752 10751 10750 ] final -165.04 input  -60.55 | X-H torsion
[ 11005 11000 10999 10996 ] final -139.73 input  -57.11 | X-H torsion

> <Gold.Protein.ActiveResidues>
 VAL166  LYS551  ARG553  GLY616  TRP617  ASP618  TYR619  PRO620  LYS621  CYS622 
 ASP623  PHE694  ASN695  SER759  ASP760  ASP761  ALA762  ILE779  LEU786  VAL792 
 PHE793  MET794  SER795  GLU796  ALA797  LYS798  CYS799  TRP800  GLU811  SER814 

> <Gold.Protein.RotatedAtoms>
  151.7009  135.0930  160.0250 H   0  0  0  0  0  0  0  0  0  0  0  0  # atno 6907 bound_to 6896
  152.3721  133.6429  159.6104 H   0  0  0  0  0  0  0  0  0  0  0  0  # atno 6908 bound_to 6896
  150.7681  133.9169  159.3427 H   0  0  0  0  0  0  0  0  0  0  0  0  # atno 6909 bound_to 6896
  145.8104  139.3029  143.1102 H   0  0  0  0  0  0  0  0  0  0  0  0  # atno 7974 bound_to 7965
  154.5305  140.0767  156.8336 H   0  0  0  0  0  0  0  0  0  0  0  0  # atno 8008 bound_to 7997
  155.3385  140.3406  155.4221 H   0  0  0  0  0  0  0  0  0  0  0  0  # atno 8009 bound_to 7997
  156.1776  140.1641  156.8320 H   0  0  0  0  0  0  0  0  0  0  0  0  # atno 8010 bound_to 7997
  140.6927  143.2974  151.3377 H   0  0  0  0  0  0  0  0  0  0  0  0  # atno 10167 bound_to 10162
  156.1790  130.4150  149.9535 H   0  0  0  0  0  0  0  0  0  0  0  0  # atno 10718 bound_to 10713
  154.6970  135.2981  154.9396 H   0  0  0  0  0  0  0  0  0  0  0  0  # atno 10763 bound_to 10752
  154.0341  135.6666  153.4787 H   0  0  0  0  0  0  0  0  0  0  0  0  # atno 10764 bound_to 10752
  153.0653  135.5091  154.8094 H   0  0  0  0  0  0  0  0  0  0  0  0  # atno 10765 bound_to 10752
  140.8491  134.2308  157.4770 H   0  0  0  0  0  0  0  0  0  0  0  0  # atno 11005 bound_to 11000
  145.9783  140.8703  143.0127 LP  0  0  0  0  0  0  0  0  0  0  0  0  # atno 17320 bound_to 7965
  144.6758  140.2044  143.7383 LP  0  0  0  0  0  0  0  0  0  0  0  0  # atno 17321 bound_to 7965
  139.6348  144.0652  152.2506 LP  0  0  0  0  0  0  0  0  0  0  0  0  # atno 17342 bound_to 10162
  140.0138  144.6204  150.7625 LP  0  0  0  0  0  0  0  0  0  0  0  0  # atno 17343 bound_to 10162
  156.7311  130.9043  151.3626 LP  0  0  0  0  0  0  0  0  0  0  0  0  # atno 17370 bound_to 10713
  157.6855  130.9181  150.0376 LP  0  0  0  0  0  0  0  0  0  0  0  0  # atno 17371 bound_to 10713
  139.8704  134.9674  156.4596 LP  0  0  0  0  0  0  0  0  0  0  0  0  # atno 17394 bound_to 11000
  140.8810  133.7918  155.9467 LP  0  0  0  0  0  0  0  0  0  0  0  0  # atno 17395 bound_to 11000

$$$$
