AV-unprocessed.smi:2825|AV-procd|sdf|10891|dock8
  -GOLD-   2272015333D 1   1.00000     0.00000
 Structure written by MMmdl.
 49 50  0  0  0  0  0  0  0  0  2 V2000
  147.5403  140.9026  155.8577 C   0  0  0  0  0  0  0  0  0  0  0  0
  149.0277  140.5505  155.7533 C   0  0  0  0  0  0  0  0  0  0  0  0
  149.2741  139.0352  155.7786 C   0  0  0  0  0  0  0  0  0  0  0  0
  151.0359  138.6229  155.4120 S   0  0  0  0  0  0  0  0  0  0  0  0
  151.0785  137.4794  154.4880 O   0  0  0  0  0  0  0  0  0  0  0  0
  151.7411  139.8687  155.0726 O   0  0  0  0  0  0  0  0  0  0  0  0
  151.6286  138.0706  156.9476 N   0  0  0  0  0  0  0  0  0  0  0  0
  151.0969  136.8148  157.4879 C   0  0  0  0  0  0  0  0  0  0  0  0
  153.0259  138.3527  157.3091 C   0  0  0  0  0  0  0  0  0  0  0  0
  153.1137  139.0695  158.6756 C   0  0  1  0  0  0  0  0  0  0  0  0
  152.9403  138.1076  159.6953 O   0  0  0  0  0  0  0  0  0  0  0  0
  154.4662  139.7646  158.9305 C   0  0  0  0  0  0  0  0  0  0  0  0
  154.4005  140.7402  160.0281 N   0  0  0  0  0  0  0  0  0  0  0  0
  155.0282  140.7205  161.2352 C   0  0  0  0  0  0  0  0  0  0  0  0
  154.6421  141.8327  161.9186 N   0  3  0  0  0  0  0  0  0  0  0  0
  153.7590  142.5774  161.1348 C   0  0  0  0  0  0  0  0  0  0  0  0
  153.1011  143.7736  161.3951 C   0  0  0  0  0  0  0  0  0  0  0  0
  152.2553  144.2783  160.3820 C   0  0  0  0  0  0  0  0  0  0  0  0
  151.5192  145.5831  160.6351 C   0  0  0  0  0  0  0  0  0  0  0  0
  152.0924  143.5850  159.1548 C   0  0  0  0  0  0  0  0  0  0  0  0
  151.1771  144.1341  158.0738 C   0  0  0  0  0  0  0  0  0  0  0  0
  152.7727  142.3712  158.9085 C   0  0  0  0  0  0  0  0  0  0  0  0
  153.6021  141.8857  159.9175 C   0  0  0  0  0  0  0  0  0  0  0  0
  147.3939  141.9829  155.8378 H   0  0  0  0  0  0  0  0  0  0  0  0
  147.1115  140.5263  156.7869 H   0  0  0  0  0  0  0  0  0  0  0  0
  146.9750  140.4754  155.0290 H   0  0  0  0  0  0  0  0  0  0  0  0
  149.4331  140.9772  154.8356 H   0  0  0  0  0  0  0  0  0  0  0  0
  149.5637  141.0210  156.5779 H   0  0  0  0  0  0  0  0  0  0  0  0
  149.0020  138.6023  156.7404 H   0  0  0  0  0  0  0  0  0  0  0  0
  148.6611  138.5479  155.0203 H   0  0  0  0  0  0  0  0  0  0  0  0
  151.2758  136.7543  158.5619 H   0  0  0  0  0  0  0  0  0  0  0  0
  151.5760  135.9640  157.0025 H   0  0  0  0  0  0  0  0  0  0  0  0
  150.0229  136.7458  157.3205 H   0  0  0  0  0  0  0  0  0  0  0  0
  153.6245  137.4401  157.3144 H   0  0  0  0  0  0  0  0  0  0  0  0
  153.4429  138.9677  156.5137 H   0  0  0  0  0  0  0  0  0  0  0  0
  152.3209  139.8106  158.7782 H   0  0  0  0  0  0  0  0  0  0  0  0
  152.3288  137.4537  159.3931 H   0  0  0  0  0  0  0  0  0  0  0  0
  155.2137  139.0240  159.2187 H   0  0  0  0  0  0  0  0  0  0  0  0
  154.8457  140.2440  158.0286 H   0  0  0  0  0  0  0  0  0  0  0  0
  155.7006  139.9533  161.5914 H   0  0  0  0  0  0  0  0  0  0  0  0
  153.2286  144.2947  162.3330 H   0  0  0  0  0  0  0  0  0  0  0  0
  150.4407  145.4268  160.6009 H   0  0  0  0  0  0  0  0  0  0  0  0
  151.7865  146.3263  159.8834 H   0  0  0  0  0  0  0  0  0  0  0  0
  151.7652  145.9966  161.6136 H   0  0  0  0  0  0  0  0  0  0  0  0
  151.1456  143.4763  157.2047 H   0  0  0  0  0  0  0  0  0  0  0  0
  151.5243  145.1116  157.7387 H   0  0  0  0  0  0  0  0  0  0  0  0
  150.1587  144.2372  158.4491 H   0  0  0  0  0  0  0  0  0  0  0  0
  152.6413  141.8448  157.9751 H   0  0  0  0  0  0  0  0  0  0  0  0
  154.9562  142.0611  162.8530 H   0  0  0  0  0  0  0  0  0  0  0  0
  1  2  1  0  0  0  0
  1 24  1  0  0  0  0
  1 25  1  0  0  0  0
  1 26  1  0  0  0  0
  2  3  1  0  0  0  0
  2 27  1  0  0  0  0
  2 28  1  0  0  0  0
  3  4  1  0  0  0  0
  3 29  1  0  0  0  0
  3 30  1  0  0  0  0
  4  5  2  0  0  0  0
  4  6  2  0  0  0  0
  4  7  1  0  0  0  0
  7  8  1  0  0  0  0
  7  9  1  0  0  0  0
  8 31  1  0  0  0  0
  8 32  1  0  0  0  0
  8 33  1  0  0  0  0
  9 10  1  0  0  0  0
  9 34  1  0  0  0  0
  9 35  1  0  0  0  0
 10 11  1  0  0  0  0
 10 12  1  0  0  0  0
 10 36  1  0  0  0  0
 11 37  1  0  0  0  0
 12 13  1  0  0  0  0
 12 38  1  0  0  0  0
 12 39  1  0  0  0  0
 13 23  1  0  0  0  0
 13 14  1  0  0  0  0
 14 15  2  0  0  0  0
 14 40  1  0  0  0  0
 15 16  1  0  0  0  0
 15 49  1  0  0  0  0
 16 23  2  0  0  0  0
 16 17  1  0  0  0  0
 17 18  2  0  0  0  0
 17 41  1  0  0  0  0
 18 19  1  0  0  0  0
 18 20  1  0  0  0  0
 19 42  1  0  0  0  0
 19 43  1  0  0  0  0
 19 44  1  0  0  0  0
 20 21  1  0  0  0  0
 20 22  2  0  0  0  0
 21 45  1  0  0  0  0
 21 46  1  0  0  0  0
 21 47  1  0  0  0  0
 22 23  1  0  0  0  0
 22 48  1  0  0  0  0
M  CHG  1  15   1
M  END
> <s_m_source_file>
AV-unprocessed.smi

> <i_m_source_file_index>
2825

> <i_lp_mmshare_version>
43012

> <i_f3d_flags>
0

> <s_epik_input>
W0NIM11bQ0gyXVtDSDJdUyg9TykoPU8pTihbQ0gzXSlbQ0gyXVtDQEhdKFtPSF0pW0NIMl1uKFtjSF1uMSljKGMxMilbY0hdYyhbQ0gzXSljKFtjSF0yKVtDSDNd

> <s_epik_cmdline>
J2VwaWtfcHl0aG9uJywgJy1waCcsICc3LjAnLCAnLXRuJywgJzgnLCAnLW1hJywgJzIwMCcsICctbWV0YWxfYmluZGluZycsICctaW1hZScsICc8aW5maWxlLm1hZT4nLCAnLW9tYWUnLCAnPG91dGZpbGUubWFlPic=

> <r_epik_Ionization_Penalty>
1.0773

> <r_epik_Ionization_Penalty_Charging>
1.0773

> <r_epik_Ionization_Penalty_Neutral>
1.44651e-06

> <r_epik_State_Penalty>
1.13242

> <r_epik_Charging_Adjusted_Penalty>
2.20972

> <i_epik_Tot_Q>
1

> <i_epik_Tot_abs_Q>
1

> <r_epik_Metal_State_Penalty>
5.13045

> <b_epik_Metal_Only>
0

> <s_lp_Force_Field>
OPLS_2005

> <r_lp_Energy>
14.1853

> <b_lp_Chiralities_Consistent>
1

> <s_lp_Variant>
AV-unprocessed.smi:2825-4

> <Gold.Version>
5.8.1

> <Gold.Id.Protein>
6NUR|6NUR_protein|mol2

> <Gold.PLP.Fitness>
58.9611

> <Gold.PLP.PLP>
-52.8708

> <Gold.PLP.part.hbond>
-3.0000

> <Gold.PLP.part.metal>
0.0000

> <Gold.PLP.part.buried>
-3.4516

> <Gold.PLP.part.nonpolar>
-46.7778

> <Gold.PLP.part.repulsive>
0.2267

> <Gold.PLP.ligand.clash>
0.0000

> <Gold.PLP.ligand.torsion>
1.8037

> <Gold.PLP.Chemscore.Hbond>
2.3717

> <Gold.PLP.Chemscore.CHOScore>
0.0000

> <Gold.PLP.Chemscore.Metal>
0.0000

> <Gold.Chemscore.Hbonds>
donor molecule, donor type, donor heavy atom, donor atom, acceptor molecule, acceptor atom, score
      P1  H  7989  7998       L1     6  1.00

> <Gold.PLP.Chemscore.Internal.Correction>
2.5827

> <Gold.Rescore>
     Score         DG    S(hbond)    S(metal)    S(lipo)     H(rot)  DE(clash)    DE(int)     intcor
     18.39     -20.26       1.80        0.00     130.01       2.51       0.07       1.80       ----

> <Gold.Chemscore.Fitness>
18.3867

> <Gold.Chemscore.DG>
-20.2589

> <Gold.Chemscore.ZeroCoef>
-5.4800

> <Gold.Chemscore.Hbond>
1.7950

> <Gold.Chemscore.Metal>
0.0000

> <Gold.Chemscore.Lipo>
130.0058

> <Gold.Chemscore.Internal_Hbond>
0.0000

> <Gold.Chemscore.DEClash>
0.0673

> <Gold.Chemscore.DEInternal>
1.8050

> <Gold.Chemscore.Rot>
2.5106

> <Gold.Chemscore.Internal.Correction>
   9.000000E+99

> <Gold.Chemscore.Hbonds>
donor molecule, donor type, donor heavy atom, donor atom, acceptor molecule, acceptor atom, score
      P1  H  7989  7998       L1     6  0.94

> <Gold.Chemscore.Hbond.Weighted>
-5.9953

> <Gold.Chemscore.Metal.Weighted>
-0.0000

> <Gold.Chemscore.Lipo.Weighted>
-15.2107

> <Gold.Chemscore.Internal_Hbond.Weighted>
0.0000

> <Gold.Chemscore.DEClash.Weighted>
0.0673

> <Gold.Chemscore.DEInternal.Weighted>
1.8050

> <Gold.Chemscore.Rot.Weighted>
6.4271

> <Gold.Chemscore.Internal.Correction.Weighted>
   9.000000E+99

> <Gold.Protein.RotatedTorsions>
[ 6907 6896 6895 6894 ] final  -31.81 input  -60.11 | X-H torsion
[ 7974 7965 7964 7962 ] final   95.55 input  175.53 | X-H torsion
[ 8008 7997 7996 7995 ] final  109.22 input   59.86 | X-H torsion
[ 10167 10162 10161 10158 ] final -174.00 input  -65.29 | X-H torsion
[ 10718 10713 10712 10709 ] final   55.60 input   66.30 | X-H torsion
[ 10763 10752 10751 10750 ] final  155.91 input  -60.55 | X-H torsion
[ 11005 11000 10999 10996 ] final  -15.29 input  -57.11 | X-H torsion

> <Gold.Protein.ActiveResidues>
 VAL166  LYS551  ARG553  GLY616  TRP617  ASP618  TYR619  PRO620  LYS621  CYS622 
 ASP623  PHE694  ASN695  SER759  ASP760  ASP761  ALA762  ILE779  LEU786  VAL792 
 PHE793  MET794  SER795  GLU796  ALA797  LYS798  CYS799  TRP800  GLU811  SER814 

> <Gold.Protein.RotatedAtoms>
  151.0871  134.9894  159.8384 H   0  0  0  0  0  0  0  0  0  0  0  0  # atno 6907 bound_to 6896
  152.5425  134.2110  159.8760 H   0  0  0  0  0  0  0  0  0  0  0  0  # atno 6908 bound_to 6896
  151.2144  133.4494  159.2632 H   0  0  0  0  0  0  0  0  0  0  0  0  # atno 6909 bound_to 6896
  145.4507  139.2293  143.3041 H   0  0  0  0  0  0  0  0  0  0  0  0  # atno 7974 bound_to 7965
  156.1963  140.3062  155.9433 H   0  0  0  0  0  0  0  0  0  0  0  0  # atno 8008 bound_to 7997
  155.3059  140.0448  157.3049 H   0  0  0  0  0  0  0  0  0  0  0  0  # atno 8009 bound_to 7997
  154.5513  140.2292  155.8489 H   0  0  0  0  0  0  0  0  0  0  0  0  # atno 8010 bound_to 7997
  139.5657  144.1760  152.1309 H   0  0  0  0  0  0  0  0  0  0  0  0  # atno 10167 bound_to 10162
  157.5359  130.8663  149.8753 H   0  0  0  0  0  0  0  0  0  0  0  0  # atno 10718 bound_to 10713
  154.1759  135.2802  155.3067 H   0  0  0  0  0  0  0  0  0  0  0  0  # atno 10763 bound_to 10752
  154.6040  135.5520  153.7407 H   0  0  0  0  0  0  0  0  0  0  0  0  # atno 10764 bound_to 10752
  153.0151  135.6399  154.1898 H   0  0  0  0  0  0  0  0  0  0  0  0  # atno 10765 bound_to 10752
  140.7951  133.8257  155.9417 H   0  0  0  0  0  0  0  0  0  0  0  0  # atno 11005 bound_to 11000
  146.2506  140.5266  142.8895 LP  0  0  0  0  0  0  0  0  0  0  0  0  # atno 17320 bound_to 7965
  144.8063  140.6305  143.6445 LP  0  0  0  0  0  0  0  0  0  0  0  0  # atno 17321 bound_to 7965
  140.1283  144.5311  150.6819 LP  0  0  0  0  0  0  0  0  0  0  0  0  # atno 17342 bound_to 10162
  140.6941  143.2393  151.5050 LP  0  0  0  0  0  0  0  0  0  0  0  0  # atno 17343 bound_to 10162
  156.0458  130.3728  150.1320 LP  0  0  0  0  0  0  0  0  0  0  0  0  # atno 17370 bound_to 10713
  156.9503  130.9772  151.3499 LP  0  0  0  0  0  0  0  0  0  0  0  0  # atno 17371 bound_to 10713
  140.9350  134.1973  157.4837 LP  0  0  0  0  0  0  0  0  0  0  0  0  # atno 17394 bound_to 11000
  139.8727  134.9849  156.5257 LP  0  0  0  0  0  0  0  0  0  0  0  0  # atno 17395 bound_to 11000

$$$$
