AV-unprocessed.smi:1586|AV-procd|sdf|6373|dock6
  -GOLD-   22720 7 03D 1   1.00000     0.00000
 Structure written by MMmdl.
 47 48  0  0  0  0  0  0  0  0  2 V2000
  145.9875  143.3407  158.0286 C   0  0  0  0  0  0  0  0  0  0  0  0
  147.2364  142.4535  157.9239 C   0  0  0  0  0  0  0  0  0  0  0  0
  147.7868  142.3974  156.5464 N   0  3  0  0  0  0  0  0  0  0  0  0
  146.7737  142.0654  155.5129 C   0  0  0  0  0  0  0  0  0  0  0  0
  147.4223  142.0483  154.1126 C   0  0  0  0  0  0  0  0  0  0  0  0
  148.5001  141.0527  154.0205 N   0  0  0  0  0  0  0  0  0  0  0  0
  148.0791  139.6375  154.1267 C   0  0  2  0  0  0  0  0  0  0  0  0
  149.3013  138.7009  153.9773 C   0  0  0  0  0  0  0  0  0  0  0  0
  146.9944  139.2727  153.0754 C   0  0  0  0  0  0  0  0  0  0  0  0
  146.9987  137.8534  152.7329 N   0  0  0  0  0  0  0  0  0  0  0  0
  145.8962  137.1156  152.5347 C   0  0  0  0  0  0  0  0  0  0  0  0
  144.7537  137.5655  152.6360 O   0  0  0  0  0  0  0  0  0  0  0  0
  146.2033  135.8464  152.2173 N   0  0  0  0  0  0  0  0  0  0  0  0
  145.3039  134.7877  151.9312 C   0  0  0  0  0  0  0  0  0  0  0  0
  145.7831  133.5010  151.5684 C   0  0  0  0  0  0  0  0  0  0  0  0
  144.6336  132.7867  151.3787 C   0  0  0  0  0  0  0  0  0  0  0  0
  144.3714  131.3739  150.9830 C   0  0  0  0  0  0  0  0  0  0  0  0
  143.5453  133.5707  151.6070 O   0  0  0  0  0  0  0  0  0  0  0  0
  143.9815  134.8525  151.9622 N   0  0  0  0  0  0  0  0  0  0  0  0
  149.5128  141.4687  155.0030 C   0  0  0  0  0  0  0  0  0  0  0  0
  148.9528  141.4852  156.4432 C   0  0  0  0  0  0  0  0  0  0  0  0
  145.6727  143.4354  159.0680 H   0  0  0  0  0  0  0  0  0  0  0  0
  145.1448  142.9278  157.4747 H   0  0  0  0  0  0  0  0  0  0  0  0
  146.1824  144.3447  157.6506 H   0  0  0  0  0  0  0  0  0  0  0  0
  147.9955  142.8641  158.5911 H   0  0  0  0  0  0  0  0  0  0  0  0
  147.0218  141.4456  158.2825 H   0  0  0  0  0  0  0  0  0  0  0  0
  146.2961  141.1114  155.7397 H   0  0  0  0  0  0  0  0  0  0  0  0
  145.9834  142.8150  155.5177 H   0  0  0  0  0  0  0  0  0  0  0  0
  146.6721  141.9006  153.3387 H   0  0  0  0  0  0  0  0  0  0  0  0
  147.8404  143.0335  153.9010 H   0  0  0  0  0  0  0  0  0  0  0  0
  147.6510  139.4661  155.1127 H   0  0  0  0  0  0  0  0  0  0  0  0
  149.0072  137.6522  153.9440 H   0  0  0  0  0  0  0  0  0  0  0  0
  149.9904  138.7822  154.8167 H   0  0  0  0  0  0  0  0  0  0  0  0
  149.8540  138.9128  153.0614 H   0  0  0  0  0  0  0  0  0  0  0  0
  145.9877  139.4992  153.4238 H   0  0  0  0  0  0  0  0  0  0  0  0
  147.1446  139.8494  152.1621 H   0  0  0  0  0  0  0  0  0  0  0  0
  147.9001  137.4093  152.6322 H   0  0  0  0  0  0  0  0  0  0  0  0
  147.1841  135.6141  152.1663 H   0  0  0  0  0  0  0  0  0  0  0  0
  146.8008  133.1564  151.4621 H   0  0  0  0  0  0  0  0  0  0  0  0
  145.2293  130.7409  151.2104 H   0  0  0  0  0  0  0  0  0  0  0  0
  144.1722  131.3039  149.9137 H   0  0  0  0  0  0  0  0  0  0  0  0
  143.5077  130.9745  151.5154 H   0  0  0  0  0  0  0  0  0  0  0  0
  150.4022  140.8441  154.9459 H   0  0  0  0  0  0  0  0  0  0  0  0
  149.8589  142.4699  154.7419 H   0  0  0  0  0  0  0  0  0  0  0  0
  149.7339  141.8285  157.1223 H   0  0  0  0  0  0  0  0  0  0  0  0
  148.6783  140.4830  156.7737 H   0  0  0  0  0  0  0  0  0  0  0  0
  148.1327  143.3215  156.3307 H   0  0  0  0  0  0  0  0  0  0  0  0
  1  2  1  0  0  0  0
  1 22  1  0  0  0  0
  1 23  1  0  0  0  0
  1 24  1  0  0  0  0
  2  3  1  0  0  0  0
  2 25  1  0  0  0  0
  2 26  1  0  0  0  0
  3 21  1  0  0  0  0
  3  4  1  0  0  0  0
  3 47  1  0  0  0  0
  4  5  1  0  0  0  0
  4 27  1  0  0  0  0
  4 28  1  0  0  0  0
  5  6  1  0  0  0  0
  5 29  1  0  0  0  0
  5 30  1  0  0  0  0
  6  7  1  0  0  0  0
  6 20  1  0  0  0  0
  7  8  1  0  0  0  0
  7  9  1  0  0  0  0
  7 31  1  0  0  0  0
  8 32  1  0  0  0  0
  8 33  1  0  0  0  0
  8 34  1  0  0  0  0
  9 10  1  0  0  0  0
  9 35  1  0  0  0  0
  9 36  1  0  0  0  0
 10 11  1  0  0  0  0
 10 37  1  0  0  0  0
 11 12  2  0  0  0  0
 11 13  1  0  0  0  0
 13 14  1  0  0  0  0
 13 38  1  0  0  0  0
 14 19  2  0  0  0  0
 14 15  1  0  0  0  0
 15 16  2  0  0  0  0
 15 39  1  0  0  0  0
 16 17  1  0  0  0  0
 16 18  1  0  0  0  0
 17 40  1  0  0  0  0
 17 41  1  0  0  0  0
 17 42  1  0  0  0  0
 18 19  1  0  0  0  0
 20 21  1  0  0  0  0
 20 43  1  0  0  0  0
 20 44  1  0  0  0  0
 21 45  1  0  0  0  0
 21 46  1  0  0  0  0
M  CHG  1   3   1
M  END
> <s_m_source_file>
AV-unprocessed.smi

> <i_m_source_file_index>
1586

> <i_lp_mmshare_version>
43012

> <i_f3d_flags>
0

> <s_epik_input>
W0NIM11bQ0gyXU4xW0NIMl1bQ0gyXU4oW0NIMl1bQ0gyXTEpW0NASF0oW0NIM10pW0NIMl1bTkhdQyg9TylbTkhdYzJbY0hdYyhbQ0gzXSlvbjI=

> <s_epik_cmdline>
J2VwaWtfcHl0aG9uJywgJy1waCcsICc3LjAnLCAnLXRuJywgJzgnLCAnLW1hJywgJzIwMCcsICctbWV0YWxfYmluZGluZycsICctaW1hZScsICc8aW5maWxlLm1hZT4nLCAnLW9tYWUnLCAnPG91dGZpbGUubWFlPic=

> <r_epik_Ionization_Penalty>
0.0459786

> <r_epik_Ionization_Penalty_Charging>
0.0453654

> <r_epik_Ionization_Penalty_Neutral>
0.000613264

> <r_epik_State_Penalty>
0.163057

> <r_epik_Charging_Adjusted_Penalty>
0.208422

> <i_epik_Tot_Q>
1

> <i_epik_Tot_abs_Q>
1

> <r_epik_Metal_State_Penalty>
0.17399

> <b_epik_Metal_Only>
0

> <s_lp_Force_Field>
OPLS_2005

> <r_lp_Energy>
17.9393

> <b_lp_Chiralities_Consistent>
1

> <s_lp_Variant>
AV-unprocessed.smi:1586-1

> <Gold.Version>
5.8.1

> <Gold.Id.Protein>
6NUR|6NUR_protein|mol2

> <Gold.PLP.Fitness>
42.6809

> <Gold.PLP.PLP>
-31.6587

> <Gold.PLP.part.hbond>
-3.0000

> <Gold.PLP.part.metal>
0.0000

> <Gold.PLP.part.buried>
-6.1537

> <Gold.PLP.part.nonpolar>
-24.9570

> <Gold.PLP.part.repulsive>
1.2452

> <Gold.PLP.ligand.clash>
0.0000

> <Gold.PLP.ligand.torsion>
0.5077

> <Gold.PLP.Chemscore.Hbond>
3.9920

> <Gold.PLP.Chemscore.CHOScore>
0.0000

> <Gold.PLP.Chemscore.Metal>
0.0000

> <Gold.Chemscore.Hbonds>
donor molecule, donor type, donor heavy atom, donor atom, acceptor molecule, acceptor atom, score
      L1  H     3    47       P1  8028  2.00
      L1  H    10    37       P1  7948  1.00
      L1  H    13    38       P1  7948  0.96

> <Gold.PLP.Chemscore.Internal.Correction>
0.0616

> <Gold.Rescore>
     Score         DG    S(hbond)    S(metal)    S(lipo)     H(rot)  DE(clash)    DE(int)     intcor
     15.20     -18.66       2.81        0.00      71.05       1.76       1.58       1.87       ----

> <Gold.Chemscore.Fitness>
15.2048

> <Gold.Chemscore.DG>
-18.6601

> <Gold.Chemscore.ZeroCoef>
-5.4800

> <Gold.Chemscore.Hbond>
2.8092

> <Gold.Chemscore.Metal>
0.0000

> <Gold.Chemscore.Lipo>
71.0467

> <Gold.Chemscore.Internal_Hbond>
0.0000

> <Gold.Chemscore.DEClash>
1.5848

> <Gold.Chemscore.DEInternal>
1.8704

> <Gold.Chemscore.Rot>
1.7637

> <Gold.Chemscore.Internal.Correction>
   9.000000E+99

> <Gold.Chemscore.Hbonds>
donor molecule, donor type, donor heavy atom, donor atom, acceptor molecule, acceptor atom, score
      L1  H     3    47       P1  8028  0.30
      L1  H    10    37       P1  7948  0.95
      L1  H    13    38       P1  7948  0.92

> <Gold.Chemscore.Hbond.Weighted>
-9.3827

> <Gold.Chemscore.Metal.Weighted>
-0.0000

> <Gold.Chemscore.Lipo.Weighted>
-8.3125

> <Gold.Chemscore.Internal_Hbond.Weighted>
0.0000

> <Gold.Chemscore.DEClash.Weighted>
1.5848

> <Gold.Chemscore.DEInternal.Weighted>
1.8704

> <Gold.Chemscore.Rot.Weighted>
4.5150

> <Gold.Chemscore.Internal.Correction.Weighted>
   9.000000E+99

> <Gold.Protein.RotatedTorsions>
[ 6907 6896 6895 6894 ] final  -31.37 input  -60.11 | X-H torsion
[ 7974 7965 7964 7962 ] final   29.99 input  175.53 | X-H torsion
[ 8008 7997 7996 7995 ] final  120.70 input   59.86 | X-H torsion
[ 10167 10162 10161 10158 ] final  -95.53 input  -65.29 | X-H torsion
[ 10718 10713 10712 10709 ] final -153.47 input   66.30 | X-H torsion
[ 10763 10752 10751 10750 ] final -163.17 input  -60.55 | X-H torsion
[ 11005 11000 10999 10996 ] final  -52.70 input  -57.11 | X-H torsion

> <Gold.Protein.ActiveResidues>
 VAL166  LYS551  ARG553  GLY616  TRP617  ASP618  TYR619  PRO620  LYS621  CYS622 
 ASP623  PHE694  ASN695  SER759  ASP760  ASP761  ALA762  ILE779  LEU786  VAL792 
 PHE793  MET794  SER795  GLU796  ALA797  LYS798  CYS799  TRP800  GLU811  SER814 

> <Gold.Protein.RotatedAtoms>
  151.0930  134.9927  159.8411 H   0  0  0  0  0  0  0  0  0  0  0  0  # atno 6907 bound_to 6896
  152.5430  134.2042  159.8734 H   0  0  0  0  0  0  0  0  0  0  0  0  # atno 6908 bound_to 6896
  151.2080  133.4528  159.2631 H   0  0  0  0  0  0  0  0  0  0  0  0  # atno 6909 bound_to 6896
  146.1639  139.6848  142.9015 H   0  0  0  0  0  0  0  0  0  0  0  0  # atno 7974 bound_to 7965
  156.2654  140.2825  156.1190 H   0  0  0  0  0  0  0  0  0  0  0  0  # atno 8008 bound_to 7997
  155.1175  140.0392  157.2758 H   0  0  0  0  0  0  0  0  0  0  0  0  # atno 8009 bound_to 7997
  154.6695  140.2584  155.7028 H   0  0  0  0  0  0  0  0  0  0  0  0  # atno 8010 bound_to 7997
  140.3031  143.3150  152.0227 H   0  0  0  0  0  0  0  0  0  0  0  0  # atno 10167 bound_to 10162
  156.4863  130.8326  151.2551 H   0  0  0  0  0  0  0  0  0  0  0  0  # atno 10718 bound_to 10713
  154.7147  135.3013  154.9142 H   0  0  0  0  0  0  0  0  0  0  0  0  # atno 10763 bound_to 10752
  154.0032  135.6704  153.4764 H   0  0  0  0  0  0  0  0  0  0  0  0  # atno 10764 bound_to 10752
  153.0784  135.5022  154.8367 H   0  0  0  0  0  0  0  0  0  0  0  0  # atno 10765 bound_to 10752
  141.0938  133.6628  156.4063 H   0  0  0  0  0  0  0  0  0  0  0  0  # atno 11005 bound_to 11000
  145.4518  141.0428  143.2800 LP  0  0  0  0  0  0  0  0  0  0  0  0  # atno 17320 bound_to 7965
  144.8065  139.6042  143.7049 LP  0  0  0  0  0  0  0  0  0  0  0  0  # atno 17321 bound_to 7965
  139.4910  144.6441  151.6816 LP  0  0  0  0  0  0  0  0  0  0  0  0  # atno 17342 bound_to 10162
  140.5633  144.0232  150.6180 LP  0  0  0  0  0  0  0  0  0  0  0  0  # atno 17343 bound_to 10162
  157.7478  131.0028  150.3015 LP  0  0  0  0  0  0  0  0  0  0  0  0  # atno 17370 bound_to 10713
  156.3471  130.3825  149.7360 LP  0  0  0  0  0  0  0  0  0  0  0  0  # atno 17371 bound_to 10713
  140.5189  134.6323  157.5311 LP  0  0  0  0  0  0  0  0  0  0  0  0  # atno 17394 bound_to 11000
  139.9770  134.7199  155.9931 LP  0  0  0  0  0  0  0  0  0  0  0  0  # atno 17395 bound_to 11000

$$$$
