AV-unprocessed.smi:1445|AV-procd|sdf|5885|dock10
  -GOLD-   22720 5563D 1   1.00000     0.00000
 Structure written by MMmdl.
 46 47  0  0  0  0  0  0  0  0  2 V2000
  144.3389  135.7439  150.9348 C   0  0  0  0  0  0  0  0  0  0  0  0
  145.5053  134.9313  151.0112 O   0  0  0  0  0  0  0  0  0  0  0  0
  145.3502  133.5624  151.1212 C   0  0  0  0  0  0  0  0  0  0  0  0
  144.2443  132.9933  150.5790 N   0  0  0  0  0  0  0  0  0  0  0  0
  144.0887  131.6583  150.6890 C   0  0  0  0  0  0  0  0  0  0  0  0
  145.0148  130.8271  151.3446 C   0  0  0  0  0  0  0  0  0  0  0  0
  146.1625  131.4146  151.9079 C   0  0  0  0  0  0  0  0  0  0  0  0
  146.3481  132.8141  151.7895 C   0  0  0  0  0  0  0  0  0  0  0  0
  147.4601  133.5200  152.3299 N   0  0  0  0  0  0  0  0  0  0  0  0
  148.2782  133.1728  153.3381 C   0  0  0  0  0  0  0  0  0  0  0  0
  148.2105  132.1321  153.9914 O   0  0  0  0  0  0  0  0  0  0  0  0
  149.2143  134.1098  153.5459 N   0  0  0  0  0  0  0  0  0  0  0  0
  150.2464  134.0455  154.5744 C   0  0  0  0  0  0  0  0  0  0  0  0
  150.7043  135.4505  155.0121 C   0  0  0  0  0  0  0  0  0  0  0  0
  149.6849  136.4904  154.7228 N   0  3  1  0  0  0  0  0  0  0  0  0
  148.4259  136.2696  155.4805 C   0  0  0  0  0  0  0  0  0  0  0  0
  147.3418  137.2732  155.0575 C   0  0  0  0  0  0  0  0  0  0  0  0
  147.8330  138.7160  155.2277 C   0  0  0  0  0  0  0  0  0  0  0  0
  149.1509  138.9239  154.4631 C   0  0  1  0  0  0  0  0  0  0  0  0
  149.6801  140.3544  154.6381 C   0  0  0  0  0  0  0  0  0  0  0  0
  150.1945  137.8769  154.9023 C   0  0  0  0  0  0  0  0  0  0  0  0
  144.6342  136.7899  150.8531 H   0  0  0  0  0  0  0  0  0  0  0  0
  143.7230  135.6435  151.8298 H   0  0  0  0  0  0  0  0  0  0  0  0
  143.7388  135.5004  150.0568 H   0  0  0  0  0  0  0  0  0  0  0  0
  143.1967  131.2406  150.2457 H   0  0  0  0  0  0  0  0  0  0  0  0
  144.8466  129.7627  151.4173 H   0  0  0  0  0  0  0  0  0  0  0  0
  146.8631  130.7801  152.4265 H   0  0  0  0  0  0  0  0  0  0  0  0
  147.6889  134.3798  151.8525 H   0  0  0  0  0  0  0  0  0  0  0  0
  149.2022  134.9324  152.9604 H   0  0  0  0  0  0  0  0  0  0  0  0
  149.8294  133.4925  155.4151 H   0  0  0  0  0  0  0  0  0  0  0  0
  151.0950  133.4637  154.2101 H   0  0  0  0  0  0  0  0  0  0  0  0
  150.8924  135.4300  156.0863 H   0  0  0  0  0  0  0  0  0  0  0  0
  151.6517  135.7166  154.5408 H   0  0  0  0  0  0  0  0  0  0  0  0
  148.0599  135.2573  155.3040 H   0  0  0  0  0  0  0  0  0  0  0  0
  148.6226  136.3546  156.5506 H   0  0  0  0  0  0  0  0  0  0  0  0
  147.0664  137.0992  154.0163 H   0  0  0  0  0  0  0  0  0  0  0  0
  146.4379  137.1160  155.6466 H   0  0  0  0  0  0  0  0  0  0  0  0
  147.0727  139.4110  154.8694 H   0  0  0  0  0  0  0  0  0  0  0  0
  147.9781  138.9308  156.2875 H   0  0  0  0  0  0  0  0  0  0  0  0
  148.9516  138.7760  153.4003 H   0  0  0  0  0  0  0  0  0  0  0  0
  149.9038  140.5702  155.6833 H   0  0  0  0  0  0  0  0  0  0  0  0
  148.9489  141.0877  154.2968 H   0  0  0  0  0  0  0  0  0  0  0  0
  150.5935  140.5094  154.0631 H   0  0  0  0  0  0  0  0  0  0  0  0
  150.4660  138.0305  155.9482 H   0  0  0  0  0  0  0  0  0  0  0  0
  151.1035  138.0185  154.3189 H   0  0  0  0  0  0  0  0  0  0  0  0
  149.4443  136.3879  153.7474 H   0  0  0  0  0  0  0  0  0  0  0  0
  1  2  1  0  0  0  0
  1 22  1  0  0  0  0
  1 23  1  0  0  0  0
  1 24  1  0  0  0  0
  2  3  1  0  0  0  0
  3  8  1  0  0  0  0
  3  4  2  0  0  0  0
  4  5  1  0  0  0  0
  5  6  2  0  0  0  0
  5 25  1  0  0  0  0
  6  7  1  0  0  0  0
  6 26  1  0  0  0  0
  7  8  2  0  0  0  0
  7 27  1  0  0  0  0
  8  9  1  0  0  0  0
  9 10  1  0  0  0  0
  9 28  1  0  0  0  0
 10 11  2  0  0  0  0
 10 12  1  0  0  0  0
 12 13  1  0  0  0  0
 12 29  1  0  0  0  0
 13 14  1  0  0  0  0
 13 30  1  0  0  0  0
 13 31  1  0  0  0  0
 14 15  1  0  0  0  0
 14 32  1  0  0  0  0
 14 33  1  0  0  0  0
 15 21  1  0  0  0  0
 15 16  1  0  0  0  0
 15 46  1  0  0  0  0
 16 17  1  0  0  0  0
 16 34  1  0  0  0  0
 16 35  1  0  0  0  0
 17 18  1  0  0  0  0
 17 36  1  0  0  0  0
 17 37  1  0  0  0  0
 18 19  1  0  0  0  0
 18 38  1  0  0  0  0
 18 39  1  0  0  0  0
 19 20  1  0  0  0  0
 19 21  1  0  0  0  0
 19 40  1  0  0  0  0
 20 41  1  0  0  0  0
 20 42  1  0  0  0  0
 20 43  1  0  0  0  0
 21 44  1  0  0  0  0
 21 45  1  0  0  0  0
M  CHG  1  15   1
M  END
> <s_m_source_file>
AV-unprocessed.smi

> <i_m_source_file_index>
1445

> <i_lp_mmshare_version>
43012

> <i_f3d_flags>
0

> <s_epik_input>
W0NIM11PYzFuW2NIXVtjSF1bY0hdYzFbTkhdQyg9TylbTkhdW0NIMl1bQ0gyXU4yW0NIMl1bQ0gyXVtDSDJdW0NAQEhdKFtDSDNdKVtDSDJdMg==

> <s_epik_cmdline>
J2VwaWtfcHl0aG9uJywgJy1waCcsICc3LjAnLCAnLXRuJywgJzgnLCAnLW1hJywgJzIwMCcsICctbWV0YWxfYmluZGluZycsICctaW1hZScsICc8aW5maWxlLm1hZT4nLCAnLW9tYWUnLCAnPG91dGZpbGUubWFlPic=

> <r_lp_tautomer_probability>
1

> <r_epik_Ionization_Penalty>
0.00179544

> <r_epik_Ionization_Penalty_Charging>
0.00171832

> <r_epik_Ionization_Penalty_Neutral>
7.71118e-05

> <r_epik_State_Penalty>
0.0011618

> <r_epik_Charging_Adjusted_Penalty>
0.00288012

> <i_epik_Tot_Q>
1

> <i_epik_Tot_abs_Q>
1

> <r_epik_Metal_State_Penalty>
-0

> <b_epik_Metal_Only>
0

> <s_lp_Force_Field>
OPLS_2005

> <r_lp_Energy>
18.8564

> <b_lp_Chiralities_Consistent>
1

> <s_lp_Variant>
AV-unprocessed.smi:1445-1

> <Gold.Version>
5.8.1

> <Gold.Id.Protein>
6NUR|6NUR_protein|mol2

> <Gold.PLP.Fitness>
41.5638

> <Gold.PLP.PLP>
-31.4646

> <Gold.PLP.part.hbond>
-2.8309

> <Gold.PLP.part.metal>
0.0000

> <Gold.PLP.part.buried>
-3.3849

> <Gold.PLP.part.nonpolar>
-25.9338

> <Gold.PLP.part.repulsive>
0.4526

> <Gold.PLP.ligand.clash>
0.0000

> <Gold.PLP.ligand.torsion>
0.9668

> <Gold.PLP.Chemscore.Hbond>
3.3829

> <Gold.PLP.Chemscore.CHOScore>
0.6209

> <Gold.PLP.Chemscore.Metal>
0.0000

> <Gold.Chemscore.Hbonds>
donor molecule, donor type, donor heavy atom, donor atom, acceptor molecule, acceptor atom, score
      L1  H     9    28       P1  7948  0.54
      L1  H    12    29       P1  7948  0.45
      L1  H    15    46       P1  7948  2.00
      L1  C     5    25       P1 10952  0.76

> <Gold.PLP.Chemscore.Internal.Correction>
0.0214

> <Gold.Rescore>
     Score         DG    S(hbond)    S(metal)    S(lipo)     H(rot)  DE(clash)    DE(int)     intcor
     12.82     -15.21       1.70        0.00      71.95       1.71       0.50       1.89       ----

> <Gold.Chemscore.Fitness>
12.8179

> <Gold.Chemscore.DG>
-15.2106

> <Gold.Chemscore.ZeroCoef>
-5.4800

> <Gold.Chemscore.Hbond>
1.7041

> <Gold.Chemscore.Metal>
0.0000

> <Gold.Chemscore.Lipo>
71.9505

> <Gold.Chemscore.Internal_Hbond>
0.0000

> <Gold.Chemscore.DEClash>
0.4989

> <Gold.Chemscore.DEInternal>
1.8938

> <Gold.Chemscore.Rot>
1.7107

> <Gold.Chemscore.Internal.Correction>
   9.000000E+99

> <Gold.Chemscore.Hbonds>
donor molecule, donor type, donor heavy atom, donor atom, acceptor molecule, acceptor atom, score
      L1  H     9    28       P1  7948  0.12
      L1  H    12    29       P1  7948  0.02
      L1  H    15    46       P1  7948  0.78

> <Gold.Chemscore.Hbond.Weighted>
-5.6918

> <Gold.Chemscore.Metal.Weighted>
-0.0000

> <Gold.Chemscore.Lipo.Weighted>
-8.4182

> <Gold.Chemscore.Internal_Hbond.Weighted>
0.0000

> <Gold.Chemscore.DEClash.Weighted>
0.4989

> <Gold.Chemscore.DEInternal.Weighted>
1.8938

> <Gold.Chemscore.Rot.Weighted>
4.3794

> <Gold.Chemscore.Internal.Correction.Weighted>
   9.000000E+99

> <Gold.Protein.RotatedTorsions>
[ 6907 6896 6895 6894 ] final   89.34 input  -60.11 | X-H torsion
[ 7974 7965 7964 7962 ] final  -60.72 input  175.53 | X-H torsion
[ 8008 7997 7996 7995 ] final  138.39 input   59.86 | X-H torsion
[ 10167 10162 10161 10158 ] final  -66.99 input  -65.29 | X-H torsion
[ 10718 10713 10712 10709 ] final  -76.56 input   66.30 | X-H torsion
[ 10763 10752 10751 10750 ] final  -36.25 input  -60.55 | X-H torsion
[ 11005 11000 10999 10996 ] final  -89.99 input  -57.11 | X-H torsion

> <Gold.Protein.ActiveResidues>
 VAL166  LYS551  ARG553  GLY616  TRP617  ASP618  TYR619  PRO620  LYS621  CYS622 
 ASP623  PHE694  ASN695  SER759  ASP760  ASP761  ALA762  ILE779  LEU786  VAL792 
 PHE793  MET794  SER795  GLU796  ALA797  LYS798  CYS799  TRP800  GLU811  SER814 

> <Gold.Protein.RotatedAtoms>
  152.5435  134.1981  159.8700 H   0  0  0  0  0  0  0  0  0  0  0  0  # atno 6907 bound_to 6896
  151.1972  133.4625  159.2603 H   0  0  0  0  0  0  0  0  0  0  0  0  # atno 6908 bound_to 6896
  151.1025  134.9992  159.8511 H   0  0  0  0  0  0  0  0  0  0  0  0  # atno 6909 bound_to 6896
  145.8121  140.8592  143.0176 H   0  0  0  0  0  0  0  0  0  0  0  0  # atno 7974 bound_to 7965
  156.2997  140.2395  156.4066 H   0  0  0  0  0  0  0  0  0  0  0  0  # atno 8008 bound_to 7997
  154.8479  140.0425  157.1605 H   0  0  0  0  0  0  0  0  0  0  0  0  # atno 8009 bound_to 7997
  154.9031  140.2979  155.5311 H   0  0  0  0  0  0  0  0  0  0  0  0  # atno 8010 bound_to 7997
  140.5616  143.2313  151.6716 H   0  0  0  0  0  0  0  0  0  0  0  0  # atno 10167 bound_to 10162
  156.0171  130.4469  150.3212 H   0  0  0  0  0  0  0  0  0  0  0  0  # atno 10718 bound_to 10713
  153.8766  135.6825  153.4770 H   0  0  0  0  0  0  0  0  0  0  0  0  # atno 10763 bound_to 10752
  153.1257  135.4720  154.9266 H   0  0  0  0  0  0  0  0  0  0  0  0  # atno 10764 bound_to 10752
  154.7689  135.3232  154.8182 H   0  0  0  0  0  0  0  0  0  0  0  0  # atno 10765 bound_to 10752
  141.1574  133.7664  156.9673 H   0  0  0  0  0  0  0  0  0  0  0  0  # atno 11005 bound_to 11000
  144.6756  140.0411  143.7481 LP  0  0  0  0  0  0  0  0  0  0  0  0  # atno 17320 bound_to 7965
  145.9766  139.2909  143.1067 LP  0  0  0  0  0  0  0  0  0  0  0  0  # atno 17321 bound_to 7965
  139.5073  144.3652  152.0524 LP  0  0  0  0  0  0  0  0  0  0  0  0  # atno 17342 bound_to 10162
  140.2779  144.3892  150.6129 LP  0  0  0  0  0  0  0  0  0  0  0  0  # atno 17343 bound_to 10162
  157.1312  131.0272  151.2968 LP  0  0  0  0  0  0  0  0  0  0  0  0  # atno 17370 bound_to 10713
  157.4549  130.7619  149.7184 LP  0  0  0  0  0  0  0  0  0  0  0  0  # atno 17371 bound_to 10713
  140.1153  134.9451  157.2125 LP  0  0  0  0  0  0  0  0  0  0  0  0  # atno 17394 bound_to 11000
  140.3141  134.2990  155.7260 LP  0  0  0  0  0  0  0  0  0  0  0  0  # atno 17395 bound_to 11000

$$$$
