AV-unprocessed.smi:3187|AV-procd|sdf|12175|dock3
  -GOLD-   2272018 13D 1   1.00000     0.00000
 Structure written by MMmdl.
 41 42  0  0  0  0  0  0  0  0  2 V2000
  148.0135  130.1021  154.2105 C   0  0  0  0  0  0  0  0  0  0  0  0
  148.9910  131.0199  154.9265 C   0  0  0  0  0  0  0  0  0  0  0  0
  150.1443  130.5388  155.4314 C   0  0  0  0  0  0  0  0  0  0  0  0
  151.1581  131.3581  156.2108 C   0  0  0  0  0  0  0  0  0  0  0  0
  150.8407  132.8623  156.2203 C   0  0  0  0  0  0  0  0  0  0  0  0
  149.3260  133.1173  156.3064 C   0  0  1  0  0  0  0  0  0  0  0  0
  149.0028  134.6009  156.5546 C   0  0  0  0  0  0  0  0  0  0  0  0
  148.5856  132.4911  155.0905 C   0  0  1  0  0  0  0  0  0  0  0  0
  148.7776  133.3025  153.7821 C   0  0  0  0  0  0  0  0  0  0  0  0
  147.7967  134.3956  153.6336 N   0  3  0  0  0  0  0  0  0  0  0  0
  146.5456  133.9956  152.9617 C   0  0  0  0  0  0  0  0  0  0  0  0
  146.7752  133.7621  151.4625 C   0  0  0  0  0  0  0  0  0  0  0  0
  145.6115  133.1689  150.8357 N   0  0  0  0  0  0  0  0  0  0  0  0
  144.3216  133.6823  150.8065 C   0  0  0  0  0  0  0  0  0  0  0  0
  143.5537  132.7759  150.1105 C   0  0  0  0  0  0  0  0  0  0  0  0
  144.3461  131.7045  149.7053 N   0  0  0  0  0  0  0  0  0  0  0  0
  145.5512  132.0078  150.1691 C   0  0  0  0  0  0  0  0  0  0  0  0
  147.0042  130.2387  154.5995 H   0  0  0  0  0  0  0  0  0  0  0  0
  148.2830  129.0551  154.3544 H   0  0  0  0  0  0  0  0  0  0  0  0
  148.0034  130.2867  153.1377 H   0  0  0  0  0  0  0  0  0  0  0  0
  150.3812  129.4909  155.3165 H   0  0  0  0  0  0  0  0  0  0  0  0
  151.1657  130.9795  157.2333 H   0  0  0  0  0  0  0  0  0  0  0  0
  152.1553  131.1865  155.8046 H   0  0  0  0  0  0  0  0  0  0  0  0
  151.3565  133.3340  157.0576 H   0  0  0  0  0  0  0  0  0  0  0  0
  151.2425  133.3276  155.3200 H   0  0  0  0  0  0  0  0  0  0  0  0
  148.9692  132.5887  157.1923 H   0  0  0  0  0  0  0  0  0  0  0  0
  149.4501  135.2490  155.8010 H   0  0  0  0  0  0  0  0  0  0  0  0
  149.3893  134.9226  157.5220 H   0  0  0  0  0  0  0  0  0  0  0  0
  147.9267  134.7754  156.5589 H   0  0  0  0  0  0  0  0  0  0  0  0
  147.5227  132.5042  155.3368 H   0  0  0  0  0  0  0  0  0  0  0  0
  149.7651  133.7609  153.7541 H   0  0  0  0  0  0  0  0  0  0  0  0
  148.7078  132.6438  152.9160 H   0  0  0  0  0  0  0  0  0  0  0  0
  147.5693  134.7446  154.5537 H   0  0  0  0  0  0  0  0  0  0  0  0
  146.1629  133.0868  153.4281 H   0  0  0  0  0  0  0  0  0  0  0  0
  145.7955  134.7743  153.1066 H   0  0  0  0  0  0  0  0  0  0  0  0
  146.9990  134.7032  150.9581 H   0  0  0  0  0  0  0  0  0  0  0  0
  147.6298  133.1032  151.3023 H   0  0  0  0  0  0  0  0  0  0  0  0
  144.0622  134.6228  151.2704 H   0  0  0  0  0  0  0  0  0  0  0  0
  142.5008  132.8110  149.8728 H   0  0  0  0  0  0  0  0  0  0  0  0
  146.4096  131.3684  150.0233 H   0  0  0  0  0  0  0  0  0  0  0  0
  148.2251  135.1401  153.1022 H   0  0  0  0  0  0  0  0  0  0  0  0
  1  2  1  0  0  0  0
  1 18  1  0  0  0  0
  1 19  1  0  0  0  0
  1 20  1  0  0  0  0
  2  8  1  0  0  0  0
  2  3  2  0  0  0  0
  3  4  1  0  0  0  0
  3 21  1  0  0  0  0
  4  5  1  0  0  0  0
  4 22  1  0  0  0  0
  4 23  1  0  0  0  0
  5  6  1  0  0  0  0
  5 24  1  0  0  0  0
  5 25  1  0  0  0  0
  6  7  1  0  0  0  0
  6  8  1  0  0  0  0
  6 26  1  0  0  0  0
  7 27  1  0  0  0  0
  7 28  1  0  0  0  0
  7 29  1  0  0  0  0
  8  9  1  0  0  0  0
  8 30  1  0  0  0  0
  9 10  1  0  0  0  0
  9 31  1  0  0  0  0
  9 32  1  0  0  0  0
 10 11  1  0  0  0  0
 10 33  1  0  0  0  0
 10 41  1  0  0  0  0
 11 12  1  0  0  0  0
 11 34  1  0  0  0  0
 11 35  1  0  0  0  0
 12 13  1  0  0  0  0
 12 36  1  0  0  0  0
 12 37  1  0  0  0  0
 13 17  1  0  0  0  0
 13 14  1  0  0  0  0
 14 15  2  0  0  0  0
 14 38  1  0  0  0  0
 15 16  1  0  0  0  0
 15 39  1  0  0  0  0
 16 17  2  0  0  0  0
 17 40  1  0  0  0  0
M  CHG  1  10   1
M  END
> <s_m_source_file>
AV-unprocessed.smi

> <i_m_source_file_index>
3187

> <i_lp_mmshare_version>
43012

> <i_f3d_flags>
0

> <s_epik_input>
W0NIM11DMT1bQ0hdW0NIMl1bQ0gyXVtDQEBIXShbQ0gzXSlbQ0BIXTFbQ0gyXVtOSF1bQ0gyXVtDSDJdbjJbY0hdW2NIXW5bY0hdMg==

> <s_epik_cmdline>
J2VwaWtfcHl0aG9uJywgJy1waCcsICc3LjAnLCAnLXRuJywgJzgnLCAnLW1hJywgJzIwMCcsICctbWV0YWxfYmluZGluZycsICctaW1hZScsICc8aW5maWxlLm1hZT4nLCAnLW9tYWUnLCAnPG91dGZpbGUubWFlPic=

> <r_lp_tautomer_probability>
1

> <r_epik_Ionization_Penalty>
0.0501625

> <r_epik_Ionization_Penalty_Charging>
0.0501625

> <r_epik_Ionization_Penalty_Neutral>
0

> <r_epik_State_Penalty>
0.0972392

> <r_epik_Charging_Adjusted_Penalty>
0.147402

> <i_epik_Tot_Q>
1

> <i_epik_Tot_abs_Q>
1

> <r_epik_Metal_State_Penalty>
0.000104376

> <b_epik_Metal_Only>
0

> <s_lp_Force_Field>
OPLS_2005

> <r_lp_Energy>
16.942

> <b_lp_Chiralities_Consistent>
1

> <s_lp_Variant>
AV-unprocessed.smi:3187-1

> <Gold.Version>
5.8.1

> <Gold.Id.Protein>
6NUR|6NUR_protein|mol2

> <Gold.PLP.Fitness>
45.3590

> <Gold.PLP.PLP>
-31.6370

> <Gold.PLP.part.hbond>
-2.0000

> <Gold.PLP.part.metal>
0.0000

> <Gold.PLP.part.buried>
-3.5461

> <Gold.PLP.part.nonpolar>
-26.9692

> <Gold.PLP.part.repulsive>
0.1387

> <Gold.PLP.ligand.clash>
0.0000

> <Gold.PLP.ligand.torsion>
0.5900

> <Gold.PLP.Chemscore.Hbond>
2.4917

> <Gold.PLP.Chemscore.CHOScore>
2.4685

> <Gold.PLP.Chemscore.Metal>
0.0000

> <Gold.Chemscore.Hbonds>
donor molecule, donor type, donor heavy atom, donor atom, acceptor molecule, acceptor atom, score
      L1  H    10    41       P1  7948  2.00
      P1  H 10785 10796       L1    16  0.38
      L1  C    15    39       P1 10186  1.00
      L1  C    17    40       P1 10747  0.79

> <Gold.PLP.Chemscore.Internal.Correction>
0.0216

> <Gold.Rescore>
     Score         DG    S(hbond)    S(metal)    S(lipo)     H(rot)  DE(clash)    DE(int)     intcor
     13.44     -13.98       1.50        0.00      71.09       1.89       0.06       0.48       ----

> <Gold.Chemscore.Fitness>
13.4352

> <Gold.Chemscore.DG>
-13.9779

> <Gold.Chemscore.ZeroCoef>
-5.4800

> <Gold.Chemscore.Hbond>
1.4990

> <Gold.Chemscore.Metal>
0.0000

> <Gold.Chemscore.Lipo>
71.0898

> <Gold.Chemscore.Internal_Hbond>
0.0000

> <Gold.Chemscore.DEClash>
0.0583

> <Gold.Chemscore.DEInternal>
0.4844

> <Gold.Chemscore.Rot>
1.8853

> <Gold.Chemscore.Internal.Correction>
   9.000000E+99

> <Gold.Chemscore.Hbonds>
donor molecule, donor type, donor heavy atom, donor atom, acceptor molecule, acceptor atom, score
      L1  H    10    41       P1  7948  0.96
      P1  H 10785 10796       L1    16  0.33

> <Gold.Chemscore.Hbond.Weighted>
-5.0066

> <Gold.Chemscore.Metal.Weighted>
-0.0000

> <Gold.Chemscore.Lipo.Weighted>
-8.3175

> <Gold.Chemscore.Internal_Hbond.Weighted>
0.0000

> <Gold.Chemscore.DEClash.Weighted>
0.0583

> <Gold.Chemscore.DEInternal.Weighted>
0.4844

> <Gold.Chemscore.Rot.Weighted>
4.8263

> <Gold.Chemscore.Internal.Correction.Weighted>
   9.000000E+99

> <Gold.Protein.RotatedTorsions>
[ 6907 6896 6895 6894 ] final  -86.83 input  -60.11 | X-H torsion
[ 7974 7965 7964 7962 ] final -121.41 input  175.53 | X-H torsion
[ 8008 7997 7996 7995 ] final  102.03 input   59.86 | X-H torsion
[ 10167 10162 10161 10158 ] final   67.60 input  -65.29 | X-H torsion
[ 10718 10713 10712 10709 ] final -155.09 input   66.30 | X-H torsion
[ 10763 10752 10751 10750 ] final  124.08 input  -60.55 | X-H torsion
[ 11005 11000 10999 10996 ] final  161.47 input  -57.11 | X-H torsion

> <Gold.Protein.ActiveResidues>
 VAL166  LYS551  ARG553  GLY616  TRP617  ASP618  TYR619  PRO620  LYS621  CYS622 
 ASP623  PHE694  ASN695  SER759  ASP760  ASP761  ALA762  ILE779  LEU786  VAL792 
 PHE793  MET794  SER795  GLU796  ALA797  LYS798  CYS799  TRP800  GLU811  SER814 

> <Gold.Protein.RotatedAtoms>
  150.6866  134.2990  159.4698 H   0  0  0  0  0  0  0  0  0  0  0  0  # atno 6907 bound_to 6896
  152.0888  134.9419  160.0581 H   0  0  0  0  0  0  0  0  0  0  0  0  # atno 6908 bound_to 6896
  152.0743  133.4087  159.4510 H   0  0  0  0  0  0  0  0  0  0  0  0  # atno 6909 bound_to 6896
  145.0406  140.8141  143.4268 H   0  0  0  0  0  0  0  0  0  0  0  0  # atno 7974 bound_to 7965
  156.1355  140.3188  155.8414 H   0  0  0  0  0  0  0  0  0  0  0  0  # atno 8008 bound_to 7997
  155.4252  140.0515  157.3040 H   0  0  0  0  0  0  0  0  0  0  0  0  # atno 8009 bound_to 7997
  154.4933  140.2101  155.9513 H   0  0  0  0  0  0  0  0  0  0  0  0  # atno 8010 bound_to 7997
  140.0877  144.5015  150.7119 H   0  0  0  0  0  0  0  0  0  0  0  0  # atno 10167 bound_to 10162
  156.5081  130.8422  151.2636 H   0  0  0  0  0  0  0  0  0  0  0  0  # atno 10718 bound_to 10713
  153.6556  135.3355  155.3112 H   0  0  0  0  0  0  0  0  0  0  0  0  # atno 10763 bound_to 10752
  154.8527  135.4351  154.1858 H   0  0  0  0  0  0  0  0  0  0  0  0  # atno 10764 bound_to 10752
  153.2812  135.7009  153.7459 H   0  0  0  0  0  0  0  0  0  0  0  0  # atno 10765 bound_to 10752
  140.2161  134.8231  157.3172 H   0  0  0  0  0  0  0  0  0  0  0  0  # atno 11005 bound_to 11000
  145.1652  139.2435  143.5370 LP  0  0  0  0  0  0  0  0  0  0  0  0  # atno 17320 bound_to 7965
  146.3509  140.1389  142.8595 LP  0  0  0  0  0  0  0  0  0  0  0  0  # atno 17321 bound_to 7965
  140.7045  143.2458  151.4768 LP  0  0  0  0  0  0  0  0  0  0  0  0  # atno 17342 bound_to 10162
  139.5742  144.1857  152.1880 LP  0  0  0  0  0  0  0  0  0  0  0  0  # atno 17343 bound_to 10162
  157.7454  130.9959  150.2760 LP  0  0  0  0  0  0  0  0  0  0  0  0  # atno 17370 bound_to 10713
  156.3267  130.3794  149.7527 LP  0  0  0  0  0  0  0  0  0  0  0  0  # atno 17371 bound_to 10713
  140.1899  134.4385  155.7722 LP  0  0  0  0  0  0  0  0  0  0  0  0  # atno 17394 bound_to 11000
  141.2225  133.7022  156.8010 LP  0  0  0  0  0  0  0  0  0  0  0  0  # atno 17395 bound_to 11000

$$$$
