AV-unprocessed.smi:3196|AV-procd|sdf|12221|dock3
  -GOLD-   2272018 53D 1   1.00000     0.00000
 Structure written by MMmdl.
 33 34  0  0  0  0  0  0  0  0  1 V2000
  149.4932  141.4057  154.6909 C   0  0  0  0  0  0  0  0  0  0  0  0
  148.0235  141.6915  154.3637 C   0  0  0  0  0  0  0  0  0  0  0  0
  147.1429  140.4392  154.4701 C   0  0  0  0  0  0  0  0  0  0  0  0
  147.3158  139.5088  153.2863 C   0  0  2  0  0  0  0  0  0  0  0  0
  146.6597  139.8215  151.9682 C   0  0  0  0  0  0  0  0  0  0  0  0
  146.1680  138.6523  152.7971 C   0  0  1  0  0  0  0  0  0  0  0  0
  146.4625  137.3431  152.2972 N   0  0  0  0  0  0  0  0  0  0  0  0
  145.5913  136.3850  151.9328 C   0  0  0  0  0  0  0  0  0  0  0  0
  144.3796  136.5872  151.9689 O   0  0  0  0  0  0  0  0  0  0  0  0
  146.1722  135.2486  151.4986 N   0  0  0  0  0  0  0  0  0  0  0  0
  145.5768  134.0492  151.0189 C   0  0  0  0  0  0  0  0  0  0  0  0
  144.2495  133.9461  150.5354 C   0  0  0  0  0  0  0  0  0  0  0  0
  143.7860  132.6885  150.0991 C   0  0  0  0  0  0  0  0  0  0  0  0
  144.5383  131.5681  150.1218 N   0  0  0  0  0  0  0  0  0  0  0  0
  145.7991  131.6677  150.5927 C   0  0  0  0  0  0  0  0  0  0  0  0
  146.3600  132.8759  151.0527 C   0  0  0  0  0  0  0  0  0  0  0  0
  147.6330  132.9045  151.5171 F   0  0  0  0  0  0  0  0  0  0  0  0
  150.0920  142.3134  154.6137 H   0  0  0  0  0  0  0  0  0  0  0  0
  149.9133  140.6706  154.0041 H   0  0  0  0  0  0  0  0  0  0  0  0
  149.6031  141.0192  155.7044 H   0  0  0  0  0  0  0  0  0  0  0  0
  147.6479  142.4608  155.0394 H   0  0  0  0  0  0  0  0  0  0  0  0
  147.9531  142.1035  153.3564 H   0  0  0  0  0  0  0  0  0  0  0  0
  147.3870  139.8878  155.3787 H   0  0  0  0  0  0  0  0  0  0  0  0
  146.0942  140.7277  154.5508 H   0  0  0  0  0  0  0  0  0  0  0  0
  148.3050  139.0572  153.2299 H   0  0  0  0  0  0  0  0  0  0  0  0
  146.0213  140.7010  151.9160 H   0  0  0  0  0  0  0  0  0  0  0  0
  147.2270  139.6063  151.0645 H   0  0  0  0  0  0  0  0  0  0  0  0
  145.1981  138.8058  153.2681 H   0  0  0  0  0  0  0  0  0  0  0  0
  147.4405  137.1412  152.1481 H   0  0  0  0  0  0  0  0  0  0  0  0
  147.1814  135.2608  151.4703 H   0  0  0  0  0  0  0  0  0  0  0  0
  143.5773  134.7883  150.4964 H   0  0  0  0  0  0  0  0  0  0  0  0
  142.7788  132.5797  149.7247 H   0  0  0  0  0  0  0  0  0  0  0  0
  146.3792  130.7566  150.6043 H   0  0  0  0  0  0  0  0  0  0  0  0
  1  2  1  0  0  0  0
  1 18  1  0  0  0  0
  1 19  1  0  0  0  0
  1 20  1  0  0  0  0
  2  3  1  0  0  0  0
  2 21  1  0  0  0  0
  2 22  1  0  0  0  0
  3  4  1  0  0  0  0
  3 23  1  0  0  0  0
  3 24  1  0  0  0  0
  4  6  1  0  0  0  0
  4  5  1  0  0  0  0
  4 25  1  0  0  0  0
  5  6  1  0  0  0  0
  5 26  1  0  0  0  0
  5 27  1  0  0  0  0
  6  7  1  0  0  0  0
  6 28  1  0  0  0  0
  7  8  1  0  0  0  0
  7 29  1  0  0  0  0
  8  9  2  0  0  0  0
  8 10  1  0  0  0  0
 10 11  1  0  0  0  0
 10 30  1  0  0  0  0
 11 16  1  0  0  0  0
 11 12  2  0  0  0  0
 12 13  1  0  0  0  0
 12 31  1  0  0  0  0
 13 14  2  0  0  0  0
 13 32  1  0  0  0  0
 14 15  1  0  0  0  0
 15 16  2  0  0  0  0
 15 33  1  0  0  0  0
 16 17  1  0  0  0  0
M  END
> <s_m_source_file>
AV-unprocessed.smi

> <i_m_source_file_index>
3196

> <i_lp_mmshare_version>
43012

> <i_f3d_flags>
0

> <s_epik_input>
W0NIM11bQ0gyXVtDSDJdW0NAQEhdMVtDSDJdW0NASF0xW05IXUMoPU8pW05IXWMyW2NIXVtjSF1uW2NIXWMyRg==

> <s_epik_cmdline>
J2VwaWtfcHl0aG9uJywgJy1waCcsICc3LjAnLCAnLXRuJywgJzgnLCAnLW1hJywgJzIwMCcsICctbWV0YWxfYmluZGluZycsICctaW1hZScsICc8aW5maWxlLm1hZT4nLCAnLW9tYWUnLCAnPG91dGZpbGUubWFlPic=

> <r_epik_Ionization_Penalty>
0.00341997

> <r_epik_Ionization_Penalty_Charging>
0

> <r_epik_Ionization_Penalty_Neutral>
0.00341997

> <r_epik_State_Penalty>
0.00239198

> <r_epik_Charging_Adjusted_Penalty>
0.00239198

> <i_epik_Tot_Q>
0

> <i_epik_Tot_abs_Q>
0

> <r_epik_Metal_State_Penalty>
-0

> <b_epik_Metal_Only>
0

> <s_lp_Force_Field>
OPLS_2005

> <r_lp_Energy>
34.264

> <b_lp_Chiralities_Consistent>
1

> <s_lp_Variant>
AV-unprocessed.smi:3196-1

> <Gold.Version>
5.8.1

> <Gold.Id.Protein>
6NUR|6NUR_protein|mol2

> <Gold.PLP.Fitness>
40.0296

> <Gold.PLP.PLP>
-29.6224

> <Gold.PLP.part.hbond>
-2.9025

> <Gold.PLP.part.metal>
0.0000

> <Gold.PLP.part.buried>
3.4928

> <Gold.PLP.part.nonpolar>
-31.3623

> <Gold.PLP.part.repulsive>
1.6666

> <Gold.PLP.ligand.clash>
0.0000

> <Gold.PLP.ligand.torsion>
0.4470

> <Gold.PLP.Chemscore.Hbond>
2.0725

> <Gold.PLP.Chemscore.CHOScore>
1.5066

> <Gold.PLP.Chemscore.Metal>
0.0000

> <Gold.Chemscore.Hbonds>
donor molecule, donor type, donor heavy atom, donor atom, acceptor molecule, acceptor atom, score
      L1  H     7    29       P1  7948  1.00
      L1  H    10    30       P1  7948  1.00
      P1  H 10785 10796       L1    14  0.06
      L1  C    13    32       P1 10186  0.88
      L1  C    15    33       P1 10747  0.65

> <Gold.PLP.Chemscore.Internal.Correction>
0.5638

> <Gold.Rescore>
     Score         DG    S(hbond)    S(metal)    S(lipo)     H(rot)  DE(clash)    DE(int)     intcor
     15.40     -17.34       2.00        0.00      74.64       1.39       0.61       1.33       ----

> <Gold.Chemscore.Fitness>
15.3991

> <Gold.Chemscore.DG>
-17.3410

> <Gold.Chemscore.ZeroCoef>
-5.4800

> <Gold.Chemscore.Hbond>
1.9984

> <Gold.Chemscore.Metal>
0.0000

> <Gold.Chemscore.Lipo>
74.6368

> <Gold.Chemscore.Internal_Hbond>
0.0000

> <Gold.Chemscore.DEClash>
0.6086

> <Gold.Chemscore.DEInternal>
1.3332

> <Gold.Chemscore.Rot>
1.3852

> <Gold.Chemscore.Internal.Correction>
   9.000000E+99

> <Gold.Chemscore.Hbonds>
donor molecule, donor type, donor heavy atom, donor atom, acceptor molecule, acceptor atom, score
      L1  H     7    29       P1  7948  1.00
      L1  H    10    30       P1  7948  0.82
      P1  H 10785 10796       L1    14  0.02

> <Gold.Chemscore.Hbond.Weighted>
-6.6745

> <Gold.Chemscore.Metal.Weighted>
-0.0000

> <Gold.Chemscore.Lipo.Weighted>
-8.7325

> <Gold.Chemscore.Internal_Hbond.Weighted>
0.0000

> <Gold.Chemscore.DEClash.Weighted>
0.6086

> <Gold.Chemscore.DEInternal.Weighted>
1.3332

> <Gold.Chemscore.Rot.Weighted>
3.5460

> <Gold.Chemscore.Internal.Correction.Weighted>
   9.000000E+99

> <Gold.Protein.RotatedTorsions>
[ 6907 6896 6895 6894 ] final -121.04 input  -60.11 | X-H torsion
[ 7974 7965 7964 7962 ] final  -13.37 input  175.53 | X-H torsion
[ 8008 7997 7996 7995 ] final  -29.08 input   59.86 | X-H torsion
[ 10167 10162 10161 10158 ] final -151.84 input  -65.29 | X-H torsion
[ 10718 10713 10712 10709 ] final -108.51 input   66.30 | X-H torsion
[ 10763 10752 10751 10750 ] final  -32.64 input  -60.55 | X-H torsion
[ 11005 11000 10999 10996 ] final  111.52 input  -57.11 | X-H torsion

> <Gold.Protein.ActiveResidues>
 VAL166  LYS551  ARG553  GLY616  TRP617  ASP618  TYR619  PRO620  LYS621  CYS622 
 ASP623  PHE694  ASN695  SER759  ASP760  ASP761  ALA762  ILE779  LEU786  VAL792 
 PHE793  MET794  SER795  GLU796  ALA797  LYS798  CYS799  TRP800  GLU811  SER814 

> <Gold.Protein.RotatedAtoms>
  150.8447  133.7881  159.3047 H   0  0  0  0  0  0  0  0  0  0  0  0  # atno 6907 bound_to 6896
  151.5571  135.1065  159.9973 H   0  0  0  0  0  0  0  0  0  0  0  0  # atno 6908 bound_to 6896
  152.4503  133.7574  159.6784 H   0  0  0  0  0  0  0  0  0  0  0  0  # atno 6909 bound_to 6896
  146.2117  140.3193  142.8389 H   0  0  0  0  0  0  0  0  0  0  0  0  # atno 7974 bound_to 7965
  154.4305  140.1828  156.1190 H   0  0  0  0  0  0  0  0  0  0  0  0  # atno 8008 bound_to 7997
  156.0158  140.3346  155.6962 H   0  0  0  0  0  0  0  0  0  0  0  0  # atno 8009 bound_to 7997
  155.6047  140.0644  157.2714 H   0  0  0  0  0  0  0  0  0  0  0  0  # atno 8010 bound_to 7997
  139.7233  143.8923  152.2510 H   0  0  0  0  0  0  0  0  0  0  0  0  # atno 10167 bound_to 10162
  156.0489  130.5716  150.7971 H   0  0  0  0  0  0  0  0  0  0  0  0  # atno 10718 bound_to 10713
  153.8171  135.6877  153.4832 H   0  0  0  0  0  0  0  0  0  0  0  0  # atno 10763 bound_to 10752
  153.1592  135.4586  154.9746 H   0  0  0  0  0  0  0  0  0  0  0  0  # atno 10764 bound_to 10752
  154.7943  135.3313  154.7646 H   0  0  0  0  0  0  0  0  0  0  0  0  # atno 10765 bound_to 10752
  139.8905  134.9510  156.6445 H   0  0  0  0  0  0  0  0  0  0  0  0  # atno 11005 bound_to 11000
  144.8932  140.7549  143.5914 LP  0  0  0  0  0  0  0  0  0  0  0  0  # atno 17320 bound_to 7965
  145.3116  139.1817  143.4636 LP  0  0  0  0  0  0  0  0  0  0  0  0  # atno 17321 bound_to 7965
  139.8825  144.7010  150.8861 LP  0  0  0  0  0  0  0  0  0  0  0  0  # atno 17342 bound_to 10162
  140.7758  143.3650  151.1757 LP  0  0  0  0  0  0  0  0  0  0  0  0  # atno 17343 bound_to 10162
  157.5395  131.0940  150.9847 LP  0  0  0  0  0  0  0  0  0  0  0  0  # atno 17370 bound_to 10713
  157.0133  130.5645  149.5323 LP  0  0  0  0  0  0  0  0  0  0  0  0  # atno 17371 bound_to 10713
  140.7568  133.8851  155.8388 LP  0  0  0  0  0  0  0  0  0  0  0  0  # atno 17394 bound_to 11000
  140.9955  134.1221  157.4367 LP  0  0  0  0  0  0  0  0  0  0  0  0  # atno 17395 bound_to 11000

$$$$
