AV-unprocessed.smi:2032|AV-procd|sdf|8255|dock4
  -GOLD-   2272010523D 1   1.00000     0.00000
 Structure written by MMmdl.
 42 43  0  0  0  0  0  0  0  0  3 V2000
  148.6721  131.5780  153.3142 C   0  0  0  0  0  0  0  0  0  0  0  0
  148.5600  133.1029  153.4179 C   0  0  2  0  0  0  0  0  0  0  0  0
  149.7221  133.7187  154.2179 C   0  0  0  0  0  0  0  0  0  0  0  0
  149.5628  135.1930  154.3449 N   0  3  2  0  0  0  0  0  0  0  0  0
  150.7312  135.8504  155.0189 C   0  0  2  0  0  0  0  0  0  0  0  0
  150.7989  135.5640  156.5399 C   0  0  0  0  0  0  0  0  0  0  0  0
  150.7101  137.3775  154.7464 C   0  0  0  0  0  0  0  0  0  0  0  0
  151.3587  138.1560  155.7990 N   0  0  0  0  0  0  0  0  0  0  0  0
  151.4294  139.4935  155.8678 C   0  0  0  0  0  0  0  0  0  0  0  0
  150.8976  140.1861  154.9973 O   0  0  0  0  0  0  0  0  0  0  0  0
  152.1085  139.9444  156.9459 N   0  5  0  0  0  0  0  0  0  0  0  0
  151.6617  141.0178  157.6183 C   0  0  0  0  0  0  0  0  0  0  0  0
  150.6496  141.7785  157.1859 N   0  0  0  0  0  0  0  0  0  0  0  0
  150.3514  142.8430  158.0384 C   0  0  0  0  0  0  0  0  0  0  0  0
  151.1605  142.8986  159.1421 C   0  0  0  0  0  0  0  0  0  0  0  0
  152.3296  141.6090  159.1425 S   0  0  0  0  0  0  0  0  0  0  0  0
  148.2267  135.4949  154.9289 C   0  0  0  0  0  0  0  0  0  0  0  0
  147.1007  134.8145  154.1263 C   0  0  2  0  0  0  0  0  0  0  0  0
  145.7229  135.0405  154.7589 C   0  0  0  0  0  0  0  0  0  0  0  0
  147.3373  133.4141  154.0716 O   0  0  0  0  0  0  0  0  0  0  0  0
  149.5934  131.2856  152.8096 H   0  0  0  0  0  0  0  0  0  0  0  0
  147.8383  131.1641  152.7466 H   0  0  0  0  0  0  0  0  0  0  0  0
  148.6678  131.1120  154.3001 H   0  0  0  0  0  0  0  0  0  0  0  0
  148.5474  133.5171  152.4081 H   0  0  0  0  0  0  0  0  0  0  0  0
  149.7693  133.2726  155.2128 H   0  0  0  0  0  0  0  0  0  0  0  0
  150.6525  133.4643  153.7151 H   0  0  0  0  0  0  0  0  0  0  0  0
  151.6416  135.4351  154.5836 H   0  0  0  0  0  0  0  0  0  0  0  0
  151.6484  136.0594  157.0085 H   0  0  0  0  0  0  0  0  0  0  0  0
  150.9341  134.5040  156.7537 H   0  0  0  0  0  0  0  0  0  0  0  0
  149.8985  135.9068  157.0504 H   0  0  0  0  0  0  0  0  0  0  0  0
  151.2506  137.6233  153.8348 H   0  0  0  0  0  0  0  0  0  0  0  0
  149.6844  137.7113  154.5815 H   0  0  0  0  0  0  0  0  0  0  0  0
  151.8079  137.6362  156.5389 H   0  0  0  0  0  0  0  0  0  0  0  0
  149.5451  143.5133  157.7804 H   0  0  0  0  0  0  0  0  0  0  0  0
  151.1424  143.6152  159.9492 H   0  0  0  0  0  0  0  0  0  0  0  0
  148.2025  135.1703  155.9707 H   0  0  0  0  0  0  0  0  0  0  0  0
  148.0310  136.5666  154.9131 H   0  0  0  0  0  0  0  0  0  0  0  0
  147.0826  135.2143  153.1105 H   0  0  0  0  0  0  0  0  0  0  0  0
  145.4861  136.1033  154.8167 H   0  0  0  0  0  0  0  0  0  0  0  0
  145.6799  134.6326  155.7694 H   0  0  0  0  0  0  0  0  0  0  0  0
  144.9405  134.5585  154.1721 H   0  0  0  0  0  0  0  0  0  0  0  0
  149.5408  135.5666  153.4066 H   0  0  0  0  0  0  0  0  0  0  0  0
  1  2  1  0  0  0  0
  1 21  1  0  0  0  0
  1 22  1  0  0  0  0
  1 23  1  0  0  0  0
  2 20  1  0  0  0  0
  2  3  1  0  0  0  0
  2 24  1  0  0  0  0
  3  4  1  0  0  0  0
  3 25  1  0  0  0  0
  3 26  1  0  0  0  0
  4  5  1  0  0  0  0
  4 17  1  0  0  0  0
  4 42  1  0  0  0  0
  5  6  1  0  0  0  0
  5  7  1  0  0  0  0
  5 27  1  0  0  0  0
  6 28  1  0  0  0  0
  6 29  1  0  0  0  0
  6 30  1  0  0  0  0
  7  8  1  0  0  0  0
  7 31  1  0  0  0  0
  7 32  1  0  0  0  0
  8  9  1  0  0  0  0
  8 33  1  0  0  0  0
  9 10  2  0  0  0  0
  9 11  1  0  0  0  0
 11 12  1  0  0  0  0
 12 16  1  0  0  0  0
 12 13  2  0  0  0  0
 13 14  1  0  0  0  0
 14 15  2  0  0  0  0
 14 34  1  0  0  0  0
 15 16  1  0  0  0  0
 15 35  1  0  0  0  0
 17 18  1  0  0  0  0
 17 36  1  0  0  0  0
 17 37  1  0  0  0  0
 18 19  1  0  0  0  0
 18 20  1  0  0  0  0
 18 38  1  0  0  0  0
 19 39  1  0  0  0  0
 19 40  1  0  0  0  0
 19 41  1  0  0  0  0
M  CHG  1   4   1
M  CHG  1  11  -1
M  END
> <s_m_source_file>
AV-unprocessed.smi

> <i_m_source_file_index>
2032

> <i_lp_mmshare_version>
43012

> <i_f3d_flags>
0

> <s_epik_input>
W0NIM11bQ0BASF0xW0NIMl1OKFtDSDJdW0NASF0oTzEpW0NIM10pW0NASF0oW0NIM10pW0NIMl1bTkhdQyg9TylbTkhdYzJuW2NIXVtjSF1zMg==

> <s_epik_cmdline>
J2VwaWtfcHl0aG9uJywgJy1waCcsICc3LjAnLCAnLXRuJywgJzgnLCAnLW1hJywgJzIwMCcsICctbWV0YWxfYmluZGluZycsICctaW1hZScsICc8aW5maWxlLm1hZT4nLCAnLW9tYWUnLCAnPG91dGZpbGUubWFlPic=

> <r_lp_tautomer_probability>
0.999

> <r_epik_Ionization_Penalty>
6.71699

> <r_epik_Ionization_Penalty_Charging>
5.88592

> <r_epik_Ionization_Penalty_Neutral>
0.831074

> <r_epik_State_Penalty>
6.08365

> <r_epik_Charging_Adjusted_Penalty>
11.9696

> <i_epik_Tot_Q>
0

> <i_epik_Tot_abs_Q>
2

> <r_epik_Metal_State_Penalty>
2.0947

> <b_epik_Metal_Only>
1

> <s_lp_Force_Field>
OPLS_2005

> <r_lp_Energy>
9.66165

> <b_lp_Chiralities_Consistent>
1

> <s_lp_Variant>
AV-unprocessed.smi:2032-25

> <Gold.Version>
5.8.1

> <Gold.Id.Protein>
6NUR|6NUR_protein|mol2

> <Gold.PLP.Fitness>
45.6987

> <Gold.PLP.PLP>
-29.3218

> <Gold.PLP.part.hbond>
-3.0000

> <Gold.PLP.part.metal>
0.0000

> <Gold.PLP.part.buried>
-4.3293

> <Gold.PLP.part.nonpolar>
-21.7679

> <Gold.PLP.part.repulsive>
0.3130

> <Gold.PLP.ligand.clash>
0.0000

> <Gold.PLP.ligand.torsion>
0.8476

> <Gold.PLP.Chemscore.Hbond>
5.0000

> <Gold.PLP.Chemscore.CHOScore>
1.0000

> <Gold.PLP.Chemscore.Metal>
0.0000

> <Gold.Chemscore.Hbonds>
donor molecule, donor type, donor heavy atom, donor atom, acceptor molecule, acceptor atom, score
      L1  H     4    42       P1  7948  1.50
      P1  H  7989  7998       L1    10  1.00
      P1  H  7997  8009       L1    11  0.62
      L1  C    14    34       P1  8028  1.00

> <Gold.PLP.Chemscore.Internal.Correction>
0.0720

> <Gold.Rescore>
     Score         DG    S(hbond)    S(metal)    S(lipo)     H(rot)  DE(clash)    DE(int)     intcor
     15.14     -17.57       2.61        0.00      63.37       1.58       0.01       2.42       ----

> <Gold.Chemscore.Fitness>
15.1448

> <Gold.Chemscore.DG>
-17.5697

> <Gold.Chemscore.ZeroCoef>
-5.4800

> <Gold.Chemscore.Hbond>
2.6102

> <Gold.Chemscore.Metal>
0.0000

> <Gold.Chemscore.Lipo>
63.3692

> <Gold.Chemscore.Internal_Hbond>
0.0000

> <Gold.Chemscore.DEClash>
0.0057

> <Gold.Chemscore.DEInternal>
2.4192

> <Gold.Chemscore.Rot>
1.5791

> <Gold.Chemscore.Internal.Correction>
   9.000000E+99

> <Gold.Chemscore.Hbonds>
donor molecule, donor type, donor heavy atom, donor atom, acceptor molecule, acceptor atom, score
      L1  H     4    42       P1  7948  0.09
      P1  H  7989  7998       L1    10  1.00
      P1  H  7997  8009       L1    11  0.16

> <Gold.Chemscore.Hbond.Weighted>
-8.7180

> <Gold.Chemscore.Metal.Weighted>
-0.0000

> <Gold.Chemscore.Lipo.Weighted>
-7.4142

> <Gold.Chemscore.Internal_Hbond.Weighted>
0.0000

> <Gold.Chemscore.DEClash.Weighted>
0.0057

> <Gold.Chemscore.DEInternal.Weighted>
2.4192

> <Gold.Chemscore.Rot.Weighted>
4.0425

> <Gold.Chemscore.Internal.Correction.Weighted>
   9.000000E+99

> <Gold.Protein.RotatedTorsions>
[ 6907 6896 6895 6894 ] final   -4.01 input  -60.11 | X-H torsion
[ 7974 7965 7964 7962 ] final  164.78 input  175.53 | X-H torsion
[ 8008 7997 7996 7995 ] final -163.12 input   59.86 | X-H torsion
[ 10167 10162 10161 10158 ] final   17.32 input  -65.29 | X-H torsion
[ 10718 10713 10712 10709 ] final   50.31 input   66.30 | X-H torsion
[ 10763 10752 10751 10750 ] final  -97.56 input  -60.55 | X-H torsion
[ 11005 11000 10999 10996 ] final -126.17 input  -57.11 | X-H torsion

> <Gold.Protein.ActiveResidues>
 VAL166  LYS551  ARG553  GLY616  TRP617  ASP618  TYR619  PRO620  LYS621  CYS622 
 ASP623  PHE694  ASN695  SER759  ASP760  ASP761  ALA762  ILE779  LEU786  VAL792 
 PHE793  MET794  SER795  GLU796  ALA797  LYS798  CYS799  TRP800  GLU811  SER814 

> <Gold.Protein.RotatedAtoms>
  151.5045  135.1063  159.9837 H   0  0  0  0  0  0  0  0  0  0  0  0  # atno 6907 bound_to 6896
  152.4688  133.7978  159.6947 H   0  0  0  0  0  0  0  0  0  0  0  0  # atno 6908 bound_to 6896
  150.8685  133.7476  159.2994 H   0  0  0  0  0  0  0  0  0  0  0  0  # atno 6909 bound_to 6896
  144.7530  139.8375  143.6359 H   0  0  0  0  0  0  0  0  0  0  0  0  # atno 7974 bound_to 7965
  155.8167  140.0913  157.1872 H   0  0  0  0  0  0  0  0  0  0  0  0  # atno 8008 bound_to 7997
  154.3979  140.1444  156.3511 H   0  0  0  0  0  0  0  0  0  0  0  0  # atno 8009 bound_to 7997
  155.8309  140.3442  155.5574 H   0  0  0  0  0  0  0  0  0  0  0  0  # atno 8010 bound_to 7997
  140.5735  143.9117  150.6731 H   0  0  0  0  0  0  0  0  0  0  0  0  # atno 10167 bound_to 10162
  157.4872  130.8353  149.8161 H   0  0  0  0  0  0  0  0  0  0  0  0  # atno 10718 bound_to 10713
  154.7339  135.5042  153.9009 H   0  0  0  0  0  0  0  0  0  0  0  0  # atno 10763 bound_to 10752
  153.0976  135.6676  153.9742 H   0  0  0  0  0  0  0  0  0  0  0  0  # atno 10764 bound_to 10752
  153.9536  135.3055  155.3416 H   0  0  0  0  0  0  0  0  0  0  0  0  # atno 10765 bound_to 10752
  140.9703  134.0815  157.3877 H   0  0  0  0  0  0  0  0  0  0  0  0  # atno 11005 bound_to 11000
  146.1506  139.4588  143.0051 LP  0  0  0  0  0  0  0  0  0  0  0  0  # atno 17320 bound_to 7965
  145.6876  141.0173  143.1573 LP  0  0  0  0  0  0  0  0  0  0  0  0  # atno 17321 bound_to 7965
  140.2598  143.3532  152.1332 LP  0  0  0  0  0  0  0  0  0  0  0  0  # atno 17342 bound_to 10162
  139.5130  144.6925  151.5720 LP  0  0  0  0  0  0  0  0  0  0  0  0  # atno 17343 bound_to 10162
  156.0153  130.3816  150.2130 LP  0  0  0  0  0  0  0  0  0  0  0  0  # atno 17370 bound_to 10713
  157.0318  131.0009  151.3310 LP  0  0  0  0  0  0  0  0  0  0  0  0  # atno 17371 bound_to 10713
  139.8909  135.0115  156.6765 LP  0  0  0  0  0  0  0  0  0  0  0  0  # atno 17394 bound_to 11000
  140.7339  133.9035  155.8230 LP  0  0  0  0  0  0  0  0  0  0  0  0  # atno 17395 bound_to 11000

$$$$
