AV-unprocessed.smi:1005|AV-procd|sdf|4387|dock5
  -GOLD-   22720 2313D 1   1.00000     0.00000
 Structure written by MMmdl.
 55 57  0  0  0  0  0  0  0  0  1 V2000
  151.1642  145.5190  159.5202 C   0  0  0  0  0  0  0  0  0  0  0  0
  151.4357  144.0628  159.1862 C   0  0  0  0  0  0  0  0  0  0  0  0
  151.1349  143.5879  157.8896 C   0  0  0  0  0  0  0  0  0  0  0  0
  151.3725  142.2410  157.5383 C   0  0  0  0  0  0  0  0  0  0  0  0
  151.1566  141.5706  156.3464 N   0  0  0  0  0  0  0  0  0  0  0  0
  151.5767  140.3453  156.6479 C   0  0  0  0  0  0  0  0  0  0  0  0
  152.0396  140.1423  157.8964 N   0  0  0  0  0  0  0  0  0  0  0  0
  152.5481  138.9024  158.4549 C   0  0  0  0  0  0  0  0  0  0  0  0
  151.6435  137.6988  158.1312 C   0  0  1  0  0  0  0  0  0  0  0  0
  152.4329  136.5260  158.0759 O   0  0  0  0  0  0  0  0  0  0  0  0
  150.5470  137.5116  159.1998 C   0  0  0  0  0  0  0  0  0  0  0  0
  149.8397  136.2304  159.1652 N   0  0  0  0  0  0  0  0  0  0  0  0
  148.5941  136.3034  159.9203 C   0  0  0  0  0  0  0  0  0  0  0  0
  147.8274  134.9713  159.8945 C   0  0  0  0  0  0  0  0  0  0  0  0
  147.5912  134.5894  158.5434 O   0  0  0  0  0  0  0  0  0  0  0  0
  148.7912  134.4333  157.7888 C   0  0  1  0  0  0  0  0  0  0  0  0
  148.3991  133.9810  156.3667 C   0  0  0  0  0  0  0  0  0  0  0  0
  149.5104  133.7787  155.4351 N   0  0  0  0  0  0  0  0  0  0  0  0
  149.0667  133.3714  154.1079 C   0  0  0  0  0  0  0  0  0  0  0  0
  150.4596  132.8117  155.9686 C   0  0  0  0  0  0  0  0  0  0  0  0
  149.5385  135.7853  157.8056 C   0  0  0  0  0  0  0  0  0  0  0  0
  151.9246  141.3757  158.5275 C   0  0  0  0  0  0  0  0  0  0  0  0
  152.2284  141.8362  159.8208 C   0  0  0  0  0  0  0  0  0  0  0  0
  151.9846  143.1846  160.1553 C   0  0  0  0  0  0  0  0  0  0  0  0
  152.3144  143.6707  161.5556 C   0  0  0  0  0  0  0  0  0  0  0  0
  150.6860  146.0361  158.6876 H   0  0  0  0  0  0  0  0  0  0  0  0
  152.0963  146.0378  159.7459 H   0  0  0  0  0  0  0  0  0  0  0  0
  150.5047  145.5982  160.3847 H   0  0  0  0  0  0  0  0  0  0  0  0
  150.7175  144.2564  157.1509 H   0  0  0  0  0  0  0  0  0  0  0  0
  151.5442  139.5477  155.9200 H   0  0  0  0  0  0  0  0  0  0  0  0
  153.5594  138.7357  158.0808 H   0  0  0  0  0  0  0  0  0  0  0  0
  152.6319  139.0296  159.5349 H   0  0  0  0  0  0  0  0  0  0  0  0
  151.2039  137.8607  157.1483 H   0  0  0  0  0  0  0  0  0  0  0  0
  153.3317  136.7593  158.2501 H   0  0  0  0  0  0  0  0  0  0  0  0
  151.0065  137.6431  160.1809 H   0  0  0  0  0  0  0  0  0  0  0  0
  149.8183  138.3186  159.1078 H   0  0  0  0  0  0  0  0  0  0  0  0
  148.8027  136.5779  160.9550 H   0  0  0  0  0  0  0  0  0  0  0  0
  147.9592  137.0908  159.5106 H   0  0  0  0  0  0  0  0  0  0  0  0
  148.3888  134.1906  160.4100 H   0  0  0  0  0  0  0  0  0  0  0  0
  146.8719  135.0726  160.4090 H   0  0  0  0  0  0  0  0  0  0  0  0
  149.3941  133.6589  158.2676 H   0  0  0  0  0  0  0  0  0  0  0  0
  147.8770  133.0280  156.4654 H   0  0  0  0  0  0  0  0  0  0  0  0
  147.6657  134.6675  155.9408 H   0  0  0  0  0  0  0  0  0  0  0  0
  149.9202  133.1791  153.4570 H   0  0  0  0  0  0  0  0  0  0  0  0
  148.4766  134.1551  153.6339 H   0  0  0  0  0  0  0  0  0  0  0  0
  148.4646  132.4629  154.1539 H   0  0  0  0  0  0  0  0  0  0  0  0
  151.3165  132.7022  155.3031 H   0  0  0  0  0  0  0  0  0  0  0  0
  149.9969  131.8315  156.0911 H   0  0  0  0  0  0  0  0  0  0  0  0
  150.8377  133.1331  156.9399 H   0  0  0  0  0  0  0  0  0  0  0  0
  148.9355  136.5396  157.2977 H   0  0  0  0  0  0  0  0  0  0  0  0
  150.4556  135.6885  157.2302 H   0  0  0  0  0  0  0  0  0  0  0  0
  152.6448  141.1556  160.5487 H   0  0  0  0  0  0  0  0  0  0  0  0
  152.7907  142.8875  162.1462 H   0  0  0  0  0  0  0  0  0  0  0  0
  151.4066  143.9779  162.0756 H   0  0  0  0  0  0  0  0  0  0  0  0
  152.9967  144.5203  161.5173 H   0  0  0  0  0  0  0  0  0  0  0  0
  1  2  1  0  0  0  0
  1 26  1  0  0  0  0
  1 27  1  0  0  0  0
  1 28  1  0  0  0  0
  2 24  1  0  0  0  0
  2  3  2  0  0  0  0
  3  4  1  0  0  0  0
  3 29  1  0  0  0  0
  4 22  2  0  0  0  0
  4  5  1  0  0  0  0
  5  6  2  0  0  0  0
  6  7  1  0  0  0  0
  6 30  1  0  0  0  0
  7  8  1  0  0  0  0
  7 22  1  0  0  0  0
  8  9  1  0  0  0  0
  8 31  1  0  0  0  0
  8 32  1  0  0  0  0
  9 10  1  0  0  0  0
  9 11  1  0  0  0  0
  9 33  1  0  0  0  0
 10 34  1  0  0  0  0
 11 12  1  0  0  0  0
 11 35  1  0  0  0  0
 11 36  1  0  0  0  0
 12 21  1  0  0  0  0
 12 13  1  0  0  0  0
 13 14  1  0  0  0  0
 13 37  1  0  0  0  0
 13 38  1  0  0  0  0
 14 15  1  0  0  0  0
 14 39  1  0  0  0  0
 14 40  1  0  0  0  0
 15 16  1  0  0  0  0
 16 17  1  0  0  0  0
 16 21  1  0  0  0  0
 16 41  1  0  0  0  0
 17 18  1  0  0  0  0
 17 42  1  0  0  0  0
 17 43  1  0  0  0  0
 18 19  1  0  0  0  0
 18 20  1  0  0  0  0
 19 44  1  0  0  0  0
 19 45  1  0  0  0  0
 19 46  1  0  0  0  0
 20 47  1  0  0  0  0
 20 48  1  0  0  0  0
 20 49  1  0  0  0  0
 21 50  1  0  0  0  0
 21 51  1  0  0  0  0
 22 23  1  0  0  0  0
 23 24  2  0  0  0  0
 23 52  1  0  0  0  0
 24 25  1  0  0  0  0
 25 53  1  0  0  0  0
 25 54  1  0  0  0  0
 25 55  1  0  0  0  0
M  END
> <s_m_source_file>
AV-unprocessed.smi

> <i_m_source_file_index>
1005

> <i_lp_mmshare_version>
43012

> <i_f3d_flags>
0

> <s_epik_input>
W0NIM11jKFtjSF0xKWMoW0NIM10pW2NIXWMoYzEyKW4oW2NIXW4yKVtDSDJdW0NASF0oW09IXSlbQ0gyXU4zW0NIMl1bQ0gyXU9bQ0BIXShbQ0gyXTMpW0NIMl1OKFtDSDNdKVtDSDNd

> <s_epik_cmdline>
J2VwaWtfcHl0aG9uJywgJy1waCcsICc3LjAnLCAnLXRuJywgJzgnLCAnLW1hJywgJzIwMCcsICctbWV0YWxfYmluZGluZycsICctaW1hZScsICc8aW5maWxlLm1hZT4nLCAnLW9tYWUnLCAnPG91dGZpbGUubWFlPic=

> <r_epik_Ionization_Penalty>
2.78613

> <r_epik_Ionization_Penalty_Charging>
0

> <r_epik_Ionization_Penalty_Neutral>
2.78613

> <r_epik_State_Penalty>
2.57336

> <r_epik_Charging_Adjusted_Penalty>
2.57336

> <i_epik_Tot_Q>
0

> <i_epik_Tot_abs_Q>
0

> <r_epik_Metal_State_Penalty>
2.49087

> <b_epik_Metal_Only>
0

> <s_lp_Force_Field>
OPLS_2005

> <r_lp_Energy>
38.3146

> <b_lp_Chiralities_Consistent>
1

> <s_lp_Variant>
AV-unprocessed.smi:1005-26

> <Gold.Version>
5.8.1

> <Gold.Id.Protein>
6NUR|6NUR_protein|mol2

> <Gold.PLP.Fitness>
46.8240

> <Gold.PLP.PLP>
-45.3022

> <Gold.PLP.part.hbond>
-1.6057

> <Gold.PLP.part.metal>
0.0000

> <Gold.PLP.part.buried>
-5.8776

> <Gold.PLP.part.nonpolar>
-37.4292

> <Gold.PLP.part.repulsive>
0.1152

> <Gold.PLP.ligand.clash>
0.0030

> <Gold.PLP.ligand.torsion>
0.7780

> <Gold.PLP.Chemscore.Hbond>
1.0000

> <Gold.PLP.Chemscore.CHOScore>
0.0000

> <Gold.PLP.Chemscore.Metal>
0.0000

> <Gold.Chemscore.Hbonds>
donor molecule, donor type, donor heavy atom, donor atom, acceptor molecule, acceptor atom, score
      P1  H  6896  6907       L1    12  0.85

> <Gold.PLP.Chemscore.Internal.Correction>
0.0808

> <Gold.Rescore>
     Score         DG    S(hbond)    S(metal)    S(lipo)     H(rot)  DE(clash)    DE(int)     intcor
     14.13     -14.97       0.29        0.00     122.95       2.29       0.17       0.67       ----

> <Gold.Chemscore.Fitness>
14.1314

> <Gold.Chemscore.DG>
-14.9650

> <Gold.Chemscore.ZeroCoef>
-5.4800

> <Gold.Chemscore.Hbond>
0.2876

> <Gold.Chemscore.Metal>
0.0000

> <Gold.Chemscore.Lipo>
122.9537

> <Gold.Chemscore.Internal_Hbond>
0.0000

> <Gold.Chemscore.DEClash>
0.1673

> <Gold.Chemscore.DEInternal>
0.6663

> <Gold.Chemscore.Rot>
2.2895

> <Gold.Chemscore.Internal.Correction>
   9.000000E+99

> <Gold.Chemscore.Hbonds>
donor molecule, donor type, donor heavy atom, donor atom, acceptor molecule, acceptor atom, score
      P1  H  6896  6907       L1    12  0.10

> <Gold.Chemscore.Hbond.Weighted>
-0.9606

> <Gold.Chemscore.Metal.Weighted>
-0.0000

> <Gold.Chemscore.Lipo.Weighted>
-14.3856

> <Gold.Chemscore.Internal_Hbond.Weighted>
0.0000

> <Gold.Chemscore.DEClash.Weighted>
0.1673

> <Gold.Chemscore.DEInternal.Weighted>
0.6663

> <Gold.Chemscore.Rot.Weighted>
5.8612

> <Gold.Chemscore.Internal.Correction.Weighted>
   9.000000E+99

> <Gold.Protein.RotatedTorsions>
[ 6907 6896 6895 6894 ] final  -56.81 input  -60.11 | X-H torsion
[ 7974 7965 7964 7962 ] final   23.93 input  175.53 | X-H torsion
[ 8008 7997 7996 7995 ] final  -14.61 input   59.86 | X-H torsion
[ 10167 10162 10161 10158 ] final -121.43 input  -65.29 | X-H torsion
[ 10718 10713 10712 10709 ] final   -9.24 input   66.30 | X-H torsion
[ 10763 10752 10751 10750 ] final -106.89 input  -60.55 | X-H torsion
[ 11005 11000 10999 10996 ] final   79.94 input  -57.11 | X-H torsion

> <Gold.Protein.ActiveResidues>
 VAL166  LYS551  ARG553  GLY616  TRP617  ASP618  TYR619  PRO620  LYS621  CYS622 
 ASP623  PHE694  ASN695  SER759  ASP760  ASP761  ALA762  ILE779  LEU786  VAL792 
 PHE793  MET794  SER795  GLU796  ALA797  LYS798  CYS799  TRP800  GLU811  SER814 

> <Gold.Protein.RotatedAtoms>
  150.8137  134.7307  159.6710 H   0  0  0  0  0  0  0  0  0  0  0  0  # atno 6907 bound_to 6896
  152.4257  134.5870  159.9973 H   0  0  0  0  0  0  0  0  0  0  0  0  # atno 6908 bound_to 6896
  151.6073  133.3313  159.3096 H   0  0  0  0  0  0  0  0  0  0  0  0  # atno 6909 bound_to 6896
  146.1962  139.7676  142.8796 H   0  0  0  0  0  0  0  0  0  0  0  0  # atno 7974 bound_to 7965
  154.5196  140.2218  155.9000 H   0  0  0  0  0  0  0  0  0  0  0  0  # atno 8008 bound_to 7997
  156.1647  140.3135  155.8833 H   0  0  0  0  0  0  0  0  0  0  0  0  # atno 8009 bound_to 7997
  155.3680  140.0465  157.3036 H   0  0  0  0  0  0  0  0  0  0  0  0  # atno 8010 bound_to 7997
  140.0251  143.5304  152.2202 H   0  0  0  0  0  0  0  0  0  0  0  0  # atno 10167 bound_to 10162
  156.6909  130.5065  149.5944 H   0  0  0  0  0  0  0  0  0  0  0  0  # atno 10718 bound_to 10713
  154.8041  135.4695  154.0348 H   0  0  0  0  0  0  0  0  0  0  0  0  # atno 10763 bound_to 10752
  153.1831  135.6843  153.8458 H   0  0  0  0  0  0  0  0  0  0  0  0  # atno 10764 bound_to 10752
  153.8002  135.3231  155.3367 H   0  0  0  0  0  0  0  0  0  0  0  0  # atno 10765 bound_to 10752
  139.9153  134.7882  156.1844 H   0  0  0  0  0  0  0  0  0  0  0  0  # atno 11005 bound_to 11000
  145.3637  141.0330  143.3270 LP  0  0  0  0  0  0  0  0  0  0  0  0  # atno 17320 bound_to 7965
  144.8585  139.5214  143.6823 LP  0  0  0  0  0  0  0  0  0  0  0  0  # atno 17321 bound_to 7965
  139.6113  144.7609  151.2945 LP  0  0  0  0  0  0  0  0  0  0  0  0  # atno 17342 bound_to 10162
  140.7326  143.6819  150.7994 LP  0  0  0  0  0  0  0  0  0  0  0  0  # atno 17343 bound_to 10162
  156.1798  130.6491  151.0938 LP  0  0  0  0  0  0  0  0  0  0  0  0  # atno 17370 bound_to 10713
  157.7009  131.0776  150.6823 LP  0  0  0  0  0  0  0  0  0  0  0  0  # atno 17371 bound_to 10713
  141.0622  133.6836  156.1975 LP  0  0  0  0  0  0  0  0  0  0  0  0  # atno 17394 bound_to 11000
  140.6642  134.4935  157.5585 LP  0  0  0  0  0  0  0  0  0  0  0  0  # atno 17395 bound_to 11000

$$$$
