AV-unprocessed.smi:759|AV-procd|sdf|3621|dock9
  -GOLD-   22720 1 13D 1   1.00000     0.00000
 Structure written by MMmdl.
 24 25  0  0  0  0  0  0  0  0  2 V2000
  145.1764  135.9741  154.4861 C   0  0  0  0  0  0  0  0  0  0  0  0
  144.4267  135.1196  155.1794 N   0  0  0  0  0  0  0  0  0  0  0  0
  143.8572  134.3847  154.2015 N   0  0  0  0  0  0  0  0  0  0  0  0
  144.2792  134.8255  153.0143 C   0  0  0  0  0  0  0  0  0  0  0  0
  143.8279  134.2106  151.7248 C   0  0  2  0  0  0  0  0  0  0  0  0
  144.0651  132.6885  151.6960 C   0  0  0  0  0  0  0  0  0  0  0  0
  143.6015  132.0963  150.3560 C   0  0  0  0  0  0  0  0  0  0  0  0
  144.2663  132.8215  149.1742 C   0  0  0  0  0  0  0  0  0  0  0  0
  144.0062  134.2762  149.2407 N   0  3  0  0  0  0  0  0  0  0  0  0
  144.4766  134.8913  150.5017 C   0  0  0  0  0  0  0  0  0  0  0  0
  145.1288  135.8421  153.1264 N   0  0  0  0  0  0  0  0  0  0  0  0
  145.7805  136.7224  154.9779 H   0  0  0  0  0  0  0  0  0  0  0  0
  142.7508  134.3726  151.6527 H   0  0  0  0  0  0  0  0  0  0  0  0
  145.1248  132.4726  151.8408 H   0  0  0  0  0  0  0  0  0  0  0  0
  143.5341  132.2076  152.5183 H   0  0  0  0  0  0  0  0  0  0  0  0
  143.8335  131.0315  150.3192 H   0  0  0  0  0  0  0  0  0  0  0  0
  142.5170  132.1795  150.2742 H   0  0  0  0  0  0  0  0  0  0  0  0
  145.3434  132.6476  149.1781 H   0  0  0  0  0  0  0  0  0  0  0  0
  143.8843  132.4347  148.2293 H   0  0  0  0  0  0  0  0  0  0  0  0
  144.4681  134.7277  148.4640 H   0  0  0  0  0  0  0  0  0  0  0  0
  144.2344  135.9542  150.4853 H   0  0  0  0  0  0  0  0  0  0  0  0
  145.5640  134.8133  150.5494 H   0  0  0  0  0  0  0  0  0  0  0  0
  143.0111  134.4282  149.1606 H   0  0  0  0  0  0  0  0  0  0  0  0
  143.2164  133.6259  154.3856 H   0  0  0  0  0  0  0  0  0  0  0  0
  1 11  1  0  0  0  0
  1 12  1  0  0  0  0
  1  2  2  0  0  0  0
  2  3  1  0  0  0  0
  3  4  1  0  0  0  0
  3 24  1  0  0  0  0
  4 11  2  0  0  0  0
  4  5  1  0  0  0  0
  5 10  1  0  0  0  0
  5  6  1  0  0  0  0
  5 13  1  0  0  0  0
  6  7  1  0  0  0  0
  6 14  1  0  0  0  0
  6 15  1  0  0  0  0
  7  8  1  0  0  0  0
  7 16  1  0  0  0  0
  7 17  1  0  0  0  0
  8  9  1  0  0  0  0
  8 18  1  0  0  0  0
  8 19  1  0  0  0  0
  9 10  1  0  0  0  0
  9 20  1  0  0  0  0
  9 23  1  0  0  0  0
 10 21  1  0  0  0  0
 10 22  1  0  0  0  0
M  CHG  1   9   1
M  END
> <s_m_source_file>
AV-unprocessed.smi

> <i_m_source_file_index>
759

> <i_lp_mmshare_version>
43012

> <i_f3d_flags>
0

> <s_epik_input>
W25IXTFbY0hdbm5jMVtDQEBIXTJbQ0gyXVtDSDJdW0NIMl1bTkhdW0NIMl0y

> <s_epik_cmdline>
J2VwaWtfcHl0aG9uJywgJy1waCcsICc3LjAnLCAnLXRuJywgJzgnLCAnLW1hJywgJzIwMCcsICctbWV0YWxfYmluZGluZycsICctaW1hZScsICc8aW5maWxlLm1hZT4nLCAnLW9tYWUnLCAnPG91dGZpbGUubWFlPic=

> <r_epik_Ionization_Penalty>
0.00885924

> <r_epik_Ionization_Penalty_Charging>
0.000426856

> <r_epik_Ionization_Penalty_Neutral>
0.00843239

> <r_epik_State_Penalty>
0.640618

> <r_epik_Charging_Adjusted_Penalty>
0.641045

> <i_epik_Tot_Q>
1

> <i_epik_Tot_abs_Q>
1

> <r_epik_Metal_State_Penalty>
0.906339

> <b_epik_Metal_Only>
0

> <s_lp_Force_Field>
OPLS_2005

> <r_lp_Energy>
13.0828

> <b_lp_Chiralities_Consistent>
1

> <s_lp_Variant>
AV-unprocessed.smi:759-3

> <Gold.Version>
5.8.1

> <Gold.Id.Protein>
6NUR|6NUR_protein|mol2

> <Gold.PLP.Fitness>
30.5565

> <Gold.PLP.PLP>
-19.1024

> <Gold.PLP.part.hbond>
-3.0000

> <Gold.PLP.part.metal>
0.0000

> <Gold.PLP.part.buried>
-2.7567

> <Gold.PLP.part.nonpolar>
-13.3296

> <Gold.PLP.part.repulsive>
0.2604

> <Gold.PLP.ligand.clash>
0.0000

> <Gold.PLP.ligand.torsion>
0.0355

> <Gold.PLP.Chemscore.Hbond>
3.8320

> <Gold.PLP.Chemscore.CHOScore>
0.0000

> <Gold.PLP.Chemscore.Metal>
0.0000

> <Gold.Chemscore.Hbonds>
donor molecule, donor type, donor heavy atom, donor atom, acceptor molecule, acceptor atom, score
      L1  H     3    24       P1 10957  1.00
      L1  H     9    20       P1  7921  0.83
      L1  H     9    23       P1 10186  2.00

> <Gold.PLP.Chemscore.Internal.Correction>
0.0290

> <Gold.Rescore>
     Score         DG    S(hbond)    S(metal)    S(lipo)     H(rot)  DE(clash)    DE(int)     intcor
     17.06     -17.15       2.79        0.00      42.03       1.00       0.02       0.07       ----

> <Gold.Chemscore.Fitness>
17.0594

> <Gold.Chemscore.DG>
-17.1489

> <Gold.Chemscore.ZeroCoef>
-5.4800

> <Gold.Chemscore.Hbond>
2.7880

> <Gold.Chemscore.Metal>
0.0000

> <Gold.Chemscore.Lipo>
42.0265

> <Gold.Chemscore.Internal_Hbond>
0.0000

> <Gold.Chemscore.DEClash>
0.0174

> <Gold.Chemscore.DEInternal>
0.0721

> <Gold.Chemscore.Rot>
1.0000

> <Gold.Chemscore.Internal.Correction>
   9.000000E+99

> <Gold.Chemscore.Hbonds>
donor molecule, donor type, donor heavy atom, donor atom, acceptor molecule, acceptor atom, score
      L1  H     3    24       P1 10957  0.96
      L1  H     9    20       P1  7921  0.83
      L1  H     9    23       P1 10186  0.93

> <Gold.Chemscore.Hbond.Weighted>
-9.3118

> <Gold.Chemscore.Metal.Weighted>
-0.0000

> <Gold.Chemscore.Lipo.Weighted>
-4.9171

> <Gold.Chemscore.Internal_Hbond.Weighted>
0.0000

> <Gold.Chemscore.DEClash.Weighted>
0.0174

> <Gold.Chemscore.DEInternal.Weighted>
0.0721

> <Gold.Chemscore.Rot.Weighted>
2.5600

> <Gold.Chemscore.Internal.Correction.Weighted>
   9.000000E+99

> <Gold.Protein.RotatedTorsions>
[ 6907 6896 6895 6894 ] final  -90.99 input  -60.11 | X-H torsion
[ 7974 7965 7964 7962 ] final -155.07 input  175.53 | X-H torsion
[ 8008 7997 7996 7995 ] final   83.82 input   59.86 | X-H torsion
[ 10167 10162 10161 10158 ] final  -14.45 input  -65.29 | X-H torsion
[ 10718 10713 10712 10709 ] final -103.04 input   66.30 | X-H torsion
[ 10763 10752 10751 10750 ] final  136.59 input  -60.55 | X-H torsion
[ 11005 11000 10999 10996 ] final  -69.54 input  -57.11 | X-H torsion

> <Gold.Protein.ActiveResidues>
 VAL166  LYS551  ARG553  GLY616  TRP617  ASP618  TYR619  PRO620  LYS621  CYS622 
 ASP623  PHE694  ASN695  SER759  ASP760  ASP761  ALA762  ILE779  LEU786  VAL792 
 PHE793  MET794  SER795  GLU796  ALA797  LYS798  CYS799  TRP800  GLU811  SER814 

> <Gold.Protein.RotatedAtoms>
  150.6887  134.2346  159.4447 H   0  0  0  0  0  0  0  0  0  0  0  0  # atno 6907 bound_to 6896
  152.0294  134.9774  160.0581 H   0  0  0  0  0  0  0  0  0  0  0  0  # atno 6908 bound_to 6896
  152.1319  133.4378  159.4762 H   0  0  0  0  0  0  0  0  0  0  0  0  # atno 6909 bound_to 6896
  144.7658  140.4300  143.5943 H   0  0  0  0  0  0  0  0  0  0  0  0  # atno 7974 bound_to 7965
  155.9289  140.3416  155.6233 H   0  0  0  0  0  0  0  0  0  0  0  0  # atno 8008 bound_to 7997
  155.7182  140.0780  157.2361 H   0  0  0  0  0  0  0  0  0  0  0  0  # atno 8009 bound_to 7997
  154.4082  140.1610  156.2359 H   0  0  0  0  0  0  0  0  0  0  0  0  # atno 8010 bound_to 7997
  140.7201  143.5320  150.9509 H   0  0  0  0  0  0  0  0  0  0  0  0  # atno 10167 bound_to 10162
  156.0251  130.5449  150.7196 H   0  0  0  0  0  0  0  0  0  0  0  0  # atno 10718 bound_to 10713
  153.8591  135.3069  155.3437 H   0  0  0  0  0  0  0  0  0  0  0  0  # atno 10763 bound_to 10752
  154.7857  135.4811  153.9943 H   0  0  0  0  0  0  0  0  0  0  0  0  # atno 10764 bound_to 10752
  153.1472  135.6836  153.9030 H   0  0  0  0  0  0  0  0  0  0  0  0  # atno 10765 bound_to 10752
  141.1556  133.6767  156.6614 H   0  0  0  0  0  0  0  0  0  0  0  0  # atno 11005 bound_to 11000
  145.6476  139.1559  143.2880 LP  0  0  0  0  0  0  0  0  0  0  0  0  # atno 17320 bound_to 7965
  146.1763  140.6567  142.9210 LP  0  0  0  0  0  0  0  0  0  0  0  0  # atno 17321 bound_to 7965
  139.9040  143.6801  152.3126 LP  0  0  0  0  0  0  0  0  0  0  0  0  # atno 17342 bound_to 10162
  139.7160  144.7611  151.1033 LP  0  0  0  0  0  0  0  0  0  0  0  0  # atno 17343 bound_to 10162
  157.4815  131.0903  151.0531 LP  0  0  0  0  0  0  0  0  0  0  0  0  # atno 17370 bound_to 10713
  157.0963  130.5963  149.5450 LP  0  0  0  0  0  0  0  0  0  0  0  0  # atno 17371 bound_to 10713
  140.3244  134.7981  157.4278 LP  0  0  0  0  0  0  0  0  0  0  0  0  # atno 17394 bound_to 11000
  140.1069  134.5397  155.8301 LP  0  0  0  0  0  0  0  0  0  0  0  0  # atno 17395 bound_to 11000

$$$$
