AV-unprocessed.smi:255|AV-procd|sdf|1949|dock3
  -GOLD-   2262021 83D 1   1.00000     0.00000
 Structure written by MMmdl.
 44 47  0  0  0  0  0  0  0  0  1 V2000
  151.8152  137.1762  154.3512 O   0  0  0  0  0  0  0  0  0  0  0  0
  150.6568  137.2712  155.1528 C   0  0  0  0  0  0  0  0  0  0  0  0
  149.5385  138.0193  154.4024 C   0  0  2  0  0  0  0  0  0  0  0  0
  149.7320  139.5363  154.3947 C   0  0  0  0  0  0  0  0  0  0  0  0
  148.3300  140.0238  154.0497 C   0  0  2  0  0  0  0  0  0  0  0  0
  148.1175  141.2827  154.4318 F   0  0  0  0  0  0  0  0  0  0  0  0
  147.4164  139.0270  154.7680 C   0  0  0  0  0  0  0  0  0  0  0  0
  148.2236  137.8332  155.0135 N   0  0  0  0  0  0  0  0  0  0  0  0
  147.6251  136.6560  154.7266 C   0  0  0  0  0  0  0  0  0  0  0  0
  148.0324  135.5142  155.3413 N   0  0  0  0  0  0  0  0  0  0  0  0
  147.4234  134.3564  155.0665 C   0  0  0  0  0  0  0  0  0  0  0  0
  146.4093  134.1241  154.2294 N   0  0  0  0  0  0  0  0  0  0  0  0
  146.0003  135.2711  153.6143 C   0  0  0  0  0  0  0  0  0  0  0  0
  146.5480  136.5696  153.8074 C   0  0  0  0  0  0  0  0  0  0  0  0
  145.8731  137.4959  153.0235 N   0  0  0  0  0  0  0  0  0  0  0  0
  144.9785  136.7828  152.3945 C   0  0  0  0  0  0  0  0  0  0  0  0
  144.9889  135.4362  152.6842 N   0  0  0  0  0  0  0  0  0  0  0  0
  144.1101  134.4198  152.1265 C   0  0  0  0  0  0  0  0  0  0  0  0
  144.6326  133.8190  150.8008 C   0  0  1  0  0  0  0  0  0  0  0  0
  144.8499  134.8696  149.8745 O   0  0  0  0  0  0  0  0  0  0  0  0
  145.9261  133.0213  150.9427 C   0  0  0  0  0  0  0  0  0  0  0  0
  145.7888  131.9573  149.8630 C   0  0  0  0  0  0  0  0  0  0  0  0
  144.4162  131.6136  149.9433 O   0  0  0  0  0  0  0  0  0  0  0  0
  143.6635  132.8020  150.1651 C   0  0  0  0  0  0  0  0  0  0  0  0
  149.5130  137.6869  153.3625 H   0  0  0  0  0  0  0  0  0  0  0  0
  148.1698  139.9723  152.9719 H   0  0  0  0  0  0  0  0  0  0  0  0
  151.5529  136.9599  153.4695 H   0  0  0  0  0  0  0  0  0  0  0  0
  150.3331  136.2813  155.4770 H   0  0  0  0  0  0  0  0  0  0  0  0
  150.9369  137.8251  156.0493 H   0  0  0  0  0  0  0  0  0  0  0  0
  150.0202  139.8889  155.3864 H   0  0  0  0  0  0  0  0  0  0  0  0
  150.4860  139.8682  153.6803 H   0  0  0  0  0  0  0  0  0  0  0  0
  147.1140  139.4241  155.7373 H   0  0  0  0  0  0  0  0  0  0  0  0
  146.5069  138.8358  154.1971 H   0  0  0  0  0  0  0  0  0  0  0  0
  147.8016  133.4929  155.5936 H   0  0  0  0  0  0  0  0  0  0  0  0
  144.2843  137.2211  151.6922 H   0  0  0  0  0  0  0  0  0  0  0  0
  143.9838  133.6324  152.8707 H   0  0  0  0  0  0  0  0  0  0  0  0
  143.1234  134.8613  151.9796 H   0  0  0  0  0  0  0  0  0  0  0  0
  145.4122  134.5495  149.1853 H   0  0  0  0  0  0  0  0  0  0  0  0
  146.8307  133.6233  150.8453 H   0  0  0  0  0  0  0  0  0  0  0  0
  145.9595  132.5259  151.9138 H   0  0  0  0  0  0  0  0  0  0  0  0
  146.0117  132.3660  148.8761 H   0  0  0  0  0  0  0  0  0  0  0  0
  146.4317  131.0940  150.0355 H   0  0  0  0  0  0  0  0  0  0  0  0
  142.8191  132.5705  150.8153 H   0  0  0  0  0  0  0  0  0  0  0  0
  143.2561  133.1584  149.2175 H   0  0  0  0  0  0  0  0  0  0  0  0
  1  2  1  0  0  0  0
  1 27  1  0  0  0  0
  2  3  1  0  0  0  0
  2 28  1  0  0  0  0
  2 29  1  0  0  0  0
  3 25  1  0  0  0  0
  3  8  1  0  0  0  0
  3  4  1  0  0  0  0
  4  5  1  0  0  0  0
  4 30  1  0  0  0  0
  4 31  1  0  0  0  0
  5 26  1  0  0  0  0
  5  6  1  0  0  0  0
  5  7  1  0  0  0  0
  7  8  1  0  0  0  0
  7 32  1  0  0  0  0
  7 33  1  0  0  0  0
  8  9  1  0  0  0  0
  9 14  1  0  0  0  0
  9 10  2  0  0  0  0
 10 11  1  0  0  0  0
 11 12  2  0  0  0  0
 11 34  1  0  0  0  0
 12 13  1  0  0  0  0
 13 17  1  0  0  0  0
 13 14  2  0  0  0  0
 14 15  1  0  0  0  0
 15 16  2  0  0  0  0
 16 17  1  0  0  0  0
 16 35  1  0  0  0  0
 17 18  1  0  0  0  0
 18 19  1  0  0  0  0
 18 36  1  0  0  0  0
 18 37  1  0  0  0  0
 19 24  1  0  0  0  0
 19 20  1  0  0  0  0
 19 21  1  0  0  0  0
 20 38  1  0  0  0  0
 21 22  1  0  0  0  0
 21 39  1  0  0  0  0
 21 40  1  0  0  0  0
 22 23  1  0  0  0  0
 22 41  1  0  0  0  0
 22 42  1  0  0  0  0
 23 24  1  0  0  0  0
 24 43  1  0  0  0  0
 24 44  1  0  0  0  0
M  END
> <s_m_source_file>
AV-unprocessed.smi

> <i_m_source_file_index>
255

> <i_lp_mmshare_version>
43012

> <i_f3d_flags>
0

> <s_epik_input>
W09IXVtDSDJdW0NAQEhdMVtDSDJdW0NASF0oRilbQ0gyXU4xYyhuW2NIXW4yKWMoYzIzKW5bY0hdbjNbQ0gyXVtDQEBdNChbT0hdKVtDSDJdW0NIMl1PW0NIMl00

> <s_epik_cmdline>
J2VwaWtfcHl0aG9uJywgJy1waCcsICc3LjAnLCAnLXRuJywgJzgnLCAnLW1hJywgJzIwMCcsICctbWV0YWxfYmluZGluZycsICctaW1hZScsICc8aW5maWxlLm1hZT4nLCAnLW9tYWUnLCAnPG91dGZpbGUubWFlPic=

> <r_lp_tautomer_probability>
1

> <r_epik_Ionization_Penalty>
0.0058098

> <r_epik_Ionization_Penalty_Charging>
0

> <r_epik_Ionization_Penalty_Neutral>
0.0058098

> <r_epik_State_Penalty>
0.00411166

> <r_epik_Charging_Adjusted_Penalty>
0.00411166

> <i_epik_Tot_Q>
0

> <i_epik_Tot_abs_Q>
0

> <r_epik_Metal_State_Penalty>
-0

> <b_epik_Metal_Only>
0

> <s_lp_Force_Field>
OPLS_2005

> <r_lp_Energy>
52.3254

> <b_lp_Chiralities_Consistent>
1

> <s_lp_Variant>
AV-unprocessed.smi:255-1

> <Gold.Version>
5.8.1

> <Gold.Id.Protein>
6NUR|6NUR_protein|mol2

> <Gold.PLP.Fitness>
41.1250

> <Gold.PLP.PLP>
-30.0298

> <Gold.PLP.part.hbond>
-4.0000

> <Gold.PLP.part.metal>
0.0000

> <Gold.PLP.part.buried>
-0.6938

> <Gold.PLP.part.nonpolar>
-26.1221

> <Gold.PLP.part.repulsive>
0.6241

> <Gold.PLP.ligand.clash>
0.0000

> <Gold.PLP.ligand.torsion>
1.0574

> <Gold.PLP.Chemscore.Hbond>
3.3754

> <Gold.PLP.Chemscore.CHOScore>
1.0000

> <Gold.PLP.Chemscore.Metal>
0.0000

> <Gold.Chemscore.Hbonds>
donor molecule, donor type, donor heavy atom, donor atom, acceptor molecule, acceptor atom, score
      L1  H     1    27       P1  7949  0.49
      L1  H    20    38       P1  7921  0.96
      P1  H 10752 10764       L1     1  0.45
      P1  H 10785 10796       L1    23  0.25
      L1  C    16    35       P1 10171  1.00

> <Gold.PLP.Chemscore.Internal.Correction>
0.0836

> <Gold.Rescore>
     Score         DG    S(hbond)    S(metal)    S(lipo)     H(rot)  DE(clash)    DE(int)     intcor
     11.15     -15.18       3.02        0.00      69.35       3.33       1.44       2.58       ----

> <Gold.Chemscore.Fitness>
11.1521

> <Gold.Chemscore.DG>
-15.1790

> <Gold.Chemscore.ZeroCoef>
-5.4800

> <Gold.Chemscore.Hbond>
3.0247

> <Gold.Chemscore.Metal>
0.0000

> <Gold.Chemscore.Lipo>
69.3530

> <Gold.Chemscore.Internal_Hbond>
0.0000

> <Gold.Chemscore.DEClash>
1.4443

> <Gold.Chemscore.DEInternal>
2.5825

> <Gold.Chemscore.Rot>
3.3273

> <Gold.Chemscore.Internal.Correction>
   9.000000E+99

> <Gold.Chemscore.Hbonds>
donor molecule, donor type, donor heavy atom, donor atom, acceptor molecule, acceptor atom, score
      L1  H     1    27       P1  7949  0.43
      L1  H    20    38       P1  7921  0.91
      P1  H 10752 10764       L1     1  0.02
      P1  H 10785 10796       L1    23  0.19

> <Gold.Chemscore.Hbond.Weighted>
-10.1026

> <Gold.Chemscore.Metal.Weighted>
-0.0000

> <Gold.Chemscore.Lipo.Weighted>
-8.1143

> <Gold.Chemscore.Internal_Hbond.Weighted>
0.0000

> <Gold.Chemscore.DEClash.Weighted>
1.4443

> <Gold.Chemscore.DEInternal.Weighted>
2.5825

> <Gold.Chemscore.Rot.Weighted>
8.5179

> <Gold.Chemscore.Internal.Correction.Weighted>
   9.000000E+99

> <Gold.Protein.RotatedTorsions>
[ 6907 6896 6895 6894 ] final  -58.50 input  -60.11 | X-H torsion
[ 7974 7965 7964 7962 ] final  151.31 input  175.53 | X-H torsion
[ 8008 7997 7996 7995 ] final  -46.85 input   59.86 | X-H torsion
[ 10167 10162 10161 10158 ] final   66.06 input  -65.29 | X-H torsion
[ 10718 10713 10712 10709 ] final   26.69 input   66.30 | X-H torsion
[ 10763 10752 10751 10750 ] final  -73.23 input  -60.55 | X-H torsion
[ 11005 11000 10999 10996 ] final   19.56 input  -57.11 | X-H torsion

> <Gold.Protein.ActiveResidues>
 VAL166  LYS551  ARG553  GLY616  TRP617  ASP618  TYR619  PRO620  LYS621  CYS622 
 ASP623  PHE694  ASN695  SER759  ASP760  ASP761  ALA762  ILE779  LEU786  VAL792 
 PHE793  MET794  SER795  GLU796  ALA797  LYS798  CYS799  TRP800  GLU811  SER814 

> <Gold.Protein.RotatedAtoms>
  150.8002  134.7090  159.6592 H   0  0  0  0  0  0  0  0  0  0  0  0  # atno 6907 bound_to 6896
  152.4118  134.6107  160.0034 H   0  0  0  0  0  0  0  0  0  0  0  0  # atno 6908 bound_to 6896
  151.6348  133.3292  159.3153 H   0  0  0  0  0  0  0  0  0  0  0  0  # atno 6909 bound_to 6896
  144.8302  139.6521  143.6062 H   0  0  0  0  0  0  0  0  0  0  0  0  # atno 7974 bound_to 7965
  154.4011  140.1361  156.4079 H   0  0  0  0  0  0  0  0  0  0  0  0  # atno 8008 bound_to 7997
  155.7761  140.3482  155.5252 H   0  0  0  0  0  0  0  0  0  0  0  0  # atno 8009 bound_to 7997
  155.8719  140.0973  157.1534 H   0  0  0  0  0  0  0  0  0  0  0  0  # atno 8010 bound_to 7997
  140.1045  144.4874  150.7016 H   0  0  0  0  0  0  0  0  0  0  0  0  # atno 10167 bound_to 10162
  157.2103  130.6931  149.6225 H   0  0  0  0  0  0  0  0  0  0  0  0  # atno 10718 bound_to 10713
  154.4567  135.5904  153.6228 H   0  0  0  0  0  0  0  0  0  0  0  0  # atno 10763 bound_to 10752
  152.9819  135.6034  154.3538 H   0  0  0  0  0  0  0  0  0  0  0  0  # atno 10764 bound_to 10752
  154.3405  135.2841  155.2404 H   0  0  0  0  0  0  0  0  0  0  0  0  # atno 10765 bound_to 10752
  140.4123  134.1605  155.7668 H   0  0  0  0  0  0  0  0  0  0  0  0  # atno 11005 bound_to 11000
  146.2605  139.6399  142.9365 LP  0  0  0  0  0  0  0  0  0  0  0  0  # atno 17320 bound_to 7965
  145.4913  141.0438  143.2591 LP  0  0  0  0  0  0  0  0  0  0  0  0  # atno 17321 bound_to 7965
  140.6960  143.2404  151.5000 LP  0  0  0  0  0  0  0  0  0  0  0  0  # atno 17342 bound_to 10162
  139.5653  144.2058  152.1755 LP  0  0  0  0  0  0  0  0  0  0  0  0  # atno 17343 bound_to 10162
  155.9691  130.4553  150.5884 LP  0  0  0  0  0  0  0  0  0  0  0  0  # atno 17370 bound_to 10713
  157.3679  131.0761  151.1582 LP  0  0  0  0  0  0  0  0  0  0  0  0  # atno 17371 bound_to 10713
  141.1816  133.8401  157.1237 LP  0  0  0  0  0  0  0  0  0  0  0  0  # atno 17394 bound_to 11000
  140.0258  134.9924  157.0684 LP  0  0  0  0  0  0  0  0  0  0  0  0  # atno 17395 bound_to 11000

$$$$
