AV-unprocessed.smi:406|AV-procd|sdf|2500|dock3
  -GOLD-   2262022443D 1   1.00000     0.00000
 Structure written by MMmdl.
 34 35  0  0  0  0  0  0  0  0  2 V2000
  149.3564  132.1869  154.4240 C   0  0  0  0  0  0  0  0  0  0  0  0
  149.4451  133.6217  153.8935 C   0  0  0  0  0  0  0  0  0  0  0  0
  149.8915  134.6196  154.9736 C   0  0  0  0  0  0  0  0  0  0  0  0
  150.1468  135.9401  154.4127 N   0  0  0  0  0  0  0  0  0  0  0  0
  151.0971  136.7933  154.8290 C   0  0  0  0  0  0  0  0  0  0  0  0
  151.8537  136.5566  155.7707 O   0  0  0  0  0  0  0  0  0  0  0  0
  151.2083  138.1211  154.0736 C   0  0  0  0  0  0  0  0  0  0  0  0
  151.0033  139.2738  155.0136 C   0  0  0  0  0  0  0  0  0  0  0  0
  149.9649  140.1689  155.0115 C   0  0  0  0  0  0  0  0  0  0  0  0
  150.0946  141.3060  156.3226 S   0  0  0  0  0  0  0  0  0  0  0  0
  151.5778  140.5111  156.8524 C   0  0  0  0  0  0  0  0  0  0  0  0
  152.2943  140.8689  157.9332 N   0  5  0  0  0  0  0  0  0  0  0  0
  151.8918  141.8222  158.8196 C   0  0  0  0  0  0  0  0  0  0  0  0
  150.7245  142.1522  159.0223 O   0  0  0  0  0  0  0  0  0  0  0  0
  152.9990  142.5278  159.5522 C   0  0  0  0  0  0  0  0  0  0  0  0
  153.0889  142.3533  161.0557 C   0  0  0  0  0  0  0  0  0  0  0  0
  152.6152  143.6627  160.4824 C   0  0  0  0  0  0  0  0  0  0  0  0
  151.9248  139.5082  156.0377 N   0  0  0  0  0  0  0  0  0  0  0  0
  149.0398  131.5009  153.6382 H   0  0  0  0  0  0  0  0  0  0  0  0
  148.6369  132.1136  155.2400 H   0  0  0  0  0  0  0  0  0  0  0  0
  150.3223  131.8446  154.7961 H   0  0  0  0  0  0  0  0  0  0  0  0
  150.1421  133.6524  153.0551 H   0  0  0  0  0  0  0  0  0  0  0  0
  148.4724  133.9153  153.4969 H   0  0  0  0  0  0  0  0  0  0  0  0
  149.1450  134.6876  155.7668 H   0  0  0  0  0  0  0  0  0  0  0  0
  150.8124  134.2720  155.4429 H   0  0  0  0  0  0  0  0  0  0  0  0
  149.5758  136.2201  153.6273 H   0  0  0  0  0  0  0  0  0  0  0  0
  152.1869  138.1766  153.5952 H   0  0  0  0  0  0  0  0  0  0  0  0
  150.4700  138.1464  153.2712 H   0  0  0  0  0  0  0  0  0  0  0  0
  149.1273  140.2186  154.3323 H   0  0  0  0  0  0  0  0  0  0  0  0
  153.9232  142.6709  158.9949 H   0  0  0  0  0  0  0  0  0  0  0  0
  152.3470  141.7237  161.5434 H   0  0  0  0  0  0  0  0  0  0  0  0
  154.0882  142.3051  161.4832 H   0  0  0  0  0  0  0  0  0  0  0  0
  153.2913  144.5139  160.5268 H   0  0  0  0  0  0  0  0  0  0  0  0
  151.5612  143.9051  160.6067 H   0  0  0  0  0  0  0  0  0  0  0  0
  1  2  1  0  0  0  0
  1 19  1  0  0  0  0
  1 20  1  0  0  0  0
  1 21  1  0  0  0  0
  2  3  1  0  0  0  0
  2 22  1  0  0  0  0
  2 23  1  0  0  0  0
  3  4  1  0  0  0  0
  3 24  1  0  0  0  0
  3 25  1  0  0  0  0
  4  5  1  0  0  0  0
  4 26  1  0  0  0  0
  5  6  2  0  0  0  0
  5  7  1  0  0  0  0
  7  8  1  0  0  0  0
  7 27  1  0  0  0  0
  7 28  1  0  0  0  0
  8 18  1  0  0  0  0
  8  9  2  0  0  0  0
  9 10  1  0  0  0  0
  9 29  1  0  0  0  0
 10 11  1  0  0  0  0
 11 12  1  0  0  0  0
 11 18  2  0  0  0  0
 12 13  1  0  0  0  0
 13 14  2  0  0  0  0
 13 15  1  0  0  0  0
 15 17  1  0  0  0  0
 15 16  1  0  0  0  0
 15 30  1  0  0  0  0
 16 17  1  0  0  0  0
 16 31  1  0  0  0  0
 16 32  1  0  0  0  0
 17 33  1  0  0  0  0
 17 34  1  0  0  0  0
M  CHG  1  12  -1
M  END
> <s_m_source_file>
AV-unprocessed.smi

> <i_m_source_file_index>
406

> <i_lp_mmshare_version>
43012

> <i_f3d_flags>
0

> <s_epik_input>
W0NIM11bQ0gyXVtDSDJdW05IXUMoPU8pW0NIMl1jMVtjSF1zYyhuMSlbTkhdQyg9TylbQ0hdMltDSDJdW0NIMl0y

> <s_epik_cmdline>
J2VwaWtfcHl0aG9uJywgJy1waCcsICc3LjAnLCAnLXRuJywgJzgnLCAnLW1hJywgJzIwMCcsICctbWV0YWxfYmluZGluZycsICctaW1hZScsICc8aW5maWxlLm1hZT4nLCAnLW9tYWUnLCAnPG91dGZpbGUubWFlPic=

> <r_lp_tautomer_probability>
1

> <r_epik_Ionization_Penalty>
5.51776

> <r_epik_Ionization_Penalty_Charging>
5.00105

> <r_epik_Ionization_Penalty_Neutral>
0.516708

> <r_epik_State_Penalty>
5.00092

> <r_epik_Charging_Adjusted_Penalty>
10.002

> <i_epik_Tot_Q>
-1

> <i_epik_Tot_abs_Q>
1

> <r_epik_Metal_State_Penalty>
1.12078

> <b_epik_Metal_Only>
1

> <s_lp_Force_Field>
OPLS_2005

> <r_lp_Energy>
6.22345

> <b_lp_Chiralities_Consistent>
1

> <s_lp_Variant>
AV-unprocessed.smi:406-2

> <Gold.Version>
5.8.1

> <Gold.Id.Protein>
6NUR|6NUR_protein|mol2

> <Gold.PLP.Fitness>
44.6481

> <Gold.PLP.PLP>
-39.3118

> <Gold.PLP.part.hbond>
-3.7728

> <Gold.PLP.part.metal>
0.0000

> <Gold.PLP.part.buried>
-4.0747

> <Gold.PLP.part.nonpolar>
-31.7943

> <Gold.PLP.part.repulsive>
0.1176

> <Gold.PLP.ligand.clash>
0.0000

> <Gold.PLP.ligand.torsion>
0.4142

> <Gold.PLP.Chemscore.Hbond>
2.0000

> <Gold.PLP.Chemscore.CHOScore>
0.0000

> <Gold.PLP.Chemscore.Metal>
0.0000

> <Gold.Chemscore.Hbonds>
donor molecule, donor type, donor heavy atom, donor atom, acceptor molecule, acceptor atom, score
      L1  H     4    26       P1  7948  1.00
      P1  H 10752 10763       L1     6  0.95

> <Gold.PLP.Chemscore.Internal.Correction>
0.1647

> <Gold.Rescore>
     Score         DG    S(hbond)    S(metal)    S(lipo)     H(rot)  DE(clash)    DE(int)     intcor
     14.08     -15.72       1.67        0.00      80.30       1.85       0.02       1.62       ----

> <Gold.Chemscore.Fitness>
14.0820

> <Gold.Chemscore.DG>
-15.7207

> <Gold.Chemscore.ZeroCoef>
-5.4800

> <Gold.Chemscore.Hbond>
1.6694

> <Gold.Chemscore.Metal>
0.0000

> <Gold.Chemscore.Lipo>
80.3026

> <Gold.Chemscore.Internal_Hbond>
0.0000

> <Gold.Chemscore.DEClash>
0.0160

> <Gold.Chemscore.DEInternal>
1.6227

> <Gold.Chemscore.Rot>
1.8478

> <Gold.Chemscore.Internal.Correction>
   9.000000E+99

> <Gold.Chemscore.Hbonds>
donor molecule, donor type, donor heavy atom, donor atom, acceptor molecule, acceptor atom, score
      L1  H     4    26       P1  7948  0.49
      P1  H 10752 10763       L1     6  0.22

> <Gold.Chemscore.Hbond.Weighted>
-5.5758

> <Gold.Chemscore.Metal.Weighted>
-0.0000

> <Gold.Chemscore.Lipo.Weighted>
-9.3954

> <Gold.Chemscore.Internal_Hbond.Weighted>
0.0000

> <Gold.Chemscore.DEClash.Weighted>
0.0160

> <Gold.Chemscore.DEInternal.Weighted>
1.6227

> <Gold.Chemscore.Rot.Weighted>
4.7305

> <Gold.Chemscore.Internal.Correction.Weighted>
   9.000000E+99

> <Gold.Protein.RotatedTorsions>
[ 6907 6896 6895 6894 ] final   73.42 input  -60.11 | X-H torsion
[ 7974 7965 7964 7962 ] final   69.64 input  175.53 | X-H torsion
[ 8008 7997 7996 7995 ] final  -48.17 input   59.86 | X-H torsion
[ 10167 10162 10161 10158 ] final  -66.74 input  -65.29 | X-H torsion
[ 10718 10713 10712 10709 ] final   84.47 input   66.30 | X-H torsion
[ 10763 10752 10751 10750 ] final   80.34 input  -60.55 | X-H torsion
[ 11005 11000 10999 10996 ] final   73.11 input  -57.11 | X-H torsion

> <Gold.Protein.ActiveResidues>
 VAL166  LYS551  ARG553  GLY616  TRP617  ASP618  TYR619  PRO620  LYS621  CYS622 
 ASP623  PHE694  ASN695  SER759  ASP760  ASP761  ALA762  ILE779  LEU786  VAL792 
 PHE793  MET794  SER795  GLU796  ALA797  LYS798  CYS799  TRP800  GLU811  SER814 

> <Gold.Protein.RotatedAtoms>
  152.4922  134.4424  159.9547 H   0  0  0  0  0  0  0  0  0  0  0  0  # atno 6907 bound_to 6896
  151.4409  133.3637  159.2789 H   0  0  0  0  0  0  0  0  0  0  0  0  # atno 6908 bound_to 6896
  150.9088  134.8528  159.7471 H   0  0  0  0  0  0  0  0  0  0  0  0  # atno 6909 bound_to 6896
  145.7880  139.2920  143.1227 H   0  0  0  0  0  0  0  0  0  0  0  0  # atno 7974 bound_to 7965
  154.4025  140.1328  156.4295 H   0  0  0  0  0  0  0  0  0  0  0  0  # atno 8008 bound_to 7997
  155.7565  140.3487  155.5156 H   0  0  0  0  0  0  0  0  0  0  0  0  # atno 8009 bound_to 7997
  155.8900  140.1001  157.1416 H   0  0  0  0  0  0  0  0  0  0  0  0  # atno 8010 bound_to 7997
  140.5634  143.2313  151.6682 H   0  0  0  0  0  0  0  0  0  0  0  0  # atno 10167 bound_to 10162
  157.6898  131.0134  150.2677 H   0  0  0  0  0  0  0  0  0  0  0  0  # atno 10718 bound_to 10713
  153.1026  135.4806  154.8894 H   0  0  0  0  0  0  0  0  0  0  0  0  # atno 10763 bound_to 10752
  154.7395  135.3079  154.8755 H   0  0  0  0  0  0  0  0  0  0  0  0  # atno 10764 bound_to 10752
  153.9367  135.6838  153.4798 H   0  0  0  0  0  0  0  0  0  0  0  0  # atno 10765 bound_to 10752
  139.9456  134.7319  156.0987 H   0  0  0  0  0  0  0  0  0  0  0  0  # atno 11005 bound_to 11000
  146.0006  140.8523  143.0020 LP  0  0  0  0  0  0  0  0  0  0  0  0  # atno 17320 bound_to 7965
  144.6786  140.2347  143.7351 LP  0  0  0  0  0  0  0  0  0  0  0  0  # atno 17321 bound_to 7965
  139.5081  144.3622  152.0551 LP  0  0  0  0  0  0  0  0  0  0  0  0  # atno 17342 bound_to 10162
  140.2751  144.3921  150.6138 LP  0  0  0  0  0  0  0  0  0  0  0  0  # atno 17343 bound_to 10162
  156.3245  130.3791  149.7545 LP  0  0  0  0  0  0  0  0  0  0  0  0  # atno 17370 bound_to 10713
  156.5105  130.8170  151.3167 LP  0  0  0  0  0  0  0  0  0  0  0  0  # atno 17371 bound_to 10713
  141.1105  133.6645  156.2968 LP  0  0  0  0  0  0  0  0  0  0  0  0  # atno 17394 bound_to 11000
  140.5842  134.5715  157.5486 LP  0  0  0  0  0  0  0  0  0  0  0  0  # atno 17395 bound_to 11000

$$$$
