AV-unprocessed.smi:2061|AV-procd|sdf|8360|dock4
  -GOLD-   2272011 33D 1   1.00000     0.00000
 Structure written by MMmdl.
 45 46  0  0  0  0  0  0  0  0  1 V2000
  149.4719  131.5314  154.6266 C   0  0  0  0  0  0  0  0  0  0  0  0
  149.9137  132.7231  155.4047 C   0  0  0  0  0  0  0  0  0  0  0  0
  149.8811  134.0657  155.1509 C   0  0  0  0  0  0  0  0  0  0  0  0
  150.4659  134.6262  156.3177 C   0  0  0  0  0  0  0  0  0  0  0  0
  150.6206  136.0298  156.4526 N   0  0  0  0  0  0  0  0  0  0  0  0
  151.3341  136.6893  157.3814 C   0  0  0  0  0  0  0  0  0  0  0  0
  151.9842  136.1581  158.2821 O   0  0  0  0  0  0  0  0  0  0  0  0
  151.2561  138.0169  157.2032 N   0  0  0  0  0  0  0  0  0  0  0  0
  151.9138  139.0252  158.0325 C   0  0  0  0  0  0  0  0  0  0  0  0
  151.5055  140.4800  157.6641 C   0  0  2  0  0  0  0  0  0  0  0  0
  151.5412  140.6433  156.1230 C   0  0  0  0  0  0  0  0  0  0  0  0
  152.3128  141.5046  158.3683 N   0  0  0  0  0  0  0  0  0  0  0  0
  152.4725  141.2190  159.7985 C   0  0  0  0  0  0  0  0  0  0  0  0
  153.2943  142.2920  160.5389 C   0  0  2  0  0  0  0  0  0  0  0  0
  153.3779  142.0211  162.0447 C   0  0  0  0  0  0  0  0  0  0  0  0
  152.6843  143.5624  160.3499 O   0  0  0  0  0  0  0  0  0  0  0  0
  152.5831  143.9210  158.9781 C   0  0  2  0  0  0  0  0  0  0  0  0
  151.9498  145.3137  158.8900 C   0  0  0  0  0  0  0  0  0  0  0  0
  151.7533  142.8545  158.2386 C   0  0  0  0  0  0  0  0  0  0  0  0
  150.8223  133.7088  157.2036 N   0  0  0  0  0  0  0  0  0  0  0  0
  150.4702  132.4847  156.6232 O   0  0  0  0  0  0  0  0  0  0  0  0
  149.0816  131.8248  153.6520 H   0  0  0  0  0  0  0  0  0  0  0  0
  148.6863  130.9934  155.1572 H   0  0  0  0  0  0  0  0  0  0  0  0
  150.3032  130.8449  154.4655 H   0  0  0  0  0  0  0  0  0  0  0  0
  149.5006  134.5632  154.2712 H   0  0  0  0  0  0  0  0  0  0  0  0
  150.1371  136.5911  155.7677 H   0  0  0  0  0  0  0  0  0  0  0  0
  150.6996  138.3599  156.4341 H   0  0  0  0  0  0  0  0  0  0  0  0
  151.6156  138.7777  159.0495 H   0  0  0  0  0  0  0  0  0  0  0  0
  153.0001  138.9259  157.9995 H   0  0  0  0  0  0  0  0  0  0  0  0
  150.4656  140.6046  157.9704 H   0  0  0  0  0  0  0  0  0  0  0  0
  150.9680  139.8725  155.6098 H   0  0  0  0  0  0  0  0  0  0  0  0
  152.5633  140.5981  155.7456 H   0  0  0  0  0  0  0  0  0  0  0  0
  151.1001  141.5828  155.7934 H   0  0  0  0  0  0  0  0  0  0  0  0
  151.4913  141.1236  160.2663 H   0  0  0  0  0  0  0  0  0  0  0  0
  152.9877  140.2720  159.9451 H   0  0  0  0  0  0  0  0  0  0  0  0
  154.3069  142.3205  160.1326 H   0  0  0  0  0  0  0  0  0  0  0  0
  153.8543  141.0611  162.2450 H   0  0  0  0  0  0  0  0  0  0  0  0
  152.3866  142.0047  162.4986 H   0  0  0  0  0  0  0  0  0  0  0  0
  153.9619  142.7926  162.5471 H   0  0  0  0  0  0  0  0  0  0  0  0
  153.5853  143.9669  158.5480 H   0  0  0  0  0  0  0  0  0  0  0  0
  151.8618  145.6396  157.8533 H   0  0  0  0  0  0  0  0  0  0  0  0
  152.5544  146.0507  159.4189 H   0  0  0  0  0  0  0  0  0  0  0  0
  150.9524  145.3232  159.3301 H   0  0  0  0  0  0  0  0  0  0  0  0
  151.7146  143.1535  157.1930 H   0  0  0  0  0  0  0  0  0  0  0  0
  150.7276  142.8655  158.6107 H   0  0  0  0  0  0  0  0  0  0  0  0
  1  2  1  0  0  0  0
  1 22  1  0  0  0  0
  1 23  1  0  0  0  0
  1 24  1  0  0  0  0
  2 21  1  0  0  0  0
  2  3  2  0  0  0  0
  3  4  1  0  0  0  0
  3 25  1  0  0  0  0
  4  5  1  0  0  0  0
  4 20  2  0  0  0  0
  5  6  1  0  0  0  0
  5 26  1  0  0  0  0
  6  7  2  0  0  0  0
  6  8  1  0  0  0  0
  8  9  1  0  0  0  0
  8 27  1  0  0  0  0
  9 10  1  0  0  0  0
  9 28  1  0  0  0  0
  9 29  1  0  0  0  0
 10 11  1  0  0  0  0
 10 12  1  0  0  0  0
 10 30  1  0  0  0  0
 11 31  1  0  0  0  0
 11 32  1  0  0  0  0
 11 33  1  0  0  0  0
 12 19  1  0  0  0  0
 12 13  1  0  0  0  0
 13 14  1  0  0  0  0
 13 34  1  0  0  0  0
 13 35  1  0  0  0  0
 14 15  1  0  0  0  0
 14 16  1  0  0  0  0
 14 36  1  0  0  0  0
 15 37  1  0  0  0  0
 15 38  1  0  0  0  0
 15 39  1  0  0  0  0
 16 17  1  0  0  0  0
 17 18  1  0  0  0  0
 17 19  1  0  0  0  0
 17 40  1  0  0  0  0
 18 41  1  0  0  0  0
 18 42  1  0  0  0  0
 18 43  1  0  0  0  0
 19 44  1  0  0  0  0
 19 45  1  0  0  0  0
 20 21  1  0  0  0  0
M  END
> <s_m_source_file>
AV-unprocessed.smi

> <i_m_source_file_index>
2061

> <i_lp_mmshare_version>
43012

> <i_f3d_flags>
0

> <s_epik_input>
W0NIM11jMVtjSF1jKG5vMSlbTkhdQyg9TylbTkhdW0NIMl1bQ0BIXShbQ0gzXSlOMltDSDJdW0NAQEhdKFtDSDNdKU9bQ0BASF0oW0NIM10pW0NIMl0y

> <s_epik_cmdline>
J2VwaWtfcHl0aG9uJywgJy1waCcsICc3LjAnLCAnLXRuJywgJzgnLCAnLW1hJywgJzIwMCcsICctbWV0YWxfYmluZGluZycsICctaW1hZScsICc8aW5maWxlLm1hZT4nLCAnLW9tYWUnLCAnPG91dGZpbGUubWFlPic=

> <r_epik_Ionization_Penalty>
0.214073

> <r_epik_Ionization_Penalty_Charging>
0

> <r_epik_Ionization_Penalty_Neutral>
0.214073

> <r_epik_State_Penalty>
0.204211

> <r_epik_Charging_Adjusted_Penalty>
0.204211

> <i_epik_Tot_Q>
0

> <i_epik_Tot_abs_Q>
0

> <r_epik_Metal_State_Penalty>
0.217067

> <b_epik_Metal_Only>
0

> <s_lp_Force_Field>
OPLS_2005

> <r_lp_Energy>
26.137

> <b_lp_Chiralities_Consistent>
1

> <s_lp_Variant>
AV-unprocessed.smi:2061-1

> <Gold.Version>
5.8.1

> <Gold.Id.Protein>
6NUR|6NUR_protein|mol2

> <Gold.PLP.Fitness>
42.4422

> <Gold.PLP.PLP>
-39.8570

> <Gold.PLP.part.hbond>
-2.0000

> <Gold.PLP.part.metal>
0.0000

> <Gold.PLP.part.buried>
-6.1730

> <Gold.PLP.part.nonpolar>
-32.6742

> <Gold.PLP.part.repulsive>
0.1628

> <Gold.PLP.ligand.clash>
0.0000

> <Gold.PLP.ligand.torsion>
0.2429

> <Gold.PLP.Chemscore.Hbond>
1.0041

> <Gold.PLP.Chemscore.CHOScore>
0.0000

> <Gold.PLP.Chemscore.Metal>
0.0000

> <Gold.Chemscore.Hbonds>
donor molecule, donor type, donor heavy atom, donor atom, acceptor molecule, acceptor atom, score
      P1  H  6896  6907       L1    20  0.70
      P1  H  6896  6908       L1     7  0.35

> <Gold.PLP.Chemscore.Internal.Correction>
0.0586

> <Gold.Rescore>
     Score         DG    S(hbond)    S(metal)    S(lipo)     H(rot)  DE(clash)    DE(int)     intcor
     16.06     -17.51       1.38        0.00      97.22       1.55       0.02       1.44       ----

> <Gold.Chemscore.Fitness>
16.0561

> <Gold.Chemscore.DG>
-17.5136

> <Gold.Chemscore.ZeroCoef>
-5.4800

> <Gold.Chemscore.Hbond>
1.3834

> <Gold.Chemscore.Metal>
0.0000

> <Gold.Chemscore.Lipo>
97.2154

> <Gold.Chemscore.Internal_Hbond>
0.0000

> <Gold.Chemscore.DEClash>
0.0172

> <Gold.Chemscore.DEInternal>
1.4402

> <Gold.Chemscore.Rot>
1.5474

> <Gold.Chemscore.Internal.Correction>
   9.000000E+99

> <Gold.Chemscore.Hbonds>
donor molecule, donor type, donor heavy atom, donor atom, acceptor molecule, acceptor atom, score
      P1  H  6896  6907       L1    20  0.57
      P1  H  6896  6908       L1     7  0.32

> <Gold.Chemscore.Hbond.Weighted>
-4.6206

> <Gold.Chemscore.Metal.Weighted>
-0.0000

> <Gold.Chemscore.Lipo.Weighted>
-11.3742

> <Gold.Chemscore.Internal_Hbond.Weighted>
0.0000

> <Gold.Chemscore.DEClash.Weighted>
0.0172

> <Gold.Chemscore.DEInternal.Weighted>
1.4402

> <Gold.Chemscore.Rot.Weighted>
3.9612

> <Gold.Chemscore.Internal.Correction.Weighted>
   9.000000E+99

> <Gold.Protein.RotatedTorsions>
[ 6907 6896 6895 6894 ] final -136.45 input  -60.11 | X-H torsion
[ 7974 7965 7964 7962 ] final -163.99 input  175.53 | X-H torsion
[ 8008 7997 7996 7995 ] final  -67.66 input   59.86 | X-H torsion
[ 10167 10162 10161 10158 ] final   16.46 input  -65.29 | X-H torsion
[ 10718 10713 10712 10709 ] final   15.32 input   66.30 | X-H torsion
[ 10763 10752 10751 10750 ] final   77.01 input  -60.55 | X-H torsion
[ 11005 11000 10999 10996 ] final  -95.48 input  -57.11 | X-H torsion

> <Gold.Protein.ActiveResidues>
 VAL166  LYS551  ARG553  GLY616  TRP617  ASP618  TYR619  PRO620  LYS621  CYS622 
 ASP623  PHE694  ASN695  SER759  ASP760  ASP761  ALA762  ILE779  LEU786  VAL792 
 PHE793  MET794  SER795  GLU796  ALA797  LYS798  CYS799  TRP800  GLU811  SER814 

> <Gold.Protein.RotatedAtoms>
  151.0102  133.5972  159.2683 H   0  0  0  0  0  0  0  0  0  0  0  0  # atno 6907 bound_to 6896
  151.3126  135.0797  159.9287 H   0  0  0  0  0  0  0  0  0  0  0  0  # atno 6908 bound_to 6896
  152.5297  133.9764  159.7840 H   0  0  0  0  0  0  0  0  0  0  0  0  # atno 6909 bound_to 6896
  144.7309  140.3026  143.6202 H   0  0  0  0  0  0  0  0  0  0  0  0  # atno 7974 bound_to 7965
  154.4815  140.0888  156.7387 H   0  0  0  0  0  0  0  0  0  0  0  0  # atno 8008 bound_to 7997
  155.4459  140.3455  155.4277 H   0  0  0  0  0  0  0  0  0  0  0  0  # atno 8009 bound_to 7997
  156.1198  140.1471  156.9209 H   0  0  0  0  0  0  0  0  0  0  0  0  # atno 8010 bound_to 7997
  140.5795  143.9007  150.6778 H   0  0  0  0  0  0  0  0  0  0  0  0  # atno 10167 bound_to 10162
  157.0518  130.6273  149.5769 H   0  0  0  0  0  0  0  0  0  0  0  0  # atno 10718 bound_to 10713
  153.0767  135.4930  154.8418 H   0  0  0  0  0  0  0  0  0  0  0  0  # atno 10763 bound_to 10752
  154.7096  135.3017  154.9219 H   0  0  0  0  0  0  0  0  0  0  0  0  # atno 10764 bound_to 10752
  153.9917  135.6777  153.4807 H   0  0  0  0  0  0  0  0  0  0  0  0  # atno 10765 bound_to 10752
  141.1440  133.8029  157.0440 H   0  0  0  0  0  0  0  0  0  0  0  0  # atno 11005 bound_to 11000
  145.7745  139.1869  143.2193 LP  0  0  0  0  0  0  0  0  0  0  0  0  # atno 17320 bound_to 7965
  146.0884  140.7684  142.9607 LP  0  0  0  0  0  0  0  0  0  0  0  0  # atno 17321 bound_to 7965
  140.2503  143.3598  152.1411 LP  0  0  0  0  0  0  0  0  0  0  0  0  # atno 17342 bound_to 10162
  139.5162  144.6974  151.5592 LP  0  0  0  0  0  0  0  0  0  0  0  0  # atno 17343 bound_to 10162
  156.0005  130.5083  150.7645 LP  0  0  0  0  0  0  0  0  0  0  0  0  # atno 17370 bound_to 10713
  157.5024  131.0919  151.0298 LP  0  0  0  0  0  0  0  0  0  0  0  0  # atno 17371 bound_to 10713
  140.0674  134.9721  157.1409 LP  0  0  0  0  0  0  0  0  0  0  0  0  # atno 17394 bound_to 11000
  140.3760  134.2339  155.7174 LP  0  0  0  0  0  0  0  0  0  0  0  0  # atno 17395 bound_to 11000

$$$$
