AV-unprocessed.smi:2032|AV-procd|sdf|8248|dock6
  -GOLD-   2272010513D 1   1.00000     0.00000
 Structure written by MMmdl.
 41 42  0  0  0  0  0  0  0  0  2 V2000
  152.7428  138.6860  154.8215 C   0  0  0  0  0  0  0  0  0  0  0  0
  151.4271  139.3475  155.2446 C   0  0  1  0  0  0  0  0  0  0  0  0
  150.2584  138.3444  155.2869 C   0  0  0  0  0  0  0  0  0  0  0  0
  149.0066  138.9462  155.7582 N   0  0  0  0  0  0  0  0  0  0  0  0
  147.8887  137.9746  155.8186 C   0  0  1  0  0  0  0  0  0  0  0  0
  147.5161  137.4062  154.4253 C   0  0  0  0  0  0  0  0  0  0  0  0
  148.1538  136.7896  156.7936 C   0  0  0  0  0  0  0  0  0  0  0  0
  147.7561  137.0635  158.1727 N   0  0  0  0  0  0  0  0  0  0  0  0
  148.5342  136.9394  159.2575 C   0  0  0  0  0  0  0  0  0  0  0  0
  149.6995  136.5539  159.1387 O   0  0  0  0  0  0  0  0  0  0  0  0
  147.9133  137.2747  160.4114 N   0  5  0  0  0  0  0  0  0  0  0  0
  147.3415  136.3253  161.1699 C   0  0  0  0  0  0  0  0  0  0  0  0
  146.6217  135.3193  160.6596 N   0  0  0  0  0  0  0  0  0  0  0  0
  146.1096  134.4554  161.6294 C   0  0  0  0  0  0  0  0  0  0  0  0
  146.4398  134.8168  162.9085 C   0  0  0  0  0  0  0  0  0  0  0  0
  147.4113  136.2611  162.9333 S   0  0  0  0  0  0  0  0  0  0  0  0
  149.2712  139.5765  157.0561 C   0  0  0  0  0  0  0  0  0  0  0  0
  150.4429  140.5759  157.0121 C   0  0  1  0  0  0  0  0  0  0  0  0
  150.7553  141.1614  158.3933 C   0  0  0  0  0  0  0  0  0  0  0  0
  151.6069  139.9115  156.5373 O   0  0  0  0  0  0  0  0  0  0  0  0
  152.6589  138.2480  153.8267 H   0  0  0  0  0  0  0  0  0  0  0  0
  153.0264  137.8928  155.5138 H   0  0  0  0  0  0  0  0  0  0  0  0
  153.5545  139.4134  154.7967 H   0  0  0  0  0  0  0  0  0  0  0  0
  151.1960  140.1470  154.5384 H   0  0  0  0  0  0  0  0  0  0  0  0
  150.1402  137.9570  154.2770 H   0  0  0  0  0  0  0  0  0  0  0  0
  150.5233  137.4984  155.9232 H   0  0  0  0  0  0  0  0  0  0  0  0
  147.0093  138.5032  156.1894 H   0  0  0  0  0  0  0  0  0  0  0  0
  146.7225  136.6619  154.4777 H   0  0  0  0  0  0  0  0  0  0  0  0
  148.3766  136.9347  153.9500 H   0  0  0  0  0  0  0  0  0  0  0  0
  147.1360  138.1731  153.7524 H   0  0  0  0  0  0  0  0  0  0  0  0
  147.6124  135.9049  156.4573 H   0  0  0  0  0  0  0  0  0  0  0  0
  149.2070  136.5134  156.8233 H   0  0  0  0  0  0  0  0  0  0  0  0
  146.8095  137.3818  158.3180 H   0  0  0  0  0  0  0  0  0  0  0  0
  145.5168  133.6077  161.3191 H   0  0  0  0  0  0  0  0  0  0  0  0
  146.1721  134.3263  163.8323 H   0  0  0  0  0  0  0  0  0  0  0  0
  148.3969  140.1261  157.3997 H   0  0  0  0  0  0  0  0  0  0  0  0
  149.4753  138.8076  157.8029 H   0  0  0  0  0  0  0  0  0  0  0  0
  150.1990  141.3946  156.3326 H   0  0  0  0  0  0  0  0  0  0  0  0
  149.8933  141.6910  158.7997 H   0  0  0  0  0  0  0  0  0  0  0  0
  151.5839  141.8679  158.3384 H   0  0  0  0  0  0  0  0  0  0  0  0
  151.0316  140.3785  159.1004 H   0  0  0  0  0  0  0  0  0  0  0  0
  1  2  1  0  0  0  0
  1 21  1  0  0  0  0
  1 22  1  0  0  0  0
  1 23  1  0  0  0  0
  2 20  1  0  0  0  0
  2  3  1  0  0  0  0
  2 24  1  0  0  0  0
  3  4  1  0  0  0  0
  3 25  1  0  0  0  0
  3 26  1  0  0  0  0
  4  5  1  0  0  0  0
  4 17  1  0  0  0  0
  5  6  1  0  0  0  0
  5  7  1  0  0  0  0
  5 27  1  0  0  0  0
  6 28  1  0  0  0  0
  6 29  1  0  0  0  0
  6 30  1  0  0  0  0
  7  8  1  0  0  0  0
  7 31  1  0  0  0  0
  7 32  1  0  0  0  0
  8  9  1  0  0  0  0
  8 33  1  0  0  0  0
  9 10  2  0  0  0  0
  9 11  1  0  0  0  0
 11 12  1  0  0  0  0
 12 16  1  0  0  0  0
 12 13  2  0  0  0  0
 13 14  1  0  0  0  0
 14 15  2  0  0  0  0
 14 34  1  0  0  0  0
 15 16  1  0  0  0  0
 15 35  1  0  0  0  0
 17 18  1  0  0  0  0
 17 36  1  0  0  0  0
 17 37  1  0  0  0  0
 18 19  1  0  0  0  0
 18 20  1  0  0  0  0
 18 38  1  0  0  0  0
 19 39  1  0  0  0  0
 19 40  1  0  0  0  0
 19 41  1  0  0  0  0
M  CHG  1  11  -1
M  END
> <s_m_source_file>
AV-unprocessed.smi

> <i_m_source_file_index>
2032

> <i_lp_mmshare_version>
43012

> <i_f3d_flags>
0

> <s_epik_input>
W0NIM11bQ0BASF0xW0NIMl1OKFtDSDJdW0NASF0oTzEpW0NIM10pW0NASF0oW0NIM10pW0NIMl1bTkhdQyg9TylbTkhdYzJuW2NIXVtjSF1zMg==

> <s_epik_cmdline>
J2VwaWtfcHl0aG9uJywgJy1waCcsICc3LjAnLCAnLXRuJywgJzgnLCAnLW1hJywgJzIwMCcsICctbWV0YWxfYmluZGluZycsICctaW1hZScsICc8aW5maWxlLm1hZT4nLCAnLW9tYWUnLCAnPG91dGZpbGUubWFlPic=

> <r_lp_tautomer_probability>
0.999

> <r_epik_Ionization_Penalty>
7.22375

> <r_epik_Ionization_Penalty_Charging>
5.82415

> <r_epik_Ionization_Penalty_Neutral>
1.39959

> <r_epik_State_Penalty>
6.03347

> <r_epik_Charging_Adjusted_Penalty>
11.8576

> <i_epik_Tot_Q>
-1

> <i_epik_Tot_abs_Q>
1

> <r_epik_Metal_State_Penalty>
2.01024

> <b_epik_Metal_Only>
1

> <s_lp_Force_Field>
OPLS_2005

> <r_lp_Energy>
22.8045

> <b_lp_Chiralities_Consistent>
1

> <s_lp_Variant>
AV-unprocessed.smi:2032-18

> <Gold.Version>
5.8.1

> <Gold.Id.Protein>
6NUR|6NUR_protein|mol2

> <Gold.PLP.Fitness>
39.2625

> <Gold.PLP.PLP>
-30.7660

> <Gold.PLP.part.hbond>
-2.9946

> <Gold.PLP.part.metal>
0.0000

> <Gold.PLP.part.buried>
-4.0400

> <Gold.PLP.part.nonpolar>
-25.3688

> <Gold.PLP.part.repulsive>
0.0823

> <Gold.PLP.ligand.clash>
0.0000

> <Gold.PLP.ligand.torsion>
1.4872

> <Gold.PLP.Chemscore.Hbond>
3.7971

> <Gold.PLP.Chemscore.CHOScore>
0.0000

> <Gold.PLP.Chemscore.Metal>
0.0000

> <Gold.Chemscore.Hbonds>
donor molecule, donor type, donor heavy atom, donor atom, acceptor molecule, acceptor atom, score
      P1  H  6896  6907       L1    10  0.80
      P1  H  6931  6943       L1    11  1.14
      P1  H  6934  6947       L1    11  1.57

> <Gold.PLP.Chemscore.Internal.Correction>
0.0798

> <Gold.Rescore>
     Score         DG    S(hbond)    S(metal)    S(lipo)     H(rot)  DE(clash)    DE(int)     intcor
     14.38     -15.94       2.21        0.00      60.10       1.54       0.00       1.57       ----

> <Gold.Chemscore.Fitness>
14.3782

> <Gold.Chemscore.DG>
-15.9445

> <Gold.Chemscore.ZeroCoef>
-5.4800

> <Gold.Chemscore.Hbond>
2.2104

> <Gold.Chemscore.Metal>
0.0000

> <Gold.Chemscore.Lipo>
60.1020

> <Gold.Chemscore.Internal_Hbond>
0.0000

> <Gold.Chemscore.DEClash>
0.0000

> <Gold.Chemscore.DEInternal>
1.5663

> <Gold.Chemscore.Rot>
1.5431

> <Gold.Chemscore.Internal.Correction>
   9.000000E+99

> <Gold.Chemscore.Hbonds>
donor molecule, donor type, donor heavy atom, donor atom, acceptor molecule, acceptor atom, score
      P1  H  6896  6907       L1    10  0.79
      P1  H  6931  6943       L1    11  0.14
      P1  H  6934  6947       L1    11  0.57

> <Gold.Chemscore.Hbond.Weighted>
-7.3828

> <Gold.Chemscore.Metal.Weighted>
-0.0000

> <Gold.Chemscore.Lipo.Weighted>
-7.0319

> <Gold.Chemscore.Internal_Hbond.Weighted>
0.0000

> <Gold.Chemscore.DEClash.Weighted>
0.0000

> <Gold.Chemscore.DEInternal.Weighted>
1.5663

> <Gold.Chemscore.Rot.Weighted>
3.9503

> <Gold.Chemscore.Internal.Correction.Weighted>
   9.000000E+99

> <Gold.Protein.RotatedTorsions>
[ 6907 6896 6895 6894 ] final  -50.40 input  -60.11 | X-H torsion
[ 7974 7965 7964 7962 ] final -177.91 input  175.53 | X-H torsion
[ 8008 7997 7996 7995 ] final -116.62 input   59.86 | X-H torsion
[ 10167 10162 10161 10158 ] final  -36.61 input  -65.29 | X-H torsion
[ 10718 10713 10712 10709 ] final  -47.71 input   66.30 | X-H torsion
[ 10763 10752 10751 10750 ] final   99.03 input  -60.55 | X-H torsion
[ 11005 11000 10999 10996 ] final   54.05 input  -57.11 | X-H torsion

> <Gold.Protein.ActiveResidues>
 VAL166  LYS551  ARG553  GLY616  TRP617  ASP618  TYR619  PRO620  LYS621  CYS622 
 ASP623  PHE694  ASN695  SER759  ASP760  ASP761  ALA762  ILE779  LEU786  VAL792 
 PHE793  MET794  SER795  GLU796  ALA797  LYS798  CYS799  TRP800  GLU811  SER814 

> <Gold.Protein.RotatedAtoms>
  150.8711  134.8084  159.7154 H   0  0  0  0  0  0  0  0  0  0  0  0  # atno 6907 bound_to 6896
  152.4715  134.4946  159.9715 H   0  0  0  0  0  0  0  0  0  0  0  0  # atno 6908 bound_to 6896
  151.5034  133.3461  159.2908 H   0  0  0  0  0  0  0  0  0  0  0  0  # atno 6909 bound_to 6896
  144.7129  140.0948  143.6419 H   0  0  0  0  0  0  0  0  0  0  0  0  # atno 7974 bound_to 7965
  155.0707  140.0393  157.2607 H   0  0  0  0  0  0  0  0  0  0  0  0  # atno 8008 bound_to 7997
  154.6985  140.2668  155.6718 H   0  0  0  0  0  0  0  0  0  0  0  0  # atno 8009 bound_to 7997
  156.2752  140.2745  156.1587 H   0  0  0  0  0  0  0  0  0  0  0  0  # atno 8010 bound_to 7997
  140.7138  143.3397  151.2385 H   0  0  0  0  0  0  0  0  0  0  0  0  # atno 10167 bound_to 10162
  156.2058  130.4158  149.9180 H   0  0  0  0  0  0  0  0  0  0  0  0  # atno 10718 bound_to 10713
  153.2963  135.4127  155.1213 H   0  0  0  0  0  0  0  0  0  0  0  0  # atno 10763 bound_to 10752
  154.8536  135.3530  154.5912 H   0  0  0  0  0  0  0  0  0  0  0  0  # atno 10764 bound_to 10752
  153.6336  135.7060  153.5325 H   0  0  0  0  0  0  0  0  0  0  0  0  # atno 10765 bound_to 10752
  140.0717  134.5460  155.9039 H   0  0  0  0  0  0  0  0  0  0  0  0  # atno 11005 bound_to 11000
  145.9589  139.2786  143.1168 LP  0  0  0  0  0  0  0  0  0  0  0  0  # atno 17320 bound_to 7965
  145.9243  140.9094  143.0389 LP  0  0  0  0  0  0  0  0  0  0  0  0  # atno 17321 bound_to 7965
  139.6901  143.9707  152.2855 LP  0  0  0  0  0  0  0  0  0  0  0  0  # atno 17342 bound_to 10162
  139.9365  144.6708  150.8309 LP  0  0  0  0  0  0  0  0  0  0  0  0  # atno 17343 bound_to 10162
  156.6875  130.8882  151.3584 LP  0  0  0  0  0  0  0  0  0  0  0  0  # atno 17370 bound_to 10713
  157.7011  130.9334  150.0789 LP  0  0  0  0  0  0  0  0  0  0  0  0  # atno 17371 bound_to 10713
  141.2014  133.6618  156.5951 LP  0  0  0  0  0  0  0  0  0  0  0  0  # atno 17394 bound_to 11000
  140.3617  134.7682  157.4538 LP  0  0  0  0  0  0  0  0  0  0  0  0  # atno 17395 bound_to 11000

$$$$
