AV-unprocessed.smi:199|AV-procd|sdf|1567|dock1
  -GOLD-   2262019443D 1   1.00000     0.00000
 Structure written by MMmdl.
 51 55  0  0  0  0  0  0  0  0  1 V2000
  148.7073  138.6192  156.6248 C   0  0  0  0  0  0  0  0  0  0  0  0
  148.7761  138.9871  155.1346 C   0  0  1  0  0  0  0  0  0  0  0  0
  147.5052  138.6884  154.5618 O   0  0  0  0  0  0  0  0  0  0  0  0
  147.2433  139.6051  153.5139 C   0  0  0  0  0  0  0  0  0  0  0  0
  147.7774  140.9114  154.0803 C   0  0  0  0  0  0  0  0  0  0  0  0
  149.0549  140.4789  154.7942 C   0  0  2  0  0  0  0  0  0  0  0  0
  150.1125  140.5106  153.8496 O   0  0  0  0  0  0  0  0  0  0  0  0
  149.4475  141.3984  155.9811 C   0  0  0  0  0  0  0  0  0  0  0  0
  150.6476  140.9611  156.6790 N   0  0  0  0  0  0  0  0  0  0  0  0
  151.4231  139.8667  156.3744 C   0  0  0  0  0  0  0  0  0  0  0  0
  152.4544  139.6845  157.1514 N   0  0  0  0  0  0  0  0  0  0  0  0
  152.3918  140.7303  158.0658 C   0  0  0  0  0  0  0  0  0  0  0  0
  153.1909  141.1456  159.1735 C   0  0  0  0  0  0  0  0  0  0  0  0
  154.3208  140.5170  159.6035 N   0  0  0  0  0  0  0  0  0  0  0  0
  154.7839  140.6266  160.9794 C   0  0  2  0  0  0  0  0  0  0  0  0
  156.1515  139.9248  160.9231 C   0  0  0  0  0  0  0  0  0  0  0  0
  155.8825  138.8217  159.8898 C   0  0  0  0  0  0  0  0  0  0  0  0
  154.3947  139.0616  159.5728 C   0  0  1  0  0  0  0  0  0  0  0  0
  153.4835  138.6382  160.7545 C   0  0  1  0  0  0  0  0  0  0  0  0
  153.6539  137.1963  161.2673 C   0  0  0  0  0  0  0  0  0  0  0  0
  153.3582  136.2800  160.2348 O   0  0  0  0  0  0  0  0  0  0  0  0
  153.8050  139.7431  161.7795 C   0  0  0  0  0  0  0  0  0  0  0  0
  152.7741  142.2424  159.8603 N   0  0  0  0  0  0  0  0  0  0  0  0
  151.6748  142.9026  159.4887 C   0  0  0  0  0  0  0  0  0  0  0  0
  150.8482  142.6400  158.4766 N   0  0  0  0  0  0  0  0  0  0  0  0
  151.2486  141.5349  157.7860 C   0  0  0  0  0  0  0  0  0  0  0  0
  149.6541  138.8134  157.1287 H   0  0  0  0  0  0  0  0  0  0  0  0
  148.4857  137.5587  156.7474 H   0  0  0  0  0  0  0  0  0  0  0  0
  147.9242  139.1770  157.1390 H   0  0  0  0  0  0  0  0  0  0  0  0
  149.5151  138.3421  154.6554 H   0  0  0  0  0  0  0  0  0  0  0  0
  147.7898  139.3094  152.6171 H   0  0  0  0  0  0  0  0  0  0  0  0
  146.1807  139.6511  153.2750 H   0  0  0  0  0  0  0  0  0  0  0  0
  147.9321  141.6803  153.3221 H   0  0  0  0  0  0  0  0  0  0  0  0
  147.0562  141.2962  154.8022 H   0  0  0  0  0  0  0  0  0  0  0  0
  149.7598  140.3017  152.9983 H   0  0  0  0  0  0  0  0  0  0  0  0
  149.6188  142.4181  155.6354 H   0  0  0  0  0  0  0  0  0  0  0  0
  148.6349  141.4517  156.7071 H   0  0  0  0  0  0  0  0  0  0  0  0
  151.2014  139.2061  155.5489 H   0  0  0  0  0  0  0  0  0  0  0  0
  154.8761  141.6379  161.3701 H   0  0  0  0  0  0  0  0  0  0  0  0
  156.9252  140.6047  160.5642 H   0  0  0  0  0  0  0  0  0  0  0  0
  156.4653  139.5337  161.8917 H   0  0  0  0  0  0  0  0  0  0  0  0
  156.4906  138.9859  158.9994 H   0  0  0  0  0  0  0  0  0  0  0  0
  156.1045  137.8204  160.2559 H   0  0  0  0  0  0  0  0  0  0  0  0
  154.1015  138.6101  158.6242 H   0  0  0  0  0  0  0  0  0  0  0  0
  152.4473  138.7551  160.4312 H   0  0  0  0  0  0  0  0  0  0  0  0
  154.6800  137.0296  161.5963 H   0  0  0  0  0  0  0  0  0  0  0  0
  152.9988  136.9876  162.1125 H   0  0  0  0  0  0  0  0  0  0  0  0
  153.1151  136.7671  159.4623 H   0  0  0  0  0  0  0  0  0  0  0  0
  154.2480  139.3654  162.7018 H   0  0  0  0  0  0  0  0  0  0  0  0
  152.9018  140.2942  162.0440 H   0  0  0  0  0  0  0  0  0  0  0  0
  151.4219  143.7641  160.0887 H   0  0  0  0  0  0  0  0  0  0  0  0
  1  2  1  0  0  0  0
  1 27  1  0  0  0  0
  1 28  1  0  0  0  0
  1 29  1  0  0  0  0
  2  6  1  0  0  0  0
  2  3  1  0  0  0  0
  2 30  1  0  0  0  0
  3  4  1  0  0  0  0
  4  5  1  0  0  0  0
  4 31  1  0  0  0  0
  4 32  1  0  0  0  0
  5  6  1  0  0  0  0
  5 33  1  0  0  0  0
  5 34  1  0  0  0  0
  6  7  1  0  0  0  0
  6  8  1  0  0  0  0
  7 35  1  0  0  0  0
  8  9  1  0  0  0  0
  8 36  1  0  0  0  0
  8 37  1  0  0  0  0
  9 26  1  0  0  0  0
  9 10  1  0  0  0  0
 10 11  2  0  0  0  0
 10 38  1  0  0  0  0
 11 12  1  0  0  0  0
 12 26  2  0  0  0  0
 12 13  1  0  0  0  0
 13 14  1  0  0  0  0
 13 23  2  0  0  0  0
 14 18  1  0  0  0  0
 14 15  1  0  0  0  0
 15 22  1  0  0  0  0
 15 16  1  0  0  0  0
 15 39  1  0  0  0  0
 16 17  1  0  0  0  0
 16 40  1  0  0  0  0
 16 41  1  0  0  0  0
 17 18  1  0  0  0  0
 17 42  1  0  0  0  0
 17 43  1  0  0  0  0
 18 19  1  0  0  0  0
 18 44  1  0  0  0  0
 19 20  1  0  0  0  0
 19 22  1  0  0  0  0
 19 45  1  0  0  0  0
 20 21  1  0  0  0  0
 20 46  1  0  0  0  0
 20 47  1  0  0  0  0
 21 48  1  0  0  0  0
 22 49  1  0  0  0  0
 22 50  1  0  0  0  0
 23 24  1  0  0  0  0
 24 25  2  0  0  0  0
 24 51  1  0  0  0  0
 25 26  1  0  0  0  0
M  END
> <s_m_source_file>
AV-unprocessed.smi

> <i_m_source_file_index>
199

> <i_lp_mmshare_version>
43012

> <i_f3d_flags>
0

> <s_epik_input>
W0NIMl0xW0NIMl1PW0NAQEhdKFtDSDNdKVtDQEBdMShbT0hdKVtDSDJdbihbY0hdbjIpYyhjMjMpbltjSF1uYzNOKFtDQEBIXTQ1KVtDQEhdKFtDSDJdW0NIMl00KVtDQEhdKFtDSDJdNSlbQ0gyXVtPSF0=

> <s_epik_cmdline>
J2VwaWtfcHl0aG9uJywgJy1waCcsICc3LjAnLCAnLXRuJywgJzgnLCAnLW1hJywgJzIwMCcsICctbWV0YWxfYmluZGluZycsICctaW1hZScsICc8aW5maWxlLm1hZT4nLCAnLW9tYWUnLCAnPG91dGZpbGUubWFlPic=

> <r_lp_tautomer_probability>
1

> <r_epik_Ionization_Penalty>
0.00583903

> <r_epik_Ionization_Penalty_Charging>
0

> <r_epik_Ionization_Penalty_Neutral>
0.00583903

> <r_epik_State_Penalty>
-0

> <r_epik_Charging_Adjusted_Penalty>
0

> <i_epik_Tot_Q>
0

> <i_epik_Tot_abs_Q>
0

> <r_epik_Metal_State_Penalty>
-0

> <b_epik_Metal_Only>
0

> <s_lp_Force_Field>
OPLS_2005

> <r_lp_Energy>
84.1045

> <b_lp_Chiralities_Consistent>
1

> <s_lp_Variant>
AV-unprocessed.smi:199-8

> <Gold.Version>
5.8.1

> <Gold.Id.Protein>
6NUR|6NUR_protein|mol2

> <Gold.PLP.Fitness>
41.9351

> <Gold.PLP.PLP>
-35.1051

> <Gold.PLP.part.hbond>
-4.3969

> <Gold.PLP.part.metal>
0.0000

> <Gold.PLP.part.buried>
-3.1184

> <Gold.PLP.part.nonpolar>
-26.6207

> <Gold.PLP.part.repulsive>
0.1832

> <Gold.PLP.ligand.clash>
2.7692

> <Gold.PLP.ligand.torsion>
0.6589

> <Gold.PLP.Chemscore.Hbond>
3.6080

> <Gold.PLP.Chemscore.CHOScore>
0.0000

> <Gold.PLP.Chemscore.Metal>
0.0000

> <Gold.Chemscore.Hbonds>
donor molecule, donor type, donor heavy atom, donor atom, acceptor molecule, acceptor atom, score
      L1  H     7    35       P1  7957  1.00
      P1  H  6896  6907       L1    21  0.90
      P1  H  7989  7998       L1     7  0.67
      P1  H  7997  8008       L1    11  0.75

> <Gold.PLP.Chemscore.Internal.Correction>
0.0930

> <Gold.Rescore>
     Score         DG    S(hbond)    S(metal)    S(lipo)     H(rot)  DE(clash)    DE(int)     intcor
     12.91     -16.07       2.46        0.00      87.47       3.07       1.05       2.11       ----

> <Gold.Chemscore.Fitness>
12.9054

> <Gold.Chemscore.DG>
-16.0663

> <Gold.Chemscore.ZeroCoef>
-5.4800

> <Gold.Chemscore.Hbond>
2.4609

> <Gold.Chemscore.Metal>
0.0000

> <Gold.Chemscore.Lipo>
87.4656

> <Gold.Chemscore.Internal_Hbond>
0.0000

> <Gold.Chemscore.DEClash>
1.0495

> <Gold.Chemscore.DEInternal>
2.1114

> <Gold.Chemscore.Rot>
3.0729

> <Gold.Chemscore.Internal.Correction>
   9.000000E+99

> <Gold.Chemscore.Hbonds>
donor molecule, donor type, donor heavy atom, donor atom, acceptor molecule, acceptor atom, score
      L1  H     7    35       P1  7957  1.00
      P1  H  6896  6907       L1    21  0.18
      P1  H  7989  7998       L1     7  0.20
      P1  H  7997  8008       L1    11  0.11

> <Gold.Chemscore.Hbond.Weighted>
-8.2195

> <Gold.Chemscore.Metal.Weighted>
-0.0000

> <Gold.Chemscore.Lipo.Weighted>
-10.2335

> <Gold.Chemscore.Internal_Hbond.Weighted>
0.0000

> <Gold.Chemscore.DEClash.Weighted>
1.0495

> <Gold.Chemscore.DEInternal.Weighted>
2.1114

> <Gold.Chemscore.Rot.Weighted>
7.8667

> <Gold.Chemscore.Internal.Correction.Weighted>
   9.000000E+99

> <Gold.Protein.RotatedTorsions>
[ 6907 6896 6895 6894 ] final   36.43 input  -60.11 | X-H torsion
[ 7974 7965 7964 7962 ] final  147.67 input  175.53 | X-H torsion
[ 8008 7997 7996 7995 ] final  -43.60 input   59.86 | X-H torsion
[ 10167 10162 10161 10158 ] final  -62.84 input  -65.29 | X-H torsion
[ 10718 10713 10712 10709 ] final   -3.21 input   66.30 | X-H torsion
[ 10763 10752 10751 10750 ] final  117.48 input  -60.55 | X-H torsion
[ 11005 11000 10999 10996 ] final -105.79 input  -57.11 | X-H torsion

> <Gold.Protein.ActiveResidues>
 VAL166  LYS551  ARG553  GLY616  TRP617  ASP618  TYR619  PRO620  LYS621  CYS622 
 ASP623  PHE694  ASN695  SER759  ASP760  ASP761  ALA762  ILE779  LEU786  VAL792 
 PHE793  MET794  SER795  GLU796  ALA797  LYS798  CYS799  TRP800  GLU811  SER814 

> <Gold.Protein.RotatedAtoms>
  152.1297  134.9144  160.0559 H   0  0  0  0  0  0  0  0  0  0  0  0  # atno 6907 bound_to 6896
  152.0253  133.3910  159.4283 H   0  0  0  0  0  0  0  0  0  0  0  0  # atno 6908 bound_to 6896
  150.6855  134.3502  159.4949 H   0  0  0  0  0  0  0  0  0  0  0  0  # atno 6909 bound_to 6896
  144.8573  139.6058  143.5946 H   0  0  0  0  0  0  0  0  0  0  0  0  # atno 7974 bound_to 7965
  154.3997  140.1443  156.3546 H   0  0  0  0  0  0  0  0  0  0  0  0  # atno 8008 bound_to 7997
  155.8237  140.3468  155.5509 H   0  0  0  0  0  0  0  0  0  0  0  0  # atno 8009 bound_to 7997
  155.8261  140.0905  157.1811 H   0  0  0  0  0  0  0  0  0  0  0  0  # atno 8010 bound_to 7997
  140.5912  143.2342  151.6135 H   0  0  0  0  0  0  0  0  0  0  0  0  # atno 10167 bound_to 10162
  156.7794  130.5326  149.5753 H   0  0  0  0  0  0  0  0  0  0  0  0  # atno 10718 bound_to 10713
  153.5530  135.3536  155.2767 H   0  0  0  0  0  0  0  0  0  0  0  0  # atno 10763 bound_to 10752
  154.8704  135.4118  154.2916 H   0  0  0  0  0  0  0  0  0  0  0  0  # atno 10764 bound_to 10752
  153.3646  135.7061  153.6754 H   0  0  0  0  0  0  0  0  0  0  0  0  # atno 10765 bound_to 10752
  141.1036  133.8838  157.1777 H   0  0  0  0  0  0  0  0  0  0  0  0  # atno 11005 bound_to 11000
  146.2833  139.6936  142.9213 LP  0  0  0  0  0  0  0  0  0  0  0  0  # atno 17320 bound_to 7965
  145.4381  141.0420  143.2873 LP  0  0  0  0  0  0  0  0  0  0  0  0  # atno 17321 bound_to 7965
  139.5229  144.3150  152.0960 LP  0  0  0  0  0  0  0  0  0  0  0  0  # atno 17342 bound_to 10162
  140.2315  144.4363  150.6298 LP  0  0  0  0  0  0  0  0  0  0  0  0  # atno 17343 bound_to 10162
  156.1227  130.6122  151.0218 LP  0  0  0  0  0  0  0  0  0  0  0  0  # atno 17370 bound_to 10713
  157.6653  131.0873  150.7742 LP  0  0  0  0  0  0  0  0  0  0  0  0  # atno 17371 bound_to 10713
  139.9897  135.0069  156.9947 LP  0  0  0  0  0  0  0  0  0  0  0  0  # atno 17394 bound_to 11000
  140.4959  134.1146  155.7241 LP  0  0  0  0  0  0  0  0  0  0  0  0  # atno 17395 bound_to 11000

$$$$
