AV-unprocessed.smi:3068|AV-procd|sdf|11699|dock8
  -GOLD-   2272017103D 1   1.00000     0.00000
 Structure written by MMmdl.
 40 42  0  0  0  0  0  0  0  0  2 V2000
  150.5030  136.9492  159.2995 N   0  0  0  0  0  0  0  0  0  0  0  0
  150.4545  137.3822  158.2274 C   0  0  0  0  0  0  0  0  0  0  0  0
  150.3936  137.9291  156.8780 C   0  0  0  0  0  0  0  0  0  0  0  0
  150.5339  139.2695  156.7580 N   0  0  0  0  0  0  0  0  0  0  0  0
  150.4835  139.7877  155.5123 C   0  0  0  0  0  0  0  0  0  0  0  0
  150.2930  138.9708  154.3809 C   0  0  0  0  0  0  0  0  0  0  0  0
  150.1516  137.6325  154.4907 N   0  0  0  0  0  0  0  0  0  0  0  0
  150.2009  137.0994  155.7372 C   0  0  0  0  0  0  0  0  0  0  0  0
  150.0574  135.7065  155.8652 N   0  0  0  0  0  0  0  0  0  0  0  0
  149.5967  134.8926  154.7492 C   0  0  0  0  0  0  0  0  0  0  0  0
  148.3074  134.1254  155.1034 C   0  0  1  0  0  0  0  0  0  0  0  0
  147.0265  134.8717  154.6853 C   0  0  0  0  0  0  0  0  0  0  0  0
  146.8523  134.8639  153.2136 N   0  3  2  0  0  0  0  0  0  0  0  0
  145.6411  135.6115  152.7891 C   0  0  0  0  0  0  0  0  0  0  0  0
  145.5283  135.6640  151.2573 C   0  0  0  0  0  0  0  0  0  0  0  0
  145.5371  134.2506  150.6621 C   0  0  0  0  0  0  0  0  0  0  0  0
  146.7849  133.4925  151.1335 C   0  0  0  0  0  0  0  0  0  0  0  0
  146.8874  133.4782  152.6721 C   0  0  1  0  0  0  0  0  0  0  0  0
  148.1714  132.7625  153.1334 C   0  0  0  0  0  0  0  0  0  0  0  0
  148.2852  132.8085  154.5517 O   0  0  0  0  0  0  0  0  0  0  0  0
  150.5966  140.8575  155.4183 H   0  0  0  0  0  0  0  0  0  0  0  0
  150.2548  139.3912  153.3869 H   0  0  0  0  0  0  0  0  0  0  0  0
  150.3828  135.2447  156.7031 H   0  0  0  0  0  0  0  0  0  0  0  0
  149.4035  135.5533  153.9032 H   0  0  0  0  0  0  0  0  0  0  0  0
  150.3855  134.2090  154.4352 H   0  0  0  0  0  0  0  0  0  0  0  0
  148.2821  134.0098  156.1877 H   0  0  0  0  0  0  0  0  0  0  0  0
  146.1606  134.3957  155.1480 H   0  0  0  0  0  0  0  0  0  0  0  0
  147.0542  135.8987  155.0519 H   0  0  0  0  0  0  0  0  0  0  0  0
  144.7529  135.1400  153.2134 H   0  0  0  0  0  0  0  0  0  0  0  0
  145.6812  136.6266  153.1859 H   0  0  0  0  0  0  0  0  0  0  0  0
  144.6144  136.1838  150.9685 H   0  0  0  0  0  0  0  0  0  0  0  0
  146.3574  136.2421  150.8467 H   0  0  0  0  0  0  0  0  0  0  0  0
  144.6391  133.7132  150.9697 H   0  0  0  0  0  0  0  0  0  0  0  0
  145.5146  134.2998  149.5729 H   0  0  0  0  0  0  0  0  0  0  0  0
  146.7604  132.4717  150.7504 H   0  0  0  0  0  0  0  0  0  0  0  0
  147.6741  133.9603  150.7080 H   0  0  0  0  0  0  0  0  0  0  0  0
  146.0291  132.9369  153.0748 H   0  0  0  0  0  0  0  0  0  0  0  0
  148.1446  131.7163  152.8276 H   0  0  0  0  0  0  0  0  0  0  0  0
  149.0558  133.1940  152.6642 H   0  0  0  0  0  0  0  0  0  0  0  0
  147.6469  135.3497  152.8223 H   0  0  0  0  0  0  0  0  0  0  0  0
  1  2  3  0  0  0  0
  2  3  1  0  0  0  0
  3  8  1  0  0  0  0
  3  4  2  0  0  0  0
  4  5  1  0  0  0  0
  5  6  2  0  0  0  0
  5 21  1  0  0  0  0
  6  7  1  0  0  0  0
  6 22  1  0  0  0  0
  7  8  2  0  0  0  0
  8  9  1  0  0  0  0
  9 10  1  0  0  0  0
  9 23  1  0  0  0  0
 10 11  1  0  0  0  0
 10 24  1  0  0  0  0
 10 25  1  0  0  0  0
 11 20  1  0  0  0  0
 11 12  1  0  0  0  0
 11 26  1  0  0  0  0
 12 13  1  0  0  0  0
 12 27  1  0  0  0  0
 12 28  1  0  0  0  0
 13 18  1  0  0  0  0
 13 14  1  0  0  0  0
 13 40  1  0  0  0  0
 14 15  1  0  0  0  0
 14 29  1  0  0  0  0
 14 30  1  0  0  0  0
 15 16  1  0  0  0  0
 15 31  1  0  0  0  0
 15 32  1  0  0  0  0
 16 17  1  0  0  0  0
 16 33  1  0  0  0  0
 16 34  1  0  0  0  0
 17 18  1  0  0  0  0
 17 35  1  0  0  0  0
 17 36  1  0  0  0  0
 18 19  1  0  0  0  0
 18 37  1  0  0  0  0
 19 20  1  0  0  0  0
 19 38  1  0  0  0  0
 19 39  1  0  0  0  0
M  CHG  1  13   1
M  END
> <s_m_source_file>
AV-unprocessed.smi

> <i_m_source_file_index>
3068

> <i_lp_mmshare_version>
43012

> <i_f3d_flags>
0

> <s_epik_input>
TiNDYzFuW2NIXVtjSF1uYzFbTkhdW0NIMl1bQ0BIXShbQ0gyXTIpT1tDSDJdW0NAQEhdKE4yMylbQ0gyXVtDSDJdW0NIMl1bQ0gyXTM=

> <s_epik_cmdline>
J2VwaWtfcHl0aG9uJywgJy1waCcsICc3LjAnLCAnLXRuJywgJzgnLCAnLW1hJywgJzIwMCcsICctbWV0YWxfYmluZGluZycsICctaW1hZScsICc8aW5maWxlLm1hZT4nLCAnLW9tYWUnLCAnPG91dGZpbGUubWFlPic=

> <r_epik_Ionization_Penalty>
0.0804321

> <r_epik_Ionization_Penalty_Charging>
0.0803403

> <r_epik_Ionization_Penalty_Neutral>
9.17277e-05

> <r_epik_State_Penalty>
0.0711481

> <r_epik_Charging_Adjusted_Penalty>
0.151488

> <i_epik_Tot_Q>
1

> <i_epik_Tot_abs_Q>
1

> <r_epik_Metal_State_Penalty>
0.0711481

> <b_epik_Metal_Only>
0

> <s_lp_Force_Field>
OPLS_2005

> <r_lp_Energy>
40.024

> <b_lp_Chiralities_Consistent>
1

> <s_lp_Variant>
AV-unprocessed.smi:3068-2

> <Gold.Version>
5.8.1

> <Gold.Id.Protein>
6NUR|6NUR_protein|mol2

> <Gold.PLP.Fitness>
39.1735

> <Gold.PLP.PLP>
-28.2185

> <Gold.PLP.part.hbond>
-2.0000

> <Gold.PLP.part.metal>
0.0000

> <Gold.PLP.part.buried>
-4.7843

> <Gold.PLP.part.nonpolar>
-22.0687

> <Gold.PLP.part.repulsive>
0.3637

> <Gold.PLP.ligand.clash>
0.0000

> <Gold.PLP.ligand.torsion>
0.5256

> <Gold.PLP.Chemscore.Hbond>
3.0000

> <Gold.PLP.Chemscore.CHOScore>
1.0000

> <Gold.PLP.Chemscore.Metal>
0.0000

> <Gold.Chemscore.Hbonds>
donor molecule, donor type, donor heavy atom, donor atom, acceptor molecule, acceptor atom, score
      L1  H    13    40       P1  7948  2.00
      P1  H  6896  6907       L1     1  0.91
      L1  C     6    22       P1  7957  1.00

> <Gold.PLP.Chemscore.Internal.Correction>
0.0063

> <Gold.Rescore>
     Score         DG    S(hbond)    S(metal)    S(lipo)     H(rot)  DE(clash)    DE(int)     intcor
     15.71     -16.39       1.98        0.00      65.60       1.32       0.17       0.51       ----

> <Gold.Chemscore.Fitness>
15.7119

> <Gold.Chemscore.DG>
-16.3930

> <Gold.Chemscore.ZeroCoef>
-5.4800

> <Gold.Chemscore.Hbond>
1.9807

> <Gold.Chemscore.Metal>
0.0000

> <Gold.Chemscore.Lipo>
65.5958

> <Gold.Chemscore.Internal_Hbond>
0.0000

> <Gold.Chemscore.DEClash>
0.1723

> <Gold.Chemscore.DEInternal>
0.5088

> <Gold.Chemscore.Rot>
1.3193

> <Gold.Chemscore.Internal.Correction>
   9.000000E+99

> <Gold.Chemscore.Hbonds>
donor molecule, donor type, donor heavy atom, donor atom, acceptor molecule, acceptor atom, score
      L1  H    13    40       P1  7948  1.00
      P1  H  6896  6907       L1     1  0.87

> <Gold.Chemscore.Hbond.Weighted>
-6.6157

> <Gold.Chemscore.Metal.Weighted>
-0.0000

> <Gold.Chemscore.Lipo.Weighted>
-7.6747

> <Gold.Chemscore.Internal_Hbond.Weighted>
0.0000

> <Gold.Chemscore.DEClash.Weighted>
0.1723

> <Gold.Chemscore.DEInternal.Weighted>
0.5088

> <Gold.Chemscore.Rot.Weighted>
3.3774

> <Gold.Chemscore.Internal.Correction.Weighted>
   9.000000E+99

> <Gold.Protein.RotatedTorsions>
[ 6907 6896 6895 6894 ] final  -14.78 input  -60.11 | X-H torsion
[ 7974 7965 7964 7962 ] final -136.86 input  175.53 | X-H torsion
[ 8008 7997 7996 7995 ] final   99.93 input   59.86 | X-H torsion
[ 10167 10162 10161 10158 ] final -175.09 input  -65.29 | X-H torsion
[ 10718 10713 10712 10709 ] final  -27.12 input   66.30 | X-H torsion
[ 10763 10752 10751 10750 ] final   47.72 input  -60.55 | X-H torsion
[ 11005 11000 10999 10996 ] final -173.47 input  -57.11 | X-H torsion

> <Gold.Protein.ActiveResidues>
 VAL166  LYS551  ARG553  GLY616  TRP617  ASP618  TYR619  PRO620  LYS621  CYS622 
 ASP623  PHE694  ASN695  SER759  ASP760  ASP761  ALA762  ILE779  LEU786  VAL792 
 PHE793  MET794  SER795  GLU796  ALA797  LYS798  CYS799  TRP800  GLU811  SER814 

> <Gold.Protein.RotatedAtoms>
  151.3341  135.0848  159.9348 H   0  0  0  0  0  0  0  0  0  0  0  0  # atno 6907 bound_to 6896
  152.5227  133.9513  159.7683 H   0  0  0  0  0  0  0  0  0  0  0  0  # atno 6908 bound_to 6896
  150.9857  133.6147  159.2745 H   0  0  0  0  0  0  0  0  0  0  0  0  # atno 6909 bound_to 6896
  144.8891  140.6617  143.5157 H   0  0  0  0  0  0  0  0  0  0  0  0  # atno 7974 bound_to 7965
  156.1154  140.3221  155.8131 H   0  0  0  0  0  0  0  0  0  0  0  0  # atno 8008 bound_to 7997
  155.4600  140.0538  157.3009 H   0  0  0  0  0  0  0  0  0  0  0  0  # atno 8009 bound_to 7997
  154.4789  140.2044  155.9825 H   0  0  0  0  0  0  0  0  0  0  0  0  # atno 8010 bound_to 7997
  139.5599  144.1896  152.1221 H   0  0  0  0  0  0  0  0  0  0  0  0  # atno 10167 bound_to 10162
  156.4423  130.4467  149.7045 H   0  0  0  0  0  0  0  0  0  0  0  0  # atno 10718 bound_to 10713
  152.9797  135.5967  154.3809 H   0  0  0  0  0  0  0  0  0  0  0  0  # atno 10763 bound_to 10752
  154.3473  135.2767  155.2392 H   0  0  0  0  0  0  0  0  0  0  0  0  # atno 10764 bound_to 10752
  154.4447  135.6004  153.6207 H   0  0  0  0  0  0  0  0  0  0  0  0  # atno 10765 bound_to 10752
  140.4854  134.6036  157.4935 H   0  0  0  0  0  0  0  0  0  0  0  0  # atno 11005 bound_to 11000
  145.3815  139.1636  143.4278 LP  0  0  0  0  0  0  0  0  0  0  0  0  # atno 17320 bound_to 7965
  146.3043  140.3897  142.8693 LP  0  0  0  0  0  0  0  0  0  0  0  0  # atno 17321 bound_to 7965
  140.1407  144.5204  150.6746 LP  0  0  0  0  0  0  0  0  0  0  0  0  # atno 17342 bound_to 10162
  140.6877  143.2359  151.5215 LP  0  0  0  0  0  0  0  0  0  0  0  0  # atno 17343 bound_to 10162
  156.3904  130.7624  151.2625 LP  0  0  0  0  0  0  0  0  0  0  0  0  # atno 17370 bound_to 10713
  157.7506  131.0269  150.3983 LP  0  0  0  0  0  0  0  0  0  0  0  0  # atno 17371 bound_to 10713
  139.9801  134.7151  155.9875 LP  0  0  0  0  0  0  0  0  0  0  0  0  # atno 17394 bound_to 11000
  141.1511  133.6548  156.4015 LP  0  0  0  0  0  0  0  0  0  0  0  0  # atno 17395 bound_to 11000

$$$$
