AV-unprocessed.smi:1013|AV-procd|sdf|4427|dock4
  -GOLD-   22720 2383D 1   1.00000     0.00000
 Structure written by MMmdl.
 30 31  0  0  0  0  0  0  0  0  3 V2000
  152.0591  140.0025  154.9539 O   0  0  0  0  0  0  0  0  0  0  0  0
  151.2051  139.0947  154.8543 C   0  0  0  0  0  0  0  0  0  0  0  0
  151.4599  137.8860  154.6489 O   0  5  0  0  0  0  0  0  0  0  0  0
  149.7302  139.5013  155.0134 C   0  0  1  0  0  0  0  0  0  0  0  0
  149.6353  141.0048  155.3670 C   0  0  0  0  0  0  0  0  0  0  0  0
  150.3151  141.3494  156.6056 N   0  0  0  0  0  0  0  0  0  0  0  0
  150.8375  140.4972  157.5544 C   0  0  0  0  0  0  0  0  0  0  0  0
  151.3514  141.2692  158.5563 C   0  0  0  0  0  0  0  0  0  0  0  0
  151.0811  142.6045  158.1386 C   0  0  0  0  0  0  0  0  0  0  0  0
  151.4157  143.8916  158.8456 C   0  0  0  0  0  0  0  0  0  0  0  0
  152.2067  144.6410  158.0780 F   0  0  0  0  0  0  0  0  0  0  0  0
  150.3030  144.5751  159.1125 F   0  0  0  0  0  0  0  0  0  0  0  0
  152.0430  143.6287  159.9920 F   0  0  0  0  0  0  0  0  0  0  0  0
  150.4524  142.6420  156.9718 N   0  0  0  0  0  0  0  0  0  0  0  0
  148.9951  139.2101  153.7612 N   0  3  0  0  0  0  0  0  0  0  0  0
  147.5278  139.3595  153.8539 C   0  0  0  0  0  0  0  0  0  0  0  0
  146.8130  139.2658  152.5275 C   0  0  0  0  0  0  0  0  0  0  0  0
  147.0218  140.6137  153.1840 C   0  0  0  0  0  0  0  0  0  0  0  0
  149.2811  138.9221  155.8231 H   0  0  0  0  0  0  0  0  0  0  0  0
  150.0719  141.6076  154.5692 H   0  0  0  0  0  0  0  0  0  0  0  0
  148.5929  141.3156  155.4563 H   0  0  0  0  0  0  0  0  0  0  0  0
  150.8024  139.4237  157.4395 H   0  0  0  0  0  0  0  0  0  0  0  0
  151.8417  140.9309  159.4571 H   0  0  0  0  0  0  0  0  0  0  0  0
  149.3223  139.8602  153.0616 H   0  0  0  0  0  0  0  0  0  0  0  0
  147.0618  139.0250  154.7791 H   0  0  0  0  0  0  0  0  0  0  0  0
  147.4029  139.0389  151.6411 H   0  0  0  0  0  0  0  0  0  0  0  0
  145.8044  138.8572  152.5310 H   0  0  0  0  0  0  0  0  0  0  0  0
  146.1475  141.0970  153.6154 H   0  0  0  0  0  0  0  0  0  0  0  0
  147.7480  141.2858  152.7304 H   0  0  0  0  0  0  0  0  0  0  0  0
  149.2213  138.2708  153.4670 H   0  0  0  0  0  0  0  0  0  0  0  0
  1  2  2  0  0  0  0
  2  3  1  0  0  0  0
  2  4  1  0  0  0  0
  4  5  1  0  0  0  0
  4 15  1  0  0  0  0
  4 19  1  0  0  0  0
  5  6  1  0  0  0  0
  5 20  1  0  0  0  0
  5 21  1  0  0  0  0
  6 14  1  0  0  0  0
  6  7  1  0  0  0  0
  7  8  2  0  0  0  0
  7 22  1  0  0  0  0
  8  9  1  0  0  0  0
  8 23  1  0  0  0  0
  9 10  1  0  0  0  0
  9 14  2  0  0  0  0
 10 11  1  0  0  0  0
 10 12  1  0  0  0  0
 10 13  1  0  0  0  0
 15 16  1  0  0  0  0
 15 24  1  0  0  0  0
 15 30  1  0  0  0  0
 16 18  1  0  0  0  0
 16 17  1  0  0  0  0
 16 25  1  0  0  0  0
 17 18  1  0  0  0  0
 17 26  1  0  0  0  0
 17 27  1  0  0  0  0
 18 28  1  0  0  0  0
 18 29  1  0  0  0  0
M  CHG  1   3  -1
M  CHG  1  15   1
M  END
> <s_m_source_file>
AV-unprocessed.smi

> <i_m_source_file_index>
1013

> <i_lp_mmshare_version>
43012

> <i_f3d_flags>
0

> <s_epik_input>
W0NIMl0xW0NIMl1bQ0hdMVtOSF1bQ0BIXShDKD1PKVtPSF0pW0NIMl1uMltjSF1bY0hdYyhuMilDKEYpKEYpRg==

> <s_epik_cmdline>
J2VwaWtfcHl0aG9uJywgJy1waCcsICc3LjAnLCAnLXRuJywgJzgnLCAnLW1hJywgJzIwMCcsICctbWV0YWxfYmluZGluZycsICctaW1hZScsICc8aW5maWxlLm1hZT4nLCAnLW9tYWUnLCAnPG91dGZpbGUubWFlPic=

> <r_lp_tautomer_probability>
1

> <r_epik_Ionization_Penalty>
0.183175

> <r_epik_Ionization_Penalty_Charging>
0.183175

> <r_epik_Ionization_Penalty_Neutral>
3.57035e-11

> <r_epik_State_Penalty>
0.172705

> <r_epik_Charging_Adjusted_Penalty>
0.35588

> <i_epik_Tot_Q>
0

> <i_epik_Tot_abs_Q>
2

> <r_epik_Metal_State_Penalty>
0.172705

> <b_epik_Metal_Only>
0

> <s_lp_Force_Field>
OPLS_2005

> <r_lp_Energy>
10.483

> <b_lp_Chiralities_Consistent>
1

> <s_lp_Variant>
AV-unprocessed.smi:1013-2

> <Gold.Version>
5.8.1

> <Gold.Id.Protein>
6NUR|6NUR_protein|mol2

> <Gold.PLP.Fitness>
46.1882

> <Gold.PLP.PLP>
-41.2527

> <Gold.PLP.part.hbond>
-2.0000

> <Gold.PLP.part.metal>
0.0000

> <Gold.PLP.part.buried>
-6.4302

> <Gold.PLP.part.nonpolar>
-35.1204

> <Gold.PLP.part.repulsive>
1.2855

> <Gold.PLP.ligand.clash>
0.0000

> <Gold.PLP.ligand.torsion>
0.4735

> <Gold.PLP.Chemscore.Hbond>
1.7120

> <Gold.PLP.Chemscore.CHOScore>
0.0000

> <Gold.PLP.Chemscore.Metal>
0.0000

> <Gold.Chemscore.Hbonds>
donor molecule, donor type, donor heavy atom, donor atom, acceptor molecule, acceptor atom, score
      L1  H    15    24       P1  7957  0.85
      P1  H  7989  7998       L1     1  0.72

> <Gold.PLP.Chemscore.Internal.Correction>
0.7465

> <Gold.Rescore>
     Score         DG    S(hbond)    S(metal)    S(lipo)     H(rot)  DE(clash)    DE(int)     intcor
     13.94     -15.99       2.93        0.00      62.89       2.60       0.22       1.84       ----

> <Gold.Chemscore.Fitness>
13.9353

> <Gold.Chemscore.DG>
-15.9898

> <Gold.Chemscore.ZeroCoef>
-5.4800

> <Gold.Chemscore.Hbond>
2.9341

> <Gold.Chemscore.Metal>
0.0000

> <Gold.Chemscore.Lipo>
62.8918

> <Gold.Chemscore.Internal_Hbond>
0.0000

> <Gold.Chemscore.DEClash>
0.2172

> <Gold.Chemscore.DEInternal>
1.8373

> <Gold.Chemscore.Rot>
2.5970

> <Gold.Chemscore.Internal.Correction>
   9.000000E+99

> <Gold.Chemscore.Hbonds>
donor molecule, donor type, donor heavy atom, donor atom, acceptor molecule, acceptor atom, score
      L1  H    15    24       P1  7957  0.83
      P1  H  7989  7998       L1     1  0.14

> <Gold.Chemscore.Hbond.Weighted>
-9.7998

> <Gold.Chemscore.Metal.Weighted>
-0.0000

> <Gold.Chemscore.Lipo.Weighted>
-7.3583

> <Gold.Chemscore.Internal_Hbond.Weighted>
0.0000

> <Gold.Chemscore.DEClash.Weighted>
0.2172

> <Gold.Chemscore.DEInternal.Weighted>
1.8373

> <Gold.Chemscore.Rot.Weighted>
6.6484

> <Gold.Chemscore.Internal.Correction.Weighted>
   9.000000E+99

> <Gold.Protein.RotatedTorsions>
[ 6907 6896 6895 6894 ] final -111.52 input  -60.11 | X-H torsion
[ 7974 7965 7964 7962 ] final    6.77 input  175.53 | X-H torsion
[ 8008 7997 7996 7995 ] final  -61.21 input   59.86 | X-H torsion
[ 10167 10162 10161 10158 ] final -118.15 input  -65.29 | X-H torsion
[ 10718 10713 10712 10709 ] final -112.26 input   66.30 | X-H torsion
[ 10763 10752 10751 10750 ] final   48.77 input  -60.55 | X-H torsion
[ 11005 11000 10999 10996 ] final  137.39 input  -57.11 | X-H torsion

> <Gold.Protein.ActiveResidues>
 VAL166  LYS551  ARG553  GLY616  TRP617  ASP618  TYR619  PRO620  LYS621  CYS622 
 ASP623  PHE694  ASN695  SER759  ASP760  ASP761  ALA762  ILE779  LEU786  VAL792 
 PHE793  MET794  SER795  GLU796  ALA797  LYS798  CYS799  TRP800  GLU811  SER814 

> <Gold.Protein.RotatedAtoms>
  150.7696  133.9224  159.3401 H   0  0  0  0  0  0  0  0  0  0  0  0  # atno 6907 bound_to 6896
  151.7113  135.0910  160.0277 H   0  0  0  0  0  0  0  0  0  0  0  0  # atno 6908 bound_to 6896
  152.3707  133.6377  159.6121 H   0  0  0  0  0  0  0  0  0  0  0  0  # atno 6909 bound_to 6896
  146.2432  140.0184  142.8400 H   0  0  0  0  0  0  0  0  0  0  0  0  # atno 7974 bound_to 7965
  154.4436  140.1022  156.6395 H   0  0  0  0  0  0  0  0  0  0  0  0  # atno 8008 bound_to 7997
  155.5517  140.3486  155.4451 H   0  0  0  0  0  0  0  0  0  0  0  0  # atno 8009 bound_to 7997
  156.0524  140.1307  157.0024 H   0  0  0  0  0  0  0  0  0  0  0  0  # atno 8010 bound_to 7997
  140.0606  143.4971  152.2033 H   0  0  0  0  0  0  0  0  0  0  0  0  # atno 10167 bound_to 10162
  156.0695  130.5910  150.8484 H   0  0  0  0  0  0  0  0  0  0  0  0  # atno 10718 bound_to 10713
  152.9790  135.5933  154.3981 H   0  0  0  0  0  0  0  0  0  0  0  0  # atno 10763 bound_to 10752
  154.3629  135.2767  155.2311 H   0  0  0  0  0  0  0  0  0  0  0  0  # atno 10764 bound_to 10752
  154.4301  135.6038  153.6118 H   0  0  0  0  0  0  0  0  0  0  0  0  # atno 10765 bound_to 10752
  140.0111  134.9438  157.0279 H   0  0  0  0  0  0  0  0  0  0  0  0  # atno 11005 bound_to 11000
  145.1264  140.9492  143.4570 LP  0  0  0  0  0  0  0  0  0  0  0  0  # atno 17320 bound_to 7965
  145.0431  139.3243  143.5966 LP  0  0  0  0  0  0  0  0  0  0  0  0  # atno 17321 bound_to 7965
  139.5896  144.7545  151.3434 LP  0  0  0  0  0  0  0  0  0  0  0  0  # atno 17342 bound_to 10162
  140.7173  143.7231  150.7681 LP  0  0  0  0  0  0  0  0  0  0  0  0  # atno 17343 bound_to 10162
  157.5757  131.0946  150.9349 LP  0  0  0  0  0  0  0  0  0  0  0  0  # atno 17370 bound_to 10713
  156.9555  130.5436  149.5284 LP  0  0  0  0  0  0  0  0  0  0  0  0  # atno 17371 bound_to 10713
  140.4553  134.1540  155.7185 LP  0  0  0  0  0  0  0  0  0  0  0  0  # atno 17394 bound_to 11000
  141.1711  133.8606  157.1567 LP  0  0  0  0  0  0  0  0  0  0  0  0  # atno 17395 bound_to 11000

$$$$
