AV-unprocessed.smi:60|AV-procd|sdf|594|dock6
  -GOLD-   2262016493D 1   1.00000     0.00000
 Structure written by MMmdl.
 35 36  0  0  0  0  0  0  0  0  2 V2000
  153.8380  139.4504  158.5897 O   0  0  0  0  0  0  0  0  0  0  0  0
  152.9466  139.7661  157.8021 C   0  0  0  0  0  0  0  0  0  0  0  0
  152.9173  139.3044  156.5175 N   0  5  0  0  0  0  0  0  0  0  0  0
  151.9338  139.6204  155.6207 C   0  0  0  0  0  0  0  0  0  0  0  0
  151.9371  139.1957  154.4645 O   0  0  0  0  0  0  0  0  0  0  0  0
  150.9158  140.4329  156.0309 N   0  0  0  0  0  0  0  0  0  0  0  0
  149.8552  140.8248  155.1103 C   0  0  0  0  0  0  0  0  0  0  0  0
  148.5960  140.4587  155.5908 O   0  0  0  0  0  0  0  0  0  0  0  0
  147.5391  141.3589  155.2810 C   0  0  0  0  0  0  0  0  0  0  0  0
  147.6134  141.7201  153.7928 C   0  0  0  0  0  0  0  0  0  0  0  0
  147.4376  140.5651  153.0000 O   0  0  0  0  0  0  0  0  0  0  0  0
  150.9089  140.9565  157.3341 C   0  0  0  0  0  0  0  0  0  0  0  0
  151.8688  140.6630  158.2355 C   0  0  0  0  0  0  0  0  0  0  0  0
  151.8584  141.2475  159.6411 C   0  0  0  0  0  0  0  0  0  0  0  0
  151.9763  142.7606  159.6603 C   0  0  0  0  0  0  0  0  0  0  0  0
  151.9409  143.4624  160.8841 C   0  0  0  0  0  0  0  0  0  0  0  0
  152.0525  144.8665  160.8980 C   0  0  0  0  0  0  0  0  0  0  0  0
  152.2016  145.5739  159.6894 C   0  0  0  0  0  0  0  0  0  0  0  0
  152.2387  144.8766  158.4663 C   0  0  0  0  0  0  0  0  0  0  0  0
  152.1251  143.4729  158.4516 C   0  0  0  0  0  0  0  0  0  0  0  0
  149.8867  141.9086  154.9861 H   0  0  0  0  0  0  0  0  0  0  0  0
  150.0267  140.3782  154.1296 H   0  0  0  0  0  0  0  0  0  0  0  0
  146.5649  140.9381  155.5358 H   0  0  0  0  0  0  0  0  0  0  0  0
  147.6614  142.2708  155.8665 H   0  0  0  0  0  0  0  0  0  0  0  0
  146.8125  142.4159  153.5421 H   0  0  0  0  0  0  0  0  0  0  0  0
  148.5562  142.2114  153.5508 H   0  0  0  0  0  0  0  0  0  0  0  0
  148.2716  140.3298  152.6233 H   0  0  0  0  0  0  0  0  0  0  0  0
  150.0823  141.6148  157.5572 H   0  0  0  0  0  0  0  0  0  0  0  0
  150.9636  140.9483  160.1883 H   0  0  0  0  0  0  0  0  0  0  0  0
  152.6937  140.8174  160.1953 H   0  0  0  0  0  0  0  0  0  0  0  0
  151.8294  142.9267  161.8154 H   0  0  0  0  0  0  0  0  0  0  0  0
  152.0243  145.4006  161.8363 H   0  0  0  0  0  0  0  0  0  0  0  0
  152.2875  146.6505  159.7005 H   0  0  0  0  0  0  0  0  0  0  0  0
  152.3543  145.4177  157.5389 H   0  0  0  0  0  0  0  0  0  0  0  0
  152.1549  142.9427  157.5106 H   0  0  0  0  0  0  0  0  0  0  0  0
  1  2  2  0  0  0  0
  2 13  1  0  0  0  0
  2  3  1  0  0  0  0
  3  4  1  0  0  0  0
  4  5  2  0  0  0  0
  4  6  1  0  0  0  0
  6  7  1  0  0  0  0
  6 12  1  0  0  0  0
  7  8  1  0  0  0  0
  7 21  1  0  0  0  0
  7 22  1  0  0  0  0
  8  9  1  0  0  0  0
  9 10  1  0  0  0  0
  9 23  1  0  0  0  0
  9 24  1  0  0  0  0
 10 11  1  0  0  0  0
 10 25  1  0  0  0  0
 10 26  1  0  0  0  0
 11 27  1  0  0  0  0
 12 13  2  0  0  0  0
 12 28  1  0  0  0  0
 13 14  1  0  0  0  0
 14 15  1  0  0  0  0
 14 29  1  0  0  0  0
 14 30  1  0  0  0  0
 15 20  1  0  0  0  0
 15 16  2  0  0  0  0
 16 17  1  0  0  0  0
 16 31  1  0  0  0  0
 17 18  2  0  0  0  0
 17 32  1  0  0  0  0
 18 19  1  0  0  0  0
 18 33  1  0  0  0  0
 19 20  2  0  0  0  0
 19 34  1  0  0  0  0
 20 35  1  0  0  0  0
M  CHG  1   3  -1
M  END
> <s_m_source_file>
AV-unprocessed.smi

> <i_m_source_file_index>
60

> <i_lp_mmshare_version>
43012

> <i_f3d_flags>
0

> <s_epik_input>
W09IXVtDSDJdW0NIMl1PW0NIMl1uKGMoPU8pW25IXWMxPU8pW2NIXWMxW0NIMl1jMltjSF1bY0hdW2NIXVtjSF1bY0hdMg==

> <s_epik_cmdline>
J2VwaWtfcHl0aG9uJywgJy1waCcsICc3LjAnLCAnLXRuJywgJzgnLCAnLW1hJywgJzIwMCcsICctbWV0YWxfYmluZGluZycsICctaW1hZScsICc8aW5maWxlLm1hZT4nLCAnLW9tYWUnLCAnPG91dGZpbGUubWFlPic=

> <r_lp_tautomer_probability>
0.999537

> <r_epik_Ionization_Penalty>
3.13547

> <r_epik_Ionization_Penalty_Charging>
5.3765e-08

> <r_epik_Ionization_Penalty_Neutral>
3.13547

> <r_epik_State_Penalty>
3.13458

> <r_epik_Charging_Adjusted_Penalty>
3.13458

> <i_epik_Tot_Q>
-1

> <i_epik_Tot_abs_Q>
1

> <r_epik_Metal_State_Penalty>
0.106912

> <b_epik_Metal_Only>
1

> <s_epik_Chemistry_Notes>
This compound contains an acetal/aminal-like group ( X-CH(R)-Y where X, Y are N, S, or O) that may be acid/base labile, releasing an aldehyde.

> <s_lp_Force_Field>
OPLS_2005

> <r_lp_Energy>
15.9602

> <b_lp_Chiralities_Consistent>
1

> <s_lp_Variant>
AV-unprocessed.smi:60-2

> <Gold.Version>
5.8.1

> <Gold.Id.Protein>
6NUR|6NUR_protein|mol2

> <Gold.PLP.Fitness>
52.3149

> <Gold.PLP.PLP>
-42.5638

> <Gold.PLP.part.hbond>
-4.0000

> <Gold.PLP.part.metal>
0.0000

> <Gold.PLP.part.buried>
-1.2752

> <Gold.PLP.part.nonpolar>
-36.8352

> <Gold.PLP.part.repulsive>
0.1510

> <Gold.PLP.ligand.clash>
0.0000

> <Gold.PLP.ligand.torsion>
0.2919

> <Gold.PLP.Chemscore.Hbond>
3.4200

> <Gold.PLP.Chemscore.CHOScore>
0.0000

> <Gold.PLP.Chemscore.Metal>
0.0000

> <Gold.Chemscore.Hbonds>
donor molecule, donor type, donor heavy atom, donor atom, acceptor molecule, acceptor atom, score
      L1  H    11    27       P1  7957  1.00
      P1  H  7989  7998       L1     5  0.91
      P1  H  7997  8008       L1     3  1.02
      P1  H  7997  8010       L1     1  0.40

> <Gold.PLP.Chemscore.Internal.Correction>
0.0748

> <Gold.Rescore>
     Score         DG    S(hbond)    S(metal)    S(lipo)     H(rot)  DE(clash)    DE(int)     intcor
     11.60     -14.09       1.38        0.00     104.45       3.22       1.31       1.18       ----

> <Gold.Chemscore.Fitness>
11.5971

> <Gold.Chemscore.DG>
-14.0873

> <Gold.Chemscore.ZeroCoef>
-5.4800

> <Gold.Chemscore.Hbond>
1.3823

> <Gold.Chemscore.Metal>
0.0000

> <Gold.Chemscore.Lipo>
104.4530

> <Gold.Chemscore.Internal_Hbond>
0.0000

> <Gold.Chemscore.DEClash>
1.3142

> <Gold.Chemscore.DEInternal>
1.1759

> <Gold.Chemscore.Rot>
3.2151

> <Gold.Chemscore.Internal.Correction>
   9.000000E+99

> <Gold.Chemscore.Hbonds>
donor molecule, donor type, donor heavy atom, donor atom, acceptor molecule, acceptor atom, score
      L1  H    11    27       P1  7957  0.95
      P1  H  7989  7998       L1     5  0.23
      P1  H  7997  8008       L1     3  0.04
      P1  H  7997  8010       L1     1  0.04

> <Gold.Chemscore.Hbond.Weighted>
-4.6169

> <Gold.Chemscore.Metal.Weighted>
-0.0000

> <Gold.Chemscore.Lipo.Weighted>
-12.2210

> <Gold.Chemscore.Internal_Hbond.Weighted>
0.0000

> <Gold.Chemscore.DEClash.Weighted>
1.3142

> <Gold.Chemscore.DEInternal.Weighted>
1.1759

> <Gold.Chemscore.Rot.Weighted>
8.2306

> <Gold.Chemscore.Internal.Correction.Weighted>
   9.000000E+99

> <Gold.Protein.RotatedTorsions>
[ 6907 6896 6895 6894 ] final   63.42 input  -60.11 | X-H torsion
[ 7974 7965 7964 7962 ] final -146.61 input  175.53 | X-H torsion
[ 8008 7997 7996 7995 ] final  -16.13 input   59.86 | X-H torsion
[ 10167 10162 10161 10158 ] final  155.85 input  -65.29 | X-H torsion
[ 10718 10713 10712 10709 ] final   28.54 input   66.30 | X-H torsion
[ 10763 10752 10751 10750 ] final  -88.71 input  -60.55 | X-H torsion
[ 11005 11000 10999 10996 ] final  162.56 input  -57.11 | X-H torsion

> <Gold.Protein.ActiveResidues>
 VAL166  LYS551  ARG553  GLY616  TRP617  ASP618  TYR619  PRO620  LYS621  CYS622 
 ASP623  PHE694  ASN695  SER759  ASP760  ASP761  ALA762  ILE779  LEU786  VAL792 
 PHE793  MET794  SER795  GLU796  ALA797  LYS798  CYS799  TRP800  GLU811  SER814 

> <Gold.Protein.RotatedAtoms>
  152.4251  134.5883  159.9966 H   0  0  0  0  0  0  0  0  0  0  0  0  # atno 6907 bound_to 6896
  151.6021  133.3349  159.3057 H   0  0  0  0  0  0  0  0  0  0  0  0  # atno 6908 bound_to 6896
  150.8140  134.7349  159.6779 H   0  0  0  0  0  0  0  0  0  0  0  0  # atno 6909 bound_to 6896
  144.8148  140.5433  143.5618 H   0  0  0  0  0  0  0  0  0  0  0  0  # atno 7974 bound_to 7965
  154.5076  140.2177  155.9220 H   0  0  0  0  0  0  0  0  0  0  0  0  # atno 8008 bound_to 7997
  156.1513  140.3161  155.8619 H   0  0  0  0  0  0  0  0  0  0  0  0  # atno 8009 bound_to 7997
  155.3933  140.0479  157.3030 H   0  0  0  0  0  0  0  0  0  0  0  0  # atno 8010 bound_to 7997
  139.4821  144.5061  151.8095 H   0  0  0  0  0  0  0  0  0  0  0  0  # atno 10167 bound_to 10162
  157.2348  130.7041  149.6330 H   0  0  0  0  0  0  0  0  0  0  0  0  # atno 10718 bound_to 10713
  154.6475  135.5367  153.7862 H   0  0  0  0  0  0  0  0  0  0  0  0  # atno 10763 bound_to 10752
  153.0367  135.6474  154.1067 H   0  0  0  0  0  0  0  0  0  0  0  0  # atno 10764 bound_to 10752
  154.0987  135.2935  155.3236 H   0  0  0  0  0  0  0  0  0  0  0  0  # atno 10765 bound_to 10752
  140.2270  134.8153  157.3278 H   0  0  0  0  0  0  0  0  0  0  0  0  # atno 11005 bound_to 11000
  145.5240  139.1476  143.3536 LP  0  0  0  0  0  0  0  0  0  0  0  0  # atno 17320 bound_to 7965
  146.2450  140.5381  142.8918 LP  0  0  0  0  0  0  0  0  0  0  0  0  # atno 17321 bound_to 7965
  140.4560  144.1789  150.5901 LP  0  0  0  0  0  0  0  0  0  0  0  0  # atno 17342 bound_to 10162
  140.4535  143.2477  151.9316 LP  0  0  0  0  0  0  0  0  0  0  0  0  # atno 17343 bound_to 10162
  155.9673  130.4477  150.5590 LP  0  0  0  0  0  0  0  0  0  0  0  0  # atno 17370 bound_to 10713
  157.3440  131.0722  151.1766 LP  0  0  0  0  0  0  0  0  0  0  0  0  # atno 17371 bound_to 10713
  140.1790  134.4513  155.7784 LP  0  0  0  0  0  0  0  0  0  0  0  0  # atno 17394 bound_to 11000
  141.2220  133.6975  156.7837 LP  0  0  0  0  0  0  0  0  0  0  0  0  # atno 17395 bound_to 11000

$$$$
