AV-unprocessed.smi:1353|AV-procd|sdf|5532|dock7
  -GOLD-   22720 5123D 1   1.00000     0.00000
 Structure written by MMmdl.
 39 41  0  0  0  0  0  0  0  0  1 V2000
  151.9656  137.3316  154.0991 O   0  0  0  0  0  0  0  0  0  0  0  0
  152.3076  137.7724  155.3961 C   0  0  0  0  0  0  0  0  0  0  0  0
  152.4043  139.3069  155.4549 C   0  0  0  0  0  0  0  0  0  0  0  0
  151.0677  139.9924  155.3986 C   0  0  0  0  0  0  0  0  0  0  0  0
  150.4153  140.1387  154.2439 N   0  0  0  0  0  0  0  0  0  0  0  0
  149.2689  140.8085  154.6207 C   0  0  0  0  0  0  0  0  0  0  0  0
  148.1792  141.2693  153.8477 C   0  0  0  0  0  0  0  0  0  0  0  0
  147.1023  141.9416  154.4616 C   0  0  0  0  0  0  0  0  0  0  0  0
  147.0995  142.1613  155.8541 C   0  0  0  0  0  0  0  0  0  0  0  0
  148.1741  141.7075  156.6426 C   0  0  0  0  0  0  0  0  0  0  0  0
  149.2474  141.0365  156.0251 C   0  0  0  0  0  0  0  0  0  0  0  0
  150.4292  140.4724  156.4984 N   0  0  0  0  0  0  0  0  0  0  0  0
  150.8498  140.4301  157.8934 C   0  0  0  0  0  0  0  0  0  0  0  0
  152.2037  141.1158  158.1209 C   0  0  0  0  0  0  0  0  0  0  0  0
  152.2529  141.6329  159.4444 O   0  0  0  0  0  0  0  0  0  0  0  0
  152.1359  142.9943  159.6199 C   0  0  0  0  0  0  0  0  0  0  0  0
  152.0258  143.4597  160.9465 C   0  0  0  0  0  0  0  0  0  0  0  0
  151.9010  144.8355  161.2197 C   0  0  0  0  0  0  0  0  0  0  0  0
  151.8861  145.7638  160.1625 C   0  0  0  0  0  0  0  0  0  0  0  0
  151.9973  145.3134  158.8339 C   0  0  0  0  0  0  0  0  0  0  0  0
  152.1220  143.9371  158.5607 C   0  0  0  0  0  0  0  0  0  0  0  0
  151.0485  137.1034  154.0909 H   0  0  0  0  0  0  0  0  0  0  0  0
  151.5844  137.3935  156.1188 H   0  0  0  0  0  0  0  0  0  0  0  0
  153.2724  137.3342  155.6522 H   0  0  0  0  0  0  0  0  0  0  0  0
  152.8790  139.5947  156.3935 H   0  0  0  0  0  0  0  0  0  0  0  0
  153.0662  139.6632  154.6677 H   0  0  0  0  0  0  0  0  0  0  0  0
  148.1730  141.1067  152.7801 H   0  0  0  0  0  0  0  0  0  0  0  0
  146.2751  142.2911  153.8612 H   0  0  0  0  0  0  0  0  0  0  0  0
  146.2718  142.6785  156.3170 H   0  0  0  0  0  0  0  0  0  0  0  0
  148.1743  141.8771  157.7090 H   0  0  0  0  0  0  0  0  0  0  0  0
  150.0888  140.9246  158.4973 H   0  0  0  0  0  0  0  0  0  0  0  0
  150.8721  139.3961  158.2369 H   0  0  0  0  0  0  0  0  0  0  0  0
  153.0087  140.3958  157.9676 H   0  0  0  0  0  0  0  0  0  0  0  0
  152.3329  141.9158  157.3931 H   0  0  0  0  0  0  0  0  0  0  0  0
  152.0349  142.7531  161.7635 H   0  0  0  0  0  0  0  0  0  0  0  0
  151.8161  145.1777  162.2404 H   0  0  0  0  0  0  0  0  0  0  0  0
  151.7900  146.8194  160.3702 H   0  0  0  0  0  0  0  0  0  0  0  0
  151.9868  146.0248  158.0214 H   0  0  0  0  0  0  0  0  0  0  0  0
  152.2068  143.6302  157.5296 H   0  0  0  0  0  0  0  0  0  0  0  0
  1  2  1  0  0  0  0
  1 22  1  0  0  0  0
  2  3  1  0  0  0  0
  2 23  1  0  0  0  0
  2 24  1  0  0  0  0
  3  4  1  0  0  0  0
  3 25  1  0  0  0  0
  3 26  1  0  0  0  0
  4 12  1  0  0  0  0
  4  5  2  0  0  0  0
  5  6  1  0  0  0  0
  6 11  2  0  0  0  0
  6  7  1  0  0  0  0
  7  8  2  0  0  0  0
  7 27  1  0  0  0  0
  8  9  1  0  0  0  0
  8 28  1  0  0  0  0
  9 10  2  0  0  0  0
  9 29  1  0  0  0  0
 10 11  1  0  0  0  0
 10 30  1  0  0  0  0
 11 12  1  0  0  0  0
 12 13  1  0  0  0  0
 13 14  1  0  0  0  0
 13 31  1  0  0  0  0
 13 32  1  0  0  0  0
 14 15  1  0  0  0  0
 14 33  1  0  0  0  0
 14 34  1  0  0  0  0
 15 16  1  0  0  0  0
 16 21  1  0  0  0  0
 16 17  2  0  0  0  0
 17 18  1  0  0  0  0
 17 35  1  0  0  0  0
 18 19  2  0  0  0  0
 18 36  1  0  0  0  0
 19 20  1  0  0  0  0
 19 37  1  0  0  0  0
 20 21  2  0  0  0  0
 20 38  1  0  0  0  0
 21 39  1  0  0  0  0
M  END
> <s_m_source_file>
AV-unprocessed.smi

> <i_m_source_file_index>
1353

> <i_lp_mmshare_version>
43012

> <i_f3d_flags>
0

> <s_epik_input>
W2NIXTFbY0hdW2NIXVtjSF1jKGMxMiluKGMobjIpW0NIMl1bQ0gyXVtPSF0pW0NIMl1bQ0gyXU9jM1tjSF1bY0hdW2NIXVtjSF1bY0hdMw==

> <s_epik_cmdline>
J2VwaWtfcHl0aG9uJywgJy1waCcsICc3LjAnLCAnLXRuJywgJzgnLCAnLW1hJywgJzIwMCcsICctbWV0YWxfYmluZGluZycsICctaW1hZScsICc8aW5maWxlLm1hZT4nLCAnLW9tYWUnLCAnPG91dGZpbGUubWFlPic=

> <r_lp_tautomer_probability>
1

> <r_epik_Ionization_Penalty>
0.230562

> <r_epik_Ionization_Penalty_Charging>
0

> <r_epik_Ionization_Penalty_Neutral>
0.230562

> <r_epik_State_Penalty>
0.221203

> <r_epik_Charging_Adjusted_Penalty>
0.221203

> <i_epik_Tot_Q>
0

> <i_epik_Tot_abs_Q>
0

> <r_epik_Metal_State_Penalty>
0.000268091

> <b_epik_Metal_Only>
0

> <s_lp_Force_Field>
OPLS_2005

> <r_lp_Energy>
15.7907

> <b_lp_Chiralities_Consistent>
1

> <s_lp_Variant>
AV-unprocessed.smi:1353-1

> <Gold.Version>
5.8.1

> <Gold.Id.Protein>
6NUR|6NUR_protein|mol2

> <Gold.PLP.Fitness>
53.5341

> <Gold.PLP.PLP>
-49.9834

> <Gold.PLP.part.hbond>
-3.0000

> <Gold.PLP.part.metal>
0.0000

> <Gold.PLP.part.buried>
-1.3736

> <Gold.PLP.part.nonpolar>
-45.9571

> <Gold.PLP.part.repulsive>
0.1261

> <Gold.PLP.ligand.clash>
0.0000

> <Gold.PLP.ligand.torsion>
0.8675

> <Gold.PLP.Chemscore.Hbond>
1.7440

> <Gold.PLP.Chemscore.CHOScore>
0.0000

> <Gold.PLP.Chemscore.Metal>
0.0000

> <Gold.Chemscore.Hbonds>
donor molecule, donor type, donor heavy atom, donor atom, acceptor molecule, acceptor atom, score
      P1  H  7989  7998       L1     5  0.80
      P1  H 10752 10764       L1     1  0.94

> <Gold.PLP.Chemscore.Internal.Correction>
0.0538

> <Gold.Rescore>
     Score         DG    S(hbond)    S(metal)    S(lipo)     H(rot)  DE(clash)    DE(int)     intcor
     16.38     -17.73       0.79        0.00     132.52       2.31       0.46       0.88       ----

> <Gold.Chemscore.Fitness>
16.3843

> <Gold.Chemscore.DG>
-17.7268

> <Gold.Chemscore.ZeroCoef>
-5.4800

> <Gold.Chemscore.Hbond>
0.7950

> <Gold.Chemscore.Metal>
0.0000

> <Gold.Chemscore.Lipo>
132.5189

> <Gold.Chemscore.Internal_Hbond>
0.0000

> <Gold.Chemscore.DEClash>
0.4648

> <Gold.Chemscore.DEInternal>
0.8777

> <Gold.Chemscore.Rot>
2.3098

> <Gold.Chemscore.Internal.Correction>
   9.000000E+99

> <Gold.Chemscore.Hbonds>
donor molecule, donor type, donor heavy atom, donor atom, acceptor molecule, acceptor atom, score
      P1  H  7989  7998       L1     5  0.11
      P1  H 10752 10764       L1     1  0.17

> <Gold.Chemscore.Hbond.Weighted>
-2.6552

> <Gold.Chemscore.Metal.Weighted>
-0.0000

> <Gold.Chemscore.Lipo.Weighted>
-15.5047

> <Gold.Chemscore.Internal_Hbond.Weighted>
0.0000

> <Gold.Chemscore.DEClash.Weighted>
0.4648

> <Gold.Chemscore.DEInternal.Weighted>
0.8777

> <Gold.Chemscore.Rot.Weighted>
5.9131

> <Gold.Chemscore.Internal.Correction.Weighted>
   9.000000E+99

> <Gold.Protein.RotatedTorsions>
[ 6907 6896 6895 6894 ] final -174.87 input  -60.11 | X-H torsion
[ 7974 7965 7964 7962 ] final -169.99 input  175.53 | X-H torsion
[ 8008 7997 7996 7995 ] final  155.56 input   59.86 | X-H torsion
[ 10167 10162 10161 10158 ] final -120.46 input  -65.29 | X-H torsion
[ 10718 10713 10712 10709 ] final -153.92 input   66.30 | X-H torsion
[ 10763 10752 10751 10750 ] final  -96.14 input  -60.55 | X-H torsion
[ 11005 11000 10999 10996 ] final  -76.08 input  -57.11 | X-H torsion

> <Gold.Protein.ActiveResidues>
 VAL166  LYS551  ARG553  GLY616  TRP617  ASP618  TYR619  PRO620  LYS621  CYS622 
 ASP623  PHE694  ASN695  SER759  ASP760  ASP761  ALA762  ILE779  LEU786  VAL792 
 PHE793  MET794  SER795  GLU796  ALA797  LYS798  CYS799  TRP800  GLU811  SER814 

> <Gold.Protein.RotatedAtoms>
  151.5793  133.3380  159.3004 H   0  0  0  0  0  0  0  0  0  0  0  0  # atno 6907 bound_to 6896
  150.8322  134.7584  159.6875 H   0  0  0  0  0  0  0  0  0  0  0  0  # atno 6908 bound_to 6896
  152.4404  134.5608  159.9945 H   0  0  0  0  0  0  0  0  0  0  0  0  # atno 6909 bound_to 6896
  144.7177  140.2138  143.6324 H   0  0  0  0  0  0  0  0  0  0  0  0  # atno 7974 bound_to 7965
  156.2471  140.1936  156.6820 H   0  0  0  0  0  0  0  0  0  0  0  0  # atno 8008 bound_to 7997
  154.6315  140.0595  156.9763 H   0  0  0  0  0  0  0  0  0  0  0  0  # atno 8009 bound_to 7997
  155.1704  140.3267  155.4396 H   0  0  0  0  0  0  0  0  0  0  0  0  # atno 8010 bound_to 7997
  140.0356  143.5205  152.2155 H   0  0  0  0  0  0  0  0  0  0  0  0  # atno 10167 bound_to 10162
  156.4923  130.8353  151.2575 H   0  0  0  0  0  0  0  0  0  0  0  0  # atno 10718 bound_to 10713
  154.7212  135.5095  153.8815 H   0  0  0  0  0  0  0  0  0  0  0  0  # atno 10763 bound_to 10752
  153.0864  135.6646  153.9949 H   0  0  0  0  0  0  0  0  0  0  0  0  # atno 10764 bound_to 10752
  153.9772  135.3032  155.3402 H   0  0  0  0  0  0  0  0  0  0  0  0  # atno 10765 bound_to 10752
  141.1651  133.6970  156.7615 H   0  0  0  0  0  0  0  0  0  0  0  0  # atno 11005 bound_to 11000
  145.8566  139.2201  143.1741 LP  0  0  0  0  0  0  0  0  0  0  0  0  # atno 17320 bound_to 7965
  146.0212  140.8346  142.9922 LP  0  0  0  0  0  0  0  0  0  0  0  0  # atno 17321 bound_to 7965
  139.6047  144.7593  151.3089 LP  0  0  0  0  0  0  0  0  0  0  0  0  # atno 17342 bound_to 10162
  140.7283  143.6939  150.7899 LP  0  0  0  0  0  0  0  0  0  0  0  0  # atno 17343 bound_to 10162
  157.7472  131.0009  150.2945 LP  0  0  0  0  0  0  0  0  0  0  0  0  # atno 17370 bound_to 10713
  156.3414  130.3816  149.7405 LP  0  0  0  0  0  0  0  0  0  0  0  0  # atno 17371 bound_to 10713
  140.2530  134.8526  157.3686 LP  0  0  0  0  0  0  0  0  0  0  0  0  # atno 17394 bound_to 11000
  140.1684  134.4640  155.7848 LP  0  0  0  0  0  0  0  0  0  0  0  0  # atno 17395 bound_to 11000

$$$$
