AV-unprocessed.smi:1578|AV-procd|sdf|6352|dock1
  -GOLD-   22720 6573D 1   1.00000     0.00000
 Structure written by MMmdl.
 45 46  0  0  0  0  0  0  0  0  2 V2000
  147.9609  137.3280  157.2453 C   0  0  0  0  0  0  0  0  0  0  0  0
  148.6418  137.4390  155.8748 C   0  0  2  0  0  0  0  0  0  0  0  0
  149.3958  136.1425  155.5051 C   0  0  0  0  0  0  0  0  0  0  0  0
  148.6474  135.3009  154.5369 N   0  3  0  0  0  0  0  0  0  0  0  0
  149.2649  133.9729  154.3165 C   0  0  0  0  0  0  0  0  0  0  0  0
  148.4858  133.1989  153.2393 C   0  0  0  0  0  0  0  0  0  0  0  0
  147.1218  133.0819  153.6260 O   0  0  0  0  0  0  0  0  0  0  0  0
  146.4949  134.3512  153.7662 C   0  0  0  0  0  0  0  0  0  0  0  0
  147.2083  135.1589  154.8628 C   0  0  0  0  0  0  0  0  0  0  0  0
  149.5620  138.5751  155.8813 N   0  0  0  0  0  0  0  0  0  0  0  0
  149.2528  139.8514  156.1726 C   0  0  0  0  0  0  0  0  0  0  0  0
  148.1283  140.2023  156.5263 O   0  0  0  0  0  0  0  0  0  0  0  0
  150.3464  140.9183  155.9965 C   0  0  0  0  0  0  0  0  0  0  0  0
  151.1687  141.1486  157.1977 N   0  0  0  0  0  0  0  0  0  0  0  0
  151.1984  142.4662  157.6959 C   0  0  0  0  0  0  0  0  0  0  0  0
  151.9160  142.8260  158.7768 C   0  0  0  0  0  0  0  0  0  0  0  0
  151.9863  144.2722  159.2418 C   0  0  0  0  0  0  0  0  0  0  0  0
  152.6093  144.3697  160.4162 F   0  0  0  0  0  0  0  0  0  0  0  0
  152.6395  145.0280  158.3579 F   0  0  0  0  0  0  0  0  0  0  0  0
  150.7565  144.7647  159.3800 F   0  0  0  0  0  0  0  0  0  0  0  0
  152.6938  141.7797  159.4109 C   0  0  0  0  0  0  0  0  0  0  0  0
  152.6894  140.5180  158.9377 C   0  0  0  0  0  0  0  0  0  0  0  0
  151.9012  140.1421  157.7618 C   0  0  0  0  0  0  0  0  0  0  0  0
  151.9089  138.9995  157.3048 O   0  0  0  0  0  0  0  0  0  0  0  0
  147.2537  136.4984  157.2653 H   0  0  0  0  0  0  0  0  0  0  0  0
  147.4073  138.2370  157.4830 H   0  0  0  0  0  0  0  0  0  0  0  0
  148.6888  137.1643  158.0409 H   0  0  0  0  0  0  0  0  0  0  0  0
  147.8525  137.6065  155.1409 H   0  0  0  0  0  0  0  0  0  0  0  0
  150.3505  136.4248  155.0581 H   0  0  0  0  0  0  0  0  0  0  0  0
  149.6376  135.5630  156.3972 H   0  0  0  0  0  0  0  0  0  0  0  0
  150.3019  134.0932  154.0008 H   0  0  0  0  0  0  0  0  0  0  0  0
  149.2745  133.4120  155.2524 H   0  0  0  0  0  0  0  0  0  0  0  0
  148.5589  133.6986  152.2719 H   0  0  0  0  0  0  0  0  0  0  0  0
  148.9061  132.2009  153.1148 H   0  0  0  0  0  0  0  0  0  0  0  0
  146.5111  134.8869  152.8154 H   0  0  0  0  0  0  0  0  0  0  0  0
  145.4479  134.2021  154.0300 H   0  0  0  0  0  0  0  0  0  0  0  0
  147.0963  134.6605  155.8268 H   0  0  0  0  0  0  0  0  0  0  0  0
  146.7411  136.1391  154.9538 H   0  0  0  0  0  0  0  0  0  0  0  0
  150.5155  138.3791  155.6118 H   0  0  0  0  0  0  0  0  0  0  0  0
  150.9922  140.6135  155.1712 H   0  0  0  0  0  0  0  0  0  0  0  0
  149.8748  141.8412  155.6556 H   0  0  0  0  0  0  0  0  0  0  0  0
  150.6093  143.1719  157.1274 H   0  0  0  0  0  0  0  0  0  0  0  0
  153.2866  142.0091  160.2842 H   0  0  0  0  0  0  0  0  0  0  0  0
  153.2794  139.7636  159.4378 H   0  0  0  0  0  0  0  0  0  0  0  0
  148.6987  135.7821  153.6503 H   0  0  0  0  0  0  0  0  0  0  0  0
  1  2  1  0  0  0  0
  1 25  1  0  0  0  0
  1 26  1  0  0  0  0
  1 27  1  0  0  0  0
  2  3  1  0  0  0  0
  2 10  1  0  0  0  0
  2 28  1  0  0  0  0
  3  4  1  0  0  0  0
  3 29  1  0  0  0  0
  3 30  1  0  0  0  0
  4  9  1  0  0  0  0
  4  5  1  0  0  0  0
  4 45  1  0  0  0  0
  5  6  1  0  0  0  0
  5 31  1  0  0  0  0
  5 32  1  0  0  0  0
  6  7  1  0  0  0  0
  6 33  1  0  0  0  0
  6 34  1  0  0  0  0
  7  8  1  0  0  0  0
  8  9  1  0  0  0  0
  8 35  1  0  0  0  0
  8 36  1  0  0  0  0
  9 37  1  0  0  0  0
  9 38  1  0  0  0  0
 10 11  1  0  0  0  0
 10 39  1  0  0  0  0
 11 12  2  0  0  0  0
 11 13  1  0  0  0  0
 13 14  1  0  0  0  0
 13 40  1  0  0  0  0
 13 41  1  0  0  0  0
 14 23  1  0  0  0  0
 14 15  1  0  0  0  0
 15 16  2  0  0  0  0
 15 42  1  0  0  0  0
 16 17  1  0  0  0  0
 16 21  1  0  0  0  0
 17 18  1  0  0  0  0
 17 19  1  0  0  0  0
 17 20  1  0  0  0  0
 21 22  2  0  0  0  0
 21 43  1  0  0  0  0
 22 23  1  0  0  0  0
 22 44  1  0  0  0  0
 23 24  2  0  0  0  0
M  CHG  1   4   1
M  END
> <s_m_source_file>
AV-unprocessed.smi

> <i_m_source_file_index>
1578

> <i_lp_mmshare_version>
43012

> <i_f3d_flags>
0

> <s_epik_input>
W0NIMl0xW0NIMl1PW0NIMl1bQ0gyXU4xW0NIMl1bQ0BASF0oW0NIM10pW05IXUMoPU8pW0NIMl1uMltjSF1jKEMoRikoRilGKVtjSF1bY0hdYzI9Tw==

> <s_epik_cmdline>
J2VwaWtfcHl0aG9uJywgJy1waCcsICc3LjAnLCAnLXRuJywgJzgnLCAnLW1hJywgJzIwMCcsICctbWV0YWxfYmluZGluZycsICctaW1hZScsICc8aW5maWxlLm1hZT4nLCAnLW9tYWUnLCAnPG91dGZpbGUubWFlPic=

> <r_lp_tautomer_probability>
1

> <r_epik_Ionization_Penalty>
0.656654

> <r_epik_Ionization_Penalty_Charging>
0.656653

> <r_epik_Ionization_Penalty_Neutral>
9.12373e-08

> <r_epik_State_Penalty>
0.675641

> <r_epik_Charging_Adjusted_Penalty>
1.33229

> <i_epik_Tot_Q>
1

> <i_epik_Tot_abs_Q>
1

> <r_epik_Metal_State_Penalty>
0.675695

> <b_epik_Metal_Only>
0

> <s_lp_Force_Field>
OPLS_2005

> <r_lp_Energy>
34.2523

> <b_lp_Chiralities_Consistent>
1

> <s_lp_Variant>
AV-unprocessed.smi:1578-3

> <Gold.Version>
5.8.1

> <Gold.Id.Protein>
6NUR|6NUR_protein|mol2

> <Gold.PLP.Fitness>
47.2648

> <Gold.PLP.PLP>
-40.6014

> <Gold.PLP.part.hbond>
-1.0000

> <Gold.PLP.part.metal>
0.0000

> <Gold.PLP.part.buried>
-6.9197

> <Gold.PLP.part.nonpolar>
-33.5105

> <Gold.PLP.part.repulsive>
0.1255

> <Gold.PLP.ligand.clash>
0.0000

> <Gold.PLP.ligand.torsion>
1.3462

> <Gold.PLP.Chemscore.Hbond>
2.0000

> <Gold.PLP.Chemscore.CHOScore>
0.9867

> <Gold.PLP.Chemscore.Metal>
0.0000

> <Gold.Chemscore.Hbonds>
donor molecule, donor type, donor heavy atom, donor atom, acceptor molecule, acceptor atom, score
      L1  H     4    45       P1  7948  2.00
      L1  C    15    42       P1  8028  0.49

> <Gold.PLP.Chemscore.Internal.Correction>
0.3957

> <Gold.Rescore>
     Score         DG    S(hbond)    S(metal)    S(lipo)     H(rot)  DE(clash)    DE(int)     intcor
      9.24     -11.71       0.99        0.00      72.54       2.17       0.02       2.45       ----

> <Gold.Chemscore.Fitness>
9.2419

> <Gold.Chemscore.DG>
-11.7132

> <Gold.Chemscore.ZeroCoef>
-5.4800

> <Gold.Chemscore.Hbond>
0.9897

> <Gold.Chemscore.Metal>
0.0000

> <Gold.Chemscore.Lipo>
72.5378

> <Gold.Chemscore.Internal_Hbond>
0.0000

> <Gold.Chemscore.DEClash>
0.0198

> <Gold.Chemscore.DEInternal>
2.4515

> <Gold.Chemscore.Rot>
2.1716

> <Gold.Chemscore.Internal.Correction>
   9.000000E+99

> <Gold.Chemscore.Hbonds>
donor molecule, donor type, donor heavy atom, donor atom, acceptor molecule, acceptor atom, score
      L1  H     4    45       P1  7948  0.99

> <Gold.Chemscore.Hbond.Weighted>
-3.3055

> <Gold.Chemscore.Metal.Weighted>
-0.0000

> <Gold.Chemscore.Lipo.Weighted>
-8.4869

> <Gold.Chemscore.Internal_Hbond.Weighted>
0.0000

> <Gold.Chemscore.DEClash.Weighted>
0.0198

> <Gold.Chemscore.DEInternal.Weighted>
2.4515

> <Gold.Chemscore.Rot.Weighted>
5.5592

> <Gold.Chemscore.Internal.Correction.Weighted>
   9.000000E+99

> <Gold.Protein.RotatedTorsions>
[ 6907 6896 6895 6894 ] final   68.89 input  -60.11 | X-H torsion
[ 7974 7965 7964 7962 ] final -142.27 input  175.53 | X-H torsion
[ 8008 7997 7996 7995 ] final  134.38 input   59.86 | X-H torsion
[ 10167 10162 10161 10158 ] final -121.23 input  -65.29 | X-H torsion
[ 10718 10713 10712 10709 ] final -121.79 input   66.30 | X-H torsion
[ 10763 10752 10751 10750 ] final   89.54 input  -60.55 | X-H torsion
[ 11005 11000 10999 10996 ] final  -18.13 input  -57.11 | X-H torsion

> <Gold.Protein.ActiveResidues>
 VAL166  LYS551  ARG553  GLY616  TRP617  ASP618  TYR619  PRO620  LYS621  CYS622 
 ASP623  PHE694  ASN695  SER759  ASP760  ASP761  ALA762  ILE779  LEU786  VAL792 
 PHE793  MET794  SER795  GLU796  ALA797  LYS798  CYS799  TRP800  GLU811  SER814 

> <Gold.Protein.RotatedAtoms>
  152.4650  134.5096  159.9749 H   0  0  0  0  0  0  0  0  0  0  0  0  # atno 6907 bound_to 6896
  151.5135  133.3474  159.2897 H   0  0  0  0  0  0  0  0  0  0  0  0  # atno 6908 bound_to 6896
  150.8631  134.8016  159.7160 H   0  0  0  0  0  0  0  0  0  0  0  0  # atno 6909 bound_to 6896
  144.8456  140.5978  143.5424 H   0  0  0  0  0  0  0  0  0  0  0  0  # atno 7974 bound_to 7965
  156.2998  140.2497  156.3408 H   0  0  0  0  0  0  0  0  0  0  0  0  # atno 8008 bound_to 7997
  154.9057  140.0405  157.1937 H   0  0  0  0  0  0  0  0  0  0  0  0  # atno 8009 bound_to 7997
  154.8456  140.2898  155.5635 H   0  0  0  0  0  0  0  0  0  0  0  0  # atno 8010 bound_to 7997
  140.0272  143.5284  152.2193 H   0  0  0  0  0  0  0  0  0  0  0  0  # atno 10167 bound_to 10162
  156.1366  130.6435  150.9706 H   0  0  0  0  0  0  0  0  0  0  0  0  # atno 10718 bound_to 10713
  153.1882  135.4466  155.0116 H   0  0  0  0  0  0  0  0  0  0  0  0  # atno 10763 bound_to 10752
  154.8074  135.3280  154.7399 H   0  0  0  0  0  0  0  0  0  0  0  0  # atno 10764 bound_to 10752
  153.7856  135.6974  153.4936 H   0  0  0  0  0  0  0  0  0  0  0  0  # atno 10765 bound_to 10752
  140.8238  133.8048  155.9686 H   0  0  0  0  0  0  0  0  0  0  0  0  # atno 11005 bound_to 11000
  145.4604  139.1513  143.3869 LP  0  0  0  0  0  0  0  0  0  0  0  0  # atno 17320 bound_to 7965
  146.2741  140.4734  142.8802 LP  0  0  0  0  0  0  0  0  0  0  0  0  # atno 17321 bound_to 7965
  139.6100  144.7606  151.2974 LP  0  0  0  0  0  0  0  0  0  0  0  0  # atno 17342 bound_to 10162
  140.7317  143.6843  150.7974 LP  0  0  0  0  0  0  0  0  0  0  0  0  # atno 17343 bound_to 10162
  157.6538  131.0893  150.7993 LP  0  0  0  0  0  0  0  0  0  0  0  0  # atno 17370 bound_to 10713
  156.8072  130.4940  149.5361 LP  0  0  0  0  0  0  0  0  0  0  0  0  # atno 17371 bound_to 10713
  140.9071  134.2306  157.5008 LP  0  0  0  0  0  0  0  0  0  0  0  0  # atno 17394 bound_to 11000
  139.8707  134.9733  156.4805 LP  0  0  0  0  0  0  0  0  0  0  0  0  # atno 17395 bound_to 11000

$$$$
