AV-unprocessed.smi:949|AV-procd|sdf|4245|dock3
  -GOLD-   22720 2153D 1   1.00000     0.00000
 Structure written by MMmdl.
 33 34  0  0  0  0  0  0  0  0  2 V2000
  150.3677  141.0095  158.1680 C   0  0  0  0  0  0  0  0  0  0  0  0
  151.0235  141.9144  157.1082 C   0  0  1  0  0  0  0  0  0  0  0  0
  150.1542  142.0403  155.9437 N   0  0  0  0  0  0  0  0  0  0  0  0
  149.8068  140.9518  155.1238 C   0  0  0  0  0  0  0  0  0  0  0  0
  150.5483  139.7431  155.1058 C   0  0  0  0  0  0  0  0  0  0  0  0
  150.1466  138.6902  154.2599 C   0  0  0  0  0  0  0  0  0  0  0  0
  149.0619  138.8366  153.4714 N   0  3  0  0  0  0  0  0  0  0  0  0
  148.3237  139.9657  153.4503 C   0  0  0  0  0  0  0  0  0  0  0  0
  148.6732  141.0555  154.2753 C   0  0  0  0  0  0  0  0  0  0  0  0
  147.8921  142.2131  154.2347 N   0  0  0  0  0  0  0  0  0  0  0  0
  151.3335  143.3147  157.6720 C   0  0  1  0  0  0  0  0  0  0  0  0
  150.2849  143.8647  158.6415 C   0  0  0  0  0  0  0  0  0  0  0  0
  151.0705  144.8223  159.5247 C   0  0  0  0  0  0  0  0  0  0  0  0
  152.5338  144.4801  159.2356 C   0  0  0  0  0  0  0  0  0  0  0  0
  152.4873  143.2674  158.4981 O   0  0  0  0  0  0  0  0  0  0  0  0
  151.0253  140.8581  159.0240 H   0  0  0  0  0  0  0  0  0  0  0  0
  150.1321  140.0231  157.7688 H   0  0  0  0  0  0  0  0  0  0  0  0
  149.4386  141.4444  158.5376 H   0  0  0  0  0  0  0  0  0  0  0  0
  151.9699  141.4712  156.7982 H   0  0  0  0  0  0  0  0  0  0  0  0
  149.9034  142.9717  155.6445 H   0  0  0  0  0  0  0  0  0  0  0  0
  151.4186  139.6010  155.7277 H   0  0  0  0  0  0  0  0  0  0  0  0
  150.6583  137.7412  154.1921 H   0  0  0  0  0  0  0  0  0  0  0  0
  147.4791  139.9619  152.7765 H   0  0  0  0  0  0  0  0  0  0  0  0
  148.1090  143.0154  154.8088 H   0  0  0  0  0  0  0  0  0  0  0  0
  147.0067  142.2307  153.7488 H   0  0  0  0  0  0  0  0  0  0  0  0
  151.5027  144.0290  156.8635 H   0  0  0  0  0  0  0  0  0  0  0  0
  149.4536  144.3504  158.1294 H   0  0  0  0  0  0  0  0  0  0  0  0
  149.8776  143.0589  159.2537 H   0  0  0  0  0  0  0  0  0  0  0  0
  150.8614  145.8635  159.2760 H   0  0  0  0  0  0  0  0  0  0  0  0
  150.8223  144.6716  160.5760 H   0  0  0  0  0  0  0  0  0  0  0  0
  152.9954  145.2554  158.6224 H   0  0  0  0  0  0  0  0  0  0  0  0
  153.1262  144.3662  160.1436 H   0  0  0  0  0  0  0  0  0  0  0  0
  148.7885  138.0619  152.8661 H   0  0  0  0  0  0  0  0  0  0  0  0
  1  2  1  0  0  0  0
  1 16  1  0  0  0  0
  1 17  1  0  0  0  0
  1 18  1  0  0  0  0
  2  3  1  0  0  0  0
  2 11  1  0  0  0  0
  2 19  1  0  0  0  0
  3  4  1  0  0  0  0
  3 20  1  0  0  0  0
  4  9  1  0  0  0  0
  4  5  2  0  0  0  0
  5  6  1  0  0  0  0
  5 21  1  0  0  0  0
  6  7  2  0  0  0  0
  6 22  1  0  0  0  0
  7  8  1  0  0  0  0
  7 33  1  0  0  0  0
  8  9  2  0  0  0  0
  8 23  1  0  0  0  0
  9 10  1  0  0  0  0
 10 24  1  0  0  0  0
 10 25  1  0  0  0  0
 11 15  1  0  0  0  0
 11 12  1  0  0  0  0
 11 26  1  0  0  0  0
 12 13  1  0  0  0  0
 12 27  1  0  0  0  0
 12 28  1  0  0  0  0
 13 14  1  0  0  0  0
 13 29  1  0  0  0  0
 13 30  1  0  0  0  0
 14 15  1  0  0  0  0
 14 31  1  0  0  0  0
 14 32  1  0  0  0  0
M  CHG  1   7   1
M  END
> <s_m_source_file>
AV-unprocessed.smi

> <i_m_source_file_index>
949

> <i_lp_mmshare_version>
43012

> <i_f3d_flags>
0

> <s_epik_input>
TzFbQ0gyXVtDSDJdW0NIMl1bQ0BIXTFbQ0BIXShbQ0gzXSlbTkhdYzJbY0hdW2NIXW5bY0hdYzJbTkgyXQ==

> <s_epik_cmdline>
J2VwaWtfcHl0aG9uJywgJy1waCcsICc3LjAnLCAnLXRuJywgJzgnLCAnLW1hJywgJzIwMCcsICctbWV0YWxfYmluZGluZycsICctaW1hZScsICc8aW5maWxlLm1hZT4nLCAnLW9tYWUnLCAnPG91dGZpbGUubWFlPic=

> <r_epik_Ionization_Penalty>
0.000849261

> <r_epik_Ionization_Penalty_Charging>
0.000847912

> <r_epik_Ionization_Penalty_Neutral>
1.34939e-06

> <r_epik_State_Penalty>
0.000546618

> <r_epik_Charging_Adjusted_Penalty>
0.00139453

> <i_epik_Tot_Q>
1

> <i_epik_Tot_abs_Q>
1

> <r_epik_Metal_State_Penalty>
0.526583

> <b_epik_Metal_Only>
0

> <s_lp_Force_Field>
OPLS_2005

> <r_lp_Energy>
30.4076

> <b_lp_Chiralities_Consistent>
1

> <s_lp_Variant>
AV-unprocessed.smi:949-4

> <Gold.Version>
5.8.1

> <Gold.Id.Protein>
6NUR|6NUR_protein|mol2

> <Gold.PLP.Fitness>
43.7867

> <Gold.PLP.PLP>
-33.1133

> <Gold.PLP.part.hbond>
-3.9800

> <Gold.PLP.part.metal>
0.0000

> <Gold.PLP.part.buried>
-1.1556

> <Gold.PLP.part.nonpolar>
-29.2523

> <Gold.PLP.part.repulsive>
0.4246

> <Gold.PLP.ligand.clash>
0.0000

> <Gold.PLP.ligand.torsion>
0.5161

> <Gold.PLP.Chemscore.Hbond>
3.8925

> <Gold.PLP.Chemscore.CHOScore>
0.0000

> <Gold.PLP.Chemscore.Metal>
0.0000

> <Gold.Chemscore.Hbonds>
donor molecule, donor type, donor heavy atom, donor atom, acceptor molecule, acceptor atom, score
      L1  H     3    20       P1  8028  1.00
      L1  H     7    33       P1  7948  1.82
      L1  H    10    24       P1  8028  1.00

> <Gold.PLP.Chemscore.Internal.Correction>
0.0282

> <Gold.Rescore>
     Score         DG    S(hbond)    S(metal)    S(lipo)     H(rot)  DE(clash)    DE(int)     intcor
     20.16     -21.97       2.68        0.00      91.51       1.23       1.40       0.41       ----

> <Gold.Chemscore.Fitness>
20.1583

> <Gold.Chemscore.DG>
-21.9665

> <Gold.Chemscore.ZeroCoef>
-5.4800

> <Gold.Chemscore.Hbond>
2.6769

> <Gold.Chemscore.Metal>
0.0000

> <Gold.Chemscore.Lipo>
91.5091

> <Gold.Chemscore.Internal_Hbond>
0.0000

> <Gold.Chemscore.DEClash>
1.3992

> <Gold.Chemscore.DEInternal>
0.4090

> <Gold.Chemscore.Rot>
1.2347

> <Gold.Chemscore.Internal.Correction>
   9.000000E+99

> <Gold.Chemscore.Hbonds>
donor molecule, donor type, donor heavy atom, donor atom, acceptor molecule, acceptor atom, score
      L1  H     3    20       P1  8028  0.93
      L1  H     7    33       P1  7948  0.86
      L1  H    10    24       P1  8028  0.91

> <Gold.Chemscore.Hbond.Weighted>
-8.9408

> <Gold.Chemscore.Metal.Weighted>
-0.0000

> <Gold.Chemscore.Lipo.Weighted>
-10.7066

> <Gold.Chemscore.Internal_Hbond.Weighted>
0.0000

> <Gold.Chemscore.DEClash.Weighted>
1.3992

> <Gold.Chemscore.DEInternal.Weighted>
0.4090

> <Gold.Chemscore.Rot.Weighted>
3.1609

> <Gold.Chemscore.Internal.Correction.Weighted>
   9.000000E+99

> <Gold.Protein.RotatedTorsions>
[ 6907 6896 6895 6894 ] final  -93.56 input  -60.11 | X-H torsion
[ 7974 7965 7964 7962 ] final  -62.22 input  175.53 | X-H torsion
[ 8008 7997 7996 7995 ] final  133.89 input   59.86 | X-H torsion
[ 10167 10162 10161 10158 ] final  -32.44 input  -65.29 | X-H torsion
[ 10718 10713 10712 10709 ] final   33.51 input   66.30 | X-H torsion
[ 10763 10752 10751 10750 ] final   65.19 input  -60.55 | X-H torsion
[ 11005 11000 10999 10996 ] final   53.33 input  -57.11 | X-H torsion

> <Gold.Protein.ActiveResidues>
 VAL166  LYS551  ARG553  GLY616  TRP617  ASP618  TYR619  PRO620  LYS621  CYS622 
 ASP623  PHE694  ASN695  SER759  ASP760  ASP761  ALA762  ILE779  LEU786  VAL792 
 PHE793  MET794  SER795  GLU796  ALA797  LYS798  CYS799  TRP800  GLU811  SER814 

> <Gold.Protein.RotatedAtoms>
  150.6925  134.1948  159.4298 H   0  0  0  0  0  0  0  0  0  0  0  0  # atno 6907 bound_to 6896
  151.9917  134.9973  160.0571 H   0  0  0  0  0  0  0  0  0  0  0  0  # atno 6908 bound_to 6896
  152.1661  133.4578  159.4922 H   0  0  0  0  0  0  0  0  0  0  0  0  # atno 6909 bound_to 6896
  145.7940  140.8693  143.0266 H   0  0  0  0  0  0  0  0  0  0  0  0  # atno 7974 bound_to 7965
  156.2995  140.2510  156.3328 H   0  0  0  0  0  0  0  0  0  0  0  0  # atno 8008 bound_to 7997
  154.9129  140.0403  157.1975 H   0  0  0  0  0  0  0  0  0  0  0  0  # atno 8009 bound_to 7997
  154.8387  140.2887  155.5678 H   0  0  0  0  0  0  0  0  0  0  0  0  # atno 8010 bound_to 7997
  140.7221  143.3694  151.1807 H   0  0  0  0  0  0  0  0  0  0  0  0  # atno 10167 bound_to 10162
  157.2988  130.7340  149.6654 H   0  0  0  0  0  0  0  0  0  0  0  0  # atno 10718 bound_to 10713
  153.0086  135.5366  154.6629 H   0  0  0  0  0  0  0  0  0  0  0  0  # atno 10763 bound_to 10752
  154.5833  135.2852  155.0713 H   0  0  0  0  0  0  0  0  0  0  0  0  # atno 10764 bound_to 10752
  154.1834  135.6512  153.5092 H   0  0  0  0  0  0  0  0  0  0  0  0  # atno 10765 bound_to 10752
  140.0776  134.5383  155.8980 H   0  0  0  0  0  0  0  0  0  0  0  0  # atno 11005 bound_to 11000
  144.6778  140.0164  143.7484 LP  0  0  0  0  0  0  0  0  0  0  0  0  # atno 17320 bound_to 7965
  145.9947  139.3043  143.0963 LP  0  0  0  0  0  0  0  0  0  0  0  0  # atno 17321 bound_to 7965
  139.7263  143.9143  152.3004 LP  0  0  0  0  0  0  0  0  0  0  0  0  # atno 17342 bound_to 10162
  139.8917  144.6961  150.8763 LP  0  0  0  0  0  0  0  0  0  0  0  0  # atno 17343 bound_to 10162
  155.9670  130.4286  150.4797 LP  0  0  0  0  0  0  0  0  0  0  0  0  # atno 17370 bound_to 10713
  157.2773  131.0599  151.2220 LP  0  0  0  0  0  0  0  0  0  0  0  0  # atno 17371 bound_to 10713
  141.2035  133.6632  156.6066 LP  0  0  0  0  0  0  0  0  0  0  0  0  # atno 17394 bound_to 11000
  140.3535  134.7748  157.4484 LP  0  0  0  0  0  0  0  0  0  0  0  0  # atno 17395 bound_to 11000

$$$$
