AV-unprocessed.smi:1341|AV-procd|sdf|5506|dock2
  -GOLD-   22720 5 83D 1   1.00000     0.00000
 Structure written by MMmdl.
 33 34  0  0  0  0  0  0  0  0  2 V2000
  150.9680  138.9735  154.2745 C   0  0  0  0  0  0  0  0  0  0  0  0
  151.7355  137.9984  154.7894 C   0  0  0  0  0  0  0  0  0  0  0  0
  153.0469  138.2070  155.5204 C   0  0  0  0  0  0  0  0  0  0  0  0
  152.9613  139.1208  156.6549 N   0  5  0  0  0  0  0  0  0  0  0  0
  153.2095  138.7751  157.9525 C   0  0  0  0  0  0  0  0  0  0  0  0
  153.3902  137.6541  158.4410 O   0  0  0  0  0  0  0  0  0  0  0  0
  153.2632  139.9761  158.8688 C   0  0  0  0  0  0  0  0  0  0  0  0
  152.7518  141.1452  158.4060 N   0  0  0  0  0  0  0  0  0  0  0  0
  152.8060  142.2313  159.1831 C   0  0  0  0  0  0  0  0  0  0  0  0
  152.2742  143.4218  158.6712 N   0  0  0  0  0  0  0  0  0  0  0  0
  151.0356  143.4346  157.8951 C   0  0  0  0  0  0  0  0  0  0  0  0
  149.8485  143.7305  158.8302 C   0  0  0  0  0  0  0  0  0  0  0  0
  150.0634  144.9734  159.4968 O   0  0  0  0  0  0  0  0  0  0  0  0
  151.2637  144.9827  160.2679 C   0  0  0  0  0  0  0  0  0  0  0  0
  152.4651  144.7048  159.3465 C   0  0  0  0  0  0  0  0  0  0  0  0
  153.3344  142.2674  160.4116 N   0  0  0  0  0  0  0  0  0  0  0  0
  153.8467  141.1202  160.9020 C   0  0  0  0  0  0  0  0  0  0  0  0
  153.8408  139.9198  160.1658 C   0  0  0  0  0  0  0  0  0  0  0  0
  154.4879  138.4819  160.8807 Cl  0  0  0  0  0  0  0  0  0  0  0  0
  151.2350  140.0191  154.3449 H   0  0  0  0  0  0  0  0  0  0  0  0
  150.0456  138.7311  153.7681 H   0  0  0  0  0  0  0  0  0  0  0  0
  151.4129  136.9725  154.6880 H   0  0  0  0  0  0  0  0  0  0  0  0
  153.3761  137.2218  155.8506 H   0  0  0  0  0  0  0  0  0  0  0  0
  153.7941  138.5176  154.7883 H   0  0  0  0  0  0  0  0  0  0  0  0
  151.1090  144.2145  157.1365 H   0  0  0  0  0  0  0  0  0  0  0  0
  150.8701  142.5046  157.3523 H   0  0  0  0  0  0  0  0  0  0  0  0
  148.9234  143.7920  158.2571 H   0  0  0  0  0  0  0  0  0  0  0  0
  149.7198  142.9305  159.5611 H   0  0  0  0  0  0  0  0  0  0  0  0
  151.3711  145.9568  160.7447 H   0  0  0  0  0  0  0  0  0  0  0  0
  151.2041  144.2400  161.0653 H   0  0  0  0  0  0  0  0  0  0  0  0
  153.3993  144.7468  159.9068 H   0  0  0  0  0  0  0  0  0  0  0  0
  152.5374  145.4885  158.5916 H   0  0  0  0  0  0  0  0  0  0  0  0
  154.2622  141.1600  161.8980 H   0  0  0  0  0  0  0  0  0  0  0  0
  1  2  2  0  0  0  0
  1 20  1  0  0  0  0
  1 21  1  0  0  0  0
  2  3  1  0  0  0  0
  2 22  1  0  0  0  0
  3  4  1  0  0  0  0
  3 23  1  0  0  0  0
  3 24  1  0  0  0  0
  4  5  1  0  0  0  0
  5  6  2  0  0  0  0
  5  7  1  0  0  0  0
  7 18  1  0  0  0  0
  7  8  2  0  0  0  0
  8  9  1  0  0  0  0
  9 10  1  0  0  0  0
  9 16  2  0  0  0  0
 10 15  1  0  0  0  0
 10 11  1  0  0  0  0
 11 12  1  0  0  0  0
 11 25  1  0  0  0  0
 11 26  1  0  0  0  0
 12 13  1  0  0  0  0
 12 27  1  0  0  0  0
 12 28  1  0  0  0  0
 13 14  1  0  0  0  0
 14 15  1  0  0  0  0
 14 29  1  0  0  0  0
 14 30  1  0  0  0  0
 15 31  1  0  0  0  0
 15 32  1  0  0  0  0
 16 17  1  0  0  0  0
 17 18  2  0  0  0  0
 17 33  1  0  0  0  0
 18 19  1  0  0  0  0
M  CHG  1   4  -1
M  END
> <s_m_source_file>
AV-unprocessed.smi

> <i_m_source_file_index>
1341

> <i_lp_mmshare_version>
43012

> <i_f3d_flags>
0

> <s_epik_input>
W0NIMl09W0NIXVtDSDJdW05IXUMoPU8pYzFuYyhuW2NIXWMxQ2wpTjJbQ0gyXVtDSDJdT1tDSDJdW0NIMl0y

> <s_epik_cmdline>
J2VwaWtfcHl0aG9uJywgJy1waCcsICc3LjAnLCAnLXRuJywgJzgnLCAnLW1hJywgJzIwMCcsICctbWV0YWxfYmluZGluZycsICctaW1hZScsICc8aW5maWxlLm1hZT4nLCAnLW9tYWUnLCAnPG91dGZpbGUubWFlPic=

> <r_lp_tautomer_probability>
1

> <r_epik_Ionization_Penalty>
5.99598

> <r_epik_Ionization_Penalty_Charging>
5.99596

> <r_epik_Ionization_Penalty_Neutral>
2.0749e-05

> <r_epik_State_Penalty>
5.99593

> <r_epik_Charging_Adjusted_Penalty>
11.9919

> <i_epik_Tot_Q>
-1

> <i_epik_Tot_abs_Q>
1

> <r_epik_Metal_State_Penalty>
1.94906

> <b_epik_Metal_Only>
1

> <s_lp_Force_Field>
OPLS_2005

> <r_lp_Energy>
16.4854

> <b_lp_Chiralities_Consistent>
1

> <s_lp_Variant>
AV-unprocessed.smi:1341-2

> <Gold.Version>
5.8.1

> <Gold.Id.Protein>
6NUR|6NUR_protein|mol2

> <Gold.PLP.Fitness>
43.3875

> <Gold.PLP.PLP>
-38.0752

> <Gold.PLP.part.hbond>
-1.0441

> <Gold.PLP.part.metal>
0.0000

> <Gold.PLP.part.buried>
-4.3657

> <Gold.PLP.part.nonpolar>
-32.4166

> <Gold.PLP.part.repulsive>
0.1933

> <Gold.PLP.ligand.clash>
0.0000

> <Gold.PLP.ligand.torsion>
0.4831

> <Gold.PLP.Chemscore.Hbond>
2.0000

> <Gold.PLP.Chemscore.CHOScore>
0.0000

> <Gold.PLP.Chemscore.Metal>
0.0000

> <Gold.Chemscore.Hbonds>
donor molecule, donor type, donor heavy atom, donor atom, acceptor molecule, acceptor atom, score
      P1  H  7997  8009       L1     4  1.90

> <Gold.PLP.Chemscore.Internal.Correction>
0.2785

> <Gold.Rescore>
     Score         DG    S(hbond)    S(metal)    S(lipo)     H(rot)  DE(clash)    DE(int)     intcor
     12.92     -14.90       0.41        0.00      94.03       1.15       0.15       1.82       ----

> <Gold.Chemscore.Fitness>
12.9200

> <Gold.Chemscore.DG>
-14.8952

> <Gold.Chemscore.ZeroCoef>
-5.4800

> <Gold.Chemscore.Hbond>
0.4076

> <Gold.Chemscore.Metal>
0.0000

> <Gold.Chemscore.Lipo>
94.0294

> <Gold.Chemscore.Internal_Hbond>
0.0000

> <Gold.Chemscore.DEClash>
0.1534

> <Gold.Chemscore.DEInternal>
1.8219

> <Gold.Chemscore.Rot>
1.1514

> <Gold.Chemscore.Internal.Correction>
   9.000000E+99

> <Gold.Chemscore.Hbonds>
donor molecule, donor type, donor heavy atom, donor atom, acceptor molecule, acceptor atom, score
      P1  H  7997  8009       L1     4  0.06

> <Gold.Chemscore.Hbond.Weighted>
-1.3614

> <Gold.Chemscore.Metal.Weighted>
-0.0000

> <Gold.Chemscore.Lipo.Weighted>
-11.0014

> <Gold.Chemscore.Internal_Hbond.Weighted>
0.0000

> <Gold.Chemscore.DEClash.Weighted>
0.1534

> <Gold.Chemscore.DEInternal.Weighted>
1.8219

> <Gold.Chemscore.Rot.Weighted>
2.9477

> <Gold.Chemscore.Internal.Correction.Weighted>
   9.000000E+99

> <Gold.Protein.RotatedTorsions>
[ 6907 6896 6895 6894 ] final  -14.98 input  -60.11 | X-H torsion
[ 7974 7965 7964 7962 ] final  162.95 input  175.53 | X-H torsion
[ 8008 7997 7996 7995 ] final -159.81 input   59.86 | X-H torsion
[ 10167 10162 10161 10158 ] final -156.88 input  -65.29 | X-H torsion
[ 10718 10713 10712 10709 ] final  -56.06 input   66.30 | X-H torsion
[ 10763 10752 10751 10750 ] final -102.55 input  -60.55 | X-H torsion
[ 11005 11000 10999 10996 ] final  -62.76 input  -57.11 | X-H torsion

> <Gold.Protein.ActiveResidues>
 VAL166  LYS551  ARG553  GLY616  TRP617  ASP618  TYR619  PRO620  LYS621  CYS622 
 ASP623  PHE694  ASN695  SER759  ASP760  ASP761  ALA762  ILE779  LEU786  VAL792 
 PHE793  MET794  SER795  GLU796  ALA797  LYS798  CYS799  TRP800  GLU811  SER814 

> <Gold.Protein.RotatedAtoms>
  151.3310  135.0841  159.9338 H   0  0  0  0  0  0  0  0  0  0  0  0  # atno 6907 bound_to 6896
  152.5234  133.9543  159.7697 H   0  0  0  0  0  0  0  0  0  0  0  0  # atno 6908 bound_to 6896
  150.9881  133.6124  159.2742 H   0  0  0  0  0  0  0  0  0  0  0  0  # atno 6909 bound_to 6896
  144.7612  139.8113  143.6332 H   0  0  0  0  0  0  0  0  0  0  0  0  # atno 7974 bound_to 7965
  155.7681  140.0848  157.2122 H   0  0  0  0  0  0  0  0  0  0  0  0  # atno 8008 bound_to 7997
  154.3998  140.1530  156.2966 H   0  0  0  0  0  0  0  0  0  0  0  0  # atno 8009 bound_to 7997
  155.8774  140.3422  155.5866 H   0  0  0  0  0  0  0  0  0  0  0  0  # atno 8010 bound_to 7997
  139.6814  143.9574  152.2339 H   0  0  0  0  0  0  0  0  0  0  0  0  # atno 10167 bound_to 10162
  156.1318  130.4159  150.0255 H   0  0  0  0  0  0  0  0  0  0  0  0  # atno 10718 bound_to 10713
  154.7742  135.4856  153.9710 H   0  0  0  0  0  0  0  0  0  0  0  0  # atno 10763 bound_to 10752
  153.1407  135.6772  153.9039 H   0  0  0  0  0  0  0  0  0  0  0  0  # atno 10764 bound_to 10752
  153.8714  135.3143  155.3420 H   0  0  0  0  0  0  0  0  0  0  0  0  # atno 10765 bound_to 10752
  141.1370  133.6643  156.5576 H   0  0  0  0  0  0  0  0  0  0  0  0  # atno 11005 bound_to 11000
  146.1677  139.4815  142.9948 LP  0  0  0  0  0  0  0  0  0  0  0  0  # atno 17320 bound_to 7965
  145.6613  141.0240  143.1707 LP  0  0  0  0  0  0  0  0  0  0  0  0  # atno 17321 bound_to 7965
  139.9365  144.6708  150.8309 LP  0  0  0  0  0  0  0  0  0  0  0  0  # atno 17342 bound_to 10162
  140.7653  143.3273  151.2487 LP  0  0  0  0  0  0  0  0  0  0  0  0  # atno 17343 bound_to 10162
  156.8165  130.9343  151.3642 LP  0  0  0  0  0  0  0  0  0  0  0  0  # atno 17370 bound_to 10713
  157.6495  130.8873  149.9605 LP  0  0  0  0  0  0  0  0  0  0  0  0  # atno 17371 bound_to 10713
  140.4014  134.7353  157.4782 LP  0  0  0  0  0  0  0  0  0  0  0  0  # atno 17394 bound_to 11000
  140.0493  134.6153  155.8881 LP  0  0  0  0  0  0  0  0  0  0  0  0  # atno 17395 bound_to 11000

$$$$
