AV-unprocessed.smi:1487|AV-procd|sdf|6012|dock2
  -GOLD-   22720 6113D 1   1.00000     0.00000
 Structure written by MMmdl.
 48 50  0  0  0  0  0  0  0  0  2 V2000
  152.5995  143.9574  159.7848 C   0  0  0  0  0  0  0  0  0  0  0  0
  152.2952  142.7918  158.8605 C   0  0  0  0  0  0  0  0  0  0  0  0
  151.4028  142.9853  157.7820 C   0  0  0  0  0  0  0  0  0  0  0  0
  151.0938  141.9278  156.8990 C   0  0  0  0  0  0  0  0  0  0  0  0
  150.2636  141.8940  155.7916 N   0  0  0  0  0  0  0  0  0  0  0  0
  150.3972  140.6323  155.3942 C   0  0  0  0  0  0  0  0  0  0  0  0
  151.2199  139.8436  156.1121 N   0  0  0  0  0  0  0  0  0  0  0  0
  151.5236  138.4451  155.8671 C   0  0  0  0  0  0  0  0  0  0  0  0
  150.6674  137.8451  154.7352 C   0  0  1  0  0  0  0  0  0  0  0  0
  151.3733  136.7824  154.1230 O   0  0  0  0  0  0  0  0  0  0  0  0
  149.3259  137.3008  155.2643 C   0  0  0  0  0  0  0  0  0  0  0  0
  148.2678  137.2755  154.2216 N   0  3  1  0  0  0  0  0  0  0  0  0
  147.1369  136.3838  154.5851 C   0  0  0  0  0  0  0  0  0  0  0  0
  146.1535  136.2353  153.4140 C   0  0  0  0  0  0  0  0  0  0  0  0
  145.6322  137.6042  152.9554 C   0  0  0  0  0  0  0  0  0  0  0  0
  146.7942  138.5656  152.6540 C   0  0  2  0  0  0  0  0  0  0  0  0
  147.4621  138.1771  151.4693 O   0  0  0  0  0  0  0  0  0  0  0  0
  147.7980  138.6307  153.8220 C   0  0  0  0  0  0  0  0  0  0  0  0
  151.7059  140.6608  157.1272 C   0  0  0  0  0  0  0  0  0  0  0  0
  152.5942  140.4553  158.1975 C   0  0  0  0  0  0  0  0  0  0  0  0
  152.8931  141.5229  159.0693 C   0  0  0  0  0  0  0  0  0  0  0  0
  153.8569  141.2925  160.2200 C   0  0  0  0  0  0  0  0  0  0  0  0
  152.0883  144.8650  159.4623 H   0  0  0  0  0  0  0  0  0  0  0  0
  153.6696  144.1650  159.8008 H   0  0  0  0  0  0  0  0  0  0  0  0
  152.2744  143.7327  160.8009 H   0  0  0  0  0  0  0  0  0  0  0  0
  150.9471  143.9516  157.6229 H   0  0  0  0  0  0  0  0  0  0  0  0
  149.8678  140.2595  154.5292 H   0  0  0  0  0  0  0  0  0  0  0  0
  152.5863  138.3548  155.6372 H   0  0  0  0  0  0  0  0  0  0  0  0
  151.3592  137.8943  156.7943 H   0  0  0  0  0  0  0  0  0  0  0  0
  150.4985  138.6174  153.9855 H   0  0  0  0  0  0  0  0  0  0  0  0
  151.1260  136.7420  153.2110 H   0  0  0  0  0  0  0  0  0  0  0  0
  149.4937  136.2914  155.6439 H   0  0  0  0  0  0  0  0  0  0  0  0
  148.9799  137.8899  156.1150 H   0  0  0  0  0  0  0  0  0  0  0  0
  147.5158  135.3970  154.8545 H   0  0  0  0  0  0  0  0  0  0  0  0
  146.6255  136.7794  155.4640 H   0  0  0  0  0  0  0  0  0  0  0  0
  146.6471  135.7297  152.5828 H   0  0  0  0  0  0  0  0  0  0  0  0
  145.3177  135.5993  153.7075 H   0  0  0  0  0  0  0  0  0  0  0  0
  144.9878  137.4939  152.0823 H   0  0  0  0  0  0  0  0  0  0  0  0
  145.0104  138.0302  153.7440 H   0  0  0  0  0  0  0  0  0  0  0  0
  146.3898  139.5624  152.4744 H   0  0  0  0  0  0  0  0  0  0  0  0
  147.8037  137.3031  151.5844 H   0  0  0  0  0  0  0  0  0  0  0  0
  147.3250  139.1074  154.6822 H   0  0  0  0  0  0  0  0  0  0  0  0
  148.6379  139.2652  153.5409 H   0  0  0  0  0  0  0  0  0  0  0  0
  153.0439  139.4843  158.3444 H   0  0  0  0  0  0  0  0  0  0  0  0
  154.2059  140.2599  160.2461 H   0  0  0  0  0  0  0  0  0  0  0  0
  153.3730  141.5062  161.1732 H   0  0  0  0  0  0  0  0  0  0  0  0
  154.7296  141.9383  160.1216 H   0  0  0  0  0  0  0  0  0  0  0  0
  148.6937  136.8620  153.4036 H   0  0  0  0  0  0  0  0  0  0  0  0
  1  2  1  0  0  0  0
  1 23  1  0  0  0  0
  1 24  1  0  0  0  0
  1 25  1  0  0  0  0
  2 21  1  0  0  0  0
  2  3  2  0  0  0  0
  3  4  1  0  0  0  0
  3 26  1  0  0  0  0
  4 19  2  0  0  0  0
  4  5  1  0  0  0  0
  5  6  2  0  0  0  0
  6  7  1  0  0  0  0
  6 27  1  0  0  0  0
  7  8  1  0  0  0  0
  7 19  1  0  0  0  0
  8  9  1  0  0  0  0
  8 28  1  0  0  0  0
  8 29  1  0  0  0  0
  9 10  1  0  0  0  0
  9 11  1  0  0  0  0
  9 30  1  0  0  0  0
 10 31  1  0  0  0  0
 11 12  1  0  0  0  0
 11 32  1  0  0  0  0
 11 33  1  0  0  0  0
 12 18  1  0  0  0  0
 12 13  1  0  0  0  0
 12 48  1  0  0  0  0
 13 14  1  0  0  0  0
 13 34  1  0  0  0  0
 13 35  1  0  0  0  0
 14 15  1  0  0  0  0
 14 36  1  0  0  0  0
 14 37  1  0  0  0  0
 15 16  1  0  0  0  0
 15 38  1  0  0  0  0
 15 39  1  0  0  0  0
 16 17  1  0  0  0  0
 16 18  1  0  0  0  0
 16 40  1  0  0  0  0
 17 41  1  0  0  0  0
 18 42  1  0  0  0  0
 18 43  1  0  0  0  0
 19 20  1  0  0  0  0
 20 21  2  0  0  0  0
 20 44  1  0  0  0  0
 21 22  1  0  0  0  0
 22 45  1  0  0  0  0
 22 46  1  0  0  0  0
 22 47  1  0  0  0  0
M  CHG  1  12   1
M  END
> <s_m_source_file>
AV-unprocessed.smi

> <i_m_source_file_index>
1487

> <i_lp_mmshare_version>
43012

> <i_f3d_flags>
0

> <s_epik_input>
W0NIM11jKFtjSF0xKWMoW0NIM10pW2NIXWMoYzEyKW4oW2NIXW4yKVtDSDJdW0NASF0oW09IXSlbQ0gyXU4zW0NIMl1bQ0gyXVtDSDJdW0NAQEhdKFtPSF0pW0NIMl0z

> <s_epik_cmdline>
J2VwaWtfcHl0aG9uJywgJy1waCcsICc3LjAnLCAnLXRuJywgJzgnLCAnLW1hJywgJzIwMCcsICctbWV0YWxfYmluZGluZycsICctaW1hZScsICc8aW5maWxlLm1hZT4nLCAnLW9tYWUnLCAnPG91dGZpbGUubWFlPic=

> <r_epik_Ionization_Penalty>
0.0940186

> <r_epik_Ionization_Penalty_Charging>
0.00679686

> <r_epik_Ionization_Penalty_Neutral>
0.0872218

> <r_epik_State_Penalty>
0.0799311

> <r_epik_Charging_Adjusted_Penalty>
0.086728

> <i_epik_Tot_Q>
1

> <i_epik_Tot_abs_Q>
1

> <r_epik_Metal_State_Penalty>
7.95545e-05

> <b_epik_Metal_Only>
0

> <s_lp_Force_Field>
OPLS_2005

> <r_lp_Energy>
22.2404

> <b_lp_Chiralities_Consistent>
1

> <s_lp_Variant>
AV-unprocessed.smi:1487-6

> <Gold.Version>
5.8.1

> <Gold.Id.Protein>
6NUR|6NUR_protein|mol2

> <Gold.PLP.Fitness>
57.1255

> <Gold.PLP.PLP>
-43.5906

> <Gold.PLP.part.hbond>
-6.1050

> <Gold.PLP.part.metal>
0.0000

> <Gold.PLP.part.buried>
-3.9657

> <Gold.PLP.part.nonpolar>
-34.2387

> <Gold.PLP.part.repulsive>
0.6437

> <Gold.PLP.ligand.clash>
0.0000

> <Gold.PLP.ligand.torsion>
0.7398

> <Gold.PLP.Chemscore.Hbond>
4.9833

> <Gold.PLP.Chemscore.CHOScore>
0.0000

> <Gold.PLP.Chemscore.Metal>
0.0000

> <Gold.Chemscore.Hbonds>
donor molecule, donor type, donor heavy atom, donor atom, acceptor molecule, acceptor atom, score
      L1  H    10    31       P1  7949  1.00
      L1  H    12    48       P1  7948  2.00
      L1  H    17    41       P1  7948  1.00
      P1  H 10752 10765       L1    10  1.00

> <Gold.PLP.Chemscore.Internal.Correction>
0.0648

> <Gold.Rescore>
     Score         DG    S(hbond)    S(metal)    S(lipo)     H(rot)  DE(clash)    DE(int)     intcor
     21.66     -22.36       3.29        0.00     108.72       2.67       0.12       0.59       ----

> <Gold.Chemscore.Fitness>
21.6564

> <Gold.Chemscore.DG>
-22.3578

> <Gold.Chemscore.ZeroCoef>
-5.4800

> <Gold.Chemscore.Hbond>
3.2921

> <Gold.Chemscore.Metal>
0.0000

> <Gold.Chemscore.Lipo>
108.7211

> <Gold.Chemscore.Internal_Hbond>
0.0000

> <Gold.Chemscore.DEClash>
0.1158

> <Gold.Chemscore.DEInternal>
0.5856

> <Gold.Chemscore.Rot>
2.6712

> <Gold.Chemscore.Internal.Correction>
   9.000000E+99

> <Gold.Chemscore.Hbonds>
donor molecule, donor type, donor heavy atom, donor atom, acceptor molecule, acceptor atom, score
      L1  H    10    31       P1  7949  0.43
      L1  H    12    48       P1  7948  1.00
      L1  H    17    41       P1  7948  0.94
      P1  H 10752 10765       L1    10  0.45

> <Gold.Chemscore.Hbond.Weighted>
-10.9957

> <Gold.Chemscore.Metal.Weighted>
-0.0000

> <Gold.Chemscore.Lipo.Weighted>
-12.7204

> <Gold.Chemscore.Internal_Hbond.Weighted>
0.0000

> <Gold.Chemscore.DEClash.Weighted>
0.1158

> <Gold.Chemscore.DEInternal.Weighted>
0.5856

> <Gold.Chemscore.Rot.Weighted>
6.8383

> <Gold.Chemscore.Internal.Correction.Weighted>
   9.000000E+99

> <Gold.Protein.RotatedTorsions>
[ 6907 6896 6895 6894 ] final   91.97 input  -60.11 | X-H torsion
[ 7974 7965 7964 7962 ] final  165.51 input  175.53 | X-H torsion
[ 8008 7997 7996 7995 ] final -127.30 input   59.86 | X-H torsion
[ 10167 10162 10161 10158 ] final  147.69 input  -65.29 | X-H torsion
[ 10718 10713 10712 10709 ] final  -73.84 input   66.30 | X-H torsion
[ 10763 10752 10751 10750 ] final  159.29 input  -60.55 | X-H torsion
[ 11005 11000 10999 10996 ] final   29.68 input  -57.11 | X-H torsion

> <Gold.Protein.ActiveResidues>
 VAL166  LYS551  ARG553  GLY616  TRP617  ASP618  TYR619  PRO620  LYS621  CYS622 
 ASP623  PHE694  ASN695  SER759  ASP760  ASP761  ALA762  ILE779  LEU786  VAL792 
 PHE793  MET794  SER795  GLU796  ALA797  LYS798  CYS799  TRP800  GLU811  SER814 

> <Gold.Protein.RotatedAtoms>
  152.5451  134.1574  159.8543 H   0  0  0  0  0  0  0  0  0  0  0  0  # atno 6907 bound_to 6896
  151.1595  133.4847  159.2602 H   0  0  0  0  0  0  0  0  0  0  0  0  # atno 6908 bound_to 6896
  151.1388  135.0179  159.8671 H   0  0  0  0  0  0  0  0  0  0  0  0  # atno 6909 bound_to 6896
  144.7500  139.8480  143.6369 H   0  0  0  0  0  0  0  0  0  0  0  0  # atno 7974 bound_to 7965
  155.2440  140.0430  157.2978 H   0  0  0  0  0  0  0  0  0  0  0  0  # atno 8008 bound_to 7997
  154.5810  140.2401  155.8023 H   0  0  0  0  0  0  0  0  0  0  0  0  # atno 8009 bound_to 7997
  156.2193  140.2975  155.9922 H   0  0  0  0  0  0  0  0  0  0  0  0  # atno 8010 bound_to 7997
  139.4886  144.5736  151.7007 H   0  0  0  0  0  0  0  0  0  0  0  0  # atno 10167 bound_to 10162
  156.0265  130.4403  150.2803 H   0  0  0  0  0  0  0  0  0  0  0  0  # atno 10718 bound_to 10713
  154.2294  135.2779  155.2895 H   0  0  0  0  0  0  0  0  0  0  0  0  # atno 10763 bound_to 10752
  154.5636  135.5639  153.7033 H   0  0  0  0  0  0  0  0  0  0  0  0  # atno 10764 bound_to 10752
  153.0023  135.6304  154.2436 H   0  0  0  0  0  0  0  0  0  0  0  0  # atno 10765 bound_to 10752
  140.3024  134.2741  155.7751 H   0  0  0  0  0  0  0  0  0  0  0  0  # atno 11005 bound_to 11000
  146.1436  139.4499  143.0093 LP  0  0  0  0  0  0  0  0  0  0  0  0  # atno 17320 bound_to 7965
  145.6980  141.0144  143.1519 LP  0  0  0  0  0  0  0  0  0  0  0  0  # atno 17321 bound_to 7965
  140.5328  144.0702  150.6060 LP  0  0  0  0  0  0  0  0  0  0  0  0  # atno 17342 bound_to 10162
  140.3699  143.2861  152.0290 LP  0  0  0  0  0  0  0  0  0  0  0  0  # atno 17343 bound_to 10162
  157.0907  131.0169  151.3123 LP  0  0  0  0  0  0  0  0  0  0  0  0  # atno 17370 bound_to 10713
  157.4856  130.7791  149.7457 LP  0  0  0  0  0  0  0  0  0  0  0  0  # atno 17371 bound_to 10713
  141.2125  133.7655  156.9787 LP  0  0  0  0  0  0  0  0  0  0  0  0  # atno 17394 bound_to 11000
  140.1097  134.9484  157.2047 LP  0  0  0  0  0  0  0  0  0  0  0  0  # atno 17395 bound_to 11000

$$$$
