AV-unprocessed.smi:33|AV-procd|sdf|213|dock9
  -GOLD-   2262015523D 1   1.00000     0.00000
 Structure written by MMmdl.
 67 72  0  0  0  0  0  0  0  0  1 V2000
  151.5421  139.3075  158.7050 O   0  0  0  0  0  0  0  0  0  0  0  0
  151.8947  140.3212  158.0985 C   0  0  0  0  0  0  0  0  0  0  0  0
  152.1560  140.3495  156.7765 O   0  0  0  0  0  0  0  0  0  0  0  0
  151.4814  139.4669  155.8940 C   0  0  0  0  0  0  0  0  0  0  0  0
  150.0085  139.8882  155.7903 C   0  0  2  0  0  0  0  0  0  0  0  0
  149.2755  139.2685  156.8500 O   0  0  0  0  0  0  0  0  0  0  0  0
  148.3528  138.3497  156.3495 C   0  0  2  0  0  0  0  0  0  0  0  0
  148.3591  137.1065  157.1856 N   0  0  0  0  0  0  0  0  0  0  0  0
  149.2499  136.7871  158.1863 C   0  0  0  0  0  0  0  0  0  0  0  0
  149.0381  135.6465  158.7849 N   0  0  0  0  0  0  0  0  0  0  0  0
  147.9146  135.1380  158.1470 C   0  0  0  0  0  0  0  0  0  0  0  0
  147.1475  133.9509  158.2964 C   0  0  0  0  0  0  0  0  0  0  0  0
  147.4308  133.0046  159.2225 N   0  0  0  0  0  0  0  0  0  0  0  0
  147.3678  133.4120  160.6338 C   0  0  0  0  0  0  0  0  0  0  0  0
  148.0285  132.7984  161.4742 O   0  0  0  0  0  0  0  0  0  0  0  0
  146.5399  134.5950  161.0494 C   0  0  0  0  0  0  0  0  0  0  0  0
  147.0181  135.4797  162.0408 C   0  0  0  0  0  0  0  0  0  0  0  0
  146.2393  136.5815  162.4447 C   0  0  0  0  0  0  0  0  0  0  0  0
  144.9697  136.7942  161.8748 C   0  0  0  0  0  0  0  0  0  0  0  0
  144.4746  135.8997  160.9071 C   0  0  0  0  0  0  0  0  0  0  0  0
  145.2535  134.7990  160.5012 C   0  0  0  0  0  0  0  0  0  0  0  0
  147.7708  131.6603  158.7331 C   0  0  0  0  0  0  0  0  0  0  0  0
  147.5875  130.6842  159.4628 O   0  0  0  0  0  0  0  0  0  0  0  0
  148.2817  131.4634  157.3335 C   0  0  0  0  0  0  0  0  0  0  0  0
  147.8612  130.3463  156.5792 C   0  0  0  0  0  0  0  0  0  0  0  0
  148.3468  130.1481  155.2720 C   0  0  0  0  0  0  0  0  0  0  0  0
  149.2691  131.0558  154.7175 C   0  0  0  0  0  0  0  0  0  0  0  0
  149.7136  132.1564  155.4742 C   0  0  0  0  0  0  0  0  0  0  0  0
  149.2293  132.3549  156.7816 C   0  0  0  0  0  0  0  0  0  0  0  0
  146.0824  133.7711  157.4731 N   0  0  0  0  0  0  0  0  0  0  0  0
  145.7856  134.7010  156.5611 C   0  0  0  0  0  0  0  0  0  0  0  0
  146.4086  135.8551  156.3147 N   0  0  0  0  0  0  0  0  0  0  0  0
  147.4814  136.0404  157.1367 C   0  0  0  0  0  0  0  0  0  0  0  0
  148.7083  138.0847  154.8816 C   0  0  2  0  0  0  0  0  0  0  0  0
  149.5878  136.9922  154.6834 O   0  0  0  0  0  0  0  0  0  0  0  0
  149.3531  139.4009  154.4922 C   0  0  1  0  0  0  0  0  0  0  0  0
  148.4032  140.2629  154.1244 F   0  0  0  0  0  0  0  0  0  0  0  0
  152.0703  141.6500  158.7522 C   0  0  0  0  0  0  0  0  0  0  0  0
  151.8441  142.8272  158.0013 C   0  0  0  0  0  0  0  0  0  0  0  0
  152.0001  144.0962  158.5922 C   0  0  0  0  0  0  0  0  0  0  0  0
  152.3846  144.2034  159.9416 C   0  0  0  0  0  0  0  0  0  0  0  0
  152.6147  143.0400  160.6988 C   0  0  0  0  0  0  0  0  0  0  0  0
  152.4600  141.7702  160.1093 C   0  0  0  0  0  0  0  0  0  0  0  0
  151.9589  139.5229  154.9155 H   0  0  0  0  0  0  0  0  0  0  0  0
  151.5568  138.4328  156.2305 H   0  0  0  0  0  0  0  0  0  0  0  0
  149.9361  140.9736  155.8704 H   0  0  0  0  0  0  0  0  0  0  0  0
  147.3495  138.7615  156.4674 H   0  0  0  0  0  0  0  0  0  0  0  0
  150.0669  137.4369  158.4650 H   0  0  0  0  0  0  0  0  0  0  0  0
  147.9908  135.3260  162.4855 H   0  0  0  0  0  0  0  0  0  0  0  0
  146.6158  137.2629  163.1931 H   0  0  0  0  0  0  0  0  0  0  0  0
  144.3728  137.6392  162.1850 H   0  0  0  0  0  0  0  0  0  0  0  0
  143.4965  136.0564  160.4766 H   0  0  0  0  0  0  0  0  0  0  0  0
  144.8614  134.1164  159.7608 H   0  0  0  0  0  0  0  0  0  0  0  0
  147.1529  129.6438  156.9944 H   0  0  0  0  0  0  0  0  0  0  0  0
  148.0116  129.2988  154.6952 H   0  0  0  0  0  0  0  0  0  0  0  0
  149.6410  130.9037  153.7151 H   0  0  0  0  0  0  0  0  0  0  0  0
  150.4274  132.8482  155.0523 H   0  0  0  0  0  0  0  0  0  0  0  0
  149.5826  133.1999  157.3547 H   0  0  0  0  0  0  0  0  0  0  0  0
  144.9258  134.4932  155.9412 H   0  0  0  0  0  0  0  0  0  0  0  0
  147.7969  137.8884  154.3158 H   0  0  0  0  0  0  0  0  0  0  0  0
  149.4402  136.6423  153.8177 H   0  0  0  0  0  0  0  0  0  0  0  0
  150.0452  139.3201  153.6529 H   0  0  0  0  0  0  0  0  0  0  0  0
  151.5489  142.7697  156.9635 H   0  0  0  0  0  0  0  0  0  0  0  0
  151.8244  144.9878  158.0089 H   0  0  0  0  0  0  0  0  0  0  0  0
  152.5036  145.1765  160.3948 H   0  0  0  0  0  0  0  0  0  0  0  0
  152.9108  143.1208  161.7344 H   0  0  0  0  0  0  0  0  0  0  0  0
  152.6457  140.8976  160.7185 H   0  0  0  0  0  0  0  0  0  0  0  0
  1  2  2  0  0  0  0
  2  3  1  0  0  0  0
  2 38  1  0  0  0  0
  3  4  1  0  0  0  0
  4  5  1  0  0  0  0
  4 44  1  0  0  0  0
  4 45  1  0  0  0  0
  5 36  1  0  0  0  0
  5  6  1  0  0  0  0
  5 46  1  0  0  0  0
  6  7  1  0  0  0  0
  7  8  1  0  0  0  0
  7 34  1  0  0  0  0
  7 47  1  0  0  0  0
  8 33  1  0  0  0  0
  8  9  1  0  0  0  0
  9 10  2  0  0  0  0
  9 48  1  0  0  0  0
 10 11  1  0  0  0  0
 11 33  2  0  0  0  0
 11 12  1  0  0  0  0
 12 13  1  0  0  0  0
 12 30  2  0  0  0  0
 13 14  1  0  0  0  0
 13 22  1  0  0  0  0
 14 15  2  0  0  0  0
 14 16  1  0  0  0  0
 16 21  1  0  0  0  0
 16 17  2  0  0  0  0
 17 18  1  0  0  0  0
 17 49  1  0  0  0  0
 18 19  2  0  0  0  0
 18 50  1  0  0  0  0
 19 20  1  0  0  0  0
 19 51  1  0  0  0  0
 20 21  2  0  0  0  0
 20 52  1  0  0  0  0
 21 53  1  0  0  0  0
 22 23  2  0  0  0  0
 22 24  1  0  0  0  0
 24 29  1  0  0  0  0
 24 25  2  0  0  0  0
 25 26  1  0  0  0  0
 25 54  1  0  0  0  0
 26 27  2  0  0  0  0
 26 55  1  0  0  0  0
 27 28  1  0  0  0  0
 27 56  1  0  0  0  0
 28 29  2  0  0  0  0
 28 57  1  0  0  0  0
 29 58  1  0  0  0  0
 30 31  1  0  0  0  0
 31 32  2  0  0  0  0
 31 59  1  0  0  0  0
 32 33  1  0  0  0  0
 34 35  1  0  0  0  0
 34 36  1  0  0  0  0
 34 60  1  0  0  0  0
 35 61  1  0  0  0  0
 36 37  1  0  0  0  0
 36 62  1  0  0  0  0
 38 43  1  0  0  0  0
 38 39  2  0  0  0  0
 39 40  1  0  0  0  0
 39 63  1  0  0  0  0
 40 41  2  0  0  0  0
 40 64  1  0  0  0  0
 41 42  1  0  0  0  0
 41 65  1  0  0  0  0
 42 43  2  0  0  0  0
 42 66  1  0  0  0  0
 43 67  1  0  0  0  0
M  END
> <s_m_source_file>
AV-unprocessed.smi

> <i_m_source_file_index>
33

> <i_lp_mmshare_version>
43012

> <i_f3d_flags>
0

> <s_epik_input>
W2NIXTFbY0hdW2NIXVtjSF1bY0hdYzFDKD1PKU9bQ0gyXVtDQEBIXTJPW0NASF0oW0NAQEhdKFtPSF0pW0NAQEhdMkYpbihbY0hdbjMpYyhjMzQpbltjSF1uYzROKEMoPU8pYzVbY0hdW2NIXVtjSF1bY0hdW2NIXTUpQyg9TyljNltjSF1bY0hdW2NIXVtjSF1bY0hdNg==

> <s_epik_cmdline>
J2VwaWtfcHl0aG9uJywgJy1waCcsICc3LjAnLCAnLXRuJywgJzgnLCAnLW1hJywgJzIwMCcsICctbWV0YWxfYmluZGluZycsICctaW1hZScsICc8aW5maWxlLm1hZT4nLCAnLW9tYWUnLCAnPG91dGZpbGUubWFlPic=

> <r_lp_tautomer_probability>
1

> <r_epik_Ionization_Penalty>
0.00067664

> <r_epik_Ionization_Penalty_Charging>
0

> <r_epik_Ionization_Penalty_Neutral>
0.00067664

> <r_epik_State_Penalty>
0.000428095

> <r_epik_Charging_Adjusted_Penalty>
0.000428095

> <i_epik_Tot_Q>
0

> <i_epik_Tot_abs_Q>
0

> <r_epik_Metal_State_Penalty>
-0

> <b_epik_Metal_Only>
0

> <s_epik_Chemistry_Notes>
This compound has an ester and may undergo hydrolysis at high or low pH. This compound contains an acetal/aminal-like group ( X-CH(R)-Y where X, Y are N, S, or O) that may be acid/base labile, releasing an aldehyde.

> <s_lp_Force_Field>
OPLS_2005

> <r_lp_Energy>
74.9187

> <b_lp_Chiralities_Consistent>
1

> <s_lp_Variant>
AV-unprocessed.smi:33-15

> <Gold.Version>
5.8.1

> <Gold.Id.Protein>
6NUR|6NUR_protein|mol2

> <Gold.PLP.Fitness>
54.6151

> <Gold.PLP.PLP>
-51.9965

> <Gold.PLP.part.hbond>
-2.8643

> <Gold.PLP.part.metal>
0.0000

> <Gold.PLP.part.buried>
-3.6493

> <Gold.PLP.part.nonpolar>
-45.3348

> <Gold.PLP.part.repulsive>
0.0000

> <Gold.PLP.ligand.clash>
0.0000

> <Gold.PLP.ligand.torsion>
4.0602

> <Gold.PLP.Chemscore.Hbond>
1.9588

> <Gold.PLP.Chemscore.CHOScore>
0.0000

> <Gold.PLP.Chemscore.Metal>
0.0000

> <Gold.Chemscore.Hbonds>
donor molecule, donor type, donor heavy atom, donor atom, acceptor molecule, acceptor atom, score
      L1  H    35    61       P1  7948  0.99
      P1  H  6896  6907       L1    10  0.81

> <Gold.PLP.Chemscore.Internal.Correction>
4.8628

> <Gold.Rescore>
     Score         DG    S(hbond)    S(metal)    S(lipo)     H(rot)  DE(clash)    DE(int)     intcor
     15.49     -22.28       1.92        0.00     143.99       2.52       0.37       6.42       ----

> <Gold.Chemscore.Fitness>
15.4901

> <Gold.Chemscore.DG>
-22.2820

> <Gold.Chemscore.ZeroCoef>
-5.4800

> <Gold.Chemscore.Hbond>
1.9216

> <Gold.Chemscore.Metal>
0.0000

> <Gold.Chemscore.Lipo>
143.9913

> <Gold.Chemscore.Internal_Hbond>
0.0000

> <Gold.Chemscore.DEClash>
0.3698

> <Gold.Chemscore.DEInternal>
6.4222

> <Gold.Chemscore.Rot>
2.5247

> <Gold.Chemscore.Internal.Correction>
   9.000000E+99

> <Gold.Chemscore.Hbonds>
donor molecule, donor type, donor heavy atom, donor atom, acceptor molecule, acceptor atom, score
      L1  H    35    61       P1  7948  0.81
      P1  H  6896  6907       L1    10  0.75

> <Gold.Chemscore.Hbond.Weighted>
-6.4183

> <Gold.Chemscore.Metal.Weighted>
-0.0000

> <Gold.Chemscore.Lipo.Weighted>
-16.8470

> <Gold.Chemscore.Internal_Hbond.Weighted>
0.0000

> <Gold.Chemscore.DEClash.Weighted>
0.3698

> <Gold.Chemscore.DEInternal.Weighted>
6.4222

> <Gold.Chemscore.Rot.Weighted>
6.4633

> <Gold.Chemscore.Internal.Correction.Weighted>
   9.000000E+99

> <Gold.Protein.RotatedTorsions>
[ 6907 6896 6895 6894 ] final  -59.53 input  -60.11 | X-H torsion
[ 7974 7965 7964 7962 ] final  -85.44 input  175.53 | X-H torsion
[ 8008 7997 7996 7995 ] final    7.83 input   59.86 | X-H torsion
[ 10167 10162 10161 10158 ] final  -43.36 input  -65.29 | X-H torsion
[ 10718 10713 10712 10709 ] final -161.41 input   66.30 | X-H torsion
[ 10763 10752 10751 10750 ] final   89.72 input  -60.55 | X-H torsion
[ 11005 11000 10999 10996 ] final -121.53 input  -57.11 | X-H torsion

> <Gold.Protein.ActiveResidues>
 VAL166  LYS551  ARG553  GLY616  TRP617  ASP618  TYR619  PRO620  LYS621  CYS622 
 ASP623  PHE694  ASN695  SER759  ASP760  ASP761  ALA762  ILE779  LEU786  VAL792 
 PHE793  MET794  SER795  GLU796  ALA797  LYS798  CYS799  TRP800  GLU811  SER814 

> <Gold.Protein.RotatedAtoms>
  150.7923  134.6956  159.6520 H   0  0  0  0  0  0  0  0  0  0  0  0  # atno 6907 bound_to 6896
  152.4031  134.6250  160.0070 H   0  0  0  0  0  0  0  0  0  0  0  0  # atno 6908 bound_to 6896
  151.6516  133.3284  159.3189 H   0  0  0  0  0  0  0  0  0  0  0  0  # atno 6909 bound_to 6896
  145.4932  140.9551  143.1800 H   0  0  0  0  0  0  0  0  0  0  0  0  # atno 7974 bound_to 7965
  154.7589  140.2781  155.6230 H   0  0  0  0  0  0  0  0  0  0  0  0  # atno 8008 bound_to 7997
  156.2911  140.2664  156.2289 H   0  0  0  0  0  0  0  0  0  0  0  0  # atno 8009 bound_to 7997
  155.0042  140.0372  157.2362 H   0  0  0  0  0  0  0  0  0  0  0  0  # atno 8010 bound_to 7997
  140.6936  143.2987  151.3341 H   0  0  0  0  0  0  0  0  0  0  0  0  # atno 10167 bound_to 10162
  156.5958  130.8789  151.2901 H   0  0  0  0  0  0  0  0  0  0  0  0  # atno 10718 bound_to 10713
  153.1900  135.4460  155.0137 H   0  0  0  0  0  0  0  0  0  0  0  0  # atno 10763 bound_to 10752
  154.8084  135.3284  154.7372 H   0  0  0  0  0  0  0  0  0  0  0  0  # atno 10764 bound_to 10752
  153.7828  135.6976  153.4940 H   0  0  0  0  0  0  0  0  0  0  0  0  # atno 10765 bound_to 10752
  141.0063  134.0330  157.3472 H   0  0  0  0  0  0  0  0  0  0  0  0  # atno 11005 bound_to 11000
  144.7822  139.6502  143.7149 LP  0  0  0  0  0  0  0  0  0  0  0  0  # atno 17320 bound_to 7965
  146.2271  139.5743  142.9580 LP  0  0  0  0  0  0  0  0  0  0  0  0  # atno 17321 bound_to 7965
  139.6366  144.0618  152.2521 LP  0  0  0  0  0  0  0  0  0  0  0  0  # atno 17342 bound_to 10162
  140.0110  144.6223  150.7647 LP  0  0  0  0  0  0  0  0  0  0  0  0  # atno 17343 bound_to 10162
  157.7292  130.9668  150.1777 LP  0  0  0  0  0  0  0  0  0  0  0  0  # atno 17370 bound_to 10713
  156.2511  130.3700  149.8231 LP  0  0  0  0  0  0  0  0  0  0  0  0  # atno 17371 bound_to 10713
  139.9065  135.0180  156.7509 LP  0  0  0  0  0  0  0  0  0  0  0  0  # atno 17394 bound_to 11000
  140.6807  133.9477  155.7909 LP  0  0  0  0  0  0  0  0  0  0  0  0  # atno 17395 bound_to 11000

$$$$
