AV-unprocessed.smi:1344|AV-procd|sdf|5509|dock4
  -GOLD-   22720 5 93D 1   1.00000     0.00000
 Structure written by MMmdl.
 32 34  0  0  0  0  0  0  0  0  1 V2000
  151.0306  141.0345  158.2159 O   0  0  0  0  0  0  0  0  0  0  0  0
  150.6195  142.1205  157.8070 C   0  0  0  0  0  0  0  0  0  0  0  0
  151.2877  143.4157  158.2722 C   0  0  0  0  0  0  0  0  0  0  0  0
  152.0349  143.1818  159.5533 C   0  0  0  0  0  0  0  0  0  0  0  0
  151.9542  143.9321  160.7010 C   0  0  0  0  0  0  0  0  0  0  0  0
  152.9844  143.3118  161.9620 S   0  0  0  0  0  0  0  0  0  0  0  0
  153.5004  142.0296  160.8629 C   0  0  0  0  0  0  0  0  0  0  0  0
  154.4178  140.9788  161.1594 N   0  0  0  0  0  0  0  0  0  0  0  0
  155.0214  140.8378  162.4808 C   0  0  0  0  0  0  0  0  0  0  0  0
  155.9491  139.6358  162.3328 C   0  0  0  0  0  0  0  0  0  0  0  0
  155.7291  139.2498  160.9588 N   0  0  0  0  0  0  0  0  0  0  0  0
  154.8559  140.0259  160.3128 C   0  0  0  0  0  0  0  0  0  0  0  0
  154.5273  139.8624  159.1393 O   0  0  0  0  0  0  0  0  0  0  0  0
  152.9253  142.1070  159.6583 N   0  0  0  0  0  0  0  0  0  0  0  0
  149.5959  142.2543  156.9500 N   0  0  0  0  0  0  0  0  0  0  0  0
  148.8494  141.1850  156.3720 C   0  0  0  0  0  0  0  0  0  0  0  0
  149.6114  140.1577  155.5631 C   0  0  0  0  0  0  0  0  0  0  0  0
  148.7242  141.1507  154.8642 C   0  0  0  0  0  0  0  0  0  0  0  0
  151.9580  143.7819  157.4932 H   0  0  0  0  0  0  0  0  0  0  0  0
  150.5246  144.1838  158.4060 H   0  0  0  0  0  0  0  0  0  0  0  0
  151.3483  144.8078  160.8817 H   0  0  0  0  0  0  0  0  0  0  0  0
  155.5747  141.7385  162.7513 H   0  0  0  0  0  0  0  0  0  0  0  0
  154.2553  140.6585  163.2367 H   0  0  0  0  0  0  0  0  0  0  0  0
  156.9944  139.9028  162.4921 H   0  0  0  0  0  0  0  0  0  0  0  0
  155.6812  138.8236  163.0092 H   0  0  0  0  0  0  0  0  0  0  0  0
  156.1970  138.4604  160.5372 H   0  0  0  0  0  0  0  0  0  0  0  0
  149.3357  143.1900  156.6731 H   0  0  0  0  0  0  0  0  0  0  0  0
  147.9927  140.8127  156.9320 H   0  0  0  0  0  0  0  0  0  0  0  0
  150.6875  140.2865  155.4603 H   0  0  0  0  0  0  0  0  0  0  0  0
  149.2691  139.1260  155.6128 H   0  0  0  0  0  0  0  0  0  0  0  0
  147.7889  140.7828  154.4475 H   0  0  0  0  0  0  0  0  0  0  0  0
  149.2073  141.9425  154.2946 H   0  0  0  0  0  0  0  0  0  0  0  0
  1  2  2  0  0  0  0
  2  3  1  0  0  0  0
  2 15  1  0  0  0  0
  3  4  1  0  0  0  0
  3 19  1  0  0  0  0
  3 20  1  0  0  0  0
  4 14  1  0  0  0  0
  4  5  2  0  0  0  0
  5  6  1  0  0  0  0
  5 21  1  0  0  0  0
  6  7  1  0  0  0  0
  7  8  1  0  0  0  0
  7 14  2  0  0  0  0
  8 12  1  0  0  0  0
  8  9  1  0  0  0  0
  9 10  1  0  0  0  0
  9 22  1  0  0  0  0
  9 23  1  0  0  0  0
 10 11  1  0  0  0  0
 10 24  1  0  0  0  0
 10 25  1  0  0  0  0
 11 12  1  0  0  0  0
 11 26  1  0  0  0  0
 12 13  2  0  0  0  0
 15 16  1  0  0  0  0
 15 27  1  0  0  0  0
 16 18  1  0  0  0  0
 16 17  1  0  0  0  0
 16 28  1  0  0  0  0
 17 18  1  0  0  0  0
 17 29  1  0  0  0  0
 17 30  1  0  0  0  0
 18 31  1  0  0  0  0
 18 32  1  0  0  0  0
M  END
> <s_m_source_file>
AV-unprocessed.smi

> <i_m_source_file_index>
1344

> <i_lp_mmshare_version>
43012

> <i_f3d_flags>
0

> <s_epik_input>
W0NIMl0xW0NIMl1bQ0hdMVtOSF1DKD1PKVtDSDJdYzJbY0hdc2MobjIpTjNbQ0gyXVtDSDJdW05IXUMzPU8=

> <s_epik_cmdline>
J2VwaWtfcHl0aG9uJywgJy1waCcsICc3LjAnLCAnLXRuJywgJzgnLCAnLW1hJywgJzIwMCcsICctbWV0YWxfYmluZGluZycsICctaW1hZScsICc8aW5maWxlLm1hZT4nLCAnLW9tYWUnLCAnPG91dGZpbGUubWFlPic=

> <r_lp_tautomer_probability>
1

> <r_epik_Ionization_Penalty>
0.000119825

> <r_epik_Ionization_Penalty_Charging>
0

> <r_epik_Ionization_Penalty_Neutral>
0.000119825

> <r_epik_State_Penalty>
-0

> <r_epik_Charging_Adjusted_Penalty>
0

> <i_epik_Tot_Q>
0

> <i_epik_Tot_abs_Q>
0

> <r_epik_Metal_State_Penalty>
-0

> <b_epik_Metal_Only>
0

> <s_lp_Force_Field>
OPLS_2005

> <r_lp_Energy>
42.6691

> <b_lp_Chiralities_Consistent>
1

> <s_lp_Variant>
AV-unprocessed.smi:1344-1

> <Gold.Version>
5.8.1

> <Gold.Id.Protein>
6NUR|6NUR_protein|mol2

> <Gold.PLP.Fitness>
44.3605

> <Gold.PLP.PLP>
-39.1410

> <Gold.PLP.part.hbond>
-2.0000

> <Gold.PLP.part.metal>
0.0000

> <Gold.PLP.part.buried>
-2.1912

> <Gold.PLP.part.nonpolar>
-33.6884

> <Gold.PLP.part.repulsive>
0.0642

> <Gold.PLP.ligand.clash>
0.0000

> <Gold.PLP.ligand.torsion>
0.4119

> <Gold.PLP.Chemscore.Hbond>
2.0000

> <Gold.PLP.Chemscore.CHOScore>
0.0000

> <Gold.PLP.Chemscore.Metal>
0.0000

> <Gold.Chemscore.Hbonds>
donor molecule, donor type, donor heavy atom, donor atom, acceptor molecule, acceptor atom, score
      L1  H    15    27       P1  8028  1.00
      P1  H  7997  8009       L1    13  1.00

> <Gold.PLP.Chemscore.Internal.Correction>
0.0434

> <Gold.Rescore>
     Score         DG    S(hbond)    S(metal)    S(lipo)     H(rot)  DE(clash)    DE(int)     intcor
     14.11     -17.28       1.97        0.00      79.79       1.61       0.01       3.16       ----

> <Gold.Chemscore.Fitness>
14.1094

> <Gold.Chemscore.DG>
-17.2818

> <Gold.Chemscore.ZeroCoef>
-5.4800

> <Gold.Chemscore.Hbond>
1.9699

> <Gold.Chemscore.Metal>
0.0000

> <Gold.Chemscore.Lipo>
79.7895

> <Gold.Chemscore.Internal_Hbond>
0.0000

> <Gold.Chemscore.DEClash>
0.0106

> <Gold.Chemscore.DEInternal>
3.1617

> <Gold.Chemscore.Rot>
1.6067

> <Gold.Chemscore.Internal.Correction>
   9.000000E+99

> <Gold.Chemscore.Hbonds>
donor molecule, donor type, donor heavy atom, donor atom, acceptor molecule, acceptor atom, score
      L1  H    15    27       P1  8028  0.99
      P1  H  7997  8009       L1    13  0.97

> <Gold.Chemscore.Hbond.Weighted>
-6.5796

> <Gold.Chemscore.Metal.Weighted>
-0.0000

> <Gold.Chemscore.Lipo.Weighted>
-9.3354

> <Gold.Chemscore.Internal_Hbond.Weighted>
0.0000

> <Gold.Chemscore.DEClash.Weighted>
0.0106

> <Gold.Chemscore.DEInternal.Weighted>
3.1617

> <Gold.Chemscore.Rot.Weighted>
4.1132

> <Gold.Chemscore.Internal.Correction.Weighted>
   9.000000E+99

> <Gold.Protein.RotatedTorsions>
[ 6907 6896 6895 6894 ] final  170.69 input  -60.11 | X-H torsion
[ 7974 7965 7964 7962 ] final  -16.95 input  175.53 | X-H torsion
[ 8008 7997 7996 7995 ] final  116.04 input   59.86 | X-H torsion
[ 10167 10162 10161 10158 ] final  148.94 input  -65.29 | X-H torsion
[ 10718 10713 10712 10709 ] final -129.45 input   66.30 | X-H torsion
[ 10763 10752 10751 10750 ] final -112.00 input  -60.55 | X-H torsion
[ 11005 11000 10999 10996 ] final  -25.15 input  -57.11 | X-H torsion

> <Gold.Protein.ActiveResidues>
 VAL166  LYS551  ARG553  GLY616  TRP617  ASP618  TYR619  PRO620  LYS621  CYS622 
 ASP623  PHE694  ASN695  SER759  ASP760  ASP761  ALA762  ILE779  LEU786  VAL792 
 PHE793  MET794  SER795  GLU796  ALA797  LYS798  CYS799  TRP800  GLU811  SER814 

> <Gold.Protein.RotatedAtoms>
  151.8120  133.3383  159.3558 H   0  0  0  0  0  0  0  0  0  0  0  0  # atno 6907 bound_to 6896
  150.7323  134.5654  159.5873 H   0  0  0  0  0  0  0  0  0  0  0  0  # atno 6908 bound_to 6896
  152.3068  134.7547  160.0397 H   0  0  0  0  0  0  0  0  0  0  0  0  # atno 6909 bound_to 6896
  146.1964  140.3710  142.8439 H   0  0  0  0  0  0  0  0  0  0  0  0  # atno 7974 bound_to 7965
  156.2416  140.2926  156.0461 H   0  0  0  0  0  0  0  0  0  0  0  0  # atno 8008 bound_to 7997
  155.1933  140.0407  157.2921 H   0  0  0  0  0  0  0  0  0  0  0  0  # atno 8009 bound_to 7997
  154.6180  140.2468  155.7592 H   0  0  0  0  0  0  0  0  0  0  0  0  # atno 8010 bound_to 7997
  139.4868  144.5641  151.7178 H   0  0  0  0  0  0  0  0  0  0  0  0  # atno 10167 bound_to 10162
  156.2048  130.6881  151.0582 H   0  0  0  0  0  0  0  0  0  0  0  0  # atno 10718 bound_to 10713
  154.8328  135.4507  154.1126 H   0  0  0  0  0  0  0  0  0  0  0  0  # atno 10763 bound_to 10752
  153.2384  135.6913  153.7817 H   0  0  0  0  0  0  0  0  0  0  0  0  # atno 10764 bound_to 10752
  153.7174  135.3347  155.3235 H   0  0  0  0  0  0  0  0  0  0  0  0  # atno 10765 bound_to 10752
  140.8911  133.7588  156.0422 H   0  0  0  0  0  0  0  0  0  0  0  0  # atno 11005 bound_to 11000
  144.8589  140.7110  143.6120 LP  0  0  0  0  0  0  0  0  0  0  0  0  # atno 17320 bound_to 7965
  145.3630  139.1677  143.4373 LP  0  0  0  0  0  0  0  0  0  0  0  0  # atno 17321 bound_to 7965
  140.5215  144.0871  150.6024 LP  0  0  0  0  0  0  0  0  0  0  0  0  # atno 17342 bound_to 10162
  140.3830  143.2792  152.0148 LP  0  0  0  0  0  0  0  0  0  0  0  0  # atno 17343 bound_to 10162
  157.7006  131.0777  150.6831 LP  0  0  0  0  0  0  0  0  0  0  0  0  # atno 17370 bound_to 10713
  156.6890  130.4589  149.5605 LP  0  0  0  0  0  0  0  0  0  0  0  0  # atno 17371 bound_to 10713
  140.8346  134.3138  157.5336 LP  0  0  0  0  0  0  0  0  0  0  0  0  # atno 17394 bound_to 11000
  139.8730  134.9382  156.3708 LP  0  0  0  0  0  0  0  0  0  0  0  0  # atno 17395 bound_to 11000

$$$$
