AV-unprocessed.smi:2602|AV-procd|sdf|10184|dock3
  -GOLD-   2272014193D 1   1.00000     0.00000
 Structure written by MMmdl.
 46 47  0  0  0  0  0  0  0  0  1 V2000
  144.5610  132.7052  151.1455 C   0  0  0  0  0  0  0  0  0  0  0  0
  143.4732  133.4252  151.7188 O   0  0  0  0  0  0  0  0  0  0  0  0
  143.6866  134.6937  152.1408 C   0  0  0  0  0  0  0  0  0  0  0  0
  142.5905  135.3279  152.5601 N   0  0  0  0  0  0  0  0  0  0  0  0
  142.7505  136.5975  152.9872 C   0  0  0  0  0  0  0  0  0  0  0  0
  144.0115  137.2274  152.9931 C   0  0  0  0  0  0  0  0  0  0  0  0
  145.1129  136.4727  152.5319 C   0  0  0  0  0  0  0  0  0  0  0  0
  146.3693  137.1338  152.5477 N   0  0  0  0  0  0  0  0  0  0  0  0
  146.7280  138.2087  153.2710 C   0  0  0  0  0  0  0  0  0  0  0  0
  145.9894  138.8281  154.0370 O   0  0  0  0  0  0  0  0  0  0  0  0
  148.0136  138.5278  153.0601 N   0  0  0  0  0  0  0  0  0  0  0  0
  148.7466  139.6118  153.7156 C   0  0  0  0  0  0  0  0  0  0  0  0
  149.8176  139.0945  154.7255 C   0  0  0  0  0  0  0  0  0  0  0  0
  150.5693  140.2635  155.4482 C   0  0  0  0  0  0  0  0  0  0  0  0
  151.7925  140.3401  155.3060 O   0  0  0  0  0  0  0  0  0  0  0  0
  149.9245  141.1667  156.2362 N   0  0  0  0  0  0  0  0  0  0  0  0
  150.7035  142.1785  156.9576 C   0  0  0  0  0  0  0  0  0  0  0  0
  148.4857  141.2721  156.4995 C   0  0  0  0  0  0  0  0  0  0  0  0
  149.1011  138.1689  155.7493 C   0  0  0  0  0  0  0  0  0  0  0  0
  150.1566  137.2162  156.3192 C   0  0  0  0  0  0  0  0  0  0  0  0
  151.2509  137.1368  155.2531 C   0  0  0  0  0  0  0  0  0  0  0  0
  150.8145  138.0748  154.1189 C   0  0  0  0  0  0  0  0  0  0  0  0
  144.9276  135.1989  152.1068 N   0  0  0  0  0  0  0  0  0  0  0  0
  144.2227  131.7100  150.8573 H   0  0  0  0  0  0  0  0  0  0  0  0
  145.3792  132.5833  151.8573 H   0  0  0  0  0  0  0  0  0  0  0  0
  144.9385  133.1982  150.2483 H   0  0  0  0  0  0  0  0  0  0  0  0
  141.8664  137.1165  153.3269 H   0  0  0  0  0  0  0  0  0  0  0  0
  144.1221  138.2452  153.3372 H   0  0  0  0  0  0  0  0  0  0  0  0
  147.0794  136.7337  151.9526 H   0  0  0  0  0  0  0  0  0  0  0  0
  148.5389  137.9604  152.4110 H   0  0  0  0  0  0  0  0  0  0  0  0
  149.2387  140.1769  152.9236 H   0  0  0  0  0  0  0  0  0  0  0  0
  148.0551  140.3249  154.1574 H   0  0  0  0  0  0  0  0  0  0  0  0
  151.4616  141.7076  157.5857 H   0  0  0  0  0  0  0  0  0  0  0  0
  150.0844  142.7930  157.6127 H   0  0  0  0  0  0  0  0  0  0  0  0
  151.2056  142.8479  156.2575 H   0  0  0  0  0  0  0  0  0  0  0  0
  147.8442  140.6788  155.8574 H   0  0  0  0  0  0  0  0  0  0  0  0
  148.1595  142.3058  156.3793 H   0  0  0  0  0  0  0  0  0  0  0  0
  148.2762  140.9794  157.5286 H   0  0  0  0  0  0  0  0  0  0  0  0
  148.5671  138.7054  156.5349 H   0  0  0  0  0  0  0  0  0  0  0  0
  148.3481  137.5674  155.2376 H   0  0  0  0  0  0  0  0  0  0  0  0
  150.5693  137.6155  157.2465 H   0  0  0  0  0  0  0  0  0  0  0  0
  149.7320  136.2378  156.5459 H   0  0  0  0  0  0  0  0  0  0  0  0
  152.2002  137.4693  155.6749 H   0  0  0  0  0  0  0  0  0  0  0  0
  151.3943  136.1183  154.8911 H   0  0  0  0  0  0  0  0  0  0  0  0
  150.3139  137.4904  153.3457 H   0  0  0  0  0  0  0  0  0  0  0  0
  151.6950  138.5133  153.6546 H   0  0  0  0  0  0  0  0  0  0  0  0
  1  2  1  0  0  0  0
  1 24  1  0  0  0  0
  1 25  1  0  0  0  0
  1 26  1  0  0  0  0
  2  3  1  0  0  0  0
  3 23  1  0  0  0  0
  3  4  2  0  0  0  0
  4  5  1  0  0  0  0
  5  6  2  0  0  0  0
  5 27  1  0  0  0  0
  6  7  1  0  0  0  0
  6 28  1  0  0  0  0
  7  8  1  0  0  0  0
  7 23  2  0  0  0  0
  8  9  1  0  0  0  0
  8 29  1  0  0  0  0
  9 10  2  0  0  0  0
  9 11  1  0  0  0  0
 11 12  1  0  0  0  0
 11 30  1  0  0  0  0
 12 13  1  0  0  0  0
 12 31  1  0  0  0  0
 12 32  1  0  0  0  0
 13 22  1  0  0  0  0
 13 14  1  0  0  0  0
 13 19  1  0  0  0  0
 14 15  2  0  0  0  0
 14 16  1  0  0  0  0
 16 17  1  0  0  0  0
 16 18  1  0  0  0  0
 17 33  1  0  0  0  0
 17 34  1  0  0  0  0
 17 35  1  0  0  0  0
 18 36  1  0  0  0  0
 18 37  1  0  0  0  0
 18 38  1  0  0  0  0
 19 20  1  0  0  0  0
 19 39  1  0  0  0  0
 19 40  1  0  0  0  0
 20 21  1  0  0  0  0
 20 41  1  0  0  0  0
 20 42  1  0  0  0  0
 21 22  1  0  0  0  0
 21 43  1  0  0  0  0
 21 44  1  0  0  0  0
 22 45  1  0  0  0  0
 22 46  1  0  0  0  0
M  END
> <s_m_source_file>
AV-unprocessed.smi

> <i_m_source_file_index>
2602

> <i_lp_mmshare_version>
43012

> <i_f3d_flags>
0

> <s_epik_input>
W0NIM11PYzFuW2NIXVtjSF1jKG4xKVtOSF1DKD1PKVtOSF1bQ0gyXUMyKEMoPU8pTihbQ0gzXSlbQ0gzXSlbQ0gyXVtDSDJdW0NIMl1bQ0gyXTI=

> <s_epik_cmdline>
J2VwaWtfcHl0aG9uJywgJy1waCcsICc3LjAnLCAnLXRuJywgJzgnLCAnLW1hJywgJzIwMCcsICctbWV0YWxfYmluZGluZycsICctaW1hZScsICc8aW5maWxlLm1hZT4nLCAnLW9tYWUnLCAnPG91dGZpbGUubWFlPic=

> <r_lp_tautomer_probability>
1

> <r_epik_Ionization_Penalty>
0.00154328

> <r_epik_Ionization_Penalty_Charging>
0

> <r_epik_Ionization_Penalty_Neutral>
0.00154328

> <r_epik_State_Penalty>
-0

> <r_epik_Charging_Adjusted_Penalty>
0

> <i_epik_Tot_Q>
0

> <i_epik_Tot_abs_Q>
0

> <r_epik_Metal_State_Penalty>
-0

> <b_epik_Metal_Only>
0

> <s_lp_Force_Field>
OPLS_2005

> <r_lp_Energy>
36.1441

> <b_lp_Chiralities_Consistent>
1

> <s_lp_Variant>
AV-unprocessed.smi:2602-1

> <Gold.Version>
5.8.1

> <Gold.Id.Protein>
6NUR|6NUR_protein|mol2

> <Gold.PLP.Fitness>
38.3889

> <Gold.PLP.PLP>
-31.3842

> <Gold.PLP.part.hbond>
-4.0000

> <Gold.PLP.part.metal>
0.0000

> <Gold.PLP.part.buried>
-3.1795

> <Gold.PLP.part.nonpolar>
-26.0976

> <Gold.PLP.part.repulsive>
0.7536

> <Gold.PLP.ligand.clash>
0.0000

> <Gold.PLP.ligand.torsion>
0.2846

> <Gold.PLP.Chemscore.Hbond>
2.4560

> <Gold.PLP.Chemscore.CHOScore>
0.0000

> <Gold.PLP.Chemscore.Metal>
0.0000

> <Gold.Chemscore.Hbonds>
donor molecule, donor type, donor heavy atom, donor atom, acceptor molecule, acceptor atom, score
      L1  H     8    29       P1  7948  0.91
      L1  H    11    30       P1  7948  0.96
      P1  H  7989  7998       L1    15  0.56

> <Gold.PLP.Chemscore.Internal.Correction>
0.2059

> <Gold.Rescore>
     Score         DG    S(hbond)    S(metal)    S(lipo)     H(rot)  DE(clash)    DE(int)     intcor
     11.09     -13.56       1.96        0.00      54.80       1.91       0.79       1.69       ----

> <Gold.Chemscore.Fitness>
11.0912

> <Gold.Chemscore.DG>
-13.5643

> <Gold.Chemscore.ZeroCoef>
-5.4800

> <Gold.Chemscore.Hbond>
1.9626

> <Gold.Chemscore.Metal>
0.0000

> <Gold.Chemscore.Lipo>
54.7998

> <Gold.Chemscore.Internal_Hbond>
0.0000

> <Gold.Chemscore.DEClash>
0.7859

> <Gold.Chemscore.DEInternal>
1.6872

> <Gold.Chemscore.Rot>
1.9072

> <Gold.Chemscore.Internal.Correction>
   9.000000E+99

> <Gold.Chemscore.Hbonds>
donor molecule, donor type, donor heavy atom, donor atom, acceptor molecule, acceptor atom, score
      L1  H     8    29       P1  7948  0.88
      L1  H    11    30       P1  7948  0.92
      P1  H  7989  7998       L1    15  0.06

> <Gold.Chemscore.Hbond.Weighted>
-6.5551

> <Gold.Chemscore.Metal.Weighted>
-0.0000

> <Gold.Chemscore.Lipo.Weighted>
-6.4116

> <Gold.Chemscore.Internal_Hbond.Weighted>
0.0000

> <Gold.Chemscore.DEClash.Weighted>
0.7859

> <Gold.Chemscore.DEInternal.Weighted>
1.6872

> <Gold.Chemscore.Rot.Weighted>
4.8824

> <Gold.Chemscore.Internal.Correction.Weighted>
   9.000000E+99

> <Gold.Protein.RotatedTorsions>
[ 6907 6896 6895 6894 ] final  -39.64 input  -60.11 | X-H torsion
[ 7974 7965 7964 7962 ] final   65.45 input  175.53 | X-H torsion
[ 8008 7997 7996 7995 ] final   -8.22 input   59.86 | X-H torsion
[ 10167 10162 10161 10158 ] final -150.21 input  -65.29 | X-H torsion
[ 10718 10713 10712 10709 ] final  -57.38 input   66.30 | X-H torsion
[ 10763 10752 10751 10750 ] final   71.80 input  -60.55 | X-H torsion
[ 11005 11000 10999 10996 ] final  -35.85 input  -57.11 | X-H torsion

> <Gold.Protein.ActiveResidues>
 VAL166  LYS551  ARG553  GLY616  TRP617  ASP618  TYR619  PRO620  LYS621  CYS622 
 ASP623  PHE694  ASN695  SER759  ASP760  ASP761  ALA762  ILE779  LEU786  VAL792 
 PHE793  MET794  SER795  GLU796  ALA797  LYS798  CYS799  TRP800  GLU811  SER814 

> <Gold.Protein.RotatedAtoms>
  150.9880  134.9221  159.7882 H   0  0  0  0  0  0  0  0  0  0  0  0  # atno 6907 bound_to 6896
  152.5242  134.3320  159.9196 H   0  0  0  0  0  0  0  0  0  0  0  0  # atno 6908 bound_to 6896
  151.3327  133.3953  159.2698 H   0  0  0  0  0  0  0  0  0  0  0  0  # atno 6909 bound_to 6896
  145.8383  139.3180  143.0946 H   0  0  0  0  0  0  0  0  0  0  0  0  # atno 7974 bound_to 7965
  154.5762  140.2387  155.8119 H   0  0  0  0  0  0  0  0  0  0  0  0  # atno 8008 bound_to 7997
  156.2145  140.3016  155.9765 H   0  0  0  0  0  0  0  0  0  0  0  0  # atno 8009 bound_to 7997
  155.2622  140.0415  157.2989 H   0  0  0  0  0  0  0  0  0  0  0  0  # atno 8010 bound_to 7997
  139.7374  143.8714  152.2553 H   0  0  0  0  0  0  0  0  0  0  0  0  # atno 10167 bound_to 10162
  156.1215  130.4166  150.0433 H   0  0  0  0  0  0  0  0  0  0  0  0  # atno 10718 bound_to 10713
  153.0420  135.5123  154.7648 H   0  0  0  0  0  0  0  0  0  0  0  0  # atno 10763 bound_to 10752
  154.6577  135.2934  154.9908 H   0  0  0  0  0  0  0  0  0  0  0  0  # atno 10764 bound_to 10752
  154.0770  135.6669  153.4885 H   0  0  0  0  0  0  0  0  0  0  0  0  # atno 10765 bound_to 10752
  140.9829  133.7046  156.1715 H   0  0  0  0  0  0  0  0  0  0  0  0  # atno 11005 bound_to 11000
  145.9494  140.8920  143.0267 LP  0  0  0  0  0  0  0  0  0  0  0  0  # atno 17320 bound_to 7965
  144.6735  140.1658  143.7418 LP  0  0  0  0  0  0  0  0  0  0  0  0  # atno 17321 bound_to 7965
  139.8655  144.7095  150.9049 LP  0  0  0  0  0  0  0  0  0  0  0  0  # atno 17342 bound_to 10162
  140.7781  143.3782  151.1525 LP  0  0  0  0  0  0  0  0  0  0  0  0  # atno 17343 bound_to 10162
  156.8370  130.9412  151.3634 LP  0  0  0  0  0  0  0  0  0  0  0  0  # atno 17370 bound_to 10713
  157.6398  130.8796  149.9427 LP  0  0  0  0  0  0  0  0  0  0  0  0  # atno 17371 bound_to 10713
  140.7159  134.4411  157.5578 LP  0  0  0  0  0  0  0  0  0  0  0  0  # atno 17394 bound_to 11000
  139.8958  134.8675  156.2117 LP  0  0  0  0  0  0  0  0  0  0  0  0  # atno 17395 bound_to 11000

$$$$
