AV-unprocessed.smi:160|AV-procd|sdf|1369|dock2
  -GOLD-   2262019 83D 1   1.00000     0.00000
 Structure written by MMmdl.
 28 29  0  0  0  0  0  0  0  0  2 V2000
  152.0087  137.3448  154.0172 N   0  5  0  0  0  0  0  0  0  0  0  0
  152.6276  138.3241  154.7118 C   0  0  0  0  0  0  0  0  0  0  0  0
  153.8406  138.4364  154.8874 O   0  0  0  0  0  0  0  0  0  0  0  0
  151.6977  139.3555  155.3058 C   0  0  0  0  0  0  0  0  0  0  0  0
  152.1219  140.1784  156.3127 N   0  0  0  0  0  0  0  0  0  0  0  0
  151.0121  140.8812  156.4943 C   0  0  0  0  0  0  0  0  0  0  0  0
  150.0063  140.5384  155.6847 N   0  0  0  0  0  0  0  0  0  0  0  0
  148.6165  141.0973  155.5975 C   0  0  2  0  0  0  0  0  0  0  0  0
  147.7118  140.0901  155.9388 O   0  0  0  0  0  0  0  0  0  0  0  0
  147.1107  139.5641  154.7604 C   0  0  1  0  0  0  0  0  0  0  0  0
  145.7960  138.8319  155.0835 C   0  0  0  0  0  0  0  0  0  0  0  0
  145.1386  138.4603  153.8910 O   0  0  0  0  0  0  0  0  0  0  0  0
  146.9743  140.8091  153.8717 C   0  0  1  0  0  0  0  0  0  0  0  0
  145.8229  141.5583  154.2187 O   0  0  0  0  0  0  0  0  0  0  0  0
  148.2368  141.6061  154.1846 C   0  0  2  0  0  0  0  0  0  0  0  0
  149.2192  141.3765  153.1896 O   0  0  0  0  0  0  0  0  0  0  0  0
  150.4373  139.5238  154.8939 N   0  0  0  0  0  0  0  0  0  0  0  0
  148.5946  141.8815  156.3550 H   0  0  0  0  0  0  0  0  0  0  0  0
  147.8076  138.8770  154.2773 H   0  0  0  0  0  0  0  0  0  0  0  0
  146.8948  140.5438  152.8164 H   0  0  0  0  0  0  0  0  0  0  0  0
  148.0438  142.6789  154.2274 H   0  0  0  0  0  0  0  0  0  0  0  0
  151.1575  137.5807  153.4932 H   0  0  0  0  0  0  0  0  0  0  0  0
  150.9317  141.6662  157.2317 H   0  0  0  0  0  0  0  0  0  0  0  0
  145.9713  137.9540  155.7061 H   0  0  0  0  0  0  0  0  0  0  0  0
  145.1238  139.4924  155.6319 H   0  0  0  0  0  0  0  0  0  0  0  0
  144.6581  139.2061  153.5661 H   0  0  0  0  0  0  0  0  0  0  0  0
  145.0738  141.1688  153.7946 H   0  0  0  0  0  0  0  0  0  0  0  0
  149.1210  140.4944  152.8660 H   0  0  0  0  0  0  0  0  0  0  0  0
  1  2  1  0  0  0  0
  1 22  1  0  0  0  0
  2  3  2  0  0  0  0
  2  4  1  0  0  0  0
  4 17  2  0  0  0  0
  4  5  1  0  0  0  0
  5  6  2  0  0  0  0
  6  7  1  0  0  0  0
  6 23  1  0  0  0  0
  7  8  1  0  0  0  0
  7 17  1  0  0  0  0
  8 18  1  0  0  0  0
  8 15  1  0  0  0  0
  8  9  1  0  0  0  0
  9 10  1  0  0  0  0
 10 19  1  0  0  0  0
 10 11  1  0  0  0  0
 10 13  1  0  0  0  0
 11 12  1  0  0  0  0
 11 24  1  0  0  0  0
 11 25  1  0  0  0  0
 12 26  1  0  0  0  0
 13 20  1  0  0  0  0
 13 14  1  0  0  0  0
 13 15  1  0  0  0  0
 14 27  1  0  0  0  0
 15 21  1  0  0  0  0
 15 16  1  0  0  0  0
 16 28  1  0  0  0  0
M  CHG  1   1  -1
M  END
> <s_m_source_file>
AV-unprocessed.smi

> <i_m_source_file_index>
160

> <i_lp_mmshare_version>
43012

> <i_f3d_flags>
0

> <s_epik_input>
W05IMl1DKD1PKWMxbltjSF1uKG4xKVtDQEBIXTJPW0NASF0oW0NIMl1bT0hdKVtDQEBIXShbT0hdKVtDQEhdMltPSF0=

> <s_epik_cmdline>
J2VwaWtfcHl0aG9uJywgJy1waCcsICc3LjAnLCAnLXRuJywgJzgnLCAnLW1hJywgJzIwMCcsICctbWV0YWxfYmluZGluZycsICctaW1hZScsICc8aW5maWxlLm1hZT4nLCAnLW9tYWUnLCAnPG91dGZpbGUubWFlPic=

> <r_lp_tautomer_probability>
1

> <r_epik_Ionization_Penalty>
6.6993

> <r_epik_Ionization_Penalty_Charging>
6.6993

> <r_epik_Ionization_Penalty_Neutral>
6.01698e-06

> <r_epik_State_Penalty>
6.69929

> <r_epik_Charging_Adjusted_Penalty>
13.3986

> <i_epik_Tot_Q>
-1

> <i_epik_Tot_abs_Q>
1

> <r_epik_Metal_State_Penalty>
2.62798

> <b_epik_Metal_Only>
1

> <s_epik_Chemistry_Notes>
This compound contains an acetal/aminal-like group ( X-CH(R)-Y where X, Y are N, S, or O) that may be acid/base labile, releasing an aldehyde.

> <s_lp_Force_Field>
OPLS_2005

> <r_lp_Energy>
46.3304

> <b_lp_Chiralities_Consistent>
1

> <s_lp_Variant>
AV-unprocessed.smi:160-27

> <Gold.Version>
5.8.1

> <Gold.Id.Protein>
6NUR|6NUR_protein|mol2

> <Gold.PLP.Fitness>
46.5833

> <Gold.PLP.PLP>
-28.9270

> <Gold.PLP.part.hbond>
-8.3093

> <Gold.PLP.part.metal>
0.0000

> <Gold.PLP.part.buried>
-3.6544

> <Gold.PLP.part.nonpolar>
-16.7782

> <Gold.PLP.part.repulsive>
0.0802

> <Gold.PLP.ligand.clash>
0.0000

> <Gold.PLP.ligand.torsion>
0.1847

> <Gold.PLP.Chemscore.Hbond>
6.0064

> <Gold.PLP.Chemscore.CHOScore>
0.0000

> <Gold.PLP.Chemscore.Metal>
0.0000

> <Gold.Chemscore.Hbonds>
donor molecule, donor type, donor heavy atom, donor atom, acceptor molecule, acceptor atom, score
      L1  H    12    26       P1 10175  1.00
      L1  H    14    27       P1 10175  1.00
      L1  H    16    28       P1  7957  0.42
      P1  H  7997  8010       L1     3  0.66
      P1  H  8011  8017       L1    16  0.83
      P1  H 10752 10763       L1     1  1.95

> <Gold.PLP.Chemscore.Internal.Correction>
0.0065

> <Gold.Rescore>
     Score         DG    S(hbond)    S(metal)    S(lipo)     H(rot)  DE(clash)    DE(int)     intcor
     11.59     -13.17       4.79        0.00      17.29       4.04       0.06       1.51       ----

> <Gold.Chemscore.Fitness>
11.5931

> <Gold.Chemscore.DG>
-13.1654

> <Gold.Chemscore.ZeroCoef>
-5.4800

> <Gold.Chemscore.Hbond>
4.7923

> <Gold.Chemscore.Metal>
0.0000

> <Gold.Chemscore.Lipo>
17.2856

> <Gold.Chemscore.Internal_Hbond>
0.0000

> <Gold.Chemscore.DEClash>
0.0637

> <Gold.Chemscore.DEInternal>
1.5086

> <Gold.Chemscore.Rot>
4.0403

> <Gold.Chemscore.Internal.Correction>
   9.000000E+99

> <Gold.Chemscore.Hbonds>
donor molecule, donor type, donor heavy atom, donor atom, acceptor molecule, acceptor atom, score
      L1  H    12    26       P1 10175  0.99
      L1  H    14    27       P1 10175  0.57
      L1  H    16    28       P1  7957  0.42
      P1  H  7997  8010       L1     3  0.60
      P1  H  8011  8017       L1    16  0.78
      P1  H 10752 10763       L1     1  0.73

> <Gold.Chemscore.Hbond.Weighted>
-16.0061

> <Gold.Chemscore.Metal.Weighted>
-0.0000

> <Gold.Chemscore.Lipo.Weighted>
-2.0224

> <Gold.Chemscore.Internal_Hbond.Weighted>
0.0000

> <Gold.Chemscore.DEClash.Weighted>
0.0637

> <Gold.Chemscore.DEInternal.Weighted>
1.5086

> <Gold.Chemscore.Rot.Weighted>
10.3431

> <Gold.Chemscore.Internal.Correction.Weighted>
   9.000000E+99

> <Gold.Protein.RotatedTorsions>
[ 6907 6896 6895 6894 ] final  168.20 input  -60.11 | X-H torsion
[ 7974 7965 7964 7962 ] final  -78.47 input  175.53 | X-H torsion
[ 8008 7997 7996 7995 ] final  107.38 input   59.86 | X-H torsion
[ 10167 10162 10161 10158 ] final   20.19 input  -65.29 | X-H torsion
[ 10718 10713 10712 10709 ] final  -43.51 input   66.30 | X-H torsion
[ 10763 10752 10751 10750 ] final   29.17 input  -60.55 | X-H torsion
[ 11005 11000 10999 10996 ] final  151.46 input  -57.11 | X-H torsion

> <Gold.Protein.ActiveResidues>
 VAL166  LYS551  ARG553  GLY616  TRP617  ASP618  TYR619  PRO620  LYS621  CYS622 
 ASP623  PHE694  ASN695  SER759  ASP760  ASP761  ALA762  ILE779  LEU786  VAL792 
 PHE793  MET794  SER795  GLU796  ALA797  LYS798  CYS799  TRP800  GLU811  SER814 

> <Gold.Protein.RotatedAtoms>
  151.8514  133.3440  159.3674 H   0  0  0  0  0  0  0  0  0  0  0  0  # atno 6907 bound_to 6896
  150.7205  134.5295  159.5703 H   0  0  0  0  0  0  0  0  0  0  0  0  # atno 6908 bound_to 6896
  152.2790  134.7850  160.0451 H   0  0  0  0  0  0  0  0  0  0  0  0  # atno 6909 bound_to 6896
  145.5861  140.9439  143.1318 H   0  0  0  0  0  0  0  0  0  0  0  0  # atno 7974 bound_to 7965
  156.1820  140.3096  155.9166 H   0  0  0  0  0  0  0  0  0  0  0  0  # atno 8008 bound_to 7997
  155.3364  140.0463  157.3061 H   0  0  0  0  0  0  0  0  0  0  0  0  # atno 8009 bound_to 7997
  154.5353  140.2244  155.8744 H   0  0  0  0  0  0  0  0  0  0  0  0  # atno 8010 bound_to 7997
  140.5522  143.9488  150.6585 H   0  0  0  0  0  0  0  0  0  0  0  0  # atno 10167 bound_to 10162
  156.2483  130.4186  149.8679 H   0  0  0  0  0  0  0  0  0  0  0  0  # atno 10718 bound_to 10713
  153.0447  135.6495  154.0849 H   0  0  0  0  0  0  0  0  0  0  0  0  # atno 10763 bound_to 10752
  154.0549  135.2892  155.3336 H   0  0  0  0  0  0  0  0  0  0  0  0  # atno 10764 bound_to 10752
  154.6695  135.5361  153.8186 H   0  0  0  0  0  0  0  0  0  0  0  0  # atno 10765 bound_to 10752
  140.1221  134.8857  157.2086 H   0  0  0  0  0  0  0  0  0  0  0  0  # atno 11005 bound_to 11000
  144.7372  139.7551  143.7325 LP  0  0  0  0  0  0  0  0  0  0  0  0  # atno 17320 bound_to 7965
  146.1681  139.4821  142.9945 LP  0  0  0  0  0  0  0  0  0  0  0  0  # atno 17321 bound_to 7965
  140.2917  143.3320  152.1056 LP  0  0  0  0  0  0  0  0  0  0  0  0  # atno 17342 bound_to 10162
  139.5032  144.6751  151.6148 LP  0  0  0  0  0  0  0  0  0  0  0  0  # atno 17343 bound_to 10162
  156.6237  130.8637  151.3481 LP  0  0  0  0  0  0  0  0  0  0  0  0  # atno 17370 bound_to 10713
  157.7204  130.9551  150.1416 LP  0  0  0  0  0  0  0  0  0  0  0  0  # atno 17371 bound_to 10713
  140.2952  134.3195  155.7304 LP  0  0  0  0  0  0  0  0  0  0  0  0  # atno 17394 bound_to 11000
  141.2153  133.7558  156.9561 LP  0  0  0  0  0  0  0  0  0  0  0  0  # atno 17395 bound_to 11000

$$$$
