AV-unprocessed.smi:54|AV-procd|sdf|547|dock1
  -GOLD-   2262016443D 1   1.00000     0.00000
 Structure written by MMmdl.
 43 45  0  0  0  0  0  0  0  0  2 V2000
  146.2647  135.4128  162.5215 C   0  0  0  0  0  0  0  0  0  0  0  0
  146.7375  135.2082  161.0727 C   0  0  0  0  0  0  0  0  0  0  0  0
  147.3589  133.8149  160.8798 C   0  0  0  0  0  0  0  0  0  0  0  0
  147.7298  136.3056  160.6621 C   0  0  0  0  0  0  0  0  0  0  0  0
  147.9789  137.2154  161.4559 O   0  0  0  0  0  0  0  0  0  0  0  0
  148.2688  136.1634  159.4306 N   0  0  0  0  0  0  0  0  0  0  0  0
  149.2080  136.9683  158.7745 C   0  0  0  0  0  0  0  0  0  0  0  0
  148.6583  137.8321  157.9556 N   0  0  0  0  0  0  0  0  0  0  0  0
  149.5909  138.6318  157.3229 C   0  0  0  0  0  0  0  0  0  0  0  0
  150.9507  138.6083  157.4663 C   0  0  0  0  0  0  0  0  0  0  0  0
  151.5624  139.5580  156.6572 N   0  0  0  0  0  0  0  0  0  0  0  0
  150.5186  140.1229  156.0517 C   0  0  0  0  0  0  0  0  0  0  0  0
  149.3095  139.6378  156.4055 N   0  0  0  0  0  0  0  0  0  0  0  0
  147.9543  140.0445  155.9084 C   0  0  2  0  0  0  0  0  0  0  0  0
  147.4499  139.0185  155.1054 O   0  0  0  0  0  0  0  0  0  0  0  0
  147.7400  139.3005  153.7403 C   0  0  1  0  0  0  0  0  0  0  0  0
  146.8792  138.4440  152.7950 C   0  0  0  0  0  0  0  0  0  0  0  0
  147.3446  138.5712  151.4683 O   0  0  0  0  0  0  0  0  0  0  0  0
  147.4972  140.8135  153.6781 C   0  0  1  0  0  0  0  0  0  0  0  0
  146.1108  141.0898  153.5499 O   0  0  0  0  0  0  0  0  0  0  0  0
  148.0782  141.2908  155.0102 C   0  0  1  0  0  0  0  0  0  0  0  0
  147.4095  142.4241  155.5313 O   0  0  0  0  0  0  0  0  0  0  0  0
  151.5059  137.6152  158.4158 C   0  0  0  0  0  0  0  0  0  0  0  0
  152.7231  137.5594  158.5809 O   0  0  0  0  0  0  0  0  0  0  0  0
  150.5841  136.8263  159.0450 N   0  5  0  0  0  0  0  0  0  0  0  0
  147.3554  140.1807  156.8098 H   0  0  0  0  0  0  0  0  0  0  0  0
  148.7991  139.1158  153.5496 H   0  0  0  0  0  0  0  0  0  0  0  0
  148.0119  141.2683  152.8311 H   0  0  0  0  0  0  0  0  0  0  0  0
  149.1323  141.5382  154.8736 H   0  0  0  0  0  0  0  0  0  0  0  0
  145.8263  136.4021  162.6590 H   0  0  0  0  0  0  0  0  0  0  0  0
  147.0868  135.3106  163.2313 H   0  0  0  0  0  0  0  0  0  0  0  0
  145.5047  134.6787  162.7898 H   0  0  0  0  0  0  0  0  0  0  0  0
  145.8617  135.2752  160.4250 H   0  0  0  0  0  0  0  0  0  0  0  0
  147.7073  133.6749  159.8558 H   0  0  0  0  0  0  0  0  0  0  0  0
  146.6297  133.0312  161.0867 H   0  0  0  0  0  0  0  0  0  0  0  0
  148.2090  133.6585  161.5453 H   0  0  0  0  0  0  0  0  0  0  0  0
  147.9890  135.3250  158.9440 H   0  0  0  0  0  0  0  0  0  0  0  0
  150.6432  140.9167  155.3301 H   0  0  0  0  0  0  0  0  0  0  0  0
  146.8782  137.3956  153.0959 H   0  0  0  0  0  0  0  0  0  0  0  0
  145.8454  138.7901  152.8113 H   0  0  0  0  0  0  0  0  0  0  0  0
  147.9660  139.2822  151.4347 H   0  0  0  0  0  0  0  0  0  0  0  0
  145.6835  140.3279  153.1906 H   0  0  0  0  0  0  0  0  0  0  0  0
  148.0499  143.1021  155.6839 H   0  0  0  0  0  0  0  0  0  0  0  0
  1  2  1  0  0  0  0
  1 30  1  0  0  0  0
  1 31  1  0  0  0  0
  1 32  1  0  0  0  0
  2  3  1  0  0  0  0
  2  4  1  0  0  0  0
  2 33  1  0  0  0  0
  3 34  1  0  0  0  0
  3 35  1  0  0  0  0
  3 36  1  0  0  0  0
  4  5  2  0  0  0  0
  4  6  1  0  0  0  0
  6 37  1  0  0  0  0
  6  7  1  0  0  0  0
  7 25  1  0  0  0  0
  7  8  2  0  0  0  0
  8  9  1  0  0  0  0
  9 13  1  0  0  0  0
  9 10  2  0  0  0  0
 10 11  1  0  0  0  0
 10 23  1  0  0  0  0
 11 12  2  0  0  0  0
 12 13  1  0  0  0  0
 12 38  1  0  0  0  0
 13 14  1  0  0  0  0
 14 26  1  0  0  0  0
 14 21  1  0  0  0  0
 14 15  1  0  0  0  0
 15 16  1  0  0  0  0
 16 27  1  0  0  0  0
 16 17  1  0  0  0  0
 16 19  1  0  0  0  0
 17 18  1  0  0  0  0
 17 39  1  0  0  0  0
 17 40  1  0  0  0  0
 18 41  1  0  0  0  0
 19 28  1  0  0  0  0
 19 20  1  0  0  0  0
 19 21  1  0  0  0  0
 20 42  1  0  0  0  0
 21 29  1  0  0  0  0
 21 22  1  0  0  0  0
 22 43  1  0  0  0  0
 23 24  2  0  0  0  0
 23 25  1  0  0  0  0
M  CHG  1  25  -1
M  END
> <s_m_source_file>
AV-unprocessed.smi

> <i_m_source_file_index>
54

> <i_lp_mmshare_version>
43012

> <i_f3d_flags>
0

> <s_epik_input>
W0NIM11bQ0hdKFtDSDNdKUMoPU8pW05IXWMobjEpW25IXWMoPU8pYyhjMTIpbltjSF1uMltDQEBIXTNPW0NASF0oW0NIMl1bT0hdKVtDQEBIXShbT0hdKVtDQEhdM1tPSF0=

> <s_epik_cmdline>
J2VwaWtfcHl0aG9uJywgJy1waCcsICc3LjAnLCAnLXRuJywgJzgnLCAnLW1hJywgJzIwMCcsICctbWV0YWxfYmluZGluZycsICctaW1hZScsICc8aW5maWxlLm1hZT4nLCAnLW9tYWUnLCAnPG91dGZpbGUubWFlPic=

> <r_lp_tautomer_probability>
0.85571

> <r_epik_Ionization_Penalty>
1.75936

> <r_epik_Ionization_Penalty_Charging>
4.55893e-11

> <r_epik_Ionization_Penalty_Neutral>
1.75936

> <r_epik_State_Penalty>
1.72072

> <r_epik_Charging_Adjusted_Penalty>
1.72072

> <i_epik_Tot_Q>
-1

> <i_epik_Tot_abs_Q>
1

> <r_epik_Metal_State_Penalty>
0.400338

> <b_epik_Metal_Only>
1

> <s_epik_Chemistry_Notes>
This compound contains an acetal/aminal-like group ( X-CH(R)-Y where X, Y are N, S, or O) that may be acid/base labile, releasing an aldehyde.

> <s_lp_Force_Field>
OPLS_2005

> <r_lp_Energy>
64.1359

> <b_lp_Chiralities_Consistent>
1

> <s_lp_Variant>
AV-unprocessed.smi:54-19

> <Gold.Version>
5.8.1

> <Gold.Id.Protein>
6NUR|6NUR_protein|mol2

> <Gold.PLP.Fitness>
49.9731

> <Gold.PLP.PLP>
-32.2740

> <Gold.PLP.part.hbond>
-7.9322

> <Gold.PLP.part.metal>
0.0000

> <Gold.PLP.part.buried>
-3.6152

> <Gold.PLP.part.nonpolar>
-20.6349

> <Gold.PLP.part.repulsive>
0.1882

> <Gold.PLP.ligand.clash>
0.0000

> <Gold.PLP.ligand.torsion>
1.0282

> <Gold.PLP.Chemscore.Hbond>
6.5671

> <Gold.PLP.Chemscore.CHOScore>
0.0000

> <Gold.PLP.Chemscore.Metal>
0.0000

> <Gold.Chemscore.Hbonds>
donor molecule, donor type, donor heavy atom, donor atom, acceptor molecule, acceptor atom, score
      L1  H    18    41       P1  7957  1.00
      L1  H    20    42       P1 10175  0.29
      L1  H    22    43       P1  8028  1.00
      P1  H  6896  6908       L1    25  2.00
      P1  H  6931  6943       L1     5  1.00
      P1  H  6934  6947       L1     5  0.65
      P1  H  7954  7966       L1    18  0.35

> <Gold.PLP.Chemscore.Internal.Correction>
0.0542

> <Gold.Rescore>
     Score         DG    S(hbond)    S(metal)    S(lipo)     H(rot)  DE(clash)    DE(int)     intcor
     15.53     -16.41       4.68        0.00      47.63       4.02       0.11       0.77       ----

> <Gold.Chemscore.Fitness>
15.5281

> <Gold.Chemscore.DG>
-16.4104

> <Gold.Chemscore.ZeroCoef>
-5.4800

> <Gold.Chemscore.Hbond>
4.6847

> <Gold.Chemscore.Metal>
0.0000

> <Gold.Chemscore.Lipo>
47.6316

> <Gold.Chemscore.Internal_Hbond>
0.0000

> <Gold.Chemscore.DEClash>
0.1086

> <Gold.Chemscore.DEInternal>
0.7737

> <Gold.Chemscore.Rot>
4.0192

> <Gold.Chemscore.Internal.Correction>
   9.000000E+99

> <Gold.Chemscore.Hbonds>
donor molecule, donor type, donor heavy atom, donor atom, acceptor molecule, acceptor atom, score
      L1  H    18    41       P1  7957  0.88
      L1  H    20    42       P1 10175  0.28
      L1  H    22    43       P1  8028  0.74
      P1  H  6896  6908       L1    25  0.78
      P1  H  6931  6943       L1     5  0.93
      P1  H  6934  6947       L1     5  0.55
      P1  H  7954  7966       L1    18  0.01

> <Gold.Chemscore.Hbond.Weighted>
-15.6468

> <Gold.Chemscore.Metal.Weighted>
-0.0000

> <Gold.Chemscore.Lipo.Weighted>
-5.5729

> <Gold.Chemscore.Internal_Hbond.Weighted>
0.0000

> <Gold.Chemscore.DEClash.Weighted>
0.1086

> <Gold.Chemscore.DEInternal.Weighted>
0.7737

> <Gold.Chemscore.Rot.Weighted>
10.2893

> <Gold.Chemscore.Internal.Correction.Weighted>
   9.000000E+99

> <Gold.Protein.RotatedTorsions>
[ 6907 6896 6895 6894 ] final -157.16 input  -60.11 | X-H torsion
[ 7974 7965 7964 7962 ] final  126.46 input  175.53 | X-H torsion
[ 8008 7997 7996 7995 ] final   -6.58 input   59.86 | X-H torsion
[ 10167 10162 10161 10158 ] final   87.66 input  -65.29 | X-H torsion
[ 10718 10713 10712 10709 ] final   87.74 input   66.30 | X-H torsion
[ 10763 10752 10751 10750 ] final -140.58 input  -60.55 | X-H torsion
[ 11005 11000 10999 10996 ] final  135.80 input  -57.11 | X-H torsion

> <Gold.Protein.ActiveResidues>
 VAL166  LYS551  ARG553  GLY616  TRP617  ASP618  TYR619  PRO620  LYS621  CYS622 
 ASP623  PHE694  ASN695  SER759  ASP760  ASP761  ALA762  ILE779  LEU786  VAL792 
 PHE793  MET794  SER795  GLU796  ALA797  LYS798  CYS799  TRP800  GLU811  SER814 

> <Gold.Protein.RotatedAtoms>
  151.2987  133.4132  159.2637 H   0  0  0  0  0  0  0  0  0  0  0  0  # atno 6907 bound_to 6896
  151.0214  134.9472  159.8072 H   0  0  0  0  0  0  0  0  0  0  0  0  # atno 6908 bound_to 6896
  152.5325  134.2950  159.9109 H   0  0  0  0  0  0  0  0  0  0  0  0  # atno 6909 bound_to 6896
  145.0614  139.3802  143.5004 H   0  0  0  0  0  0  0  0  0  0  0  0  # atno 7974 bound_to 7965
  154.5924  140.2429  155.7903 H   0  0  0  0  0  0  0  0  0  0  0  0  # atno 8008 bound_to 7997
  156.2256  140.2983  156.0012 H   0  0  0  0  0  0  0  0  0  0  0  0  # atno 8009 bound_to 7997
  155.2352  140.0405  157.2958 H   0  0  0  0  0  0  0  0  0  0  0  0  # atno 8010 bound_to 7997
  139.8751  144.6471  150.8905 H   0  0  0  0  0  0  0  0  0  0  0  0  # atno 10167 bound_to 10162
  157.6943  131.0267  150.3168 H   0  0  0  0  0  0  0  0  0  0  0  0  # atno 10718 bound_to 10713
  154.8574  135.3549  154.5731 H   0  0  0  0  0  0  0  0  0  0  0  0  # atno 10763 bound_to 10752
  153.6343  135.7001  153.5269 H   0  0  0  0  0  0  0  0  0  0  0  0  # atno 10764 bound_to 10752
  153.3023  135.4203  155.1223 H   0  0  0  0  0  0  0  0  0  0  0  0  # atno 10765 bound_to 10752
  140.0003  134.9481  157.0058 H   0  0  0  0  0  0  0  0  0  0  0  0  # atno 11005 bound_to 11000
  146.3524  140.0314  142.8650 LP  0  0  0  0  0  0  0  0  0  0  0  0  # atno 17320 bound_to 7965
  145.1404  140.9568  143.4492 LP  0  0  0  0  0  0  0  0  0  0  0  0  # atno 17321 bound_to 7965
  140.7754  143.3631  151.1790 LP  0  0  0  0  0  0  0  0  0  0  0  0  # atno 17342 bound_to 10162
  139.7247  143.9167  152.2998 LP  0  0  0  0  0  0  0  0  0  0  0  0  # atno 17343 bound_to 10162
  156.3662  130.3855  149.7212 LP  0  0  0  0  0  0  0  0  0  0  0  0  # atno 17370 bound_to 10713
  156.4642  130.7966  151.2985 LP  0  0  0  0  0  0  0  0  0  0  0  0  # atno 17371 bound_to 10713
  140.4740  134.1357  155.7207 LP  0  0  0  0  0  0  0  0  0  0  0  0  # atno 17394 bound_to 11000
  141.1637  133.8744  157.1776 LP  0  0  0  0  0  0  0  0  0  0  0  0  # atno 17395 bound_to 11000

$$$$
