AV-unprocessed.smi:2999|AV-procd|sdf|11424|dock8
  -GOLD-   2272016343D 1   1.00000     0.00000
 Structure written by MMmdl.
 36 38  0  0  0  0  0  0  0  0  2 V2000
  149.5220  136.0205  158.5844 O   0  0  0  0  0  0  0  0  0  0  0  0
  149.4210  137.0275  159.2894 C   0  0  0  0  0  0  0  0  0  0  0  0
  150.3116  138.0200  159.1636 N   0  0  0  0  0  0  0  0  0  0  0  0
  151.4341  138.0242  158.2345 C   0  0  0  0  0  0  0  0  0  0  0  0
  152.3847  139.1932  158.5286 C   0  0  1  0  0  0  0  0  0  0  0  0
  151.6422  140.5441  158.5452 C   0  0  0  0  0  0  0  0  0  0  0  0
  152.5299  141.6500  158.8833 N   0  0  0  0  0  0  0  0  0  0  0  0
  151.8046  142.9114  158.9099 C   0  0  0  0  0  0  0  0  0  0  0  0
  151.5303  143.6357  157.6172 C   0  0  0  0  0  0  0  0  0  0  0  0
  152.5372  144.1929  158.6069 C   0  0  0  0  0  0  0  0  0  0  0  0
  153.1502  141.3746  160.1732 C   0  0  0  0  0  0  0  0  0  0  0  0
  153.8901  140.0263  160.1722 C   0  0  0  0  0  0  0  0  0  0  0  0
  152.9847  138.9894  159.8070 O   0  0  0  0  0  0  0  0  0  0  0  0
  148.4704  137.2604  160.2231 N   0  5  0  0  0  0  0  0  0  0  0  0
  147.8693  136.2295  160.8392 C   0  0  0  0  0  0  0  0  0  0  0  0
  147.6042  135.0682  160.2293 N   0  0  0  0  0  0  0  0  0  0  0  0
  146.9728  134.1380  161.0569 C   0  0  0  0  0  0  0  0  0  0  0  0
  146.7417  134.6057  162.3236 C   0  0  0  0  0  0  0  0  0  0  0  0
  147.3153  136.2379  162.5160 S   0  0  0  0  0  0  0  0  0  0  0  0
  150.1979  138.8319  159.7528 H   0  0  0  0  0  0  0  0  0  0  0  0
  151.9745  137.0806  158.3262 H   0  0  0  0  0  0  0  0  0  0  0  0
  151.0608  138.0844  157.2111 H   0  0  0  0  0  0  0  0  0  0  0  0
  153.1653  139.2204  157.7657 H   0  0  0  0  0  0  0  0  0  0  0  0
  151.1934  140.7217  157.5673 H   0  0  0  0  0  0  0  0  0  0  0  0
  150.8194  140.4972  159.2609 H   0  0  0  0  0  0  0  0  0  0  0  0
  151.0339  142.9308  159.6791 H   0  0  0  0  0  0  0  0  0  0  0  0
  151.9181  143.2014  156.6978 H   0  0  0  0  0  0  0  0  0  0  0  0
  150.5771  144.1523  157.5246 H   0  0  0  0  0  0  0  0  0  0  0  0
  152.2518  145.0796  159.1692 H   0  0  0  0  0  0  0  0  0  0  0  0
  153.5905  144.1270  158.3404 H   0  0  0  0  0  0  0  0  0  0  0  0
  153.8493  142.1729  160.4250 H   0  0  0  0  0  0  0  0  0  0  0  0
  152.3908  141.3668  160.9569 H   0  0  0  0  0  0  0  0  0  0  0  0
  154.7310  140.0460  159.4774 H   0  0  0  0  0  0  0  0  0  0  0  0
  154.2957  139.8144  161.1615 H   0  0  0  0  0  0  0  0  0  0  0  0
  146.7225  133.1654  160.6599 H   0  0  0  0  0  0  0  0  0  0  0  0
  146.2721  134.0940  163.1501 H   0  0  0  0  0  0  0  0  0  0  0  0
  1  2  2  0  0  0  0
  2  3  1  0  0  0  0
  2 14  1  0  0  0  0
  3  4  1  0  0  0  0
  3 20  1  0  0  0  0
  4  5  1  0  0  0  0
  4 21  1  0  0  0  0
  4 22  1  0  0  0  0
  5 13  1  0  0  0  0
  5  6  1  0  0  0  0
  5 23  1  0  0  0  0
  6  7  1  0  0  0  0
  6 24  1  0  0  0  0
  6 25  1  0  0  0  0
  7  8  1  0  0  0  0
  7 11  1  0  0  0  0
  8 10  1  0  0  0  0
  8  9  1  0  0  0  0
  8 26  1  0  0  0  0
  9 10  1  0  0  0  0
  9 27  1  0  0  0  0
  9 28  1  0  0  0  0
 10 29  1  0  0  0  0
 10 30  1  0  0  0  0
 11 12  1  0  0  0  0
 11 31  1  0  0  0  0
 11 32  1  0  0  0  0
 12 13  1  0  0  0  0
 12 33  1  0  0  0  0
 12 34  1  0  0  0  0
 14 15  1  0  0  0  0
 15 19  1  0  0  0  0
 15 16  2  0  0  0  0
 16 17  1  0  0  0  0
 17 18  2  0  0  0  0
 17 35  1  0  0  0  0
 18 19  1  0  0  0  0
 18 36  1  0  0  0  0
M  CHG  1  14  -1
M  END
> <s_m_source_file>
AV-unprocessed.smi

> <i_m_source_file_index>
2999

> <i_lp_mmshare_version>
43012

> <i_f3d_flags>
0

> <s_epik_input>
czFbY0hdW2NIXW5jMVtOSF1DKD1PKVtOSF1bQ0gyXVtDQEBIXTJbQ0gyXU4oW0NIMl1bQ0gyXU8yKVtDSF0zW0NIMl1bQ0gyXTM=

> <s_epik_cmdline>
J2VwaWtfcHl0aG9uJywgJy1waCcsICc3LjAnLCAnLXRuJywgJzgnLCAnLW1hJywgJzIwMCcsICctbWV0YWxfYmluZGluZycsICctaW1hZScsICc8aW5maWxlLm1hZT4nLCAnLW9tYWUnLCAnPG91dGZpbGUubWFlPic=

> <r_lp_tautomer_probability>
0.999

> <r_epik_Ionization_Penalty>
6.67591

> <r_epik_Ionization_Penalty_Charging>
5.6519

> <r_epik_Ionization_Penalty_Neutral>
1.024

> <r_epik_State_Penalty>
5.68985

> <r_epik_Charging_Adjusted_Penalty>
11.3418

> <i_epik_Tot_Q>
-1

> <i_epik_Tot_abs_Q>
1

> <r_epik_Metal_State_Penalty>
1.67789

> <b_epik_Metal_Only>
1

> <s_lp_Force_Field>
OPLS_2005

> <r_lp_Energy>
26.9989

> <b_lp_Chiralities_Consistent>
1

> <s_lp_Variant>
AV-unprocessed.smi:2999-8

> <Gold.Version>
5.8.1

> <Gold.Id.Protein>
6NUR|6NUR_protein|mol2

> <Gold.PLP.Fitness>
46.7649

> <Gold.PLP.PLP>
-39.9846

> <Gold.PLP.part.hbond>
-2.9703

> <Gold.PLP.part.metal>
0.0000

> <Gold.PLP.part.buried>
-5.6247

> <Gold.PLP.part.nonpolar>
-33.4434

> <Gold.PLP.part.repulsive>
0.4734

> <Gold.PLP.ligand.clash>
0.0000

> <Gold.PLP.ligand.torsion>
0.9993

> <Gold.PLP.Chemscore.Hbond>
2.5536

> <Gold.PLP.Chemscore.CHOScore>
0.0000

> <Gold.PLP.Chemscore.Metal>
0.0000

> <Gold.Chemscore.Hbonds>
donor molecule, donor type, donor heavy atom, donor atom, acceptor molecule, acceptor atom, score
      P1  H  6896  6907       L1     1  0.93
      P1  H  6931  6943       L1    14  1.09
      P1  H  6934  6947       L1    14  0.39

> <Gold.PLP.Chemscore.Internal.Correction>
1.1182

> <Gold.Rescore>
     Score         DG    S(hbond)    S(metal)    S(lipo)     H(rot)  DE(clash)    DE(int)     intcor
     13.68     -17.06       1.26        0.00      96.29       1.52       0.85       2.52       ----

> <Gold.Chemscore.Fitness>
13.6804

> <Gold.Chemscore.DG>
-17.0562

> <Gold.Chemscore.ZeroCoef>
-5.4800

> <Gold.Chemscore.Hbond>
1.2553

> <Gold.Chemscore.Metal>
0.0000

> <Gold.Chemscore.Lipo>
96.2911

> <Gold.Chemscore.Internal_Hbond>
0.0000

> <Gold.Chemscore.DEClash>
0.8513

> <Gold.Chemscore.DEInternal>
2.5245

> <Gold.Chemscore.Rot>
1.5167

> <Gold.Chemscore.Internal.Correction>
   9.000000E+99

> <Gold.Chemscore.Hbonds>
donor molecule, donor type, donor heavy atom, donor atom, acceptor molecule, acceptor atom, score
      P1  H  6896  6907       L1     1  0.40
      P1  H  6931  6943       L1    14  0.10
      P1  H  6934  6947       L1    14  0.07

> <Gold.Chemscore.Hbond.Weighted>
-4.1928

> <Gold.Chemscore.Metal.Weighted>
-0.0000

> <Gold.Chemscore.Lipo.Weighted>
-11.2661

> <Gold.Chemscore.Internal_Hbond.Weighted>
0.0000

> <Gold.Chemscore.DEClash.Weighted>
0.8513

> <Gold.Chemscore.DEInternal.Weighted>
2.5245

> <Gold.Chemscore.Rot.Weighted>
3.8827

> <Gold.Chemscore.Internal.Correction.Weighted>
   9.000000E+99

> <Gold.Protein.RotatedTorsions>
[ 6907 6896 6895 6894 ] final  -54.80 input  -60.11 | X-H torsion
[ 7974 7965 7964 7962 ] final   98.94 input  175.53 | X-H torsion
[ 8008 7997 7996 7995 ] final   72.01 input   59.86 | X-H torsion
[ 10167 10162 10161 10158 ] final  137.20 input  -65.29 | X-H torsion
[ 10718 10713 10712 10709 ] final   -7.36 input   66.30 | X-H torsion
[ 10763 10752 10751 10750 ] final  153.81 input  -60.55 | X-H torsion
[ 11005 11000 10999 10996 ] final  156.68 input  -57.11 | X-H torsion

> <Gold.Protein.ActiveResidues>
 VAL166  LYS551  ARG553  GLY616  TRP617  ASP618  TYR619  PRO620  LYS621  CYS622 
 ASP623  PHE694  ASN695  SER759  ASP760  ASP761  ALA762  ILE779  LEU786  VAL792 
 PHE793  MET794  SER795  GLU796  ALA797  LYS798  CYS799  TRP800  GLU811  SER814 

> <Gold.Protein.RotatedAtoms>
  150.8307  134.7558  159.6850 H   0  0  0  0  0  0  0  0  0  0  0  0  # atno 6907 bound_to 6896
  152.4411  134.5585  159.9897 H   0  0  0  0  0  0  0  0  0  0  0  0  # atno 6908 bound_to 6896
  151.5746  133.3348  159.3032 H   0  0  0  0  0  0  0  0  0  0  0  0  # atno 6909 bound_to 6896
  145.4055  139.2341  143.3276 H   0  0  0  0  0  0  0  0  0  0  0  0  # atno 7974 bound_to 7965
  155.7624  140.3486  155.5205 H   0  0  0  0  0  0  0  0  0  0  0  0  # atno 8008 bound_to 7997
  155.8900  140.1016  157.1446 H   0  0  0  0  0  0  0  0  0  0  0  0  # atno 8009 bound_to 7997
  154.4032  140.1306  156.4291 H   0  0  0  0  0  0  0  0  0  0  0  0  # atno 8010 bound_to 7997
  139.5153  144.6423  151.5535 H   0  0  0  0  0  0  0  0  0  0  0  0  # atno 10167 bound_to 10162
  156.7184  130.5143  149.5874 H   0  0  0  0  0  0  0  0  0  0  0  0  # atno 10718 bound_to 10713
  154.1422  135.2820  155.3158 H   0  0  0  0  0  0  0  0  0  0  0  0  # atno 10763 bound_to 10752
  154.6278  135.5445  153.7650 H   0  0  0  0  0  0  0  0  0  0  0  0  # atno 10764 bound_to 10752
  153.0247  135.6455  154.1569 H   0  0  0  0  0  0  0  0  0  0  0  0  # atno 10765 bound_to 10752
  140.1698  134.8551  157.2676 H   0  0  0  0  0  0  0  0  0  0  0  0  # atno 11005 bound_to 11000
  146.2731  140.4759  142.8806 LP  0  0  0  0  0  0  0  0  0  0  0  0  # atno 17320 bound_to 7965
  144.8344  140.6759  143.6270 LP  0  0  0  0  0  0  0  0  0  0  0  0  # atno 17321 bound_to 7965
  140.6194  143.9286  150.6514 LP  0  0  0  0  0  0  0  0  0  0  0  0  # atno 17342 bound_to 10162
  140.2555  143.3562  152.1368 LP  0  0  0  0  0  0  0  0  0  0  0  0  # atno 17343 bound_to 10162
  156.1612  130.6375  151.0720 LP  0  0  0  0  0  0  0  0  0  0  0  0  # atno 17370 bound_to 10713
  157.6908  131.0810  150.7113 LP  0  0  0  0  0  0  0  0  0  0  0  0  # atno 17371 bound_to 10713
  140.2391  134.3817  155.7488 LP  0  0  0  0  0  0  0  0  0  0  0  0  # atno 17394 bound_to 11000
  141.2216  133.7255  156.8760 LP  0  0  0  0  0  0  0  0  0  0  0  0  # atno 17395 bound_to 11000

$$$$
