AV-unprocessed.smi:1150|AV-procd|sdf|4893|dock8
  -GOLD-   22720 3463D 1   1.00000     0.00000
 Structure written by MMmdl.
 50 51  0  0  0  0  0  0  0  0  1 V2000
  152.6017  138.1888  156.4149 C   0  0  0  0  0  0  0  0  0  0  0  0
  151.1440  138.1125  156.8915 C   0  0  0  0  0  0  0  0  0  0  0  0
  150.9746  138.3870  158.4002 C   0  0  2  0  0  0  0  0  0  0  0  0
  149.5824  138.1775  158.7947 N   0  0  0  0  0  0  0  0  0  0  0  0
  149.0832  137.0981  159.4169 C   0  0  0  0  0  0  0  0  0  0  0  0
  149.7084  136.0511  159.5803 O   0  0  0  0  0  0  0  0  0  0  0  0
  147.6747  137.2502  159.9925 C   0  0  0  0  0  0  0  0  0  0  0  0
  147.4952  136.2641  161.1225 C   0  0  0  0  0  0  0  0  0  0  0  0
  147.2680  136.5545  162.5000 C   0  0  0  0  0  0  0  0  0  0  0  0
  147.1304  137.8995  163.1536 C   0  0  0  0  0  0  0  0  0  0  0  0
  147.2026  135.4621  163.2428 N   0  0  0  0  0  0  0  0  0  0  0  0
  147.3840  134.4458  162.3763 N   0  0  0  0  0  0  0  0  0  0  0  0
  147.3831  133.0821  162.8684 C   0  0  0  0  0  0  0  0  0  0  0  0
  147.5566  134.8964  161.0826 C   0  0  0  0  0  0  0  0  0  0  0  0
  147.7863  133.9628  159.9384 C   0  0  0  0  0  0  0  0  0  0  0  0
  151.4470  139.8079  158.8158 C   0  0  0  0  0  0  0  0  0  0  0  0
  150.9664  140.8874  157.8177 C   0  0  0  0  0  0  0  0  0  0  0  0
  151.3935  142.3004  158.2434 C   0  0  0  0  0  0  0  0  0  0  0  0
  152.9156  142.3848  158.4243 C   0  0  0  0  0  0  0  0  0  0  0  0
  153.4040  141.3357  159.4331 C   0  0  0  0  0  0  0  0  0  0  0  0
  152.9803  139.9198  159.0120 C   0  0  0  0  0  0  0  0  0  0  0  0
  152.6654  138.0296  155.3385 H   0  0  0  0  0  0  0  0  0  0  0  0
  153.2216  137.4323  156.8966 H   0  0  0  0  0  0  0  0  0  0  0  0
  153.0361  139.1651  156.6322 H   0  0  0  0  0  0  0  0  0  0  0  0
  150.5574  138.8373  156.3258 H   0  0  0  0  0  0  0  0  0  0  0  0
  150.7419  137.1316  156.6376 H   0  0  0  0  0  0  0  0  0  0  0  0
  151.6133  137.6688  158.9176 H   0  0  0  0  0  0  0  0  0  0  0  0
  148.9726  138.9767  158.7035 H   0  0  0  0  0  0  0  0  0  0  0  0
  147.5401  138.2789  160.3275 H   0  0  0  0  0  0  0  0  0  0  0  0
  146.9404  137.0873  159.2030 H   0  0  0  0  0  0  0  0  0  0  0  0
  148.0246  138.5021  162.9952 H   0  0  0  0  0  0  0  0  0  0  0  0
  146.9772  137.8135  164.2299 H   0  0  0  0  0  0  0  0  0  0  0  0
  146.2830  138.4473  162.7418 H   0  0  0  0  0  0  0  0  0  0  0  0
  146.5075  132.5566  162.4866 H   0  0  0  0  0  0  0  0  0  0  0  0
  147.3595  133.0653  163.9588 H   0  0  0  0  0  0  0  0  0  0  0  0
  148.2835  132.5693  162.5295 H   0  0  0  0  0  0  0  0  0  0  0  0
  147.7571  134.4907  158.9854 H   0  0  0  0  0  0  0  0  0  0  0  0
  147.0245  133.1836  159.9117 H   0  0  0  0  0  0  0  0  0  0  0  0
  148.7606  133.4819  160.0243 H   0  0  0  0  0  0  0  0  0  0  0  0
  150.9767  140.0358  159.7737 H   0  0  0  0  0  0  0  0  0  0  0  0
  151.3700  140.6878  156.8257 H   0  0  0  0  0  0  0  0  0  0  0  0
  149.8810  140.8493  157.7200 H   0  0  0  0  0  0  0  0  0  0  0  0
  151.0677  143.0262  157.4980 H   0  0  0  0  0  0  0  0  0  0  0  0
  150.8967  142.5689  159.1766 H   0  0  0  0  0  0  0  0  0  0  0  0
  153.4091  142.2273  157.4642 H   0  0  0  0  0  0  0  0  0  0  0  0
  153.1969  143.3836  158.7582 H   0  0  0  0  0  0  0  0  0  0  0  0
  154.4894  141.3859  159.5236 H   0  0  0  0  0  0  0  0  0  0  0  0
  152.9999  141.5604  160.4209 H   0  0  0  0  0  0  0  0  0  0  0  0
  153.3207  139.2110  159.7661 H   0  0  0  0  0  0  0  0  0  0  0  0
  153.5008  139.6613  158.0896 H   0  0  0  0  0  0  0  0  0  0  0  0
  1  2  1  0  0  0  0
  1 22  1  0  0  0  0
  1 23  1  0  0  0  0
  1 24  1  0  0  0  0
  2  3  1  0  0  0  0
  2 25  1  0  0  0  0
  2 26  1  0  0  0  0
  3  4  1  0  0  0  0
  3 16  1  0  0  0  0
  3 27  1  0  0  0  0
  4  5  1  0  0  0  0
  4 28  1  0  0  0  0
  5  6  2  0  0  0  0
  5  7  1  0  0  0  0
  7  8  1  0  0  0  0
  7 29  1  0  0  0  0
  7 30  1  0  0  0  0
  8 14  2  0  0  0  0
  8  9  1  0  0  0  0
  9 10  1  0  0  0  0
  9 11  2  0  0  0  0
 10 31  1  0  0  0  0
 10 32  1  0  0  0  0
 10 33  1  0  0  0  0
 11 12  1  0  0  0  0
 12 13  1  0  0  0  0
 12 14  1  0  0  0  0
 13 34  1  0  0  0  0
 13 35  1  0  0  0  0
 13 36  1  0  0  0  0
 14 15  1  0  0  0  0
 15 37  1  0  0  0  0
 15 38  1  0  0  0  0
 15 39  1  0  0  0  0
 16 21  1  0  0  0  0
 16 17  1  0  0  0  0
 16 40  1  0  0  0  0
 17 18  1  0  0  0  0
 17 41  1  0  0  0  0
 17 42  1  0  0  0  0
 18 19  1  0  0  0  0
 18 43  1  0  0  0  0
 18 44  1  0  0  0  0
 19 20  1  0  0  0  0
 19 45  1  0  0  0  0
 19 46  1  0  0  0  0
 20 21  1  0  0  0  0
 20 47  1  0  0  0  0
 20 48  1  0  0  0  0
 21 49  1  0  0  0  0
 21 50  1  0  0  0  0
M  END
> <s_m_source_file>
AV-unprocessed.smi

> <i_m_source_file_index>
1150

> <i_lp_mmshare_version>
43012

> <i_f3d_flags>
0

> <s_epik_input>
W0NIMl0xW0NIMl1bQ0gyXVtDSDJdW0NIMl1bQ0hdMVtDQEhdKFtDSDJdW0NIM10pW05IXUMoPU8pW0NIMl1jMmMoW0NIM10pbm4oW0NIM10pYzJbQ0gzXQ==

> <s_epik_cmdline>
J2VwaWtfcHl0aG9uJywgJy1waCcsICc3LjAnLCAnLXRuJywgJzgnLCAnLW1hJywgJzIwMCcsICctbWV0YWxfYmluZGluZycsICctaW1hZScsICc8aW5maWxlLm1hZT4nLCAnLW9tYWUnLCAnPG91dGZpbGUubWFlPic=

> <r_lp_tautomer_probability>
1

> <r_epik_Ionization_Penalty>
0.00328092

> <r_epik_Ionization_Penalty_Charging>
0

> <r_epik_Ionization_Penalty_Neutral>
0.00328092

> <r_epik_State_Penalty>
0.00231765

> <r_epik_Charging_Adjusted_Penalty>
0.00231765

> <i_epik_Tot_Q>
0

> <i_epik_Tot_abs_Q>
0

> <r_epik_Metal_State_Penalty>
-0

> <b_epik_Metal_Only>
0

> <s_lp_Force_Field>
OPLS_2005

> <r_lp_Energy>
6.65813

> <b_lp_Chiralities_Consistent>
1

> <s_lp_Variant>
AV-unprocessed.smi:1150-1

> <Gold.Version>
5.8.1

> <Gold.Id.Protein>
6NUR|6NUR_protein|mol2

> <Gold.PLP.Fitness>
39.2319

> <Gold.PLP.PLP>
-38.0607

> <Gold.PLP.part.hbond>
-1.0000

> <Gold.PLP.part.metal>
0.0000

> <Gold.PLP.part.buried>
-4.8458

> <Gold.PLP.part.nonpolar>
-32.2681

> <Gold.PLP.part.repulsive>
0.2001

> <Gold.PLP.ligand.clash>
0.0000

> <Gold.PLP.ligand.torsion>
0.9496

> <Gold.PLP.Chemscore.Hbond>
1.0000

> <Gold.PLP.Chemscore.CHOScore>
0.0000

> <Gold.PLP.Chemscore.Metal>
0.0000

> <Gold.Chemscore.Hbonds>
donor molecule, donor type, donor heavy atom, donor atom, acceptor molecule, acceptor atom, score
      P1  H  6896  6909       L1     6  1.00

> <Gold.PLP.Chemscore.Internal.Correction>
0.0703

> <Gold.Rescore>
     Score         DG    S(hbond)    S(metal)    S(lipo)     H(rot)  DE(clash)    DE(int)     intcor
     13.91     -17.46       1.00        0.00     104.84       1.42       0.03       3.51       ----

> <Gold.Chemscore.Fitness>
13.9117

> <Gold.Chemscore.DG>
-17.4554

> <Gold.Chemscore.ZeroCoef>
-5.4800

> <Gold.Chemscore.Hbond>
0.9994

> <Gold.Chemscore.Metal>
0.0000

> <Gold.Chemscore.Lipo>
104.8366

> <Gold.Chemscore.Internal_Hbond>
0.0000

> <Gold.Chemscore.DEClash>
0.0330

> <Gold.Chemscore.DEInternal>
3.5107

> <Gold.Chemscore.Rot>
1.4174

> <Gold.Chemscore.Internal.Correction>
   9.000000E+99

> <Gold.Chemscore.Hbonds>
donor molecule, donor type, donor heavy atom, donor atom, acceptor molecule, acceptor atom, score
      P1  H  6896  6909       L1     6  1.00

> <Gold.Chemscore.Hbond.Weighted>
-3.3381

> <Gold.Chemscore.Metal.Weighted>
-0.0000

> <Gold.Chemscore.Lipo.Weighted>
-12.2659

> <Gold.Chemscore.Internal_Hbond.Weighted>
0.0000

> <Gold.Chemscore.DEClash.Weighted>
0.0330

> <Gold.Chemscore.DEInternal.Weighted>
3.5107

> <Gold.Chemscore.Rot.Weighted>
3.6286

> <Gold.Chemscore.Internal.Correction.Weighted>
   9.000000E+99

> <Gold.Protein.RotatedTorsions>
[ 6907 6896 6895 6894 ] final   65.16 input  -60.11 | X-H torsion
[ 7974 7965 7964 7962 ] final -132.54 input  175.53 | X-H torsion
[ 8008 7997 7996 7995 ] final -142.66 input   59.86 | X-H torsion
[ 10167 10162 10161 10158 ] final  -99.80 input  -65.29 | X-H torsion
[ 10718 10713 10712 10709 ] final  130.58 input   66.30 | X-H torsion
[ 10763 10752 10751 10750 ] final  -59.11 input  -60.55 | X-H torsion
[ 11005 11000 10999 10996 ] final  175.60 input  -57.11 | X-H torsion

> <Gold.Protein.ActiveResidues>
 VAL166  LYS551  ARG553  GLY616  TRP617  ASP618  TYR619  PRO620  LYS621  CYS622 
 ASP623  PHE694  ASN695  SER759  ASP760  ASP761  ALA762  ILE779  LEU786  VAL792 
 PHE793  MET794  SER795  GLU796  ALA797  LYS798  CYS799  TRP800  GLU811  SER814 

> <Gold.Protein.RotatedAtoms>
  152.4387  134.5635  159.9900 H   0  0  0  0  0  0  0  0  0  0  0  0  # atno 6907 bound_to 6896
  151.5739  133.3380  159.3003 H   0  0  0  0  0  0  0  0  0  0  0  0  # atno 6908 bound_to 6896
  150.8289  134.7567  159.6901 H   0  0  0  0  0  0  0  0  0  0  0  0  # atno 6909 bound_to 6896
  144.9276  140.7090  143.4926 H   0  0  0  0  0  0  0  0  0  0  0  0  # atno 7974 bound_to 7965
  155.4979  140.0573  157.2943 H   0  0  0  0  0  0  0  0  0  0  0  0  # atno 8008 bound_to 7997
  154.4598  140.1991  156.0227 H   0  0  0  0  0  0  0  0  0  0  0  0  # atno 8009 bound_to 7997
  156.0868  140.3239  155.7769 H   0  0  0  0  0  0  0  0  0  0  0  0  # atno 8010 bound_to 7997
  140.2586  143.3423  152.0647 H   0  0  0  0  0  0  0  0  0  0  0  0  # atno 10167 bound_to 10162
  157.5048  131.1095  150.9376 H   0  0  0  0  0  0  0  0  0  0  0  0  # atno 10718 bound_to 10713
  154.2486  135.6330  153.5232 H   0  0  0  0  0  0  0  0  0  0  0  0  # atno 10763 bound_to 10752
  152.9916  135.5559  154.5832 H   0  0  0  0  0  0  0  0  0  0  0  0  # atno 10764 bound_to 10752
  154.5354  135.2891  155.1118 H   0  0  0  0  0  0  0  0  0  0  0  0  # atno 10765 bound_to 10752
  140.3640  134.7088  157.4349 H   0  0  0  0  0  0  0  0  0  0  0  0  # atno 11005 bound_to 11000
  145.3194  139.1793  143.4596 LP  0  0  0  0  0  0  0  0  0  0  0  0  # atno 17320 bound_to 7965
  146.3233  140.3209  142.8633 LP  0  0  0  0  0  0  0  0  0  0  0  0  # atno 17321 bound_to 7965
  139.5024  144.6733  151.6190 LP  0  0  0  0  0  0  0  0  0  0  0  0  # atno 17342 bound_to 10162
  140.5984  143.9655  150.6369 LP  0  0  0  0  0  0  0  0  0  0  0  0  # atno 17343 bound_to 10162
  157.0036  130.5609  149.5314 LP  0  0  0  0  0  0  0  0  0  0  0  0  # atno 17370 bound_to 10713
  156.0251  130.5345  150.8385 LP  0  0  0  0  0  0  0  0  0  0  0  0  # atno 17371 bound_to 10713
  140.0604  134.6003  155.8755 LP  0  0  0  0  0  0  0  0  0  0  0  0  # atno 17394 bound_to 11000
  141.1975  133.6597  156.5746 LP  0  0  0  0  0  0  0  0  0  0  0  0  # atno 17395 bound_to 11000

$$$$
