AV-unprocessed.smi:910|AV-procd|sdf|4134|dock7
  -GOLD-   22720 2 43D 1   1.00000     0.00000
 Structure written by MMmdl.
 45 46  0  0  0  0  0  0  0  0  2 V2000
  154.4964  140.8509  161.3443 C   0  0  0  0  0  0  0  0  0  0  0  0
  153.4061  140.7398  160.3260 C   0  0  0  0  0  0  0  0  0  0  0  0
  152.9954  139.5182  159.8158 N   0  0  0  0  0  0  0  0  0  0  0  0
  152.0154  139.7955  158.9536 C   0  0  0  0  0  0  0  0  0  0  0  0
  151.3190  138.9026  158.2324 N   0  5  0  0  0  0  0  0  0  0  0  0
  150.7180  137.8660  158.8581 C   0  0  0  0  0  0  0  0  0  0  0  0
  151.1994  137.1844  159.7664 O   0  0  0  0  0  0  0  0  0  0  0  0
  149.4946  137.5856  158.3855 N   0  0  0  0  0  0  0  0  0  0  0  0
  148.6751  136.4382  158.7633 C   0  0  0  0  0  0  0  0  0  0  0  0
  148.5890  136.3039  160.2916 C   0  0  0  0  0  0  0  0  0  0  0  0
  147.2270  136.1725  160.6689 O   0  0  0  0  0  0  0  0  0  0  0  0
  146.9525  136.4126  162.0431 C   0  0  2  0  0  0  0  0  0  0  0  0
  147.4689  135.1945  162.8309 C   0  0  0  0  0  0  0  0  0  0  0  0
  146.6832  133.9163  162.4895 C   0  0  0  0  0  0  0  0  0  0  0  0
  145.1755  134.1125  162.7073 C   0  0  0  0  0  0  0  0  0  0  0  0
  144.6499  135.3223  161.9189 C   0  0  0  0  0  0  0  0  0  0  0  0
  145.4314  136.6062  162.2639 C   0  0  2  0  0  0  0  0  0  0  0  0
  144.8651  137.8271  161.5234 C   0  0  0  0  0  0  0  0  0  0  0  0
  151.7748  141.1343  158.8627 O   0  0  0  0  0  0  0  0  0  0  0  0
  152.6542  141.7183  159.7332 C   0  0  0  0  0  0  0  0  0  0  0  0
  152.6267  143.2030  159.8635 C   0  0  0  0  0  0  0  0  0  0  0  0
  155.4760  140.8775  160.8671 H   0  0  0  0  0  0  0  0  0  0  0  0
  154.4839  140.0045  162.0314 H   0  0  0  0  0  0  0  0  0  0  0  0
  154.3921  141.7587  161.9387 H   0  0  0  0  0  0  0  0  0  0  0  0
  149.1382  138.1766  157.6490 H   0  0  0  0  0  0  0  0  0  0  0  0
  147.6796  136.5001  158.3214 H   0  0  0  0  0  0  0  0  0  0  0  0
  149.1437  135.5468  158.3466 H   0  0  0  0  0  0  0  0  0  0  0  0
  149.1368  135.4217  160.6245 H   0  0  0  0  0  0  0  0  0  0  0  0
  149.0503  137.1705  160.7669 H   0  0  0  0  0  0  0  0  0  0  0  0
  147.4897  137.2956  162.3953 H   0  0  0  0  0  0  0  0  0  0  0  0
  148.5295  135.0430  162.6286 H   0  0  0  0  0  0  0  0  0  0  0  0
  147.3857  135.3936  163.8999 H   0  0  0  0  0  0  0  0  0  0  0  0
  146.8675  133.6384  161.4508 H   0  0  0  0  0  0  0  0  0  0  0  0
  147.0419  133.0863  163.0982 H   0  0  0  0  0  0  0  0  0  0  0  0
  144.6366  133.2131  162.4080 H   0  0  0  0  0  0  0  0  0  0  0  0
  144.9751  134.2542  163.7699 H   0  0  0  0  0  0  0  0  0  0  0  0
  144.7208  135.1198  160.8497 H   0  0  0  0  0  0  0  0  0  0  0  0
  143.5894  135.4617  162.1313 H   0  0  0  0  0  0  0  0  0  0  0  0
  145.2857  136.7962  163.3283 H   0  0  0  0  0  0  0  0  0  0  0  0
  144.9200  137.6997  160.4424 H   0  0  0  0  0  0  0  0  0  0  0  0
  145.4103  138.7344  161.7839 H   0  0  0  0  0  0  0  0  0  0  0  0
  143.8176  137.9869  161.7794 H   0  0  0  0  0  0  0  0  0  0  0  0
  152.2250  143.4962  160.8333 H   0  0  0  0  0  0  0  0  0  0  0  0
  152.0049  143.6532  159.0895 H   0  0  0  0  0  0  0  0  0  0  0  0
  153.6310  143.6167  159.7730 H   0  0  0  0  0  0  0  0  0  0  0  0
  1 22  1  0  0  0  0
  1 23  1  0  0  0  0
  1 24  1  0  0  0  0
  1  2  1  0  0  0  0
  2  3  1  0  0  0  0
  2 20  2  0  0  0  0
  3  4  2  0  0  0  0
  4 19  1  0  0  0  0
  4  5  1  0  0  0  0
  5  6  1  0  0  0  0
  6  8  1  0  0  0  0
  6  7  2  0  0  0  0
  8  9  1  0  0  0  0
  8 25  1  0  0  0  0
  9 10  1  0  0  0  0
  9 26  1  0  0  0  0
  9 27  1  0  0  0  0
 10 11  1  0  0  0  0
 10 28  1  0  0  0  0
 10 29  1  0  0  0  0
 11 12  1  0  0  0  0
 12 17  1  0  0  0  0
 12 13  1  0  0  0  0
 12 30  1  0  0  0  0
 13 14  1  0  0  0  0
 13 31  1  0  0  0  0
 13 32  1  0  0  0  0
 14 15  1  0  0  0  0
 14 33  1  0  0  0  0
 14 34  1  0  0  0  0
 15 16  1  0  0  0  0
 15 35  1  0  0  0  0
 15 36  1  0  0  0  0
 16 17  1  0  0  0  0
 16 37  1  0  0  0  0
 16 38  1  0  0  0  0
 17 18  1  0  0  0  0
 17 39  1  0  0  0  0
 18 40  1  0  0  0  0
 18 41  1  0  0  0  0
 18 42  1  0  0  0  0
 19 20  1  0  0  0  0
 20 21  1  0  0  0  0
 21 43  1  0  0  0  0
 21 44  1  0  0  0  0
 21 45  1  0  0  0  0
M  CHG  1   5  -1
M  END
> <s_m_source_file>
AV-unprocessed.smi

> <i_m_source_file_index>
910

> <i_lp_mmshare_version>
43012

> <i_f3d_flags>
0

> <s_epik_input>
W0NIM11jMW5jKG9jMVtDSDNdKVtOSF1DKD1PKVtOSF1bQ0gyXVtDSDJdT1tDQEBIXTJbQ0gyXVtDSDJdW0NIMl1bQ0gyXVtDQEhdMltDSDNd

> <s_epik_cmdline>
J2VwaWtfcHl0aG9uJywgJy1waCcsICc3LjAnLCAnLXRuJywgJzgnLCAnLW1hJywgJzIwMCcsICctbWV0YWxfYmluZGluZycsICctaW1hZScsICc8aW5maWxlLm1hZT4nLCAnLW9tYWUnLCAnPG91dGZpbGUubWFlPic=

> <r_lp_tautomer_probability>
0.107061

> <r_epik_Ionization_Penalty>
10.1763

> <r_epik_Ionization_Penalty_Charging>
7.13067

> <r_epik_Ionization_Penalty_Neutral>
3.04564

> <r_epik_State_Penalty>
5.57927

> <r_epik_Charging_Adjusted_Penalty>
12.7099

> <i_epik_Tot_Q>
-1

> <i_epik_Tot_abs_Q>
1

> <r_epik_Metal_State_Penalty>
1.52303

> <b_epik_Metal_Only>
1

> <s_lp_Force_Field>
OPLS_2005

> <r_lp_Energy>
5.26856

> <b_lp_Chiralities_Consistent>
1

> <s_lp_Variant>
AV-unprocessed.smi:910-19

> <Gold.Version>
5.8.1

> <Gold.Id.Protein>
6NUR|6NUR_protein|mol2

> <Gold.PLP.Fitness>
42.7506

> <Gold.PLP.PLP>
-42.4401

> <Gold.PLP.part.hbond>
-0.9959

> <Gold.PLP.part.metal>
0.0000

> <Gold.PLP.part.buried>
-6.2957

> <Gold.PLP.part.nonpolar>
-36.0552

> <Gold.PLP.part.repulsive>
0.1415

> <Gold.PLP.ligand.clash>
0.0000

> <Gold.PLP.ligand.torsion>
1.3785

> <Gold.PLP.Chemscore.Hbond>
1.0000

> <Gold.PLP.Chemscore.CHOScore>
0.0000

> <Gold.PLP.Chemscore.Metal>
0.0000

> <Gold.Chemscore.Hbonds>
donor molecule, donor type, donor heavy atom, donor atom, acceptor molecule, acceptor atom, score
      P1  H  6896  6908       L1     7  0.98

> <Gold.PLP.Chemscore.Internal.Correction>
0.0674

> <Gold.Rescore>
     Score         DG    S(hbond)    S(metal)    S(lipo)     H(rot)  DE(clash)    DE(int)     intcor
     12.84     -16.62       1.00        0.00     102.16       1.62       0.00       3.77       ----

> <Gold.Chemscore.Fitness>
12.8396

> <Gold.Chemscore.DG>
-16.6177

> <Gold.Chemscore.ZeroCoef>
-5.4800

> <Gold.Chemscore.Hbond>
0.9953

> <Gold.Chemscore.Metal>
0.0000

> <Gold.Chemscore.Lipo>
102.1589

> <Gold.Chemscore.Internal_Hbond>
0.0000

> <Gold.Chemscore.DEClash>
0.0036

> <Gold.Chemscore.DEInternal>
3.7746

> <Gold.Chemscore.Rot>
1.6169

> <Gold.Chemscore.Internal.Correction>
   9.000000E+99

> <Gold.Chemscore.Hbonds>
donor molecule, donor type, donor heavy atom, donor atom, acceptor molecule, acceptor atom, score
      P1  H  6896  6908       L1     7  0.91

> <Gold.Chemscore.Hbond.Weighted>
-3.3244

> <Gold.Chemscore.Metal.Weighted>
-0.0000

> <Gold.Chemscore.Lipo.Weighted>
-11.9526

> <Gold.Chemscore.Internal_Hbond.Weighted>
0.0000

> <Gold.Chemscore.DEClash.Weighted>
0.0036

> <Gold.Chemscore.DEInternal.Weighted>
3.7746

> <Gold.Chemscore.Rot.Weighted>
4.1393

> <Gold.Chemscore.Internal.Correction.Weighted>
   9.000000E+99

> <Gold.Protein.RotatedTorsions>
[ 6907 6896 6895 6894 ] final -135.18 input  -60.11 | X-H torsion
[ 7974 7965 7964 7962 ] final  -99.15 input  175.53 | X-H torsion
[ 8008 7997 7996 7995 ] final  117.41 input   59.86 | X-H torsion
[ 10167 10162 10161 10158 ] final  -14.54 input  -65.29 | X-H torsion
[ 10718 10713 10712 10709 ] final -173.37 input   66.30 | X-H torsion
[ 10763 10752 10751 10750 ] final  -13.51 input  -60.55 | X-H torsion
[ 11005 11000 10999 10996 ] final  -59.44 input  -57.11 | X-H torsion

> <Gold.Protein.ActiveResidues>
 VAL166  LYS551  ARG553  GLY616  TRP617  ASP618  TYR619  PRO620  LYS621  CYS622 
 ASP623  PHE694  ASN695  SER759  ASP760  ASP761  ALA762  ILE779  LEU786  VAL792 
 PHE793  MET794  SER795  GLU796  ALA797  LYS798  CYS799  TRP800  GLU811  SER814 

> <Gold.Protein.RotatedAtoms>
  150.9948  133.6114  159.2703 H   0  0  0  0  0  0  0  0  0  0  0  0  # atno 6907 bound_to 6896
  151.3322  135.0843  159.9352 H   0  0  0  0  0  0  0  0  0  0  0  0  # atno 6908 bound_to 6896
  152.5256  133.9575  159.7755 H   0  0  0  0  0  0  0  0  0  0  0  0  # atno 6909 bound_to 6896
  145.3113  140.9401  143.2768 H   0  0  0  0  0  0  0  0  0  0  0  0  # atno 7974 bound_to 7965
  156.2493  140.2897  156.0674 H   0  0  0  0  0  0  0  0  0  0  0  0  # atno 8008 bound_to 7997
  155.1708  140.0402  157.2880 H   0  0  0  0  0  0  0  0  0  0  0  0  # atno 8009 bound_to 7997
  154.6327  140.2503  155.7421 H   0  0  0  0  0  0  0  0  0  0  0  0  # atno 8010 bound_to 7997
  140.7203  143.5311  150.9519 H   0  0  0  0  0  0  0  0  0  0  0  0  # atno 10167 bound_to 10162
  156.7693  130.9442  151.3119 H   0  0  0  0  0  0  0  0  0  0  0  0  # atno 10718 bound_to 10713
  153.5144  135.7016  153.5764 H   0  0  0  0  0  0  0  0  0  0  0  0  # atno 10763 bound_to 10752
  153.3840  135.3913  155.1876 H   0  0  0  0  0  0  0  0  0  0  0  0  # atno 10764 bound_to 10752
  154.8700  135.3842  154.4627 H   0  0  0  0  0  0  0  0  0  0  0  0  # atno 10765 bound_to 10752
  141.1248  133.6616  156.5072 H   0  0  0  0  0  0  0  0  0  0  0  0  # atno 11005 bound_to 11000
  144.9014  139.4645  143.6631 LP  0  0  0  0  0  0  0  0  0  0  0  0  # atno 17320 bound_to 7965
  146.3117  139.7769  142.9015 LP  0  0  0  0  0  0  0  0  0  0  0  0  # atno 17321 bound_to 7965
  139.9031  143.6811  152.3128 LP  0  0  0  0  0  0  0  0  0  0  0  0  # atno 17342 bound_to 10162
  139.7168  144.7610  151.1021 LP  0  0  0  0  0  0  0  0  0  0  0  0  # atno 17343 bound_to 10162
  157.6698  130.9041  150.0015 LP  0  0  0  0  0  0  0  0  0  0  0  0  # atno 17370 bound_to 10713
  156.1288  130.3644  149.9765 LP  0  0  0  0  0  0  0  0  0  0  0  0  # atno 17371 bound_to 10713
  140.4398  134.7026  157.4986 LP  0  0  0  0  0  0  0  0  0  0  0  0  # atno 17394 bound_to 11000
  140.0237  134.6509  155.9203 LP  0  0  0  0  0  0  0  0  0  0  0  0  # atno 17395 bound_to 11000

$$$$
