AV-unprocessed.smi:2204|AV-procd|sdf|8940|dock9
  -GOLD-   2272012153D 1   1.00000     0.00000
 Structure written by MMmdl.
 39 40  0  0  0  0  0  0  0  0  1 V2000
  154.1733  141.0592  160.8857 C   0  0  0  0  0  0  0  0  0  0  0  0
  153.3318  142.1757  160.3421 C   0  0  0  0  0  0  0  0  0  0  0  0
  153.0017  143.4126  160.9627 C   0  0  0  0  0  0  0  0  0  0  0  0
  152.2134  144.0504  160.0469 C   0  0  0  0  0  0  0  0  0  0  0  0
  151.5438  145.3835  160.1139 C   0  0  0  0  0  0  0  0  0  0  0  0
  152.1068  143.2085  158.9539 N   0  0  0  0  0  0  0  0  0  0  0  0
  151.3565  143.3963  157.7204 C   0  0  0  0  0  0  0  0  0  0  0  0
  150.6383  142.1073  157.3171 C   0  0  0  0  0  0  0  0  0  0  0  0
  150.7174  141.1070  158.0294 O   0  0  0  0  0  0  0  0  0  0  0  0
  149.9601  142.1452  156.1600 N   0  0  0  0  0  0  0  0  0  0  0  0
  149.3287  141.0072  155.5000 C   0  0  1  0  0  0  0  0  0  0  0  0
  148.8635  141.4071  154.0913 C   0  0  0  0  0  0  0  0  0  0  0  0
  150.3171  139.8259  155.4716 C   0  0  1  0  0  0  0  0  0  0  0  0
  149.9138  138.6751  154.5439 C   0  0  0  0  0  0  0  0  0  0  0  0
  151.2394  138.0433  154.1460 C   0  0  0  0  0  0  0  0  0  0  0  0
  152.2929  139.0379  154.6398 C   0  0  0  0  0  0  0  0  0  0  0  0
  151.5677  140.2232  154.9321 O   0  0  0  0  0  0  0  0  0  0  0  0
  152.7967  142.0613  159.1379 N   0  0  0  0  0  0  0  0  0  0  0  0
  154.3290  141.1710  161.9589 H   0  0  0  0  0  0  0  0  0  0  0  0
  155.1530  141.0406  160.4079 H   0  0  0  0  0  0  0  0  0  0  0  0
  153.7011  140.0905  160.7192 H   0  0  0  0  0  0  0  0  0  0  0  0
  153.2954  143.7750  161.9366 H   0  0  0  0  0  0  0  0  0  0  0  0
  151.7676  145.8847  161.0556 H   0  0  0  0  0  0  0  0  0  0  0  0
  150.4611  145.2795  160.0396 H   0  0  0  0  0  0  0  0  0  0  0  0
  151.8803  146.0293  159.3027 H   0  0  0  0  0  0  0  0  0  0  0  0
  150.6367  144.2036  157.8599 H   0  0  0  0  0  0  0  0  0  0  0  0
  152.0340  143.7065  156.9232 H   0  0  0  0  0  0  0  0  0  0  0  0
  149.9507  143.0202  155.6552 H   0  0  0  0  0  0  0  0  0  0  0  0
  148.4557  140.6999  156.0792 H   0  0  0  0  0  0  0  0  0  0  0  0
  148.3751  140.5722  153.5882 H   0  0  0  0  0  0  0  0  0  0  0  0
  149.7021  141.7247  153.4707 H   0  0  0  0  0  0  0  0  0  0  0  0
  148.1475  142.2286  154.1312 H   0  0  0  0  0  0  0  0  0  0  0  0
  150.4767  139.4411  156.4812 H   0  0  0  0  0  0  0  0  0  0  0  0
  149.2363  137.9685  155.0250 H   0  0  0  0  0  0  0  0  0  0  0  0
  149.4143  139.0615  153.6542 H   0  0  0  0  0  0  0  0  0  0  0  0
  151.3792  137.0658  154.6088 H   0  0  0  0  0  0  0  0  0  0  0  0
  151.2908  137.9132  153.0644 H   0  0  0  0  0  0  0  0  0  0  0  0
  152.7655  138.6742  155.5533 H   0  0  0  0  0  0  0  0  0  0  0  0
  153.0745  139.2229  153.9028 H   0  0  0  0  0  0  0  0  0  0  0  0
  1  2  1  0  0  0  0
  1 19  1  0  0  0  0
  1 20  1  0  0  0  0
  1 21  1  0  0  0  0
  2 18  2  0  0  0  0
  2  3  1  0  0  0  0
  3  4  2  0  0  0  0
  3 22  1  0  0  0  0
  4  5  1  0  0  0  0
  4  6  1  0  0  0  0
  5 23  1  0  0  0  0
  5 24  1  0  0  0  0
  5 25  1  0  0  0  0
  6  7  1  0  0  0  0
  6 18  1  0  0  0  0
  7  8  1  0  0  0  0
  7 26  1  0  0  0  0
  7 27  1  0  0  0  0
  8  9  2  0  0  0  0
  8 10  1  0  0  0  0
 10 11  1  0  0  0  0
 10 28  1  0  0  0  0
 11 12  1  0  0  0  0
 11 13  1  0  0  0  0
 11 29  1  0  0  0  0
 12 30  1  0  0  0  0
 12 31  1  0  0  0  0
 12 32  1  0  0  0  0
 13 17  1  0  0  0  0
 13 14  1  0  0  0  0
 13 33  1  0  0  0  0
 14 15  1  0  0  0  0
 14 34  1  0  0  0  0
 14 35  1  0  0  0  0
 15 16  1  0  0  0  0
 15 36  1  0  0  0  0
 15 37  1  0  0  0  0
 16 17  1  0  0  0  0
 16 38  1  0  0  0  0
 16 39  1  0  0  0  0
M  END
> <s_m_source_file>
AV-unprocessed.smi

> <i_m_source_file_index>
2204

> <i_lp_mmshare_version>
43012

> <i_f3d_flags>
0

> <s_epik_input>
W0NIM11jMVtjSF1jKFtDSDNdKW4objEpW0NIMl1DKD1PKVtOSF1bQ0BIXShbQ0gzXSlbQ0BASF0yW0NIMl1bQ0gyXVtDSDJdTzI=

> <s_epik_cmdline>
J2VwaWtfcHl0aG9uJywgJy1waCcsICc3LjAnLCAnLXRuJywgJzgnLCAnLW1hJywgJzIwMCcsICctbWV0YWxfYmluZGluZycsICctaW1hZScsICc8aW5maWxlLm1hZT4nLCAnLW9tYWUnLCAnPG91dGZpbGUubWFlPic=

> <r_lp_tautomer_probability>
1

> <r_epik_Ionization_Penalty>
0.000433354

> <r_epik_Ionization_Penalty_Charging>
0

> <r_epik_Ionization_Penalty_Neutral>
0.000433354

> <r_epik_State_Penalty>
-0

> <r_epik_Charging_Adjusted_Penalty>
0

> <i_epik_Tot_Q>
0

> <i_epik_Tot_abs_Q>
0

> <r_epik_Metal_State_Penalty>
-0

> <b_epik_Metal_Only>
0

> <s_lp_Force_Field>
OPLS_2005

> <r_lp_Energy>
15.4652

> <b_lp_Chiralities_Consistent>
1

> <s_lp_Variant>
AV-unprocessed.smi:2204-4

> <Gold.Version>
5.8.1

> <Gold.Id.Protein>
6NUR|6NUR_protein|mol2

> <Gold.PLP.Fitness>
49.8353

> <Gold.PLP.PLP>
-45.7177

> <Gold.PLP.part.hbond>
-2.0000

> <Gold.PLP.part.metal>
0.0000

> <Gold.PLP.part.buried>
-5.5506

> <Gold.PLP.part.nonpolar>
-38.8438

> <Gold.PLP.part.repulsive>
0.1481

> <Gold.PLP.ligand.clash>
0.0000

> <Gold.PLP.ligand.torsion>
0.5105

> <Gold.PLP.Chemscore.Hbond>
1.7040

> <Gold.PLP.Chemscore.CHOScore>
0.0000

> <Gold.PLP.Chemscore.Metal>
0.0000

> <Gold.Chemscore.Hbonds>
donor molecule, donor type, donor heavy atom, donor atom, acceptor molecule, acceptor atom, score
      L1  H    10    28       P1  8028  0.77
      P1  H  7989  7998       L1    17  0.85

> <Gold.PLP.Chemscore.Internal.Correction>
0.0265

> <Gold.Rescore>
     Score         DG    S(hbond)    S(metal)    S(lipo)     H(rot)  DE(clash)    DE(int)     intcor
     15.64     -18.63       1.54        0.00     101.20       1.50       0.00       2.98       ----

> <Gold.Chemscore.Fitness>
15.6449

> <Gold.Chemscore.DG>
-18.6296

> <Gold.Chemscore.ZeroCoef>
-5.4800

> <Gold.Chemscore.Hbond>
1.5421

> <Gold.Chemscore.Metal>
0.0000

> <Gold.Chemscore.Lipo>
101.1972

> <Gold.Chemscore.Internal_Hbond>
0.0000

> <Gold.Chemscore.DEClash>
0.0000

> <Gold.Chemscore.DEInternal>
2.9847

> <Gold.Chemscore.Rot>
1.5005

> <Gold.Chemscore.Internal.Correction>
   9.000000E+99

> <Gold.Chemscore.Hbonds>
donor molecule, donor type, donor heavy atom, donor atom, acceptor molecule, acceptor atom, score
      L1  H    10    28       P1  8028  0.73
      P1  H  7989  7998       L1    17  0.13

> <Gold.Chemscore.Hbond.Weighted>
-5.1508

> <Gold.Chemscore.Metal.Weighted>
-0.0000

> <Gold.Chemscore.Lipo.Weighted>
-11.8401

> <Gold.Chemscore.Internal_Hbond.Weighted>
0.0000

> <Gold.Chemscore.DEClash.Weighted>
0.0000

> <Gold.Chemscore.DEInternal.Weighted>
2.9847

> <Gold.Chemscore.Rot.Weighted>
3.8412

> <Gold.Chemscore.Internal.Correction.Weighted>
   9.000000E+99

> <Gold.Protein.RotatedTorsions>
[ 6907 6896 6895 6894 ] final  -35.14 input  -60.11 | X-H torsion
[ 7974 7965 7964 7962 ] final   48.39 input  175.53 | X-H torsion
[ 8008 7997 7996 7995 ] final   81.37 input   59.86 | X-H torsion
[ 10167 10162 10161 10158 ] final  -29.52 input  -65.29 | X-H torsion
[ 10718 10713 10712 10709 ] final  144.06 input   66.30 | X-H torsion
[ 10763 10752 10751 10750 ] final -124.32 input  -60.55 | X-H torsion
[ 11005 11000 10999 10996 ] final -133.25 input  -57.11 | X-H torsion

> <Gold.Protein.ActiveResidues>
 VAL166  LYS551  ARG553  GLY616  TRP617  ASP618  TYR619  PRO620  LYS621  CYS622 
 ASP623  PHE694  ASN695  SER759  ASP760  ASP761  ALA762  ILE779  LEU786  VAL792 
 PHE793  MET794  SER795  GLU796  ALA797  LYS798  CYS799  TRP800  GLU811  SER814 

> <Gold.Protein.RotatedAtoms>
  151.0436  134.9624  159.8174 H   0  0  0  0  0  0  0  0  0  0  0  0  # atno 6907 bound_to 6896
  152.5368  134.2627  159.8951 H   0  0  0  0  0  0  0  0  0  0  0  0  # atno 6908 bound_to 6896
  151.2640  133.4245  159.2651 H   0  0  0  0  0  0  0  0  0  0  0  0  # atno 6909 bound_to 6896
  146.0209  139.4650  142.9898 H   0  0  0  0  0  0  0  0  0  0  0  0  # atno 7974 bound_to 7965
  155.8963  140.3436  155.5993 H   0  0  0  0  0  0  0  0  0  0  0  0  # atno 8008 bound_to 7997
  155.7553  140.0825  157.2201 H   0  0  0  0  0  0  0  0  0  0  0  0  # atno 8009 bound_to 7997
  154.4038  140.1546  156.2757 H   0  0  0  0  0  0  0  0  0  0  0  0  # atno 8010 bound_to 7997
  140.7259  143.3922  151.1410 H   0  0  0  0  0  0  0  0  0  0  0  0  # atno 10167 bound_to 10162
  157.3616  131.0966  151.0910 H   0  0  0  0  0  0  0  0  0  0  0  0  # atno 10718 bound_to 10713
  154.8721  135.4068  154.3086 H   0  0  0  0  0  0  0  0  0  0  0  0  # atno 10763 bound_to 10752
  153.3933  135.7015  153.6484 H   0  0  0  0  0  0  0  0  0  0  0  0  # atno 10764 bound_to 10752
  153.5257  135.3678  155.2624 H   0  0  0  0  0  0  0  0  0  0  0  0  # atno 10765 bound_to 10752
  140.9097  134.1584  157.4398 H   0  0  0  0  0  0  0  0  0  0  0  0  # atno 11005 bound_to 11000
  145.7195  141.0080  143.1410 LP  0  0  0  0  0  0  0  0  0  0  0  0  # atno 17320 bound_to 7965
  144.6989  139.8853  143.7450 LP  0  0  0  0  0  0  0  0  0  0  0  0  # atno 17321 bound_to 7965
  139.7529  143.8752  152.3081 LP  0  0  0  0  0  0  0  0  0  0  0  0  # atno 17342 bound_to 10162
  139.8611  144.7116  150.9098 LP  0  0  0  0  0  0  0  0  0  0  0  0  # atno 17343 bound_to 10162
  157.2047  130.6411  149.5752 LP  0  0  0  0  0  0  0  0  0  0  0  0  # atno 17370 bound_to 10713
  155.9738  130.4679  150.6342 LP  0  0  0  0  0  0  0  0  0  0  0  0  # atno 17371 bound_to 10713
  139.8755  134.9931  156.5627 LP  0  0  0  0  0  0  0  0  0  0  0  0  # atno 17394 bound_to 11000
  140.8126  133.8417  155.8823 LP  0  0  0  0  0  0  0  0  0  0  0  0  # atno 17395 bound_to 11000

$$$$
