AV-unprocessed.smi:2194|AV-procd|sdf|8902|dock1
  -GOLD-   2272012113D 1   1.00000     0.00000
 Structure written by MMmdl.
 45 47  0  0  0  0  0  0  0  0  1 V2000
  151.1200  145.4362  159.7072 C   0  0  0  0  0  0  0  0  0  0  0  0
  151.9903  144.2630  160.1082 C   0  0  0  0  0  0  0  0  0  0  0  0
  152.5915  143.4492  159.1274 C   0  0  0  0  0  0  0  0  0  0  0  0
  153.3985  142.3609  159.5110 C   0  0  0  0  0  0  0  0  0  0  0  0
  153.6198  142.0691  160.8726 C   0  0  0  0  0  0  0  0  0  0  0  0
  154.4238  140.9867  161.1576 O   0  0  0  0  0  0  0  0  0  0  0  0
  154.6974  140.6893  162.5214 C   0  0  0  0  0  0  0  0  0  0  0  0
  155.6713  139.5033  162.6150 C   0  0  2  0  0  0  0  0  0  0  0  0
  156.8893  139.8506  161.9860 O   0  0  0  0  0  0  0  0  0  0  0  0
  155.0925  138.1825  162.0672 C   0  0  0  0  0  0  0  0  0  0  0  0
  154.8157  137.2180  163.1213 N   0  0  0  0  0  0  0  0  0  0  0  0
  154.4977  137.5095  164.3990 C   0  0  0  0  0  0  0  0  0  0  0  0
  154.2927  136.4600  165.1956 N   0  0  0  0  0  0  0  0  0  0  0  0
  154.5009  135.3934  164.3284 C   0  0  0  0  0  0  0  0  0  0  0  0
  154.8143  135.8240  163.0827 C   0  0  0  0  0  0  0  0  0  0  0  0
  155.0899  134.9085  161.9716 C   0  0  0  0  0  0  0  0  0  0  0  0
  155.3803  135.3257  160.8495 O   0  0  0  0  0  0  0  0  0  0  0  0
  154.9953  133.5835  162.3048 N   0  0  0  0  0  0  0  0  0  0  0  0
  155.2606  132.6319  161.2088 C   0  0  0  0  0  0  0  0  0  0  0  0
  154.6767  133.0958  163.5625 C   0  0  0  0  0  0  0  0  0  0  0  0
  154.6110  131.8839  163.7811 O   0  0  0  0  0  0  0  0  0  0  0  0
  154.4342  133.9988  164.5702 N   0  0  0  0  0  0  0  0  0  0  0  0
  154.0991  133.5734  165.9328 C   0  0  0  0  0  0  0  0  0  0  0  0
  153.0110  142.8914  161.8540 C   0  0  0  0  0  0  0  0  0  0  0  0
  152.2024  143.9793  161.4715 C   0  0  0  0  0  0  0  0  0  0  0  0
  151.0986  145.5646  158.6244 H   0  0  0  0  0  0  0  0  0  0  0  0
  151.4989  146.3571  160.1513 H   0  0  0  0  0  0  0  0  0  0  0  0
  150.0974  145.2830  160.0528 H   0  0  0  0  0  0  0  0  0  0  0  0
  152.4377  143.6556  158.0785 H   0  0  0  0  0  0  0  0  0  0  0  0
  153.8552  141.7440  158.7508 H   0  0  0  0  0  0  0  0  0  0  0  0
  155.1088  141.5583  163.0386 H   0  0  0  0  0  0  0  0  0  0  0  0
  153.7656  140.4168  163.0199 H   0  0  0  0  0  0  0  0  0  0  0  0
  155.9127  139.3594  163.6688 H   0  0  0  0  0  0  0  0  0  0  0  0
  157.0711  139.2155  161.3103 H   0  0  0  0  0  0  0  0  0  0  0  0
  154.1583  138.3837  161.5412 H   0  0  0  0  0  0  0  0  0  0  0  0
  155.7557  137.7322  161.3302 H   0  0  0  0  0  0  0  0  0  0  0  0
  154.4172  138.5255  164.7572 H   0  0  0  0  0  0  0  0  0  0  0  0
  155.1982  131.5789  161.4837 H   0  0  0  0  0  0  0  0  0  0  0  0
  156.2632  132.7849  160.8057 H   0  0  0  0  0  0  0  0  0  0  0  0
  154.5479  132.7814  160.3960 H   0  0  0  0  0  0  0  0  0  0  0  0
  154.0361  132.4932  166.0667 H   0  0  0  0  0  0  0  0  0  0  0  0
  153.1354  133.9911  166.2264 H   0  0  0  0  0  0  0  0  0  0  0  0
  154.8500  133.9435  166.6316 H   0  0  0  0  0  0  0  0  0  0  0  0
  153.1474  142.7085  162.9088 H   0  0  0  0  0  0  0  0  0  0  0  0
  151.7444  144.5973  162.2298 H   0  0  0  0  0  0  0  0  0  0  0  0
  1  2  1  0  0  0  0
  1 26  1  0  0  0  0
  1 27  1  0  0  0  0
  1 28  1  0  0  0  0
  2 25  1  0  0  0  0
  2  3  2  0  0  0  0
  3  4  1  0  0  0  0
  3 29  1  0  0  0  0
  4  5  2  0  0  0  0
  4 30  1  0  0  0  0
  5  6  1  0  0  0  0
  5 24  1  0  0  0  0
  6  7  1  0  0  0  0
  7  8  1  0  0  0  0
  7 31  1  0  0  0  0
  7 32  1  0  0  0  0
  8  9  1  0  0  0  0
  8 10  1  0  0  0  0
  8 33  1  0  0  0  0
  9 34  1  0  0  0  0
 10 11  1  0  0  0  0
 10 35  1  0  0  0  0
 10 36  1  0  0  0  0
 11 15  1  0  0  0  0
 11 12  1  0  0  0  0
 12 13  2  0  0  0  0
 12 37  1  0  0  0  0
 13 14  1  0  0  0  0
 14 22  1  0  0  0  0
 14 15  2  0  0  0  0
 15 16  1  0  0  0  0
 16 17  2  0  0  0  0
 16 18  1  0  0  0  0
 18 19  1  0  0  0  0
 18 20  1  0  0  0  0
 19 38  1  0  0  0  0
 19 39  1  0  0  0  0
 19 40  1  0  0  0  0
 20 21  2  0  0  0  0
 20 22  1  0  0  0  0
 22 23  1  0  0  0  0
 23 41  1  0  0  0  0
 23 42  1  0  0  0  0
 23 43  1  0  0  0  0
 24 25  2  0  0  0  0
 24 44  1  0  0  0  0
 25 45  1  0  0  0  0
M  END
> <s_m_source_file>
AV-unprocessed.smi

> <i_m_source_file_index>
2194

> <i_lp_mmshare_version>
43012

> <i_f3d_flags>
0

> <s_epik_input>
W0NIM11jMVtjSF1bY0hdYyhbY0hdW2NIXTEpT1tDSDJdW0NASF0oW09IXSlbQ0gyXW4oW2NIXW4yKWMoYzIzKWMoPU8pbihbQ0gzXSljKD1PKW4zW0NIM10=

> <s_epik_cmdline>
J2VwaWtfcHl0aG9uJywgJy1waCcsICc3LjAnLCAnLXRuJywgJzgnLCAnLW1hJywgJzIwMCcsICctbWV0YWxfYmluZGluZycsICctaW1hZScsICc8aW5maWxlLm1hZT4nLCAnLW9tYWUnLCAnPG91dGZpbGUubWFlPic=

> <r_lp_tautomer_probability>
1

> <r_epik_Ionization_Penalty>
1.06124e-06

> <r_epik_Ionization_Penalty_Charging>
3.25921e-09

> <r_epik_Ionization_Penalty_Neutral>
1.05798e-06

> <r_epik_State_Penalty>
-0

> <r_epik_Charging_Adjusted_Penalty>
3.25921e-09

> <i_epik_Tot_Q>
0

> <i_epik_Tot_abs_Q>
0

> <r_epik_Metal_State_Penalty>
-0

> <b_epik_Metal_Only>
0

> <s_lp_Force_Field>
OPLS_2005

> <r_lp_Energy>
41.6396

> <b_lp_Chiralities_Consistent>
1

> <s_lp_Variant>
AV-unprocessed.smi:2194-1

> <Gold.Version>
5.8.1

> <Gold.Id.Protein>
6NUR|6NUR_protein|mol2

> <Gold.PLP.Fitness>
52.0606

> <Gold.PLP.PLP>
-54.2317

> <Gold.PLP.part.hbond>
-0.8431

> <Gold.PLP.part.metal>
0.0000

> <Gold.PLP.part.buried>
-6.0507

> <Gold.PLP.part.nonpolar>
-47.5529

> <Gold.PLP.part.repulsive>
1.5052

> <Gold.PLP.ligand.clash>
0.0000

> <Gold.PLP.ligand.torsion>
1.0958

> <Gold.PLP.Chemscore.Hbond>
0.0000

> <Gold.PLP.Chemscore.CHOScore>
0.0000

> <Gold.PLP.Chemscore.Metal>
0.0000

> <Gold.PLP.Chemscore.Internal.Correction>
0.0204

> <Gold.Rescore>
     Score         DG    S(hbond)    S(metal)    S(lipo)     H(rot)  DE(clash)    DE(int)     intcor
     11.86     -13.03       0.00        0.00     123.39       2.69       0.08       1.10       ----

> <Gold.Chemscore.Fitness>
11.8554

> <Gold.Chemscore.DG>
-13.0344

> <Gold.Chemscore.ZeroCoef>
-5.4800

> <Gold.Chemscore.Hbond>
0.0000

> <Gold.Chemscore.Metal>
0.0000

> <Gold.Chemscore.Lipo>
123.3927

> <Gold.Chemscore.Internal_Hbond>
0.0000

> <Gold.Chemscore.DEClash>
0.0810

> <Gold.Chemscore.DEInternal>
1.0980

> <Gold.Chemscore.Rot>
2.6885

> <Gold.Chemscore.Internal.Correction>
   9.000000E+99

> <Gold.Chemscore.Hbond.Weighted>
-0.0000

> <Gold.Chemscore.Metal.Weighted>
-0.0000

> <Gold.Chemscore.Lipo.Weighted>
-14.4369

> <Gold.Chemscore.Internal_Hbond.Weighted>
0.0000

> <Gold.Chemscore.DEClash.Weighted>
0.0810

> <Gold.Chemscore.DEInternal.Weighted>
1.0980

> <Gold.Chemscore.Rot.Weighted>
6.8825

> <Gold.Chemscore.Internal.Correction.Weighted>
   9.000000E+99

> <Gold.Protein.RotatedTorsions>
[ 6907 6896 6895 6894 ] final  -54.01 input  -60.11 | X-H torsion
[ 7974 7965 7964 7962 ] final  -21.88 input  175.53 | X-H torsion
[ 8008 7997 7996 7995 ] final  118.80 input   59.86 | X-H torsion
[ 10167 10162 10161 10158 ] final   24.08 input  -65.29 | X-H torsion
[ 10718 10713 10712 10709 ] final   72.17 input   66.30 | X-H torsion
[ 10763 10752 10751 10750 ] final  138.45 input  -60.55 | X-H torsion
[ 11005 11000 10999 10996 ] final  -22.22 input  -57.11 | X-H torsion

> <Gold.Protein.ActiveResidues>
 VAL166  LYS551  ARG553  GLY616  TRP617  ASP618  TYR619  PRO620  LYS621  CYS622 
 ASP623  PHE694  ASN695  SER759  ASP760  ASP761  ALA762  ILE779  LEU786  VAL792 
 PHE793  MET794  SER795  GLU796  ALA797  LYS798  CYS799  TRP800  GLU811  SER814 

> <Gold.Protein.RotatedAtoms>
  150.8376  134.7655  159.6905 H   0  0  0  0  0  0  0  0  0  0  0  0  # atno 6907 bound_to 6896
  152.4470  134.5471  159.9866 H   0  0  0  0  0  0  0  0  0  0  0  0  # atno 6908 bound_to 6896
  151.5618  133.3364  159.3008 H   0  0  0  0  0  0  0  0  0  0  0  0  # atno 6909 bound_to 6896
  146.1707  140.4403  142.8533 H   0  0  0  0  0  0  0  0  0  0  0  0  # atno 7974 bound_to 7965
  156.2565  140.2867  156.0892 H   0  0  0  0  0  0  0  0  0  0  0  0  # atno 8008 bound_to 7997
  155.1482  140.0397  157.2832 H   0  0  0  0  0  0  0  0  0  0  0  0  # atno 8009 bound_to 7997
  154.6480  140.2538  155.7252 H   0  0  0  0  0  0  0  0  0  0  0  0  # atno 8010 bound_to 7997
  140.5217  143.9991  150.6420 H   0  0  0  0  0  0  0  0  0  0  0  0  # atno 10167 bound_to 10162
  157.6488  130.9565  150.0892 H   0  0  0  0  0  0  0  0  0  0  0  0  # atno 10718 bound_to 10713
  153.8898  135.3034  155.3447 H   0  0  0  0  0  0  0  0  0  0  0  0  # atno 10763 bound_to 10752
  154.7722  135.4880  153.9674 H   0  0  0  0  0  0  0  0  0  0  0  0  # atno 10764 bound_to 10752
  153.1304  135.6802  153.9286 H   0  0  0  0  0  0  0  0  0  0  0  0  # atno 10765 bound_to 10752
  140.8636  133.7771  156.0103 H   0  0  0  0  0  0  0  0  0  0  0  0  # atno 11005 bound_to 11000
  144.8159  140.6467  143.6384 LP  0  0  0  0  0  0  0  0  0  0  0  0  # atno 17320 bound_to 7965
  145.4347  139.1544  143.4003 LP  0  0  0  0  0  0  0  0  0  0  0  0  # atno 17321 bound_to 7965
  140.3342  143.3059  152.0656 LP  0  0  0  0  0  0  0  0  0  0  0  0  # atno 17342 bound_to 10162
  139.4925  144.6488  151.6720 LP  0  0  0  0  0  0  0  0  0  0  0  0  # atno 17343 bound_to 10162
  156.1846  130.3651  149.8990 LP  0  0  0  0  0  0  0  0  0  0  0  0  # atno 17370 bound_to 10713
  156.6934  130.8905  151.3591 LP  0  0  0  0  0  0  0  0  0  0  0  0  # atno 17371 bound_to 10713
  140.8655  134.2789  157.5215 LP  0  0  0  0  0  0  0  0  0  0  0  0  # atno 17394 bound_to 11000
  139.8708  134.9540  156.4163 LP  0  0  0  0  0  0  0  0  0  0  0  0  # atno 17395 bound_to 11000

$$$$
