AV-unprocessed.smi:1801|AV-procd|sdf|7268|dock8
  -GOLD-   22720 8523D 1   1.00000     0.00000
 Structure written by MMmdl.
 38 39  0  0  0  0  0  0  0  0  2 V2000
  147.7861  131.6797  154.3203 C   0  0  0  0  0  0  0  0  0  0  0  0
  147.7933  133.2182  154.3217 C   0  0  1  0  0  0  0  0  0  0  0  0
  149.0522  133.7765  155.0264 C   0  0  0  0  0  0  0  0  0  0  0  0
  149.3912  135.1225  154.5762 N   0  0  0  0  0  0  0  0  0  0  0  0
  150.2861  135.9229  155.1735 C   0  0  0  0  0  0  0  0  0  0  0  0
  150.9163  135.5972  156.1800 O   0  0  0  0  0  0  0  0  0  0  0  0
  150.3957  137.0972  154.5318 N   0  0  0  0  0  0  0  0  0  0  0  0
  151.2429  138.1883  154.8496 C   0  0  0  0  0  0  0  0  0  0  0  0
  150.9204  139.3948  154.3689 N   0  0  0  0  0  0  0  0  0  0  0  0
  151.8331  140.3695  154.7537 N   0  0  0  0  0  0  0  0  0  0  0  0
  152.8093  139.8589  155.5103 C   0  0  0  0  0  0  0  0  0  0  0  0
  152.7123  138.1360  155.8284 S   0  0  0  0  0  0  0  0  0  0  0  0
  147.6625  133.7562  152.8807 C   0  0  0  0  0  0  0  0  0  0  0  0
  146.6298  133.0388  152.0940 N   0  3  0  0  0  0  0  0  0  0  0  0
  145.3867  132.7579  152.8381 C   0  0  0  0  0  0  0  0  0  0  0  0
  144.3351  132.5190  151.7602 C   0  0  0  0  0  0  0  0  0  0  0  0
  144.7229  133.5204  150.6757 C   0  0  0  0  0  0  0  0  0  0  0  0
  146.2439  133.6777  150.8123 C   0  0  0  0  0  0  0  0  0  0  0  0
  148.6440  131.2799  153.7786 H   0  0  0  0  0  0  0  0  0  0  0  0
  146.8841  131.2922  153.8461 H   0  0  0  0  0  0  0  0  0  0  0  0
  147.8148  131.2767  155.3329 H   0  0  0  0  0  0  0  0  0  0  0  0
  146.9128  133.5358  154.8811 H   0  0  0  0  0  0  0  0  0  0  0  0
  148.8955  133.8053  156.1051 H   0  0  0  0  0  0  0  0  0  0  0  0
  149.9125  133.1255  154.8636 H   0  0  0  0  0  0  0  0  0  0  0  0
  148.9147  135.4651  153.7543 H   0  0  0  0  0  0  0  0  0  0  0  0
  149.8108  137.2261  153.7190 H   0  0  0  0  0  0  0  0  0  0  0  0
  153.5930  140.5018  155.8829 H   0  0  0  0  0  0  0  0  0  0  0  0
  147.4087  134.8168  152.9143 H   0  0  0  0  0  0  0  0  0  0  0  0
  148.6177  133.6830  152.3582 H   0  0  0  0  0  0  0  0  0  0  0  0
  145.5018  131.9066  153.5098 H   0  0  0  0  0  0  0  0  0  0  0  0
  145.1090  133.6278  153.4360 H   0  0  0  0  0  0  0  0  0  0  0  0
  144.4225  131.5018  151.3757 H   0  0  0  0  0  0  0  0  0  0  0  0
  143.3158  132.6572  152.1222 H   0  0  0  0  0  0  0  0  0  0  0  0
  144.4219  133.1941  149.6798 H   0  0  0  0  0  0  0  0  0  0  0  0
  144.2372  134.4776  150.8708 H   0  0  0  0  0  0  0  0  0  0  0  0
  146.5163  134.7338  150.7856 H   0  0  0  0  0  0  0  0  0  0  0  0
  146.7696  133.1797  149.9968 H   0  0  0  0  0  0  0  0  0  0  0  0
  147.0133  132.1364  151.8514 H   0  0  0  0  0  0  0  0  0  0  0  0
  1  2  1  0  0  0  0
  1 19  1  0  0  0  0
  1 20  1  0  0  0  0
  1 21  1  0  0  0  0
  2  3  1  0  0  0  0
  2 13  1  0  0  0  0
  2 22  1  0  0  0  0
  3  4  1  0  0  0  0
  3 23  1  0  0  0  0
  3 24  1  0  0  0  0
  4  5  1  0  0  0  0
  4 25  1  0  0  0  0
  5  6  2  0  0  0  0
  5  7  1  0  0  0  0
  7  8  1  0  0  0  0
  7 26  1  0  0  0  0
  8 12  1  0  0  0  0
  8  9  2  0  0  0  0
  9 10  1  0  0  0  0
 10 11  2  0  0  0  0
 11 12  1  0  0  0  0
 11 27  1  0  0  0  0
 13 14  1  0  0  0  0
 13 28  1  0  0  0  0
 13 29  1  0  0  0  0
 14 18  1  0  0  0  0
 14 15  1  0  0  0  0
 14 38  1  0  0  0  0
 15 16  1  0  0  0  0
 15 30  1  0  0  0  0
 15 31  1  0  0  0  0
 16 17  1  0  0  0  0
 16 32  1  0  0  0  0
 16 33  1  0  0  0  0
 17 18  1  0  0  0  0
 17 34  1  0  0  0  0
 17 35  1  0  0  0  0
 18 36  1  0  0  0  0
 18 37  1  0  0  0  0
M  CHG  1  14   1
M  END
> <s_m_source_file>
AV-unprocessed.smi

> <i_m_source_file_index>
1801

> <i_lp_mmshare_version>
43012

> <i_f3d_flags>
0

> <s_epik_input>
W0NIMl0xW0NIMl1bQ0gyXVtDSDJdTjFbQ0gyXVtDQEhdKFtDSDNdKVtDSDJdW05IXUMoPU8pW05IXWMybm5bY0hdczI=

> <s_epik_cmdline>
J2VwaWtfcHl0aG9uJywgJy1waCcsICc3LjAnLCAnLXRuJywgJzgnLCAnLW1hJywgJzIwMCcsICctbWV0YWxfYmluZGluZycsICctaW1hZScsICc8aW5maWxlLm1hZT4nLCAnLW9tYWUnLCAnPG91dGZpbGUubWFlPic=

> <r_lp_tautomer_probability>
1

> <r_epik_Ionization_Penalty>
0.00281598

> <r_epik_Ionization_Penalty_Charging>
0.000371708

> <r_epik_Ionization_Penalty_Neutral>
0.00244427

> <r_epik_State_Penalty>
-0

> <r_epik_Charging_Adjusted_Penalty>
0.000371708

> <i_epik_Tot_Q>
1

> <i_epik_Tot_abs_Q>
1

> <r_epik_Metal_State_Penalty>
0.350595

> <b_epik_Metal_Only>
0

> <s_lp_Force_Field>
OPLS_2005

> <r_lp_Energy>
27.8609

> <b_lp_Chiralities_Consistent>
1

> <s_lp_Variant>
AV-unprocessed.smi:1801-2

> <Gold.Version>
5.8.1

> <Gold.Id.Protein>
6NUR|6NUR_protein|mol2

> <Gold.PLP.Fitness>
48.8458

> <Gold.PLP.PLP>
-35.8771

> <Gold.PLP.part.hbond>
-5.7212

> <Gold.PLP.part.metal>
0.0000

> <Gold.PLP.part.buried>
-3.3644

> <Gold.PLP.part.nonpolar>
-26.8433

> <Gold.PLP.part.repulsive>
0.3831

> <Gold.PLP.ligand.clash>
0.0000

> <Gold.PLP.ligand.torsion>
0.6702

> <Gold.PLP.Chemscore.Hbond>
4.7526

> <Gold.PLP.Chemscore.CHOScore>
0.0000

> <Gold.PLP.Chemscore.Metal>
0.0000

> <Gold.Chemscore.Hbonds>
donor molecule, donor type, donor heavy atom, donor atom, acceptor molecule, acceptor atom, score
      L1  H     4    25       P1  7948  0.99
      L1  H     7    26       P1  7948  0.42
      P1  H  7989  7998       L1    10  0.14

> <Gold.PLP.Chemscore.Internal.Correction>
0.0514

> <Gold.Rescore>
     Score         DG    S(hbond)    S(metal)    S(lipo)     H(rot)  DE(clash)    DE(int)     intcor
     13.69     -15.04       2.11        0.00      64.39       1.97       0.20       1.15       ----

> <Gold.Chemscore.Fitness>
13.6924

> <Gold.Chemscore.DG>
-15.0398

> <Gold.Chemscore.ZeroCoef>
-5.4800

> <Gold.Chemscore.Hbond>
2.1142

> <Gold.Chemscore.Metal>
0.0000

> <Gold.Chemscore.Lipo>
64.3867

> <Gold.Chemscore.Internal_Hbond>
0.0000

> <Gold.Chemscore.DEClash>
0.1959

> <Gold.Chemscore.DEInternal>
1.1516

> <Gold.Chemscore.Rot>
1.9667

> <Gold.Chemscore.Internal.Correction>
   9.000000E+99

> <Gold.Chemscore.Hbonds>
donor molecule, donor type, donor heavy atom, donor atom, acceptor molecule, acceptor atom, score
      L1  H     4    25       P1  7948  0.73
      L1  H     7    26       P1  7948  0.27

> <Gold.Chemscore.Hbond.Weighted>
-7.0614

> <Gold.Chemscore.Metal.Weighted>
-0.0000

> <Gold.Chemscore.Lipo.Weighted>
-7.5332

> <Gold.Chemscore.Internal_Hbond.Weighted>
0.0000

> <Gold.Chemscore.DEClash.Weighted>
0.1959

> <Gold.Chemscore.DEInternal.Weighted>
1.1516

> <Gold.Chemscore.Rot.Weighted>
5.0348

> <Gold.Chemscore.Internal.Correction.Weighted>
   9.000000E+99

> <Gold.Protein.RotatedTorsions>
[ 6907 6896 6895 6894 ] final   10.75 input  -60.11 | X-H torsion
[ 7974 7965 7964 7962 ] final  -46.80 input  175.53 | X-H torsion
[ 8008 7997 7996 7995 ] final   65.27 input   59.86 | X-H torsion
[ 10167 10162 10161 10158 ] final  159.11 input  -65.29 | X-H torsion
[ 10718 10713 10712 10709 ] final -170.77 input   66.30 | X-H torsion
[ 10763 10752 10751 10750 ] final   72.67 input  -60.55 | X-H torsion
[ 11005 11000 10999 10996 ] final -158.94 input  -57.11 | X-H torsion

> <Gold.Protein.ActiveResidues>
 VAL166  LYS551  ARG553  GLY616  TRP617  ASP618  TYR619  PRO620  LYS621  CYS622 
 ASP623  PHE694  ASN695  SER759  ASP760  ASP761  ALA762  ILE779  LEU786  VAL792 
 PHE793  MET794  SER795  GLU796  ALA797  LYS798  CYS799  TRP800  GLU811  SER814 

> <Gold.Protein.RotatedAtoms>
  151.7433  135.0849  160.0318 H   0  0  0  0  0  0  0  0  0  0  0  0  # atno 6907 bound_to 6896
  152.3465  133.6124  159.5922 H   0  0  0  0  0  0  0  0  0  0  0  0  # atno 6908 bound_to 6896
  150.7512  133.9557  159.3541 H   0  0  0  0  0  0  0  0  0  0  0  0  # atno 6909 bound_to 6896
  145.9682  140.7410  142.9423 H   0  0  0  0  0  0  0  0  0  0  0  0  # atno 7974 bound_to 7965
  155.6590  140.3497  155.4776 H   0  0  0  0  0  0  0  0  0  0  0  0  # atno 8008 bound_to 7997
  155.9784  140.1169  157.0772 H   0  0  0  0  0  0  0  0  0  0  0  0  # atno 8009 bound_to 7997
  154.4185  140.1143  156.5388 H   0  0  0  0  0  0  0  0  0  0  0  0  # atno 8010 bound_to 7997
  139.4830  144.4761  151.8509 H   0  0  0  0  0  0  0  0  0  0  0  0  # atno 10167 bound_to 10162
  156.7310  130.9306  151.3104 H   0  0  0  0  0  0  0  0  0  0  0  0  # atno 10718 bound_to 10713
  153.0473  135.5091  154.7779 H   0  0  0  0  0  0  0  0  0  0  0  0  # atno 10763 bound_to 10752
  154.6669  135.2947  154.9796 H   0  0  0  0  0  0  0  0  0  0  0  0  # atno 10764 bound_to 10752
  154.0627  135.6688  153.4866 H   0  0  0  0  0  0  0  0  0  0  0  0  # atno 10765 bound_to 10752
  140.6480  134.4480  157.5234 H   0  0  0  0  0  0  0  0  0  0  0  0  # atno 11005 bound_to 11000
  144.6830  140.2704  143.7306 LP  0  0  0  0  0  0  0  0  0  0  0  0  # atno 17320 bound_to 7965
  145.7944  139.1939  143.2084 LP  0  0  0  0  0  0  0  0  0  0  0  0  # atno 17321 bound_to 7965
  140.4233  144.2214  150.5887 LP  0  0  0  0  0  0  0  0  0  0  0  0  # atno 17342 bound_to 10162
  140.4852  143.2365  151.8898 LP  0  0  0  0  0  0  0  0  0  0  0  0  # atno 17343 bound_to 10162
  157.6858  130.9185  150.0384 LP  0  0  0  0  0  0  0  0  0  0  0  0  # atno 17370 bound_to 10713
  156.1529  130.3642  149.9412 LP  0  0  0  0  0  0  0  0  0  0  0  0  # atno 17371 bound_to 10713
  139.9056  134.8457  156.1721 LP  0  0  0  0  0  0  0  0  0  0  0  0  # atno 17394 bound_to 11000
  141.0557  133.6866  156.1857 LP  0  0  0  0  0  0  0  0  0  0  0  0  # atno 17395 bound_to 11000

$$$$
