AV-unprocessed.smi:3315|AV-procd|sdf|12751|dock1
  -GOLD-   2272019 93D 1   1.00000     0.00000
 Structure written by MMmdl.
 37 38  0  0  0  0  0  0  0  0  1 V2000
  141.7118  134.4776  153.1106 C   0  0  0  0  0  0  0  0  0  0  0  0
  142.6428  135.3076  152.4265 O   0  0  0  0  0  0  0  0  0  0  0  0
  143.9538  134.7746  152.1926 C   0  0  1  0  0  0  0  0  0  0  0  0
  143.8645  133.3199  151.7145 C   0  0  0  0  0  0  0  0  0  0  0  0
  144.8048  135.7807  151.3937 C   0  0  0  0  0  0  0  0  0  0  0  0
  145.1066  136.4692  152.7230 C   0  0  2  0  0  0  0  0  0  0  0  0
  146.4779  136.9621  152.8013 N   0  0  0  0  0  0  0  0  0  0  0  0
  146.8478  138.0665  153.4640 C   0  0  0  0  0  0  0  0  0  0  0  0
  146.0592  138.7854  154.0783 O   0  0  0  0  0  0  0  0  0  0  0  0
  148.1723  138.2730  153.3688 N   0  0  0  0  0  0  0  0  0  0  0  0
  148.9270  139.3225  153.9522 C   0  0  0  0  0  0  0  0  0  0  0  0
  148.3627  140.6134  154.1317 C   0  0  0  0  0  0  0  0  0  0  0  0
  149.3851  141.3139  154.7060 C   0  0  0  0  0  0  0  0  0  0  0  0
  150.4801  140.5237  154.8642 O   0  0  0  0  0  0  0  0  0  0  0  0
  150.1793  139.2456  154.3780 N   0  0  0  0  0  0  0  0  0  0  0  0
  144.8530  135.1114  153.4277 C   0  0  0  0  0  0  0  0  0  0  0  0
  144.1497  135.1841  154.7879 C   0  0  0  0  0  0  0  0  0  0  0  0
  146.0778  134.2014  153.6395 C   0  0  0  0  0  0  0  0  0  0  0  0
  140.7312  134.9523  153.0888 H   0  0  0  0  0  0  0  0  0  0  0  0
  141.9815  134.3476  154.1584 H   0  0  0  0  0  0  0  0  0  0  0  0
  141.6121  133.4957  152.6497 H   0  0  0  0  0  0  0  0  0  0  0  0
  144.8480  132.8587  151.6329 H   0  0  0  0  0  0  0  0  0  0  0  0
  143.4127  133.2420  150.7259 H   0  0  0  0  0  0  0  0  0  0  0  0
  143.2750  132.7129  152.4017 H   0  0  0  0  0  0  0  0  0  0  0  0
  145.6795  135.3202  150.9310 H   0  0  0  0  0  0  0  0  0  0  0  0
  144.2697  136.4057  150.6798 H   0  0  0  0  0  0  0  0  0  0  0  0
  144.3522  137.2214  152.9660 H   0  0  0  0  0  0  0  0  0  0  0  0
  147.1862  136.4271  152.3206 H   0  0  0  0  0  0  0  0  0  0  0  0
  148.6982  137.6049  152.8252 H   0  0  0  0  0  0  0  0  0  0  0  0
  147.3742  140.9696  153.8825 H   0  0  0  0  0  0  0  0  0  0  0  0
  149.4859  142.3347  155.0440 H   0  0  0  0  0  0  0  0  0  0  0  0
  144.8343  135.4939  155.5782 H   0  0  0  0  0  0  0  0  0  0  0  0
  143.7323  134.2180  155.0725 H   0  0  0  0  0  0  0  0  0  0  0  0
  143.3311  135.9038  154.7866 H   0  0  0  0  0  0  0  0  0  0  0  0
  146.7498  134.6006  154.3998 H   0  0  0  0  0  0  0  0  0  0  0  0
  146.6647  134.0810  152.7288 H   0  0  0  0  0  0  0  0  0  0  0  0
  145.7820  133.2038  153.9658 H   0  0  0  0  0  0  0  0  0  0  0  0
  1  2  1  0  0  0  0
  1 19  1  0  0  0  0
  1 20  1  0  0  0  0
  1 21  1  0  0  0  0
  2  3  1  0  0  0  0
  3 16  1  0  0  0  0
  3  4  1  0  0  0  0
  3  5  1  0  0  0  0
  4 22  1  0  0  0  0
  4 23  1  0  0  0  0
  4 24  1  0  0  0  0
  5  6  1  0  0  0  0
  5 25  1  0  0  0  0
  5 26  1  0  0  0  0
  6  7  1  0  0  0  0
  6 16  1  0  0  0  0
  6 27  1  0  0  0  0
  7  8  1  0  0  0  0
  7 28  1  0  0  0  0
  8  9  2  0  0  0  0
  8 10  1  0  0  0  0
 10 11  1  0  0  0  0
 10 29  1  0  0  0  0
 11 15  2  0  0  0  0
 11 12  1  0  0  0  0
 12 13  2  0  0  0  0
 12 30  1  0  0  0  0
 13 14  1  0  0  0  0
 13 31  1  0  0  0  0
 14 15  1  0  0  0  0
 16 17  1  0  0  0  0
 16 18  1  0  0  0  0
 17 32  1  0  0  0  0
 17 33  1  0  0  0  0
 17 34  1  0  0  0  0
 18 35  1  0  0  0  0
 18 36  1  0  0  0  0
 18 37  1  0  0  0  0
M  END
> <s_m_source_file>
AV-unprocessed.smi

> <i_m_source_file_index>
3315

> <i_lp_mmshare_version>
43012

> <i_f3d_flags>
0

> <s_epik_input>
W0NIM11PW0NAQF0xKFtDSDNdKVtDSDJdW0NASF0oQzEoW0NIM10pW0NIM10pW05IXUMoPU8pW05IXWMyW2NIXVtjSF1vbjI=

> <s_epik_cmdline>
J2VwaWtfcHl0aG9uJywgJy1waCcsICc3LjAnLCAnLXRuJywgJzgnLCAnLW1hJywgJzIwMCcsICctbWV0YWxfYmluZGluZycsICctaW1hZScsICc8aW5maWxlLm1hZT4nLCAnLW9tYWUnLCAnPG91dGZpbGUubWFlPic=

> <r_lp_tautomer_probability>
1

> <r_epik_Ionization_Penalty>
2.28875e-05

> <r_epik_Ionization_Penalty_Charging>
0

> <r_epik_Ionization_Penalty_Neutral>
2.28875e-05

> <r_epik_State_Penalty>
-0

> <r_epik_Charging_Adjusted_Penalty>
0

> <i_epik_Tot_Q>
0

> <i_epik_Tot_abs_Q>
0

> <r_epik_Metal_State_Penalty>
-0

> <b_epik_Metal_Only>
0

> <s_lp_Force_Field>
OPLS_2005

> <r_lp_Energy>
22.1239

> <b_lp_Chiralities_Consistent>
1

> <s_lp_Variant>
AV-unprocessed.smi:3315-3

> <Gold.Version>
5.8.1

> <Gold.Id.Protein>
6NUR|6NUR_protein|mol2

> <Gold.PLP.Fitness>
34.0381

> <Gold.PLP.PLP>
-23.9504

> <Gold.PLP.part.hbond>
-3.5310

> <Gold.PLP.part.metal>
0.0000

> <Gold.PLP.part.buried>
-1.9925

> <Gold.PLP.part.nonpolar>
-19.2523

> <Gold.PLP.part.repulsive>
0.6559

> <Gold.PLP.ligand.clash>
0.0000

> <Gold.PLP.ligand.torsion>
0.6552

> <Gold.PLP.Chemscore.Hbond>
2.6760

> <Gold.PLP.Chemscore.CHOScore>
0.9976

> <Gold.PLP.Chemscore.Metal>
0.0000

> <Gold.Chemscore.Hbonds>
donor molecule, donor type, donor heavy atom, donor atom, acceptor molecule, acceptor atom, score
      L1  H     7    28       P1  7948  0.98
      L1  H    10    29       P1  7948  1.00
      P1  H  7989  7998       L1    14  0.64
      L1  C    13    31       P1  8028  1.00

> <Gold.PLP.Chemscore.Internal.Correction>
0.3774

> <Gold.Rescore>
     Score         DG    S(hbond)    S(metal)    S(lipo)     H(rot)  DE(clash)    DE(int)     intcor
     12.51     -14.42       1.96        0.00      48.95       1.30       0.00       1.92       ----

> <Gold.Chemscore.Fitness>
12.5053

> <Gold.Chemscore.DG>
-14.4237

> <Gold.Chemscore.ZeroCoef>
-5.4800

> <Gold.Chemscore.Hbond>
1.9623

> <Gold.Chemscore.Metal>
0.0000

> <Gold.Chemscore.Lipo>
48.9530

> <Gold.Chemscore.Internal_Hbond>
0.0000

> <Gold.Chemscore.DEClash>
0.0033

> <Gold.Chemscore.DEInternal>
1.9151

> <Gold.Chemscore.Rot>
1.3038

> <Gold.Chemscore.Internal.Correction>
   9.000000E+99

> <Gold.Chemscore.Hbonds>
donor molecule, donor type, donor heavy atom, donor atom, acceptor molecule, acceptor atom, score
      L1  H     7    28       P1  7948  0.93
      L1  H    10    29       P1  7948  0.99
      P1  H  7989  7998       L1    14  0.03

> <Gold.Chemscore.Hbond.Weighted>
-6.5539

> <Gold.Chemscore.Metal.Weighted>
-0.0000

> <Gold.Chemscore.Lipo.Weighted>
-5.7275

> <Gold.Chemscore.Internal_Hbond.Weighted>
0.0000

> <Gold.Chemscore.DEClash.Weighted>
0.0033

> <Gold.Chemscore.DEInternal.Weighted>
1.9151

> <Gold.Chemscore.Rot.Weighted>
3.3377

> <Gold.Chemscore.Internal.Correction.Weighted>
   9.000000E+99

> <Gold.Protein.RotatedTorsions>
[ 6907 6896 6895 6894 ] final -124.74 input  -60.11 | X-H torsion
[ 7974 7965 7964 7962 ] final -153.00 input  175.53 | X-H torsion
[ 8008 7997 7996 7995 ] final   66.94 input   59.86 | X-H torsion
[ 10167 10162 10161 10158 ] final  128.22 input  -65.29 | X-H torsion
[ 10718 10713 10712 10709 ] final  -12.38 input   66.30 | X-H torsion
[ 10763 10752 10751 10750 ] final -140.12 input  -60.55 | X-H torsion
[ 11005 11000 10999 10996 ] final -116.02 input  -57.11 | X-H torsion

> <Gold.Protein.ActiveResidues>
 VAL166  LYS551  ARG553  GLY616  TRP617  ASP618  TYR619  PRO620  LYS621  CYS622 
 ASP623  PHE694  ASN695  SER759  ASP760  ASP761  ALA762  ILE779  LEU786  VAL792 
 PHE793  MET794  SER795  GLU796  ALA797  LYS798  CYS799  TRP800  GLU811  SER814 

> <Gold.Protein.RotatedAtoms>
  150.8798  133.7388  159.2935 H   0  0  0  0  0  0  0  0  0  0  0  0  # atno 6907 bound_to 6896
  151.4973  135.1059  159.9829 H   0  0  0  0  0  0  0  0  0  0  0  0  # atno 6908 bound_to 6896
  152.4752  133.8075  159.7041 H   0  0  0  0  0  0  0  0  0  0  0  0  # atno 6909 bound_to 6896
  144.7764  140.4586  143.5870 H   0  0  0  0  0  0  0  0  0  0  0  0  # atno 7974 bound_to 7965
  155.6852  140.3496  155.4871 H   0  0  0  0  0  0  0  0  0  0  0  0  # atno 8008 bound_to 7997
  155.9572  140.1130  157.0949 H   0  0  0  0  0  0  0  0  0  0  0  0  # atno 8009 bound_to 7997
  154.4135  140.1183  156.5117 H   0  0  0  0  0  0  0  0  0  0  0  0  # atno 8010 bound_to 7997
  139.5538  144.6833  151.4243 H   0  0  0  0  0  0  0  0  0  0  0  0  # atno 10167 bound_to 10162
  156.6455  130.4940  149.6080 H   0  0  0  0  0  0  0  0  0  0  0  0  # atno 10718 bound_to 10713
  154.8588  135.3562  154.5656 H   0  0  0  0  0  0  0  0  0  0  0  0  # atno 10763 bound_to 10752
  153.6270  135.7004  153.5294 H   0  0  0  0  0  0  0  0  0  0  0  0  # atno 10764 bound_to 10752
  153.3081  135.4186  155.1271 H   0  0  0  0  0  0  0  0  0  0  0  0  # atno 10765 bound_to 10752
  141.0450  133.9777  157.2933 H   0  0  0  0  0  0  0  0  0  0  0  0  # atno 11005 bound_to 11000
  145.6174  139.1520  143.3041 LP  0  0  0  0  0  0  0  0  0  0  0  0  # atno 17320 bound_to 7965
  146.1946  140.6286  142.9130 LP  0  0  0  0  0  0  0  0  0  0  0  0  # atno 17321 bound_to 7965
  140.6807  143.8088  150.7117 LP  0  0  0  0  0  0  0  0  0  0  0  0  # atno 17342 bound_to 10162
  140.1541  143.4332  152.2111 LP  0  0  0  0  0  0  0  0  0  0  0  0  # atno 17343 bound_to 10162
  156.2125  130.6688  151.1285 LP  0  0  0  0  0  0  0  0  0  0  0  0  # atno 17370 bound_to 10713
  157.7157  131.0710  150.6333 LP  0  0  0  0  0  0  0  0  0  0  0  0  # atno 17371 bound_to 10713
  139.9304  135.0200  156.8382 LP  0  0  0  0  0  0  0  0  0  0  0  0  # atno 17394 bound_to 11000
  140.6164  134.0034  155.7599 LP  0  0  0  0  0  0  0  0  0  0  0  0  # atno 17395 bound_to 11000

$$$$
