AV-unprocessed.smi:2146|AV-procd|sdf|8738|dock2
  -GOLD-   2272011513D 1   1.00000     0.00000
 Structure written by MMmdl.
 44 45  0  0  0  0  0  0  0  0  1 V2000
  148.1799  135.3315  157.7650 C   0  0  0  0  0  0  0  0  0  0  0  0
  147.5315  133.9238  157.7807 C   0  0  2  0  0  0  0  0  0  0  0  0
  147.9893  133.1735  159.0659 C   0  0  0  0  0  0  0  0  0  0  0  0
  147.8335  133.9580  160.2877 N   0  0  0  0  0  0  0  0  0  0  0  0
  147.5132  133.4585  161.4908 C   0  0  0  0  0  0  0  0  0  0  0  0
  147.3054  132.2604  161.6893 O   0  0  0  0  0  0  0  0  0  0  0  0
  147.3933  134.4810  162.6299 C   0  0  0  0  0  0  0  0  0  0  0  0
  146.2393  135.3845  162.4872 N   0  0  0  0  0  0  0  0  0  0  0  0
  144.9643  134.8424  162.7431 C   0  0  0  0  0  0  0  0  0  0  0  0
  143.8311  135.5656  162.6642 C   0  0  0  0  0  0  0  0  0  0  0  0
  142.4668  134.9367  162.9001 C   0  0  0  0  0  0  0  0  0  0  0  0
  142.2547  133.9681  162.0106 F   0  0  0  0  0  0  0  0  0  0  0  0
  142.3838  134.4068  164.1207 F   0  0  0  0  0  0  0  0  0  0  0  0
  141.4946  135.8400  162.7688 F   0  0  0  0  0  0  0  0  0  0  0  0
  143.9762  136.9512  162.2631 C   0  0  0  0  0  0  0  0  0  0  0  0
  145.1875  137.4838  162.0096 C   0  0  0  0  0  0  0  0  0  0  0  0
  146.4134  136.6904  162.1236 C   0  0  0  0  0  0  0  0  0  0  0  0
  147.5264  137.1692  161.9048 O   0  0  0  0  0  0  0  0  0  0  0  0
  147.7868  133.1616  156.5358 N   0  0  0  0  0  0  0  0  0  0  0  0
  147.2713  133.8382  155.3399 C   0  0  0  0  0  0  0  0  0  0  0  0
  147.5628  133.0647  154.0424 C   0  0  0  0  0  0  0  0  0  0  0  0
  148.9614  132.8489  153.9159 O   0  0  0  0  0  0  0  0  0  0  0  0
  149.4908  132.1263  155.0185 C   0  0  0  0  0  0  0  0  0  0  0  0
  149.2141  132.8947  156.3222 C   0  0  0  0  0  0  0  0  0  0  0  0
  148.0287  135.8700  158.6997 H   0  0  0  0  0  0  0  0  0  0  0  0
  147.7529  135.9753  156.9974 H   0  0  0  0  0  0  0  0  0  0  0  0
  149.2550  135.2682  157.5938 H   0  0  0  0  0  0  0  0  0  0  0  0
  146.4538  134.0736  157.8624 H   0  0  0  0  0  0  0  0  0  0  0  0
  147.4368  132.2475  159.2182 H   0  0  0  0  0  0  0  0  0  0  0  0
  149.0393  132.8934  158.9763 H   0  0  0  0  0  0  0  0  0  0  0  0
  147.9814  134.9540  160.2111 H   0  0  0  0  0  0  0  0  0  0  0  0
  147.3406  133.9526  163.5835 H   0  0  0  0  0  0  0  0  0  0  0  0
  148.3222  135.0510  162.6724 H   0  0  0  0  0  0  0  0  0  0  0  0
  144.9662  133.7966  163.0142 H   0  0  0  0  0  0  0  0  0  0  0  0
  143.0999  137.5755  162.1685 H   0  0  0  0  0  0  0  0  0  0  0  0
  145.2583  138.5209  161.7162 H   0  0  0  0  0  0  0  0  0  0  0  0
  146.1916  133.9567  155.3976 H   0  0  0  0  0  0  0  0  0  0  0  0
  147.6984  134.8397  155.2687 H   0  0  0  0  0  0  0  0  0  0  0  0
  147.0367  132.1087  154.0360 H   0  0  0  0  0  0  0  0  0  0  0  0
  147.2108  133.6285  153.1787 H   0  0  0  0  0  0  0  0  0  0  0  0
  149.0507  131.1285  155.0562 H   0  0  0  0  0  0  0  0  0  0  0  0
  150.5638  131.9973  154.8764 H   0  0  0  0  0  0  0  0  0  0  0  0
  149.7687  133.8344  156.3124 H   0  0  0  0  0  0  0  0  0  0  0  0
  149.6196  132.2962  157.1356 H   0  0  0  0  0  0  0  0  0  0  0  0
  1  2  1  0  0  0  0
  1 25  1  0  0  0  0
  1 26  1  0  0  0  0
  1 27  1  0  0  0  0
  2  3  1  0  0  0  0
  2 19  1  0  0  0  0
  2 28  1  0  0  0  0
  3  4  1  0  0  0  0
  3 29  1  0  0  0  0
  3 30  1  0  0  0  0
  4  5  1  0  0  0  0
  4 31  1  0  0  0  0
  5  6  2  0  0  0  0
  5  7  1  0  0  0  0
  7  8  1  0  0  0  0
  7 32  1  0  0  0  0
  7 33  1  0  0  0  0
  8 17  1  0  0  0  0
  8  9  1  0  0  0  0
  9 10  2  0  0  0  0
  9 34  1  0  0  0  0
 10 11  1  0  0  0  0
 10 15  1  0  0  0  0
 11 12  1  0  0  0  0
 11 13  1  0  0  0  0
 11 14  1  0  0  0  0
 15 16  2  0  0  0  0
 15 35  1  0  0  0  0
 16 17  1  0  0  0  0
 16 36  1  0  0  0  0
 17 18  2  0  0  0  0
 19 24  1  0  0  0  0
 19 20  1  0  0  0  0
 20 21  1  0  0  0  0
 20 37  1  0  0  0  0
 20 38  1  0  0  0  0
 21 22  1  0  0  0  0
 21 39  1  0  0  0  0
 21 40  1  0  0  0  0
 22 23  1  0  0  0  0
 23 24  1  0  0  0  0
 23 41  1  0  0  0  0
 23 42  1  0  0  0  0
 24 43  1  0  0  0  0
 24 44  1  0  0  0  0
M  END
> <s_m_source_file>
AV-unprocessed.smi

> <i_m_source_file_index>
2146

> <i_lp_mmshare_version>
43012

> <i_f3d_flags>
0

> <s_epik_input>
W0NIMl0xW0NIMl1PW0NIMl1bQ0gyXU4xW0NASF0oW0NIM10pW0NIMl1bTkhdQyg9TylbQ0gyXW4yW2NIXWMoQyhGKShGKUYpW2NIXVtjSF1jMj1P

> <s_epik_cmdline>
J2VwaWtfcHl0aG9uJywgJy1waCcsICc3LjAnLCAnLXRuJywgJzgnLCAnLW1hJywgJzIwMCcsICctbWV0YWxfYmluZGluZycsICctaW1hZScsICc8aW5maWxlLm1hZT4nLCAnLW9tYWUnLCAnPG91dGZpbGUubWFlPic=

> <r_lp_tautomer_probability>
1

> <r_epik_Ionization_Penalty>
0.237382

> <r_epik_Ionization_Penalty_Charging>
1.80451e-08

> <r_epik_Ionization_Penalty_Neutral>
0.237382

> <r_epik_State_Penalty>
0.228245

> <r_epik_Charging_Adjusted_Penalty>
0.228245

> <i_epik_Tot_Q>
0

> <i_epik_Tot_abs_Q>
0

> <r_epik_Metal_State_Penalty>
0.22822

> <b_epik_Metal_Only>
0

> <s_lp_Force_Field>
OPLS_2005

> <r_lp_Energy>
40.571

> <b_lp_Chiralities_Consistent>
1

> <s_lp_Variant>
AV-unprocessed.smi:2146-1

> <Gold.Version>
5.8.1

> <Gold.Id.Protein>
6NUR|6NUR_protein|mol2

> <Gold.PLP.Fitness>
42.4233

> <Gold.PLP.PLP>
-39.1469

> <Gold.PLP.part.hbond>
-2.0000

> <Gold.PLP.part.metal>
0.0000

> <Gold.PLP.part.buried>
-6.0954

> <Gold.PLP.part.nonpolar>
-30.9920

> <Gold.PLP.part.repulsive>
0.2352

> <Gold.PLP.ligand.clash>
0.0000

> <Gold.PLP.ligand.torsion>
0.4771

> <Gold.PLP.Chemscore.Hbond>
1.3555

> <Gold.PLP.Chemscore.CHOScore>
0.0000

> <Gold.PLP.Chemscore.Metal>
0.0000

> <Gold.Chemscore.Hbonds>
donor molecule, donor type, donor heavy atom, donor atom, acceptor molecule, acceptor atom, score
      P1  H  6931  6943       L1    18  0.96
      P1  H  6934  6947       L1    18  0.56

> <Gold.PLP.Chemscore.Internal.Correction>
0.1641

> <Gold.Rescore>
     Score         DG    S(hbond)    S(metal)    S(lipo)     H(rot)  DE(clash)    DE(int)     intcor
     11.68     -12.19       1.62        0.00      57.20       2.10       0.00       0.52       ----

> <Gold.Chemscore.Fitness>
11.6774

> <Gold.Chemscore.DG>
-12.1942

> <Gold.Chemscore.ZeroCoef>
-5.4800

> <Gold.Chemscore.Hbond>
1.6190

> <Gold.Chemscore.Metal>
0.0000

> <Gold.Chemscore.Lipo>
57.2029

> <Gold.Chemscore.Internal_Hbond>
0.0000

> <Gold.Chemscore.DEClash>
0.0002

> <Gold.Chemscore.DEInternal>
0.5165

> <Gold.Chemscore.Rot>
2.1039

> <Gold.Chemscore.Internal.Correction>
   9.000000E+99

> <Gold.Chemscore.Hbonds>
donor molecule, donor type, donor heavy atom, donor atom, acceptor molecule, acceptor atom, score
      P1  H  6931  6943       L1    18  0.92
      P1  H  6934  6947       L1    18  0.31

> <Gold.Chemscore.Hbond.Weighted>
-5.4074

> <Gold.Chemscore.Metal.Weighted>
-0.0000

> <Gold.Chemscore.Lipo.Weighted>
-6.6927

> <Gold.Chemscore.Internal_Hbond.Weighted>
0.0000

> <Gold.Chemscore.DEClash.Weighted>
0.0002

> <Gold.Chemscore.DEInternal.Weighted>
0.5165

> <Gold.Chemscore.Rot.Weighted>
5.3860

> <Gold.Chemscore.Internal.Correction.Weighted>
   9.000000E+99

> <Gold.Protein.RotatedTorsions>
[ 6907 6896 6895 6894 ] final  -53.26 input  -60.11 | X-H torsion
[ 7974 7965 7964 7962 ] final   -8.34 input  175.53 | X-H torsion
[ 8008 7997 7996 7995 ] final  117.09 input   59.86 | X-H torsion
[ 10167 10162 10161 10158 ] final   86.81 input  -65.29 | X-H torsion
[ 10718 10713 10712 10709 ] final  146.17 input   66.30 | X-H torsion
[ 10763 10752 10751 10750 ] final -174.47 input  -60.55 | X-H torsion
[ 11005 11000 10999 10996 ] final   50.10 input  -57.11 | X-H torsion

> <Gold.Protein.ActiveResidues>
 VAL166  LYS551  ARG553  GLY616  TRP617  ASP618  TYR619  PRO620  LYS621  CYS622 
 ASP623  PHE694  ASN695  SER759  ASP760  ASP761  ALA762  ILE779  LEU786  VAL792 
 PHE793  MET794  SER795  GLU796  ALA797  LYS798  CYS799  TRP800  GLU811  SER814 

> <Gold.Protein.RotatedAtoms>
  150.8443  134.7746  159.6957 H   0  0  0  0  0  0  0  0  0  0  0  0  # atno 6907 bound_to 6896
  152.4523  134.5363  159.9836 H   0  0  0  0  0  0  0  0  0  0  0  0  # atno 6908 bound_to 6896
  151.5497  133.3381  159.2986 H   0  0  0  0  0  0  0  0  0  0  0  0  # atno 6909 bound_to 6896
  146.2283  140.2454  142.8345 H   0  0  0  0  0  0  0  0  0  0  0  0  # atno 7974 bound_to 7965
  156.2475  140.2903  156.0624 H   0  0  0  0  0  0  0  0  0  0  0  0  # atno 8008 bound_to 7997
  155.1761  140.0403  157.2890 H   0  0  0  0  0  0  0  0  0  0  0  0  # atno 8009 bound_to 7997
  154.6292  140.2495  155.7461 H   0  0  0  0  0  0  0  0  0  0  0  0  # atno 8010 bound_to 7997
  139.8838  144.6425  150.8814 H   0  0  0  0  0  0  0  0  0  0  0  0  # atno 10167 bound_to 10162
  157.3364  131.0929  151.1119 H   0  0  0  0  0  0  0  0  0  0  0  0  # atno 10718 bound_to 10713
  154.5959  135.2849  155.0587 H   0  0  0  0  0  0  0  0  0  0  0  0  # atno 10763 bound_to 10752
  154.1870  135.6447  153.5053 H   0  0  0  0  0  0  0  0  0  0  0  0  # atno 10764 bound_to 10752
  153.0138  135.5437  154.6660 H   0  0  0  0  0  0  0  0  0  0  0  0  # atno 10765 bound_to 10752
  140.1046  134.5036  155.8732 H   0  0  0  0  0  0  0  0  0  0  0  0  # atno 11005 bound_to 11000
  144.9452  140.8121  143.5606 LP  0  0  0  0  0  0  0  0  0  0  0  0  # atno 17320 bound_to 7965
  145.2409  139.2073  143.4993 LP  0  0  0  0  0  0  0  0  0  0  0  0  # atno 17321 bound_to 7965
  140.7739  143.3564  151.1912 LP  0  0  0  0  0  0  0  0  0  0  0  0  # atno 17342 bound_to 10162
  139.7172  143.9282  152.2971 LP  0  0  0  0  0  0  0  0  0  0  0  0  # atno 17343 bound_to 10162
  157.2348  130.6542  149.5864 LP  0  0  0  0  0  0  0  0  0  0  0  0  # atno 17370 bound_to 10713
  155.9702  130.4587  150.6010 LP  0  0  0  0  0  0  0  0  0  0  0  0  # atno 17371 bound_to 10713
  141.2115  133.6707  156.6585 LP  0  0  0  0  0  0  0  0  0  0  0  0  # atno 17394 bound_to 11000
  140.3173  134.8036  157.4225 LP  0  0  0  0  0  0  0  0  0  0  0  0  # atno 17395 bound_to 11000

$$$$
