AV-unprocessed.smi:610|AV-procd|sdf|3056|dock6
  -GOLD-   2262023583D 1   1.00000     0.00000
 Structure written by MMmdl.
 38 39  0  0  0  0  0  0  0  0  2 V2000
  151.4994  140.8593  157.3819 C   0  0  0  0  0  0  0  0  0  0  0  0
  150.5703  142.0749  157.5011 C   0  0  1  0  0  0  0  0  0  0  0  0
  151.3630  143.3965  157.4234 C   0  0  0  0  0  0  0  0  0  0  0  0
  151.4397  144.0789  158.7019 N   0  0  0  0  0  0  0  0  0  0  0  0
  151.9719  143.5846  159.8855 C   0  0  0  0  0  0  0  0  0  0  0  0
  151.8178  144.5747  160.8292 C   0  0  0  0  0  0  0  0  0  0  0  0
  151.2056  145.6836  160.2497 N   0  0  0  0  0  0  0  0  0  0  0  0
  151.0198  145.3186  158.9881 C   0  0  0  0  0  0  0  0  0  0  0  0
  149.5656  142.0085  156.4402 N   0  0  0  0  0  0  0  0  0  0  0  0
  148.7248  140.9846  156.2099 C   0  0  0  0  0  0  0  0  0  0  0  0
  148.7411  139.9532  156.8822 O   0  0  0  0  0  0  0  0  0  0  0  0
  147.7239  141.1094  155.0367 C   0  0  0  0  0  0  0  0  0  0  0  0
  147.0546  142.4153  155.1764 N   0  3  0  0  0  0  0  0  0  0  0  0
  148.4365  140.9909  153.6759 C   0  0  0  0  0  0  0  0  0  0  0  0
  148.5319  139.4852  153.3882 C   0  0  0  0  0  0  0  0  0  0  0  0
  147.4388  138.8164  154.2366 C   0  0  0  0  0  0  0  0  0  0  0  0
  146.6982  139.9606  154.9403 C   0  0  0  0  0  0  0  0  0  0  0  0
  152.2481  140.8597  158.1748 H   0  0  0  0  0  0  0  0  0  0  0  0
  152.0264  140.8524  156.4271 H   0  0  0  0  0  0  0  0  0  0  0  0
  150.9390  139.9270  157.4610 H   0  0  0  0  0  0  0  0  0  0  0  0
  150.0876  142.0135  158.4780 H   0  0  0  0  0  0  0  0  0  0  0  0
  152.3833  143.2027  157.0901 H   0  0  0  0  0  0  0  0  0  0  0  0
  150.9176  144.0693  156.6889 H   0  0  0  0  0  0  0  0  0  0  0  0
  152.3977  142.5946  159.9582 H   0  0  0  0  0  0  0  0  0  0  0  0
  152.1003  144.5748  161.8717 H   0  0  0  0  0  0  0  0  0  0  0  0
  150.5573  145.9658  158.2574 H   0  0  0  0  0  0  0  0  0  0  0  0
  149.4921  142.8192  155.8424 H   0  0  0  0  0  0  0  0  0  0  0  0
  146.6241  142.4803  156.0875 H   0  0  0  0  0  0  0  0  0  0  0  0
  146.3469  142.5025  154.4607 H   0  0  0  0  0  0  0  0  0  0  0  0
  147.8302  141.4612  152.8999 H   0  0  0  0  0  0  0  0  0  0  0  0
  149.4145  141.4734  153.6413 H   0  0  0  0  0  0  0  0  0  0  0  0
  148.4035  139.2793  152.3252 H   0  0  0  0  0  0  0  0  0  0  0  0
  149.5124  139.1048  153.6756 H   0  0  0  0  0  0  0  0  0  0  0  0
  146.7619  138.2115  153.6322 H   0  0  0  0  0  0  0  0  0  0  0  0
  147.8963  138.1552  154.9735 H   0  0  0  0  0  0  0  0  0  0  0  0
  146.2650  139.6546  155.8932 H   0  0  0  0  0  0  0  0  0  0  0  0
  145.8617  140.2729  154.3126 H   0  0  0  0  0  0  0  0  0  0  0  0
  147.7335  143.1547  155.0677 H   0  0  0  0  0  0  0  0  0  0  0  0
  1  2  1  0  0  0  0
  1 18  1  0  0  0  0
  1 19  1  0  0  0  0
  1 20  1  0  0  0  0
  2  3  1  0  0  0  0
  2  9  1  0  0  0  0
  2 21  1  0  0  0  0
  3  4  1  0  0  0  0
  3 22  1  0  0  0  0
  3 23  1  0  0  0  0
  4  8  1  0  0  0  0
  4  5  1  0  0  0  0
  5  6  2  0  0  0  0
  5 24  1  0  0  0  0
  6  7  1  0  0  0  0
  6 25  1  0  0  0  0
  7  8  2  0  0  0  0
  8 26  1  0  0  0  0
  9 10  1  0  0  0  0
  9 27  1  0  0  0  0
 10 11  2  0  0  0  0
 10 12  1  0  0  0  0
 12 17  1  0  0  0  0
 12 13  1  0  0  0  0
 12 14  1  0  0  0  0
 13 28  1  0  0  0  0
 13 29  1  0  0  0  0
 13 38  1  0  0  0  0
 14 15  1  0  0  0  0
 14 30  1  0  0  0  0
 14 31  1  0  0  0  0
 15 16  1  0  0  0  0
 15 32  1  0  0  0  0
 15 33  1  0  0  0  0
 16 17  1  0  0  0  0
 16 34  1  0  0  0  0
 16 35  1  0  0  0  0
 17 36  1  0  0  0  0
 17 37  1  0  0  0  0
M  CHG  1  13   1
M  END
> <s_m_source_file>
AV-unprocessed.smi

> <i_m_source_file_index>
610

> <i_lp_mmshare_version>
43012

> <i_f3d_flags>
0

> <s_epik_input>
W2NIXTFuW2NIXVtjSF1uMVtDSDJdW0NAQEhdKFtDSDNdKVtOSF1DKD1PKUMyKFtOSDJdKVtDSDJdW0NIMl1bQ0gyXVtDSDJdMg==

> <s_epik_cmdline>
J2VwaWtfcHl0aG9uJywgJy1waCcsICc3LjAnLCAnLXRuJywgJzgnLCAnLW1hJywgJzIwMCcsICctbWV0YWxfYmluZGluZycsICctaW1hZScsICc8aW5maWxlLm1hZT4nLCAnLW9tYWUnLCAnPG91dGZpbGUubWFlPic=

> <r_lp_tautomer_probability>
1

> <r_epik_Ionization_Penalty>
0.661147

> <r_epik_Ionization_Penalty_Charging>
0.661145

> <r_epik_Ionization_Penalty_Neutral>
1.19451e-06

> <r_epik_State_Penalty>
0.679243

> <r_epik_Charging_Adjusted_Penalty>
1.34039

> <i_epik_Tot_Q>
1

> <i_epik_Tot_abs_Q>
1

> <r_epik_Metal_State_Penalty>
0.372892

> <b_epik_Metal_Only>
0

> <s_lp_Force_Field>
OPLS_2005

> <r_lp_Energy>
24.5235

> <b_lp_Chiralities_Consistent>
1

> <s_lp_Variant>
AV-unprocessed.smi:610-4

> <Gold.Version>
5.8.1

> <Gold.Id.Protein>
6NUR|6NUR_protein|mol2

> <Gold.PLP.Fitness>
38.4018

> <Gold.PLP.PLP>
-31.3392

> <Gold.PLP.part.hbond>
-2.0000

> <Gold.PLP.part.metal>
0.0000

> <Gold.PLP.part.buried>
-2.7758

> <Gold.PLP.part.nonpolar>
-26.5303

> <Gold.PLP.part.repulsive>
0.3077

> <Gold.PLP.ligand.clash>
0.0000

> <Gold.PLP.ligand.torsion>
0.9978

> <Gold.PLP.Chemscore.Hbond>
3.0000

> <Gold.PLP.Chemscore.CHOScore>
0.0000

> <Gold.PLP.Chemscore.Metal>
0.0000

> <Gold.Chemscore.Hbonds>
donor molecule, donor type, donor heavy atom, donor atom, acceptor molecule, acceptor atom, score
      L1  H     9    27       P1  8028  0.94
      L1  H    13    38       P1  8028  2.00
      L1  C     8    26       P1  8029  0.31

> <Gold.PLP.Chemscore.Internal.Correction>
0.0581

> <Gold.Rescore>
     Score         DG    S(hbond)    S(metal)    S(lipo)     H(rot)  DE(clash)    DE(int)     intcor
     11.00     -13.49       1.55        0.00      67.90       2.00       0.06       2.42       ----

> <Gold.Chemscore.Fitness>
11.0026

> <Gold.Chemscore.DG>
-13.4919

> <Gold.Chemscore.ZeroCoef>
-5.4800

> <Gold.Chemscore.Hbond>
1.5509

> <Gold.Chemscore.Metal>
0.0000

> <Gold.Chemscore.Lipo>
67.9038

> <Gold.Chemscore.Internal_Hbond>
0.0000

> <Gold.Chemscore.DEClash>
0.0647

> <Gold.Chemscore.DEInternal>
2.4247

> <Gold.Chemscore.Rot>
1.9972

> <Gold.Chemscore.Internal.Correction>
   9.000000E+99

> <Gold.Chemscore.Hbonds>
donor molecule, donor type, donor heavy atom, donor atom, acceptor molecule, acceptor atom, score
      L1  H     9    27       P1  8028  0.87
      L1  H    13    38       P1  8028  0.58

> <Gold.Chemscore.Hbond.Weighted>
-5.1799

> <Gold.Chemscore.Metal.Weighted>
-0.0000

> <Gold.Chemscore.Lipo.Weighted>
-7.9447

> <Gold.Chemscore.Internal_Hbond.Weighted>
0.0000

> <Gold.Chemscore.DEClash.Weighted>
0.0647

> <Gold.Chemscore.DEInternal.Weighted>
2.4247

> <Gold.Chemscore.Rot.Weighted>
5.1127

> <Gold.Chemscore.Internal.Correction.Weighted>
   9.000000E+99

> <Gold.Protein.RotatedTorsions>
[ 6907 6896 6895 6894 ] final -155.73 input  -60.11 | X-H torsion
[ 7974 7965 7964 7962 ] final -153.45 input  175.53 | X-H torsion
[ 8008 7997 7996 7995 ] final  173.13 input   59.86 | X-H torsion
[ 10167 10162 10161 10158 ] final -126.05 input  -65.29 | X-H torsion
[ 10718 10713 10712 10709 ] final   -7.50 input   66.30 | X-H torsion
[ 10763 10752 10751 10750 ] final  -85.02 input  -60.55 | X-H torsion
[ 11005 11000 10999 10996 ] final -158.72 input  -57.11 | X-H torsion

> <Gold.Protein.ActiveResidues>
 VAL166  LYS551  ARG553  GLY616  TRP617  ASP618  TYR619  PRO620  LYS621  CYS622 
 ASP623  PHE694  ASN695  SER759  ASP760  ASP761  ALA762  ILE779  LEU786  VAL792 
 PHE793  MET794  SER795  GLU796  ALA797  LYS798  CYS799  TRP800  GLU811  SER814 

> <Gold.Protein.RotatedAtoms>
  151.2769  133.4228  159.2624 H   0  0  0  0  0  0  0  0  0  0  0  0  # atno 6907 bound_to 6896
  151.0395  134.9597  159.8164 H   0  0  0  0  0  0  0  0  0  0  0  0  # atno 6908 bound_to 6896
  152.5362  134.2728  159.9030 H   0  0  0  0  0  0  0  0  0  0  0  0  # atno 6909 bound_to 6896
  144.7740  140.4524  143.5887 H   0  0  0  0  0  0  0  0  0  0  0  0  # atno 7974 bound_to 7965
  156.1106  140.1468  156.9343 H   0  0  0  0  0  0  0  0  0  0  0  0  # atno 8008 bound_to 7997
  154.4764  140.0893  156.7316 H   0  0  0  0  0  0  0  0  0  0  0  0  # atno 8009 bound_to 7997
  155.4602  140.3438  155.4314 H   0  0  0  0  0  0  0  0  0  0  0  0  # atno 8010 bound_to 7997
  139.9756  143.5798  152.2397 H   0  0  0  0  0  0  0  0  0  0  0  0  # atno 10167 bound_to 10162
  156.7163  130.5137  149.5879 H   0  0  0  0  0  0  0  0  0  0  0  0  # atno 10718 bound_to 10713
  154.6062  135.5500  153.7426 H   0  0  0  0  0  0  0  0  0  0  0  0  # atno 10763 bound_to 10752
  153.0175  135.6378  154.1643 H   0  0  0  0  0  0  0  0  0  0  0  0  # atno 10764 bound_to 10752
  154.1582  135.2899  155.3096 H   0  0  0  0  0  0  0  0  0  0  0  0  # atno 10765 bound_to 10752
  140.6505  134.4456  157.5235 H   0  0  0  0  0  0  0  0  0  0  0  0  # atno 11005 bound_to 11000
  145.6240  139.1527  143.3006 LP  0  0  0  0  0  0  0  0  0  0  0  0  # atno 17320 bound_to 7965
  146.1907  140.6348  142.9147 LP  0  0  0  0  0  0  0  0  0  0  0  0  # atno 17321 bound_to 7965
  139.6448  144.7657  151.2265 LP  0  0  0  0  0  0  0  0  0  0  0  0  # atno 17342 bound_to 10162
  140.7507  143.6257  150.8471 LP  0  0  0  0  0  0  0  0  0  0  0  0  # atno 17343 bound_to 10162
  156.1625  130.6383  151.0737 LP  0  0  0  0  0  0  0  0  0  0  0  0  # atno 17370 bound_to 10713
  157.6916  131.0808  150.7092 LP  0  0  0  0  0  0  0  0  0  0  0  0  # atno 17371 bound_to 10713
  139.9047  134.8475  156.1751 LP  0  0  0  0  0  0  0  0  0  0  0  0  # atno 17394 bound_to 11000
  141.0540  133.6874  156.1826 LP  0  0  0  0  0  0  0  0  0  0  0  0  # atno 17395 bound_to 11000

$$$$
