AV-unprocessed.smi:1780|AV-procd|sdf|7186|dock9
  -GOLD-   22720 8423D 1   1.00000     0.00000
 Structure written by MMmdl.
 44 45  0  0  0  0  0  0  0  0  2 V2000
  152.7170  142.5871  162.4144 C   0  0  0  0  0  0  0  0  0  0  0  0
  152.4261  143.6855  161.3846 C   0  0  0  0  0  0  0  0  0  0  0  0
  152.0340  143.1328  160.1027 N   0  0  0  0  0  0  0  0  0  0  0  0
  151.0785  143.6061  159.2251 C   0  0  0  0  0  0  0  0  0  0  0  0
  151.0884  142.7416  158.1670 C   0  0  0  0  0  0  0  0  0  0  0  0
  150.3044  142.7560  156.9857 N   0  0  0  0  0  0  0  0  0  0  0  0
  149.9530  141.7042  156.2285 C   0  0  0  0  0  0  0  0  0  0  0  0
  150.2671  140.5342  156.4488 O   0  0  0  0  0  0  0  0  0  0  0  0
  149.1975  142.0816  155.1875 N   0  0  0  0  0  0  0  0  0  0  0  0
  148.6401  141.1729  154.1897 C   0  0  0  0  0  0  0  0  0  0  0  0
  147.0879  141.1366  154.1962 C   0  0  1  0  0  0  0  0  0  0  0  0
  146.5208  142.5711  154.0613 C   0  0  0  0  0  0  0  0  0  0  0  0
  146.5855  140.1941  153.1432 N   0  3  0  0  0  0  0  0  0  0  0  0
  147.1303  140.5031  151.7927 C   0  0  0  0  0  0  0  0  0  0  0  0
  146.5190  139.5803  150.7263 C   0  0  0  0  0  0  0  0  0  0  0  0
  146.7878  138.2277  151.0632 O   0  0  0  0  0  0  0  0  0  0  0  0
  146.1965  137.8728  152.3043 C   0  0  0  0  0  0  0  0  0  0  0  0
  146.7747  138.7452  153.4325 C   0  0  0  0  0  0  0  0  0  0  0  0
  152.0727  141.7662  158.4729 C   0  0  0  0  0  0  0  0  0  0  0  0
  152.6421  142.0109  159.6432 N   0  0  0  0  0  0  0  0  0  0  0  0
  153.0010  143.0208  163.3734 H   0  0  0  0  0  0  0  0  0  0  0  0
  153.5340  141.9437  162.0865 H   0  0  0  0  0  0  0  0  0  0  0  0
  151.8405  141.9598  162.5787 H   0  0  0  0  0  0  0  0  0  0  0  0
  151.6271  144.3349  161.7443 H   0  0  0  0  0  0  0  0  0  0  0  0
  153.3054  144.3151  161.2414 H   0  0  0  0  0  0  0  0  0  0  0  0
  150.4964  144.4916  159.4339 H   0  0  0  0  0  0  0  0  0  0  0  0
  149.9690  143.6621  156.6932 H   0  0  0  0  0  0  0  0  0  0  0  0
  148.9895  143.0639  155.0799 H   0  0  0  0  0  0  0  0  0  0  0  0
  148.9956  141.4950  153.2104 H   0  0  0  0  0  0  0  0  0  0  0  0
  149.0737  140.1877  154.3564 H   0  0  0  0  0  0  0  0  0  0  0  0
  146.7481  140.7566  155.1610 H   0  0  0  0  0  0  0  0  0  0  0  0
  146.9237  143.2388  154.8225 H   0  0  0  0  0  0  0  0  0  0  0  0
  145.4391  142.5976  154.1937 H   0  0  0  0  0  0  0  0  0  0  0  0
  146.7585  143.0044  153.0891 H   0  0  0  0  0  0  0  0  0  0  0  0
  146.9296  141.5349  151.5111 H   0  0  0  0  0  0  0  0  0  0  0  0
  148.2151  140.3857  151.8011 H   0  0  0  0  0  0  0  0  0  0  0  0
  145.4435  139.7432  150.6366 H   0  0  0  0  0  0  0  0  0  0  0  0
  146.9559  139.7933  149.7506 H   0  0  0  0  0  0  0  0  0  0  0  0
  145.1119  137.9788  152.2471 H   0  0  0  0  0  0  0  0  0  0  0  0
  146.4014  136.8207  152.5029 H   0  0  0  0  0  0  0  0  0  0  0  0
  147.8372  138.5335  153.5631 H   0  0  0  0  0  0  0  0  0  0  0  0
  146.2668  138.4619  154.3539 H   0  0  0  0  0  0  0  0  0  0  0  0
  152.3882  140.9086  157.8974 H   0  0  0  0  0  0  0  0  0  0  0  0
  145.5863  140.3336  153.0952 H   0  0  0  0  0  0  0  0  0  0  0  0
  1  2  1  0  0  0  0
  1 21  1  0  0  0  0
  1 22  1  0  0  0  0
  1 23  1  0  0  0  0
  2  3  1  0  0  0  0
  2 24  1  0  0  0  0
  2 25  1  0  0  0  0
  3 20  1  0  0  0  0
  3  4  1  0  0  0  0
  4  5  2  0  0  0  0
  4 26  1  0  0  0  0
  5  6  1  0  0  0  0
  5 19  1  0  0  0  0
  6  7  1  0  0  0  0
  6 27  1  0  0  0  0
  7  8  2  0  0  0  0
  7  9  1  0  0  0  0
  9 10  1  0  0  0  0
  9 28  1  0  0  0  0
 10 11  1  0  0  0  0
 10 29  1  0  0  0  0
 10 30  1  0  0  0  0
 11 12  1  0  0  0  0
 11 13  1  0  0  0  0
 11 31  1  0  0  0  0
 12 32  1  0  0  0  0
 12 33  1  0  0  0  0
 12 34  1  0  0  0  0
 13 18  1  0  0  0  0
 13 14  1  0  0  0  0
 13 44  1  0  0  0  0
 14 15  1  0  0  0  0
 14 35  1  0  0  0  0
 14 36  1  0  0  0  0
 15 16  1  0  0  0  0
 15 37  1  0  0  0  0
 15 38  1  0  0  0  0
 16 17  1  0  0  0  0
 17 18  1  0  0  0  0
 17 39  1  0  0  0  0
 17 40  1  0  0  0  0
 18 41  1  0  0  0  0
 18 42  1  0  0  0  0
 19 20  2  0  0  0  0
 19 43  1  0  0  0  0
M  CHG  1  13   1
M  END
> <s_m_source_file>
AV-unprocessed.smi

> <i_m_source_file_index>
1780

> <i_lp_mmshare_version>
43012

> <i_f3d_flags>
0

> <s_epik_input>
W0NIM11bQ0gyXW4xW2NIXWMoW2NIXW4xKVtOSF1DKD1PKVtOSF1bQ0gyXVtDQEhdKFtDSDNdKU4yW0NIMl1bQ0gyXU9bQ0gyXVtDSDJdMg==

> <s_epik_cmdline>
J2VwaWtfcHl0aG9uJywgJy1waCcsICc3LjAnLCAnLXRuJywgJzgnLCAnLW1hJywgJzIwMCcsICctbWV0YWxfYmluZGluZycsICctaW1hZScsICc8aW5maWxlLm1hZT4nLCAnLW9tYWUnLCAnPG91dGZpbGUubWFlPic=

> <r_lp_tautomer_probability>
1

> <r_epik_Ionization_Penalty>
0.64612

> <r_epik_Ionization_Penalty_Charging>
0.645968

> <r_epik_Ionization_Penalty_Neutral>
0.000152026

> <r_epik_State_Penalty>
0.664063

> <r_epik_Charging_Adjusted_Penalty>
1.31003

> <i_epik_Tot_Q>
1

> <i_epik_Tot_abs_Q>
1

> <r_epik_Metal_State_Penalty>
0.664075

> <b_epik_Metal_Only>
0

> <s_lp_Force_Field>
OPLS_2005

> <r_lp_Energy>
24.1412

> <b_lp_Chiralities_Consistent>
1

> <s_lp_Variant>
AV-unprocessed.smi:1780-4

> <Gold.Version>
5.8.1

> <Gold.Id.Protein>
6NUR|6NUR_protein|mol2

> <Gold.PLP.Fitness>
50.6248

> <Gold.PLP.PLP>
-36.7860

> <Gold.PLP.part.hbond>
-4.0000

> <Gold.PLP.part.metal>
0.0000

> <Gold.PLP.part.buried>
-0.2825

> <Gold.PLP.part.nonpolar>
-33.3167

> <Gold.PLP.part.repulsive>
1.4766

> <Gold.PLP.ligand.clash>
0.0000

> <Gold.PLP.ligand.torsion>
0.6257

> <Gold.PLP.Chemscore.Hbond>
5.0000

> <Gold.PLP.Chemscore.CHOScore>
0.0000

> <Gold.PLP.Chemscore.Metal>
0.0000

> <Gold.Chemscore.Hbonds>
donor molecule, donor type, donor heavy atom, donor atom, acceptor molecule, acceptor atom, score
      L1  H     6    27       P1  8028  1.00
      L1  H     9    28       P1  8028  1.00
      L1  H    13    44       P1 10175  2.00
      P1  H  7954  7966       L1    16  1.00

> <Gold.PLP.Chemscore.Internal.Correction>
0.0903

> <Gold.Rescore>
     Score         DG    S(hbond)    S(metal)    S(lipo)     H(rot)  DE(clash)    DE(int)     intcor
     18.53     -23.27       2.93        0.00     104.85       1.67       3.30       1.44       ----

> <Gold.Chemscore.Fitness>
18.5291

> <Gold.Chemscore.DG>
-23.2724

> <Gold.Chemscore.ZeroCoef>
-5.4800

> <Gold.Chemscore.Hbond>
2.9347

> <Gold.Chemscore.Metal>
0.0000

> <Gold.Chemscore.Lipo>
104.8527

> <Gold.Chemscore.Internal_Hbond>
0.0000

> <Gold.Chemscore.DEClash>
3.3008

> <Gold.Chemscore.DEInternal>
1.4424

> <Gold.Chemscore.Rot>
1.6708

> <Gold.Chemscore.Internal.Correction>
   9.000000E+99

> <Gold.Chemscore.Hbonds>
donor molecule, donor type, donor heavy atom, donor atom, acceptor molecule, acceptor atom, score
      L1  H     6    27       P1  8028  0.96
      L1  H     9    28       P1  8028  0.98
      L1  H    13    44       P1 10175  0.92
      P1  H  7954  7966       L1    16  0.25

> <Gold.Chemscore.Hbond.Weighted>
-9.8019

> <Gold.Chemscore.Metal.Weighted>
-0.0000

> <Gold.Chemscore.Lipo.Weighted>
-12.2678

> <Gold.Chemscore.Internal_Hbond.Weighted>
0.0000

> <Gold.Chemscore.DEClash.Weighted>
3.3008

> <Gold.Chemscore.DEInternal.Weighted>
1.4424

> <Gold.Chemscore.Rot.Weighted>
4.2773

> <Gold.Chemscore.Internal.Correction.Weighted>
   9.000000E+99

> <Gold.Protein.RotatedTorsions>
[ 6907 6896 6895 6894 ] final   36.59 input  -60.11 | X-H torsion
[ 7974 7965 7964 7962 ] final   74.57 input  175.53 | X-H torsion
[ 8008 7997 7996 7995 ] final -160.05 input   59.86 | X-H torsion
[ 10167 10162 10161 10158 ] final   19.93 input  -65.29 | X-H torsion
[ 10718 10713 10712 10709 ] final   44.49 input   66.30 | X-H torsion
[ 10763 10752 10751 10750 ] final  120.88 input  -60.55 | X-H torsion
[ 11005 11000 10999 10996 ] final  162.27 input  -57.11 | X-H torsion

> <Gold.Protein.ActiveResidues>
 VAL166  LYS551  ARG553  GLY616  TRP617  ASP618  TYR619  PRO620  LYS621  CYS622 
 ASP623  PHE694  ASN695  SER759  ASP760  ASP761  ALA762  ILE779  LEU786  VAL792 
 PHE793  MET794  SER795  GLU796  ALA797  LYS798  CYS799  TRP800  GLU811  SER814 

> <Gold.Protein.RotatedAtoms>
  152.1317  134.9129  160.0558 H   0  0  0  0  0  0  0  0  0  0  0  0  # atno 6907 bound_to 6896
  152.0231  133.3902  159.4274 H   0  0  0  0  0  0  0  0  0  0  0  0  # atno 6908 bound_to 6896
  150.6857  134.3525  159.4959 H   0  0  0  0  0  0  0  0  0  0  0  0  # atno 6909 bound_to 6896
  145.7266  139.2668  143.1565 H   0  0  0  0  0  0  0  0  0  0  0  0  # atno 7974 bound_to 7965
  155.7717  140.0853  157.2104 H   0  0  0  0  0  0  0  0  0  0  0  0  # atno 8008 bound_to 7997
  154.3996  140.1524  156.3007 H   0  0  0  0  0  0  0  0  0  0  0  0  # atno 8009 bound_to 7997
  155.8740  140.3424  155.5844 H   0  0  0  0  0  0  0  0  0  0  0  0  # atno 8010 bound_to 7997
  140.5542  143.9455  150.6598 H   0  0  0  0  0  0  0  0  0  0  0  0  # atno 10167 bound_to 10162
  157.4273  130.8004  149.7571 H   0  0  0  0  0  0  0  0  0  0  0  0  # atno 10718 bound_to 10713
  153.6054  135.3440  155.2960 H   0  0  0  0  0  0  0  0  0  0  0  0  # atno 10763 bound_to 10752
  154.8628  135.4237  154.2367 H   0  0  0  0  0  0  0  0  0  0  0  0  # atno 10764 bound_to 10752
  153.3205  135.7038  153.7106 H   0  0  0  0  0  0  0  0  0  0  0  0  # atno 10765 bound_to 10752
  140.2240  134.8174  157.3250 H   0  0  0  0  0  0  0  0  0  0  0  0  # atno 11005 bound_to 11000
  146.0576  140.8004  142.9750 LP  0  0  0  0  0  0  0  0  0  0  0  0  # atno 17320 bound_to 7965
  144.6903  140.3148  143.7242 LP  0  0  0  0  0  0  0  0  0  0  0  0  # atno 17321 bound_to 7965
  140.2889  143.3338  152.1081 LP  0  0  0  0  0  0  0  0  0  0  0  0  # atno 17342 bound_to 10162
  139.5040  144.6767  151.6110 LP  0  0  0  0  0  0  0  0  0  0  0  0  # atno 17343 bound_to 10162
  155.9901  130.3947  150.3043 LP  0  0  0  0  0  0  0  0  0  0  0  0  # atno 17370 bound_to 10713
  157.1197  131.0243  151.3014 LP  0  0  0  0  0  0  0  0  0  0  0  0  # atno 17371 bound_to 10713
  140.1819  134.4478  155.7767 LP  0  0  0  0  0  0  0  0  0  0  0  0  # atno 17394 bound_to 11000
  141.2221  133.6988  156.7883 LP  0  0  0  0  0  0  0  0  0  0  0  0  # atno 17395 bound_to 11000

$$$$
