AV-unprocessed.smi:285|AV-procd|sdf|2172|dock2
  -GOLD-   2262021533D 1   1.00000     0.00000
 Structure written by MMmdl.
 31 33  0  0  0  0  0  0  0  0  1 V2000
  148.8753  144.6857  160.4213 N   0  0  0  0  0  0  0  0  0  0  0  0
  149.9023  144.1215  159.7702 C   0  0  0  0  0  0  0  0  0  0  0  0
  151.1593  144.4957  160.1053 N   0  0  0  0  0  0  0  0  0  0  0  0
  152.2013  143.9503  159.4696 C   0  0  0  0  0  0  0  0  0  0  0  0
  152.2014  143.0382  158.4938 N   0  0  0  0  0  0  0  0  0  0  0  0
  150.9333  142.6585  158.1573 C   0  0  0  0  0  0  0  0  0  0  0  0
  149.7334  143.1541  158.7474 C   0  0  0  0  0  0  0  0  0  0  0  0
  148.6264  142.5539  158.1604 N   0  0  0  0  0  0  0  0  0  0  0  0
  149.1649  141.7572  157.2799 C   0  0  0  0  0  0  0  0  0  0  0  0
  148.0652  140.6818  156.1561 Br  0  0  0  0  0  0  0  0  0  0  0  0
  150.5394  141.7447  157.1994 N   0  0  0  0  0  0  0  0  0  0  0  0
  151.4233  140.9420  156.2982 C   0  0  1  0  0  0  0  0  0  0  0  0
  152.1925  139.8829  157.0861 C   0  0  0  0  0  0  0  0  0  0  0  0
  152.3015  138.7736  156.0619 C   0  0  2  0  0  0  0  0  0  0  0  0
  153.4064  138.9923  155.2025 O   0  0  0  0  0  0  0  0  0  0  0  0
  150.9537  138.8853  155.3295 C   0  0  2  0  0  0  0  0  0  0  0  0
  150.9373  138.3441  153.8886 C   0  0  0  0  0  0  0  0  0  0  0  0
  149.6592  138.5177  153.3147 O   0  0  0  0  0  0  0  0  0  0  0  0
  150.6313  140.2766  155.3610 O   0  0  0  0  0  0  0  0  0  0  0  0
  147.9278  144.4244  160.1888 H   0  0  0  0  0  0  0  0  0  0  0  0
  149.0507  145.3699  161.1428 H   0  0  0  0  0  0  0  0  0  0  0  0
  153.1748  144.2939  159.7869 H   0  0  0  0  0  0  0  0  0  0  0  0
  152.0696  141.6556  155.7880 H   0  0  0  0  0  0  0  0  0  0  0  0
  153.1481  140.2664  157.4459 H   0  0  0  0  0  0  0  0  0  0  0  0
  151.6003  139.5477  157.9386 H   0  0  0  0  0  0  0  0  0  0  0  0
  152.4235  137.7985  156.5342 H   0  0  0  0  0  0  0  0  0  0  0  0
  153.0990  139.4245  154.4203 H   0  0  0  0  0  0  0  0  0  0  0  0
  150.2092  138.3605  155.9311 H   0  0  0  0  0  0  0  0  0  0  0  0
  151.6977  138.8273  153.2742 H   0  0  0  0  0  0  0  0  0  0  0  0
  151.1480  137.2743  153.8865 H   0  0  0  0  0  0  0  0  0  0  0  0
  149.7670  138.7976  152.4185 H   0  0  0  0  0  0  0  0  0  0  0  0
  1  2  1  0  0  0  0
  1 20  1  0  0  0  0
  1 21  1  0  0  0  0
  2  7  1  0  0  0  0
  2  3  2  0  0  0  0
  3  4  1  0  0  0  0
  4  5  2  0  0  0  0
  4 22  1  0  0  0  0
  5  6  1  0  0  0  0
  6 11  1  0  0  0  0
  6  7  2  0  0  0  0
  7  8  1  0  0  0  0
  8  9  2  0  0  0  0
  9 10  1  0  0  0  0
  9 11  1  0  0  0  0
 11 12  1  0  0  0  0
 12 19  1  0  0  0  0
 12 13  1  0  0  0  0
 12 23  1  0  0  0  0
 13 14  1  0  0  0  0
 13 24  1  0  0  0  0
 13 25  1  0  0  0  0
 14 15  1  0  0  0  0
 14 16  1  0  0  0  0
 14 26  1  0  0  0  0
 15 27  1  0  0  0  0
 16 17  1  0  0  0  0
 16 19  1  0  0  0  0
 16 28  1  0  0  0  0
 17 18  1  0  0  0  0
 17 29  1  0  0  0  0
 17 30  1  0  0  0  0
 18 31  1  0  0  0  0
M  END
> <s_m_source_file>
AV-unprocessed.smi

> <i_m_source_file_index>
285

> <i_lp_mmshare_version>
43012

> <i_f3d_flags>
0

> <s_epik_input>
bjFbY0hdbmMoW05IMl0pYyhjMTIpbmMoQnIpbjJbQ0BASF0zW0NIMl1bQ0BASF0oW09IXSlbQ0BIXShPMylbQ0gyXVtPSF0=

> <s_epik_cmdline>
J2VwaWtfcHl0aG9uJywgJy1waCcsICc3LjAnLCAnLXRuJywgJzgnLCAnLW1hJywgJzIwMCcsICctbWV0YWxfYmluZGluZycsICctaW1hZScsICc8aW5maWxlLm1hZT4nLCAnLW9tYWUnLCAnPG91dGZpbGUubWFlPic=

> <r_lp_tautomer_probability>
1

> <r_epik_Ionization_Penalty>
0.000103242

> <r_epik_Ionization_Penalty_Charging>
0

> <r_epik_Ionization_Penalty_Neutral>
0.000103242

> <r_epik_State_Penalty>
-0

> <r_epik_Charging_Adjusted_Penalty>
0

> <i_epik_Tot_Q>
0

> <i_epik_Tot_abs_Q>
0

> <r_epik_Metal_State_Penalty>
-0

> <b_epik_Metal_Only>
0

> <s_epik_Chemistry_Notes>
This compound contains an acetal/aminal-like group ( X-CH(R)-Y where X, Y are N, S, or O) that may be acid/base labile, releasing an aldehyde.

> <s_lp_Force_Field>
OPLS_2005

> <r_lp_Energy>
37.1806

> <b_lp_Chiralities_Consistent>
1

> <s_lp_Variant>
AV-unprocessed.smi:285-8

> <Gold.Version>
5.8.1

> <Gold.Id.Protein>
6NUR|6NUR_protein|mol2

> <Gold.PLP.Fitness>
38.2701

> <Gold.PLP.PLP>
-30.4530

> <Gold.PLP.part.hbond>
-4.3457

> <Gold.PLP.part.metal>
0.0000

> <Gold.PLP.part.buried>
-5.4533

> <Gold.PLP.part.nonpolar>
-20.2554

> <Gold.PLP.part.repulsive>
1.1514

> <Gold.PLP.ligand.clash>
0.0000

> <Gold.PLP.ligand.torsion>
0.1497

> <Gold.PLP.Chemscore.Hbond>
2.7044

> <Gold.PLP.Chemscore.CHOScore>
0.0000

> <Gold.PLP.Chemscore.Metal>
0.0000

> <Gold.Chemscore.Hbonds>
donor molecule, donor type, donor heavy atom, donor atom, acceptor molecule, acceptor atom, score
      L1  H    18    31       P1  7957  1.00
      P1  H  7989  7998       L1    19  0.56
      P1  H  7997  8008       L1    15  0.85

> <Gold.PLP.Chemscore.Internal.Correction>
0.0032

> <Gold.Rescore>
     Score         DG    S(hbond)    S(metal)    S(lipo)     H(rot)  DE(clash)    DE(int)     intcor
      6.32      -7.87       1.82        0.00      35.36       3.06       0.02       1.53       ----

> <Gold.Chemscore.Fitness>
6.3172

> <Gold.Chemscore.DG>
-7.8711

> <Gold.Chemscore.ZeroCoef>
-5.4800

> <Gold.Chemscore.Hbond>
1.8231

> <Gold.Chemscore.Metal>
0.0000

> <Gold.Chemscore.Lipo>
35.3615

> <Gold.Chemscore.Internal_Hbond>
0.0000

> <Gold.Chemscore.DEClash>
0.0208

> <Gold.Chemscore.DEInternal>
1.5332

> <Gold.Chemscore.Rot>
3.0607

> <Gold.Chemscore.Internal.Correction>
   9.000000E+99

> <Gold.Chemscore.Hbonds>
donor molecule, donor type, donor heavy atom, donor atom, acceptor molecule, acceptor atom, score
      L1  H    18    31       P1  7957  0.48
      P1  H  7989  7998       L1    19  0.03
      P1  H  7997  8008       L1    15  0.15

> <Gold.Chemscore.Hbond.Weighted>
-6.0892

> <Gold.Chemscore.Metal.Weighted>
-0.0000

> <Gold.Chemscore.Lipo.Weighted>
-4.1373

> <Gold.Chemscore.Internal_Hbond.Weighted>
0.0000

> <Gold.Chemscore.DEClash.Weighted>
0.0208

> <Gold.Chemscore.DEInternal.Weighted>
1.5332

> <Gold.Chemscore.Rot.Weighted>
7.8354

> <Gold.Chemscore.Internal.Correction.Weighted>
   9.000000E+99

> <Gold.Protein.RotatedTorsions>
[ 6907 6896 6895 6894 ] final -162.78 input  -60.11 | X-H torsion
[ 7974 7965 7964 7962 ] final   -6.92 input  175.53 | X-H torsion
[ 8008 7997 7996 7995 ] final   -2.11 input   59.86 | X-H torsion
[ 10167 10162 10161 10158 ] final  -25.00 input  -65.29 | X-H torsion
[ 10718 10713 10712 10709 ] final -139.97 input   66.30 | X-H torsion
[ 10763 10752 10751 10750 ] final  -73.97 input  -60.55 | X-H torsion
[ 11005 11000 10999 10996 ] final  -23.16 input  -57.11 | X-H torsion

> <Gold.Protein.ActiveResidues>
 VAL166  LYS551  ARG553  GLY616  TRP617  ASP618  TYR619  PRO620  LYS621  CYS622 
 ASP623  PHE694  ASN695  SER759  ASP760  ASP761  ALA762  ILE779  LEU786  VAL792 
 PHE793  MET794  SER795  GLU796  ALA797  LYS798  CYS799  TRP800  GLU811  SER814 

> <Gold.Protein.RotatedAtoms>
  151.3857  133.3806  159.2714 H   0  0  0  0  0  0  0  0  0  0  0  0  # atno 6907 bound_to 6896
  150.9543  134.8941  159.7702 H   0  0  0  0  0  0  0  0  0  0  0  0  # atno 6908 bound_to 6896
  152.5124  134.3813  159.9404 H   0  0  0  0  0  0  0  0  0  0  0  0  # atno 6909 bound_to 6896
  146.2319  140.2242  142.8338 H   0  0  0  0  0  0  0  0  0  0  0  0  # atno 7974 bound_to 7965
  154.6393  140.2542  155.7341 H   0  0  0  0  0  0  0  0  0  0  0  0  # atno 8008 bound_to 7997
  156.2520  140.2890  156.0700 H   0  0  0  0  0  0  0  0  0  0  0  0  # atno 8009 bound_to 7997
  155.1621  140.0384  157.2835 H   0  0  0  0  0  0  0  0  0  0  0  0  # atno 8010 bound_to 7997
  140.7287  143.4303  151.0812 H   0  0  0  0  0  0  0  0  0  0  0  0  # atno 10167 bound_to 10162
  156.3169  130.7513  151.1602 H   0  0  0  0  0  0  0  0  0  0  0  0  # atno 10718 bound_to 10713
  154.4667  135.5880  153.6293 H   0  0  0  0  0  0  0  0  0  0  0  0  # atno 10763 bound_to 10752
  152.9829  135.6057  154.3418 H   0  0  0  0  0  0  0  0  0  0  0  0  # atno 10764 bound_to 10752
  154.3295  135.2842  155.2458 H   0  0  0  0  0  0  0  0  0  0  0  0  # atno 10765 bound_to 10752
  140.8726  133.7710  156.0204 H   0  0  0  0  0  0  0  0  0  0  0  0  # atno 11005 bound_to 11000
  144.9608  140.8273  143.5514 LP  0  0  0  0  0  0  0  0  0  0  0  0  # atno 17320 bound_to 7965
  145.2212  139.2158  143.5092 LP  0  0  0  0  0  0  0  0  0  0  0  0  # atno 17321 bound_to 7965
  139.7959  143.8152  152.3157 LP  0  0  0  0  0  0  0  0  0  0  0  0  # atno 17342 bound_to 10162
  139.8152  144.7319  150.9645 LP  0  0  0  0  0  0  0  0  0  0  0  0  # atno 17343 bound_to 10162
  157.7403  131.0518  150.5172 LP  0  0  0  0  0  0  0  0  0  0  0  0  # atno 17370 bound_to 10713
  156.5319  130.4187  149.6197 LP  0  0  0  0  0  0  0  0  0  0  0  0  # atno 17371 bound_to 10713
  140.8556  134.2902  157.5257 LP  0  0  0  0  0  0  0  0  0  0  0  0  # atno 17394 bound_to 11000
  139.8713  134.9491  156.4015 LP  0  0  0  0  0  0  0  0  0  0  0  0  # atno 17395 bound_to 11000

$$$$
