AV-unprocessed.smi:1404|AV-procd|sdf|5706|dock1
  -GOLD-   22720 5333D 1   1.00000     0.00000
 Structure written by MMmdl.
 48 49  0  0  0  0  0  0  0  0  2 V2000
  153.1098  138.6242  157.5298 C   0  0  0  0  0  0  0  0  0  0  0  0
  152.3174  137.9481  156.5237 N   0  0  0  0  0  0  0  0  0  0  0  0
  152.2144  138.5150  155.2302 C   0  0  0  0  0  0  0  0  0  0  0  0
  152.7783  139.5638  154.9169 O   0  0  0  0  0  0  0  0  0  0  0  0
  151.3811  137.7568  154.3044 C   0  0  0  0  0  0  0  0  0  0  0  0
  150.7716  136.6155  154.6930 C   0  0  0  0  0  0  0  0  0  0  0  0
  150.8836  136.0872  155.9662 N   0  0  0  0  0  0  0  0  0  0  0  0
  150.1739  134.8486  156.3083 C   0  0  0  0  0  0  0  0  0  0  0  0
  149.3079  134.3364  155.1514 C   0  0  0  0  0  0  0  0  0  0  0  0
  149.7912  133.6031  154.2881 O   0  0  0  0  0  0  0  0  0  0  0  0
  148.0260  134.7321  155.1504 N   0  0  0  0  0  0  0  0  0  0  0  0
  147.0347  134.4120  154.1238 C   0  0  0  0  0  0  0  0  0  0  0  0
  145.8671  133.5058  154.6268 C   0  0  0  0  0  0  0  0  0  0  0  0
  146.4975  132.2658  155.3148 C   0  0  0  0  0  0  0  0  0  0  0  0
  145.0082  134.2425  155.6850 C   0  0  0  0  0  0  0  0  0  0  0  0
  145.0305  133.1022  153.4360 N   0  3  0  0  0  0  0  0  0  0  0  0
  144.3532  134.2069  152.6974 C   0  0  0  0  0  0  0  0  0  0  0  0
  143.4232  133.6493  151.6049 C   0  0  0  0  0  0  0  0  0  0  0  0
  144.1514  132.8100  150.7210 O   0  0  0  0  0  0  0  0  0  0  0  0
  144.7116  131.6972  151.4016 C   0  0  0  0  0  0  0  0  0  0  0  0
  145.7062  132.1995  152.4594 C   0  0  0  0  0  0  0  0  0  0  0  0
  151.6722  136.7581  156.9259 C   0  0  0  0  0  0  0  0  0  0  0  0
  151.7824  136.3147  158.0723 O   0  0  0  0  0  0  0  0  0  0  0  0
  153.6778  139.4476  157.0983 H   0  0  0  0  0  0  0  0  0  0  0  0
  153.8046  137.8942  157.9493 H   0  0  0  0  0  0  0  0  0  0  0  0
  152.4160  138.9949  158.2862 H   0  0  0  0  0  0  0  0  0  0  0  0
  151.2482  138.1157  153.2942 H   0  0  0  0  0  0  0  0  0  0  0  0
  150.1616  136.0935  153.9700 H   0  0  0  0  0  0  0  0  0  0  0  0
  150.8861  134.0660  156.5732 H   0  0  0  0  0  0  0  0  0  0  0  0
  149.5623  135.0064  157.1991 H   0  0  0  0  0  0  0  0  0  0  0  0
  147.7197  135.3284  155.9059 H   0  0  0  0  0  0  0  0  0  0  0  0
  146.6706  135.3437  153.6940 H   0  0  0  0  0  0  0  0  0  0  0  0
  147.5628  133.9062  153.3146 H   0  0  0  0  0  0  0  0  0  0  0  0
  147.1813  132.5453  156.1165 H   0  0  0  0  0  0  0  0  0  0  0  0
  147.0615  131.6581  154.6065 H   0  0  0  0  0  0  0  0  0  0  0  0
  145.7479  131.6305  155.7868 H   0  0  0  0  0  0  0  0  0  0  0  0
  145.5670  134.4127  156.6055 H   0  0  0  0  0  0  0  0  0  0  0  0
  144.1239  133.6676  155.9596 H   0  0  0  0  0  0  0  0  0  0  0  0
  144.6756  135.2200  155.3355 H   0  0  0  0  0  0  0  0  0  0  0  0
  143.7326  134.8103  153.3573 H   0  0  0  0  0  0  0  0  0  0  0  0
  145.0966  134.8692  152.2524 H   0  0  0  0  0  0  0  0  0  0  0  0
  142.5938  133.0955  152.0479 H   0  0  0  0  0  0  0  0  0  0  0  0
  142.9862  134.4674  151.0319 H   0  0  0  0  0  0  0  0  0  0  0  0
  143.9258  131.0917  151.8559 H   0  0  0  0  0  0  0  0  0  0  0  0
  145.2233  131.0640  150.6765 H   0  0  0  0  0  0  0  0  0  0  0  0
  146.5148  132.7291  151.9545 H   0  0  0  0  0  0  0  0  0  0  0  0
  146.1500  131.3350  152.9476 H   0  0  0  0  0  0  0  0  0  0  0  0
  144.2753  132.5588  153.8291 H   0  0  0  0  0  0  0  0  0  0  0  0
  1  2  1  0  0  0  0
  1 24  1  0  0  0  0
  1 25  1  0  0  0  0
  1 26  1  0  0  0  0
  2 22  1  0  0  0  0
  2  3  1  0  0  0  0
  3  4  2  0  0  0  0
  3  5  1  0  0  0  0
  5  6  2  0  0  0  0
  5 27  1  0  0  0  0
  6  7  1  0  0  0  0
  6 28  1  0  0  0  0
  7  8  1  0  0  0  0
  7 22  1  0  0  0  0
  8  9  1  0  0  0  0
  8 29  1  0  0  0  0
  8 30  1  0  0  0  0
  9 10  2  0  0  0  0
  9 11  1  0  0  0  0
 11 12  1  0  0  0  0
 11 31  1  0  0  0  0
 12 13  1  0  0  0  0
 12 32  1  0  0  0  0
 12 33  1  0  0  0  0
 13 14  1  0  0  0  0
 13 15  1  0  0  0  0
 13 16  1  0  0  0  0
 14 34  1  0  0  0  0
 14 35  1  0  0  0  0
 14 36  1  0  0  0  0
 15 37  1  0  0  0  0
 15 38  1  0  0  0  0
 15 39  1  0  0  0  0
 16 21  1  0  0  0  0
 16 17  1  0  0  0  0
 16 48  1  0  0  0  0
 17 18  1  0  0  0  0
 17 40  1  0  0  0  0
 17 41  1  0  0  0  0
 18 19  1  0  0  0  0
 18 42  1  0  0  0  0
 18 43  1  0  0  0  0
 19 20  1  0  0  0  0
 20 21  1  0  0  0  0
 20 44  1  0  0  0  0
 20 45  1  0  0  0  0
 21 46  1  0  0  0  0
 21 47  1  0  0  0  0
 22 23  2  0  0  0  0
M  CHG  1  16   1
M  END
> <s_m_source_file>
AV-unprocessed.smi

> <i_m_source_file_index>
1404

> <i_lp_mmshare_version>
43012

> <i_f3d_flags>
0

> <s_epik_input>
W0NIM11uMWMoPU8pW2NIXVtjSF1uKGMxPU8pW0NIMl1DKD1PKVtOSF1bQ0gyXUMoW0NIM10pKFtDSDNdKU4yW0NIMl1bQ0gyXU9bQ0gyXVtDSDJdMg==

> <s_epik_cmdline>
J2VwaWtfcHl0aG9uJywgJy1waCcsICc3LjAnLCAnLXRuJywgJzgnLCAnLW1hJywgJzIwMCcsICctbWV0YWxfYmluZGluZycsICctaW1hZScsICc8aW5maWxlLm1hZT4nLCAnLW9tYWUnLCAnPG91dGZpbGUubWFlPic=

> <r_lp_tautomer_probability>
1

> <r_epik_Ionization_Penalty>
0.656654

> <r_epik_Ionization_Penalty_Charging>
0.656653

> <r_epik_Ionization_Penalty_Neutral>
9.12373e-08

> <r_epik_State_Penalty>
0.675641

> <r_epik_Charging_Adjusted_Penalty>
1.33229

> <i_epik_Tot_Q>
1

> <i_epik_Tot_abs_Q>
1

> <r_epik_Metal_State_Penalty>
0.675694

> <b_epik_Metal_Only>
0

> <s_lp_Force_Field>
OPLS_2005

> <r_lp_Energy>
33.2005

> <b_lp_Chiralities_Consistent>
1

> <s_lp_Variant>
AV-unprocessed.smi:1404-2

> <Gold.Version>
5.8.1

> <Gold.Id.Protein>
6NUR|6NUR_protein|mol2

> <Gold.PLP.Fitness>
41.9033

> <Gold.PLP.PLP>
-29.3161

> <Gold.PLP.part.hbond>
-3.9730

> <Gold.PLP.part.metal>
0.0000

> <Gold.PLP.part.buried>
-5.4585

> <Gold.PLP.part.nonpolar>
-20.9886

> <Gold.PLP.part.repulsive>
0.3107

> <Gold.PLP.ligand.clash>
0.1033

> <Gold.PLP.ligand.torsion>
0.4869

> <Gold.PLP.Chemscore.Hbond>
3.6817

> <Gold.PLP.Chemscore.CHOScore>
0.8256

> <Gold.PLP.Chemscore.Metal>
0.0000

> <Gold.Chemscore.Hbonds>
donor molecule, donor type, donor heavy atom, donor atom, acceptor molecule, acceptor atom, score
      L1  H    16    48       P1 10957  2.00
      P1  H  6896  6907       L1    23  0.24
      P1  H  7989  7998       L1     4  0.29
      P1  H  7997  8010       L1     4  0.99
      L1  C     6    28       P1  7948  0.70
      L1  C     6    28       P1  7949  0.04

> <Gold.PLP.Chemscore.Internal.Correction>
0.1422

> <Gold.Rescore>
     Score         DG    S(hbond)    S(metal)    S(lipo)     H(rot)  DE(clash)    DE(int)     intcor
     14.17     -14.71       2.69        0.00      48.80       2.14       0.00       0.55       ----

> <Gold.Chemscore.Fitness>
14.1661

> <Gold.Chemscore.DG>
-14.7142

> <Gold.Chemscore.ZeroCoef>
-5.4800

> <Gold.Chemscore.Hbond>
2.6940

> <Gold.Chemscore.Metal>
0.0000

> <Gold.Chemscore.Lipo>
48.8019

> <Gold.Chemscore.Internal_Hbond>
0.0000

> <Gold.Chemscore.DEClash>
0.0000

> <Gold.Chemscore.DEInternal>
0.5481

> <Gold.Chemscore.Rot>
2.1381

> <Gold.Chemscore.Internal.Correction>
   9.000000E+99

> <Gold.Chemscore.Hbonds>
donor molecule, donor type, donor heavy atom, donor atom, acceptor molecule, acceptor atom, score
      L1  H    16    48       P1 10957  0.52
      P1  H  6896  6907       L1    23  0.24
      P1  H  7989  7998       L1     4  0.27
      P1  H  7997  8010       L1     4  0.91

> <Gold.Chemscore.Hbond.Weighted>
-8.9978

> <Gold.Chemscore.Metal.Weighted>
-0.0000

> <Gold.Chemscore.Lipo.Weighted>
-5.7098

> <Gold.Chemscore.Internal_Hbond.Weighted>
0.0000

> <Gold.Chemscore.DEClash.Weighted>
0.0000

> <Gold.Chemscore.DEInternal.Weighted>
0.5481

> <Gold.Chemscore.Rot.Weighted>
5.4735

> <Gold.Chemscore.Internal.Correction.Weighted>
   9.000000E+99

> <Gold.Protein.RotatedTorsions>
[ 6907 6896 6895 6894 ] final  -11.46 input  -60.11 | X-H torsion
[ 7974 7965 7964 7962 ] final  176.25 input  175.53 | X-H torsion
[ 8008 7997 7996 7995 ] final  101.97 input   59.86 | X-H torsion
[ 10167 10162 10161 10158 ] final  -59.92 input  -65.29 | X-H torsion
[ 10718 10713 10712 10709 ] final -145.39 input   66.30 | X-H torsion
[ 10763 10752 10751 10750 ] final -112.42 input  -60.55 | X-H torsion
[ 11005 11000 10999 10996 ] final  149.50 input  -57.11 | X-H torsion

> <Gold.Protein.ActiveResidues>
 VAL166  LYS551  ARG553  GLY616  TRP617  ASP618  TYR619  PRO620  LYS621  CYS622 
 ASP623  PHE694  ASN695  SER759  ASP760  ASP761  ALA762  ILE779  LEU786  VAL792 
 PHE793  MET794  SER795  GLU796  ALA797  LYS798  CYS799  TRP800  GLU811  SER814 

> <Gold.Protein.RotatedAtoms>
  151.3858  135.0947  159.9510 H   0  0  0  0  0  0  0  0  0  0  0  0  # atno 6907 bound_to 6896
  152.5094  133.9028  159.7460 H   0  0  0  0  0  0  0  0  0  0  0  0  # atno 6908 bound_to 6896
  150.9471  133.6536  159.2808 H   0  0  0  0  0  0  0  0  0  0  0  0  # atno 6909 bound_to 6896
  144.7187  140.0068  143.6440 H   0  0  0  0  0  0  0  0  0  0  0  0  # atno 7974 bound_to 7965
  156.1349  140.3189  155.8405 H   0  0  0  0  0  0  0  0  0  0  0  0  # atno 8008 bound_to 7997
  155.4263  140.0516  157.3039 H   0  0  0  0  0  0  0  0  0  0  0  0  # atno 8009 bound_to 7997
  154.4928  140.2099  155.9523 H   0  0  0  0  0  0  0  0  0  0  0  0  # atno 8010 bound_to 7997
  140.6104  143.2385  151.5722 H   0  0  0  0  0  0  0  0  0  0  0  0  # atno 10167 bound_to 10162
  156.3819  130.7841  151.2034 H   0  0  0  0  0  0  0  0  0  0  0  0  # atno 10718 bound_to 10713
  154.8348  135.4491  154.1191 H   0  0  0  0  0  0  0  0  0  0  0  0  # atno 10763 bound_to 10752
  153.2432  135.6918  153.7766 H   0  0  0  0  0  0  0  0  0  0  0  0  # atno 10764 bound_to 10752
  153.7106  135.3357  155.3221 H   0  0  0  0  0  0  0  0  0  0  0  0  # atno 10765 bound_to 10752
  140.1050  134.8960  157.1852 H   0  0  0  0  0  0  0  0  0  0  0  0  # atno 11005 bound_to 11000
  146.0291  139.3318  143.0766 LP  0  0  0  0  0  0  0  0  0  0  0  0  # atno 17320 bound_to 7965
  145.8475  140.9547  143.0767 LP  0  0  0  0  0  0  0  0  0  0  0  0  # atno 17321 bound_to 7965
  139.5357  144.2788  152.1246 LP  0  0  0  0  0  0  0  0  0  0  0  0  # atno 17342 bound_to 10162
  140.1986  144.4680  150.6442 LP  0  0  0  0  0  0  0  0  0  0  0  0  # atno 17343 bound_to 10162
  157.7493  131.0341  150.4304 LP  0  0  0  0  0  0  0  0  0  0  0  0  # atno 17370 bound_to 10713
  156.4549  130.4019  149.6612 LP  0  0  0  0  0  0  0  0  0  0  0  0  # atno 17371 bound_to 10713
  140.3168  134.2961  155.7254 LP  0  0  0  0  0  0  0  0  0  0  0  0  # atno 17394 bound_to 11000
  141.2116  133.7685  156.9855 LP  0  0  0  0  0  0  0  0  0  0  0  0  # atno 17395 bound_to 11000

$$$$
