AV-unprocessed.smi:1295|AV-procd|sdf|5406|dock7
  -GOLD-   22720 4563D 1   1.00000     0.00000
 Structure written by MMmdl.
 43 44  0  0  0  0  0  0  0  0  1 V2000
  154.6304  140.9233  160.7430 C   0  0  0  0  0  0  0  0  0  0  0  0
  153.4563  141.4374  159.9384 C   0  0  0  0  0  0  0  0  0  0  0  0
  153.1843  142.7795  160.1463 N   0  0  0  0  0  0  0  0  0  0  0  0
  152.1273  143.3410  159.4519 C   0  0  0  0  0  0  0  0  0  0  0  0
  151.8976  144.8158  159.7353 C   0  0  0  0  0  0  0  0  0  0  0  0
  151.3760  142.6009  158.5974 C   0  0  0  0  0  0  0  0  0  0  0  0
  150.1983  143.1836  157.8183 C   0  0  0  0  0  0  0  0  0  0  0  0
  148.9759  142.2712  157.6933 C   0  0  0  0  0  0  0  0  0  0  0  0
  148.5789  141.6326  158.6678 O   0  0  0  0  0  0  0  0  0  0  0  0
  148.3895  142.2267  156.4872 N   0  0  0  0  0  0  0  0  0  0  0  0
  147.1900  141.4638  156.1357 C   0  0  1  0  0  0  0  0  0  0  0  0
  145.9864  141.9929  156.9411 C   0  0  0  0  0  0  0  0  0  0  0  0
  145.5507  143.3952  156.4815 C   0  0  0  0  0  0  0  0  0  0  0  0
  145.2614  143.4215  154.9732 C   0  0  0  0  0  0  0  0  0  0  0  0
  146.4650  142.9150  154.1622 C   0  0  0  0  0  0  0  0  0  0  0  0
  146.9013  141.5055  154.6128 C   0  0  1  0  0  0  0  0  0  0  0  0
  148.0667  140.9753  153.7600 C   0  0  0  0  0  0  0  0  0  0  0  0
  151.7113  141.1679  158.4217 C   0  0  0  0  0  0  0  0  0  0  0  0
  151.0616  140.4412  157.6712 O   0  0  0  0  0  0  0  0  0  0  0  0
  152.7981  140.6490  159.1443 N   0  0  0  0  0  0  0  0  0  0  0  0
  153.7149  143.3646  160.7756 H   0  0  0  0  0  0  0  0  0  0  0  0
  154.9001  139.9118  160.4366 H   0  0  0  0  0  0  0  0  0  0  0  0
  154.3818  140.9045  161.8044 H   0  0  0  0  0  0  0  0  0  0  0  0
  155.5013  141.5643  160.6018 H   0  0  0  0  0  0  0  0  0  0  0  0
  152.0083  145.4014  158.8227 H   0  0  0  0  0  0  0  0  0  0  0  0
  152.6094  145.1998  160.4669 H   0  0  0  0  0  0  0  0  0  0  0  0
  150.8940  144.9773  160.1299 H   0  0  0  0  0  0  0  0  0  0  0  0
  150.5043  143.4804  156.8149 H   0  0  0  0  0  0  0  0  0  0  0  0
  149.8984  144.1143  158.3013 H   0  0  0  0  0  0  0  0  0  0  0  0
  148.7964  142.7835  155.7495 H   0  0  0  0  0  0  0  0  0  0  0  0
  147.3326  140.4207  156.4233 H   0  0  0  0  0  0  0  0  0  0  0  0
  145.1482  141.3046  156.8252 H   0  0  0  0  0  0  0  0  0  0  0  0
  146.2215  142.0051  158.0062 H   0  0  0  0  0  0  0  0  0  0  0  0
  144.6641  143.7070  157.0342 H   0  0  0  0  0  0  0  0  0  0  0  0
  146.3298  144.1212  156.7175 H   0  0  0  0  0  0  0  0  0  0  0  0
  144.3898  142.8019  154.7582 H   0  0  0  0  0  0  0  0  0  0  0  0
  145.0039  144.4342  154.6623 H   0  0  0  0  0  0  0  0  0  0  0  0
  146.2074  142.9028  153.1026 H   0  0  0  0  0  0  0  0  0  0  0  0
  147.2962  143.6137  154.2663 H   0  0  0  0  0  0  0  0  0  0  0  0
  146.0579  140.8370  154.4329 H   0  0  0  0  0  0  0  0  0  0  0  0
  148.9436  141.6194  153.8281 H   0  0  0  0  0  0  0  0  0  0  0  0
  147.7853  140.9159  152.7084 H   0  0  0  0  0  0  0  0  0  0  0  0
  148.3615  139.9750  154.0782 H   0  0  0  0  0  0  0  0  0  0  0  0
  1 22  1  0  0  0  0
  1 23  1  0  0  0  0
  1 24  1  0  0  0  0
  1  2  1  0  0  0  0
  2  3  1  0  0  0  0
  2 20  2  0  0  0  0
  3  4  1  0  0  0  0
  3 21  1  0  0  0  0
  4  6  2  0  0  0  0
  4  5  1  0  0  0  0
  5 25  1  0  0  0  0
  5 26  1  0  0  0  0
  5 27  1  0  0  0  0
  6 18  1  0  0  0  0
  6  7  1  0  0  0  0
  7  8  1  0  0  0  0
  7 28  1  0  0  0  0
  7 29  1  0  0  0  0
  8  9  2  0  0  0  0
  8 10  1  0  0  0  0
 10 11  1  0  0  0  0
 10 30  1  0  0  0  0
 11 16  1  0  0  0  0
 11 12  1  0  0  0  0
 11 31  1  0  0  0  0
 12 13  1  0  0  0  0
 12 32  1  0  0  0  0
 12 33  1  0  0  0  0
 13 14  1  0  0  0  0
 13 34  1  0  0  0  0
 13 35  1  0  0  0  0
 14 15  1  0  0  0  0
 14 36  1  0  0  0  0
 14 37  1  0  0  0  0
 15 16  1  0  0  0  0
 15 38  1  0  0  0  0
 15 39  1  0  0  0  0
 16 17  1  0  0  0  0
 16 40  1  0  0  0  0
 17 41  1  0  0  0  0
 17 42  1  0  0  0  0
 17 43  1  0  0  0  0
 18 19  2  0  0  0  0
 18 20  1  0  0  0  0
M  END
> <s_m_source_file>
AV-unprocessed.smi

> <i_m_source_file_index>
1295

> <i_lp_mmshare_version>
43012

> <i_f3d_flags>
0

> <s_epik_input>
W0NIM11jMW5jKFtDSDNdKWMoYyg9TylbbkhdMSlbQ0gyXUMoPU8pW05IXVtDQEBIXTJbQ0gyXVtDSDJdW0NIMl1bQ0gyXVtDQEhdMltDSDNd

> <s_epik_cmdline>
J2VwaWtfcHl0aG9uJywgJy1waCcsICc3LjAnLCAnLXRuJywgJzgnLCAnLW1hJywgJzIwMCcsICctbWV0YWxfYmluZGluZycsICctaW1hZScsICc8aW5maWxlLm1hZT4nLCAnLW9tYWUnLCAnPG91dGZpbGUubWFlPic=

> <r_lp_tautomer_probability>
0.156392

> <r_epik_Ionization_Penalty>
0.0136057

> <r_epik_Ionization_Penalty_Charging>
0.0134742

> <r_epik_Ionization_Penalty_Neutral>
0.000131572

> <r_epik_State_Penalty>
1.15342

> <r_epik_Charging_Adjusted_Penalty>
1.16689

> <i_epik_Tot_Q>
0

> <i_epik_Tot_abs_Q>
0

> <r_epik_Metal_State_Penalty>
1.31351

> <b_epik_Metal_Only>
0

> <s_lp_Force_Field>
OPLS_2005

> <r_lp_Energy>
15.3468

> <b_lp_Chiralities_Consistent>
1

> <s_lp_Variant>
AV-unprocessed.smi:1295-6

> <Gold.Version>
5.8.1

> <Gold.Id.Protein>
6NUR|6NUR_protein|mol2

> <Gold.PLP.Fitness>
36.9039

> <Gold.PLP.PLP>
-36.4547

> <Gold.PLP.part.hbond>
-2.7825

> <Gold.PLP.part.metal>
0.0000

> <Gold.PLP.part.buried>
-2.0115

> <Gold.PLP.part.nonpolar>
-31.6870

> <Gold.PLP.part.repulsive>
0.1028

> <Gold.PLP.ligand.clash>
0.0000

> <Gold.PLP.ligand.torsion>
0.5477

> <Gold.PLP.Chemscore.Hbond>
0.5120

> <Gold.PLP.Chemscore.CHOScore>
0.0000

> <Gold.PLP.Chemscore.Metal>
0.0000

> <Gold.Chemscore.Hbonds>
donor molecule, donor type, donor heavy atom, donor atom, acceptor molecule, acceptor atom, score
      L1  H    10    30       P1  8028  0.54

> <Gold.PLP.Chemscore.Internal.Correction>
0.0086

> <Gold.Rescore>
     Score         DG    S(hbond)    S(metal)    S(lipo)     H(rot)  DE(clash)    DE(int)     intcor
     13.24     -14.66       1.23        0.00      75.64       1.48       0.29       1.14       ----

> <Gold.Chemscore.Fitness>
13.2370

> <Gold.Chemscore.DG>
-14.6648

> <Gold.Chemscore.ZeroCoef>
-5.4800

> <Gold.Chemscore.Hbond>
1.2349

> <Gold.Chemscore.Metal>
0.0000

> <Gold.Chemscore.Lipo>
75.6353

> <Gold.Chemscore.Internal_Hbond>
0.0000

> <Gold.Chemscore.DEClash>
0.2858

> <Gold.Chemscore.DEInternal>
1.1421

> <Gold.Chemscore.Rot>
1.4801

> <Gold.Chemscore.Internal.Correction>
   9.000000E+99

> <Gold.Chemscore.Hbonds>
donor molecule, donor type, donor heavy atom, donor atom, acceptor molecule, acceptor atom, score
      L1  H    10    30       P1  8028  0.54

> <Gold.Chemscore.Hbond.Weighted>
-4.1246

> <Gold.Chemscore.Metal.Weighted>
-0.0000

> <Gold.Chemscore.Lipo.Weighted>
-8.8493

> <Gold.Chemscore.Internal_Hbond.Weighted>
0.0000

> <Gold.Chemscore.DEClash.Weighted>
0.2858

> <Gold.Chemscore.DEInternal.Weighted>
1.1421

> <Gold.Chemscore.Rot.Weighted>
3.7891

> <Gold.Chemscore.Internal.Correction.Weighted>
   9.000000E+99

> <Gold.Protein.RotatedTorsions>
[ 6907 6896 6895 6894 ] final    3.98 input  -60.11 | X-H torsion
[ 7974 7965 7964 7962 ] final  172.76 input  175.53 | X-H torsion
[ 8008 7997 7996 7995 ] final  143.08 input   59.86 | X-H torsion
[ 10167 10162 10161 10158 ] final  -43.95 input  -65.29 | X-H torsion
[ 10718 10713 10712 10709 ] final -116.77 input   66.30 | X-H torsion
[ 10763 10752 10751 10750 ] final  175.32 input  -60.55 | X-H torsion
[ 11005 11000 10999 10996 ] final   50.11 input  -57.11 | X-H torsion

> <Gold.Protein.ActiveResidues>
 VAL166  LYS551  ARG553  GLY616  TRP617  ASP618  TYR619  PRO620  LYS621  CYS622 
 ASP623  PHE694  ASN695  SER759  ASP760  ASP761  ALA762  ILE779  LEU786  VAL792 
 PHE793  MET794  SER795  GLU796  ALA797  LYS798  CYS799  TRP800  GLU811  SER814 

> <Gold.Protein.RotatedAtoms>
  151.6338  135.1020  160.0127 H   0  0  0  0  0  0  0  0  0  0  0  0  # atno 6907 bound_to 6896
  152.4092  133.6932  159.6391 H   0  0  0  0  0  0  0  0  0  0  0  0  # atno 6908 bound_to 6896
  150.7983  133.8572  159.3263 H   0  0  0  0  0  0  0  0  0  0  0  0  # atno 6909 bound_to 6896
  144.7260  139.9546  143.6433 H   0  0  0  0  0  0  0  0  0  0  0  0  # atno 7974 bound_to 7965
  156.2937  140.2272  156.4832 H   0  0  0  0  0  0  0  0  0  0  0  0  # atno 8008 bound_to 7997
  154.7834  140.0459  157.1166 H   0  0  0  0  0  0  0  0  0  0  0  0  # atno 8009 bound_to 7997
  154.9731  140.3069  155.4982 H   0  0  0  0  0  0  0  0  0  0  0  0  # atno 8010 bound_to 7997
  140.6915  143.2956  151.3425 H   0  0  0  0  0  0  0  0  0  0  0  0  # atno 10167 bound_to 10162
  156.0986  130.6153  150.9078 H   0  0  0  0  0  0  0  0  0  0  0  0  # atno 10718 bound_to 10713
  154.4660  135.2769  155.1678 H   0  0  0  0  0  0  0  0  0  0  0  0  # atno 10763 bound_to 10752
  154.3446  135.6163  153.5616 H   0  0  0  0  0  0  0  0  0  0  0  0  # atno 10764 bound_to 10752
  152.9859  135.5796  154.5032 H   0  0  0  0  0  0  0  0  0  0  0  0  # atno 10765 bound_to 10752
  140.1046  134.5036  155.8732 H   0  0  0  0  0  0  0  0  0  0  0  0  # atno 11005 bound_to 11000
  146.0684  139.3674  143.0538 LP  0  0  0  0  0  0  0  0  0  0  0  0  # atno 17320 bound_to 7965
  145.8000  140.9775  143.1004 LP  0  0  0  0  0  0  0  0  0  0  0  0  # atno 17321 bound_to 7965
  139.6323  144.0697  152.2486 LP  0  0  0  0  0  0  0  0  0  0  0  0  # atno 17342 bound_to 10162
  140.0176  144.6177  150.7594 LP  0  0  0  0  0  0  0  0  0  0  0  0  # atno 17343 bound_to 10162
  157.6152  131.0933  150.8722 LP  0  0  0  0  0  0  0  0  0  0  0  0  # atno 17370 bound_to 10713
  156.8855  130.5194  149.5288 LP  0  0  0  0  0  0  0  0  0  0  0  0  # atno 17371 bound_to 10713
  141.2115  133.6707  156.6585 LP  0  0  0  0  0  0  0  0  0  0  0  0  # atno 17394 bound_to 11000
  140.3174  134.8036  157.4225 LP  0  0  0  0  0  0  0  0  0  0  0  0  # atno 17395 bound_to 11000

$$$$
