AV-unprocessed.smi:425|AV-procd|sdf|2540|dock2
  -GOLD-   2262022503D 1   1.00000     0.00000
 Structure written by MMmdl.
 27 27  0  0  0  0  0  0  0  0  2 V2000
  149.7263  136.3949  159.2964 O   0  0  0  0  0  0  0  0  0  0  0  0
  148.6631  137.0264  159.4800 C   0  0  0  0  0  0  0  0  0  0  0  0
  148.0244  137.0837  160.5537 O   0  5  0  0  0  0  0  0  0  0  0  0
  148.0853  137.7859  158.2884 C   0  0  0  0  0  0  0  0  0  0  0  0
  149.0327  138.8010  157.8425 N   0  0  0  0  0  0  0  0  0  0  0  0
  150.2283  138.5680  157.2815 C   0  0  0  0  0  0  0  0  0  0  0  0
  150.6875  137.4384  157.1050 O   0  0  0  0  0  0  0  0  0  0  0  0
  151.0251  139.8169  156.8760 C   0  0  0  0  0  0  0  0  0  0  0  0
  151.6795  140.4910  158.0102 N   0  0  0  0  0  0  0  0  0  0  0  0
  151.3995  141.8597  158.1835 C   0  0  0  0  0  0  0  0  0  0  0  0
  151.9329  142.5961  159.1755 C   0  0  0  0  0  0  0  0  0  0  0  0
  151.5618  144.0576  159.3723 C   0  0  0  0  0  0  0  0  0  0  0  0
  151.9978  144.8061  158.3589 F   0  0  0  0  0  0  0  0  0  0  0  0
  150.2374  144.1828  159.4419 F   0  0  0  0  0  0  0  0  0  0  0  0
  152.0831  144.5370  160.5022 F   0  0  0  0  0  0  0  0  0  0  0  0
  152.8042  141.8976  160.0991 C   0  0  0  0  0  0  0  0  0  0  0  0
  153.0762  140.5841  159.9615 C   0  0  0  0  0  0  0  0  0  0  0  0
  154.1235  139.8019  161.0912 Cl  0  0  0  0  0  0  0  0  0  0  0  0
  152.4977  139.8020  158.8612 C   0  0  0  0  0  0  0  0  0  0  0  0
  152.7310  138.6019  158.7102 O   0  0  0  0  0  0  0  0  0  0  0  0
  147.9036  137.0896  157.4692 H   0  0  0  0  0  0  0  0  0  0  0  0
  147.1176  138.2111  158.5603 H   0  0  0  0  0  0  0  0  0  0  0  0
  148.7345  139.7604  157.9411 H   0  0  0  0  0  0  0  0  0  0  0  0
  151.7618  139.5381  156.1201 H   0  0  0  0  0  0  0  0  0  0  0  0
  150.3472  140.5053  156.3694 H   0  0  0  0  0  0  0  0  0  0  0  0
  150.7101  142.2716  157.4606 H   0  0  0  0  0  0  0  0  0  0  0  0
  153.2511  142.4414  160.9185 H   0  0  0  0  0  0  0  0  0  0  0  0
  1  2  2  0  0  0  0
  2  3  1  0  0  0  0
  2  4  1  0  0  0  0
  4  5  1  0  0  0  0
  4 21  1  0  0  0  0
  4 22  1  0  0  0  0
  5  6  1  0  0  0  0
  5 23  1  0  0  0  0
  6  7  2  0  0  0  0
  6  8  1  0  0  0  0
  8  9  1  0  0  0  0
  8 24  1  0  0  0  0
  8 25  1  0  0  0  0
  9 19  1  0  0  0  0
  9 10  1  0  0  0  0
 10 11  2  0  0  0  0
 10 26  1  0  0  0  0
 11 12  1  0  0  0  0
 11 16  1  0  0  0  0
 12 13  1  0  0  0  0
 12 14  1  0  0  0  0
 12 15  1  0  0  0  0
 16 17  2  0  0  0  0
 16 27  1  0  0  0  0
 17 18  1  0  0  0  0
 17 19  1  0  0  0  0
 19 20  2  0  0  0  0
M  CHG  1   3  -1
M  END
> <s_m_source_file>
AV-unprocessed.smi

> <i_m_source_file_index>
425

> <i_lp_mmshare_version>
43012

> <i_f3d_flags>
0

> <s_epik_input>
Tz1DKFtPSF0pW0NIMl1bTkhdQyg9TylbQ0gyXW4xW2NIXWMoQyhGKShGKUYpW2NIXWMoQ2wpYzE9Tw==

> <s_epik_cmdline>
J2VwaWtfcHl0aG9uJywgJy1waCcsICc3LjAnLCAnLXRuJywgJzgnLCAnLW1hJywgJzIwMCcsICctbWV0YWxfYmluZGluZycsICctaW1hZScsICc8aW5maWxlLm1hZT4nLCAnLW9tYWUnLCAnPG91dGZpbGUubWFlPic=

> <r_lp_tautomer_probability>
1

> <r_epik_Ionization_Penalty>
0.000221532

> <r_epik_Ionization_Penalty_Charging>
0.000221514

> <r_epik_Ionization_Penalty_Neutral>
1.82818e-08

> <r_epik_State_Penalty>
-0

> <r_epik_Charging_Adjusted_Penalty>
0.000221514

> <i_epik_Tot_Q>
-1

> <i_epik_Tot_abs_Q>
1

> <r_epik_Metal_State_Penalty>
-0

> <b_epik_Metal_Only>
0

> <s_lp_Force_Field>
OPLS_2005

> <r_lp_Energy>
5.93432

> <b_lp_Chiralities_Consistent>
1

> <s_lp_Variant>
AV-unprocessed.smi:425-1

> <Gold.Version>
5.8.1

> <Gold.Id.Protein>
6NUR|6NUR_protein|mol2

> <Gold.PLP.Fitness>
52.9212

> <Gold.PLP.PLP>
-38.3112

> <Gold.PLP.part.hbond>
-3.0000

> <Gold.PLP.part.metal>
0.0000

> <Gold.PLP.part.buried>
-5.5650

> <Gold.PLP.part.nonpolar>
-30.4965

> <Gold.PLP.part.repulsive>
0.1289

> <Gold.PLP.ligand.clash>
0.0000

> <Gold.PLP.ligand.torsion>
0.3950

> <Gold.PLP.Chemscore.Hbond>
5.1040

> <Gold.PLP.Chemscore.CHOScore>
0.0000

> <Gold.PLP.Chemscore.Metal>
0.0000

> <Gold.Chemscore.Hbonds>
donor molecule, donor type, donor heavy atom, donor atom, acceptor molecule, acceptor atom, score
      P1  H  6896  6909       L1     1  2.00
      P1  H  6931  6943       L1     3  1.56
      P1  H  6934  6947       L1     3  1.12

> <Gold.PLP.Chemscore.Internal.Correction>
0.0880

> <Gold.Rescore>
     Score         DG    S(hbond)    S(metal)    S(lipo)     H(rot)  DE(clash)    DE(int)     intcor
     11.03     -13.12       2.32        0.00      57.29       2.65       0.58       1.51       ----

> <Gold.Chemscore.Fitness>
11.0319

> <Gold.Chemscore.DG>
-13.1188

> <Gold.Chemscore.ZeroCoef>
-5.4800

> <Gold.Chemscore.Hbond>
2.3151

> <Gold.Chemscore.Metal>
0.0000

> <Gold.Chemscore.Lipo>
57.2876

> <Gold.Chemscore.Internal_Hbond>
0.0000

> <Gold.Chemscore.DEClash>
0.5760

> <Gold.Chemscore.DEInternal>
1.5110

> <Gold.Chemscore.Rot>
2.6548

> <Gold.Chemscore.Internal.Correction>
   9.000000E+99

> <Gold.Chemscore.Hbonds>
donor molecule, donor type, donor heavy atom, donor atom, acceptor molecule, acceptor atom, score
      P1  H  6896  6909       L1     1  0.98
      P1  H  6931  6943       L1     3  0.52
      P1  H  6934  6947       L1     3  0.48

> <Gold.Chemscore.Hbond.Weighted>
-7.7325

> <Gold.Chemscore.Metal.Weighted>
-0.0000

> <Gold.Chemscore.Lipo.Weighted>
-6.7027

> <Gold.Chemscore.Internal_Hbond.Weighted>
0.0000

> <Gold.Chemscore.DEClash.Weighted>
0.5760

> <Gold.Chemscore.DEInternal.Weighted>
1.5110

> <Gold.Chemscore.Rot.Weighted>
6.7963

> <Gold.Chemscore.Internal.Correction.Weighted>
   9.000000E+99

> <Gold.Protein.RotatedTorsions>
[ 6907 6896 6895 6894 ] final   60.31 input  -60.11 | X-H torsion
[ 7974 7965 7964 7962 ] final   20.95 input  175.53 | X-H torsion
[ 8008 7997 7996 7995 ] final -117.78 input   59.86 | X-H torsion
[ 10167 10162 10161 10158 ] final  176.95 input  -65.29 | X-H torsion
[ 10718 10713 10712 10709 ] final -153.11 input   66.30 | X-H torsion
[ 10763 10752 10751 10750 ] final  -46.19 input  -60.55 | X-H torsion
[ 11005 11000 10999 10996 ] final  -35.44 input  -57.11 | X-H torsion

> <Gold.Protein.ActiveResidues>
 VAL166  LYS551  ARG553  GLY616  TRP617  ASP618  TYR619  PRO620  LYS621  CYS622 
 ASP623  PHE694  ASN695  SER759  ASP760  ASP761  ALA762  ILE779  LEU786  VAL792 
 PHE793  MET794  SER795  GLU796  ALA797  LYS798  CYS799  TRP800  GLU811  SER814 

> <Gold.Protein.RotatedAtoms>
  152.3992  134.6315  160.0076 H   0  0  0  0  0  0  0  0  0  0  0  0  # atno 6907 bound_to 6896
  151.6526  133.3314  159.3163 H   0  0  0  0  0  0  0  0  0  0  0  0  # atno 6908 bound_to 6896
  150.7894  134.6949  159.6562 H   0  0  0  0  0  0  0  0  0  0  0  0  # atno 6909 bound_to 6896
  146.2091  139.8097  142.8703 H   0  0  0  0  0  0  0  0  0  0  0  0  # atno 7974 bound_to 7965
  155.0892  140.0395  157.2663 H   0  0  0  0  0  0  0  0  0  0  0  0  # atno 8008 bound_to 7997
  154.6845  140.2640  155.6849 H   0  0  0  0  0  0  0  0  0  0  0  0  # atno 8009 bound_to 7997
  156.2707  140.2772  156.1402 H   0  0  0  0  0  0  0  0  0  0  0  0  # atno 8010 bound_to 7997
  139.5234  144.2855  152.0510 H   0  0  0  0  0  0  0  0  0  0  0  0  # atno 10167 bound_to 10162
  156.4814  130.8305  151.2531 H   0  0  0  0  0  0  0  0  0  0  0  0  # atno 10718 bound_to 10713
  154.0410  135.6644  153.4790 H   0  0  0  0  0  0  0  0  0  0  0  0  # atno 10763 bound_to 10752
  153.0502  135.5089  154.7842 H   0  0  0  0  0  0  0  0  0  0  0  0  # atno 10764 bound_to 10752
  154.6818  135.3046  154.9568 H   0  0  0  0  0  0  0  0  0  0  0  0  # atno 10765 bound_to 10752
  140.9796  133.7063  156.1662 H   0  0  0  0  0  0  0  0  0  0  0  0  # atno 11005 bound_to 11000
  145.3209  141.0243  143.3501 LP  0  0  0  0  0  0  0  0  0  0  0  0  # atno 17320 bound_to 7965
  144.8867  139.4829  143.6697 LP  0  0  0  0  0  0  0  0  0  0  0  0  # atno 17321 bound_to 7965
  140.2308  144.4370  150.6301 LP  0  0  0  0  0  0  0  0  0  0  0  0  # atno 17342 bound_to 10162
  140.6356  143.2194  151.6401 LP  0  0  0  0  0  0  0  0  0  0  0  0  # atno 17343 bound_to 10162
  157.7483  131.0043  150.3073 LP  0  0  0  0  0  0  0  0  0  0  0  0  # atno 17370 bound_to 10713
  156.3518  130.3832  149.7323 LP  0  0  0  0  0  0  0  0  0  0  0  0  # atno 17371 bound_to 10713
  140.7206  134.4362  157.5575 LP  0  0  0  0  0  0  0  0  0  0  0  0  # atno 17394 bound_to 11000
  139.8945  134.8706  156.2175 LP  0  0  0  0  0  0  0  0  0  0  0  0  # atno 17395 bound_to 11000

$$$$
