AV-unprocessed.smi:1603|AV-procd|sdf|6446|dock8
  -GOLD-   22720 7 93D 1   1.00000     0.00000
 Structure written by MMmdl.
 44 46  0  0  0  0  0  0  0  0  1 V2000
  152.8992  136.7707  159.9412 O   0  0  0  0  0  0  0  0  0  0  0  0
  153.1290  137.9759  160.0498 C   0  0  0  0  0  0  0  0  0  0  0  0
  153.9745  138.5495  161.1078 C   0  0  0  0  0  0  0  0  0  0  0  0
  154.6094  137.5935  162.1141 C   0  0  0  0  0  0  0  0  0  0  0  0
  155.4849  138.2176  162.9038 F   0  0  0  0  0  0  0  0  0  0  0  0
  153.6753  137.0460  162.8927 F   0  0  0  0  0  0  0  0  0  0  0  0
  155.2560  136.6115  161.4849 F   0  0  0  0  0  0  0  0  0  0  0  0
  154.1731  139.8890  161.1669 C   0  0  0  0  0  0  0  0  0  0  0  0
  153.5563  140.7641  160.1905 C   0  0  0  0  0  0  0  0  0  0  0  0
  153.7267  142.2561  160.2044 C   0  0  0  0  0  0  0  0  0  0  0  0
  152.5740  143.1930  160.4859 C   0  0  0  0  0  0  0  0  0  0  0  0
  153.1759  143.1293  159.1013 C   0  0  0  0  0  0  0  0  0  0  0  0
  152.8218  140.2577  159.2582 N   0  0  0  0  0  0  0  0  0  0  0  0
  152.6060  138.8959  159.1859 N   0  0  0  0  0  0  0  0  0  0  0  0
  151.7282  138.4925  158.0799 C   0  0  0  0  0  0  0  0  0  0  0  0
  152.1566  139.1260  156.7363 C   0  0  1  0  0  0  0  0  0  0  0  0
  153.5028  138.7569  156.5030 O   0  0  0  0  0  0  0  0  0  0  0  0
  151.3092  138.6026  155.5549 C   0  0  0  0  0  0  0  0  0  0  0  0
  150.0371  139.2949  155.3432 N   0  0  0  0  0  0  0  0  0  0  0  0
  150.1908  140.7453  155.2511 C   0  0  0  0  0  0  0  0  0  0  0  0
  148.8471  141.4520  154.9996 C   0  0  0  0  0  0  0  0  0  0  0  0
  148.2407  140.9270  153.8229 O   0  0  0  0  0  0  0  0  0  0  0  0
  148.0289  139.5211  153.8964 C   0  0  0  0  0  0  0  0  0  0  0  0
  149.3723  138.8114  154.1375 C   0  0  0  0  0  0  0  0  0  0  0  0
  154.7914  140.3290  161.9351 H   0  0  0  0  0  0  0  0  0  0  0  0
  154.6961  142.5297  160.6166 H   0  0  0  0  0  0  0  0  0  0  0  0
  151.5809  142.7664  160.6152 H   0  0  0  0  0  0  0  0  0  0  0  0
  152.7815  144.0778  161.0842 H   0  0  0  0  0  0  0  0  0  0  0  0
  153.7839  143.9719  158.7779 H   0  0  0  0  0  0  0  0  0  0  0  0
  152.5850  142.6539  158.3204 H   0  0  0  0  0  0  0  0  0  0  0  0
  151.6840  137.4047  157.9930 H   0  0  0  0  0  0  0  0  0  0  0  0
  150.7080  138.7922  158.3262 H   0  0  0  0  0  0  0  0  0  0  0  0
  152.0769  140.2128  156.7907 H   0  0  0  0  0  0  0  0  0  0  0  0
  153.6504  137.9033  156.8806 H   0  0  0  0  0  0  0  0  0  0  0  0
  151.8969  138.5901  154.6353 H   0  0  0  0  0  0  0  0  0  0  0  0
  151.0750  137.5568  155.7571 H   0  0  0  0  0  0  0  0  0  0  0  0
  150.6220  141.1380  156.1716 H   0  0  0  0  0  0  0  0  0  0  0  0
  150.8861  140.9935  154.4476 H   0  0  0  0  0  0  0  0  0  0  0  0
  148.1774  141.3215  155.8511 H   0  0  0  0  0  0  0  0  0  0  0  0
  149.0003  142.5239  154.8738 H   0  0  0  0  0  0  0  0  0  0  0  0
  147.3219  139.2933  154.6956 H   0  0  0  0  0  0  0  0  0  0  0  0
  147.5805  139.1787  152.9636 H   0  0  0  0  0  0  0  0  0  0  0  0
  150.0197  138.9628  153.2722 H   0  0  0  0  0  0  0  0  0  0  0  0
  149.2007  137.7369  154.2141 H   0  0  0  0  0  0  0  0  0  0  0  0
  1  2  2  0  0  0  0
  2 14  1  0  0  0  0
  2  3  1  0  0  0  0
  3  4  1  0  0  0  0
  3  8  2  0  0  0  0
  4  5  1  0  0  0  0
  4  6  1  0  0  0  0
  4  7  1  0  0  0  0
  8  9  1  0  0  0  0
  8 25  1  0  0  0  0
  9 10  1  0  0  0  0
  9 13  2  0  0  0  0
 10 12  1  0  0  0  0
 10 11  1  0  0  0  0
 10 26  1  0  0  0  0
 11 12  1  0  0  0  0
 11 27  1  0  0  0  0
 11 28  1  0  0  0  0
 12 29  1  0  0  0  0
 12 30  1  0  0  0  0
 13 14  1  0  0  0  0
 14 15  1  0  0  0  0
 15 16  1  0  0  0  0
 15 31  1  0  0  0  0
 15 32  1  0  0  0  0
 16 17  1  0  0  0  0
 16 18  1  0  0  0  0
 16 33  1  0  0  0  0
 17 34  1  0  0  0  0
 18 19  1  0  0  0  0
 18 35  1  0  0  0  0
 18 36  1  0  0  0  0
 19 24  1  0  0  0  0
 19 20  1  0  0  0  0
 20 21  1  0  0  0  0
 20 37  1  0  0  0  0
 20 38  1  0  0  0  0
 21 22  1  0  0  0  0
 21 39  1  0  0  0  0
 21 40  1  0  0  0  0
 22 23  1  0  0  0  0
 23 24  1  0  0  0  0
 23 41  1  0  0  0  0
 23 42  1  0  0  0  0
 24 43  1  0  0  0  0
 24 44  1  0  0  0  0
M  END
> <s_m_source_file>
AV-unprocessed.smi

> <i_m_source_file_index>
1603

> <i_lp_mmshare_version>
43012

> <i_f3d_flags>
0

> <s_epik_input>
Tz1jMWMoQyhGKShGKUYpW2NIXWMoW0NIXTJbQ0gyXVtDSDJdMilubjFbQ0gyXVtDQEhdKFtPSF0pW0NIMl1OM1tDSDJdW0NIMl1PW0NIMl1bQ0gyXTM=

> <s_epik_cmdline>
J2VwaWtfcHl0aG9uJywgJy1waCcsICc3LjAnLCAnLXRuJywgJzgnLCAnLW1hJywgJzIwMCcsICctbWV0YWxfYmluZGluZycsICctaW1hZScsICc8aW5maWxlLm1hZT4nLCAnLW9tYWUnLCAnPG91dGZpbGUubWFlPic=

> <r_lp_tautomer_probability>
1

> <r_epik_Ionization_Penalty>
0.450313

> <r_epik_Ionization_Penalty_Charging>
7.22079e-10

> <r_epik_Ionization_Penalty_Neutral>
0.450313

> <r_epik_State_Penalty>
0.45306

> <r_epik_Charging_Adjusted_Penalty>
0.45306

> <i_epik_Tot_Q>
0

> <i_epik_Tot_abs_Q>
0

> <r_epik_Metal_State_Penalty>
0.45306

> <b_epik_Metal_Only>
0

> <s_lp_Force_Field>
OPLS_2005

> <r_lp_Energy>
51.835

> <b_lp_Chiralities_Consistent>
1

> <s_lp_Variant>
AV-unprocessed.smi:1603-4

> <Gold.Version>
5.8.1

> <Gold.Id.Protein>
6NUR|6NUR_protein|mol2

> <Gold.PLP.Fitness>
48.4995

> <Gold.PLP.PLP>
-43.6377

> <Gold.PLP.part.hbond>
-1.6744

> <Gold.PLP.part.metal>
0.0000

> <Gold.PLP.part.buried>
-4.5461

> <Gold.PLP.part.nonpolar>
-37.7531

> <Gold.PLP.part.repulsive>
0.2871

> <Gold.PLP.ligand.clash>
0.2067

> <Gold.PLP.ligand.torsion>
0.6631

> <Gold.PLP.Chemscore.Hbond>
1.9280

> <Gold.PLP.Chemscore.CHOScore>
0.0000

> <Gold.PLP.Chemscore.Metal>
0.0000

> <Gold.Chemscore.Hbonds>
donor molecule, donor type, donor heavy atom, donor atom, acceptor molecule, acceptor atom, score
      P1  H  6896  6907       L1     1  1.00
      P1  H  7997  8010       L1    17  0.93

> <Gold.PLP.Chemscore.Internal.Correction>
0.6106

> <Gold.Rescore>
     Score         DG    S(hbond)    S(metal)    S(lipo)     H(rot)  DE(clash)    DE(int)     intcor
     15.43     -17.72       1.90        0.00     103.56       2.43       0.01       2.29       ----

> <Gold.Chemscore.Fitness>
15.4271

> <Gold.Chemscore.DG>
-17.7228

> <Gold.Chemscore.ZeroCoef>
-5.4800

> <Gold.Chemscore.Hbond>
1.8982

> <Gold.Chemscore.Metal>
0.0000

> <Gold.Chemscore.Lipo>
103.5578

> <Gold.Chemscore.Internal_Hbond>
0.0000

> <Gold.Chemscore.DEClash>
0.0089

> <Gold.Chemscore.DEInternal>
2.2868

> <Gold.Chemscore.Rot>
2.4272

> <Gold.Chemscore.Internal.Correction>
   9.000000E+99

> <Gold.Chemscore.Hbonds>
donor molecule, donor type, donor heavy atom, donor atom, acceptor molecule, acceptor atom, score
      P1  H  6896  6907       L1     1  1.00
      P1  H  7997  8010       L1    17  0.57

> <Gold.Chemscore.Hbond.Weighted>
-6.3400

> <Gold.Chemscore.Metal.Weighted>
-0.0000

> <Gold.Chemscore.Lipo.Weighted>
-12.1163

> <Gold.Chemscore.Internal_Hbond.Weighted>
0.0000

> <Gold.Chemscore.DEClash.Weighted>
0.0089

> <Gold.Chemscore.DEInternal.Weighted>
2.2868

> <Gold.Chemscore.Rot.Weighted>
6.2135

> <Gold.Chemscore.Internal.Correction.Weighted>
   9.000000E+99

> <Gold.Protein.RotatedTorsions>
[ 6907 6896 6895 6894 ] final   23.44 input  -60.11 | X-H torsion
[ 7974 7965 7964 7962 ] final   -7.05 input  175.53 | X-H torsion
[ 8008 7997 7996 7995 ] final   72.60 input   59.86 | X-H torsion
[ 10167 10162 10161 10158 ] final   88.36 input  -65.29 | X-H torsion
[ 10718 10713 10712 10709 ] final   71.84 input   66.30 | X-H torsion
[ 10763 10752 10751 10750 ] final  -34.67 input  -60.55 | X-H torsion
[ 11005 11000 10999 10996 ] final   33.93 input  -57.11 | X-H torsion

> <Gold.Protein.ActiveResidues>
 VAL166  LYS551  ARG553  GLY616  TRP617  ASP618  TYR619  PRO620  LYS621  CYS622 
 ASP623  PHE694  ASN695  SER759  ASP760  ASP761  ALA762  ILE779  LEU786  VAL792 
 PHE793  MET794  SER795  GLU796  ALA797  LYS798  CYS799  TRP800  GLU811  SER814 

> <Gold.Protein.RotatedAtoms>
  151.9425  135.0207  160.0536 H   0  0  0  0  0  0  0  0  0  0  0  0  # atno 6907 bound_to 6896
  152.2024  133.4846  159.5074 H   0  0  0  0  0  0  0  0  0  0  0  0  # atno 6908 bound_to 6896
  150.6957  134.1490  159.4176 H   0  0  0  0  0  0  0  0  0  0  0  0  # atno 6909 bound_to 6896
  146.2316  140.2261  142.8339 H   0  0  0  0  0  0  0  0  0  0  0  0  # atno 7974 bound_to 7965
  155.7712  140.3484  155.5248 H   0  0  0  0  0  0  0  0  0  0  0  0  # atno 8008 bound_to 7997
  155.8820  140.1003  157.1500 H   0  0  0  0  0  0  0  0  0  0  0  0  # atno 8009 bound_to 7997
  154.4025  140.1320  156.4195 H   0  0  0  0  0  0  0  0  0  0  0  0  # atno 8010 bound_to 7997
  139.8680  144.6508  150.8982 H   0  0  0  0  0  0  0  0  0  0  0  0  # atno 10167 bound_to 10162
  157.6472  130.9548  150.0845 H   0  0  0  0  0  0  0  0  0  0  0  0  # atno 10718 bound_to 10713
  153.8506  135.6849  153.4793 H   0  0  0  0  0  0  0  0  0  0  0  0  # atno 10763 bound_to 10752
  153.1399  135.4661  154.9478 H   0  0  0  0  0  0  0  0  0  0  0  0  # atno 10764 bound_to 10752
  154.7804  135.3267  154.7950 H   0  0  0  0  0  0  0  0  0  0  0  0  # atno 10765 bound_to 10752
  140.2580  134.3225  155.7867 H   0  0  0  0  0  0  0  0  0  0  0  0  # atno 11005 bound_to 11000
  144.9594  140.8259  143.5523 LP  0  0  0  0  0  0  0  0  0  0  0  0  # atno 17320 bound_to 7965
  145.2230  139.2150  143.5083 LP  0  0  0  0  0  0  0  0  0  0  0  0  # atno 17321 bound_to 7965
  140.7765  143.3687  151.1689 LP  0  0  0  0  0  0  0  0  0  0  0  0  # atno 17342 bound_to 10162
  139.7310  143.9072  152.3019 LP  0  0  0  0  0  0  0  0  0  0  0  0  # atno 17343 bound_to 10162
  156.1812  130.3650  149.9033 LP  0  0  0  0  0  0  0  0  0  0  0  0  # atno 17370 bound_to 10713
  156.6985  130.8923  151.3596 LP  0  0  0  0  0  0  0  0  0  0  0  0  # atno 17371 bound_to 10713
  141.2194  133.7393  156.9142 LP  0  0  0  0  0  0  0  0  0  0  0  0  # atno 17394 bound_to 11000
  140.1492  134.9241  157.2570 LP  0  0  0  0  0  0  0  0  0  0  0  0  # atno 17395 bound_to 11000

$$$$
