AV-unprocessed.smi:1194|AV-procd|sdf|4991|dock6
  -GOLD-   22720 3593D 1   1.00000     0.00000
 Structure written by MMmdl.
 47 48  0  0  0  0  0  0  0  0  1 V2000
  146.3531  142.4759  154.4457 C   0  0  0  0  0  0  0  0  0  0  0  0
  147.6212  141.8665  153.8378 C   0  0  0  0  0  0  0  0  0  0  0  0
  148.6719  141.5087  154.9069 C   0  0  0  0  0  0  0  0  0  0  0  0
  148.3730  140.2049  155.6705 C   0  0  0  0  0  0  0  0  0  0  0  0
  147.2186  139.9973  156.0482 O   0  0  0  0  0  0  0  0  0  0  0  0
  149.3786  139.3172  155.8923 N   0  0  0  0  0  0  0  0  0  0  0  0
  149.1919  138.0005  156.5374 C   0  0  0  0  0  0  0  0  0  0  0  0
  149.4619  136.8815  155.5166 C   0  0  0  0  0  0  0  0  0  0  0  0
  150.8561  137.0323  154.8854 C   0  0  0  0  0  0  0  0  0  0  0  0
  151.0451  138.4499  154.3168 C   0  0  0  0  0  0  0  0  0  0  0  0
  150.7481  139.5456  155.3705 C   0  0  2  0  0  0  0  0  0  0  0  0
  151.8236  139.6831  156.4703 C   0  0  0  0  0  0  0  0  0  0  0  0
  152.9639  139.2588  156.2817 O   0  0  0  0  0  0  0  0  0  0  0  0
  151.4577  140.2849  157.6130 N   0  0  0  0  0  0  0  0  0  0  0  0
  152.3358  140.4966  158.7537 C   0  0  0  0  0  0  0  0  0  0  0  0
  152.7509  141.9704  158.8451 C   0  0  0  0  0  0  0  0  0  0  0  0
  152.9700  142.4124  160.2782 C   0  0  0  0  0  0  0  0  0  0  0  0
  152.2850  143.5273  160.8032 C   0  0  0  0  0  0  0  0  0  0  0  0
  152.5259  143.9042  162.1383 C   0  0  0  0  0  0  0  0  0  0  0  0
  153.4444  143.1477  162.8932 C   0  0  0  0  0  0  0  0  0  0  0  0
  154.1067  142.0787  162.4006 N   0  0  0  0  0  0  0  0  0  0  0  0
  153.8701  141.7241  161.1193 C   0  0  0  0  0  0  0  0  0  0  0  0
  145.6254  142.7121  153.6691 H   0  0  0  0  0  0  0  0  0  0  0  0
  146.5777  143.3980  154.9824 H   0  0  0  0  0  0  0  0  0  0  0  0
  145.8805  141.7863  155.1456 H   0  0  0  0  0  0  0  0  0  0  0  0
  147.3490  140.9749  153.2712 H   0  0  0  0  0  0  0  0  0  0  0  0
  148.0441  142.5730  153.1220 H   0  0  0  0  0  0  0  0  0  0  0  0
  149.6456  141.4154  154.4243 H   0  0  0  0  0  0  0  0  0  0  0  0
  148.7385  142.3276  155.6245 H   0  0  0  0  0  0  0  0  0  0  0  0
  149.8817  137.9015  157.3755 H   0  0  0  0  0  0  0  0  0  0  0  0
  148.2070  137.8499  156.9740 H   0  0  0  0  0  0  0  0  0  0  0  0
  149.3737  135.9064  155.9964 H   0  0  0  0  0  0  0  0  0  0  0  0
  148.7019  136.9121  154.7347 H   0  0  0  0  0  0  0  0  0  0  0  0
  151.6212  136.8291  155.6356 H   0  0  0  0  0  0  0  0  0  0  0  0
  150.9934  136.2913  154.0976 H   0  0  0  0  0  0  0  0  0  0  0  0
  152.0528  138.5590  153.9140 H   0  0  0  0  0  0  0  0  0  0  0  0
  150.3731  138.5835  153.4679 H   0  0  0  0  0  0  0  0  0  0  0  0
  150.8121  140.4931  154.8346 H   0  0  0  0  0  0  0  0  0  0  0  0
  150.5072  140.6162  157.6947 H   0  0  0  0  0  0  0  0  0  0  0  0
  151.8193  140.1931  159.6656 H   0  0  0  0  0  0  0  0  0  0  0  0
  153.2198  139.8643  158.6549 H   0  0  0  0  0  0  0  0  0  0  0  0
  153.6693  142.1363  158.2800 H   0  0  0  0  0  0  0  0  0  0  0  0
  151.9894  142.6043  158.3889 H   0  0  0  0  0  0  0  0  0  0  0  0
  151.5892  144.0856  160.1942 H   0  0  0  0  0  0  0  0  0  0  0  0
  152.0197  144.7531  162.5734 H   0  0  0  0  0  0  0  0  0  0  0  0
  153.6529  143.4089  163.9201 H   0  0  0  0  0  0  0  0  0  0  0  0
  154.4170  140.8670  160.7547 H   0  0  0  0  0  0  0  0  0  0  0  0
  1  2  1  0  0  0  0
  1 23  1  0  0  0  0
  1 24  1  0  0  0  0
  1 25  1  0  0  0  0
  2  3  1  0  0  0  0
  2 26  1  0  0  0  0
  2 27  1  0  0  0  0
  3  4  1  0  0  0  0
  3 28  1  0  0  0  0
  3 29  1  0  0  0  0
  4  5  2  0  0  0  0
  4  6  1  0  0  0  0
  6 11  1  0  0  0  0
  6  7  1  0  0  0  0
  7  8  1  0  0  0  0
  7 30  1  0  0  0  0
  7 31  1  0  0  0  0
  8  9  1  0  0  0  0
  8 32  1  0  0  0  0
  8 33  1  0  0  0  0
  9 10  1  0  0  0  0
  9 34  1  0  0  0  0
  9 35  1  0  0  0  0
 10 11  1  0  0  0  0
 10 36  1  0  0  0  0
 10 37  1  0  0  0  0
 11 12  1  0  0  0  0
 11 38  1  0  0  0  0
 12 13  2  0  0  0  0
 12 14  1  0  0  0  0
 14 15  1  0  0  0  0
 14 39  1  0  0  0  0
 15 16  1  0  0  0  0
 15 40  1  0  0  0  0
 15 41  1  0  0  0  0
 16 17  1  0  0  0  0
 16 42  1  0  0  0  0
 16 43  1  0  0  0  0
 17 22  1  0  0  0  0
 17 18  2  0  0  0  0
 18 19  1  0  0  0  0
 18 44  1  0  0  0  0
 19 20  2  0  0  0  0
 19 45  1  0  0  0  0
 20 21  1  0  0  0  0
 20 46  1  0  0  0  0
 21 22  2  0  0  0  0
 22 47  1  0  0  0  0
M  END
> <s_m_source_file>
AV-unprocessed.smi

> <i_m_source_file_index>
1194

> <i_lp_mmshare_version>
43012

> <i_f3d_flags>
0

> <s_epik_input>
W0NIM11bQ0gyXVtDSDJdQyg9TylOMVtDSDJdW0NIMl1bQ0gyXVtDSDJdW0NASF0xQyg9TylbTkhdW0NIMl1bQ0gyXWMyW2NIXVtjSF1bY0hdbltjSF0y

> <s_epik_cmdline>
J2VwaWtfcHl0aG9uJywgJy1waCcsICc3LjAnLCAnLXRuJywgJzgnLCAnLW1hJywgJzIwMCcsICctbWV0YWxfYmluZGluZycsICctaW1hZScsICc8aW5maWxlLm1hZT4nLCAnLW9tYWUnLCAnPG91dGZpbGUubWFlPic=

> <r_epik_Ionization_Penalty>
0.0130932

> <r_epik_Ionization_Penalty_Charging>
0

> <r_epik_Ionization_Penalty_Neutral>
0.0130932

> <r_epik_State_Penalty>
0.0101714

> <r_epik_Charging_Adjusted_Penalty>
0.0101714

> <i_epik_Tot_Q>
0

> <i_epik_Tot_abs_Q>
0

> <r_epik_Metal_State_Penalty>
0.00995056

> <b_epik_Metal_Only>
0

> <s_lp_Force_Field>
OPLS_2005

> <r_lp_Energy>
25.0478

> <b_lp_Chiralities_Consistent>
1

> <s_lp_Variant>
AV-unprocessed.smi:1194-2

> <Gold.Version>
5.8.1

> <Gold.Id.Protein>
6NUR|6NUR_protein|mol2

> <Gold.PLP.Fitness>
47.5894

> <Gold.PLP.PLP>
-46.9959

> <Gold.PLP.part.hbond>
-2.0000

> <Gold.PLP.part.metal>
0.0000

> <Gold.PLP.part.buried>
-6.6627

> <Gold.PLP.part.nonpolar>
-38.3267

> <Gold.PLP.part.repulsive>
0.0694

> <Gold.PLP.ligand.clash>
0.0000

> <Gold.PLP.ligand.torsion>
1.2481

> <Gold.PLP.Chemscore.Hbond>
1.0000

> <Gold.PLP.Chemscore.CHOScore>
0.0000

> <Gold.PLP.Chemscore.Metal>
0.0000

> <Gold.Chemscore.Hbonds>
donor molecule, donor type, donor heavy atom, donor atom, acceptor molecule, acceptor atom, score
      P1  H  7997  8010       L1    13  1.00

> <Gold.PLP.Chemscore.Internal.Correction>
0.0897

> <Gold.Rescore>
     Score         DG    S(hbond)    S(metal)    S(lipo)     H(rot)  DE(clash)    DE(int)     intcor
     17.49     -18.68       0.97        0.00     121.95       1.68       0.01       1.18       ----

> <Gold.Chemscore.Fitness>
17.4879

> <Gold.Chemscore.DG>
-18.6836

> <Gold.Chemscore.ZeroCoef>
-5.4800

> <Gold.Chemscore.Hbond>
0.9708

> <Gold.Chemscore.Metal>
0.0000

> <Gold.Chemscore.Lipo>
121.9492

> <Gold.Chemscore.Internal_Hbond>
0.0000

> <Gold.Chemscore.DEClash>
0.0124

> <Gold.Chemscore.DEInternal>
1.1833

> <Gold.Chemscore.Rot>
1.6823

> <Gold.Chemscore.Internal.Correction>
   9.000000E+99

> <Gold.Chemscore.Hbonds>
donor molecule, donor type, donor heavy atom, donor atom, acceptor molecule, acceptor atom, score
      P1  H  7997  8010       L1    13  0.99

> <Gold.Chemscore.Hbond.Weighted>
-3.2423

> <Gold.Chemscore.Metal.Weighted>
-0.0000

> <Gold.Chemscore.Lipo.Weighted>
-14.2681

> <Gold.Chemscore.Internal_Hbond.Weighted>
0.0000

> <Gold.Chemscore.DEClash.Weighted>
0.0124

> <Gold.Chemscore.DEInternal.Weighted>
1.1833

> <Gold.Chemscore.Rot.Weighted>
4.3068

> <Gold.Chemscore.Internal.Correction.Weighted>
   9.000000E+99

> <Gold.Protein.RotatedTorsions>
[ 6907 6896 6895 6894 ] final   67.02 input  -60.11 | X-H torsion
[ 7974 7965 7964 7962 ] final  -66.79 input  175.53 | X-H torsion
[ 8008 7997 7996 7995 ] final   61.71 input   59.86 | X-H torsion
[ 10167 10162 10161 10158 ] final   43.85 input  -65.29 | X-H torsion
[ 10718 10713 10712 10709 ] final  -43.13 input   66.30 | X-H torsion
[ 10763 10752 10751 10750 ] final   50.49 input  -60.55 | X-H torsion
[ 11005 11000 10999 10996 ] final  -14.55 input  -57.11 | X-H torsion

> <Gold.Protein.ActiveResidues>
 VAL166  LYS551  ARG553  GLY616  TRP617  ASP618  TYR619  PRO620  LYS621  CYS622 
 ASP623  PHE694  ASN695  SER759  ASP760  ASP761  ALA762  ILE779  LEU786  VAL792 
 PHE793  MET794  SER795  GLU796  ALA797  LYS798  CYS799  TRP800  GLU811  SER814 

> <Gold.Protein.RotatedAtoms>
  152.4523  134.5367  159.9826 H   0  0  0  0  0  0  0  0  0  0  0  0  # atno 6907 bound_to 6896
  151.5437  133.3423  159.2948 H   0  0  0  0  0  0  0  0  0  0  0  0  # atno 6908 bound_to 6896
  150.8456  134.7794  159.7030 H   0  0  0  0  0  0  0  0  0  0  0  0  # atno 6909 bound_to 6896
  145.7373  140.8970  143.0548 H   0  0  0  0  0  0  0  0  0  0  0  0  # atno 7974 bound_to 7965
  155.6027  140.3494  155.4598 H   0  0  0  0  0  0  0  0  0  0  0  0  # atno 8008 bound_to 7997
  156.0216  140.1255  157.0376 H   0  0  0  0  0  0  0  0  0  0  0  0  # atno 8009 bound_to 7997
  154.4317  140.1061  156.5958 H   0  0  0  0  0  0  0  0  0  0  0  0  # atno 8010 bound_to 7997
  140.3402  144.2480  150.6156 H   0  0  0  0  0  0  0  0  0  0  0  0  # atno 10167 bound_to 10162
  156.2523  130.4189  149.8636 H   0  0  0  0  0  0  0  0  0  0  0  0  # atno 10718 bound_to 10713
  152.9784  135.5877  154.4261 H   0  0  0  0  0  0  0  0  0  0  0  0  # atno 10763 bound_to 10752
  154.3879  135.2767  155.2174 H   0  0  0  0  0  0  0  0  0  0  0  0  # atno 10764 bound_to 10752
  154.4059  135.6093  153.5978 H   0  0  0  0  0  0  0  0  0  0  0  0  # atno 10765 bound_to 10752
  140.7875  133.8314  155.9349 H   0  0  0  0  0  0  0  0  0  0  0  0  # atno 11005 bound_to 11000
  144.6879  139.9413  143.7475 LP  0  0  0  0  0  0  0  0  0  0  0  0  # atno 17320 bound_to 7965
  146.0481  139.3485  143.0656 LP  0  0  0  0  0  0  0  0  0  0  0  0  # atno 17321 bound_to 7965
  140.5316  143.2242  151.8229 LP  0  0  0  0  0  0  0  0  0  0  0  0  # atno 17342 bound_to 10162
  139.4842  144.4713  151.9421 LP  0  0  0  0  0  0  0  0  0  0  0  0  # atno 17343 bound_to 10162
  156.6180  130.8614  151.3469 LP  0  0  0  0  0  0  0  0  0  0  0  0  # atno 17370 bound_to 10713
  157.7219  130.9570  150.1473 LP  0  0  0  0  0  0  0  0  0  0  0  0  # atno 17371 bound_to 10713
  140.9422  134.1886  157.4789 LP  0  0  0  0  0  0  0  0  0  0  0  0  # atno 17394 bound_to 11000
  139.8735  134.9876  156.5376 LP  0  0  0  0  0  0  0  0  0  0  0  0  # atno 17395 bound_to 11000

$$$$
