AV-unprocessed.smi:2189|AV-procd|sdf|8885|dock2
  -GOLD-   2272012 83D 1   1.00000     0.00000
 Structure written by MMmdl.
 40 42  0  0  0  0  0  0  0  0  2 V2000
  151.1916  140.8295  156.6942 O   0  0  0  0  0  0  0  0  0  0  0  0
  150.3393  141.6892  156.4626 C   0  0  0  0  0  0  0  0  0  0  0  0
  150.4756  142.9484  156.9223 N   0  0  0  0  0  0  0  0  0  0  0  0
  151.5939  143.4577  157.7130 C   0  0  0  0  0  0  0  0  0  0  0  0
  151.1456  144.0469  159.0650 C   0  0  0  0  0  0  0  0  0  0  0  0
  151.9210  143.5106  160.2554 C   0  0  0  0  0  0  0  0  0  0  0  0
  152.7711  142.3873  160.1568 C   0  0  0  0  0  0  0  0  0  0  0  0
  153.4793  141.9575  161.2982 C   0  0  0  0  0  0  0  0  0  0  0  0
  153.3211  142.6566  162.5128 C   0  0  0  0  0  0  0  0  0  0  0  0
  152.4573  143.7697  162.5554 C   0  0  0  0  0  0  0  0  0  0  0  0
  151.7956  144.1503  161.4407 N   0  3  0  0  0  0  0  0  0  0  0  0
  149.1009  141.4683  155.6923 C   0  0  0  0  0  0  0  0  0  0  0  0
  149.1848  140.9547  154.4358 C   0  0  0  0  0  0  0  0  0  0  0  0
  148.0104  140.6977  153.6397 C   0  0  0  0  0  0  0  0  0  0  0  0
  146.8188  141.0178  154.1550 C   0  0  0  0  0  0  0  0  0  0  0  0
  146.6616  141.5867  155.4173 N   0  0  0  0  0  0  0  0  0  0  0  0
  145.3121  141.9909  155.7969 C   0  0  0  0  0  0  0  0  0  0  0  0
  145.0468  141.6475  157.2513 C   0  0  0  0  0  0  0  0  0  0  0  0
  146.2275  142.6480  158.2250 S   0  0  0  0  0  0  0  0  0  0  0  0
  145.9651  144.0679  157.9428 O   0  0  0  0  0  0  0  0  0  0  0  0
  146.1954  142.1700  159.6154 O   0  0  0  0  0  0  0  0  0  0  0  0
  147.6723  142.2033  157.5041 N   0  0  0  0  0  0  0  0  0  0  0  0
  147.7808  141.7906  156.2729 C   0  0  0  0  0  0  0  0  0  0  0  0
  149.7473  143.6095  156.6935 H   0  0  0  0  0  0  0  0  0  0  0  0
  152.3429  142.6791  157.8669 H   0  0  0  0  0  0  0  0  0  0  0  0
  152.0851  144.2353  157.1277 H   0  0  0  0  0  0  0  0  0  0  0  0
  151.2509  145.1322  159.0424 H   0  0  0  0  0  0  0  0  0  0  0  0
  150.0831  143.8509  159.2154 H   0  0  0  0  0  0  0  0  0  0  0  0
  152.8880  141.8666  159.2176 H   0  0  0  0  0  0  0  0  0  0  0  0
  154.1382  141.1035  161.2423 H   0  0  0  0  0  0  0  0  0  0  0  0
  153.8562  142.3448  163.3978 H   0  0  0  0  0  0  0  0  0  0  0  0
  152.2794  144.3648  163.4393 H   0  0  0  0  0  0  0  0  0  0  0  0
  150.1391  140.7270  153.9830 H   0  0  0  0  0  0  0  0  0  0  0  0
  148.0902  140.2562  152.6572 H   0  0  0  0  0  0  0  0  0  0  0  0
  145.9030  140.8480  153.6074 H   0  0  0  0  0  0  0  0  0  0  0  0
  145.1934  143.0606  155.6207 H   0  0  0  0  0  0  0  0  0  0  0  0
  144.5694  141.4885  155.1764 H   0  0  0  0  0  0  0  0  0  0  0  0
  144.0329  141.9112  157.5513 H   0  0  0  0  0  0  0  0  0  0  0  0
  145.2071  140.5893  157.4604 H   0  0  0  0  0  0  0  0  0  0  0  0
  151.1811  144.9632  161.4933 H   0  0  0  0  0  0  0  0  0  0  0  0
  1  2  2  0  0  0  0
  2  3  1  0  0  0  0
  2 12  1  0  0  0  0
  3  4  1  0  0  0  0
  3 24  1  0  0  0  0
  4  5  1  0  0  0  0
  4 25  1  0  0  0  0
  4 26  1  0  0  0  0
  5  6  1  0  0  0  0
  5 27  1  0  0  0  0
  5 28  1  0  0  0  0
  6 11  1  0  0  0  0
  6  7  2  0  0  0  0
  7  8  1  0  0  0  0
  7 29  1  0  0  0  0
  8  9  2  0  0  0  0
  8 30  1  0  0  0  0
  9 10  1  0  0  0  0
  9 31  1  0  0  0  0
 10 11  2  0  0  0  0
 10 32  1  0  0  0  0
 11 40  1  0  0  0  0
 12 23  1  0  0  0  0
 12 13  2  0  0  0  0
 13 14  1  0  0  0  0
 13 33  1  0  0  0  0
 14 15  2  0  0  0  0
 14 34  1  0  0  0  0
 15 16  1  0  0  0  0
 15 35  1  0  0  0  0
 16 23  1  0  0  0  0
 16 17  1  0  0  0  0
 17 18  1  0  0  0  0
 17 36  1  0  0  0  0
 17 37  1  0  0  0  0
 18 19  1  0  0  0  0
 18 38  1  0  0  0  0
 18 39  1  0  0  0  0
 19 20  2  0  0  0  0
 19 21  2  0  0  0  0
 19 22  1  0  0  0  0
 22 23  2  0  0  0  0
M  CHG  1  11   1
M  END
> <s_m_source_file>
AV-unprocessed.smi

> <i_m_source_file_index>
2189

> <i_lp_mmshare_version>
43012

> <i_f3d_flags>
0

> <s_epik_input>
W0NIMl0xW0NIMl1TKD1PKSg9TylOPUMoTjEyKUMoPVtDSF1bQ0hdPVtDSF0yKUMoPU8pW05IXVtDSDJdW0NIMl1jM1tjSF1bY0hdW2NIXVtjSF1uMw==

> <s_epik_cmdline>
J2VwaWtfcHl0aG9uJywgJy1waCcsICc3LjAnLCAnLXRuJywgJzgnLCAnLW1hJywgJzIwMCcsICctbWV0YWxfYmluZGluZycsICctaW1hZScsICc8aW5maWxlLm1hZT4nLCAnLW9tYWUnLCAnPG91dGZpbGUubWFlPic=

> <r_epik_Ionization_Penalty>
2.08937

> <r_epik_Ionization_Penalty_Charging>
2.08928

> <r_epik_Ionization_Penalty_Neutral>
8.13788e-05

> <r_epik_State_Penalty>
2.22459

> <r_epik_Charging_Adjusted_Penalty>
4.31388

> <i_epik_Tot_Q>
1

> <i_epik_Tot_abs_Q>
1

> <r_epik_Metal_State_Penalty>
2.35797

> <b_epik_Metal_Only>
0

> <s_lp_Force_Field>
OPLS_2005

> <r_lp_Energy>
32.7786

> <b_lp_Chiralities_Consistent>
1

> <s_lp_Variant>
AV-unprocessed.smi:2189-2

> <Gold.Version>
5.8.1

> <Gold.Id.Protein>
6NUR|6NUR_protein|mol2

> <Gold.PLP.Fitness>
50.0305

> <Gold.PLP.PLP>
-43.8139

> <Gold.PLP.part.hbond>
-2.2307

> <Gold.PLP.part.metal>
0.0000

> <Gold.PLP.part.buried>
-3.0796

> <Gold.PLP.part.nonpolar>
-39.8415

> <Gold.PLP.part.repulsive>
1.5572

> <Gold.PLP.ligand.clash>
0.0000

> <Gold.PLP.ligand.torsion>
1.5000

> <Gold.PLP.Chemscore.Hbond>
1.9920

> <Gold.PLP.Chemscore.CHOScore>
1.0000

> <Gold.PLP.Chemscore.Metal>
0.0000

> <Gold.Chemscore.Hbonds>
donor molecule, donor type, donor heavy atom, donor atom, acceptor molecule, acceptor atom, score
      L1  H     3    24       P1  8028  1.00
      P1  H  6934  6946       L1    21  1.00
      L1  C    15    35       P1 10175  1.00

> <Gold.PLP.Chemscore.Internal.Correction>
0.2407

> <Gold.Rescore>
     Score         DG    S(hbond)    S(metal)    S(lipo)     H(rot)  DE(clash)    DE(int)     intcor
     17.21     -21.16       1.90        0.00     113.30       1.54       1.44       2.52       ----

> <Gold.Chemscore.Fitness>
17.2055

> <Gold.Chemscore.DG>
-21.1641

> <Gold.Chemscore.ZeroCoef>
-5.4800

> <Gold.Chemscore.Hbond>
1.9038

> <Gold.Chemscore.Metal>
0.0000

> <Gold.Chemscore.Lipo>
113.3011

> <Gold.Chemscore.Internal_Hbond>
0.0000

> <Gold.Chemscore.DEClash>
1.4383

> <Gold.Chemscore.DEInternal>
2.5203

> <Gold.Chemscore.Rot>
1.5355

> <Gold.Chemscore.Internal.Correction>
   9.000000E+99

> <Gold.Chemscore.Hbonds>
donor molecule, donor type, donor heavy atom, donor atom, acceptor molecule, acceptor atom, score
      L1  H     3    24       P1  8028  0.98
      P1  H  6934  6946       L1    21  1.00

> <Gold.Chemscore.Hbond.Weighted>
-6.3588

> <Gold.Chemscore.Metal.Weighted>
-0.0000

> <Gold.Chemscore.Lipo.Weighted>
-13.2562

> <Gold.Chemscore.Internal_Hbond.Weighted>
0.0000

> <Gold.Chemscore.DEClash.Weighted>
1.4383

> <Gold.Chemscore.DEInternal.Weighted>
2.5203

> <Gold.Chemscore.Rot.Weighted>
3.9309

> <Gold.Chemscore.Internal.Correction.Weighted>
   9.000000E+99

> <Gold.Protein.RotatedTorsions>
[ 6907 6896 6895 6894 ] final   47.12 input  -60.11 | X-H torsion
[ 7974 7965 7964 7962 ] final   21.32 input  175.53 | X-H torsion
[ 8008 7997 7996 7995 ] final  -34.53 input   59.86 | X-H torsion
[ 10167 10162 10161 10158 ] final  -42.96 input  -65.29 | X-H torsion
[ 10718 10713 10712 10709 ] final   61.94 input   66.30 | X-H torsion
[ 10763 10752 10751 10750 ] final   30.92 input  -60.55 | X-H torsion
[ 11005 11000 10999 10996 ] final  -13.97 input  -57.11 | X-H torsion

> <Gold.Protein.ActiveResidues>
 VAL166  LYS551  ARG553  GLY616  TRP617  ASP618  TYR619  PRO620  LYS621  CYS622 
 ASP623  PHE694  ASN695  SER759  ASP760  ASP761  ALA762  ILE779  LEU786  VAL792 
 PHE793  MET794  SER795  GLU796  ALA797  LYS798  CYS799  TRP800  GLU811  SER814 

> <Gold.Protein.RotatedAtoms>
  152.2644  134.8000  160.0424 H   0  0  0  0  0  0  0  0  0  0  0  0  # atno 6907 bound_to 6896
  151.8635  133.3456  159.3719 H   0  0  0  0  0  0  0  0  0  0  0  0  # atno 6908 bound_to 6896
  150.7128  134.5110  159.5652 H   0  0  0  0  0  0  0  0  0  0  0  0  # atno 6909 bound_to 6896
  146.2076  139.8044  142.8714 H   0  0  0  0  0  0  0  0  0  0  0  0  # atno 7974 bound_to 7965
  154.4118  140.1681  156.2064 H   0  0  0  0  0  0  0  0  0  0  0  0  # atno 8008 bound_to 7997
  155.9481  140.3403  155.6361 H   0  0  0  0  0  0  0  0  0  0  0  0  # atno 8009 bound_to 7997
  155.6904  140.0733  157.2441 H   0  0  0  0  0  0  0  0  0  0  0  0  # atno 8010 bound_to 7997
  140.6951  143.3009  151.3283 H   0  0  0  0  0  0  0  0  0  0  0  0  # atno 10167 bound_to 10162
  157.5865  130.9022  149.9524 H   0  0  0  0  0  0  0  0  0  0  0  0  # atno 10718 bound_to 10713
  153.0344  135.6452  154.1119 H   0  0  0  0  0  0  0  0  0  0  0  0  # atno 10763 bound_to 10752
  154.0836  135.2871  155.3287 H   0  0  0  0  0  0  0  0  0  0  0  0  # atno 10764 bound_to 10752
  154.6513  135.5425  153.7969 H   0  0  0  0  0  0  0  0  0  0  0  0  # atno 10765 bound_to 10752
  140.7816  133.8358  155.9297 H   0  0  0  0  0  0  0  0  0  0  0  0  # atno 11005 bound_to 11000
  145.3262  141.0256  143.3472 LP  0  0  0  0  0  0  0  0  0  0  0  0  # atno 17320 bound_to 7965
  144.8831  139.4876  143.6713 LP  0  0  0  0  0  0  0  0  0  0  0  0  # atno 17321 bound_to 7965
  139.6397  144.0564  152.2544 LP  0  0  0  0  0  0  0  0  0  0  0  0  # atno 17342 bound_to 10162
  140.0065  144.6255  150.7684 LP  0  0  0  0  0  0  0  0  0  0  0  0  # atno 17343 bound_to 10162
  156.0914  130.3663  150.0387 LP  0  0  0  0  0  0  0  0  0  0  0  0  # atno 17370 bound_to 10713
  156.8518  130.9461  151.3625 LP  0  0  0  0  0  0  0  0  0  0  0  0  # atno 17371 bound_to 10713
  140.9477  134.1819  157.4751 LP  0  0  0  0  0  0  0  0  0  0  0  0  # atno 17394 bound_to 11000
  139.8742  134.9897  156.5468 LP  0  0  0  0  0  0  0  0  0  0  0  0  # atno 17395 bound_to 11000

$$$$
