AV-unprocessed.smi:2093|AV-procd|sdf|8546|dock3
  -GOLD-   2272011273D 1   1.00000     0.00000
 Structure written by MMmdl.
 31 32  0  0  0  0  0  0  0  0  1 V2000
  148.3410  141.7439  154.1323 C   0  0  0  0  0  0  0  0  0  0  0  0
  148.7605  141.2921  155.5389 C   0  0  2  0  0  0  0  0  0  0  0  0
  148.3117  142.2853  156.5137 N   0  0  0  0  0  0  0  0  0  0  0  0
  147.5935  142.0375  157.6192 C   0  0  0  0  0  0  0  0  0  0  0  0
  147.2102  140.9146  157.9480 O   0  0  0  0  0  0  0  0  0  0  0  0
  147.3599  143.1693  158.3066 N   0  0  0  0  0  0  0  0  0  0  0  0
  146.6498  143.3269  159.5258 C   0  0  0  0  0  0  0  0  0  0  0  0
  145.8264  142.4085  160.0449 N   0  0  0  0  0  0  0  0  0  0  0  0
  145.2657  142.8302  161.2532 C   0  0  0  0  0  0  0  0  0  0  0  0
  145.6761  144.0811  161.6422 C   0  0  0  0  0  0  0  0  0  0  0  0
  146.7881  144.7844  160.4983 S   0  0  0  0  0  0  0  0  0  0  0  0
  150.2850  141.0958  155.6515 C   0  0  1  0  0  0  0  0  0  0  0  0
  150.7694  140.6310  157.0273 C   0  0  0  0  0  0  0  0  0  0  0  0
  152.0731  139.9511  156.6791 C   0  0  0  0  0  0  0  0  0  0  0  0
  151.7182  139.2631  155.3654 C   0  0  0  0  0  0  0  0  0  0  0  0
  150.7302  140.0847  154.7487 O   0  0  0  0  0  0  0  0  0  0  0  0
  148.6301  141.0095  153.3800 H   0  0  0  0  0  0  0  0  0  0  0  0
  148.8049  142.6938  153.8642 H   0  0  0  0  0  0  0  0  0  0  0  0
  147.2598  141.8696  154.0666 H   0  0  0  0  0  0  0  0  0  0  0  0
  148.2832  140.3303  155.7348 H   0  0  0  0  0  0  0  0  0  0  0  0
  148.5788  143.2416  156.3320 H   0  0  0  0  0  0  0  0  0  0  0  0
  147.7389  144.0181  157.9139 H   0  0  0  0  0  0  0  0  0  0  0  0
  144.5823  142.1742  161.7719 H   0  0  0  0  0  0  0  0  0  0  0  0
  145.3927  144.6290  162.5287 H   0  0  0  0  0  0  0  0  0  0  0  0
  150.8027  142.0204  155.3905 H   0  0  0  0  0  0  0  0  0  0  0  0
  150.8908  141.4502  157.7365 H   0  0  0  0  0  0  0  0  0  0  0  0
  150.0746  139.9072  157.4566 H   0  0  0  0  0  0  0  0  0  0  0  0
  152.8527  140.6966  156.5164 H   0  0  0  0  0  0  0  0  0  0  0  0
  152.4164  139.2565  157.4461 H   0  0  0  0  0  0  0  0  0  0  0  0
  152.5854  139.1276  154.7188 H   0  0  0  0  0  0  0  0  0  0  0  0
  151.2804  138.2825  155.5561 H   0  0  0  0  0  0  0  0  0  0  0  0
  1  2  1  0  0  0  0
  1 17  1  0  0  0  0
  1 18  1  0  0  0  0
  1 19  1  0  0  0  0
  2  3  1  0  0  0  0
  2 12  1  0  0  0  0
  2 20  1  0  0  0  0
  3  4  1  0  0  0  0
  3 21  1  0  0  0  0
  4  5  2  0  0  0  0
  4  6  1  0  0  0  0
  6  7  1  0  0  0  0
  6 22  1  0  0  0  0
  7 11  1  0  0  0  0
  7  8  2  0  0  0  0
  8  9  1  0  0  0  0
  9 10  2  0  0  0  0
  9 23  1  0  0  0  0
 10 11  1  0  0  0  0
 10 24  1  0  0  0  0
 12 16  1  0  0  0  0
 12 13  1  0  0  0  0
 12 25  1  0  0  0  0
 13 14  1  0  0  0  0
 13 26  1  0  0  0  0
 13 27  1  0  0  0  0
 14 15  1  0  0  0  0
 14 28  1  0  0  0  0
 14 29  1  0  0  0  0
 15 16  1  0  0  0  0
 15 30  1  0  0  0  0
 15 31  1  0  0  0  0
M  END
> <s_m_source_file>
AV-unprocessed.smi

> <i_m_source_file_index>
2093

> <i_lp_mmshare_version>
43012

> <i_f3d_flags>
0

> <s_epik_input>
TzFbQ0gyXVtDSDJdW0NIMl1bQ0BIXTFbQ0BIXShbQ0gzXSlbTkhdQyg9TylbTkhdYzJuW2NIXVtjSF1zMg==

> <s_epik_cmdline>
J2VwaWtfcHl0aG9uJywgJy1waCcsICc3LjAnLCAnLXRuJywgJzgnLCAnLW1hJywgJzIwMCcsICctbWV0YWxfYmluZGluZycsICctaW1hZScsICc8aW5maWxlLm1hZT4nLCAnLW9tYWUnLCAnPG91dGZpbGUubWFlPic=

> <r_lp_tautomer_probability>
0.999

> <r_epik_Ionization_Penalty>
0.000334433

> <r_epik_Ionization_Penalty_Charging>
0

> <r_epik_Ionization_Penalty_Neutral>
0.000334433

> <r_epik_State_Penalty>
0.000177984

> <r_epik_Charging_Adjusted_Penalty>
0.000177984

> <i_epik_Tot_Q>
0

> <i_epik_Tot_abs_Q>
0

> <r_epik_Metal_State_Penalty>
0.00767616

> <b_epik_Metal_Only>
0

> <s_lp_Force_Field>
OPLS_2005

> <r_lp_Energy>
15.9736

> <b_lp_Chiralities_Consistent>
1

> <s_lp_Variant>
AV-unprocessed.smi:2093-3

> <Gold.Version>
5.8.1

> <Gold.Id.Protein>
6NUR|6NUR_protein|mol2

> <Gold.PLP.Fitness>
42.3737

> <Gold.PLP.PLP>
-31.4129

> <Gold.PLP.part.hbond>
-4.6789

> <Gold.PLP.part.metal>
0.0000

> <Gold.PLP.part.buried>
-4.0769

> <Gold.PLP.part.nonpolar>
-22.4556

> <Gold.PLP.part.repulsive>
0.1862

> <Gold.PLP.ligand.clash>
0.0000

> <Gold.PLP.ligand.torsion>
0.1488

> <Gold.PLP.Chemscore.Hbond>
3.7500

> <Gold.PLP.Chemscore.CHOScore>
0.0000

> <Gold.PLP.Chemscore.Metal>
0.0000

> <Gold.Chemscore.Hbonds>
donor molecule, donor type, donor heavy atom, donor atom, acceptor molecule, acceptor atom, score
      L1  H     3    21       P1  8028  1.00
      L1  H     6    22       P1  8029  0.75
      P1  H  6934  6946       L1     8  0.95
      P1  H  7989  7998       L1    16  1.00

> <Gold.PLP.Chemscore.Internal.Correction>
0.0084

> <Gold.Rescore>
     Score         DG    S(hbond)    S(metal)    S(lipo)     H(rot)  DE(clash)    DE(int)     intcor
     15.66     -17.78       2.66        0.00      57.49       1.29       0.71       1.41       ----

> <Gold.Chemscore.Fitness>
15.6581

> <Gold.Chemscore.DG>
-17.7796

> <Gold.Chemscore.ZeroCoef>
-5.4800

> <Gold.Chemscore.Hbond>
2.6602

> <Gold.Chemscore.Metal>
0.0000

> <Gold.Chemscore.Lipo>
57.4921

> <Gold.Chemscore.Internal_Hbond>
0.0000

> <Gold.Chemscore.DEClash>
0.7146

> <Gold.Chemscore.DEInternal>
1.4069

> <Gold.Chemscore.Rot>
1.2938

> <Gold.Chemscore.Internal.Correction>
   9.000000E+99

> <Gold.Chemscore.Hbonds>
donor molecule, donor type, donor heavy atom, donor atom, acceptor molecule, acceptor atom, score
      L1  H     3    21       P1  8028  0.88
      L1  H     6    22       P1  8029  0.09
      P1  H  6934  6946       L1     8  0.14
      P1  H  7989  7998       L1    16  0.21

> <Gold.Chemscore.Hbond.Weighted>
-8.8852

> <Gold.Chemscore.Metal.Weighted>
-0.0000

> <Gold.Chemscore.Lipo.Weighted>
-6.7266

> <Gold.Chemscore.Internal_Hbond.Weighted>
0.0000

> <Gold.Chemscore.DEClash.Weighted>
0.7146

> <Gold.Chemscore.DEInternal.Weighted>
1.4069

> <Gold.Chemscore.Rot.Weighted>
3.3122

> <Gold.Chemscore.Internal.Correction.Weighted>
   9.000000E+99

> <Gold.Protein.RotatedTorsions>
[ 6907 6896 6895 6894 ] final  -71.39 input  -60.11 | X-H torsion
[ 7974 7965 7964 7962 ] final  -39.18 input  175.53 | X-H torsion
[ 8008 7997 7996 7995 ] final   -2.97 input   59.86 | X-H torsion
[ 10167 10162 10161 10158 ] final   24.36 input  -65.29 | X-H torsion
[ 10718 10713 10712 10709 ] final   98.41 input   66.30 | X-H torsion
[ 10763 10752 10751 10750 ] final   80.91 input  -60.55 | X-H torsion
[ 11005 11000 10999 10996 ] final  -18.26 input  -57.11 | X-H torsion

> <Gold.Protein.ActiveResidues>
 VAL166  LYS551  ARG553  GLY616  TRP617  ASP618  TYR619  PRO620  LYS621  CYS622 
 ASP623  PHE694  ASN695  SER759  ASP760  ASP761  ALA762  ILE779  LEU786  VAL792 
 PHE793  MET794  SER795  GLU796  ALA797  LYS798  CYS799  TRP800  GLU811  SER814 

> <Gold.Protein.RotatedAtoms>
  150.7214  134.5315  159.5702 H   0  0  0  0  0  0  0  0  0  0  0  0  # atno 6907 bound_to 6896
  152.2847  134.7786  160.0399 H   0  0  0  0  0  0  0  0  0  0  0  0  # atno 6908 bound_to 6896
  151.8420  133.3390  159.3683 H   0  0  0  0  0  0  0  0  0  0  0  0  # atno 6909 bound_to 6896
  146.0420  140.6596  142.9083 H   0  0  0  0  0  0  0  0  0  0  0  0  # atno 7974 bound_to 7965
  154.6300  140.2521  155.7446 H   0  0  0  0  0  0  0  0  0  0  0  0  # atno 8008 bound_to 7997
  156.2474  140.2909  156.0566 H   0  0  0  0  0  0  0  0  0  0  0  0  # atno 8009 bound_to 7997
  155.1761  140.0388  157.2863 H   0  0  0  0  0  0  0  0  0  0  0  0  # atno 8010 bound_to 7997
  140.5194  144.0028  150.6409 H   0  0  0  0  0  0  0  0  0  0  0  0  # atno 10167 bound_to 10162
  157.6896  131.0639  150.4792 H   0  0  0  0  0  0  0  0  0  0  0  0  # atno 10718 bound_to 10713
  153.1073  135.4785  154.8973 H   0  0  0  0  0  0  0  0  0  0  0  0  # atno 10763 bound_to 10752
  154.7443  135.3090  154.8675 H   0  0  0  0  0  0  0  0  0  0  0  0  # atno 10764 bound_to 10752
  153.9274  135.6848  153.4799 H   0  0  0  0  0  0  0  0  0  0  0  0  # atno 10765 bound_to 10752
  140.8250  133.8039  155.9699 H   0  0  0  0  0  0  0  0  0  0  0  0  # atno 11005 bound_to 11000
  144.7079  140.3925  143.7104 LP  0  0  0  0  0  0  0  0  0  0  0  0  # atno 17320 bound_to 7965
  145.6869  139.1630  143.2669 LP  0  0  0  0  0  0  0  0  0  0  0  0  # atno 17321 bound_to 7965
  140.3372  143.3041  152.0625 LP  0  0  0  0  0  0  0  0  0  0  0  0  # atno 17342 bound_to 10162
  139.4919  144.6468  151.6762 LP  0  0  0  0  0  0  0  0  0  0  0  0  # atno 17343 bound_to 10162
  156.5125  130.4142  149.6293 LP  0  0  0  0  0  0  0  0  0  0  0  0  # atno 17370 bound_to 10713
  156.3228  130.7289  151.2204 LP  0  0  0  0  0  0  0  0  0  0  0  0  # atno 17371 bound_to 10713
  140.9058  134.2321  157.5015 LP  0  0  0  0  0  0  0  0  0  0  0  0  # atno 17394 bound_to 11000
  139.8707  134.9728  156.4785 LP  0  0  0  0  0  0  0  0  0  0  0  0  # atno 17395 bound_to 11000

$$$$
