AV-unprocessed.smi:2742|AV-procd|sdf|10564|dock3
  -GOLD-   2272015 13D 1   1.00000     0.00000
 Structure written by MMmdl.
 37 38  0  0  0  0  0  0  0  0  1 V2000
  154.3109  140.4940  159.7693 C   0  0  0  0  0  0  0  0  0  0  0  0
  153.4245  141.5063  160.9846 S   0  0  0  0  0  0  0  0  0  0  0  0
  152.9684  142.9388  159.9639 C   0  0  2  0  0  0  0  0  0  0  0  0
  152.5043  144.1232  160.8332 C   0  0  0  0  0  0  0  0  0  0  0  0
  152.0819  145.3219  159.9690 C   0  0  0  0  0  0  0  0  0  0  0  0
  150.9951  144.9259  158.9576 C   0  0  0  0  0  0  0  0  0  0  0  0
  151.4534  143.7481  158.0790 C   0  0  2  0  0  0  0  0  0  0  0  0
  150.3788  143.3679  157.1666 N   0  0  0  0  0  0  0  0  0  0  0  0
  150.3012  142.2054  156.5027 C   0  0  0  0  0  0  0  0  0  0  0  0
  151.1469  141.3162  156.5946 O   0  0  0  0  0  0  0  0  0  0  0  0
  149.1997  142.1610  155.7332 N   0  0  0  0  0  0  0  0  0  0  0  0
  148.7502  141.1285  154.8638 C   0  0  0  0  0  0  0  0  0  0  0  0
  149.3756  139.8648  154.7279 C   0  0  0  0  0  0  0  0  0  0  0  0
  148.8166  138.9268  153.8367 C   0  0  0  0  0  0  0  0  0  0  0  0
  147.7076  139.1637  153.1050 N   0  0  0  0  0  0  0  0  0  0  0  0
  147.1072  140.3643  153.2454 C   0  0  0  0  0  0  0  0  0  0  0  0
  147.5835  141.3718  154.1082 C   0  0  0  0  0  0  0  0  0  0  0  0
  146.9285  142.5543  154.2040 F   0  0  0  0  0  0  0  0  0  0  0  0
  151.8759  142.5484  158.9518 C   0  0  0  0  0  0  0  0  0  0  0  0
  154.6309  139.5577  160.2265 H   0  0  0  0  0  0  0  0  0  0  0  0
  155.1949  141.0138  159.4012 H   0  0  0  0  0  0  0  0  0  0  0  0
  153.6648  140.2605  158.9229 H   0  0  0  0  0  0  0  0  0  0  0  0
  153.8565  143.2356  159.4046 H   0  0  0  0  0  0  0  0  0  0  0  0
  151.6665  143.8139  161.4598 H   0  0  0  0  0  0  0  0  0  0  0  0
  153.2989  144.4319  161.5119 H   0  0  0  0  0  0  0  0  0  0  0  0
  151.7201  146.1296  160.6058 H   0  0  0  0  0  0  0  0  0  0  0  0
  152.9504  145.7129  159.4375 H   0  0  0  0  0  0  0  0  0  0  0  0
  150.0835  144.6574  159.4936 H   0  0  0  0  0  0  0  0  0  0  0  0
  150.7453  145.7844  158.3328 H   0  0  0  0  0  0  0  0  0  0  0  0
  152.3150  144.0790  157.4957 H   0  0  0  0  0  0  0  0  0  0  0  0
  149.6412  144.0435  157.0294 H   0  0  0  0  0  0  0  0  0  0  0  0
  148.6343  142.9972  155.7271 H   0  0  0  0  0  0  0  0  0  0  0  0
  150.2556  139.5896  155.2873 H   0  0  0  0  0  0  0  0  0  0  0  0
  149.2719  137.9553  153.7127 H   0  0  0  0  0  0  0  0  0  0  0  0
  146.2189  140.5265  152.6534 H   0  0  0  0  0  0  0  0  0  0  0  0
  152.2386  141.7378  158.3186 H   0  0  0  0  0  0  0  0  0  0  0  0
  151.0077  142.1580  159.4850 H   0  0  0  0  0  0  0  0  0  0  0  0
  1  2  1  0  0  0  0
  1 20  1  0  0  0  0
  1 21  1  0  0  0  0
  1 22  1  0  0  0  0
  2  3  1  0  0  0  0
  3 19  1  0  0  0  0
  3  4  1  0  0  0  0
  3 23  1  0  0  0  0
  4  5  1  0  0  0  0
  4 24  1  0  0  0  0
  4 25  1  0  0  0  0
  5  6  1  0  0  0  0
  5 26  1  0  0  0  0
  5 27  1  0  0  0  0
  6  7  1  0  0  0  0
  6 28  1  0  0  0  0
  6 29  1  0  0  0  0
  7  8  1  0  0  0  0
  7 19  1  0  0  0  0
  7 30  1  0  0  0  0
  8  9  1  0  0  0  0
  8 31  1  0  0  0  0
  9 10  2  0  0  0  0
  9 11  1  0  0  0  0
 11 12  1  0  0  0  0
 11 32  1  0  0  0  0
 12 17  1  0  0  0  0
 12 13  2  0  0  0  0
 13 14  1  0  0  0  0
 13 33  1  0  0  0  0
 14 15  2  0  0  0  0
 14 34  1  0  0  0  0
 15 16  1  0  0  0  0
 16 17  2  0  0  0  0
 16 35  1  0  0  0  0
 17 18  1  0  0  0  0
 19 36  1  0  0  0  0
 19 37  1  0  0  0  0
M  END
> <s_m_source_file>
AV-unprocessed.smi

> <i_m_source_file_index>
2742

> <i_lp_mmshare_version>
43012

> <i_f3d_flags>
0

> <s_epik_input>
W0NIM11TW0NAQEhdMVtDSDJdW0NIMl1bQ0gyXVtDQEhdKFtDSDJdMSlbTkhdQyg9TylbTkhdYzJbY0hdW2NIXW5bY0hdYzJG

> <s_epik_cmdline>
J2VwaWtfcHl0aG9uJywgJy1waCcsICc3LjAnLCAnLXRuJywgJzgnLCAnLW1hJywgJzIwMCcsICctbWV0YWxfYmluZGluZycsICctaW1hZScsICc8aW5maWxlLm1hZT4nLCAnLW9tYWUnLCAnPG91dGZpbGUubWFlPic=

> <r_epik_Ionization_Penalty>
0.00344009

> <r_epik_Ionization_Penalty_Charging>
0

> <r_epik_Ionization_Penalty_Neutral>
0.00344009

> <r_epik_State_Penalty>
0.0024078

> <r_epik_Charging_Adjusted_Penalty>
0.0024078

> <i_epik_Tot_Q>
0

> <i_epik_Tot_abs_Q>
0

> <r_epik_Metal_State_Penalty>
-0

> <b_epik_Metal_Only>
0

> <s_lp_Force_Field>
OPLS_2005

> <r_lp_Energy>
14.4944

> <b_lp_Chiralities_Consistent>
1

> <s_lp_Variant>
AV-unprocessed.smi:2742-3

> <Gold.Version>
5.8.1

> <Gold.Id.Protein>
6NUR|6NUR_protein|mol2

> <Gold.PLP.Fitness>
53.4483

> <Gold.PLP.PLP>
-43.6300

> <Gold.PLP.part.hbond>
-1.9243

> <Gold.PLP.part.metal>
0.0000

> <Gold.PLP.part.buried>
-3.9397

> <Gold.PLP.part.nonpolar>
-38.9821

> <Gold.PLP.part.repulsive>
2.0334

> <Gold.PLP.ligand.clash>
0.0000

> <Gold.PLP.ligand.torsion>
0.3367

> <Gold.PLP.Chemscore.Hbond>
1.5040

> <Gold.PLP.Chemscore.CHOScore>
1.9908

> <Gold.PLP.Chemscore.Metal>
0.0000

> <Gold.Chemscore.Hbonds>
donor molecule, donor type, donor heavy atom, donor atom, acceptor molecule, acceptor atom, score
      L1  H     8    31       P1  8028  0.70
      L1  H    11    32       P1  8028  0.77
      L1  C    14    34       P1  7948  1.00
      L1  C    16    35       P1 10175  0.99

> <Gold.PLP.Chemscore.Internal.Correction>
0.0073

> <Gold.Rescore>
     Score         DG    S(hbond)    S(metal)    S(lipo)     H(rot)  DE(clash)    DE(int)     intcor
     18.96     -22.16       1.80        0.00     117.08       1.19       0.13       3.08       ----

> <Gold.Chemscore.Fitness>
18.9570

> <Gold.Chemscore.DG>
-22.1632

> <Gold.Chemscore.ZeroCoef>
-5.4800

> <Gold.Chemscore.Hbond>
1.8038

> <Gold.Chemscore.Metal>
0.0000

> <Gold.Chemscore.Lipo>
117.0802

> <Gold.Chemscore.Internal_Hbond>
0.0000

> <Gold.Chemscore.DEClash>
0.1306

> <Gold.Chemscore.DEInternal>
3.0756

> <Gold.Chemscore.Rot>
1.1875

> <Gold.Chemscore.Internal.Correction>
   9.000000E+99

> <Gold.Chemscore.Hbonds>
donor molecule, donor type, donor heavy atom, donor atom, acceptor molecule, acceptor atom, score
      L1  H     8    31       P1  8028  0.53
      L1  H    11    32       P1  8028  0.78

> <Gold.Chemscore.Hbond.Weighted>
-6.0248

> <Gold.Chemscore.Metal.Weighted>
-0.0000

> <Gold.Chemscore.Lipo.Weighted>
-13.6984

> <Gold.Chemscore.Internal_Hbond.Weighted>
0.0000

> <Gold.Chemscore.DEClash.Weighted>
0.1306

> <Gold.Chemscore.DEInternal.Weighted>
3.0756

> <Gold.Chemscore.Rot.Weighted>
3.0400

> <Gold.Chemscore.Internal.Correction.Weighted>
   9.000000E+99

> <Gold.Protein.RotatedTorsions>
[ 6907 6896 6895 6894 ] final -164.19 input  -60.11 | X-H torsion
[ 7974 7965 7964 7962 ] final   91.94 input  175.53 | X-H torsion
[ 8008 7997 7996 7995 ] final   81.49 input   59.86 | X-H torsion
[ 10167 10162 10161 10158 ] final  -27.11 input  -65.29 | X-H torsion
[ 10718 10713 10712 10709 ] final -120.72 input   66.30 | X-H torsion
[ 10763 10752 10751 10750 ] final -104.08 input  -60.55 | X-H torsion
[ 11005 11000 10999 10996 ] final  -52.34 input  -57.11 | X-H torsion

> <Gold.Protein.ActiveResidues>
 VAL166  LYS551  ARG553  GLY616  TRP617  ASP618  TYR619  PRO620  LYS621  CYS622 
 ASP623  PHE694  ASN695  SER759  ASP760  ASP761  ALA762  ILE779  LEU786  VAL792 
 PHE793  MET794  SER795  GLU796  ALA797  LYS798  CYS799  TRP800  GLU811  SER814 

> <Gold.Protein.RotatedAtoms>
  151.4080  133.3736  159.2740 H   0  0  0  0  0  0  0  0  0  0  0  0  # atno 6907 bound_to 6896
  150.9384  134.8796  159.7607 H   0  0  0  0  0  0  0  0  0  0  0  0  # atno 6908 bound_to 6896
  152.5060  134.4029  159.9474 H   0  0  0  0  0  0  0  0  0  0  0  0  # atno 6909 bound_to 6896
  145.4989  139.2276  143.2788 H   0  0  0  0  0  0  0  0  0  0  0  0  # atno 7974 bound_to 7965
  155.8978  140.3435  155.6003 H   0  0  0  0  0  0  0  0  0  0  0  0  # atno 8008 bound_to 7997
  155.7536  140.0823  157.2208 H   0  0  0  0  0  0  0  0  0  0  0  0  # atno 8009 bound_to 7997
  154.4040  140.1549  156.2739 H   0  0  0  0  0  0  0  0  0  0  0  0  # atno 8010 bound_to 7997
  140.7279  143.4121  151.1089 H   0  0  0  0  0  0  0  0  0  0  0  0  # atno 10167 bound_to 10162
  156.1280  130.6374  150.9575 H   0  0  0  0  0  0  0  0  0  0  0  0  # atno 10718 bound_to 10713
  154.7853  135.4799  153.9932 H   0  0  0  0  0  0  0  0  0  0  0  0  # atno 10763 bound_to 10752
  153.1551  135.6798  153.8831 H   0  0  0  0  0  0  0  0  0  0  0  0  # atno 10764 bound_to 10752
  153.8463  135.3173  155.3407 H   0  0  0  0  0  0  0  0  0  0  0  0  # atno 10765 bound_to 10752
  141.0919  133.6631  156.4010 H   0  0  0  0  0  0  0  0  0  0  0  0  # atno 11005 bound_to 11000
  146.2238  140.5788  142.9005 LP  0  0  0  0  0  0  0  0  0  0  0  0  # atno 17320 bound_to 7965
  144.7791  140.5803  143.6617 LP  0  0  0  0  0  0  0  0  0  0  0  0  # atno 17321 bound_to 7965
  139.7755  143.8431  152.3128 LP  0  0  0  0  0  0  0  0  0  0  0  0  # atno 17342 bound_to 10162
  139.8364  144.7230  150.9385 LP  0  0  0  0  0  0  0  0  0  0  0  0  # atno 17343 bound_to 10162
  157.6461  131.0904  150.8151 LP  0  0  0  0  0  0  0  0  0  0  0  0  # atno 17370 bound_to 10713
  156.8239  130.4993  149.5339 LP  0  0  0  0  0  0  0  0  0  0  0  0  # atno 17371 bound_to 10713
  140.5231  134.6285  157.5325 LP  0  0  0  0  0  0  0  0  0  0  0  0  # atno 17394 bound_to 11000
  139.9747  134.7235  155.9973 LP  0  0  0  0  0  0  0  0  0  0  0  0  # atno 17395 bound_to 11000

$$$$
