AV-unprocessed.smi:21|AV-procd|sdf|142|dock7
  -GOLD-   2262015353D 1   1.00000     0.00000
 Structure written by MMmdl.
 62 65  0  0  0  0  0  0  0  0  2 V2000
  145.8571  129.6721  151.9620 C   0  0  0  0  0  0  0  0  0  0  0  0
  146.1134  130.9820  152.4438 O   0  0  0  0  0  0  0  0  0  0  0  0
  145.8559  132.0053  151.4907 C   0  0  2  0  0  0  0  0  0  0  0  0
  146.4588  133.3095  151.9950 C   0  0  0  0  0  0  0  0  0  0  0  0
  145.4181  133.8364  152.9905 C   0  0  1  0  0  0  0  0  0  0  0  0
  145.5124  135.3583  153.2606 C   0  0  0  0  0  0  0  0  0  0  0  0
  146.5061  135.6850  154.2853 N   0  0  0  0  0  0  0  0  0  0  0  0
  147.4479  134.6488  154.6890 C   0  0  0  0  0  0  0  0  0  0  0  0
  146.7696  136.9889  154.5786 C   0  0  0  0  0  0  0  0  0  0  0  0
  146.1514  137.9476  153.8389 N   0  0  0  0  0  0  0  0  0  0  0  0
  146.3679  139.2429  154.0799 C   0  0  0  0  0  0  0  0  0  0  0  0
  147.1584  139.7978  154.9980 N   0  0  0  0  0  0  0  0  0  0  0  0
  147.7910  138.8486  155.7438 C   0  0  0  0  0  0  0  0  0  0  0  0
  147.6570  137.4359  155.6056 C   0  0  0  0  0  0  0  0  0  0  0  0
  148.4750  136.8022  156.5362 N   0  0  0  0  0  0  0  0  0  0  0  0
  149.0461  137.7766  157.1882 C   0  0  0  0  0  0  0  0  0  0  0  0
  148.6854  139.0395  156.7826 N   0  0  0  0  0  0  0  0  0  0  0  0
  149.1673  140.2939  157.3356 C   0  0  0  0  0  0  0  0  0  0  0  0
  150.3297  140.9126  156.5210 C   0  0  1  0  0  0  0  0  0  0  0  0
  149.8154  141.4438  155.1626 C   0  0  0  0  0  0  0  0  0  0  0  0
  148.7288  142.3259  155.3543 O   0  0  0  0  0  0  0  0  0  0  0  0
  151.1346  141.9638  157.3362 C   0  0  2  0  0  0  0  0  0  0  0  0
  151.9508  141.4250  158.5047 C   0  0  0  0  0  0  0  0  0  0  0  0
  152.0501  142.6440  159.4099 C   0  0  0  0  0  0  0  0  0  0  0  0
  150.7521  143.2077  159.3171 O   0  0  0  0  0  0  0  0  0  0  0  0
  150.3039  143.0938  157.9702 C   0  0  0  0  0  0  0  0  0  0  0  0
  144.1023  133.3437  152.4893 N   0  3  1  0  0  0  0  0  0  0  0  0
  143.0969  134.3581  152.0921 C   0  0  0  0  0  0  0  0  0  0  0  0
  144.3615  132.3408  151.4280 C   0  0  0  0  0  0  0  0  0  0  0  0
  146.2666  131.7374  150.5157 H   0  0  0  0  0  0  0  0  0  0  0  0
  145.5720  133.3130  153.9353 H   0  0  0  0  0  0  0  0  0  0  0  0
  146.0837  128.9471  152.7435 H   0  0  0  0  0  0  0  0  0  0  0  0
  146.4845  129.4399  151.1005 H   0  0  0  0  0  0  0  0  0  0  0  0
  144.8132  129.5402  151.6782 H   0  0  0  0  0  0  0  0  0  0  0  0
  147.4457  133.1756  152.4395 H   0  0  0  0  0  0  0  0  0  0  0  0
  146.5617  134.0059  151.1614 H   0  0  0  0  0  0  0  0  0  0  0  0
  145.7006  135.9019  152.3352 H   0  0  0  0  0  0  0  0  0  0  0  0
  144.5518  135.7234  153.6248 H   0  0  0  0  0  0  0  0  0  0  0  0
  147.7756  134.7979  155.7184 H   0  0  0  0  0  0  0  0  0  0  0  0
  148.3217  134.6463  154.0368 H   0  0  0  0  0  0  0  0  0  0  0  0
  146.9840  133.6640  154.6317 H   0  0  0  0  0  0  0  0  0  0  0  0
  145.8301  139.9337  153.4472 H   0  0  0  0  0  0  0  0  0  0  0  0
  149.7484  137.6009  157.9904 H   0  0  0  0  0  0  0  0  0  0  0  0
  148.3209  140.9805  157.3752 H   0  0  0  0  0  0  0  0  0  0  0  0
  149.4757  140.1297  158.3684 H   0  0  0  0  0  0  0  0  0  0  0  0
  151.0325  140.1070  156.3012 H   0  0  0  0  0  0  0  0  0  0  0  0
  150.6018  141.9709  154.6223 H   0  0  0  0  0  0  0  0  0  0  0  0
  149.4732  140.6361  154.5172 H   0  0  0  0  0  0  0  0  0  0  0  0
  149.0674  143.2019  155.4602 H   0  0  0  0  0  0  0  0  0  0  0  0
  151.8342  142.4636  156.6654 H   0  0  0  0  0  0  0  0  0  0  0  0
  151.4242  140.6310  159.0325 H   0  0  0  0  0  0  0  0  0  0  0  0
  152.9262  141.0424  158.2047 H   0  0  0  0  0  0  0  0  0  0  0  0
  152.3071  142.3884  160.4380 H   0  0  0  0  0  0  0  0  0  0  0  0
  152.7883  143.3537  159.0322 H   0  0  0  0  0  0  0  0  0  0  0  0
  150.4797  144.0351  157.4478 H   0  0  0  0  0  0  0  0  0  0  0  0
  149.2302  142.9101  157.9529 H   0  0  0  0  0  0  0  0  0  0  0  0
  143.4666  134.9902  151.2837 H   0  0  0  0  0  0  0  0  0  0  0  0
  142.8175  134.9904  152.9347 H   0  0  0  0  0  0  0  0  0  0  0  0
  142.1875  133.8666  151.7445 H   0  0  0  0  0  0  0  0  0  0  0  0
  144.1475  132.7805  150.4524 H   0  0  0  0  0  0  0  0  0  0  0  0
  143.7134  131.4720  151.5392 H   0  0  0  0  0  0  0  0  0  0  0  0
  143.6956  132.8380  153.2634 H   0  0  0  0  0  0  0  0  0  0  0  0
  1  2  1  0  0  0  0
  1 32  1  0  0  0  0
  1 33  1  0  0  0  0
  1 34  1  0  0  0  0
  2  3  1  0  0  0  0
  3 30  1  0  0  0  0
  3 29  1  0  0  0  0
  3  4  1  0  0  0  0
  4  5  1  0  0  0  0
  4 35  1  0  0  0  0
  4 36  1  0  0  0  0
  5 31  1  0  0  0  0
  5  6  1  0  0  0  0
  5 27  1  0  0  0  0
  6  7  1  0  0  0  0
  6 37  1  0  0  0  0
  6 38  1  0  0  0  0
  7  8  1  0  0  0  0
  7  9  1  0  0  0  0
  8 39  1  0  0  0  0
  8 40  1  0  0  0  0
  8 41  1  0  0  0  0
  9 14  1  0  0  0  0
  9 10  2  0  0  0  0
 10 11  1  0  0  0  0
 11 12  2  0  0  0  0
 11 42  1  0  0  0  0
 12 13  1  0  0  0  0
 13 17  1  0  0  0  0
 13 14  2  0  0  0  0
 14 15  1  0  0  0  0
 15 16  2  0  0  0  0
 16 17  1  0  0  0  0
 16 43  1  0  0  0  0
 17 18  1  0  0  0  0
 18 19  1  0  0  0  0
 18 44  1  0  0  0  0
 18 45  1  0  0  0  0
 19 20  1  0  0  0  0
 19 22  1  0  0  0  0
 19 46  1  0  0  0  0
 20 21  1  0  0  0  0
 20 47  1  0  0  0  0
 20 48  1  0  0  0  0
 21 49  1  0  0  0  0
 22 26  1  0  0  0  0
 22 23  1  0  0  0  0
 22 50  1  0  0  0  0
 23 24  1  0  0  0  0
 23 51  1  0  0  0  0
 23 52  1  0  0  0  0
 24 25  1  0  0  0  0
 24 53  1  0  0  0  0
 24 54  1  0  0  0  0
 25 26  1  0  0  0  0
 26 55  1  0  0  0  0
 26 56  1  0  0  0  0
 27 28  1  0  0  0  0
 27 29  1  0  0  0  0
 27 62  1  0  0  0  0
 28 57  1  0  0  0  0
 28 58  1  0  0  0  0
 28 59  1  0  0  0  0
 29 60  1  0  0  0  0
 29 61  1  0  0  0  0
M  CHG  1  27   1
M  END
> <s_m_source_file>
AV-unprocessed.smi

> <i_m_source_file_index>
21

> <i_lp_mmshare_version>
43012

> <i_f3d_flags>
0

> <s_epik_input>
W0NIM11PW0NASF0xW0NIMl1bQ0BIXShOKFtDSDNdKVtDSDJdMSlbQ0gyXU4oW0NIM10pYyhuW2NIXW4yKWMoYzIzKW5bY0hdbjNbQ0gyXVtDQEhdKFtDSDJdW09IXSlbQ0BASF00W0NIMl1bQ0gyXU9bQ0gyXTQ=

> <s_epik_cmdline>
J2VwaWtfcHl0aG9uJywgJy1waCcsICc3LjAnLCAnLXRuJywgJzgnLCAnLW1hJywgJzIwMCcsICctbWV0YWxfYmluZGluZycsICctaW1hZScsICc8aW5maWxlLm1hZT4nLCAnLW9tYWUnLCAnPG91dGZpbGUubWFlPic=

> <r_lp_tautomer_probability>
1

> <r_epik_Ionization_Penalty>
0.0157465

> <r_epik_Ionization_Penalty_Charging>
0.015354

> <r_epik_Ionization_Penalty_Neutral>
0.000392529

> <r_epik_State_Penalty>
0.0120612

> <r_epik_Charging_Adjusted_Penalty>
0.0274152

> <i_epik_Tot_Q>
1

> <i_epik_Tot_abs_Q>
1

> <r_epik_Metal_State_Penalty>
0.0121253

> <b_epik_Metal_Only>
0

> <s_lp_Force_Field>
OPLS_2005

> <r_lp_Energy>
62.7223

> <b_lp_Chiralities_Consistent>
1

> <s_lp_Variant>
AV-unprocessed.smi:21-22

> <Gold.Version>
5.8.1

> <Gold.Id.Protein>
6NUR|6NUR_protein|mol2

> <Gold.PLP.Fitness>
45.0886

> <Gold.PLP.PLP>
-35.0509

> <Gold.PLP.part.hbond>
-2.2894

> <Gold.PLP.part.metal>
0.0000

> <Gold.PLP.part.buried>
-7.7029

> <Gold.PLP.part.nonpolar>
-25.9398

> <Gold.PLP.part.repulsive>
0.3444

> <Gold.PLP.ligand.clash>
0.0000

> <Gold.PLP.ligand.torsion>
1.2277

> <Gold.PLP.Chemscore.Hbond>
3.0000

> <Gold.PLP.Chemscore.CHOScore>
1.0000

> <Gold.PLP.Chemscore.Metal>
0.0000

> <Gold.Chemscore.Hbonds>
donor molecule, donor type, donor heavy atom, donor atom, acceptor molecule, acceptor atom, score
      L1  H    21    49       P1  8028  1.00
      L1  H    27    62       P1 10957  1.56
      L1  C    11    42       P1 10175  1.00

> <Gold.PLP.Chemscore.Internal.Correction>
0.4930

> <Gold.Rescore>
     Score         DG    S(hbond)    S(metal)    S(lipo)     H(rot)  DE(clash)    DE(int)     intcor
     12.50     -14.65       1.89        0.00      91.78       3.08       0.00       2.15       ----

> <Gold.Chemscore.Fitness>
12.5024

> <Gold.Chemscore.DG>
-14.6530

> <Gold.Chemscore.ZeroCoef>
-5.4800

> <Gold.Chemscore.Hbond>
1.8890

> <Gold.Chemscore.Metal>
0.0000

> <Gold.Chemscore.Lipo>
91.7765

> <Gold.Chemscore.Internal_Hbond>
0.0000

> <Gold.Chemscore.DEClash>
0.0004

> <Gold.Chemscore.DEInternal>
2.1502

> <Gold.Chemscore.Rot>
3.0758

> <Gold.Chemscore.Internal.Correction>
   9.000000E+99

> <Gold.Chemscore.Hbonds>
donor molecule, donor type, donor heavy atom, donor atom, acceptor molecule, acceptor atom, score
      L1  H    21    49       P1  8028  0.90
      L1  H    27    62       P1 10957  0.42

> <Gold.Chemscore.Hbond.Weighted>
-6.3093

> <Gold.Chemscore.Metal.Weighted>
-0.0000

> <Gold.Chemscore.Lipo.Weighted>
-10.7378

> <Gold.Chemscore.Internal_Hbond.Weighted>
0.0000

> <Gold.Chemscore.DEClash.Weighted>
0.0004

> <Gold.Chemscore.DEInternal.Weighted>
2.1502

> <Gold.Chemscore.Rot.Weighted>
7.8741

> <Gold.Chemscore.Internal.Correction.Weighted>
   9.000000E+99

> <Gold.Protein.RotatedTorsions>
[ 6907 6896 6895 6894 ] final    7.42 input  -60.11 | X-H torsion
[ 7974 7965 7964 7962 ] final  -58.04 input  175.53 | X-H torsion
[ 8008 7997 7996 7995 ] final   16.88 input   59.86 | X-H torsion
[ 10167 10162 10161 10158 ] final -169.43 input  -65.29 | X-H torsion
[ 10718 10713 10712 10709 ] final    2.33 input   66.30 | X-H torsion
[ 10763 10752 10751 10750 ] final   64.60 input  -60.55 | X-H torsion
[ 11005 11000 10999 10996 ] final    2.78 input  -57.11 | X-H torsion

> <Gold.Protein.ActiveResidues>
 VAL166  LYS551  ARG553  GLY616  TRP617  ASP618  TYR619  PRO620  LYS621  CYS622 
 ASP623  PHE694  ASN695  SER759  ASP760  ASP761  ALA762  ILE779  LEU786  VAL792 
 PHE793  MET794  SER795  GLU796  ALA797  LYS798  CYS799  TRP800  GLU811  SER814 

> <Gold.Protein.RotatedAtoms>
  151.6895  135.0949  160.0230 H   0  0  0  0  0  0  0  0  0  0  0  0  # atno 6907 bound_to 6896
  152.3787  133.6512  159.6152 H   0  0  0  0  0  0  0  0  0  0  0  0  # atno 6908 bound_to 6896
  150.7729  133.9067  159.3398 H   0  0  0  0  0  0  0  0  0  0  0  0  # atno 6909 bound_to 6896
  145.8439  140.8398  143.0020 H   0  0  0  0  0  0  0  0  0  0  0  0  # atno 7974 bound_to 7965
  154.8834  140.2976  155.5412 H   0  0  0  0  0  0  0  0  0  0  0  0  # atno 8008 bound_to 7997
  156.3022  140.2438  156.3773 H   0  0  0  0  0  0  0  0  0  0  0  0  # atno 8009 bound_to 7997
  154.8693  140.0402  157.1704 H   0  0  0  0  0  0  0  0  0  0  0  0  # atno 8010 bound_to 7997
  139.5923  144.1186  152.1649 H   0  0  0  0  0  0  0  0  0  0  0  0  # atno 10167 bound_to 10162
  156.8614  130.5588  149.5662 H   0  0  0  0  0  0  0  0  0  0  0  0  # atno 10718 bound_to 10713
  153.0062  135.5387  154.6535 H   0  0  0  0  0  0  0  0  0  0  0  0  # atno 10763 bound_to 10752
  154.5761  135.2846  155.0781 H   0  0  0  0  0  0  0  0  0  0  0  0  # atno 10764 bound_to 10752
  154.1928  135.6497  153.5117 H   0  0  0  0  0  0  0  0  0  0  0  0  # atno 10765 bound_to 10752
  140.6005  133.9840  155.8130 H   0  0  0  0  0  0  0  0  0  0  0  0  # atno 11005 bound_to 11000
  144.6732  140.0853  143.7467 LP  0  0  0  0  0  0  0  0  0  0  0  0  # atno 17320 bound_to 7965
  145.9434  139.2684  143.1255 LP  0  0  0  0  0  0  0  0  0  0  0  0  # atno 17321 bound_to 7965
  140.0763  144.5737  150.7154 LP  0  0  0  0  0  0  0  0  0  0  0  0  # atno 17342 bound_to 10162
  140.7183  143.2565  151.4361 LP  0  0  0  0  0  0  0  0  0  0  0  0  # atno 17343 bound_to 10162
  156.0774  130.5793  150.9500 LP  0  0  0  0  0  0  0  0  0  0  0  0  # atno 17370 bound_to 10713
  157.6248  131.0926  150.8555 LP  0  0  0  0  0  0  0  0  0  0  0  0  # atno 17371 bound_to 10713
  141.0875  133.9968  157.3290 LP  0  0  0  0  0  0  0  0  0  0  0  0  # atno 17394 bound_to 11000
  139.9234  135.0201  156.8148 LP  0  0  0  0  0  0  0  0  0  0  0  0  # atno 17395 bound_to 11000

$$$$
