AV-unprocessed.smi:72|AV-procd|sdf|678|dock10
  -GOLD-   2262016583D 1   1.00000     0.00000
 Structure written by MMmdl.
 29 30  0  0  0  0  0  0  0  0  1 V2000
  150.7299  143.5710  157.6387 N   0  0  0  0  0  0  0  0  0  0  0  0
  150.7215  142.4747  156.9677 C   0  0  0  0  0  0  0  0  0  0  0  0
  151.3777  141.2915  157.3403 N   0  0  0  0  0  0  0  0  0  0  0  0
  151.2949  140.2610  156.5563 C   0  0  0  0  0  0  0  0  0  0  0  0
  150.5500  140.2949  155.3077 N   0  0  0  0  0  0  0  0  0  0  0  0
  150.4733  139.0767  154.4167 C   0  0  1  0  0  0  0  0  0  0  0  0
  151.2342  138.0536  154.9873 O   0  0  0  0  0  0  0  0  0  0  0  0
  150.5192  136.8250  154.9139 C   0  0  1  0  0  0  0  0  0  0  0  0
  151.0014  135.8782  156.0237 C   0  0  0  0  0  0  0  0  0  0  0  0
  152.3227  136.2032  156.3991 O   0  0  0  0  0  0  0  0  0  0  0  0
  149.0688  137.2808  155.0846 C   0  0  2  0  0  0  0  0  0  0  0  0
  148.1280  136.3188  154.6455 O   0  0  0  0  0  0  0  0  0  0  0  0
  149.0235  138.5825  154.2886 C   0  0  2  0  0  0  0  0  0  0  0  0
  148.6792  138.3791  152.9306 O   0  0  0  0  0  0  0  0  0  0  0  0
  149.8559  141.4703  154.9317 C   0  0  0  0  0  0  0  0  0  0  0  0
  149.1759  141.5416  153.9083 O   0  0  0  0  0  0  0  0  0  0  0  0
  149.9807  142.5156  155.7782 N   0  0  0  0  0  0  0  0  0  0  0  0
  150.9283  139.3492  153.4631 H   0  0  0  0  0  0  0  0  0  0  0  0
  150.6538  136.3839  153.9240 H   0  0  0  0  0  0  0  0  0  0  0  0
  148.8787  137.5015  156.1360 H   0  0  0  0  0  0  0  0  0  0  0  0
  148.3211  139.2964  154.7211 H   0  0  0  0  0  0  0  0  0  0  0  0
  150.1848  144.2793  157.1698 H   0  0  0  0  0  0  0  0  0  0  0  0
  151.7729  139.3070  156.7822 H   0  0  0  0  0  0  0  0  0  0  0  0
  150.3402  135.9133  156.8901 H   0  0  0  0  0  0  0  0  0  0  0  0
  151.0086  134.8494  155.6627 H   0  0  0  0  0  0  0  0  0  0  0  0
  152.4962  135.8241  157.2471 H   0  0  0  0  0  0  0  0  0  0  0  0
  148.2147  136.2196  153.7099 H   0  0  0  0  0  0  0  0  0  0  0  0
  149.1432  139.0130  152.4052 H   0  0  0  0  0  0  0  0  0  0  0  0
  149.5033  143.3707  155.5339 H   0  0  0  0  0  0  0  0  0  0  0  0
  1  2  2  0  0  0  0
  1 22  1  0  0  0  0
  2 17  1  0  0  0  0
  2  3  1  0  0  0  0
  3  4  2  0  0  0  0
  4  5  1  0  0  0  0
  4 23  1  0  0  0  0
  5  6  1  0  0  0  0
  5 15  1  0  0  0  0
  6 18  1  0  0  0  0
  6 13  1  0  0  0  0
  6  7  1  0  0  0  0
  7  8  1  0  0  0  0
  8 19  1  0  0  0  0
  8  9  1  0  0  0  0
  8 11  1  0  0  0  0
  9 10  1  0  0  0  0
  9 24  1  0  0  0  0
  9 25  1  0  0  0  0
 10 26  1  0  0  0  0
 11 20  1  0  0  0  0
 11 12  1  0  0  0  0
 11 13  1  0  0  0  0
 12 27  1  0  0  0  0
 13 21  1  0  0  0  0
 13 14  1  0  0  0  0
 14 28  1  0  0  0  0
 15 16  2  0  0  0  0
 15 17  1  0  0  0  0
 17 29  1  0  0  0  0
M  END
> <s_m_source_file>
AV-unprocessed.smi

> <i_m_source_file_index>
72

> <i_lp_mmshare_version>
43012

> <i_f3d_flags>
0

> <s_epik_input>
W05IMl1jMW5bY0hdbihjKD1PKW4xKVtDQEBIXTJPW0NASF0oW0NIMl1bT0hdKVtDQEBIXShbT0hdKVtDQEhdMltPSF0=

> <s_epik_cmdline>
J2VwaWtfcHl0aG9uJywgJy1waCcsICc3LjAnLCAnLXRuJywgJzgnLCAnLW1hJywgJzIwMCcsICctbWV0YWxfYmluZGluZycsICctaW1hZScsICc8aW5maWxlLm1hZT4nLCAnLW9tYWUnLCAnPG91dGZpbGUubWFlPic=

> <r_lp_tautomer_probability>
7.17554e-07

> <r_epik_Ionization_Penalty>
0.0066451

> <r_epik_Ionization_Penalty_Charging>
0.00663793

> <r_epik_Ionization_Penalty_Neutral>
7.17052e-06

> <r_epik_State_Penalty>
0.419231

> <r_epik_Charging_Adjusted_Penalty>
0.425868

> <i_epik_Tot_Q>
0

> <i_epik_Tot_abs_Q>
0

> <r_epik_Metal_State_Penalty>
1.44144

> <b_epik_Metal_Only>
0

> <s_epik_Chemistry_Notes>
This compound contains an acetal/aminal-like group ( X-CH(R)-Y where X, Y are N, S, or O) that may be acid/base labile, releasing an aldehyde.

> <s_lp_Force_Field>
OPLS_2005

> <r_lp_Energy>
43.4665

> <b_lp_Chiralities_Consistent>
1

> <s_lp_Variant>
AV-unprocessed.smi:72-16

> <Gold.Version>
5.8.1

> <Gold.Id.Protein>
6NUR|6NUR_protein|mol2

> <Gold.PLP.Fitness>
42.1614

> <Gold.PLP.PLP>
-26.2127

> <Gold.PLP.part.hbond>
-6.9510

> <Gold.PLP.part.metal>
0.0000

> <Gold.PLP.part.buried>
-3.3408

> <Gold.PLP.part.nonpolar>
-17.3184

> <Gold.PLP.part.repulsive>
0.4748

> <Gold.PLP.ligand.clash>
0.0000

> <Gold.PLP.ligand.torsion>
0.5261

> <Gold.PLP.Chemscore.Hbond>
5.6623

> <Gold.PLP.Chemscore.CHOScore>
0.0000

> <Gold.PLP.Chemscore.Metal>
0.0000

> <Gold.Chemscore.Hbonds>
donor molecule, donor type, donor heavy atom, donor atom, acceptor molecule, acceptor atom, score
      L1  H     1    22       P1  8028  0.98
      L1  H    12    27       P1  7948  1.00
      L1  H    14    28       P1  7957  1.00
      L1  H    17    29       P1  8028  0.89
      P1  H  8011  8017       L1    16  0.69
      P1  H 10752 10765       L1    10  1.00

> <Gold.PLP.Chemscore.Internal.Correction>
0.0140

> <Gold.Rescore>
     Score         DG    S(hbond)    S(metal)    S(lipo)     H(rot)  DE(clash)    DE(int)     intcor
     11.42     -13.38       4.85        0.00      17.99       4.06       0.41       1.55       ----

> <Gold.Chemscore.Fitness>
11.4198

> <Gold.Chemscore.DG>
-13.3771

> <Gold.Chemscore.ZeroCoef>
-5.4800

> <Gold.Chemscore.Hbond>
4.8462

> <Gold.Chemscore.Metal>
0.0000

> <Gold.Chemscore.Lipo>
17.9854

> <Gold.Chemscore.Internal_Hbond>
0.0000

> <Gold.Chemscore.DEClash>
0.4115

> <Gold.Chemscore.DEInternal>
1.5458

> <Gold.Chemscore.Rot>
4.0600

> <Gold.Chemscore.Internal.Correction>
   9.000000E+99

> <Gold.Chemscore.Hbonds>
donor molecule, donor type, donor heavy atom, donor atom, acceptor molecule, acceptor atom, score
      L1  H     1    22       P1  8028  0.70
      L1  H    12    27       P1  7948  0.97
      L1  H    14    28       P1  7957  0.97
      L1  H    17    29       P1  8028  0.85
      P1  H  8011  8017       L1    16  0.69
      P1  H 10752 10765       L1    10  0.36

> <Gold.Chemscore.Hbond.Weighted>
-16.1864

> <Gold.Chemscore.Metal.Weighted>
-0.0000

> <Gold.Chemscore.Lipo.Weighted>
-2.1043

> <Gold.Chemscore.Internal_Hbond.Weighted>
0.0000

> <Gold.Chemscore.DEClash.Weighted>
0.4115

> <Gold.Chemscore.DEInternal.Weighted>
1.5458

> <Gold.Chemscore.Rot.Weighted>
10.3936

> <Gold.Chemscore.Internal.Correction.Weighted>
   9.000000E+99

> <Gold.Protein.RotatedTorsions>
[ 6907 6896 6895 6894 ] final   -9.63 input  -60.11 | X-H torsion
[ 7974 7965 7964 7962 ] final  -26.12 input  175.53 | X-H torsion
[ 8008 7997 7996 7995 ] final -120.42 input   59.86 | X-H torsion
[ 10167 10162 10161 10158 ] final  141.44 input  -65.29 | X-H torsion
[ 10718 10713 10712 10709 ] final  153.92 input   66.30 | X-H torsion
[ 10763 10752 10751 10750 ] final -128.50 input  -60.55 | X-H torsion
[ 11005 11000 10999 10996 ] final   56.08 input  -57.11 | X-H torsion

> <Gold.Protein.ActiveResidues>
 VAL166  LYS551  ARG553  GLY616  TRP617  ASP618  TYR619  PRO620  LYS621  CYS622 
 ASP623  PHE694  ASN695  SER759  ASP760  ASP761  ALA762  ILE779  LEU786  VAL792 
 PHE793  MET794  SER795  GLU796  ALA797  LYS798  CYS799  TRP800  GLU811  SER814 

> <Gold.Protein.RotatedAtoms>
  151.4147  135.0990  159.9595 H   0  0  0  0  0  0  0  0  0  0  0  0  # atno 6907 bound_to 6896
  152.5008  133.8764  159.7335 H   0  0  0  0  0  0  0  0  0  0  0  0  # atno 6908 bound_to 6896
  150.9267  133.6758  159.2848 H   0  0  0  0  0  0  0  0  0  0  0  0  # atno 6909 bound_to 6896
  146.1446  140.4977  142.8637 H   0  0  0  0  0  0  0  0  0  0  0  0  # atno 7974 bound_to 7965
  155.1315  140.0400  157.2776 H   0  0  0  0  0  0  0  0  0  0  0  0  # atno 8008 bound_to 7997
  154.6539  140.2575  155.7157 H   0  0  0  0  0  0  0  0  0  0  0  0  # atno 8009 bound_to 7997
  156.2589  140.2830  156.0984 H   0  0  0  0  0  0  0  0  0  0  0  0  # atno 8010 bound_to 7997
  139.5020  144.6171  151.6138 H   0  0  0  0  0  0  0  0  0  0  0  0  # atno 10167 bound_to 10162
  157.2384  131.0754  151.1808 H   0  0  0  0  0  0  0  0  0  0  0  0  # atno 10718 bound_to 10713
  154.8756  135.3926  154.3766 H   0  0  0  0  0  0  0  0  0  0  0  0  # atno 10763 bound_to 10752
  153.4519  135.7028  153.6109 H   0  0  0  0  0  0  0  0  0  0  0  0  # atno 10764 bound_to 10752
  153.4645  135.3804  155.2325 H   0  0  0  0  0  0  0  0  0  0  0  0  # atno 10765 bound_to 10752
  140.0557  134.5674  155.9211 H   0  0  0  0  0  0  0  0  0  0  0  0  # atno 11005 bound_to 11000
  144.7832  140.5883  143.6591 LP  0  0  0  0  0  0  0  0  0  0  0  0  # atno 17320 bound_to 7965
  145.4967  139.1485  143.3680 LP  0  0  0  0  0  0  0  0  0  0  0  0  # atno 17321 bound_to 7965
  140.5862  143.9859  150.6297 LP  0  0  0  0  0  0  0  0  0  0  0  0  # atno 17342 bound_to 10162
  140.3025  143.3251  152.0958 LP  0  0  0  0  0  0  0  0  0  0  0  0  # atno 17343 bound_to 10162
  157.3404  130.7030  149.6378 LP  0  0  0  0  0  0  0  0  0  0  0  0  # atno 17370 bound_to 10713
  155.9671  130.4281  150.4775 LP  0  0  0  0  0  0  0  0  0  0  0  0  # atno 17371 bound_to 10713
  141.1951  133.6585  156.5626 LP  0  0  0  0  0  0  0  0  0  0  0  0  # atno 17394 bound_to 11000
  140.3848  134.7492  157.4684 LP  0  0  0  0  0  0  0  0  0  0  0  0  # atno 17395 bound_to 11000

$$$$
