AV-unprocessed.smi:3156|AV-procd|sdf|12033|dock1
  -GOLD-   2272017453D 1   1.00000     0.00000
 Structure written by MMmdl.
 41 42  0  0  0  0  0  0  0  0  2 V2000
  149.5300  139.8340  154.8477 C   0  0  0  0  0  0  0  0  0  0  0  0
  148.9005  141.2415  154.7720 C   0  0  2  0  0  0  0  0  0  0  0  0
  149.2784  142.0329  155.9656 N   0  3  0  0  0  0  0  0  0  0  0  0
  150.6595  141.8284  156.4516 C   0  0  0  0  0  0  0  0  0  0  0  0
  150.8677  142.5057  157.8134 C   0  0  2  0  0  0  0  0  0  0  0  0
  151.4347  143.9311  157.6639 C   0  0  0  0  0  0  0  0  0  0  0  0
  151.7286  144.5423  159.0388 C   0  0  0  0  0  0  0  0  0  0  0  0
  152.6217  143.5940  159.8451 C   0  0  0  0  0  0  0  0  0  0  0  0
  152.0060  142.1868  159.8849 C   0  0  0  0  0  0  0  0  0  0  0  0
  151.7913  141.7139  158.5584 O   0  0  0  0  0  0  0  0  0  0  0  0
  147.3540  141.2052  154.6372 C   0  0  1  0  0  0  0  0  0  0  0  0
  146.7789  142.5217  154.0787 C   0  0  0  0  0  0  0  0  0  0  0  0
  146.8937  140.0794  153.8331 N   0  0  0  0  0  0  0  0  0  0  0  0
  147.1754  139.8030  152.5108 C   0  0  0  0  0  0  0  0  0  0  0  0
  146.5219  138.6488  152.1863 C   0  0  0  0  0  0  0  0  0  0  0  0
  145.8612  138.2835  153.3920 C   0  0  0  0  0  0  0  0  0  0  0  0
  146.0851  139.1403  154.3752 N   0  0  0  0  0  0  0  0  0  0  0  0
  149.3260  139.2492  153.9508 H   0  0  0  0  0  0  0  0  0  0  0  0
  149.1453  139.2748  155.7012 H   0  0  0  0  0  0  0  0  0  0  0  0
  150.6142  139.8787  154.9446 H   0  0  0  0  0  0  0  0  0  0  0  0
  149.3005  141.7452  153.8903 H   0  0  0  0  0  0  0  0  0  0  0  0
  149.1892  143.0098  155.7253 H   0  0  0  0  0  0  0  0  0  0  0  0
  150.8855  140.7650  156.5298 H   0  0  0  0  0  0  0  0  0  0  0  0
  151.3503  142.2509  155.7209 H   0  0  0  0  0  0  0  0  0  0  0  0
  149.9135  142.5492  158.3424 H   0  0  0  0  0  0  0  0  0  0  0  0
  152.3527  143.9028  157.0751 H   0  0  0  0  0  0  0  0  0  0  0  0
  150.7332  144.5633  157.1185 H   0  0  0  0  0  0  0  0  0  0  0  0
  152.2075  145.5157  158.9290 H   0  0  0  0  0  0  0  0  0  0  0  0
  150.7935  144.7108  159.5746 H   0  0  0  0  0  0  0  0  0  0  0  0
  153.6114  143.5451  159.3890 H   0  0  0  0  0  0  0  0  0  0  0  0
  152.7620  143.9751  160.8571 H   0  0  0  0  0  0  0  0  0  0  0  0
  152.6772  141.4990  160.3995 H   0  0  0  0  0  0  0  0  0  0  0  0
  151.0663  142.1876  160.4388 H   0  0  0  0  0  0  0  0  0  0  0  0
  146.9349  141.0625  155.6350 H   0  0  0  0  0  0  0  0  0  0  0  0
  146.9964  143.3652  154.7338 H   0  0  0  0  0  0  0  0  0  0  0  0
  145.6946  142.4627  153.9787 H   0  0  0  0  0  0  0  0  0  0  0  0
  147.1893  142.7527  153.0951 H   0  0  0  0  0  0  0  0  0  0  0  0
  147.8082  140.4445  151.9153 H   0  0  0  0  0  0  0  0  0  0  0  0
  146.5175  138.1418  151.2329 H   0  0  0  0  0  0  0  0  0  0  0  0
  145.2292  137.4279  153.5802 H   0  0  0  0  0  0  0  0  0  0  0  0
  148.6301  141.8278  156.7127 H   0  0  0  0  0  0  0  0  0  0  0  0
  1  2  1  0  0  0  0
  1 18  1  0  0  0  0
  1 19  1  0  0  0  0
  1 20  1  0  0  0  0
  2  3  1  0  0  0  0
  2 11  1  0  0  0  0
  2 21  1  0  0  0  0
  3  4  1  0  0  0  0
  3 22  1  0  0  0  0
  3 41  1  0  0  0  0
  4  5  1  0  0  0  0
  4 23  1  0  0  0  0
  4 24  1  0  0  0  0
  5 10  1  0  0  0  0
  5  6  1  0  0  0  0
  5 25  1  0  0  0  0
  6  7  1  0  0  0  0
  6 26  1  0  0  0  0
  6 27  1  0  0  0  0
  7  8  1  0  0  0  0
  7 28  1  0  0  0  0
  7 29  1  0  0  0  0
  8  9  1  0  0  0  0
  8 30  1  0  0  0  0
  8 31  1  0  0  0  0
  9 10  1  0  0  0  0
  9 32  1  0  0  0  0
  9 33  1  0  0  0  0
 11 12  1  0  0  0  0
 11 13  1  0  0  0  0
 11 34  1  0  0  0  0
 12 35  1  0  0  0  0
 12 36  1  0  0  0  0
 12 37  1  0  0  0  0
 13 17  1  0  0  0  0
 13 14  1  0  0  0  0
 14 15  2  0  0  0  0
 14 38  1  0  0  0  0
 15 16  1  0  0  0  0
 15 39  1  0  0  0  0
 16 17  2  0  0  0  0
 16 40  1  0  0  0  0
M  CHG  1   3   1
M  END
> <s_m_source_file>
AV-unprocessed.smi

> <i_m_source_file_index>
3156

> <i_lp_mmshare_version>
43012

> <i_f3d_flags>
0

> <s_epik_input>
bjFbY0hdW2NIXVtjSF1uMVtDQEBIXShbQ0gzXSlbQ0BIXShbQ0gzXSlbTkhdW0NIMl1bQ0BASF0yW0NIMl1bQ0gyXVtDSDJdW0NIMl1PMg==

> <s_epik_cmdline>
J2VwaWtfcHl0aG9uJywgJy1waCcsICc3LjAnLCAnLXRuJywgJzgnLCAnLW1hJywgJzIwMCcsICctbWV0YWxfYmluZGluZycsICctaW1hZScsICc8aW5maWxlLm1hZT4nLCAnLW9tYWUnLCAnPG91dGZpbGUubWFlPic=

> <r_lp_tautomer_probability>
1

> <r_epik_Ionization_Penalty>
0.00658015

> <r_epik_Ionization_Penalty_Charging>
0.00656881

> <r_epik_Ionization_Penalty_Neutral>
1.13431e-05

> <r_epik_State_Penalty>
0.0048654

> <r_epik_Charging_Adjusted_Penalty>
0.0114342

> <i_epik_Tot_Q>
1

> <i_epik_Tot_abs_Q>
1

> <r_epik_Metal_State_Penalty>
-0

> <b_epik_Metal_Only>
0

> <s_lp_Force_Field>
OPLS_2005

> <r_lp_Energy>
17.6132

> <b_lp_Chiralities_Consistent>
1

> <s_lp_Variant>
AV-unprocessed.smi:3156-5

> <Gold.Version>
5.8.1

> <Gold.Id.Protein>
6NUR|6NUR_protein|mol2

> <Gold.PLP.Fitness>
47.8061

> <Gold.PLP.PLP>
-41.2817

> <Gold.PLP.part.hbond>
-1.0000

> <Gold.PLP.part.metal>
0.0000

> <Gold.PLP.part.buried>
-2.3022

> <Gold.PLP.part.nonpolar>
-39.4704

> <Gold.PLP.part.repulsive>
0.2282

> <Gold.PLP.ligand.clash>
0.0000

> <Gold.PLP.ligand.torsion>
1.0807

> <Gold.PLP.Chemscore.Hbond>
2.0000

> <Gold.PLP.Chemscore.CHOScore>
0.8701

> <Gold.PLP.Chemscore.Metal>
0.0000

> <Gold.Chemscore.Hbonds>
donor molecule, donor type, donor heavy atom, donor atom, acceptor molecule, acceptor atom, score
      L1  H     3    22       P1  8028  2.00
      L1  C    14    38       P1  7957  0.82

> <Gold.PLP.Chemscore.Internal.Correction>
0.0756

> <Gold.Rescore>
     Score         DG    S(hbond)    S(metal)    S(lipo)     H(rot)  DE(clash)    DE(int)     intcor
     15.63     -17.46       1.00        0.00     108.83       1.59       0.96       0.87       ----

> <Gold.Chemscore.Fitness>
15.6335

> <Gold.Chemscore.DG>
-17.4615

> <Gold.Chemscore.ZeroCoef>
-5.4800

> <Gold.Chemscore.Hbond>
0.9966

> <Gold.Chemscore.Metal>
0.0000

> <Gold.Chemscore.Lipo>
108.8307

> <Gold.Chemscore.Internal_Hbond>
0.0000

> <Gold.Chemscore.DEClash>
0.9629

> <Gold.Chemscore.DEInternal>
0.8651

> <Gold.Chemscore.Rot>
1.5938

> <Gold.Chemscore.Internal.Correction>
   9.000000E+99

> <Gold.Chemscore.Hbonds>
donor molecule, donor type, donor heavy atom, donor atom, acceptor molecule, acceptor atom, score
      L1  H     3    22       P1  8028  1.00

> <Gold.Chemscore.Hbond.Weighted>
-3.3286

> <Gold.Chemscore.Metal.Weighted>
-0.0000

> <Gold.Chemscore.Lipo.Weighted>
-12.7332

> <Gold.Chemscore.Internal_Hbond.Weighted>
0.0000

> <Gold.Chemscore.DEClash.Weighted>
0.9629

> <Gold.Chemscore.DEInternal.Weighted>
0.8651

> <Gold.Chemscore.Rot.Weighted>
4.0802

> <Gold.Chemscore.Internal.Correction.Weighted>
   9.000000E+99

> <Gold.Protein.RotatedTorsions>
[ 6907 6896 6895 6894 ] final  154.87 input  -60.11 | X-H torsion
[ 7974 7965 7964 7962 ] final   -1.96 input  175.53 | X-H torsion
[ 8008 7997 7996 7995 ] final    1.15 input   59.86 | X-H torsion
[ 10167 10162 10161 10158 ] final  -47.93 input  -65.29 | X-H torsion
[ 10718 10713 10712 10709 ] final -121.30 input   66.30 | X-H torsion
[ 10763 10752 10751 10750 ] final -109.54 input  -60.55 | X-H torsion
[ 11005 11000 10999 10996 ] final -167.31 input  -57.11 | X-H torsion

> <Gold.Protein.ActiveResidues>
 VAL166  LYS551  ARG553  GLY616  TRP617  ASP618  TYR619  PRO620  LYS621  CYS622 
 ASP623  PHE694  ASN695  SER759  ASP760  ASP761  ALA762  ILE779  LEU786  VAL792 
 PHE793  MET794  SER795  GLU796  ALA797  LYS798  CYS799  TRP800  GLU811  SER814 

> <Gold.Protein.RotatedAtoms>
  152.0524  133.4025  159.4382 H   0  0  0  0  0  0  0  0  0  0  0  0  # atno 6907 bound_to 6896
  150.6869  134.3293  159.4829 H   0  0  0  0  0  0  0  0  0  0  0  0  # atno 6908 bound_to 6896
  152.1105  134.9277  160.0617 H   0  0  0  0  0  0  0  0  0  0  0  0  # atno 6909 bound_to 6896
  146.2410  140.1500  142.8334 H   0  0  0  0  0  0  0  0  0  0  0  0  # atno 7974 bound_to 7965
  154.6764  140.2623  155.6954 H   0  0  0  0  0  0  0  0  0  0  0  0  # atno 8008 bound_to 7997
  156.2679  140.2819  156.1214 H   0  0  0  0  0  0  0  0  0  0  0  0  # atno 8009 bound_to 7997
  155.1095  140.0375  157.2710 H   0  0  0  0  0  0  0  0  0  0  0  0  # atno 8010 bound_to 7997
  140.6753  143.2762  151.3997 H   0  0  0  0  0  0  0  0  0  0  0  0  # atno 10167 bound_to 10162
  156.1326  130.6407  150.9645 H   0  0  0  0  0  0  0  0  0  0  0  0  # atno 10718 bound_to 10713
  154.8198  135.4597  154.0748 H   0  0  0  0  0  0  0  0  0  0  0  0  # atno 10763 bound_to 10752
  153.2110  135.6882  153.8120 H   0  0  0  0  0  0  0  0  0  0  0  0  # atno 10764 bound_to 10752
  153.7571  135.3289  155.3308 H   0  0  0  0  0  0  0  0  0  0  0  0  # atno 10765 bound_to 10752
  140.5547  134.5393  157.5130 H   0  0  0  0  0  0  0  0  0  0  0  0  # atno 11005 bound_to 11000
  145.0176  140.8766  143.5186 LP  0  0  0  0  0  0  0  0  0  0  0  0  # atno 17320 bound_to 7965
  145.1543  139.2496  143.5425 LP  0  0  0  0  0  0  0  0  0  0  0  0  # atno 17321 bound_to 7965
  139.6043  144.1230  152.2232 LP  0  0  0  0  0  0  0  0  0  0  0  0  # atno 17342 bound_to 10162
  140.0624  144.5845  150.7253 LP  0  0  0  0  0  0  0  0  0  0  0  0  # atno 17343 bound_to 10162
  157.6502  131.0898  150.8067 LP  0  0  0  0  0  0  0  0  0  0  0  0  # atno 17370 bound_to 10713
  156.8150  130.4965  149.5350 LP  0  0  0  0  0  0  0  0  0  0  0  0  # atno 17371 bound_to 10713
  139.9438  134.7740  156.0613 LP  0  0  0  0  0  0  0  0  0  0  0  0  # atno 17394 bound_to 11000
  141.1151  133.6630  156.3073 LP  0  0  0  0  0  0  0  0  0  0  0  0  # atno 17395 bound_to 11000

$$$$
