AV-unprocessed.smi:1001|AV-procd|sdf|4357|dock8
  -GOLD-   22720 2253D 1   1.00000     0.00000
 Structure written by MMmdl.
 47 48  0  0  0  0  0  0  0  0  1 V2000
  150.2332  130.6354  161.3635 N   0  0  0  0  0  0  0  0  0  0  0  0
  149.6578  131.5202  160.5400 C   0  0  0  0  0  0  0  0  0  0  0  0
  149.3198  131.2146  159.3971 O   0  0  0  0  0  0  0  0  0  0  0  0
  149.4555  132.8884  161.0922 C   0  0  0  0  0  0  0  0  0  0  0  0
  149.3857  133.0207  162.5377 C   0  0  0  0  0  0  0  0  0  0  0  0
  149.1995  134.2521  163.0612 C   0  0  0  0  0  0  0  0  0  0  0  0
  149.0694  135.4409  162.2173 C   0  0  0  0  0  0  0  0  0  0  0  0
  148.8971  136.5725  162.6699 O   0  0  0  0  0  0  0  0  0  0  0  0
  149.1577  135.1821  160.8767 N   0  0  0  0  0  0  0  0  0  0  0  0
  149.0675  136.2653  159.8868 C   0  0  0  0  0  0  0  0  0  0  0  0
  150.4012  136.9949  159.6691 C   0  0  0  0  0  0  0  0  0  0  0  0
  151.4018  136.6806  160.3152 O   0  0  0  0  0  0  0  0  0  0  0  0
  150.4014  137.9624  158.7396 N   0  0  0  0  0  0  0  0  0  0  0  0
  151.5503  138.7934  158.3993 C   0  0  0  0  0  0  0  0  0  0  0  0
  151.5609  140.0953  159.2174 C   0  0  0  0  0  0  0  0  0  0  0  0
  152.9184  140.8160  159.1621 C   0  0  0  0  0  0  0  0  0  0  0  0
  152.8984  142.2360  159.7652 C   0  0  0  0  0  0  0  0  0  0  0  0
  152.8373  142.2247  161.3089 C   0  0  0  0  0  0  0  0  0  0  0  0
  152.8065  143.6485  161.8882 C   0  0  0  0  0  0  0  0  0  0  0  0
  151.6396  144.4623  161.3102 C   0  0  0  0  0  0  0  0  0  0  0  0
  151.6894  144.4826  159.7752 C   0  0  0  0  0  0  0  0  0  0  0  0
  151.7212  143.0574  159.1993 C   0  0  0  0  0  0  0  0  0  0  0  0
  149.3433  133.9244  160.3252 N   0  0  0  0  0  0  0  0  0  0  0  0
  150.3960  129.6895  161.0501 H   0  0  0  0  0  0  0  0  0  0  0  0
  150.4998  130.9169  162.2959 H   0  0  0  0  0  0  0  0  0  0  0  0
  149.4798  132.1604  163.1842 H   0  0  0  0  0  0  0  0  0  0  0  0
  149.1464  134.3651  164.1339 H   0  0  0  0  0  0  0  0  0  0  0  0
  148.7370  135.8715  158.9241 H   0  0  0  0  0  0  0  0  0  0  0  0
  148.3001  136.9807  160.1892 H   0  0  0  0  0  0  0  0  0  0  0  0
  149.5392  138.1516  158.2491 H   0  0  0  0  0  0  0  0  0  0  0  0
  152.4755  138.2354  158.5519 H   0  0  0  0  0  0  0  0  0  0  0  0
  151.4989  139.0239  157.3349 H   0  0  0  0  0  0  0  0  0  0  0  0
  150.7742  140.7518  158.8460 H   0  0  0  0  0  0  0  0  0  0  0  0
  151.3145  139.8755  160.2570 H   0  0  0  0  0  0  0  0  0  0  0  0
  153.6448  140.2130  159.7086 H   0  0  0  0  0  0  0  0  0  0  0  0
  153.2747  140.8560  158.1320 H   0  0  0  0  0  0  0  0  0  0  0  0
  153.8197  142.7382  159.4662 H   0  0  0  0  0  0  0  0  0  0  0  0
  151.9523  141.6790  161.6391 H   0  0  0  0  0  0  0  0  0  0  0  0
  153.6961  141.6972  161.7228 H   0  0  0  0  0  0  0  0  0  0  0  0
  152.7268  143.6054  162.9747 H   0  0  0  0  0  0  0  0  0  0  0  0
  153.7487  144.1522  161.6677 H   0  0  0  0  0  0  0  0  0  0  0  0
  150.6938  144.0310  161.6403 H   0  0  0  0  0  0  0  0  0  0  0  0
  151.6681  145.4811  161.6978 H   0  0  0  0  0  0  0  0  0  0  0  0
  150.8271  145.0226  159.3834 H   0  0  0  0  0  0  0  0  0  0  0  0
  152.5733  145.0298  159.4452 H   0  0  0  0  0  0  0  0  0  0  0  0
  151.7912  143.1108  158.1124 H   0  0  0  0  0  0  0  0  0  0  0  0
  150.7795  142.5541  159.4229 H   0  0  0  0  0  0  0  0  0  0  0  0
  1  2  1  0  0  0  0
  1 24  1  0  0  0  0
  1 25  1  0  0  0  0
  2  3  2  0  0  0  0
  2  4  1  0  0  0  0
  4 23  2  0  0  0  0
  4  5  1  0  0  0  0
  5  6  2  0  0  0  0
  5 26  1  0  0  0  0
  6  7  1  0  0  0  0
  6 27  1  0  0  0  0
  7  8  2  0  0  0  0
  7  9  1  0  0  0  0
  9 10  1  0  0  0  0
  9 23  1  0  0  0  0
 10 11  1  0  0  0  0
 10 28  1  0  0  0  0
 10 29  1  0  0  0  0
 11 12  2  0  0  0  0
 11 13  1  0  0  0  0
 13 14  1  0  0  0  0
 13 30  1  0  0  0  0
 14 15  1  0  0  0  0
 14 31  1  0  0  0  0
 14 32  1  0  0  0  0
 15 16  1  0  0  0  0
 15 33  1  0  0  0  0
 15 34  1  0  0  0  0
 16 17  1  0  0  0  0
 16 35  1  0  0  0  0
 16 36  1  0  0  0  0
 17 22  1  0  0  0  0
 17 18  1  0  0  0  0
 17 37  1  0  0  0  0
 18 19  1  0  0  0  0
 18 38  1  0  0  0  0
 18 39  1  0  0  0  0
 19 20  1  0  0  0  0
 19 40  1  0  0  0  0
 19 41  1  0  0  0  0
 20 21  1  0  0  0  0
 20 42  1  0  0  0  0
 20 43  1  0  0  0  0
 21 22  1  0  0  0  0
 21 44  1  0  0  0  0
 21 45  1  0  0  0  0
 22 46  1  0  0  0  0
 22 47  1  0  0  0  0
M  END
> <s_m_source_file>
AV-unprocessed.smi

> <i_m_source_file_index>
1001

> <i_lp_mmshare_version>
43012

> <i_f3d_flags>
0

> <s_epik_input>
W05IMl1DKD1PKWMxW2NIXVtjSF1jKD1PKW4objEpW0NIMl1DKD1PKVtOSF1bQ0gyXVtDSDJdW0NIMl1bQ0hdMltDSDJdW0NIMl1bQ0gyXVtDSDJdW0NIMl0y

> <s_epik_cmdline>
J2VwaWtfcHl0aG9uJywgJy1waCcsICc3LjAnLCAnLXRuJywgJzgnLCAnLW1hJywgJzIwMCcsICctbWV0YWxfYmluZGluZycsICctaW1hZScsICc8aW5maWxlLm1hZT4nLCAnLW9tYWUnLCAnPG91dGZpbGUubWFlPic=

> <r_lp_tautomer_probability>
1

> <r_epik_Ionization_Penalty>
2.90452e-06

> <r_epik_Ionization_Penalty_Charging>
3.08996e-10

> <r_epik_Ionization_Penalty_Neutral>
2.90421e-06

> <r_epik_State_Penalty>
-0

> <r_epik_Charging_Adjusted_Penalty>
3.08996e-10

> <i_epik_Tot_Q>
0

> <i_epik_Tot_abs_Q>
0

> <r_epik_Metal_State_Penalty>
-0

> <b_epik_Metal_Only>
0

> <s_lp_Force_Field>
OPLS_2005

> <r_lp_Energy>
27.0219

> <b_lp_Chiralities_Consistent>
1

> <s_lp_Variant>
AV-unprocessed.smi:1001-1

> <Gold.Version>
5.8.1

> <Gold.Id.Protein>
6NUR|6NUR_protein|mol2

> <Gold.PLP.Fitness>
54.5957

> <Gold.PLP.PLP>
-48.3993

> <Gold.PLP.part.hbond>
-3.8812

> <Gold.PLP.part.metal>
0.0000

> <Gold.PLP.part.buried>
-4.5087

> <Gold.PLP.part.nonpolar>
-40.3676

> <Gold.PLP.part.repulsive>
0.1417

> <Gold.PLP.ligand.clash>
0.0000

> <Gold.PLP.ligand.torsion>
0.9115

> <Gold.PLP.Chemscore.Hbond>
2.6160

> <Gold.PLP.Chemscore.CHOScore>
0.0000

> <Gold.PLP.Chemscore.Metal>
0.0000

> <Gold.Chemscore.Hbonds>
donor molecule, donor type, donor heavy atom, donor atom, acceptor molecule, acceptor atom, score
      P1  H  6896  6908       L1    12  0.17
      P1  H  6931  6943       L1     8  0.94

> <Gold.PLP.Chemscore.Internal.Correction>
0.1715

> <Gold.Rescore>
     Score         DG    S(hbond)    S(metal)    S(lipo)     H(rot)  DE(clash)    DE(int)     intcor
     16.51     -17.55       1.71        0.00     108.23       2.46       0.00       1.04       ----

> <Gold.Chemscore.Fitness>
16.5077

> <Gold.Chemscore.DG>
-17.5534

> <Gold.Chemscore.ZeroCoef>
-5.4800

> <Gold.Chemscore.Hbond>
1.7086

> <Gold.Chemscore.Metal>
0.0000

> <Gold.Chemscore.Lipo>
108.2270

> <Gold.Chemscore.Internal_Hbond>
0.0000

> <Gold.Chemscore.DEClash>
0.0042

> <Gold.Chemscore.DEInternal>
1.0415

> <Gold.Chemscore.Rot>
2.4593

> <Gold.Chemscore.Internal.Correction>
   9.000000E+99

> <Gold.Chemscore.Hbonds>
donor molecule, donor type, donor heavy atom, donor atom, acceptor molecule, acceptor atom, score
      P1  H  6931  6943       L1     8  0.91

> <Gold.Chemscore.Hbond.Weighted>
-5.7067

> <Gold.Chemscore.Metal.Weighted>
-0.0000

> <Gold.Chemscore.Lipo.Weighted>
-12.6626

> <Gold.Chemscore.Internal_Hbond.Weighted>
0.0000

> <Gold.Chemscore.DEClash.Weighted>
0.0042

> <Gold.Chemscore.DEInternal.Weighted>
1.0415

> <Gold.Chemscore.Rot.Weighted>
6.2958

> <Gold.Chemscore.Internal.Correction.Weighted>
   9.000000E+99

> <Gold.Protein.RotatedTorsions>
[ 6907 6896 6895 6894 ] final -158.16 input  -60.11 | X-H torsion
[ 7974 7965 7964 7962 ] final  117.14 input  175.53 | X-H torsion
[ 8008 7997 7996 7995 ] final -123.30 input   59.86 | X-H torsion
[ 10167 10162 10161 10158 ] final  136.43 input  -65.29 | X-H torsion
[ 10718 10713 10712 10709 ] final   64.15 input   66.30 | X-H torsion
[ 10763 10752 10751 10750 ] final -135.32 input  -60.55 | X-H torsion
[ 11005 11000 10999 10996 ] final   93.43 input  -57.11 | X-H torsion

> <Gold.Protein.ActiveResidues>
 VAL166  LYS551  ARG553  GLY616  TRP617  ASP618  TYR619  PRO620  LYS621  CYS622 
 ASP623  PHE694  ASN695  SER759  ASP760  ASP761  ALA762  ILE779  LEU786  VAL792 
 PHE793  MET794  SER795  GLU796  ALA797  LYS798  CYS799  TRP800  GLU811  SER814 

> <Gold.Protein.RotatedAtoms>
  151.3138  133.4069  159.2648 H   0  0  0  0  0  0  0  0  0  0  0  0  # atno 6907 bound_to 6896
  151.0091  134.9383  159.8007 H   0  0  0  0  0  0  0  0  0  0  0  0  # atno 6908 bound_to 6896
  152.5296  134.3103  159.9163 H   0  0  0  0  0  0  0  0  0  0  0  0  # atno 6909 bound_to 6896
  145.1710  139.3101  143.4467 H   0  0  0  0  0  0  0  0  0  0  0  0  # atno 7974 bound_to 7965
  155.1783  140.0410  157.2877 H   0  0  0  0  0  0  0  0  0  0  0  0  # atno 8008 bound_to 7997
  154.6221  140.2503  155.7508 H   0  0  0  0  0  0  0  0  0  0  0  0  # atno 8009 bound_to 7997
  156.2439  140.2892  156.0534 H   0  0  0  0  0  0  0  0  0  0  0  0  # atno 8010 bound_to 7997
  139.5180  144.6465  151.5425 H   0  0  0  0  0  0  0  0  0  0  0  0  # atno 10167 bound_to 10162
  157.6020  130.9144  149.9808 H   0  0  0  0  0  0  0  0  0  0  0  0  # atno 10718 bound_to 10713
  154.8705  135.3707  154.4879 H   0  0  0  0  0  0  0  0  0  0  0  0  # atno 10763 bound_to 10752
  153.5527  135.7024  153.5588 H   0  0  0  0  0  0  0  0  0  0  0  0  # atno 10764 bound_to 10752
  153.3700  135.4024  155.1745 H   0  0  0  0  0  0  0  0  0  0  0  0  # atno 10765 bound_to 10752
  139.8810  134.8789  156.3717 H   0  0  0  0  0  0  0  0  0  0  0  0  # atno 11005 bound_to 11000
  146.3468  140.1856  142.8589 LP  0  0  0  0  0  0  0  0  0  0  0  0  # atno 17320 bound_to 7965
  145.0232  140.8811  143.5154 LP  0  0  0  0  0  0  0  0  0  0  0  0  # atno 17321 bound_to 7965
  140.6252  143.9183  150.6558 LP  0  0  0  0  0  0  0  0  0  0  0  0  # atno 17342 bound_to 10162
  140.2469  143.3622  152.1439 LP  0  0  0  0  0  0  0  0  0  0  0  0  # atno 17343 bound_to 10162
  156.1096  130.3651  150.0073 LP  0  0  0  0  0  0  0  0  0  0  0  0  # atno 17370 bound_to 10713
  156.8173  130.9346  151.3642 LP  0  0  0  0  0  0  0  0  0  0  0  0  # atno 17371 bound_to 10713
  140.9460  133.7483  156.0208 LP  0  0  0  0  0  0  0  0  0  0  0  0  # atno 17394 bound_to 11000
  140.8163  134.3341  157.5396 LP  0  0  0  0  0  0  0  0  0  0  0  0  # atno 17395 bound_to 11000

$$$$
