AV-unprocessed.smi:2845|AV-procd|sdf|10950|dock3
  -GOLD-   2272015403D 1   1.00000     0.00000
 Structure written by MMmdl.
 43 45  0  0  0  0  0  0  0  0  2 V2000
  152.2139  144.4104  161.0642 C   0  0  0  0  0  0  0  0  0  0  0  0
  152.0730  143.3828  159.9540 C   0  0  0  0  0  0  0  0  0  0  0  0
  151.2607  143.6988  158.8416 C   0  0  0  0  0  0  0  0  0  0  0  0
  151.1555  142.7406  157.8404 C   0  0  0  0  0  0  0  0  0  0  0  0
  150.4491  142.7512  156.6358 N   0  3  0  0  0  0  0  0  0  0  0  0
  150.6558  141.5773  155.9774 C   0  0  0  0  0  0  0  0  0  0  0  0
  151.4826  140.8160  156.7443 N   0  0  0  0  0  0  0  0  0  0  0  0
  152.0156  139.4684  156.4963 C   0  0  0  0  0  0  0  0  0  0  0  0
  152.4051  139.2390  155.0228 C   0  0  1  0  0  0  0  0  0  0  0  0
  153.7984  139.0130  154.9208 O   0  0  0  0  0  0  0  0  0  0  0  0
  151.6379  138.0541  154.4054 C   0  0  0  0  0  0  0  0  0  0  0  0
  150.1989  138.1924  154.5410 N   0  0  0  0  0  0  0  0  0  0  0  0
  149.2964  137.3684  155.0814 C   0  0  0  0  0  0  0  0  0  0  0  0
  148.0527  137.8285  155.0401 N   0  0  0  0  0  0  0  0  0  0  0  0
  148.2877  139.0198  154.4181 C   0  0  0  0  0  0  0  0  0  0  0  0
  146.9345  140.1796  154.0478 S   0  0  2  0  0  0  0  0  0  0  0  0
  147.9811  141.7094  154.1121 C   0  0  0  0  0  0  0  0  0  0  0  0
  146.0411  140.1951  155.2901 O   0  0  0  0  0  0  0  0  0  0  0  0
  149.5498  139.2928  154.0927 N   0  0  0  0  0  0  0  0  0  0  0  0
  151.8213  141.5017  157.9173 C   0  0  0  0  0  0  0  0  0  0  0  0
  152.6248  141.1747  159.0072 C   0  0  0  0  0  0  0  0  0  0  0  0
  152.7462  142.1364  160.0354 C   0  0  0  0  0  0  0  0  0  0  0  0
  153.6207  141.8082  161.2336 C   0  0  0  0  0  0  0  0  0  0  0  0
  151.6559  145.3199  160.8396 H   0  0  0  0  0  0  0  0  0  0  0  0
  153.2597  144.6867  161.2006 H   0  0  0  0  0  0  0  0  0  0  0  0
  151.8348  144.0111  162.0052 H   0  0  0  0  0  0  0  0  0  0  0  0
  150.7459  144.6460  158.7719 H   0  0  0  0  0  0  0  0  0  0  0  0
  150.2395  141.3006  155.0194 H   0  0  0  0  0  0  0  0  0  0  0  0
  152.8583  139.2853  157.1633 H   0  0  0  0  0  0  0  0  0  0  0  0
  151.2386  138.7604  156.7874 H   0  0  0  0  0  0  0  0  0  0  0  0
  152.1759  140.1415  154.4546 H   0  0  0  0  0  0  0  0  0  0  0  0
  153.9657  138.0940  155.0675 H   0  0  0  0  0  0  0  0  0  0  0  0
  151.8857  137.9443  153.3482 H   0  0  0  0  0  0  0  0  0  0  0  0
  151.9323  137.1236  154.8923 H   0  0  0  0  0  0  0  0  0  0  0  0
  149.5557  136.4143  155.5166 H   0  0  0  0  0  0  0  0  0  0  0  0
  149.0132  141.4899  153.8379 H   0  0  0  0  0  0  0  0  0  0  0  0
  147.9712  142.1314  155.1171 H   0  0  0  0  0  0  0  0  0  0  0  0
  147.5940  142.4560  153.4190 H   0  0  0  0  0  0  0  0  0  0  0  0
  153.1447  140.2300  159.0665 H   0  0  0  0  0  0  0  0  0  0  0  0
  154.0193  140.7950  161.1709 H   0  0  0  0  0  0  0  0  0  0  0  0
  153.0500  141.8828  162.1595 H   0  0  0  0  0  0  0  0  0  0  0  0
  154.4646  142.4962  161.2893 H   0  0  0  0  0  0  0  0  0  0  0  0
  149.8698  143.5035  156.2855 H   0  0  0  0  0  0  0  0  0  0  0  0
  1  2  1  0  0  0  0
  1 24  1  0  0  0  0
  1 25  1  0  0  0  0
  1 26  1  0  0  0  0
  2 22  1  0  0  0  0
  2  3  2  0  0  0  0
  3  4  1  0  0  0  0
  3 27  1  0  0  0  0
  4 20  2  0  0  0  0
  4  5  1  0  0  0  0
  5  6  2  0  0  0  0
  5 43  1  0  0  0  0
  6  7  1  0  0  0  0
  6 28  1  0  0  0  0
  7  8  1  0  0  0  0
  7 20  1  0  0  0  0
  8  9  1  0  0  0  0
  8 29  1  0  0  0  0
  8 30  1  0  0  0  0
  9 10  1  0  0  0  0
  9 11  1  0  0  0  0
  9 31  1  0  0  0  0
 10 32  1  0  0  0  0
 11 12  1  0  0  0  0
 11 33  1  0  0  0  0
 11 34  1  0  0  0  0
 12 19  1  0  0  0  0
 12 13  1  0  0  0  0
 13 14  2  0  0  0  0
 13 35  1  0  0  0  0
 14 15  1  0  0  0  0
 15 16  1  0  0  0  0
 15 19  2  0  0  0  0
 16 17  1  0  0  0  0
 16 18  2  0  0  0  0
 17 36  1  0  0  0  0
 17 37  1  0  0  0  0
 17 38  1  0  0  0  0
 20 21  1  0  0  0  0
 21 22  2  0  0  0  0
 21 39  1  0  0  0  0
 22 23  1  0  0  0  0
 23 40  1  0  0  0  0
 23 41  1  0  0  0  0
 23 42  1  0  0  0  0
M  CHG  1   5   1
M  END
> <s_m_source_file>
AV-unprocessed.smi

> <i_m_source_file_index>
2845

> <i_lp_mmshare_version>
43012

> <i_f3d_flags>
0

> <s_epik_input>
W0NIM11jKFtjSF0xKWMoW0NIM10pW2NIXWMoYzEyKW4oW2NIXW4yKVtDSDJdW0NASF0oW09IXSlbQ0gyXW4zW2NIXW5jKG4zKVtTQF0oPU8pW0NIM10=

> <s_epik_cmdline>
J2VwaWtfcHl0aG9uJywgJy1waCcsICc3LjAnLCAnLXRuJywgJzgnLCAnLW1hJywgJzIwMCcsICctbWV0YWxfYmluZGluZycsICctaW1hZScsICc8aW5maWxlLm1hZT4nLCAnLW9tYWUnLCAnPG91dGZpbGUubWFlPic=

> <r_lp_tautomer_probability>
1

> <r_epik_Ionization_Penalty>
1.12076

> <r_epik_Ionization_Penalty_Charging>
1.12075

> <r_epik_Ionization_Penalty_Neutral>
1.54566e-06

> <r_epik_State_Penalty>
1.17957

> <r_epik_Charging_Adjusted_Penalty>
2.30033

> <i_epik_Tot_Q>
1

> <i_epik_Tot_abs_Q>
1

> <r_epik_Metal_State_Penalty>
1.26402

> <b_epik_Metal_Only>
0

> <s_lp_Force_Field>
OPLS_2005

> <r_lp_Energy>
14.8832

> <b_lp_Chiralities_Consistent>
1

> <s_lp_Variant>
AV-unprocessed.smi:2845-8

> <Gold.Version>
5.8.1

> <Gold.Id.Protein>
6NUR|6NUR_protein|mol2

> <Gold.PLP.Fitness>
56.2724

> <Gold.PLP.PLP>
-49.4134

> <Gold.PLP.part.hbond>
-2.0000

> <Gold.PLP.part.metal>
0.0000

> <Gold.PLP.part.buried>
-7.6121

> <Gold.PLP.part.nonpolar>
-41.0422

> <Gold.PLP.part.repulsive>
1.1126

> <Gold.PLP.ligand.clash>
0.0000

> <Gold.PLP.ligand.torsion>
1.5808

> <Gold.PLP.Chemscore.Hbond>
2.9920

> <Gold.PLP.Chemscore.CHOScore>
0.0000

> <Gold.PLP.Chemscore.Metal>
0.0000

> <Gold.Chemscore.Hbonds>
donor molecule, donor type, donor heavy atom, donor atom, acceptor molecule, acceptor atom, score
      L1  H     5    43       P1  8028  2.00
      P1  H  7997  8008       L1    10  0.99

> <Gold.PLP.Chemscore.Internal.Correction>
1.0447

> <Gold.Rescore>
     Score         DG    S(hbond)    S(metal)    S(lipo)     H(rot)  DE(clash)    DE(int)     intcor
     16.13     -17.73       1.85        0.00     112.61       2.77       0.08       1.53       ----

> <Gold.Chemscore.Fitness>
16.1254

> <Gold.Chemscore.DG>
-17.7315

> <Gold.Chemscore.ZeroCoef>
-5.4800

> <Gold.Chemscore.Hbond>
1.8450

> <Gold.Chemscore.Metal>
0.0000

> <Gold.Chemscore.Lipo>
112.6103

> <Gold.Chemscore.Internal_Hbond>
0.0000

> <Gold.Chemscore.DEClash>
0.0775

> <Gold.Chemscore.DEInternal>
1.5286

> <Gold.Chemscore.Rot>
2.7681

> <Gold.Chemscore.Internal.Correction>
   9.000000E+99

> <Gold.Chemscore.Hbonds>
donor molecule, donor type, donor heavy atom, donor atom, acceptor molecule, acceptor atom, score
      L1  H     5    43       P1  8028  1.00
      P1  H  7997  8008       L1    10  0.60

> <Gold.Chemscore.Hbond.Weighted>
-6.1624

> <Gold.Chemscore.Metal.Weighted>
-0.0000

> <Gold.Chemscore.Lipo.Weighted>
-13.1754

> <Gold.Chemscore.Internal_Hbond.Weighted>
0.0000

> <Gold.Chemscore.DEClash.Weighted>
0.0775

> <Gold.Chemscore.DEInternal.Weighted>
1.5286

> <Gold.Chemscore.Rot.Weighted>
7.0863

> <Gold.Chemscore.Internal.Correction.Weighted>
   9.000000E+99

> <Gold.Protein.RotatedTorsions>
[ 6907 6896 6895 6894 ] final  103.98 input  -60.11 | X-H torsion
[ 7974 7965 7964 7962 ] final   68.65 input  175.53 | X-H torsion
[ 8008 7997 7996 7995 ] final   -5.55 input   59.86 | X-H torsion
[ 10167 10162 10161 10158 ] final  -70.47 input  -65.29 | X-H torsion
[ 10718 10713 10712 10709 ] final   -4.88 input   66.30 | X-H torsion
[ 10763 10752 10751 10750 ] final   28.41 input  -60.55 | X-H torsion
[ 11005 11000 10999 10996 ] final  -36.81 input  -57.11 | X-H torsion

> <Gold.Protein.ActiveResidues>
 VAL166  LYS551  ARG553  GLY616  TRP617  ASP618  TYR619  PRO620  LYS621  CYS622 
 ASP623  PHE694  ASN695  SER759  ASP760  ASP761  ALA762  ILE779  LEU786  VAL792 
 PHE793  MET794  SER795  GLU796  ALA797  LYS798  CYS799  TRP800  GLU811  SER814 

> <Gold.Protein.RotatedAtoms>
  152.5279  133.9745  159.7777 H   0  0  0  0  0  0  0  0  0  0  0  0  # atno 6907 bound_to 6896
  151.0010  133.6048  159.2702 H   0  0  0  0  0  0  0  0  0  0  0  0  # atno 6908 bound_to 6896
  151.3157  135.0812  159.9341 H   0  0  0  0  0  0  0  0  0  0  0  0  # atno 6909 bound_to 6896
  145.8000  139.2977  143.1160 H   0  0  0  0  0  0  0  0  0  0  0  0  # atno 7974 bound_to 7965
  154.6027  140.2455  155.7771 H   0  0  0  0  0  0  0  0  0  0  0  0  # atno 8008 bound_to 7997
  156.2321  140.2963  156.0168 H   0  0  0  0  0  0  0  0  0  0  0  0  # atno 8009 bound_to 7997
  155.2184  140.0399  157.2935 H   0  0  0  0  0  0  0  0  0  0  0  0  # atno 8010 bound_to 7997
  140.5350  143.2318  151.7194 H   0  0  0  0  0  0  0  0  0  0  0  0  # atno 10167 bound_to 10162
  156.7548  130.5251  149.5796 H   0  0  0  0  0  0  0  0  0  0  0  0  # atno 10718 bound_to 10713
  153.0493  135.6514  154.0734 H   0  0  0  0  0  0  0  0  0  0  0  0  # atno 10763 bound_to 10752
  154.0425  135.2902  155.3354 H   0  0  0  0  0  0  0  0  0  0  0  0  # atno 10764 bound_to 10752
  154.6772  135.5334  153.8281 H   0  0  0  0  0  0  0  0  0  0  0  0  # atno 10765 bound_to 10752
  140.9903  133.7008  156.1839 H   0  0  0  0  0  0  0  0  0  0  0  0  # atno 11005 bound_to 11000
  145.9888  140.8620  143.0077 LP  0  0  0  0  0  0  0  0  0  0  0  0  # atno 17320 bound_to 7965
  144.6770  140.2185  143.7369 LP  0  0  0  0  0  0  0  0  0  0  0  0  # atno 17321 bound_to 7965
  139.4967  144.4057  152.0135 LP  0  0  0  0  0  0  0  0  0  0  0  0  # atno 17342 bound_to 10162
  140.3161  144.3482  150.6021 LP  0  0  0  0  0  0  0  0  0  0  0  0  # atno 17343 bound_to 10162
  156.1377  130.6223  151.0424 LP  0  0  0  0  0  0  0  0  0  0  0  0  # atno 17370 bound_to 10713
  157.6761  131.0850  150.7491 LP  0  0  0  0  0  0  0  0  0  0  0  0  # atno 17371 bound_to 10713
  140.7049  134.4524  157.5584 LP  0  0  0  0  0  0  0  0  0  0  0  0  # atno 17394 bound_to 11000
  139.8989  134.8602  156.1981 LP  0  0  0  0  0  0  0  0  0  0  0  0  # atno 17395 bound_to 11000

$$$$
