AV-unprocessed.smi:646|AV-procd|sdf|3168|dock6
  -GOLD-   22720 0 93D 1   1.00000     0.00000
 Structure written by MMmdl.
 44 45  0  0  0  0  0  0  0  0  1 V2000
  145.3380  137.0128  161.6194 C   0  0  0  0  0  0  0  0  0  0  0  0
  146.5708  137.3969  161.0245 O   0  0  0  0  0  0  0  0  0  0  0  0
  147.5004  136.3460  160.7572 C   0  0  2  0  0  0  0  0  0  0  0  0
  147.6441  135.4446  161.9935 C   0  0  0  0  0  0  0  0  0  0  0  0
  148.7877  136.8614  160.0876 C   0  0  0  0  0  0  0  0  0  0  0  0
  148.6761  135.6601  159.1512 C   0  0  2  0  0  0  0  0  0  0  0  0
  149.0894  135.9705  157.7884 N   0  0  0  0  0  0  0  0  0  0  0  0
  150.3621  136.1401  157.4010 C   0  0  0  0  0  0  0  0  0  0  0  0
  151.3159  136.1287  158.1786 O   0  0  0  0  0  0  0  0  0  0  0  0
  150.5967  136.3246  155.9020 C   0  0  0  0  0  0  0  0  0  0  0  0
  151.1791  137.6925  155.6494 C   0  0  0  0  0  0  0  0  0  0  0  0
  152.4419  138.1990  156.0716 C   0  0  0  0  0  0  0  0  0  0  0  0
  153.5055  137.5042  156.8723 C   0  0  0  0  0  0  0  0  0  0  0  0
  152.6405  139.4391  155.6573 N   0  0  0  0  0  0  0  0  0  0  0  0
  151.4930  139.7918  154.9405 O   0  0  0  0  0  0  0  0  0  0  0  0
  150.6401  138.7361  154.9486 C   0  0  0  0  0  0  0  0  0  0  0  0
  149.3501  138.9131  154.2222 C   0  0  0  0  0  0  0  0  0  0  0  0
  147.1431  135.6922  159.3827 C   0  0  0  0  0  0  0  0  0  0  0  0
  146.4449  134.3295  159.4266 C   0  0  0  0  0  0  0  0  0  0  0  0
  146.3117  136.5589  158.4135 C   0  0  0  0  0  0  0  0  0  0  0  0
  144.7653  137.9082  161.8599 H   0  0  0  0  0  0  0  0  0  0  0  0
  145.4860  136.4583  162.5461 H   0  0  0  0  0  0  0  0  0  0  0  0
  144.7294  136.4126  160.9438 H   0  0  0  0  0  0  0  0  0  0  0  0
  148.2395  134.5567  161.7816 H   0  0  0  0  0  0  0  0  0  0  0  0
  146.6718  135.1071  162.3527 H   0  0  0  0  0  0  0  0  0  0  0  0
  148.1420  135.9577  162.8155 H   0  0  0  0  0  0  0  0  0  0  0  0
  148.6666  137.8229  159.5848 H   0  0  0  0  0  0  0  0  0  0  0  0
  149.6701  136.8548  160.7278 H   0  0  0  0  0  0  0  0  0  0  0  0
  149.1558  134.7719  159.5691 H   0  0  0  0  0  0  0  0  0  0  0  0
  148.3677  135.9946  157.0828 H   0  0  0  0  0  0  0  0  0  0  0  0
  151.2574  135.5329  155.5479 H   0  0  0  0  0  0  0  0  0  0  0  0
  149.6532  136.1931  155.3709 H   0  0  0  0  0  0  0  0  0  0  0  0
  153.0682  136.9401  157.6961 H   0  0  0  0  0  0  0  0  0  0  0  0
  154.2168  138.2124  157.2987 H   0  0  0  0  0  0  0  0  0  0  0  0
  154.0632  136.8037  156.2504 H   0  0  0  0  0  0  0  0  0  0  0  0
  149.0090  137.9683  153.7989 H   0  0  0  0  0  0  0  0  0  0  0  0
  149.4560  139.6277  153.4055 H   0  0  0  0  0  0  0  0  0  0  0  0
  148.5767  139.2810  154.8967 H   0  0  0  0  0  0  0  0  0  0  0  0
  146.3070  133.9168  158.4265 H   0  0  0  0  0  0  0  0  0  0  0  0
  145.4615  134.4015  159.8922 H   0  0  0  0  0  0  0  0  0  0  0  0
  147.0186  133.5943  159.9903 H   0  0  0  0  0  0  0  0  0  0  0  0
  146.2607  136.1162  157.4182 H   0  0  0  0  0  0  0  0  0  0  0  0
  146.7241  137.5608  158.2941 H   0  0  0  0  0  0  0  0  0  0  0  0
  145.2860  136.6764  158.7646 H   0  0  0  0  0  0  0  0  0  0  0  0
  1  2  1  0  0  0  0
  1 21  1  0  0  0  0
  1 22  1  0  0  0  0
  1 23  1  0  0  0  0
  2  3  1  0  0  0  0
  3 18  1  0  0  0  0
  3  4  1  0  0  0  0
  3  5  1  0  0  0  0
  4 24  1  0  0  0  0
  4 25  1  0  0  0  0
  4 26  1  0  0  0  0
  5  6  1  0  0  0  0
  5 27  1  0  0  0  0
  5 28  1  0  0  0  0
  6  7  1  0  0  0  0
  6 18  1  0  0  0  0
  6 29  1  0  0  0  0
  7  8  1  0  0  0  0
  7 30  1  0  0  0  0
  8  9  2  0  0  0  0
  8 10  1  0  0  0  0
 10 11  1  0  0  0  0
 10 31  1  0  0  0  0
 10 32  1  0  0  0  0
 11 16  2  0  0  0  0
 11 12  1  0  0  0  0
 12 13  1  0  0  0  0
 12 14  2  0  0  0  0
 13 33  1  0  0  0  0
 13 34  1  0  0  0  0
 13 35  1  0  0  0  0
 14 15  1  0  0  0  0
 15 16  1  0  0  0  0
 16 17  1  0  0  0  0
 17 36  1  0  0  0  0
 17 37  1  0  0  0  0
 17 38  1  0  0  0  0
 18 19  1  0  0  0  0
 18 20  1  0  0  0  0
 19 39  1  0  0  0  0
 19 40  1  0  0  0  0
 19 41  1  0  0  0  0
 20 42  1  0  0  0  0
 20 43  1  0  0  0  0
 20 44  1  0  0  0  0
M  END
> <s_m_source_file>
AV-unprocessed.smi

> <i_m_source_file_index>
646

> <i_lp_mmshare_version>
43012

> <i_f3d_flags>
0

> <s_epik_input>
W0NIM11PW0NAQF0xKFtDSDNdKVtDSDJdW0NASF0oQzEoW0NIM10pW0NIM10pW05IXUMoPU8pW0NIMl1jMmMoW0NIM10pbm9jMltDSDNd

> <s_epik_cmdline>
J2VwaWtfcHl0aG9uJywgJy1waCcsICc3LjAnLCAnLXRuJywgJzgnLCAnLW1hJywgJzIwMCcsICctbWV0YWxfYmluZGluZycsICctaW1hZScsICc8aW5maWxlLm1hZT4nLCAnLW9tYWUnLCAnPG91dGZpbGUubWFlPic=

> <r_lp_tautomer_probability>
1

> <r_epik_Ionization_Penalty>
2.13169e-08

> <r_epik_Ionization_Penalty_Charging>
0

> <r_epik_Ionization_Penalty_Neutral>
2.13169e-08

> <r_epik_State_Penalty>
-0

> <r_epik_Charging_Adjusted_Penalty>
0

> <i_epik_Tot_Q>
0

> <i_epik_Tot_abs_Q>
0

> <r_epik_Metal_State_Penalty>
-0

> <b_epik_Metal_Only>
0

> <s_lp_Force_Field>
OPLS_2005

> <r_lp_Energy>
15.4726

> <b_lp_Chiralities_Consistent>
1

> <s_lp_Variant>
AV-unprocessed.smi:646-4

> <Gold.Version>
5.8.1

> <Gold.Id.Protein>
6NUR|6NUR_protein|mol2

> <Gold.PLP.Fitness>
35.7782

> <Gold.PLP.PLP>
-25.7392

> <Gold.PLP.part.hbond>
-4.0000

> <Gold.PLP.part.metal>
0.0000

> <Gold.PLP.part.buried>
-3.5978

> <Gold.PLP.part.nonpolar>
-19.1511

> <Gold.PLP.part.repulsive>
0.1163

> <Gold.PLP.ligand.clash>
0.0000

> <Gold.PLP.ligand.torsion>
0.3136

> <Gold.PLP.Chemscore.Hbond>
3.4282

> <Gold.PLP.Chemscore.CHOScore>
0.0000

> <Gold.PLP.Chemscore.Metal>
0.0000

> <Gold.Chemscore.Hbonds>
donor molecule, donor type, donor heavy atom, donor atom, acceptor molecule, acceptor atom, score
      P1  H  6896  6907       L1     9  0.46
      P1  H  6934  6947       L1     2  1.00
      P1  H  7989  7998       L1    15  1.00
      P1  H  7997  8009       L1    14  1.00

> <Gold.PLP.Chemscore.Internal.Correction>
0.3816

> <Gold.Rescore>
     Score         DG    S(hbond)    S(metal)    S(lipo)     H(rot)  DE(clash)    DE(int)     intcor
     18.51     -19.76       3.14        0.00      65.12       1.49       0.05       1.20       ----

> <Gold.Chemscore.Fitness>
18.5115

> <Gold.Chemscore.DG>
-19.7598

> <Gold.Chemscore.ZeroCoef>
-5.4800

> <Gold.Chemscore.Hbond>
3.1386

> <Gold.Chemscore.Metal>
0.0000

> <Gold.Chemscore.Lipo>
65.1170

> <Gold.Chemscore.Internal_Hbond>
0.0000

> <Gold.Chemscore.DEClash>
0.0456

> <Gold.Chemscore.DEInternal>
1.2027

> <Gold.Chemscore.Rot>
1.4928

> <Gold.Chemscore.Internal.Correction>
   9.000000E+99

> <Gold.Chemscore.Hbonds>
donor molecule, donor type, donor heavy atom, donor atom, acceptor molecule, acceptor atom, score
      P1  H  6896  6907       L1     9  0.40
      P1  H  6934  6947       L1     2  0.94
      P1  H  7989  7998       L1    15  0.95
      P1  H  7997  8009       L1    14  0.88

> <Gold.Chemscore.Hbond.Weighted>
-10.4828

> <Gold.Chemscore.Metal.Weighted>
-0.0000

> <Gold.Chemscore.Lipo.Weighted>
-7.6187

> <Gold.Chemscore.Internal_Hbond.Weighted>
0.0000

> <Gold.Chemscore.DEClash.Weighted>
0.0456

> <Gold.Chemscore.DEInternal.Weighted>
1.2027

> <Gold.Chemscore.Rot.Weighted>
3.8217

> <Gold.Chemscore.Internal.Correction.Weighted>
   9.000000E+99

> <Gold.Protein.RotatedTorsions>
[ 6907 6896 6895 6894 ] final  -35.51 input  -60.11 | X-H torsion
[ 7974 7965 7964 7962 ] final -174.84 input  175.53 | X-H torsion
[ 8008 7997 7996 7995 ] final -151.14 input   59.86 | X-H torsion
[ 10167 10162 10161 10158 ] final  162.20 input  -65.29 | X-H torsion
[ 10718 10713 10712 10709 ] final  152.01 input   66.30 | X-H torsion
[ 10763 10752 10751 10750 ] final   79.51 input  -60.55 | X-H torsion
[ 11005 11000 10999 10996 ] final   41.31 input  -57.11 | X-H torsion

> <Gold.Protein.ActiveResidues>
 VAL166  LYS551  ARG553  GLY616  TRP617  ASP618  TYR619  PRO620  LYS621  CYS622 
 ASP623  PHE694  ASN695  SER759  ASP760  ASP761  ALA762  ILE779  LEU786  VAL792 
 PHE793  MET794  SER795  GLU796  ALA797  LYS798  CYS799  TRP800  GLU811  SER814 

> <Gold.Protein.RotatedAtoms>
  151.0389  134.9593  159.8150 H   0  0  0  0  0  0  0  0  0  0  0  0  # atno 6907 bound_to 6896
  152.5360  134.2683  159.8972 H   0  0  0  0  0  0  0  0  0  0  0  0  # atno 6908 bound_to 6896
  151.2695  133.4219  159.2654 H   0  0  0  0  0  0  0  0  0  0  0  0  # atno 6909 bound_to 6896
  144.7130  140.1411  143.6391 H   0  0  0  0  0  0  0  0  0  0  0  0  # atno 7974 bound_to 7965
  155.6347  140.0695  157.2638 H   0  0  0  0  0  0  0  0  0  0  0  0  # atno 8008 bound_to 7997
  154.4197  140.1761  156.1558 H   0  0  0  0  0  0  0  0  0  0  0  0  # atno 8009 bound_to 7997
  155.9904  140.3345  155.6751 H   0  0  0  0  0  0  0  0  0  0  0  0  # atno 8010 bound_to 7997
  139.4858  144.4461  151.8890 H   0  0  0  0  0  0  0  0  0  0  0  0  # atno 10167 bound_to 10162
  157.2633  131.0802  151.1650 H   0  0  0  0  0  0  0  0  0  0  0  0  # atno 10718 bound_to 10713
  153.0958  135.4837  154.8776 H   0  0  0  0  0  0  0  0  0  0  0  0  # atno 10763 bound_to 10752
  154.7323  135.3063  154.8873 H   0  0  0  0  0  0  0  0  0  0  0  0  # atno 10764 bound_to 10752
  153.9505  135.6824  153.4797 H   0  0  0  0  0  0  0  0  0  0  0  0  # atno 10765 bound_to 10752
  140.1847  134.4060  155.8180 H   0  0  0  0  0  0  0  0  0  0  0  0  # atno 11005 bound_to 11000
  145.9201  139.2540  143.1386 LP  0  0  0  0  0  0  0  0  0  0  0  0  # atno 17320 bound_to 7965
  145.9629  140.8821  143.0201 LP  0  0  0  0  0  0  0  0  0  0  0  0  # atno 17321 bound_to 7965
  140.3915  144.2610  150.5899 LP  0  0  0  0  0  0  0  0  0  0  0  0  # atno 17342 bound_to 10162
  140.5142  143.2282  151.8489 LP  0  0  0  0  0  0  0  0  0  0  0  0  # atno 17343 bound_to 10162
  157.3151  130.6909  149.6237 LP  0  0  0  0  0  0  0  0  0  0  0  0  # atno 17370 bound_to 10713
  155.9664  130.4352  150.5081 LP  0  0  0  0  0  0  0  0  0  0  0  0  # atno 17371 bound_to 10713
  141.2224  133.7017  156.7992 LP  0  0  0  0  0  0  0  0  0  0  0  0  # atno 17394 bound_to 11000
  140.2227  134.8745  157.3394 LP  0  0  0  0  0  0  0  0  0  0  0  0  # atno 17395 bound_to 11000

$$$$
