AV-unprocessed.smi:3328|AV-procd|sdf|12793|dock2
  -GOLD-   2272019143D 1   1.00000     0.00000
 Structure written by MMmdl.
 40 41  0  0  0  0  0  0  0  0  1 V2000
  150.9286  136.2903  155.7018 C   0  0  0  0  0  0  0  0  0  0  0  0
  150.5731  137.6555  155.1878 C   0  0  0  0  0  0  0  0  0  0  0  0
  151.4377  138.7698  154.9918 C   0  0  0  0  0  0  0  0  0  0  0  0
  150.8082  139.8332  154.5195 N   0  0  0  0  0  0  0  0  0  0  0  0
  149.5221  139.4393  154.4029 N   0  0  0  0  0  0  0  0  0  0  0  0
  148.5204  140.3667  153.9053 C   0  0  0  0  0  0  0  0  0  0  0  0
  148.1302  141.4303  154.9514 C   0  0  2  0  0  0  0  0  0  0  0  0
  147.0218  142.3516  154.4120 C   0  0  0  0  0  0  0  0  0  0  0  0
  149.3117  142.2162  155.2917 N   0  0  0  0  0  0  0  0  0  0  0  0
  150.0364  141.6663  156.4267 C   0  0  0  0  0  0  0  0  0  0  0  0
  151.1210  142.6604  156.8674 C   0  0  0  0  0  0  0  0  0  0  0  0
  151.6850  142.2918  158.1624 N   0  0  0  0  0  0  0  0  0  0  0  0
  151.5870  143.1927  159.2980 C   0  0  0  0  0  0  0  0  0  0  0  0
  152.4564  142.5529  160.3902 C   0  0  0  0  0  0  0  0  0  0  0  0
  152.7262  141.1188  159.9214 C   0  0  0  0  0  0  0  0  0  0  0  0
  152.2865  141.1357  158.4673 C   0  0  0  0  0  0  0  0  0  0  0  0
  152.4753  140.1915  157.7020 O   0  0  0  0  0  0  0  0  0  0  0  0
  149.3530  138.1287  154.7954 C   0  0  0  0  0  0  0  0  0  0  0  0
  151.9351  136.2638  156.1200 H   0  0  0  0  0  0  0  0  0  0  0  0
  150.8893  135.5412  154.9110 H   0  0  0  0  0  0  0  0  0  0  0  0
  150.2462  135.9659  156.4877 H   0  0  0  0  0  0  0  0  0  0  0  0
  152.4998  138.8358  155.1768 H   0  0  0  0  0  0  0  0  0  0  0  0
  148.8824  140.8358  152.9884 H   0  0  0  0  0  0  0  0  0  0  0  0
  147.6435  139.7811  153.6263 H   0  0  0  0  0  0  0  0  0  0  0  0
  147.7671  140.9166  155.8427 H   0  0  0  0  0  0  0  0  0  0  0  0
  146.1487  141.7717  154.1118 H   0  0  0  0  0  0  0  0  0  0  0  0
  147.3596  142.9125  153.5399 H   0  0  0  0  0  0  0  0  0  0  0  0
  146.6846  143.0683  155.1602 H   0  0  0  0  0  0  0  0  0  0  0  0
  149.0547  143.1777  155.4644 H   0  0  0  0  0  0  0  0  0  0  0  0
  149.3527  141.4694  157.2519 H   0  0  0  0  0  0  0  0  0  0  0  0
  150.4932  140.7169  156.1440 H   0  0  0  0  0  0  0  0  0  0  0  0
  151.9191  142.6975  156.1242 H   0  0  0  0  0  0  0  0  0  0  0  0
  150.7090  143.6691  156.9291 H   0  0  0  0  0  0  0  0  0  0  0  0
  151.9318  144.1952  159.0411 H   0  0  0  0  0  0  0  0  0  0  0  0
  150.5457  143.2594  159.6156 H   0  0  0  0  0  0  0  0  0  0  0  0
  153.3986  143.0945  160.4838 H   0  0  0  0  0  0  0  0  0  0  0  0
  151.9653  142.5786  161.3636 H   0  0  0  0  0  0  0  0  0  0  0  0
  153.7770  140.8441  160.0174 H   0  0  0  0  0  0  0  0  0  0  0  0
  152.1227  140.3984  160.4743 H   0  0  0  0  0  0  0  0  0  0  0  0
  148.3868  137.6468  154.7651 H   0  0  0  0  0  0  0  0  0  0  0  0
  1  2  1  0  0  0  0
  1 19  1  0  0  0  0
  1 20  1  0  0  0  0
  1 21  1  0  0  0  0
  2 18  2  0  0  0  0
  2  3  1  0  0  0  0
  3  4  2  0  0  0  0
  3 22  1  0  0  0  0
  4  5  1  0  0  0  0
  5  6  1  0  0  0  0
  5 18  1  0  0  0  0
  6  7  1  0  0  0  0
  6 23  1  0  0  0  0
  6 24  1  0  0  0  0
  7  8  1  0  0  0  0
  7  9  1  0  0  0  0
  7 25  1  0  0  0  0
  8 26  1  0  0  0  0
  8 27  1  0  0  0  0
  8 28  1  0  0  0  0
  9 10  1  0  0  0  0
  9 29  1  0  0  0  0
 10 11  1  0  0  0  0
 10 30  1  0  0  0  0
 10 31  1  0  0  0  0
 11 12  1  0  0  0  0
 11 32  1  0  0  0  0
 11 33  1  0  0  0  0
 12 16  1  0  0  0  0
 12 13  1  0  0  0  0
 13 14  1  0  0  0  0
 13 34  1  0  0  0  0
 13 35  1  0  0  0  0
 14 15  1  0  0  0  0
 14 36  1  0  0  0  0
 14 37  1  0  0  0  0
 15 16  1  0  0  0  0
 15 38  1  0  0  0  0
 15 39  1  0  0  0  0
 16 17  2  0  0  0  0
 18 40  1  0  0  0  0
M  END
> <s_m_source_file>
AV-unprocessed.smi

> <i_m_source_file_index>
3328

> <i_lp_mmshare_version>
43012

> <i_f3d_flags>
0

> <s_epik_input>
W0NIM11jMVtjSF1ubihbY0hdMSlbQ0gyXVtDQEhdKFtDSDNdKVtOSF1bQ0gyXVtDSDJdTjJbQ0gyXVtDSDJdW0NIMl1DMj1P

> <s_epik_cmdline>
J2VwaWtfcHl0aG9uJywgJy1waCcsICc3LjAnLCAnLXRuJywgJzgnLCAnLW1hJywgJzIwMCcsICctbWV0YWxfYmluZGluZycsICctaW1hZScsICc8aW5maWxlLm1hZT4nLCAnLW9tYWUnLCAnPG91dGZpbGUubWFlPic=

> <r_lp_tautomer_probability>
1

> <r_epik_Ionization_Penalty>
2.53591

> <r_epik_Ionization_Penalty_Charging>
0

> <r_epik_Ionization_Penalty_Neutral>
2.53591

> <r_epik_State_Penalty>
2.70334

> <r_epik_Charging_Adjusted_Penalty>
2.70334

> <i_epik_Tot_Q>
0

> <i_epik_Tot_abs_Q>
0

> <r_epik_Metal_State_Penalty>
2.70327

> <b_epik_Metal_Only>
0

> <s_lp_Force_Field>
OPLS_2005

> <r_lp_Energy>
20.4488

> <b_lp_Chiralities_Consistent>
1

> <s_lp_Variant>
AV-unprocessed.smi:3328-3

> <Gold.Version>
5.8.1

> <Gold.Id.Protein>
6NUR|6NUR_protein|mol2

> <Gold.PLP.Fitness>
45.8887

> <Gold.PLP.PLP>
-38.0744

> <Gold.PLP.part.hbond>
-3.0000

> <Gold.PLP.part.metal>
0.0000

> <Gold.PLP.part.buried>
-2.9904

> <Gold.PLP.part.nonpolar>
-32.4703

> <Gold.PLP.part.repulsive>
0.1061

> <Gold.PLP.ligand.clash>
0.0000

> <Gold.PLP.ligand.torsion>
0.6550

> <Gold.PLP.Chemscore.Hbond>
3.0000

> <Gold.PLP.Chemscore.CHOScore>
0.0000

> <Gold.PLP.Chemscore.Metal>
0.0000

> <Gold.Chemscore.Hbonds>
donor molecule, donor type, donor heavy atom, donor atom, acceptor molecule, acceptor atom, score
      L1  H     9    29       P1  8028  1.00
      P1  H  7989  7998       L1     4  1.00
      P1  H  7997  8008       L1    17  0.68

> <Gold.PLP.Chemscore.Internal.Correction>
0.1243

> <Gold.Rescore>
     Score         DG    S(hbond)    S(metal)    S(lipo)     H(rot)  DE(clash)    DE(int)     intcor
     19.13     -20.39       2.91        0.00      85.81       1.89       0.28       0.98       ----

> <Gold.Chemscore.Fitness>
19.1319

> <Gold.Chemscore.DG>
-20.3904

> <Gold.Chemscore.ZeroCoef>
-5.4800

> <Gold.Chemscore.Hbond>
2.9084

> <Gold.Chemscore.Metal>
0.0000

> <Gold.Chemscore.Lipo>
85.8097

> <Gold.Chemscore.Internal_Hbond>
0.0000

> <Gold.Chemscore.DEClash>
0.2814

> <Gold.Chemscore.DEInternal>
0.9771

> <Gold.Chemscore.Rot>
1.8920

> <Gold.Chemscore.Internal.Correction>
   9.000000E+99

> <Gold.Chemscore.Hbonds>
donor molecule, donor type, donor heavy atom, donor atom, acceptor molecule, acceptor atom, score
      L1  H     9    29       P1  8028  0.96
      P1  H  7989  7998       L1     4  0.97
      P1  H  7997  8008       L1    17  0.59

> <Gold.Chemscore.Hbond.Weighted>
-9.7141

> <Gold.Chemscore.Metal.Weighted>
-0.0000

> <Gold.Chemscore.Lipo.Weighted>
-10.0397

> <Gold.Chemscore.Internal_Hbond.Weighted>
0.0000

> <Gold.Chemscore.DEClash.Weighted>
0.2814

> <Gold.Chemscore.DEInternal.Weighted>
0.9771

> <Gold.Chemscore.Rot.Weighted>
4.8435

> <Gold.Chemscore.Internal.Correction.Weighted>
   9.000000E+99

> <Gold.Protein.RotatedTorsions>
[ 6907 6896 6895 6894 ] final  137.09 input  -60.11 | X-H torsion
[ 7974 7965 7964 7962 ] final  106.44 input  175.53 | X-H torsion
[ 8008 7997 7996 7995 ] final  -71.26 input   59.86 | X-H torsion
[ 10167 10162 10161 10158 ] final -117.03 input  -65.29 | X-H torsion
[ 10718 10713 10712 10709 ] final -128.63 input   66.30 | X-H torsion
[ 10763 10752 10751 10750 ] final   39.87 input  -60.55 | X-H torsion
[ 11005 11000 10999 10996 ] final   78.19 input  -57.11 | X-H torsion

> <Gold.Protein.ActiveResidues>
 VAL166  LYS551  ARG553  GLY616  TRP617  ASP618  TYR619  PRO620  LYS621  CYS622 
 ASP623  PHE694  ASN695  SER759  ASP760  ASP761  ALA762  ILE779  LEU786  VAL792 
 PHE793  MET794  SER795  GLU796  ALA797  LYS798  CYS799  TRP800  GLU811  SER814 

> <Gold.Protein.RotatedAtoms>
  152.2820  133.5479  159.5503 H   0  0  0  0  0  0  0  0  0  0  0  0  # atno 6907 bound_to 6896
  150.7200  134.0550  159.3820 H   0  0  0  0  0  0  0  0  0  0  0  0  # atno 6908 bound_to 6896
  151.8461  135.0574  160.0504 H   0  0  0  0  0  0  0  0  0  0  0  0  # atno 6909 bound_to 6896
  145.3066  139.2553  143.3785 H   0  0  0  0  0  0  0  0  0  0  0  0  # atno 7974 bound_to 7965
  154.5074  140.0819  156.7922 H   0  0  0  0  0  0  0  0  0  0  0  0  # atno 8008 bound_to 7997
  155.3862  140.3430  155.4231 H   0  0  0  0  0  0  0  0  0  0  0  0  # atno 8009 bound_to 7997
  156.1532  140.1565  156.8722 H   0  0  0  0  0  0  0  0  0  0  0  0  # atno 8010 bound_to 7997
  140.0728  143.4861  152.1970 H   0  0  0  0  0  0  0  0  0  0  0  0  # atno 10167 bound_to 10162
  156.1969  130.6832  151.0492 H   0  0  0  0  0  0  0  0  0  0  0  0  # atno 10718 bound_to 10713
  152.9954  135.6208  154.2534 H   0  0  0  0  0  0  0  0  0  0  0  0  # atno 10763 bound_to 10752
  154.2272  135.2793  155.2905 H   0  0  0  0  0  0  0  0  0  0  0  0  # atno 10764 bound_to 10752
  154.5479  135.5742  153.6955 H   0  0  0  0  0  0  0  0  0  0  0  0  # atno 10765 bound_to 10752
  139.9223  134.7743  156.1617 H   0  0  0  0  0  0  0  0  0  0  0  0  # atno 11005 bound_to 11000
  146.3133  140.3592  142.8663 LP  0  0  0  0  0  0  0  0  0  0  0  0  # atno 17320 bound_to 7965
  144.9050  140.7688  143.5843 LP  0  0  0  0  0  0  0  0  0  0  0  0  # atno 17321 bound_to 7965
  139.5826  144.7517  151.3602 LP  0  0  0  0  0  0  0  0  0  0  0  0  # atno 17342 bound_to 10162
  140.7117  143.7373  150.7579 LP  0  0  0  0  0  0  0  0  0  0  0  0  # atno 17343 bound_to 10162
  157.6963  131.0793  150.6960 LP  0  0  0  0  0  0  0  0  0  0  0  0  # atno 17370 bound_to 10713
  156.7017  130.4625  149.5571 LP  0  0  0  0  0  0  0  0  0  0  0  0  # atno 17371 bound_to 10713
  141.0754  133.6778  156.2225 LP  0  0  0  0  0  0  0  0  0  0  0  0  # atno 17394 bound_to 11000
  140.6438  134.5138  157.5572 LP  0  0  0  0  0  0  0  0  0  0  0  0  # atno 17395 bound_to 11000

$$$$
