AV-unprocessed.smi:1658|AV-procd|sdf|6648|dock2
  -GOLD-   22720 7353D 1   1.00000     0.00000
 Structure written by MMmdl.
 46 47  0  0  0  0  0  0  0  0  1 V2000
  151.9151  144.4104  157.7696 C   0  0  0  0  0  0  0  0  0  0  0  0
  151.9573  144.4853  159.1904 O   0  0  0  0  0  0  0  0  0  0  0  0
  152.5313  143.4404  159.8851 C   0  0  0  0  0  0  0  0  0  0  0  0
  152.5610  143.5030  161.2926 C   0  0  0  0  0  0  0  0  0  0  0  0
  153.1486  142.4429  162.0092 C   0  0  0  0  0  0  0  0  0  0  0  0
  153.6967  141.3539  161.2913 C   0  0  0  0  0  0  0  0  0  0  0  0
  154.2954  140.2201  161.9026 N   0  0  0  0  0  0  0  0  0  0  0  0
  154.2238  138.9348  161.5173 C   0  0  0  0  0  0  0  0  0  0  0  0
  153.5715  138.5167  160.5609 O   0  0  0  0  0  0  0  0  0  0  0  0
  154.9396  138.1478  162.3320 N   0  0  0  0  0  0  0  0  0  0  0  0
  155.0427  136.6912  162.2460 C   0  0  0  0  0  0  0  0  0  0  0  0
  154.8341  136.0014  163.6257 C   0  0  0  0  0  0  0  0  0  0  0  0
  156.1270  136.2583  164.4411 C   0  0  0  0  0  0  0  0  0  0  0  0
  153.6844  136.7505  164.3421 C   0  0  0  0  0  0  0  0  0  0  0  0
  154.5752  134.5410  163.4772 N   0  0  0  0  0  0  0  0  0  0  0  0
  155.6189  133.7975  162.7615 C   0  0  0  0  0  0  0  0  0  0  0  0
  155.2342  132.3242  162.5420 C   0  0  0  0  0  0  0  0  0  0  0  0
  154.9516  131.7101  163.7934 O   0  0  0  0  0  0  0  0  0  0  0  0
  153.9012  132.3651  164.4933 C   0  0  0  0  0  0  0  0  0  0  0  0
  154.2757  133.8377  164.7303 C   0  0  0  0  0  0  0  0  0  0  0  0
  153.6007  141.3786  159.8847 C   0  0  0  0  0  0  0  0  0  0  0  0
  153.0405  142.3922  159.1916 N   0  0  0  0  0  0  0  0  0  0  0  0
  151.4419  145.3093  157.3750 H   0  0  0  0  0  0  0  0  0  0  0  0
  151.3302  143.5534  157.4325 H   0  0  0  0  0  0  0  0  0  0  0  0
  152.9174  144.3506  157.3431 H   0  0  0  0  0  0  0  0  0  0  0  0
  152.1366  144.3480  161.8141 H   0  0  0  0  0  0  0  0  0  0  0  0
  153.1545  142.4779  163.0877 H   0  0  0  0  0  0  0  0  0  0  0  0
  154.7845  140.3997  162.7674 H   0  0  0  0  0  0  0  0  0  0  0  0
  155.4315  138.5847  163.0976 H   0  0  0  0  0  0  0  0  0  0  0  0
  154.3299  136.2939  161.5211 H   0  0  0  0  0  0  0  0  0  0  0  0
  156.0181  136.4474  161.8262 H   0  0  0  0  0  0  0  0  0  0  0  0
  156.4230  137.3075  164.4015 H   0  0  0  0  0  0  0  0  0  0  0  0
  156.9651  135.6710  164.0641 H   0  0  0  0  0  0  0  0  0  0  0  0
  156.0046  136.0174  165.4971 H   0  0  0  0  0  0  0  0  0  0  0  0
  153.9156  137.8112  164.4475 H   0  0  0  0  0  0  0  0  0  0  0  0
  153.5051  136.3687  165.3469 H   0  0  0  0  0  0  0  0  0  0  0  0
  152.7462  136.6884  163.7910 H   0  0  0  0  0  0  0  0  0  0  0  0
  155.8094  134.2376  161.7844 H   0  0  0  0  0  0  0  0  0  0  0  0
  156.5567  133.8355  163.3157 H   0  0  0  0  0  0  0  0  0  0  0  0
  154.3667  132.2447  161.8849 H   0  0  0  0  0  0  0  0  0  0  0  0
  156.0511  131.7878  162.0593 H   0  0  0  0  0  0  0  0  0  0  0  0
  152.9721  132.2895  163.9260 H   0  0  0  0  0  0  0  0  0  0  0  0
  153.7375  131.8590  165.4446 H   0  0  0  0  0  0  0  0  0  0  0  0
  155.1355  133.8768  165.3994 H   0  0  0  0  0  0  0  0  0  0  0  0
  153.4459  134.3086  165.2536 H   0  0  0  0  0  0  0  0  0  0  0  0
  153.9915  140.5626  159.2941 H   0  0  0  0  0  0  0  0  0  0  0  0
  1  2  1  0  0  0  0
  1 23  1  0  0  0  0
  1 24  1  0  0  0  0
  1 25  1  0  0  0  0
  2  3  1  0  0  0  0
  3 22  1  0  0  0  0
  3  4  2  0  0  0  0
  4  5  1  0  0  0  0
  4 26  1  0  0  0  0
  5  6  2  0  0  0  0
  5 27  1  0  0  0  0
  6  7  1  0  0  0  0
  6 21  1  0  0  0  0
  7  8  1  0  0  0  0
  7 28  1  0  0  0  0
  8  9  2  0  0  0  0
  8 10  1  0  0  0  0
 10 11  1  0  0  0  0
 10 29  1  0  0  0  0
 11 12  1  0  0  0  0
 11 30  1  0  0  0  0
 11 31  1  0  0  0  0
 12 13  1  0  0  0  0
 12 14  1  0  0  0  0
 12 15  1  0  0  0  0
 13 32  1  0  0  0  0
 13 33  1  0  0  0  0
 13 34  1  0  0  0  0
 14 35  1  0  0  0  0
 14 36  1  0  0  0  0
 14 37  1  0  0  0  0
 15 20  1  0  0  0  0
 15 16  1  0  0  0  0
 16 17  1  0  0  0  0
 16 38  1  0  0  0  0
 16 39  1  0  0  0  0
 17 18  1  0  0  0  0
 17 40  1  0  0  0  0
 17 41  1  0  0  0  0
 18 19  1  0  0  0  0
 19 20  1  0  0  0  0
 19 42  1  0  0  0  0
 19 43  1  0  0  0  0
 20 44  1  0  0  0  0
 20 45  1  0  0  0  0
 21 22  2  0  0  0  0
 21 46  1  0  0  0  0
M  END
> <s_m_source_file>
AV-unprocessed.smi

> <i_m_source_file_index>
1658

> <i_lp_mmshare_version>
43012

> <i_f3d_flags>
0

> <s_epik_input>
W0NIM11PYzFbY0hdW2NIXWMoW2NIXW4xKVtOSF1DKD1PKVtOSF1bQ0gyXUMoW0NIM10pKFtDSDNdKU4yW0NIMl1bQ0gyXU9bQ0gyXVtDSDJdMg==

> <s_epik_cmdline>
J2VwaWtfcHl0aG9uJywgJy1waCcsICc3LjAnLCAnLXRuJywgJzgnLCAnLW1hJywgJzIwMCcsICctbWV0YWxfYmluZGluZycsICctaW1hZScsICc8aW5maWxlLm1hZT4nLCAnLW9tYWUnLCAnPG91dGZpbGUubWFlPic=

> <r_lp_tautomer_probability>
1

> <r_epik_Ionization_Penalty>
0.266086

> <r_epik_Ionization_Penalty_Charging>
0

> <r_epik_Ionization_Penalty_Neutral>
0.266086

> <r_epik_State_Penalty>
0.257924

> <r_epik_Charging_Adjusted_Penalty>
0.257924

> <i_epik_Tot_Q>
0

> <i_epik_Tot_abs_Q>
0

> <r_epik_Metal_State_Penalty>
0.257921

> <b_epik_Metal_Only>
0

> <s_lp_Force_Field>
OPLS_2005

> <r_lp_Energy>
44.8547

> <b_lp_Chiralities_Consistent>
1

> <s_lp_Variant>
AV-unprocessed.smi:1658-1

> <Gold.Version>
5.8.1

> <Gold.Id.Protein>
6NUR|6NUR_protein|mol2

> <Gold.PLP.Fitness>
43.8694

> <Gold.PLP.PLP>
-44.9110

> <Gold.PLP.part.hbond>
0.0000

> <Gold.PLP.part.metal>
0.0000

> <Gold.PLP.part.buried>
-7.1600

> <Gold.PLP.part.nonpolar>
-37.6038

> <Gold.PLP.part.repulsive>
0.0706

> <Gold.PLP.ligand.clash>
0.0000

> <Gold.PLP.ligand.torsion>
0.5559

> <Gold.PLP.Chemscore.Hbond>
0.0000

> <Gold.PLP.Chemscore.CHOScore>
0.0000

> <Gold.PLP.Chemscore.Metal>
0.0000

> <Gold.PLP.Chemscore.Internal.Correction>
0.0702

> <Gold.Rescore>
     Score         DG    S(hbond)    S(metal)    S(lipo)     H(rot)  DE(clash)    DE(int)     intcor
     11.97     -13.60       0.00        0.00     106.65       1.70       0.01       1.62       ----

> <Gold.Chemscore.Fitness>
11.9703

> <Gold.Chemscore.DG>
-13.5994

> <Gold.Chemscore.ZeroCoef>
-5.4800

> <Gold.Chemscore.Hbond>
0.0000

> <Gold.Chemscore.Metal>
0.0000

> <Gold.Chemscore.Lipo>
106.6463

> <Gold.Chemscore.Internal_Hbond>
0.0000

> <Gold.Chemscore.DEClash>
0.0126

> <Gold.Chemscore.DEInternal>
1.6164

> <Gold.Chemscore.Rot>
1.7024

> <Gold.Chemscore.Internal.Correction>
   9.000000E+99

> <Gold.Chemscore.Hbond.Weighted>
-0.0000

> <Gold.Chemscore.Metal.Weighted>
-0.0000

> <Gold.Chemscore.Lipo.Weighted>
-12.4776

> <Gold.Chemscore.Internal_Hbond.Weighted>
0.0000

> <Gold.Chemscore.DEClash.Weighted>
0.0126

> <Gold.Chemscore.DEInternal.Weighted>
1.6164

> <Gold.Chemscore.Rot.Weighted>
4.3583

> <Gold.Chemscore.Internal.Correction.Weighted>
   9.000000E+99

> <Gold.Protein.RotatedTorsions>
[ 6907 6896 6895 6894 ] final -176.12 input  -60.11 | X-H torsion
[ 7974 7965 7964 7962 ] final   -5.55 input  175.53 | X-H torsion
[ 8008 7997 7996 7995 ] final   31.89 input   59.86 | X-H torsion
[ 10167 10162 10161 10158 ] final  108.62 input  -65.29 | X-H torsion
[ 10718 10713 10712 10709 ] final  140.12 input   66.30 | X-H torsion
[ 10763 10752 10751 10750 ] final -110.80 input  -60.55 | X-H torsion
[ 11005 11000 10999 10996 ] final    7.98 input  -57.11 | X-H torsion

> <Gold.Protein.ActiveResidues>
 VAL166  LYS551  ARG553  GLY616  TRP617  ASP618  TYR619  PRO620  LYS621  CYS622 
 ASP623  PHE694  ASN695  SER759  ASP760  ASP761  ALA762  ILE779  LEU786  VAL792 
 PHE793  MET794  SER795  GLU796  ALA797  LYS798  CYS799  TRP800  GLU811  SER814 

> <Gold.Protein.RotatedAtoms>
  151.5996  133.3358  159.3044 H   0  0  0  0  0  0  0  0  0  0  0  0  # atno 6907 bound_to 6896
  150.8215  134.7428  159.6787 H   0  0  0  0  0  0  0  0  0  0  0  0  # atno 6908 bound_to 6896
  152.4308  134.5787  159.9993 H   0  0  0  0  0  0  0  0  0  0  0  0  # atno 6909 bound_to 6896
  146.2350  140.2038  142.8334 H   0  0  0  0  0  0  0  0  0  0  0  0  # atno 7974 bound_to 7965
  155.1137  140.3241  155.4515 H   0  0  0  0  0  0  0  0  0  0  0  0  # atno 8008 bound_to 7997
  156.2683  140.2039  156.6208 H   0  0  0  0  0  0  0  0  0  0  0  0  # atno 8009 bound_to 7997
  154.6736  140.0534  157.0179 H   0  0  0  0  0  0  0  0  0  0  0  0  # atno 8010 bound_to 7997
  139.6832  144.7116  151.1479 H   0  0  0  0  0  0  0  0  0  0  0  0  # atno 10167 bound_to 10162
  157.4069  131.1023  151.0495 H   0  0  0  0  0  0  0  0  0  0  0  0  # atno 10718 bound_to 10713
  154.8267  135.4551  154.0941 H   0  0  0  0  0  0  0  0  0  0  0  0  # atno 10763 bound_to 10752
  153.2249  135.6898  153.7963 H   0  0  0  0  0  0  0  0  0  0  0  0  # atno 10764 bound_to 10752
  153.7367  135.3318  155.3273 H   0  0  0  0  0  0  0  0  0  0  0  0  # atno 10765 bound_to 10752
  140.5421  134.0364  155.7908 H   0  0  0  0  0  0  0  0  0  0  0  0  # atno 11005 bound_to 11000
  144.9760  140.8414  143.5426 LP  0  0  0  0  0  0  0  0  0  0  0  0  # atno 17320 bound_to 7965
  145.2026  139.2244  143.5185 LP  0  0  0  0  0  0  0  0  0  0  0  0  # atno 17321 bound_to 7965
  140.7659  143.5669  150.9038 LP  0  0  0  0  0  0  0  0  0  0  0  0  # atno 17342 bound_to 10162
  139.9342  143.6458  152.3069 LP  0  0  0  0  0  0  0  0  0  0  0  0  # atno 17343 bound_to 10162
  157.1473  130.6169  149.5572 LP  0  0  0  0  0  0  0  0  0  0  0  0  # atno 17370 bound_to 10713
  155.9839  130.4861  150.6956 LP  0  0  0  0  0  0  0  0  0  0  0  0  # atno 17371 bound_to 10713
  141.1221  133.9444  157.2709 LP  0  0  0  0  0  0  0  0  0  0  0  0  # atno 17394 bound_to 11000
  139.9498  135.0177  156.8961 LP  0  0  0  0  0  0  0  0  0  0  0  0  # atno 17395 bound_to 11000

$$$$
