AV-unprocessed.smi:2100|AV-procd|sdf|8573|dock5
  -GOLD-   2272011303D 1   1.00000     0.00000
 Structure written by MMmdl.
 41 42  0  0  0  0  0  0  0  0  1 V2000
  148.6132  136.6595  159.4168 C   0  0  0  0  0  0  0  0  0  0  0  0
  149.7955  137.3839  158.7641 C   0  0  2  0  0  0  0  0  0  0  0  0
  149.3596  138.2060  157.5394 C   0  0  0  0  0  0  0  0  0  0  0  0
  150.5264  138.7837  156.8535 N   0  0  0  0  0  0  0  0  0  0  0  0
  150.2318  140.0154  155.6740 S   0  0  0  0  0  0  0  0  0  0  0  0
  150.8793  139.6297  154.4107 O   0  0  0  0  0  0  0  0  0  0  0  0
  148.8054  140.3721  155.7139 O   0  0  0  0  0  0  0  0  0  0  0  0
  151.1501  141.3004  156.3717 N   0  0  0  0  0  0  0  0  0  0  0  0
  150.8801  141.7283  157.7455 C   0  0  0  0  0  0  0  0  0  0  0  0
  151.7071  142.9674  158.1241 C   0  0  0  0  0  0  0  0  0  0  0  0
  152.2201  142.8960  159.5498 C   0  0  0  0  0  0  0  0  0  0  0  0
  153.0557  141.8366  159.9638 C   0  0  0  0  0  0  0  0  0  0  0  0
  153.5113  141.8234  161.2965 C   0  0  0  0  0  0  0  0  0  0  0  0
  153.1174  142.8649  162.1585 C   0  0  0  0  0  0  0  0  0  0  0  0
  152.2814  143.8778  161.6475 C   0  0  0  0  0  0  0  0  0  0  0  0
  151.8389  143.8998  160.3718 N   0  0  0  0  0  0  0  0  0  0  0  0
  151.5546  137.7831  156.5287 C   0  0  0  0  0  0  0  0  0  0  0  0
  151.9215  136.9273  157.7566 C   0  0  1  0  0  0  0  0  0  0  0  0
  152.8272  137.6613  158.7620 C   0  0  0  0  0  0  0  0  0  0  0  0
  150.7483  136.4021  158.3731 O   0  0  0  0  0  0  0  0  0  0  0  0
  147.8526  137.3674  159.7474 H   0  0  0  0  0  0  0  0  0  0  0  0
  148.9385  136.0908  160.2883 H   0  0  0  0  0  0  0  0  0  0  0  0
  148.1434  135.9634  158.7212 H   0  0  0  0  0  0  0  0  0  0  0  0
  150.2335  138.0470  159.5104 H   0  0  0  0  0  0  0  0  0  0  0  0
  148.8137  137.5780  156.8338 H   0  0  0  0  0  0  0  0  0  0  0  0
  148.6787  138.9976  157.8511 H   0  0  0  0  0  0  0  0  0  0  0  0
  151.2805  142.0786  155.7256 H   0  0  0  0  0  0  0  0  0  0  0  0
  149.8172  141.9561  157.8303 H   0  0  0  0  0  0  0  0  0  0  0  0
  151.0833  140.9014  158.4270 H   0  0  0  0  0  0  0  0  0  0  0  0
  152.5637  143.0741  157.4578 H   0  0  0  0  0  0  0  0  0  0  0  0
  151.1069  143.8701  158.0007 H   0  0  0  0  0  0  0  0  0  0  0  0
  153.3430  141.0530  159.2781 H   0  0  0  0  0  0  0  0  0  0  0  0
  154.1519  141.0292  161.6506 H   0  0  0  0  0  0  0  0  0  0  0  0
  153.4478  142.8876  163.1864 H   0  0  0  0  0  0  0  0  0  0  0  0
  151.9597  144.6918  162.2800 H   0  0  0  0  0  0  0  0  0  0  0  0
  151.1722  137.1431  155.7324 H   0  0  0  0  0  0  0  0  0  0  0  0
  152.4445  138.2752  156.1358 H   0  0  0  0  0  0  0  0  0  0  0  0
  152.4849  136.0642  157.4009 H   0  0  0  0  0  0  0  0  0  0  0  0
  153.7829  137.9178  158.3044 H   0  0  0  0  0  0  0  0  0  0  0  0
  153.0353  137.0338  159.6289 H   0  0  0  0  0  0  0  0  0  0  0  0
  152.3822  138.5900  159.1182 H   0  0  0  0  0  0  0  0  0  0  0  0
  1  2  1  0  0  0  0
  1 21  1  0  0  0  0
  1 22  1  0  0  0  0
  1 23  1  0  0  0  0
  2 20  1  0  0  0  0
  2  3  1  0  0  0  0
  2 24  1  0  0  0  0
  3  4  1  0  0  0  0
  3 25  1  0  0  0  0
  3 26  1  0  0  0  0
  4  5  1  0  0  0  0
  4 17  1  0  0  0  0
  5  6  2  0  0  0  0
  5  7  2  0  0  0  0
  5  8  1  0  0  0  0
  8  9  1  0  0  0  0
  8 27  1  0  0  0  0
  9 10  1  0  0  0  0
  9 28  1  0  0  0  0
  9 29  1  0  0  0  0
 10 11  1  0  0  0  0
 10 30  1  0  0  0  0
 10 31  1  0  0  0  0
 11 16  1  0  0  0  0
 11 12  2  0  0  0  0
 12 13  1  0  0  0  0
 12 32  1  0  0  0  0
 13 14  2  0  0  0  0
 13 33  1  0  0  0  0
 14 15  1  0  0  0  0
 14 34  1  0  0  0  0
 15 16  2  0  0  0  0
 15 35  1  0  0  0  0
 17 18  1  0  0  0  0
 17 36  1  0  0  0  0
 17 37  1  0  0  0  0
 18 19  1  0  0  0  0
 18 20  1  0  0  0  0
 18 38  1  0  0  0  0
 19 39  1  0  0  0  0
 19 40  1  0  0  0  0
 19 41  1  0  0  0  0
M  END
> <s_m_source_file>
AV-unprocessed.smi

> <i_m_source_file_index>
2100

> <i_lp_mmshare_version>
43012

> <i_f3d_flags>
0

> <s_epik_input>
W0NIM11bQ0BASF0xW0NIMl1OKFtDSDJdW0NASF0oTzEpW0NIM10pUyg9TykoPU8pW05IXVtDSDJdW0NIMl1jMltjSF1bY0hdW2NIXVtjSF1uMg==

> <s_epik_cmdline>
J2VwaWtfcHl0aG9uJywgJy1waCcsICc3LjAnLCAnLXRuJywgJzgnLCAnLW1hJywgJzIwMCcsICctbWV0YWxfYmluZGluZycsICctaW1hZScsICc8aW5maWxlLm1hZT4nLCAnLW9tYWUnLCAnPG91dGZpbGUubWFlPic=

> <r_epik_Ionization_Penalty>
0.085378

> <r_epik_Ionization_Penalty_Charging>
0

> <r_epik_Ionization_Penalty_Neutral>
0.085378

> <r_epik_State_Penalty>
0.0441186

> <r_epik_Charging_Adjusted_Penalty>
0.0441186

> <i_epik_Tot_Q>
0

> <i_epik_Tot_abs_Q>
0

> <r_epik_Metal_State_Penalty>
0.24397

> <b_epik_Metal_Only>
0

> <s_lp_Force_Field>
OPLS_2005

> <r_lp_Energy>
7.96462

> <b_lp_Chiralities_Consistent>
1

> <s_lp_Variant>
AV-unprocessed.smi:2100-1

> <Gold.Version>
5.8.1

> <Gold.Id.Protein>
6NUR|6NUR_protein|mol2

> <Gold.PLP.Fitness>
41.3661

> <Gold.PLP.PLP>
-36.5204

> <Gold.PLP.part.hbond>
-2.0000

> <Gold.PLP.part.metal>
0.0000

> <Gold.PLP.part.buried>
-6.6878

> <Gold.PLP.part.nonpolar>
-27.7395

> <Gold.PLP.part.repulsive>
0.2532

> <Gold.PLP.ligand.clash>
0.0000

> <Gold.PLP.ligand.torsion>
0.7901

> <Gold.PLP.Chemscore.Hbond>
1.8960

> <Gold.PLP.Chemscore.CHOScore>
0.0000

> <Gold.PLP.Chemscore.Metal>
0.0000

> <Gold.Chemscore.Hbonds>
donor molecule, donor type, donor heavy atom, donor atom, acceptor molecule, acceptor atom, score
      P1  H  6896  6908       L1    20  0.78
      P1  H  7989  7998       L1     6  1.00

> <Gold.PLP.Chemscore.Internal.Correction>
0.7379

> <Gold.Rescore>
     Score         DG    S(hbond)    S(metal)    S(lipo)     H(rot)  DE(clash)    DE(int)     intcor
     17.01     -17.77       1.69        0.00      94.10       1.71       0.00       0.75       ----

> <Gold.Chemscore.Fitness>
17.0135

> <Gold.Chemscore.DG>
-17.7655

> <Gold.Chemscore.ZeroCoef>
-5.4800

> <Gold.Chemscore.Hbond>
1.6897

> <Gold.Chemscore.Metal>
0.0000

> <Gold.Chemscore.Lipo>
94.0957

> <Gold.Chemscore.Internal_Hbond>
0.0000

> <Gold.Chemscore.DEClash>
0.0000

> <Gold.Chemscore.DEInternal>
0.7520

> <Gold.Chemscore.Rot>
1.7060

> <Gold.Chemscore.Internal.Correction>
   9.000000E+99

> <Gold.Chemscore.Hbonds>
donor molecule, donor type, donor heavy atom, donor atom, acceptor molecule, acceptor atom, score
      P1  H  6896  6908       L1    20  0.63
      P1  H  7989  7998       L1     6  0.96

> <Gold.Chemscore.Hbond.Weighted>
-5.6436

> <Gold.Chemscore.Metal.Weighted>
-0.0000

> <Gold.Chemscore.Lipo.Weighted>
-11.0092

> <Gold.Chemscore.Internal_Hbond.Weighted>
0.0000

> <Gold.Chemscore.DEClash.Weighted>
0.0000

> <Gold.Chemscore.DEInternal.Weighted>
0.7520

> <Gold.Chemscore.Rot.Weighted>
4.3674

> <Gold.Chemscore.Internal.Correction.Weighted>
   9.000000E+99

> <Gold.Protein.RotatedTorsions>
[ 6907 6896 6895 6894 ] final -164.47 input  -60.11 | X-H torsion
[ 7974 7965 7964 7962 ] final   20.83 input  175.53 | X-H torsion
[ 8008 7997 7996 7995 ] final   19.10 input   59.86 | X-H torsion
[ 10167 10162 10161 10158 ] final  -78.56 input  -65.29 | X-H torsion
[ 10718 10713 10712 10709 ] final  -17.65 input   66.30 | X-H torsion
[ 10763 10752 10751 10750 ] final  152.56 input  -60.55 | X-H torsion
[ 11005 11000 10999 10996 ] final -132.83 input  -57.11 | X-H torsion

> <Gold.Protein.ActiveResidues>
 VAL166  LYS551  ARG553  GLY616  TRP617  ASP618  TYR619  PRO620  LYS621  CYS622 
 ASP623  PHE694  ASN695  SER759  ASP760  ASP761  ALA762  ILE779  LEU786  VAL792 
 PHE793  MET794  SER795  GLU796  ALA797  LYS798  CYS799  TRP800  GLU811  SER814 

> <Gold.Protein.RotatedAtoms>
  151.4124  133.3723  159.2745 H   0  0  0  0  0  0  0  0  0  0  0  0  # atno 6907 bound_to 6896
  150.9353  134.8767  159.7588 H   0  0  0  0  0  0  0  0  0  0  0  0  # atno 6908 bound_to 6896
  152.5047  134.4071  159.9488 H   0  0  0  0  0  0  0  0  0  0  0  0  # atno 6909 bound_to 6896
  146.2095  139.8113  142.8699 H   0  0  0  0  0  0  0  0  0  0  0  0  # atno 7974 bound_to 7965
  154.9157  140.3020  155.5242 H   0  0  0  0  0  0  0  0  0  0  0  0  # atno 8008 bound_to 7997
  156.3012  140.2381  156.4138 H   0  0  0  0  0  0  0  0  0  0  0  0  # atno 8009 bound_to 7997
  154.8380  140.0415  157.1511 H   0  0  0  0  0  0  0  0  0  0  0  0  # atno 8010 bound_to 7997
  140.4671  143.2437  151.8261 H   0  0  0  0  0  0  0  0  0  0  0  0  # atno 10167 bound_to 10162
  156.5706  130.4748  149.6364 H   0  0  0  0  0  0  0  0  0  0  0  0  # atno 10718 bound_to 10713
  154.1220  135.2832  155.3206 H   0  0  0  0  0  0  0  0  0  0  0  0  # atno 10763 bound_to 10752
  154.6416  135.5400  153.7799 H   0  0  0  0  0  0  0  0  0  0  0  0  # atno 10764 bound_to 10752
  153.0309  135.6488  154.1374 H   0  0  0  0  0  0  0  0  0  0  0  0  # atno 10765 bound_to 10752
  140.9135  134.1537  157.4371 H   0  0  0  0  0  0  0  0  0  0  0  0  # atno 11005 bound_to 11000
  145.3193  141.0240  143.3509 LP  0  0  0  0  0  0  0  0  0  0  0  0  # atno 17320 bound_to 7965
  144.8878  139.4815  143.6692 LP  0  0  0  0  0  0  0  0  0  0  0  0  # atno 17321 bound_to 7965
  139.4813  144.4937  151.9152 LP  0  0  0  0  0  0  0  0  0  0  0  0  # atno 17342 bound_to 10162
  140.4022  144.2478  150.5892 LP  0  0  0  0  0  0  0  0  0  0  0  0  # atno 17343 bound_to 10162
  156.2718  130.7021  151.1821 LP  0  0  0  0  0  0  0  0  0  0  0  0  # atno 17370 bound_to 10713
  157.7349  131.0577  150.5500 LP  0  0  0  0  0  0  0  0  0  0  0  0  # atno 17371 bound_to 10713
  139.8762  134.9945  156.5695 LP  0  0  0  0  0  0  0  0  0  0  0  0  # atno 17394 bound_to 11000
  140.8080  133.8452  155.8784 LP  0  0  0  0  0  0  0  0  0  0  0  0  # atno 17395 bound_to 11000

$$$$
