AV-unprocessed.smi:1942|AV-procd|sdf|7849|dock9
  -GOLD-   22720 9593D 1   1.00000     0.00000
 Structure written by MMmdl.
 35 37  0  0  0  0  0  0  0  0  1 V2000
  153.0806  139.6601  155.2226 O   0  0  0  0  0  0  0  0  0  0  0  0
  151.8952  139.3346  155.1561 C   0  0  0  0  0  0  0  0  0  0  0  0
  151.4621  138.1040  154.4839 C   0  0  0  0  0  0  0  0  0  0  0  0
  150.1624  137.7525  154.4211 C   0  0  0  0  0  0  0  0  0  0  0  0
  149.1508  138.5896  155.0216 C   0  0  0  0  0  0  0  0  0  0  0  0
  149.5426  139.7176  155.6351 C   0  0  0  0  0  0  0  0  0  0  0  0
  150.8985  140.0945  155.7061 N   0  0  0  0  0  0  0  0  0  0  0  0
  151.2090  141.3538  156.4030 C   0  0  0  0  0  0  0  0  0  0  0  0
  151.9721  141.1006  157.6816 C   0  0  0  0  0  0  0  0  0  0  0  0
  152.2722  139.8742  158.1209 N   0  0  0  0  0  0  0  0  0  0  0  0
  152.9530  140.1225  159.2951 C   0  0  0  0  0  0  0  0  0  0  0  0
  153.5392  139.2323  160.2227 C   0  0  0  0  0  0  0  0  0  0  0  0
  154.1907  139.7257  161.3723 C   0  0  0  0  0  0  0  0  0  0  0  0
  154.9018  138.6248  162.4941 Cl  0  0  0  0  0  0  0  0  0  0  0  0
  154.2630  141.1140  161.6098 C   0  0  0  0  0  0  0  0  0  0  0  0
  153.6843  142.0178  160.6979 C   0  0  0  0  0  0  0  0  0  0  0  0
  153.0372  141.5191  159.5514 C   0  0  0  0  0  0  0  0  0  0  0  0
  152.3798  142.1198  158.4825 N   0  0  0  0  0  0  0  0  0  0  0  0
  152.1853  143.5531  158.3047 C   0  0  0  0  0  0  0  0  0  0  0  0
  151.9826  144.2914  159.6384 C   0  0  0  0  0  0  0  0  0  0  0  0
  151.9401  145.6897  159.4480 O   0  0  0  0  0  0  0  0  0  0  0  0
  152.2049  137.4651  154.0293 H   0  0  0  0  0  0  0  0  0  0  0  0
  149.8761  136.8397  153.9198 H   0  0  0  0  0  0  0  0  0  0  0  0
  148.1072  138.3144  154.9808 H   0  0  0  0  0  0  0  0  0  0  0  0
  148.8502  140.3948  156.1138 H   0  0  0  0  0  0  0  0  0  0  0  0
  151.7829  142.0008  155.7394 H   0  0  0  0  0  0  0  0  0  0  0  0
  150.3008  141.9072  156.6452 H   0  0  0  0  0  0  0  0  0  0  0  0
  153.4871  138.1678  160.0481 H   0  0  0  0  0  0  0  0  0  0  0  0
  154.7626  141.4860  162.4923 H   0  0  0  0  0  0  0  0  0  0  0  0
  153.7385  143.0812  160.8772 H   0  0  0  0  0  0  0  0  0  0  0  0
  153.0227  143.9769  157.7510 H   0  0  0  0  0  0  0  0  0  0  0  0
  151.3086  143.6982  157.6726 H   0  0  0  0  0  0  0  0  0  0  0  0
  151.0511  143.9723  160.1065 H   0  0  0  0  0  0  0  0  0  0  0  0
  152.7882  144.0542  160.3338 H   0  0  0  0  0  0  0  0  0  0  0  0
  151.0908  145.9220  159.1044 H   0  0  0  0  0  0  0  0  0  0  0  0
  1  2  2  0  0  0  0
  2  7  1  0  0  0  0
  2  3  1  0  0  0  0
  3  4  2  0  0  0  0
  3 22  1  0  0  0  0
  4  5  1  0  0  0  0
  4 23  1  0  0  0  0
  5  6  2  0  0  0  0
  5 24  1  0  0  0  0
  6  7  1  0  0  0  0
  6 25  1  0  0  0  0
  7  8  1  0  0  0  0
  8  9  1  0  0  0  0
  8 26  1  0  0  0  0
  8 27  1  0  0  0  0
  9 18  1  0  0  0  0
  9 10  2  0  0  0  0
 10 11  1  0  0  0  0
 11 17  2  0  0  0  0
 11 12  1  0  0  0  0
 12 13  2  0  0  0  0
 12 28  1  0  0  0  0
 13 14  1  0  0  0  0
 13 15  1  0  0  0  0
 15 16  2  0  0  0  0
 15 29  1  0  0  0  0
 16 17  1  0  0  0  0
 16 30  1  0  0  0  0
 17 18  1  0  0  0  0
 18 19  1  0  0  0  0
 19 20  1  0  0  0  0
 19 31  1  0  0  0  0
 19 32  1  0  0  0  0
 20 21  1  0  0  0  0
 20 33  1  0  0  0  0
 20 34  1  0  0  0  0
 21 35  1  0  0  0  0
M  END
> <s_m_source_file>
AV-unprocessed.smi

> <i_m_source_file_index>
1942

> <i_lp_mmshare_version>
43012

> <i_f3d_flags>
0

> <s_epik_input>
Tz1jMVtjSF1bY0hdW2NIXVtjSF1uMVtDSDJdYyhuMiluKFtDSDJdW0NIMl1bT0hdKWMoYzIzKVtjSF1bY0hdYyhDbClbY0hdMw==

> <s_epik_cmdline>
J2VwaWtfcHl0aG9uJywgJy1waCcsICc3LjAnLCAnLXRuJywgJzgnLCAnLW1hJywgJzIwMCcsICctbWV0YWxfYmluZGluZycsICctaW1hZScsICc8aW5maWxlLm1hZT4nLCAnLW9tYWUnLCAnPG91dGZpbGUubWFlPic=

> <r_lp_tautomer_probability>
1

> <r_epik_Ionization_Penalty>
0.0394182

> <r_epik_Ionization_Penalty_Charging>
8.17328e-07

> <r_epik_Ionization_Penalty_Neutral>
0.0394174

> <r_epik_State_Penalty>
0.0331163

> <r_epik_Charging_Adjusted_Penalty>
0.0331171

> <i_epik_Tot_Q>
0

> <i_epik_Tot_abs_Q>
0

> <r_epik_Metal_State_Penalty>
3.40583e-05

> <b_epik_Metal_Only>
0

> <s_lp_Force_Field>
OPLS_2005

> <r_lp_Energy>
18.6161

> <b_lp_Chiralities_Consistent>
1

> <s_lp_Variant>
AV-unprocessed.smi:1942-1

> <Gold.Version>
5.8.1

> <Gold.Id.Protein>
6NUR|6NUR_protein|mol2

> <Gold.PLP.Fitness>
47.0786

> <Gold.PLP.PLP>
-44.9121

> <Gold.PLP.part.hbond>
-2.3570

> <Gold.PLP.part.metal>
0.0000

> <Gold.PLP.part.buried>
-3.6859

> <Gold.PLP.part.nonpolar>
-38.6126

> <Gold.PLP.part.repulsive>
0.0034

> <Gold.PLP.ligand.clash>
0.0000

> <Gold.PLP.ligand.torsion>
0.4188

> <Gold.PLP.Chemscore.Hbond>
1.0000

> <Gold.PLP.Chemscore.CHOScore>
0.0000

> <Gold.PLP.Chemscore.Metal>
0.0000

> <Gold.Chemscore.Hbonds>
donor molecule, donor type, donor heavy atom, donor atom, acceptor molecule, acceptor atom, score
      P1  H  7997  8009       L1     1  1.00

> <Gold.PLP.Chemscore.Internal.Correction>
0.0042

> <Gold.Rescore>
     Score         DG    S(hbond)    S(metal)    S(lipo)     H(rot)  DE(clash)    DE(int)     intcor
     15.19     -16.07       1.00        0.00     111.87       2.27       0.46       0.41       ----

> <Gold.Chemscore.Fitness>
15.1946

> <Gold.Chemscore.DG>
-16.0700

> <Gold.Chemscore.ZeroCoef>
-5.4800

> <Gold.Chemscore.Hbond>
0.9957

> <Gold.Chemscore.Metal>
0.0000

> <Gold.Chemscore.Lipo>
111.8671

> <Gold.Chemscore.Internal_Hbond>
0.0000

> <Gold.Chemscore.DEClash>
0.4630

> <Gold.Chemscore.DEInternal>
0.4124

> <Gold.Chemscore.Rot>
2.2750

> <Gold.Chemscore.Internal.Correction>
   9.000000E+99

> <Gold.Chemscore.Hbonds>
donor molecule, donor type, donor heavy atom, donor atom, acceptor molecule, acceptor atom, score
      P1  H  7997  8009       L1     1  0.99

> <Gold.Chemscore.Hbond.Weighted>
-3.3255

> <Gold.Chemscore.Metal.Weighted>
-0.0000

> <Gold.Chemscore.Lipo.Weighted>
-13.0885

> <Gold.Chemscore.Internal_Hbond.Weighted>
0.0000

> <Gold.Chemscore.DEClash.Weighted>
0.4630

> <Gold.Chemscore.DEInternal.Weighted>
0.4124

> <Gold.Chemscore.Rot.Weighted>
5.8240

> <Gold.Chemscore.Internal.Correction.Weighted>
   9.000000E+99

> <Gold.Protein.RotatedTorsions>
[ 6907 6896 6895 6894 ] final  -94.34 input  -60.11 | X-H torsion
[ 7974 7965 7964 7962 ] final -127.37 input  175.53 | X-H torsion
[ 8008 7997 7996 7995 ] final -135.24 input   59.86 | X-H torsion
[ 10167 10162 10161 10158 ] final  -47.42 input  -65.29 | X-H torsion
[ 10718 10713 10712 10709 ] final -160.60 input   66.30 | X-H torsion
[ 10763 10752 10751 10750 ] final    7.63 input  -60.55 | X-H torsion
[ 11005 11000 10999 10996 ] final   79.06 input  -57.11 | X-H torsion

> <Gold.Protein.ActiveResidues>
 VAL166  LYS551  ARG553  GLY616  TRP617  ASP618  TYR619  PRO620  LYS621  CYS622 
 ASP623  PHE694  ASN695  SER759  ASP760  ASP761  ALA762  ILE779  LEU786  VAL792 
 PHE793  MET794  SER795  GLU796  ALA797  LYS798  CYS799  TRP800  GLU811  SER814 

> <Gold.Protein.RotatedAtoms>
  150.6940  134.1828  159.4254 H   0  0  0  0  0  0  0  0  0  0  0  0  # atno 6907 bound_to 6896
  151.9801  135.0030  160.0566 H   0  0  0  0  0  0  0  0  0  0  0  0  # atno 6908 bound_to 6896
  152.1762  133.4642  159.4971 H   0  0  0  0  0  0  0  0  0  0  0  0  # atno 6909 bound_to 6896
  144.9777  140.7609  143.4631 H   0  0  0  0  0  0  0  0  0  0  0  0  # atno 7974 bound_to 7965
  155.3753  140.0491  157.3045 H   0  0  0  0  0  0  0  0  0  0  0  0  # atno 8008 bound_to 7997
  154.5109  140.2191  155.9120 H   0  0  0  0  0  0  0  0  0  0  0  0  # atno 8009 bound_to 7997
  156.1582  140.3122  155.8767 H   0  0  0  0  0  0  0  0  0  0  0  0  # atno 8010 bound_to 7997
  140.6775  143.2785  151.3925 H   0  0  0  0  0  0  0  0  0  0  0  0  # atno 10167 bound_to 10162
  156.5845  130.8743  151.2873 H   0  0  0  0  0  0  0  0  0  0  0  0  # atno 10718 bound_to 10713
  153.2341  135.6896  153.7856 H   0  0  0  0  0  0  0  0  0  0  0  0  # atno 10763 bound_to 10752
  153.7010  135.3297  155.3225 H   0  0  0  0  0  0  0  0  0  0  0  0  # atno 10764 bound_to 10752
  154.8327  135.4568  154.1238 H   0  0  0  0  0  0  0  0  0  0  0  0  # atno 10765 bound_to 10752
  139.9187  134.7813  156.1730 H   0  0  0  0  0  0  0  0  0  0  0  0  # atno 11005 bound_to 11000
  145.2466  139.2049  143.4964 LP  0  0  0  0  0  0  0  0  0  0  0  0  # atno 17320 bound_to 7965
  146.3400  140.2371  142.8594 LP  0  0  0  0  0  0  0  0  0  0  0  0  # atno 17321 bound_to 7965
  139.6077  144.1163  152.2266 LP  0  0  0  0  0  0  0  0  0  0  0  0  # atno 17342 bound_to 10162
  140.0567  144.5889  150.7294 LP  0  0  0  0  0  0  0  0  0  0  0  0  # atno 17343 bound_to 10162
  157.7319  130.9706  150.1900 LP  0  0  0  0  0  0  0  0  0  0  0  0  # atno 17370 bound_to 10713
  156.2603  130.3710  149.8138 LP  0  0  0  0  0  0  0  0  0  0  0  0  # atno 17371 bound_to 10713
  141.0688  133.6806  156.2099 LP  0  0  0  0  0  0  0  0  0  0  0  0  # atno 17394 bound_to 11000
  140.6540  134.5037  157.5579 LP  0  0  0  0  0  0  0  0  0  0  0  0  # atno 17395 bound_to 11000

$$$$
