AV-unprocessed.smi:1422|AV-procd|sdf|5793|dock2
  -GOLD-   22720 5443D 1   1.00000     0.00000
 Structure written by MMmdl.
 31 32  0  0  0  0  0  0  0  0  1 V2000
  154.9199  134.4095  162.3450 C   0  0  0  0  0  0  0  0  0  0  0  0
  154.4811  135.6039  161.5695 C   0  0  0  0  0  0  0  0  0  0  0  0
  154.2550  136.9061  161.9163 C   0  0  0  0  0  0  0  0  0  0  0  0
  153.8578  137.4999  160.6887 C   0  0  0  0  0  0  0  0  0  0  0  0
  153.5283  138.8775  160.6198 N   0  0  0  0  0  0  0  0  0  0  0  0
  153.3912  139.6327  159.5167 C   0  0  0  0  0  0  0  0  0  0  0  0
  153.5332  139.2319  158.3610 O   0  0  0  0  0  0  0  0  0  0  0  0
  153.0783  140.8985  159.8299 N   0  0  0  0  0  0  0  0  0  0  0  0
  152.8598  141.9781  158.8719 C   0  0  0  0  0  0  0  0  0  0  0  0
  152.8722  143.3607  159.5506 C   0  0  1  0  0  0  0  0  0  0  0  0
  152.1303  144.4549  158.8069 C   0  0  0  0  0  0  0  0  0  0  0  0
  151.9044  145.4895  159.9057 C   0  0  0  0  0  0  0  0  0  0  0  0
  151.8101  144.7549  161.1230 O   0  0  0  0  0  0  0  0  0  0  0  0
  152.1502  143.3905  160.8970 C   0  0  0  0  0  0  0  0  0  0  0  0
  153.8423  136.6380  159.6835 N   0  0  0  0  0  0  0  0  0  0  0  0
  154.2412  135.4183  160.2430 O   0  0  0  0  0  0  0  0  0  0  0  0
  155.3641  134.7043  163.2960 H   0  0  0  0  0  0  0  0  0  0  0  0
  155.6632  133.8373  161.7893 H   0  0  0  0  0  0  0  0  0  0  0  0
  154.0745  133.7540  162.5547 H   0  0  0  0  0  0  0  0  0  0  0  0
  154.3578  137.3572  162.8920 H   0  0  0  0  0  0  0  0  0  0  0  0
  153.3806  139.3373  161.5059 H   0  0  0  0  0  0  0  0  0  0  0  0
  152.9831  141.1359  160.8065 H   0  0  0  0  0  0  0  0  0  0  0  0
  153.5937  141.9372  158.0651 H   0  0  0  0  0  0  0  0  0  0  0  0
  151.8883  141.8130  158.4057 H   0  0  0  0  0  0  0  0  0  0  0  0
  153.9043  143.6805  159.7047 H   0  0  0  0  0  0  0  0  0  0  0  0
  152.6863  144.8546  157.9583 H   0  0  0  0  0  0  0  0  0  0  0  0
  151.1716  144.0833  158.4416 H   0  0  0  0  0  0  0  0  0  0  0  0
  152.7589  146.1635  159.9752 H   0  0  0  0  0  0  0  0  0  0  0  0
  151.0118  146.0909  159.7322 H   0  0  0  0  0  0  0  0  0  0  0  0
  151.2275  142.8100  160.8531 H   0  0  0  0  0  0  0  0  0  0  0  0
  152.7606  142.9929  161.7081 H   0  0  0  0  0  0  0  0  0  0  0  0
  1  2  1  0  0  0  0
  1 17  1  0  0  0  0
  1 18  1  0  0  0  0
  1 19  1  0  0  0  0
  2 16  1  0  0  0  0
  2  3  2  0  0  0  0
  3  4  1  0  0  0  0
  3 20  1  0  0  0  0
  4  5  1  0  0  0  0
  4 15  2  0  0  0  0
  5  6  1  0  0  0  0
  5 21  1  0  0  0  0
  6  7  2  0  0  0  0
  6  8  1  0  0  0  0
  8  9  1  0  0  0  0
  8 22  1  0  0  0  0
  9 10  1  0  0  0  0
  9 23  1  0  0  0  0
  9 24  1  0  0  0  0
 10 14  1  0  0  0  0
 10 11  1  0  0  0  0
 10 25  1  0  0  0  0
 11 12  1  0  0  0  0
 11 26  1  0  0  0  0
 11 27  1  0  0  0  0
 12 13  1  0  0  0  0
 12 28  1  0  0  0  0
 12 29  1  0  0  0  0
 13 14  1  0  0  0  0
 14 30  1  0  0  0  0
 14 31  1  0  0  0  0
 15 16  1  0  0  0  0
M  END
> <s_m_source_file>
AV-unprocessed.smi

> <i_m_source_file_index>
1422

> <i_lp_mmshare_version>
43012

> <i_f3d_flags>
0

> <s_epik_input>
W0NIM11jMVtjSF1jKG5vMSlbTkhdQyg9TylbTkhdW0NIMl1bQ0BASF0yW0NIMl1bQ0gyXU9bQ0gyXTI=

> <s_epik_cmdline>
J2VwaWtfcHl0aG9uJywgJy1waCcsICc3LjAnLCAnLXRuJywgJzgnLCAnLW1hJywgJzIwMCcsICctbWV0YWxfYmluZGluZycsICctaW1hZScsICc8aW5maWxlLm1hZT4nLCAnLW9tYWUnLCAnPG91dGZpbGUubWFlPic=

> <r_lp_tautomer_probability>
1

> <r_epik_Ionization_Penalty>
2.27275e-05

> <r_epik_Ionization_Penalty_Charging>
0

> <r_epik_Ionization_Penalty_Neutral>
2.27275e-05

> <r_epik_State_Penalty>
-0

> <r_epik_Charging_Adjusted_Penalty>
0

> <i_epik_Tot_Q>
0

> <i_epik_Tot_abs_Q>
0

> <r_epik_Metal_State_Penalty>
-0

> <b_epik_Metal_Only>
0

> <s_lp_Force_Field>
OPLS_2005

> <r_lp_Energy>
16.3124

> <b_lp_Chiralities_Consistent>
1

> <s_lp_Variant>
AV-unprocessed.smi:1422-2

> <Gold.Version>
5.8.1

> <Gold.Id.Protein>
6NUR|6NUR_protein|mol2

> <Gold.PLP.Fitness>
36.4237

> <Gold.PLP.PLP>
-31.1044

> <Gold.PLP.part.hbond>
-2.0000

> <Gold.PLP.part.metal>
0.0000

> <Gold.PLP.part.buried>
-5.1137

> <Gold.PLP.part.nonpolar>
-24.6333

> <Gold.PLP.part.repulsive>
0.8415

> <Gold.PLP.ligand.clash>
0.0000

> <Gold.PLP.ligand.torsion>
0.3431

> <Gold.PLP.Chemscore.Hbond>
2.0000

> <Gold.PLP.Chemscore.CHOScore>
0.0000

> <Gold.PLP.Chemscore.Metal>
0.0000

> <Gold.Chemscore.Hbonds>
donor molecule, donor type, donor heavy atom, donor atom, acceptor molecule, acceptor atom, score
      P1  H  6896  6909       L1    16  0.98
      P1  H  7997  8009       L1     7  1.00

> <Gold.PLP.Chemscore.Internal.Correction>
0.0054

> <Gold.Rescore>
     Score         DG    S(hbond)    S(metal)    S(lipo)     H(rot)  DE(clash)    DE(int)     intcor
     14.49     -16.46       1.43        0.00      81.30       1.30       0.43       1.54       ----

> <Gold.Chemscore.Fitness>
14.4872

> <Gold.Chemscore.DG>
-16.4630

> <Gold.Chemscore.ZeroCoef>
-5.4800

> <Gold.Chemscore.Hbond>
1.4341

> <Gold.Chemscore.Metal>
0.0000

> <Gold.Chemscore.Lipo>
81.3002

> <Gold.Chemscore.Internal_Hbond>
0.0000

> <Gold.Chemscore.DEClash>
0.4324

> <Gold.Chemscore.DEInternal>
1.5433

> <Gold.Chemscore.Rot>
1.2965

> <Gold.Chemscore.Internal.Correction>
   9.000000E+99

> <Gold.Chemscore.Hbonds>
donor molecule, donor type, donor heavy atom, donor atom, acceptor molecule, acceptor atom, score
      P1  H  6896  6909       L1    16  0.22
      P1  H  7997  8009       L1     7  1.00

> <Gold.Chemscore.Hbond.Weighted>
-4.7900

> <Gold.Chemscore.Metal.Weighted>
-0.0000

> <Gold.Chemscore.Lipo.Weighted>
-9.5121

> <Gold.Chemscore.Internal_Hbond.Weighted>
0.0000

> <Gold.Chemscore.DEClash.Weighted>
0.4324

> <Gold.Chemscore.DEInternal.Weighted>
1.5433

> <Gold.Chemscore.Rot.Weighted>
3.3192

> <Gold.Chemscore.Internal.Correction.Weighted>
   9.000000E+99

> <Gold.Protein.RotatedTorsions>
[ 6907 6896 6895 6894 ] final -153.17 input  -60.11 | X-H torsion
[ 7974 7965 7964 7962 ] final  150.92 input  175.53 | X-H torsion
[ 8008 7997 7996 7995 ] final  151.70 input   59.86 | X-H torsion
[ 10167 10162 10161 10158 ] final  152.67 input  -65.29 | X-H torsion
[ 10718 10713 10712 10709 ] final  168.64 input   66.30 | X-H torsion
[ 10763 10752 10751 10750 ] final  -55.36 input  -60.55 | X-H torsion
[ 11005 11000 10999 10996 ] final -174.10 input  -57.11 | X-H torsion

> <Gold.Protein.ActiveResidues>
 VAL166  LYS551  ARG553  GLY616  TRP617  ASP618  TYR619  PRO620  LYS621  CYS622 
 ASP623  PHE694  ASN695  SER759  ASP760  ASP761  ALA762  ILE779  LEU786  VAL792 
 PHE793  MET794  SER795  GLU796  ALA797  LYS798  CYS799  TRP800  GLU811  SER814 

> <Gold.Protein.RotatedAtoms>
  151.2386  133.4412  159.2606 H   0  0  0  0  0  0  0  0  0  0  0  0  # atno 6907 bound_to 6896
  151.0727  134.9808  159.8327 H   0  0  0  0  0  0  0  0  0  0  0  0  # atno 6908 bound_to 6896
  152.5414  134.2330  159.8885 H   0  0  0  0  0  0  0  0  0  0  0  0  # atno 6909 bound_to 6896
  144.8329  139.6470  143.6050 H   0  0  0  0  0  0  0  0  0  0  0  0  # atno 7974 bound_to 7965
  156.2662  140.2040  156.6218 H   0  0  0  0  0  0  0  0  0  0  0  0  # atno 8008 bound_to 7997
  154.6751  140.0546  157.0231 H   0  0  0  0  0  0  0  0  0  0  0  0  # atno 8009 bound_to 7997
  155.1081  140.3212  155.4532 H   0  0  0  0  0  0  0  0  0  0  0  0  # atno 8010 bound_to 7997
  139.4831  144.5338  151.7679 H   0  0  0  0  0  0  0  0  0  0  0  0  # atno 10167 bound_to 10162
  157.0342  131.0268  151.2734 H   0  0  0  0  0  0  0  0  0  0  0  0  # atno 10718 bound_to 10713
  154.1896  135.6429  153.5056 H   0  0  0  0  0  0  0  0  0  0  0  0  # atno 10763 bound_to 10752
  153.0038  135.5425  154.6429 H   0  0  0  0  0  0  0  0  0  0  0  0  # atno 10764 bound_to 10752
  154.5814  135.2925  155.0701 H   0  0  0  0  0  0  0  0  0  0  0  0  # atno 10765 bound_to 10752
  140.4783  134.6100  157.4909 H   0  0  0  0  0  0  0  0  0  0  0  0  # atno 11005 bound_to 11000
  146.2631  139.6456  142.9348 LP  0  0  0  0  0  0  0  0  0  0  0  0  # atno 17320 bound_to 7965
  145.4856  141.0438  143.2621 LP  0  0  0  0  0  0  0  0  0  0  0  0  # atno 17321 bound_to 7965
  140.4868  144.1369  150.5942 LP  0  0  0  0  0  0  0  0  0  0  0  0  # atno 17342 bound_to 10162
  140.4216  143.2609  151.9708 LP  0  0  0  0  0  0  0  0  0  0  0  0  # atno 17343 bound_to 10162
  157.5154  130.7965  149.7750 LP  0  0  0  0  0  0  0  0  0  0  0  0  # atno 17370 bound_to 10713
  156.0059  130.3856  150.2433 LP  0  0  0  0  0  0  0  0  0  0  0  0  # atno 17371 bound_to 10713
  139.9842  134.7088  155.9804 LP  0  0  0  0  0  0  0  0  0  0  0  0  # atno 17394 bound_to 11000
  141.1544  133.6544  156.4114 LP  0  0  0  0  0  0  0  0  0  0  0  0  # atno 17395 bound_to 11000

$$$$
