AV-unprocessed.smi:1272|AV-procd|sdf|5335|dock7
  -GOLD-   22720 4463D 1   1.00000     0.00000
 Structure written by MMmdl.
 45 47  0  0  0  0  0  0  0  0  1 V2000
  151.3394  143.4739  157.8071 C   0  0  0  0  0  0  0  0  0  0  0  0
  151.0526  142.0162  158.1883 C   0  0  0  0  0  0  0  0  0  0  0  0
  150.8765  141.1835  157.0009 N   0  0  0  0  0  0  0  0  0  0  0  0
  151.7229  140.2260  156.5536 C   0  0  0  0  0  0  0  0  0  0  0  0
  152.7807  139.8896  157.0858 O   0  0  0  0  0  0  0  0  0  0  0  0
  151.2048  139.7039  155.4168 N   0  0  0  0  0  0  0  0  0  0  0  0
  151.7908  138.6391  154.6033 C   0  0  0  0  0  0  0  0  0  0  0  0
  150.8630  137.4095  154.5152 C   0  0  1  0  0  0  0  0  0  0  0  0
  151.5960  136.3737  153.8902 O   0  0  0  0  0  0  0  0  0  0  0  0
  150.4353  136.9084  155.9124 C   0  0  0  0  0  0  0  0  0  0  0  0
  151.3126  137.3051  157.0148 N   0  0  0  0  0  0  0  0  0  0  0  0
  152.4161  136.3623  157.1682 C   0  0  0  0  0  0  0  0  0  0  0  0
  153.3568  136.7576  158.3194 C   0  0  0  0  0  0  0  0  0  0  0  0
  152.6115  136.8606  159.5282 O   0  0  0  0  0  0  0  0  0  0  0  0
  151.5522  137.8074  159.4391 C   0  0  0  0  0  0  0  0  0  0  0  0
  150.6061  137.4201  158.2888 C   0  0  0  0  0  0  0  0  0  0  0  0
  149.9934  140.3484  155.1262 C   0  0  0  0  0  0  0  0  0  0  0  0
  149.0800  140.1728  154.0720 C   0  0  0  0  0  0  0  0  0  0  0  0
  147.9331  141.0009  154.0650 C   0  0  0  0  0  0  0  0  0  0  0  0
  147.7257  141.9644  155.0861 C   0  0  0  0  0  0  0  0  0  0  0  0
  148.6596  142.1186  156.1371 C   0  0  0  0  0  0  0  0  0  0  0  0
  149.7890  141.2817  156.1212 C   0  0  0  0  0  0  0  0  0  0  0  0
  151.4753  144.0877  158.6977 H   0  0  0  0  0  0  0  0  0  0  0  0
  150.5178  143.9007  157.2312 H   0  0  0  0  0  0  0  0  0  0  0  0
  152.2467  143.5535  157.2075 H   0  0  0  0  0  0  0  0  0  0  0  0
  151.8693  141.6259  158.7974 H   0  0  0  0  0  0  0  0  0  0  0  0
  150.1593  141.9610  158.8109 H   0  0  0  0  0  0  0  0  0  0  0  0
  152.0564  139.0051  153.6108 H   0  0  0  0  0  0  0  0  0  0  0  0
  152.7349  138.3561  155.0711 H   0  0  0  0  0  0  0  0  0  0  0  0
  149.9793  137.6509  153.9226 H   0  0  0  0  0  0  0  0  0  0  0  0
  151.5305  136.4857  152.9541 H   0  0  0  0  0  0  0  0  0  0  0  0
  149.4023  137.1912  156.1227 H   0  0  0  0  0  0  0  0  0  0  0  0
  150.4311  135.8182  155.8819 H   0  0  0  0  0  0  0  0  0  0  0  0
  152.0239  135.3607  157.3527 H   0  0  0  0  0  0  0  0  0  0  0  0
  152.9880  136.3069  156.2412 H   0  0  0  0  0  0  0  0  0  0  0  0
  154.1390  136.0087  158.4447 H   0  0  0  0  0  0  0  0  0  0  0  0
  153.8519  137.7064  158.1060 H   0  0  0  0  0  0  0  0  0  0  0  0
  151.0109  137.8271  160.3852 H   0  0  0  0  0  0  0  0  0  0  0  0
  151.9607  138.8072  159.2829 H   0  0  0  0  0  0  0  0  0  0  0  0
  149.8215  138.1728  158.2182 H   0  0  0  0  0  0  0  0  0  0  0  0
  150.1156  136.4750  158.5266 H   0  0  0  0  0  0  0  0  0  0  0  0
  149.2408  139.4372  153.2980 H   0  0  0  0  0  0  0  0  0  0  0  0
  147.2067  140.8985  153.2724 H   0  0  0  0  0  0  0  0  0  0  0  0
  146.8437  142.5873  155.0609 H   0  0  0  0  0  0  0  0  0  0  0  0
  148.5071  142.8498  156.9170 H   0  0  0  0  0  0  0  0  0  0  0  0
  1  2  1  0  0  0  0
  1 23  1  0  0  0  0
  1 24  1  0  0  0  0
  1 25  1  0  0  0  0
  2  3  1  0  0  0  0
  2 26  1  0  0  0  0
  2 27  1  0  0  0  0
  3 22  1  0  0  0  0
  3  4  1  0  0  0  0
  4  5  2  0  0  0  0
  4  6  1  0  0  0  0
  6  7  1  0  0  0  0
  6 17  1  0  0  0  0
  7  8  1  0  0  0  0
  7 28  1  0  0  0  0
  7 29  1  0  0  0  0
  8  9  1  0  0  0  0
  8 10  1  0  0  0  0
  8 30  1  0  0  0  0
  9 31  1  0  0  0  0
 10 11  1  0  0  0  0
 10 32  1  0  0  0  0
 10 33  1  0  0  0  0
 11 16  1  0  0  0  0
 11 12  1  0  0  0  0
 12 13  1  0  0  0  0
 12 34  1  0  0  0  0
 12 35  1  0  0  0  0
 13 14  1  0  0  0  0
 13 36  1  0  0  0  0
 13 37  1  0  0  0  0
 14 15  1  0  0  0  0
 15 16  1  0  0  0  0
 15 38  1  0  0  0  0
 15 39  1  0  0  0  0
 16 40  1  0  0  0  0
 16 41  1  0  0  0  0
 17 22  2  0  0  0  0
 17 18  1  0  0  0  0
 18 19  2  0  0  0  0
 18 42  1  0  0  0  0
 19 20  1  0  0  0  0
 19 43  1  0  0  0  0
 20 21  2  0  0  0  0
 20 44  1  0  0  0  0
 21 22  1  0  0  0  0
 21 45  1  0  0  0  0
M  END
> <s_m_source_file>
AV-unprocessed.smi

> <i_m_source_file_index>
1272

> <i_lp_mmshare_version>
43012

> <i_f3d_flags>
0

> <s_epik_input>
W2NIXTFbY0hdW2NIXVtjSF1jKGMxMiluKFtDSDJdW0NIM10pYyg9TyluMltDSDJdW0NASF0oW09IXSlbQ0gyXU4zW0NIMl1bQ0gyXU9bQ0gyXVtDSDJdMw==

> <s_epik_cmdline>
J2VwaWtfcHl0aG9uJywgJy1waCcsICc3LjAnLCAnLXRuJywgJzgnLCAnLW1hJywgJzIwMCcsICctbWV0YWxfYmluZGluZycsICctaW1hZScsICc8aW5maWxlLm1hZT4nLCAnLW9tYWUnLCAnPG91dGZpbGUubWFlPic=

> <r_epik_Ionization_Penalty>
0.214359

> <r_epik_Ionization_Penalty_Charging>
2.31431e-09

> <r_epik_Ionization_Penalty_Neutral>
0.214359

> <r_epik_State_Penalty>
0.204533

> <r_epik_Charging_Adjusted_Penalty>
0.204533

> <i_epik_Tot_Q>
0

> <i_epik_Tot_abs_Q>
0

> <r_epik_Metal_State_Penalty>
0.204533

> <b_epik_Metal_Only>
0

> <s_lp_Force_Field>
OPLS_2005

> <r_lp_Energy>
62.2606

> <b_lp_Chiralities_Consistent>
1

> <s_lp_Variant>
AV-unprocessed.smi:1272-2

> <Gold.Version>
5.8.1

> <Gold.Id.Protein>
6NUR|6NUR_protein|mol2

> <Gold.PLP.Fitness>
44.2865

> <Gold.PLP.PLP>
-34.1593

> <Gold.PLP.part.hbond>
-3.9002

> <Gold.PLP.part.metal>
0.0000

> <Gold.PLP.part.buried>
4.9022

> <Gold.PLP.part.nonpolar>
-35.0114

> <Gold.PLP.part.repulsive>
0.0000

> <Gold.PLP.ligand.clash>
0.0000

> <Gold.PLP.ligand.torsion>
0.9466

> <Gold.PLP.Chemscore.Hbond>
4.0000

> <Gold.PLP.Chemscore.CHOScore>
0.0000

> <Gold.PLP.Chemscore.Metal>
0.0000

> <Gold.Chemscore.Hbonds>
donor molecule, donor type, donor heavy atom, donor atom, acceptor molecule, acceptor atom, score
      L1  H     9    31       P1  7949  1.00
      P1  H  6896  6908       L1    14  1.00
      P1  H  7997  8009       L1     5  1.00
      P1  H 10752 10764       L1     9  1.00

> <Gold.PLP.Chemscore.Internal.Correction>
0.0204

> <Gold.Rescore>
     Score         DG    S(hbond)    S(metal)    S(lipo)     H(rot)  DE(clash)    DE(int)     intcor
     18.79     -21.18       3.48        0.00      81.69       2.14       0.28       2.11       ----

> <Gold.Chemscore.Fitness>
18.7908

> <Gold.Chemscore.DG>
-21.1797

> <Gold.Chemscore.ZeroCoef>
-5.4800

> <Gold.Chemscore.Hbond>
3.4779

> <Gold.Chemscore.Metal>
0.0000

> <Gold.Chemscore.Lipo>
81.6944

> <Gold.Chemscore.Internal_Hbond>
0.0000

> <Gold.Chemscore.DEClash>
0.2780

> <Gold.Chemscore.DEInternal>
2.1109

> <Gold.Chemscore.Rot>
2.1386

> <Gold.Chemscore.Internal.Correction>
   9.000000E+99

> <Gold.Chemscore.Hbonds>
donor molecule, donor type, donor heavy atom, donor atom, acceptor molecule, acceptor atom, score
      L1  H     9    31       P1  7949  0.89
      P1  H  6896  6908       L1    14  0.54
      P1  H  7997  8009       L1     5  0.98
      P1  H 10752 10764       L1     9  0.67

> <Gold.Chemscore.Hbond.Weighted>
-11.6163

> <Gold.Chemscore.Metal.Weighted>
-0.0000

> <Gold.Chemscore.Lipo.Weighted>
-9.5582

> <Gold.Chemscore.Internal_Hbond.Weighted>
0.0000

> <Gold.Chemscore.DEClash.Weighted>
0.2780

> <Gold.Chemscore.DEInternal.Weighted>
2.1109

> <Gold.Chemscore.Rot.Weighted>
5.4749

> <Gold.Chemscore.Internal.Correction.Weighted>
   9.000000E+99

> <Gold.Protein.RotatedTorsions>
[ 6907 6896 6895 6894 ] final -103.92 input  -60.11 | X-H torsion
[ 7974 7965 7964 7962 ] final -151.40 input  175.53 | X-H torsion
[ 8008 7997 7996 7995 ] final -168.70 input   59.86 | X-H torsion
[ 10167 10162 10161 10158 ] final  166.98 input  -65.29 | X-H torsion
[ 10718 10713 10712 10709 ] final  -51.71 input   66.30 | X-H torsion
[ 10763 10752 10751 10750 ] final  -79.93 input  -60.55 | X-H torsion
[ 11005 11000 10999 10996 ] final  157.50 input  -57.11 | X-H torsion

> <Gold.Protein.ActiveResidues>
 VAL166  LYS551  ARG553  GLY616  TRP617  ASP618  TYR619  PRO620  LYS621  CYS622 
 ASP623  PHE694  ASN695  SER759  ASP760  ASP761  ALA762  ILE779  LEU786  VAL792 
 PHE793  MET794  SER795  GLU796  ALA797  LYS798  CYS799  TRP800  GLU811  SER814 

> <Gold.Protein.RotatedAtoms>
  150.7263  134.0356  159.3747 H   0  0  0  0  0  0  0  0  0  0  0  0  # atno 6907 bound_to 6896
  151.8327  135.0614  160.0448 H   0  0  0  0  0  0  0  0  0  0  0  0  # atno 6908 bound_to 6896
  152.2921  133.5536  159.5601 H   0  0  0  0  0  0  0  0  0  0  0  0  # atno 6909 bound_to 6896
  144.7852  140.4803  143.5811 H   0  0  0  0  0  0  0  0  0  0  0  0  # atno 7974 bound_to 7965
  155.8950  140.1031  157.1391 H   0  0  0  0  0  0  0  0  0  0  0  0  # atno 8008 bound_to 7997
  154.4019  140.1303  156.4427 H   0  0  0  0  0  0  0  0  0  0  0  0  # atno 8009 bound_to 7997
  155.7490  140.3465  155.5143 H   0  0  0  0  0  0  0  0  0  0  0  0  # atno 8010 bound_to 7997
  139.4936  144.3970  151.9453 H   0  0  0  0  0  0  0  0  0  0  0  0  # atno 10167 bound_to 10162
  156.1686  130.4149  149.9682 H   0  0  0  0  0  0  0  0  0  0  0  0  # atno 10718 bound_to 10713
  154.5448  135.5678  153.6871 H   0  0  0  0  0  0  0  0  0  0  0  0  # atno 10763 bound_to 10752
  152.9973  135.6236  154.2453 H   0  0  0  0  0  0  0  0  0  0  0  0  # atno 10764 bound_to 10752
  154.2385  135.2863  155.2842 H   0  0  0  0  0  0  0  0  0  0  0  0  # atno 10765 bound_to 10752
  140.1776  134.8499  157.2764 H   0  0  0  0  0  0  0  0  0  0  0  0  # atno 11005 bound_to 11000
  145.5941  139.1498  143.3166 LP  0  0  0  0  0  0  0  0  0  0  0  0  # atno 17320 bound_to 7965
  146.2080  140.6066  142.9072 LP  0  0  0  0  0  0  0  0  0  0  0  0  # atno 17321 bound_to 7965
  140.3408  144.3205  150.5967 LP  0  0  0  0  0  0  0  0  0  0  0  0  # atno 17342 bound_to 10162
  140.5567  143.2198  151.7835 LP  0  0  0  0  0  0  0  0  0  0  0  0  # atno 17343 bound_to 10162
  156.7490  130.9108  151.3636 LP  0  0  0  0  0  0  0  0  0  0  0  0  # atno 17370 bound_to 10713
  157.6786  130.9118  150.0211 LP  0  0  0  0  0  0  0  0  0  0  0  0  # atno 17371 bound_to 10713
  140.2305  134.3915  155.7524 LP  0  0  0  0  0  0  0  0  0  0  0  0  # atno 17394 bound_to 11000
  141.2221  133.7212  156.8633 LP  0  0  0  0  0  0  0  0  0  0  0  0  # atno 17395 bound_to 11000

$$$$
