AV-unprocessed.smi:49|AV-procd|sdf|474|dock2
  -GOLD-   2262016343D 1   1.00000     0.00000
 Structure written by MMmdl.
 27 28  0  0  0  0  0  0  0  0  1 V2000
  152.5569  145.1256  157.7691 C   0  0  0  0  0  0  0  0  0  0  0  0
  151.5582  144.1424  158.3892 C   0  0  0  0  0  0  0  0  0  0  0  0
  151.3598  142.9199  157.5542 C   0  0  0  0  0  0  0  0  0  0  0  0
  151.8845  141.7261  157.8087 N   0  0  0  0  0  0  0  0  0  0  0  0
  151.3908  141.0118  156.7523 C   0  0  0  0  0  0  0  0  0  0  0  0
  151.6646  139.5479  156.5835 C   0  0  1  0  0  0  0  0  0  0  0  0
  150.8884  138.9431  155.3969 C   0  0  0  0  0  0  0  0  0  0  0  0
  151.9758  138.4935  154.4239 C   0  0  2  0  0  0  0  0  0  0  0  0
  151.5999  137.3676  153.6594 O   0  0  0  0  0  0  0  0  0  0  0  0
  153.1503  138.2015  155.3484 C   0  0  0  0  0  0  0  0  0  0  0  0
  153.0829  139.2477  156.3572 N   0  0  0  0  0  0  0  0  0  0  0  0
  150.5969  141.6836  155.9165 N   0  0  0  0  0  0  0  0  0  0  0  0
  150.5999  142.9199  156.4572 N   0  0  0  0  0  0  0  0  0  0  0  0
  151.3391  139.0396  157.4921 H   0  0  0  0  0  0  0  0  0  0  0  0
  152.2332  139.3156  153.7541 H   0  0  0  0  0  0  0  0  0  0  0  0
  150.0881  143.6962  156.0625 H   0  0  0  0  0  0  0  0  0  0  0  0
  152.6775  146.0060  158.4004 H   0  0  0  0  0  0  0  0  0  0  0  0
  152.2191  145.4629  156.7887 H   0  0  0  0  0  0  0  0  0  0  0  0
  153.5376  144.6654  157.6461 H   0  0  0  0  0  0  0  0  0  0  0  0
  151.8990  143.8443  159.3816 H   0  0  0  0  0  0  0  0  0  0  0  0
  150.5932  144.6312  158.5260 H   0  0  0  0  0  0  0  0  0  0  0  0
  150.3158  138.0832  155.7481 H   0  0  0  0  0  0  0  0  0  0  0  0
  150.1839  139.6365  154.9352 H   0  0  0  0  0  0  0  0  0  0  0  0
  151.0937  137.6640  152.9183 H   0  0  0  0  0  0  0  0  0  0  0  0
  153.0202  137.2270  155.8215 H   0  0  0  0  0  0  0  0  0  0  0  0
  154.1079  138.1973  154.8274 H   0  0  0  0  0  0  0  0  0  0  0  0
  153.5009  138.9007  157.2144 H   0  0  0  0  0  0  0  0  0  0  0  0
  1  2  1  0  0  0  0
  1 17  1  0  0  0  0
  1 18  1  0  0  0  0
  1 19  1  0  0  0  0
  2  3  1  0  0  0  0
  2 20  1  0  0  0  0
  2 21  1  0  0  0  0
  3 13  1  0  0  0  0
  3  4  2  0  0  0  0
  4  5  1  0  0  0  0
  5  6  1  0  0  0  0
  5 12  2  0  0  0  0
  6 14  1  0  0  0  0
  6 11  1  0  0  0  0
  6  7  1  0  0  0  0
  7  8  1  0  0  0  0
  7 22  1  0  0  0  0
  7 23  1  0  0  0  0
  8 15  1  0  0  0  0
  8  9  1  0  0  0  0
  8 10  1  0  0  0  0
  9 24  1  0  0  0  0
 10 11  1  0  0  0  0
 10 25  1  0  0  0  0
 10 26  1  0  0  0  0
 11 27  1  0  0  0  0
 12 13  1  0  0  0  0
 13 16  1  0  0  0  0
M  END
> <s_m_source_file>
AV-unprocessed.smi

> <i_m_source_file_index>
49

> <i_lp_mmshare_version>
43012

> <i_f3d_flags>
0

> <s_epik_input>
W0NIM11bQ0gyXWMxbmMobltuSF0xKVtDQEBIXTJbQ0gyXVtDQEBIXShbT0hdKVtDSDJdW05IXTI=

> <s_epik_cmdline>
J2VwaWtfcHl0aG9uJywgJy1waCcsICc3LjAnLCAnLXRuJywgJzgnLCAnLW1hJywgJzIwMCcsICctbWV0YWxfYmluZGluZycsICctaW1hZScsICc8aW5maWxlLm1hZT4nLCAnLW9tYWUnLCAnPG91dGZpbGUubWFlPic=

> <r_lp_tautomer_probability>
0.948284

> <r_epik_Ionization_Penalty>
1.6657

> <r_epik_Ionization_Penalty_Charging>
0

> <r_epik_Ionization_Penalty_Neutral>
1.6657

> <r_epik_State_Penalty>
2.01417

> <r_epik_Charging_Adjusted_Penalty>
2.01417

> <i_epik_Tot_Q>
0

> <i_epik_Tot_abs_Q>
0

> <r_epik_Metal_State_Penalty>
2.28256

> <b_epik_Metal_Only>
0

> <s_lp_Force_Field>
OPLS_2005

> <r_lp_Energy>
18.9317

> <b_lp_Chiralities_Consistent>
1

> <s_lp_Variant>
AV-unprocessed.smi:49-12

> <Gold.Version>
5.8.1

> <Gold.Id.Protein>
6NUR|6NUR_protein|mol2

> <Gold.PLP.Fitness>
35.7176

> <Gold.PLP.PLP>
-26.8812

> <Gold.PLP.part.hbond>
-4.0067

> <Gold.PLP.part.metal>
0.0000

> <Gold.PLP.part.buried>
-3.9568

> <Gold.PLP.part.nonpolar>
-18.9409

> <Gold.PLP.part.repulsive>
0.1647

> <Gold.PLP.ligand.clash>
0.0000

> <Gold.PLP.ligand.torsion>
0.2578

> <Gold.PLP.Chemscore.Hbond>
3.1131

> <Gold.PLP.Chemscore.CHOScore>
0.0000

> <Gold.PLP.Chemscore.Metal>
0.0000

> <Gold.Chemscore.Hbonds>
donor molecule, donor type, donor heavy atom, donor atom, acceptor molecule, acceptor atom, score
      L1  H     9    24       P1  7949  0.06
      L1  H    13    16       P1  8028  1.00
      P1  H  7997  8010       L1    11  0.10
      P1  H 10752 10765       L1     9  0.52

> <Gold.PLP.Chemscore.Internal.Correction>
0.0128

> <Gold.Rescore>
     Score         DG    S(hbond)    S(metal)    S(lipo)     H(rot)  DE(clash)    DE(int)     intcor
     14.33     -14.63       2.34        0.00      51.95       1.86       0.24       0.06       ----

> <Gold.Chemscore.Fitness>
14.3270

> <Gold.Chemscore.DG>
-14.6297

> <Gold.Chemscore.ZeroCoef>
-5.4800

> <Gold.Chemscore.Hbond>
2.3419

> <Gold.Chemscore.Metal>
0.0000

> <Gold.Chemscore.Lipo>
51.9517

> <Gold.Chemscore.Internal_Hbond>
0.0000

> <Gold.Chemscore.DEClash>
0.2446

> <Gold.Chemscore.DEInternal>
0.0581

> <Gold.Chemscore.Rot>
1.8558

> <Gold.Chemscore.Internal.Correction>
   9.000000E+99

> <Gold.Chemscore.Hbonds>
donor molecule, donor type, donor heavy atom, donor atom, acceptor molecule, acceptor atom, score
      L1  H     9    24       P1  7949  0.03
      L1  H    13    16       P1  8028  0.99
      P1  H 10752 10765       L1     9  0.38

> <Gold.Chemscore.Hbond.Weighted>
-7.8221

> <Gold.Chemscore.Metal.Weighted>
-0.0000

> <Gold.Chemscore.Lipo.Weighted>
-6.0783

> <Gold.Chemscore.Internal_Hbond.Weighted>
0.0000

> <Gold.Chemscore.DEClash.Weighted>
0.2446

> <Gold.Chemscore.DEInternal.Weighted>
0.0581

> <Gold.Chemscore.Rot.Weighted>
4.7507

> <Gold.Chemscore.Internal.Correction.Weighted>
   9.000000E+99

> <Gold.Protein.RotatedTorsions>
[ 6907 6896 6895 6894 ] final   19.99 input  -60.11 | X-H torsion
[ 7974 7965 7964 7962 ] final  124.37 input  175.53 | X-H torsion
[ 8008 7997 7996 7995 ] final   77.76 input   59.86 | X-H torsion
[ 10167 10162 10161 10158 ] final   54.81 input  -65.29 | X-H torsion
[ 10718 10713 10712 10709 ] final -149.48 input   66.30 | X-H torsion
[ 10763 10752 10751 10750 ] final  140.20 input  -60.55 | X-H torsion
[ 11005 11000 10999 10996 ] final   -4.07 input  -57.11 | X-H torsion

> <Gold.Protein.ActiveResidues>
 VAL166  LYS551  ARG553  GLY616  TRP617  ASP618  TYR619  PRO620  LYS621  CYS622 
 ASP623  PHE694  ASN695  SER759  ASP760  ASP761  ALA762  ILE779  LEU786  VAL792 
 PHE793  MET794  SER795  GLU796  ALA797  LYS798  CYS799  TRP800  GLU811  SER814 

> <Gold.Protein.RotatedAtoms>
  151.8895  135.0422  160.0496 H   0  0  0  0  0  0  0  0  0  0  0  0  # atno 6907 bound_to 6896
  152.2447  133.5160  159.5299 H   0  0  0  0  0  0  0  0  0  0  0  0  # atno 6908 bound_to 6896
  150.7064  134.0957  159.3990 H   0  0  0  0  0  0  0  0  0  0  0  0  # atno 6909 bound_to 6896
  145.0851  139.3628  143.4889 H   0  0  0  0  0  0  0  0  0  0  0  0  # atno 7974 bound_to 7965
  155.8461  140.3460  155.5663 H   0  0  0  0  0  0  0  0  0  0  0  0  # atno 8008 bound_to 7997
  155.8088  140.0896  157.1935 H   0  0  0  0  0  0  0  0  0  0  0  0  # atno 8009 bound_to 7997
  154.4006  140.1451  156.3349 H   0  0  0  0  0  0  0  0  0  0  0  0  # atno 8010 bound_to 7997
  140.2262  144.3736  150.6431 H   0  0  0  0  0  0  0  0  0  0  0  0  # atno 10167 bound_to 10162
  156.4336  130.8088  151.2315 H   0  0  0  0  0  0  0  0  0  0  0  0  # atno 10718 bound_to 10713
  153.9188  135.3003  155.3448 H   0  0  0  0  0  0  0  0  0  0  0  0  # atno 10763 bound_to 10752
  154.7586  135.4945  153.9425 H   0  0  0  0  0  0  0  0  0  0  0  0  # atno 10764 bound_to 10752
  153.1153  135.6769  153.9532 H   0  0  0  0  0  0  0  0  0  0  0  0  # atno 10765 bound_to 10752
  140.6763  133.9192  155.8526 H   0  0  0  0  0  0  0  0  0  0  0  0  # atno 11005 bound_to 11000
  146.3531  140.0660  142.8626 LP  0  0  0  0  0  0  0  0  0  0  0  0  # atno 17320 bound_to 7965
  145.1132  140.9417  143.4644 LP  0  0  0  0  0  0  0  0  0  0  0  0  # atno 17321 bound_to 7965
  140.6219  143.2177  151.6677 LP  0  0  0  0  0  0  0  0  0  0  0  0  # atno 17342 bound_to 10162
  139.5126  144.3470  152.0688 LP  0  0  0  0  0  0  0  0  0  0  0  0  # atno 17343 bound_to 10162
  157.7508  131.0190  150.3650 LP  0  0  0  0  0  0  0  0  0  0  0  0  # atno 17370 bound_to 10713
  156.3993  130.3912  149.6972 LP  0  0  0  0  0  0  0  0  0  0  0  0  # atno 17371 bound_to 10713
  141.0353  134.0699  157.3967 LP  0  0  0  0  0  0  0  0  0  0  0  0  # atno 17394 bound_to 11000
  139.8965  135.0146  156.7057 LP  0  0  0  0  0  0  0  0  0  0  0  0  # atno 17395 bound_to 11000

$$$$
