AV-unprocessed.smi:2726|AV-procd|sdf|10520|dock9
  -GOLD-   2272014563D 1   1.00000     0.00000
 Structure written by MMmdl.
 42 43  0  0  0  0  0  0  0  0  2 V2000
  147.8323  133.0895  152.7989 C   0  0  0  0  0  0  0  0  0  0  0  0
  148.2105  133.5117  154.2296 C   0  0  0  0  0  0  0  0  0  0  0  0
  146.9314  133.5524  155.0923 C   0  0  0  0  0  0  0  0  0  0  0  0
  149.2204  132.4944  154.8025 C   0  0  0  0  0  0  0  0  0  0  0  0
  148.8138  134.8470  154.1353 N   0  0  0  0  0  0  0  0  0  0  0  0
  149.2641  135.6313  155.1295 C   0  0  0  0  0  0  0  0  0  0  0  0
  149.2397  135.3187  156.3194 O   0  0  0  0  0  0  0  0  0  0  0  0
  149.7206  136.8012  154.6497 N   0  0  0  0  0  0  0  0  0  0  0  0
  150.2769  137.8928  155.3697 C   0  0  0  0  0  0  0  0  0  0  0  0
  151.4034  138.5400  154.8183 C   0  0  0  0  0  0  0  0  0  0  0  0
  151.9972  139.6188  155.5050 C   0  0  0  0  0  0  0  0  0  0  0  0
  151.4597  140.0302  156.7469 C   0  0  0  0  0  0  0  0  0  0  0  0
  151.9717  141.0901  157.5081 N   0  0  0  0  0  0  0  0  0  0  0  0
  151.0788  142.2263  157.6644 C   0  0  0  0  0  0  0  0  0  0  0  0
  151.6497  143.0374  158.8303 C   0  0  0  0  0  0  0  0  0  0  0  0
  152.5078  142.0419  159.6201 C   0  0  0  0  0  0  0  0  0  0  0  0
  152.3923  140.7235  158.8498 C   0  0  0  0  0  0  0  0  0  0  0  0
  150.3887  139.3771  157.2475 N   0  3  0  0  0  0  0  0  0  0  0  0
  149.7889  138.3416  156.6213 C   0  0  0  0  0  0  0  0  0  0  0  0
  147.3683  132.1027  152.7855 H   0  0  0  0  0  0  0  0  0  0  0  0
  148.7084  133.0475  152.1502 H   0  0  0  0  0  0  0  0  0  0  0  0
  147.1247  133.7886  152.3512 H   0  0  0  0  0  0  0  0  0  0  0  0
  146.2213  134.2889  154.7146 H   0  0  0  0  0  0  0  0  0  0  0  0
  147.1436  133.8020  156.1318 H   0  0  0  0  0  0  0  0  0  0  0  0
  146.4287  132.5848  155.0936 H   0  0  0  0  0  0  0  0  0  0  0  0
  148.8107  131.4839  154.7870 H   0  0  0  0  0  0  0  0  0  0  0  0
  149.4837  132.7139  155.8371 H   0  0  0  0  0  0  0  0  0  0  0  0
  150.1441  132.4821  154.2228 H   0  0  0  0  0  0  0  0  0  0  0  0
  148.8896  135.2173  153.1992 H   0  0  0  0  0  0  0  0  0  0  0  0
  149.6045  136.9491  153.6579 H   0  0  0  0  0  0  0  0  0  0  0  0
  151.8095  138.2183  153.8702 H   0  0  0  0  0  0  0  0  0  0  0  0
  152.8534  140.1198  155.0779 H   0  0  0  0  0  0  0  0  0  0  0  0
  151.0340  142.8181  156.7496 H   0  0  0  0  0  0  0  0  0  0  0  0
  150.0669  141.8939  157.8994 H   0  0  0  0  0  0  0  0  0  0  0  0
  152.2744  143.8497  158.4570 H   0  0  0  0  0  0  0  0  0  0  0  0
  150.8593  143.4796  159.4377 H   0  0  0  0  0  0  0  0  0  0  0  0
  153.5445  142.3800  159.6419 H   0  0  0  0  0  0  0  0  0  0  0  0
  152.1726  141.9326  160.6519 H   0  0  0  0  0  0  0  0  0  0  0  0
  151.6510  140.0768  159.3210 H   0  0  0  0  0  0  0  0  0  0  0  0
  153.3417  140.1873  158.8295 H   0  0  0  0  0  0  0  0  0  0  0  0
  148.9547  137.9118  157.1547 H   0  0  0  0  0  0  0  0  0  0  0  0
  150.0139  139.6800  158.1469 H   0  0  0  0  0  0  0  0  0  0  0  0
  1  2  1  0  0  0  0
  1 20  1  0  0  0  0
  1 21  1  0  0  0  0
  1 22  1  0  0  0  0
  2  3  1  0  0  0  0
  2  4  1  0  0  0  0
  2  5  1  0  0  0  0
  3 23  1  0  0  0  0
  3 24  1  0  0  0  0
  3 25  1  0  0  0  0
  4 26  1  0  0  0  0
  4 27  1  0  0  0  0
  4 28  1  0  0  0  0
  5  6  1  0  0  0  0
  5 29  1  0  0  0  0
  6  7  2  0  0  0  0
  6  8  1  0  0  0  0
  8  9  1  0  0  0  0
  8 30  1  0  0  0  0
  9 19  1  0  0  0  0
  9 10  2  0  0  0  0
 10 11  1  0  0  0  0
 10 31  1  0  0  0  0
 11 12  2  0  0  0  0
 11 32  1  0  0  0  0
 12 13  1  0  0  0  0
 12 18  1  0  0  0  0
 13 17  1  0  0  0  0
 13 14  1  0  0  0  0
 14 15  1  0  0  0  0
 14 33  1  0  0  0  0
 14 34  1  0  0  0  0
 15 16  1  0  0  0  0
 15 35  1  0  0  0  0
 15 36  1  0  0  0  0
 16 17  1  0  0  0  0
 16 37  1  0  0  0  0
 16 38  1  0  0  0  0
 17 39  1  0  0  0  0
 17 40  1  0  0  0  0
 18 19  2  0  0  0  0
 18 42  1  0  0  0  0
 19 41  1  0  0  0  0
M  CHG  1  18   1
M  END
> <s_m_source_file>
AV-unprocessed.smi

> <i_m_source_file_index>
2726

> <i_lp_mmshare_version>
43012

> <i_f3d_flags>
0

> <s_epik_input>
W0NIM11DKFtDSDNdKShbQ0gzXSlbTkhdQyg9TylbTkhdYzFbY0hdW2NIXWMobltjSF0xKU4yW0NIMl1bQ0gyXVtDSDJdW0NIMl0y

> <s_epik_cmdline>
J2VwaWtfcHl0aG9uJywgJy1waCcsICc3LjAnLCAnLXRuJywgJzgnLCAnLW1hJywgJzIwMCcsICctbWV0YWxfYmluZGluZycsICctaW1hZScsICc8aW5maWxlLm1hZT4nLCAnLW9tYWUnLCAnPG91dGZpbGUubWFlPic=

> <r_lp_tautomer_probability>
0.999994

> <r_epik_Ionization_Penalty>
1.07826

> <r_epik_Ionization_Penalty_Charging>
1.07824

> <r_epik_Ionization_Penalty_Neutral>
2.30307e-05

> <r_epik_State_Penalty>
1.13344

> <r_epik_Charging_Adjusted_Penalty>
2.21168

> <i_epik_Tot_Q>
1

> <i_epik_Tot_abs_Q>
1

> <r_epik_Metal_State_Penalty>
1.22394

> <b_epik_Metal_Only>
0

> <s_lp_Force_Field>
OPLS_2005

> <r_lp_Energy>
40.4449

> <b_lp_Chiralities_Consistent>
1

> <s_lp_Variant>
AV-unprocessed.smi:2726-2

> <Gold.Version>
5.8.1

> <Gold.Id.Protein>
6NUR|6NUR_protein|mol2

> <Gold.PLP.Fitness>
35.5284

> <Gold.PLP.PLP>
-30.2351

> <Gold.PLP.part.hbond>
-2.0000

> <Gold.PLP.part.metal>
0.0000

> <Gold.PLP.part.buried>
-2.1255

> <Gold.PLP.part.nonpolar>
-26.2972

> <Gold.PLP.part.repulsive>
0.0783

> <Gold.PLP.ligand.clash>
0.0000

> <Gold.PLP.ligand.torsion>
0.3501

> <Gold.PLP.Chemscore.Hbond>
1.9920

> <Gold.PLP.Chemscore.CHOScore>
0.0000

> <Gold.PLP.Chemscore.Metal>
0.0000

> <Gold.Chemscore.Hbonds>
donor molecule, donor type, donor heavy atom, donor atom, acceptor molecule, acceptor atom, score
      L1  H     5    29       P1  7948  1.00
      L1  H     8    30       P1  7948  0.98

> <Gold.PLP.Chemscore.Internal.Correction>
0.0175

> <Gold.Rescore>
     Score         DG    S(hbond)    S(metal)    S(lipo)     H(rot)  DE(clash)    DE(int)     intcor
     15.81     -16.92       1.75        0.00      73.65       1.18       0.19       0.93       ----

> <Gold.Chemscore.Fitness>
15.8074

> <Gold.Chemscore.DG>
-16.9221

> <Gold.Chemscore.ZeroCoef>
-5.4800

> <Gold.Chemscore.Hbond>
1.7525

> <Gold.Chemscore.Metal>
0.0000

> <Gold.Chemscore.Lipo>
73.6510

> <Gold.Chemscore.Internal_Hbond>
0.0000

> <Gold.Chemscore.DEClash>
0.1866

> <Gold.Chemscore.DEInternal>
0.9280

> <Gold.Chemscore.Rot>
1.1830

> <Gold.Chemscore.Internal.Correction>
   9.000000E+99

> <Gold.Chemscore.Hbonds>
donor molecule, donor type, donor heavy atom, donor atom, acceptor molecule, acceptor atom, score
      L1  H     5    29       P1  7948  0.50
      L1  H     8    30       P1  7948  0.70

> <Gold.Chemscore.Hbond.Weighted>
-5.8534

> <Gold.Chemscore.Metal.Weighted>
-0.0000

> <Gold.Chemscore.Lipo.Weighted>
-8.6172

> <Gold.Chemscore.Internal_Hbond.Weighted>
0.0000

> <Gold.Chemscore.DEClash.Weighted>
0.1866

> <Gold.Chemscore.DEInternal.Weighted>
0.9280

> <Gold.Chemscore.Rot.Weighted>
3.0285

> <Gold.Chemscore.Internal.Correction.Weighted>
   9.000000E+99

> <Gold.Protein.RotatedTorsions>
[ 6907 6896 6895 6894 ] final   83.41 input  -60.11 | X-H torsion
[ 7974 7965 7964 7962 ] final -134.30 input  175.53 | X-H torsion
[ 8008 7997 7996 7995 ] final   73.10 input   59.86 | X-H torsion
[ 10167 10162 10161 10158 ] final  -37.80 input  -65.29 | X-H torsion
[ 10718 10713 10712 10709 ] final -164.59 input   66.30 | X-H torsion
[ 10763 10752 10751 10750 ] final -176.10 input  -60.55 | X-H torsion
[ 11005 11000 10999 10996 ] final -104.38 input  -57.11 | X-H torsion

> <Gold.Protein.ActiveResidues>
 VAL166  LYS551  ARG553  GLY616  TRP617  ASP618  TYR619  PRO620  LYS621  CYS622 
 ASP623  PHE694  ASN695  SER759  ASP760  ASP761  ALA762  ILE779  LEU786  VAL792 
 PHE793  MET794  SER795  GLU796  ALA797  LYS798  CYS799  TRP800  GLU811  SER814 

> <Gold.Protein.RotatedAtoms>
  152.5326  134.2899  159.9038 H   0  0  0  0  0  0  0  0  0  0  0  0  # atno 6907 bound_to 6896
  151.2852  133.4184  159.2637 H   0  0  0  0  0  0  0  0  0  0  0  0  # atno 6908 bound_to 6896
  151.0249  134.9512  159.8136 H   0  0  0  0  0  0  0  0  0  0  0  0  # atno 6909 bound_to 6896
  144.9115  140.6901  143.5022 H   0  0  0  0  0  0  0  0  0  0  0  0  # atno 7974 bound_to 7965
  155.7786  140.3482  155.5285 H   0  0  0  0  0  0  0  0  0  0  0  0  # atno 8008 bound_to 7997
  155.8751  140.0993  157.1544 H   0  0  0  0  0  0  0  0  0  0  0  0  # atno 8009 bound_to 7997
  154.4020  140.1333  156.4113 H   0  0  0  0  0  0  0  0  0  0  0  0  # atno 8010 bound_to 7997
  140.7109  143.3318  151.2551 H   0  0  0  0  0  0  0  0  0  0  0  0  # atno 10167 bound_to 10162
  156.6412  130.8969  151.2996 H   0  0  0  0  0  0  0  0  0  0  0  0  # atno 10718 bound_to 10713
  154.5764  135.2832  155.0776 H   0  0  0  0  0  0  0  0  0  0  0  0  # atno 10763 bound_to 10752
  154.2129  135.6405  153.5124 H   0  0  0  0  0  0  0  0  0  0  0  0  # atno 10764 bound_to 10752
  153.0074  135.5496  154.6404 H   0  0  0  0  0  0  0  0  0  0  0  0  # atno 10765 bound_to 10752
  141.1103  133.8718  157.1603 H   0  0  0  0  0  0  0  0  0  0  0  0  # atno 11005 bound_to 11000
  145.3446  139.1723  143.4467 LP  0  0  0  0  0  0  0  0  0  0  0  0  # atno 17320 bound_to 7965
  146.3161  140.3491  142.8654 LP  0  0  0  0  0  0  0  0  0  0  0  0  # atno 17321 bound_to 7965
  139.6802  143.9867  152.2804 LP  0  0  0  0  0  0  0  0  0  0  0  0  # atno 17342 bound_to 10162
  139.9494  144.6630  150.8186 LP  0  0  0  0  0  0  0  0  0  0  0  0  # atno 17343 bound_to 10162
  157.7170  130.9510  150.1294 LP  0  0  0  0  0  0  0  0  0  0  0  0  # atno 17370 bound_to 10713
  156.2157  130.3670  149.8616 LP  0  0  0  0  0  0  0  0  0  0  0  0  # atno 17371 bound_to 10713
  139.9994  135.0034  157.0155 LP  0  0  0  0  0  0  0  0  0  0  0  0  # atno 17394 bound_to 11000
  140.4792  134.1306  155.7214 LP  0  0  0  0  0  0  0  0  0  0  0  0  # atno 17395 bound_to 11000

$$$$
