AV-unprocessed.smi:739|AV-procd|sdf|3542|dock3
  -GOLD-   22720 0533D 1   1.00000     0.00000
 Structure written by MMmdl.
 32 34  0  0  0  0  0  0  0  0  1 V2000
  150.5832  144.9111  158.1811 O   0  0  0  0  0  0  0  0  0  0  0  0
  151.1754  143.6343  158.3041 C   0  0  2  0  0  0  0  0  0  0  0  0
  150.0932  142.5715  158.0289 C   0  0  0  0  0  0  0  0  0  0  0  0
  150.5039  141.6219  157.0100 N   0  0  0  0  0  0  0  0  0  0  0  0
  150.2063  141.6644  155.6972 C   0  0  0  0  0  0  0  0  0  0  0  0
  150.7005  140.6981  154.9288 N   0  0  0  0  0  0  0  0  0  0  0  0
  151.3991  139.9373  155.8505 C   0  0  0  0  0  0  0  0  0  0  0  0
  152.1612  138.7599  155.6780 C   0  0  0  0  0  0  0  0  0  0  0  0
  152.7972  138.1517  156.7802 C   0  0  0  0  0  0  0  0  0  0  0  0
  153.5244  137.0241  156.5967 F   0  0  0  0  0  0  0  0  0  0  0  0
  152.6799  138.7108  158.0702 C   0  0  0  0  0  0  0  0  0  0  0  0
  153.2947  138.1219  159.1232 F   0  0  0  0  0  0  0  0  0  0  0  0
  151.9244  139.8823  158.2666 C   0  0  0  0  0  0  0  0  0  0  0  0
  151.2929  140.4864  157.1638 C   0  0  0  0  0  0  0  0  0  0  0  0
  151.8469  143.4392  159.6569 C   0  0  0  0  0  0  0  0  0  0  0  0
  152.7256  142.3523  159.8570 C   0  0  0  0  0  0  0  0  0  0  0  0
  153.3258  142.1462  161.1143 C   0  0  0  0  0  0  0  0  0  0  0  0
  153.0527  143.0266  162.1785 C   0  0  0  0  0  0  0  0  0  0  0  0
  153.6293  142.8279  163.3874 F   0  0  0  0  0  0  0  0  0  0  0  0
  152.1787  144.1133  161.9850 C   0  0  0  0  0  0  0  0  0  0  0  0
  151.5769  144.3192  160.7285 C   0  0  0  0  0  0  0  0  0  0  0  0
  149.9292  144.8735  157.4998 H   0  0  0  0  0  0  0  0  0  0  0  0
  151.9366  143.5730  157.5250 H   0  0  0  0  0  0  0  0  0  0  0  0
  149.8400  142.0276  158.9400 H   0  0  0  0  0  0  0  0  0  0  0  0
  149.1745  143.0510  157.6878 H   0  0  0  0  0  0  0  0  0  0  0  0
  149.5967  142.4534  155.2813 H   0  0  0  0  0  0  0  0  0  0  0  0
  152.2585  138.3233  154.6950 H   0  0  0  0  0  0  0  0  0  0  0  0
  151.8359  140.3129  159.2528 H   0  0  0  0  0  0  0  0  0  0  0  0
  152.9341  141.6661  159.0494 H   0  0  0  0  0  0  0  0  0  0  0  0
  153.9937  141.3106  161.2633 H   0  0  0  0  0  0  0  0  0  0  0  0
  151.9670  144.7876  162.8016 H   0  0  0  0  0  0  0  0  0  0  0  0
  150.8993  145.1495  160.5930 H   0  0  0  0  0  0  0  0  0  0  0  0
  1  2  1  0  0  0  0
  1 22  1  0  0  0  0
  2  3  1  0  0  0  0
  2 15  1  0  0  0  0
  2 23  1  0  0  0  0
  3  4  1  0  0  0  0
  3 24  1  0  0  0  0
  3 25  1  0  0  0  0
  4 14  1  0  0  0  0
  4  5  1  0  0  0  0
  5  6  2  0  0  0  0
  5 26  1  0  0  0  0
  6  7  1  0  0  0  0
  7 14  2  0  0  0  0
  7  8  1  0  0  0  0
  8  9  2  0  0  0  0
  8 27  1  0  0  0  0
  9 10  1  0  0  0  0
  9 11  1  0  0  0  0
 11 12  1  0  0  0  0
 11 13  2  0  0  0  0
 13 14  1  0  0  0  0
 13 28  1  0  0  0  0
 15 21  1  0  0  0  0
 15 16  2  0  0  0  0
 16 17  1  0  0  0  0
 16 29  1  0  0  0  0
 17 18  2  0  0  0  0
 17 30  1  0  0  0  0
 18 19  1  0  0  0  0
 18 20  1  0  0  0  0
 20 21  2  0  0  0  0
 20 31  1  0  0  0  0
 21 32  1  0  0  0  0
M  END
> <s_m_source_file>
AV-unprocessed.smi

> <i_m_source_file_index>
739

> <i_lp_mmshare_version>
43012

> <i_f3d_flags>
0

> <s_epik_input>
W2NIXTFbY0hdYyhGKVtjSF1bY0hdYzFbQ0BIXShbT0hdKVtDSDJdbihbY0hdbjIpYyhjMjMpW2NIXWMoRiljKEYpW2NIXTM=

> <s_epik_cmdline>
J2VwaWtfcHl0aG9uJywgJy1waCcsICc3LjAnLCAnLXRuJywgJzgnLCAnLW1hJywgJzIwMCcsICctbWV0YWxfYmluZGluZycsICctaW1hZScsICc8aW5maWxlLm1hZT4nLCAnLW9tYWUnLCAnPG91dGZpbGUubWFlPic=

> <r_epik_Ionization_Penalty>
0.0156356

> <r_epik_Ionization_Penalty_Charging>
0

> <r_epik_Ionization_Penalty_Neutral>
0.0156356

> <r_epik_State_Penalty>
0.0122974

> <r_epik_Charging_Adjusted_Penalty>
0.0122974

> <i_epik_Tot_Q>
0

> <i_epik_Tot_abs_Q>
0

> <r_epik_Metal_State_Penalty>
1.24258e-05

> <b_epik_Metal_Only>
0

> <s_lp_Force_Field>
OPLS_2005

> <r_lp_Energy>
11.0566

> <b_lp_Chiralities_Consistent>
1

> <s_lp_Variant>
AV-unprocessed.smi:739-1

> <Gold.Version>
5.8.1

> <Gold.Id.Protein>
6NUR|6NUR_protein|mol2

> <Gold.PLP.Fitness>
54.5198

> <Gold.PLP.PLP>
-48.3716

> <Gold.PLP.part.hbond>
-2.4033

> <Gold.PLP.part.metal>
0.0000

> <Gold.PLP.part.buried>
-2.6902

> <Gold.PLP.part.nonpolar>
-42.3764

> <Gold.PLP.part.repulsive>
0.0691

> <Gold.PLP.ligand.clash>
0.0000

> <Gold.PLP.ligand.torsion>
1.3315

> <Gold.PLP.Chemscore.Hbond>
2.0000

> <Gold.PLP.Chemscore.CHOScore>
0.9253

> <Gold.PLP.Chemscore.Metal>
0.0000

> <Gold.Chemscore.Hbonds>
donor molecule, donor type, donor heavy atom, donor atom, acceptor molecule, acceptor atom, score
      L1  H     1    22       P1  8028  0.49
      P1  H  7989  7998       L1     6  0.91
      L1  C     5    26       P1  8028  1.00

> <Gold.PLP.Chemscore.Internal.Correction>
0.0352

> <Gold.Rescore>
     Score         DG    S(hbond)    S(metal)    S(lipo)     H(rot)  DE(clash)    DE(int)     intcor
     15.54     -17.11       0.96        0.00     117.28       2.07       0.18       1.38       ----

> <Gold.Chemscore.Fitness>
15.5446

> <Gold.Chemscore.DG>
-17.1052

> <Gold.Chemscore.ZeroCoef>
-5.4800

> <Gold.Chemscore.Hbond>
0.9589

> <Gold.Chemscore.Metal>
0.0000

> <Gold.Chemscore.Lipo>
117.2795

> <Gold.Chemscore.Internal_Hbond>
0.0000

> <Gold.Chemscore.DEClash>
0.1784

> <Gold.Chemscore.DEInternal>
1.3821

> <Gold.Chemscore.Rot>
2.0700

> <Gold.Chemscore.Internal.Correction>
   9.000000E+99

> <Gold.Chemscore.Hbonds>
donor molecule, donor type, donor heavy atom, donor atom, acceptor molecule, acceptor atom, score
      L1  H     1    22       P1  8028  0.03
      P1  H  7989  7998       L1     6  0.65

> <Gold.Chemscore.Hbond.Weighted>
-3.2027

> <Gold.Chemscore.Metal.Weighted>
-0.0000

> <Gold.Chemscore.Lipo.Weighted>
-13.7217

> <Gold.Chemscore.Internal_Hbond.Weighted>
0.0000

> <Gold.Chemscore.DEClash.Weighted>
0.1784

> <Gold.Chemscore.DEInternal.Weighted>
1.3821

> <Gold.Chemscore.Rot.Weighted>
5.2992

> <Gold.Chemscore.Internal.Correction.Weighted>
   9.000000E+99

> <Gold.Protein.RotatedTorsions>
[ 6907 6896 6895 6894 ] final  -49.40 input  -60.11 | X-H torsion
[ 7974 7965 7964 7962 ] final  -71.28 input  175.53 | X-H torsion
[ 8008 7997 7996 7995 ] final    7.61 input   59.86 | X-H torsion
[ 10167 10162 10161 10158 ] final  -36.80 input  -65.29 | X-H torsion
[ 10718 10713 10712 10709 ] final   99.88 input   66.30 | X-H torsion
[ 10763 10752 10751 10750 ] final  -14.61 input  -60.55 | X-H torsion
[ 11005 11000 10999 10996 ] final -142.90 input  -57.11 | X-H torsion

> <Gold.Protein.ActiveResidues>
 VAL166  LYS551  ARG553  GLY616  TRP617  ASP618  TYR619  PRO620  LYS621  CYS622 
 ASP623  PHE694  ASN695  SER759  ASP760  ASP761  ALA762  ILE779  LEU786  VAL792 
 PHE793  MET794  SER795  GLU796  ALA797  LYS798  CYS799  TRP800  GLU811  SER814 

> <Gold.Protein.RotatedAtoms>
  150.8809  134.8199  159.7223 H   0  0  0  0  0  0  0  0  0  0  0  0  # atno 6907 bound_to 6896
  152.4777  134.4798  159.9672 H   0  0  0  0  0  0  0  0  0  0  0  0  # atno 6908 bound_to 6896
  151.4873  133.3494  159.2883 H   0  0  0  0  0  0  0  0  0  0  0  0  # atno 6909 bound_to 6896
  145.6801  140.9191  143.0837 H   0  0  0  0  0  0  0  0  0  0  0  0  # atno 7974 bound_to 7965
  154.7561  140.2776  155.6252 H   0  0  0  0  0  0  0  0  0  0  0  0  # atno 8008 bound_to 7997
  156.2906  140.2669  156.2254 H   0  0  0  0  0  0  0  0  0  0  0  0  # atno 8009 bound_to 7997
  155.0076  140.0372  157.2376 H   0  0  0  0  0  0  0  0  0  0  0  0  # atno 8010 bound_to 7997
  140.7134  143.3384  151.2411 H   0  0  0  0  0  0  0  0  0  0  0  0  # atno 10167 bound_to 10162
  157.6866  131.0682  150.5015 H   0  0  0  0  0  0  0  0  0  0  0  0  # atno 10718 bound_to 10713
  153.5308  135.7014  153.5684 H   0  0  0  0  0  0  0  0  0  0  0  0  # atno 10763 bound_to 10752
  153.3692  135.3949  155.1776 H   0  0  0  0  0  0  0  0  0  0  0  0  # atno 10764 bound_to 10752
  154.8685  135.3808  154.4805 H   0  0  0  0  0  0  0  0  0  0  0  0  # atno 10765 bound_to 10752
  140.8179  134.2666  157.4913 H   0  0  0  0  0  0  0  0  0  0  0  0  # atno 11005 bound_to 11000
  144.7029  139.8685  143.7439 LP  0  0  0  0  0  0  0  0  0  0  0  0  # atno 17320 bound_to 7965
  146.0972  139.3965  143.0369 LP  0  0  0  0  0  0  0  0  0  0  0  0  # atno 17321 bound_to 7965
  139.6885  143.9732  152.2847 LP  0  0  0  0  0  0  0  0  0  0  0  0  # atno 17342 bound_to 10162
  139.9386  144.6696  150.8289 LP  0  0  0  0  0  0  0  0  0  0  0  0  # atno 17343 bound_to 10162
  156.5337  130.4191  149.6189 LP  0  0  0  0  0  0  0  0  0  0  0  0  # atno 17370 bound_to 10713
  156.3047  130.7196  151.2075 LP  0  0  0  0  0  0  0  0  0  0  0  0  # atno 17371 bound_to 10713
  139.8710  134.9519  156.4099 LP  0  0  0  0  0  0  0  0  0  0  0  0  # atno 17394 bound_to 11000
  140.9130  133.7698  155.9814 LP  0  0  0  0  0  0  0  0  0  0  0  0  # atno 17395 bound_to 11000

$$$$
