AV-unprocessed.smi:1762|AV-procd|sdf|7123|dock10
  -GOLD-   22720 8353D 1   1.00000     0.00000
 Structure written by MMmdl.
 52 53  0  0  0  0  0  0  0  0  3 V2000
  148.4889  140.0257  154.5560 C   0  0  0  0  0  0  0  0  0  0  0  0
  149.4216  138.8600  154.2087 C   0  0  2  0  0  0  0  0  0  0  0  0
  149.1172  137.6046  155.0481 C   0  0  0  0  0  0  0  0  0  0  0  0
  150.0797  136.5091  154.7463 N   0  3  2  0  0  0  0  0  0  0  0  0
  149.8325  135.2241  155.4844 C   0  0  2  0  0  0  0  0  0  0  0  0
  150.7270  135.1340  156.7454 C   0  0  0  0  0  0  0  0  0  0  0  0
  151.9309  134.8954  156.5980 O   0  0  0  0  0  0  0  0  0  0  0  0
  150.0101  135.3645  157.8790 N   0  5  0  0  0  0  0  0  0  0  0  0
  148.5757  135.6454  157.8925 C   0  0  0  0  0  0  0  0  0  0  0  0
  148.2350  136.6569  159.0116 C   0  0  0  0  0  0  0  0  0  0  0  0
  147.9834  136.0436  160.3880 C   0  0  0  0  0  0  0  0  0  0  0  0
  147.7865  134.6508  160.5284 C   0  0  0  0  0  0  0  0  0  0  0  0
  147.5560  134.1267  161.8145 C   0  0  0  0  0  0  0  0  0  0  0  0
  147.5201  135.0096  162.9101 C   0  0  0  0  0  0  0  0  0  0  0  0
  147.7146  136.3839  162.6687 C   0  0  0  0  0  0  0  0  0  0  0  0
  147.9368  136.8974  161.4400 N   0  0  0  0  0  0  0  0  0  0  0  0
  149.9669  133.9314  154.6077 C   0  0  0  0  0  0  0  0  0  0  0  0
  148.6945  133.6170  153.7972 C   0  0  0  0  0  0  0  0  0  0  0  0
  150.4226  132.6782  155.3842 C   0  0  0  0  0  0  0  0  0  0  0  0
  151.4690  137.0235  154.9198 C   0  0  0  0  0  0  0  0  0  0  0  0
  151.7048  138.2875  154.0744 C   0  0  2  0  0  0  0  0  0  0  0  0
  153.1081  138.8678  154.2824 C   0  0  0  0  0  0  0  0  0  0  0  0
  150.7578  139.2775  154.4515 O   0  0  0  0  0  0  0  0  0  0  0  0
  147.4464  139.7626  154.3758 H   0  0  0  0  0  0  0  0  0  0  0  0
  148.7191  140.9023  153.9501 H   0  0  0  0  0  0  0  0  0  0  0  0
  148.5859  140.3106  155.6038 H   0  0  0  0  0  0  0  0  0  0  0  0
  149.3043  138.6286  153.1485 H   0  0  0  0  0  0  0  0  0  0  0  0
  149.1565  137.8385  156.1132 H   0  0  0  0  0  0  0  0  0  0  0  0
  148.0959  137.3070  154.8193 H   0  0  0  0  0  0  0  0  0  0  0  0
  148.7850  135.2689  155.7931 H   0  0  0  0  0  0  0  0  0  0  0  0
  148.2162  136.0385  156.9402 H   0  0  0  0  0  0  0  0  0  0  0  0
  148.0065  134.7315  158.0659 H   0  0  0  0  0  0  0  0  0  0  0  0
  149.0564  137.3688  159.1039 H   0  0  0  0  0  0  0  0  0  0  0  0
  147.3664  137.2496  158.7216 H   0  0  0  0  0  0  0  0  0  0  0  0
  147.8266  133.9980  159.6688 H   0  0  0  0  0  0  0  0  0  0  0  0
  147.4115  133.0662  161.9577 H   0  0  0  0  0  0  0  0  0  0  0  0
  147.3467  134.6435  163.9110 H   0  0  0  0  0  0  0  0  0  0  0  0
  147.6894  137.0902  163.4851 H   0  0  0  0  0  0  0  0  0  0  0  0
  150.7176  134.1278  153.8437 H   0  0  0  0  0  0  0  0  0  0  0  0
  147.8632  133.3184  154.4370 H   0  0  0  0  0  0  0  0  0  0  0  0
  148.8697  132.8026  153.0939 H   0  0  0  0  0  0  0  0  0  0  0  0
  148.3750  134.4842  153.2188 H   0  0  0  0  0  0  0  0  0  0  0  0
  149.6502  132.3227  156.0660 H   0  0  0  0  0  0  0  0  0  0  0  0
  151.3216  132.8634  155.9713 H   0  0  0  0  0  0  0  0  0  0  0  0
  150.6461  131.8601  154.6989 H   0  0  0  0  0  0  0  0  0  0  0  0
  151.6448  137.2393  155.9751 H   0  0  0  0  0  0  0  0  0  0  0  0
  152.2069  136.2772  154.6262 H   0  0  0  0  0  0  0  0  0  0  0  0
  151.5813  138.0515  153.0159 H   0  0  0  0  0  0  0  0  0  0  0  0
  153.8768  138.1486  153.9984 H   0  0  0  0  0  0  0  0  0  0  0  0
  153.2727  139.1396  155.3255 H   0  0  0  0  0  0  0  0  0  0  0  0
  153.2529  139.7637  153.6781 H   0  0  0  0  0  0  0  0  0  0  0  0
  149.9712  136.2897  153.7663 H   0  0  0  0  0  0  0  0  0  0  0  0
  1  2  1  0  0  0  0
  1 24  1  0  0  0  0
  1 25  1  0  0  0  0
  1 26  1  0  0  0  0
  2 23  1  0  0  0  0
  2  3  1  0  0  0  0
  2 27  1  0  0  0  0
  3  4  1  0  0  0  0
  3 28  1  0  0  0  0
  3 29  1  0  0  0  0
  4  5  1  0  0  0  0
  4 20  1  0  0  0  0
  4 52  1  0  0  0  0
  5  6  1  0  0  0  0
  5 17  1  0  0  0  0
  5 30  1  0  0  0  0
  6  7  2  0  0  0  0
  6  8  1  0  0  0  0
  8  9  1  0  0  0  0
  9 10  1  0  0  0  0
  9 31  1  0  0  0  0
  9 32  1  0  0  0  0
 10 11  1  0  0  0  0
 10 33  1  0  0  0  0
 10 34  1  0  0  0  0
 11 16  1  0  0  0  0
 11 12  2  0  0  0  0
 12 13  1  0  0  0  0
 12 35  1  0  0  0  0
 13 14  2  0  0  0  0
 13 36  1  0  0  0  0
 14 15  1  0  0  0  0
 14 37  1  0  0  0  0
 15 16  2  0  0  0  0
 15 38  1  0  0  0  0
 17 18  1  0  0  0  0
 17 19  1  0  0  0  0
 17 39  1  0  0  0  0
 18 40  1  0  0  0  0
 18 41  1  0  0  0  0
 18 42  1  0  0  0  0
 19 43  1  0  0  0  0
 19 44  1  0  0  0  0
 19 45  1  0  0  0  0
 20 21  1  0  0  0  0
 20 46  1  0  0  0  0
 20 47  1  0  0  0  0
 21 22  1  0  0  0  0
 21 23  1  0  0  0  0
 21 48  1  0  0  0  0
 22 49  1  0  0  0  0
 22 50  1  0  0  0  0
 22 51  1  0  0  0  0
M  CHG  1   4   1
M  CHG  1   8  -1
M  END
> <s_m_source_file>
AV-unprocessed.smi

> <i_m_source_file_index>
1762

> <i_lp_mmshare_version>
43012

> <i_f3d_flags>
0

> <s_epik_input>
W0NIM11bQ0BASF0xW0NIMl1OKFtDSDJdW0NASF0oTzEpW0NIM10pW0NAQEhdKFtDSF0oW0NIM10pW0NIM10pQyg9TylbTkhdW0NIMl1bQ0gyXWMyW2NIXVtjSF1bY0hdW2NIXW4y

> <s_epik_cmdline>
J2VwaWtfcHl0aG9uJywgJy1waCcsICc3LjAnLCAnLXRuJywgJzgnLCAnLW1hJywgJzIwMCcsICctbWV0YWxfYmluZGluZycsICctaW1hZScsICc8aW5maWxlLm1hZT4nLCAnLW9tYWUnLCAnPG91dGZpbGUubWFlPic=

> <r_epik_Ionization_Penalty>
7.82966

> <r_epik_Ionization_Penalty_Charging>
7.7461

> <r_epik_Ionization_Penalty_Neutral>
0.0835571

> <r_epik_State_Penalty>
8.52273

> <r_epik_Charging_Adjusted_Penalty>
16.2688

> <i_epik_Tot_Q>
0

> <i_epik_Tot_abs_Q>
2

> <r_epik_Metal_State_Penalty>
4.47451

> <b_epik_Metal_Only>
1

> <s_lp_Force_Field>
OPLS_2005

> <r_lp_Energy>
21.039

> <b_lp_Chiralities_Consistent>
1

> <s_lp_Variant>
AV-unprocessed.smi:1762-25

> <Gold.Version>
5.8.1

> <Gold.Id.Protein>
6NUR|6NUR_protein|mol2

> <Gold.PLP.Fitness>
58.1187

> <Gold.PLP.PLP>
-43.2668

> <Gold.PLP.part.hbond>
-5.5464

> <Gold.PLP.part.metal>
0.0000

> <Gold.PLP.part.buried>
-4.2202

> <Gold.PLP.part.nonpolar>
-33.0967

> <Gold.PLP.part.repulsive>
0.1773

> <Gold.PLP.ligand.clash>
0.7884

> <Gold.PLP.ligand.torsion>
2.4269

> <Gold.PLP.Chemscore.Hbond>
6.7218

> <Gold.PLP.Chemscore.CHOScore>
0.0000

> <Gold.PLP.Chemscore.Metal>
0.0000

> <Gold.Chemscore.Hbonds>
donor molecule, donor type, donor heavy atom, donor atom, acceptor molecule, acceptor atom, score
      L1  H     4    52       P1  7948  1.40
      P1  H  6896  6907       L1     8  1.73
      P1  H  6931  6943       L1    16  0.95
      P1  H  6934  6947       L1    16  0.23
      P1  H  7989  7998       L1    23  0.81
      P1  H 10752 10763       L1     7  0.98

> <Gold.PLP.Chemscore.Internal.Correction>
0.3288

> <Gold.Rescore>
     Score         DG    S(hbond)    S(metal)    S(lipo)     H(rot)  DE(clash)    DE(int)     intcor
     17.79     -23.41       3.00        0.00     102.52       1.60       0.15       5.47       ----

> <Gold.Chemscore.Fitness>
17.7901

> <Gold.Chemscore.DG>
-23.4102

> <Gold.Chemscore.ZeroCoef>
-5.4800

> <Gold.Chemscore.Hbond>
3.0044

> <Gold.Chemscore.Metal>
0.0000

> <Gold.Chemscore.Lipo>
102.5172

> <Gold.Chemscore.Internal_Hbond>
0.0000

> <Gold.Chemscore.DEClash>
0.1457

> <Gold.Chemscore.DEInternal>
5.4745

> <Gold.Chemscore.Rot>
1.6012

> <Gold.Chemscore.Internal.Correction>
   9.000000E+99

> <Gold.Chemscore.Hbonds>
donor molecule, donor type, donor heavy atom, donor atom, acceptor molecule, acceptor atom, score
      L1  H     4    52       P1  7948  0.14
      P1  H  6896  6907       L1     8  0.71
      P1  H  6931  6943       L1    16  0.21
      P1  H  6934  6947       L1    16  0.20
      P1  H  7989  7998       L1    23  0.13
      P1  H 10752 10763       L1     7  0.88

> <Gold.Chemscore.Hbond.Weighted>
-10.0346

> <Gold.Chemscore.Metal.Weighted>
-0.0000

> <Gold.Chemscore.Lipo.Weighted>
-11.9945

> <Gold.Chemscore.Internal_Hbond.Weighted>
0.0000

> <Gold.Chemscore.DEClash.Weighted>
0.1457

> <Gold.Chemscore.DEInternal.Weighted>
5.4745

> <Gold.Chemscore.Rot.Weighted>
4.0990

> <Gold.Chemscore.Internal.Correction.Weighted>
   9.000000E+99

> <Gold.Protein.RotatedTorsions>
[ 6907 6896 6895 6894 ] final  -75.68 input  -60.11 | X-H torsion
[ 7974 7965 7964 7962 ] final  -15.78 input  175.53 | X-H torsion
[ 8008 7997 7996 7995 ] final   15.92 input   59.86 | X-H torsion
[ 10167 10162 10161 10158 ] final -129.92 input  -65.29 | X-H torsion
[ 10718 10713 10712 10709 ] final  115.12 input   66.30 | X-H torsion
[ 10763 10752 10751 10750 ] final   92.24 input  -60.55 | X-H torsion
[ 11005 11000 10999 10996 ] final  125.27 input  -57.11 | X-H torsion

> <Gold.Protein.ActiveResidues>
 VAL166  LYS551  ARG553  GLY616  TRP617  ASP618  TYR619  PRO620  LYS621  CYS622 
 ASP623  PHE694  ASN695  SER759  ASP760  ASP761  ALA762  ILE779  LEU786  VAL792 
 PHE793  MET794  SER795  GLU796  ALA797  LYS798  CYS799  TRP800  GLU811  SER814 

> <Gold.Protein.RotatedAtoms>
  150.7051  134.4684  159.5413 H   0  0  0  0  0  0  0  0  0  0  0  0  # atno 6907 bound_to 6896
  152.2345  134.8286  160.0478 H   0  0  0  0  0  0  0  0  0  0  0  0  # atno 6908 bound_to 6896
  151.9090  133.3521  159.3894 H   0  0  0  0  0  0  0  0  0  0  0  0  # atno 6909 bound_to 6896
  146.2017  140.3542  142.8421 H   0  0  0  0  0  0  0  0  0  0  0  0  # atno 7974 bound_to 7965
  154.8695  140.2956  155.5490 H   0  0  0  0  0  0  0  0  0  0  0  0  # atno 8008 bound_to 7997
  156.3021  140.2463  156.3615 H   0  0  0  0  0  0  0  0  0  0  0  0  # atno 8009 bound_to 7997
  154.8832  140.0397  157.1784 H   0  0  0  0  0  0  0  0  0  0  0  0  # atno 8010 bound_to 7997
  139.9347  143.6231  152.2520 H   0  0  0  0  0  0  0  0  0  0  0  0  # atno 10167 bound_to 10162
  157.6241  131.1008  150.7284 H   0  0  0  0  0  0  0  0  0  0  0  0  # atno 10718 bound_to 10713
  153.2170  135.4368  155.0446 H   0  0  0  0  0  0  0  0  0  0  0  0  # atno 10763 bound_to 10752
  154.8230  135.3347  154.6983 H   0  0  0  0  0  0  0  0  0  0  0  0  # atno 10764 bound_to 10752
  153.7418  135.7004  153.5021 H   0  0  0  0  0  0  0  0  0  0  0  0  # atno 10765 bound_to 10752
  139.9398  134.9636  156.8533 H   0  0  0  0  0  0  0  0  0  0  0  0  # atno 11005 bound_to 11000
  144.8698  140.7257  143.6054 LP  0  0  0  0  0  0  0  0  0  0  0  0  # atno 17320 bound_to 7965
  145.3461  139.1719  143.4459 LP  0  0  0  0  0  0  0  0  0  0  0  0  # atno 17321 bound_to 7965
  139.6753  144.7659  151.1707 LP  0  0  0  0  0  0  0  0  0  0  0  0  # atno 17342 bound_to 10162
  140.7628  143.5804  150.8901 LP  0  0  0  0  0  0  0  0  0  0  0  0  # atno 17343 bound_to 10162
  156.7636  130.4806  149.5432 LP  0  0  0  0  0  0  0  0  0  0  0  0  # atno 17370 bound_to 10713
  156.1402  130.6239  151.0457 LP  0  0  0  0  0  0  0  0  0  0  0  0  # atno 17371 bound_to 10713
  140.5980  134.0198  155.7526 LP  0  0  0  0  0  0  0  0  0  0  0  0  # atno 17394 bound_to 11000
  141.1028  133.9741  157.3049 LP  0  0  0  0  0  0  0  0  0  0  0  0  # atno 17395 bound_to 11000

$$$$
