AV-unprocessed.smi:3030|AV-procd|sdf|11540|dock2
  -GOLD-   2272016483D 1   1.00000     0.00000
 Structure written by MMmdl.
 52 53  0  0  0  0  0  0  0  0  1 V2000
  151.4635  144.4469  161.2042 C   0  0  0  0  0  0  0  0  0  0  0  0
  152.2617  143.4363  162.0351 C   0  0  0  0  0  0  0  0  0  0  0  0
  152.7740  142.3483  161.2148 N   0  0  0  0  0  0  0  0  0  0  0  0
  153.8739  141.5974  161.6162 C   0  0  0  0  0  0  0  0  0  0  0  0
  154.4313  140.6205  160.8753 C   0  0  0  0  0  0  0  0  0  0  0  0
  153.8651  140.3065  159.5477 C   0  0  0  0  0  0  0  0  0  0  0  0
  154.3498  139.4196  158.8448 O   0  0  0  0  0  0  0  0  0  0  0  0
  152.6924  141.1127  159.1158 C   0  0  0  0  0  0  0  0  0  0  0  0
  152.1566  140.8012  157.8551 N   0  0  0  0  0  0  0  0  0  0  0  0
  150.8710  140.7456  157.4618 C   0  0  0  0  0  0  0  0  0  0  0  0
  149.8890  140.9896  158.1622 O   0  0  0  0  0  0  0  0  0  0  0  0
  150.7844  140.3871  156.1731 N   0  0  0  0  0  0  0  0  0  0  0  0
  149.5435  140.2160  155.4194 C   0  0  1  0  0  0  0  0  0  0  0  0
  148.7746  141.5554  155.4032 C   0  0  0  0  0  0  0  0  0  0  0  0
  147.4805  141.4977  154.5701 C   0  0  2  0  0  0  0  0  0  0  0  0
  146.3616  140.7034  155.2669 C   0  0  0  0  0  0  0  0  0  0  0  0
  147.7815  140.9830  153.1509 C   0  0  0  0  0  0  0  0  0  0  0  0
  148.5303  139.6405  153.1604 C   0  0  0  0  0  0  0  0  0  0  0  0
  149.8407  139.7132  153.9798 C   0  0  2  0  0  0  0  0  0  0  0  0
  150.6695  138.3939  153.9310 C   0  0  0  0  0  0  0  0  0  0  0  0
  150.0789  137.2960  154.8326 C   0  0  0  0  0  0  0  0  0  0  0  0
  152.1709  138.5822  154.2174 C   0  0  0  0  0  0  0  0  0  0  0  0
  152.2285  142.0661  159.9641 C   0  0  0  0  0  0  0  0  0  0  0  0
  151.0941  145.2578  161.8318 H   0  0  0  0  0  0  0  0  0  0  0  0
  150.6032  143.9743  160.7294 H   0  0  0  0  0  0  0  0  0  0  0  0
  152.0802  144.8872  160.4202 H   0  0  0  0  0  0  0  0  0  0  0  0
  153.0922  143.9391  162.5321 H   0  0  0  0  0  0  0  0  0  0  0  0
  151.6326  143.0300  162.8280 H   0  0  0  0  0  0  0  0  0  0  0  0
  154.2562  141.8551  162.5933 H   0  0  0  0  0  0  0  0  0  0  0  0
  155.2837  140.0599  161.2303 H   0  0  0  0  0  0  0  0  0  0  0  0
  152.8488  140.6003  157.1477 H   0  0  0  0  0  0  0  0  0  0  0  0
  151.6432  140.2091  155.6733 H   0  0  0  0  0  0  0  0  0  0  0  0
  148.9221  139.4729  155.9204 H   0  0  0  0  0  0  0  0  0  0  0  0
  148.5419  141.8689  156.4219 H   0  0  0  0  0  0  0  0  0  0  0  0
  149.4210  142.3322  154.9915 H   0  0  0  0  0  0  0  0  0  0  0  0
  147.1128  142.5200  154.4726 H   0  0  0  0  0  0  0  0  0  0  0  0
  146.6307  139.6584  155.4179 H   0  0  0  0  0  0  0  0  0  0  0  0
  145.4435  140.7249  154.6793 H   0  0  0  0  0  0  0  0  0  0  0  0
  146.1332  141.1283  156.2447 H   0  0  0  0  0  0  0  0  0  0  0  0
  146.8576  140.8903  152.5793 H   0  0  0  0  0  0  0  0  0  0  0  0
  148.3883  141.7213  152.6252 H   0  0  0  0  0  0  0  0  0  0  0  0
  147.8764  138.8658  153.5599 H   0  0  0  0  0  0  0  0  0  0  0  0
  148.7407  139.3583  152.1296 H   0  0  0  0  0  0  0  0  0  0  0  0
  150.4591  140.4800  153.5097 H   0  0  0  0  0  0  0  0  0  0  0  0
  150.5963  137.9973  152.9185 H   0  0  0  0  0  0  0  0  0  0  0  0
  150.1942  137.5316  155.8904 H   0  0  0  0  0  0  0  0  0  0  0  0
  150.5764  136.3416  154.6584 H   0  0  0  0  0  0  0  0  0  0  0  0
  149.0169  137.1498  154.6342 H   0  0  0  0  0  0  0  0  0  0  0  0
  152.3493  138.9304  155.2345 H   0  0  0  0  0  0  0  0  0  0  0  0
  152.6287  139.2949  153.5321 H   0  0  0  0  0  0  0  0  0  0  0  0
  152.7068  137.6401  154.0999 H   0  0  0  0  0  0  0  0  0  0  0  0
  151.3752  142.6864  159.7424 H   0  0  0  0  0  0  0  0  0  0  0  0
  1  2  1  0  0  0  0
  1 24  1  0  0  0  0
  1 25  1  0  0  0  0
  1 26  1  0  0  0  0
  2  3  1  0  0  0  0
  2 27  1  0  0  0  0
  2 28  1  0  0  0  0
  3 23  1  0  0  0  0
  3  4  1  0  0  0  0
  4  5  2  0  0  0  0
  4 29  1  0  0  0  0
  5  6  1  0  0  0  0
  5 30  1  0  0  0  0
  6  7  2  0  0  0  0
  6  8  1  0  0  0  0
  8  9  1  0  0  0  0
  8 23  2  0  0  0  0
  9 10  1  0  0  0  0
  9 31  1  0  0  0  0
 10 11  2  0  0  0  0
 10 12  1  0  0  0  0
 12 13  1  0  0  0  0
 12 32  1  0  0  0  0
 13 19  1  0  0  0  0
 13 14  1  0  0  0  0
 13 33  1  0  0  0  0
 14 15  1  0  0  0  0
 14 34  1  0  0  0  0
 14 35  1  0  0  0  0
 15 16  1  0  0  0  0
 15 17  1  0  0  0  0
 15 36  1  0  0  0  0
 16 37  1  0  0  0  0
 16 38  1  0  0  0  0
 16 39  1  0  0  0  0
 17 18  1  0  0  0  0
 17 40  1  0  0  0  0
 17 41  1  0  0  0  0
 18 19  1  0  0  0  0
 18 42  1  0  0  0  0
 18 43  1  0  0  0  0
 19 20  1  0  0  0  0
 19 44  1  0  0  0  0
 20 21  1  0  0  0  0
 20 22  1  0  0  0  0
 20 45  1  0  0  0  0
 21 46  1  0  0  0  0
 21 47  1  0  0  0  0
 21 48  1  0  0  0  0
 22 49  1  0  0  0  0
 22 50  1  0  0  0  0
 22 51  1  0  0  0  0
 23 52  1  0  0  0  0
M  END
> <s_m_source_file>
AV-unprocessed.smi

> <i_m_source_file_index>
3030

> <i_lp_mmshare_version>
43012

> <i_f3d_flags>
0

> <s_epik_input>
W0NIM11bQ0gyXW4xW2NIXVtjSF1jKD1PKWMoW2NIXTEpW05IXUMoPU8pW05IXVtDQEBIXTJbQ0gyXVtDQEBIXShbQ0gzXSlbQ0gyXVtDSDJdW0NASF0yW0NIXShbQ0gzXSlbQ0gzXQ==

> <s_epik_cmdline>
J2VwaWtfcHl0aG9uJywgJy1waCcsICc3LjAnLCAnLXRuJywgJzgnLCAnLW1hJywgJzIwMCcsICctbWV0YWxfYmluZGluZycsICctaW1hZScsICc8aW5maWxlLm1hZT4nLCAnLW9tYWUnLCAnPG91dGZpbGUubWFlPic=

> <r_lp_tautomer_probability>
1

> <r_epik_Ionization_Penalty>
0.00147933

> <r_epik_Ionization_Penalty_Charging>
0.00145753

> <r_epik_Ionization_Penalty_Neutral>
2.17987e-05

> <r_epik_State_Penalty>
0.00097457

> <r_epik_Charging_Adjusted_Penalty>
0.0024321

> <i_epik_Tot_Q>
0

> <i_epik_Tot_abs_Q>
0

> <r_epik_Metal_State_Penalty>
-0

> <b_epik_Metal_Only>
0

> <s_lp_Force_Field>
OPLS_2005

> <r_lp_Energy>
11.4945

> <b_lp_Chiralities_Consistent>
1

> <s_lp_Variant>
AV-unprocessed.smi:3030-8

> <Gold.Version>
5.8.1

> <Gold.Id.Protein>
6NUR|6NUR_protein|mol2

> <Gold.PLP.Fitness>
44.8007

> <Gold.PLP.PLP>
-43.4886

> <Gold.PLP.part.hbond>
-1.0000

> <Gold.PLP.part.metal>
0.0000

> <Gold.PLP.part.buried>
1.6492

> <Gold.PLP.part.nonpolar>
-43.3253

> <Gold.PLP.part.repulsive>
0.1770

> <Gold.PLP.ligand.clash>
0.0000

> <Gold.PLP.ligand.torsion>
0.8824

> <Gold.PLP.Chemscore.Hbond>
1.0000

> <Gold.PLP.Chemscore.CHOScore>
0.0000

> <Gold.PLP.Chemscore.Metal>
0.0000

> <Gold.Chemscore.Hbonds>
donor molecule, donor type, donor heavy atom, donor atom, acceptor molecule, acceptor atom, score
      P1  H  7997  8009       L1     7  1.00

> <Gold.PLP.Chemscore.Internal.Correction>
0.0771

> <Gold.Rescore>
     Score         DG    S(hbond)    S(metal)    S(lipo)     H(rot)  DE(clash)    DE(int)     intcor
     15.65     -19.98       0.94        0.00     125.01       1.27       2.07       2.27       ----

> <Gold.Chemscore.Fitness>
15.6468

> <Gold.Chemscore.DG>
-19.9842

> <Gold.Chemscore.ZeroCoef>
-5.4800

> <Gold.Chemscore.Hbond>
0.9358

> <Gold.Chemscore.Metal>
0.0000

> <Gold.Chemscore.Lipo>
125.0097

> <Gold.Chemscore.Internal_Hbond>
0.0000

> <Gold.Chemscore.DEClash>
2.0708

> <Gold.Chemscore.DEInternal>
2.2667

> <Gold.Chemscore.Rot>
1.2685

> <Gold.Chemscore.Internal.Correction>
   9.000000E+99

> <Gold.Chemscore.Hbonds>
donor molecule, donor type, donor heavy atom, donor atom, acceptor molecule, acceptor atom, score
      P1  H  7997  8009       L1     7  0.88

> <Gold.Chemscore.Hbond.Weighted>
-3.1255

> <Gold.Chemscore.Metal.Weighted>
-0.0000

> <Gold.Chemscore.Lipo.Weighted>
-14.6261

> <Gold.Chemscore.Internal_Hbond.Weighted>
0.0000

> <Gold.Chemscore.DEClash.Weighted>
2.0708

> <Gold.Chemscore.DEInternal.Weighted>
2.2667

> <Gold.Chemscore.Rot.Weighted>
3.2474

> <Gold.Chemscore.Internal.Correction.Weighted>
   9.000000E+99

> <Gold.Protein.RotatedTorsions>
[ 6907 6896 6895 6894 ] final   63.73 input  -60.11 | X-H torsion
[ 7974 7965 7964 7962 ] final  152.45 input  175.53 | X-H torsion
[ 8008 7997 7996 7995 ] final  124.97 input   59.86 | X-H torsion
[ 10167 10162 10161 10158 ] final   64.99 input  -65.29 | X-H torsion
[ 10718 10713 10712 10709 ] final  -57.89 input   66.30 | X-H torsion
[ 10763 10752 10751 10750 ] final  -47.62 input  -60.55 | X-H torsion
[ 11005 11000 10999 10996 ] final   67.62 input  -57.11 | X-H torsion

> <Gold.Protein.ActiveResidues>
 VAL166  LYS551  ARG553  GLY616  TRP617  ASP618  TYR619  PRO620  LYS621  CYS622 
 ASP623  PHE694  ASN695  SER759  ASP760  ASP761  ALA762  ILE779  LEU786  VAL792 
 PHE793  MET794  SER795  GLU796  ALA797  LYS798  CYS799  TRP800  GLU811  SER814 

> <Gold.Protein.RotatedAtoms>
  152.4276  134.5838  159.9955 H   0  0  0  0  0  0  0  0  0  0  0  0  # atno 6907 bound_to 6896
  151.5970  133.3354  159.3047 H   0  0  0  0  0  0  0  0  0  0  0  0  # atno 6908 bound_to 6896
  150.8167  134.7389  159.6801 H   0  0  0  0  0  0  0  0  0  0  0  0  # atno 6909 bound_to 6896
  144.8222  139.6670  143.6096 H   0  0  0  0  0  0  0  0  0  0  0  0  # atno 7974 bound_to 7965
  156.2819  140.2727  156.1874 H   0  0  0  0  0  0  0  0  0  0  0  0  # atno 8008 bound_to 7997
  155.0494  140.0386  157.2556 H   0  0  0  0  0  0  0  0  0  0  0  0  # atno 8009 bound_to 7997
  154.7208  140.2687  155.6548 H   0  0  0  0  0  0  0  0  0  0  0  0  # atno 8010 bound_to 7997
  140.1162  144.4773  150.6948 H   0  0  0  0  0  0  0  0  0  0  0  0  # atno 10167 bound_to 10162
  156.1176  130.4169  150.0503 H   0  0  0  0  0  0  0  0  0  0  0  0  # atno 10718 bound_to 10713
  154.0643  135.6613  153.4816 H   0  0  0  0  0  0  0  0  0  0  0  0  # atno 10763 bound_to 10752
  153.0415  135.5142  154.7628 H   0  0  0  0  0  0  0  0  0  0  0  0  # atno 10764 bound_to 10752
  154.6674  135.3024  154.9754 H   0  0  0  0  0  0  0  0  0  0  0  0  # atno 10765 bound_to 10752
  139.9760  134.6822  156.0354 H   0  0  0  0  0  0  0  0  0  0  0  0  # atno 11005 bound_to 11000
  146.2527  139.6234  142.9416 LP  0  0  0  0  0  0  0  0  0  0  0  0  # atno 17320 bound_to 7965
  145.5081  141.0436  143.2503 LP  0  0  0  0  0  0  0  0  0  0  0  0  # atno 17321 bound_to 7965
  140.6898  143.2369  151.5162 LP  0  0  0  0  0  0  0  0  0  0  0  0  # atno 17342 bound_to 10162
  139.5593  144.2197  152.1664 LP  0  0  0  0  0  0  0  0  0  0  0  0  # atno 17343 bound_to 10162
  156.8450  130.9439  151.3629 LP  0  0  0  0  0  0  0  0  0  0  0  0  # atno 17370 bound_to 10713
  157.6359  130.8767  149.9359 LP  0  0  0  0  0  0  0  0  0  0  0  0  # atno 17371 bound_to 10713
  141.1436  133.6560  156.3803 LP  0  0  0  0  0  0  0  0  0  0  0  0  # atno 17394 bound_to 11000
  140.5195  134.6318  157.5313 LP  0  0  0  0  0  0  0  0  0  0  0  0  # atno 17395 bound_to 11000

$$$$
