AV-unprocessed.smi:1517|AV-procd|sdf|6121|dock2
  -GOLD-   22720 6253D 1   1.00000     0.00000
 Structure written by MMmdl.
 42 44  0  0  0  0  0  0  0  0  2 V2000
  146.2441  140.9123  153.6126 O   0  0  0  0  0  0  0  0  0  0  0  0
  147.1102  139.7980  153.5839 C   0  0  0  0  0  0  0  0  0  0  0  0
  146.9055  139.0094  152.2840 C   0  0  0  0  0  0  0  0  0  0  0  0
  145.5575  138.4726  152.1894 N   0  0  0  0  0  0  0  0  0  0  0  0
  145.3848  137.0953  152.0186 C   0  0  0  0  0  0  0  0  0  0  0  0
  146.3630  136.1970  151.7256 N   0  3  0  0  0  0  0  0  0  0  0  0
  145.7837  134.9274  151.6421 C   0  0  0  0  0  0  0  0  0  0  0  0
  146.3511  133.6857  151.3721 C   0  0  0  0  0  0  0  0  0  0  0  0
  145.4774  132.5785  151.3625 C   0  0  0  0  0  0  0  0  0  0  0  0
  144.0981  132.7271  151.6164 C   0  0  0  0  0  0  0  0  0  0  0  0
  143.5311  133.9892  151.8898 C   0  0  0  0  0  0  0  0  0  0  0  0
  144.3992  135.0803  151.8954 C   0  0  0  0  0  0  0  0  0  0  0  0
  144.1957  136.4470  152.1215 N   0  0  0  0  0  0  0  0  0  0  0  0
  142.8445  136.9426  152.4223 C   0  0  0  0  0  0  0  0  0  0  0  0
  142.6457  137.2633  153.9165 C   0  0  1  0  0  0  0  0  0  0  0  0
  143.3295  138.4591  154.2427 O   0  0  0  0  0  0  0  0  0  0  0  0
  141.1664  137.3145  154.2739 C   0  0  0  0  0  0  0  0  0  0  0  0
  140.1786  137.1556  153.2756 C   0  0  0  0  0  0  0  0  0  0  0  0
  138.8121  137.1960  153.6134 C   0  0  0  0  0  0  0  0  0  0  0  0
  138.4229  137.3901  154.9520 C   0  0  0  0  0  0  0  0  0  0  0  0
  137.1090  137.4285  155.2772 F   0  0  0  0  0  0  0  0  0  0  0  0
  139.4011  137.5398  155.9533 C   0  0  0  0  0  0  0  0  0  0  0  0
  140.7686  137.5000  155.6176 C   0  0  0  0  0  0  0  0  0  0  0  0
  141.6977  137.6354  156.5948 F   0  0  0  0  0  0  0  0  0  0  0  0
  146.2977  141.3133  154.4669 H   0  0  0  0  0  0  0  0  0  0  0  0
  148.1467  140.1140  153.7087 H   0  0  0  0  0  0  0  0  0  0  0  0
  146.8616  139.1675  154.4380 H   0  0  0  0  0  0  0  0  0  0  0  0
  147.0536  139.6796  151.4363 H   0  0  0  0  0  0  0  0  0  0  0  0
  147.6450  138.2124  152.1932 H   0  0  0  0  0  0  0  0  0  0  0  0
  144.7788  139.0448  152.4843 H   0  0  0  0  0  0  0  0  0  0  0  0
  147.4073  133.5672  151.1786 H   0  0  0  0  0  0  0  0  0  0  0  0
  145.8733  131.5944  151.1570 H   0  0  0  0  0  0  0  0  0  0  0  0
  143.4613  131.8545  151.6016 H   0  0  0  0  0  0  0  0  0  0  0  0
  142.4735  134.0918  152.0848 H   0  0  0  0  0  0  0  0  0  0  0  0
  142.6723  137.8326  151.8155 H   0  0  0  0  0  0  0  0  0  0  0  0
  142.1233  136.1977  152.0838 H   0  0  0  0  0  0  0  0  0  0  0  0
  143.1137  136.4791  154.5124 H   0  0  0  0  0  0  0  0  0  0  0  0
  143.5379  138.9139  153.4407 H   0  0  0  0  0  0  0  0  0  0  0  0
  140.4630  136.9984  152.2454 H   0  0  0  0  0  0  0  0  0  0  0  0
  138.0627  137.0762  152.8450 H   0  0  0  0  0  0  0  0  0  0  0  0
  139.1022  137.6834  156.9813 H   0  0  0  0  0  0  0  0  0  0  0  0
  147.3387  136.4321  151.5980 H   0  0  0  0  0  0  0  0  0  0  0  0
  1  2  1  0  0  0  0
  1 25  1  0  0  0  0
  2  3  1  0  0  0  0
  2 26  1  0  0  0  0
  2 27  1  0  0  0  0
  3  4  1  0  0  0  0
  3 28  1  0  0  0  0
  3 29  1  0  0  0  0
  4  5  1  0  0  0  0
  4 30  1  0  0  0  0
  5 13  1  0  0  0  0
  5  6  2  0  0  0  0
  6  7  1  0  0  0  0
  6 42  1  0  0  0  0
  7 12  2  0  0  0  0
  7  8  1  0  0  0  0
  8  9  2  0  0  0  0
  8 31  1  0  0  0  0
  9 10  1  0  0  0  0
  9 32  1  0  0  0  0
 10 11  2  0  0  0  0
 10 33  1  0  0  0  0
 11 12  1  0  0  0  0
 11 34  1  0  0  0  0
 12 13  1  0  0  0  0
 13 14  1  0  0  0  0
 14 15  1  0  0  0  0
 14 35  1  0  0  0  0
 14 36  1  0  0  0  0
 15 16  1  0  0  0  0
 15 17  1  0  0  0  0
 15 37  1  0  0  0  0
 16 38  1  0  0  0  0
 17 23  1  0  0  0  0
 17 18  2  0  0  0  0
 18 19  1  0  0  0  0
 18 39  1  0  0  0  0
 19 20  2  0  0  0  0
 19 40  1  0  0  0  0
 20 21  1  0  0  0  0
 20 22  1  0  0  0  0
 22 23  2  0  0  0  0
 22 41  1  0  0  0  0
 23 24  1  0  0  0  0
M  CHG  1   6   1
M  END
> <s_m_source_file>
AV-unprocessed.smi

> <i_m_source_file_index>
1517

> <i_lp_mmshare_version>
43012

> <i_f3d_flags>
0

> <s_epik_input>
W09IXVtDSDJdW0NIMl1bTkhdYyhuMSluKGMoYzEyKVtjSF1bY0hdW2NIXVtjSF0yKVtDSDJdW0NASF0oW09IXSljM1tjSF1bY0hdYyhGKVtjSF1jM0Y=

> <s_epik_cmdline>
J2VwaWtfcHl0aG9uJywgJy1waCcsICc3LjAnLCAnLXRuJywgJzgnLCAnLW1hJywgJzIwMCcsICctbWV0YWxfYmluZGluZycsICctaW1hZScsICc8aW5maWxlLm1hZT4nLCAnLW9tYWUnLCAnPG91dGZpbGUubWFlPic=

> <r_epik_Ionization_Penalty>
0.0688096

> <r_epik_Ionization_Penalty_Charging>
0.0688055

> <r_epik_Ionization_Penalty_Neutral>
4.12262e-06

> <r_epik_State_Penalty>
0.0602293

> <r_epik_Charging_Adjusted_Penalty>
0.129035

> <i_epik_Tot_Q>
1

> <i_epik_Tot_abs_Q>
1

> <r_epik_Metal_State_Penalty>
2.77411

> <b_epik_Metal_Only>
0

> <s_lp_Force_Field>
OPLS_2005

> <r_lp_Energy>
23.6459

> <b_lp_Chiralities_Consistent>
1

> <s_lp_Variant>
AV-unprocessed.smi:1517-2

> <Gold.Version>
5.8.1

> <Gold.Id.Protein>
6NUR|6NUR_protein|mol2

> <Gold.PLP.Fitness>
56.7088

> <Gold.PLP.PLP>
-42.3214

> <Gold.PLP.part.hbond>
-5.0000

> <Gold.PLP.part.metal>
0.0000

> <Gold.PLP.part.buried>
-4.6607

> <Gold.PLP.part.nonpolar>
-31.4933

> <Gold.PLP.part.repulsive>
0.0969

> <Gold.PLP.ligand.clash>
0.0000

> <Gold.PLP.ligand.torsion>
0.3701

> <Gold.PLP.Chemscore.Hbond>
5.0000

> <Gold.PLP.Chemscore.CHOScore>
0.0000

> <Gold.PLP.Chemscore.Metal>
0.0000

> <Gold.Chemscore.Hbonds>
donor molecule, donor type, donor heavy atom, donor atom, acceptor molecule, acceptor atom, score
      L1  H     4    30       P1 10175  2.00
      L1  H     6    42       P1  7948  2.00
      L1  H    16    38       P1 10175  1.00

> <Gold.PLP.Chemscore.Internal.Correction>
0.1277

> <Gold.Rescore>
     Score         DG    S(hbond)    S(metal)    S(lipo)     H(rot)  DE(clash)    DE(int)     intcor
     14.51     -17.32       2.96        0.00      88.50       3.29       0.75       2.05       ----

> <Gold.Chemscore.Fitness>
14.5128

> <Gold.Chemscore.DG>
-17.3179

> <Gold.Chemscore.ZeroCoef>
-5.4800

> <Gold.Chemscore.Hbond>
2.9638

> <Gold.Chemscore.Metal>
0.0000

> <Gold.Chemscore.Lipo>
88.5020

> <Gold.Chemscore.Internal_Hbond>
0.0000

> <Gold.Chemscore.DEClash>
0.7524

> <Gold.Chemscore.DEInternal>
2.0527

> <Gold.Chemscore.Rot>
3.2874

> <Gold.Chemscore.Internal.Correction>
   9.000000E+99

> <Gold.Chemscore.Hbonds>
donor molecule, donor type, donor heavy atom, donor atom, acceptor molecule, acceptor atom, score
      L1  H     4    30       P1 10175  0.99
      L1  H     6    42       P1  7948  0.97
      L1  H    16    38       P1 10175  0.94

> <Gold.Chemscore.Hbond.Weighted>
-9.8989

> <Gold.Chemscore.Metal.Weighted>
-0.0000

> <Gold.Chemscore.Lipo.Weighted>
-10.3547

> <Gold.Chemscore.Internal_Hbond.Weighted>
0.0000

> <Gold.Chemscore.DEClash.Weighted>
0.7524

> <Gold.Chemscore.DEInternal.Weighted>
2.0527

> <Gold.Chemscore.Rot.Weighted>
8.4158

> <Gold.Chemscore.Internal.Correction.Weighted>
   9.000000E+99

> <Gold.Protein.RotatedTorsions>
[ 6907 6896 6895 6894 ] final   24.31 input  -60.11 | X-H torsion
[ 7974 7965 7964 7962 ] final  166.53 input  175.53 | X-H torsion
[ 8008 7997 7996 7995 ] final   20.51 input   59.86 | X-H torsion
[ 10167 10162 10161 10158 ] final  -83.22 input  -65.29 | X-H torsion
[ 10718 10713 10712 10709 ] final -175.68 input   66.30 | X-H torsion
[ 10763 10752 10751 10750 ] final -133.93 input  -60.55 | X-H torsion
[ 11005 11000 10999 10996 ] final -123.99 input  -57.11 | X-H torsion

> <Gold.Protein.ActiveResidues>
 VAL166  LYS551  ARG553  GLY616  TRP617  ASP618  TYR619  PRO620  LYS621  CYS622 
 ASP623  PHE694  ASN695  SER759  ASP760  ASP761  ALA762  ILE779  LEU786  VAL792 
 PHE793  MET794  SER795  GLU796  ALA797  LYS798  CYS799  TRP800  GLU811  SER814 

> <Gold.Protein.RotatedAtoms>
  151.9555  135.0148  160.0544 H   0  0  0  0  0  0  0  0  0  0  0  0  # atno 6907 bound_to 6896
  152.1915  133.4772  159.5018 H   0  0  0  0  0  0  0  0  0  0  0  0  # atno 6908 bound_to 6896
  150.6936  134.1624  159.4224 H   0  0  0  0  0  0  0  0  0  0  0  0  # atno 6909 bound_to 6896
  144.7459  139.8628  143.6382 H   0  0  0  0  0  0  0  0  0  0  0  0  # atno 7974 bound_to 7965
  154.9367  140.3047  155.5141 H   0  0  0  0  0  0  0  0  0  0  0  0  # atno 8008 bound_to 7997
  156.2999  140.2344  156.4370 H   0  0  0  0  0  0  0  0  0  0  0  0  # atno 8009 bound_to 7997
  154.8185  140.0424  157.1382 H   0  0  0  0  0  0  0  0  0  0  0  0  # atno 8010 bound_to 7997
  140.4247  143.2571  151.8842 H   0  0  0  0  0  0  0  0  0  0  0  0  # atno 10167 bound_to 10162
  156.8035  130.9560  151.3118 H   0  0  0  0  0  0  0  0  0  0  0  0  # atno 10718 bound_to 10713
  154.8726  135.3750  154.4653 H   0  0  0  0  0  0  0  0  0  0  0  0  # atno 10763 bound_to 10752
  153.5317  135.7027  153.5685 H   0  0  0  0  0  0  0  0  0  0  0  0  # atno 10764 bound_to 10752
  153.3886  135.3978  155.1872 H   0  0  0  0  0  0  0  0  0  0  0  0  # atno 10765 bound_to 10752
  140.9876  134.0584  157.3692 H   0  0  0  0  0  0  0  0  0  0  0  0  # atno 11005 bound_to 11000
  146.1336  139.4376  143.0153 LP  0  0  0  0  0  0  0  0  0  0  0  0  # atno 17320 bound_to 7965
  145.7126  141.0101  143.1445 LP  0  0  0  0  0  0  0  0  0  0  0  0  # atno 17321 bound_to 7965
  139.4783  144.5400  151.8542 LP  0  0  0  0  0  0  0  0  0  0  0  0  # atno 17342 bound_to 10162
  140.4495  144.1875  150.5896 LP  0  0  0  0  0  0  0  0  0  0  0  0  # atno 17343 bound_to 10162
  157.6542  130.8910  149.9694 LP  0  0  0  0  0  0  0  0  0  0  0  0  # atno 17370 bound_to 10713
  156.1087  130.3651  150.0087 LP  0  0  0  0  0  0  0  0  0  0  0  0  # atno 17371 bound_to 10713
  139.8977  135.0151  156.7116 LP  0  0  0  0  0  0  0  0  0  0  0  0  # atno 17394 bound_to 11000
  140.7090  133.9240  155.8072 LP  0  0  0  0  0  0  0  0  0  0  0  0  # atno 17395 bound_to 11000

$$$$
