AV-unprocessed.smi:249|AV-procd|sdf|1900|dock8
  -GOLD-   2262020573D 1   1.00000     0.00000
 Structure written by MMmdl.
 64 67  0  0  0  0  0  0  0  0  2 V2000
  149.5737  131.7634  154.1093 C   0  0  0  0  0  0  0  0  0  0  0  0
  148.3641  130.8549  153.8350 C   0  0  0  0  0  0  0  0  0  0  0  0
  147.6713  131.1531  152.5477 N   0  3  2  0  0  0  0  0  0  0  0  0
  147.6969  132.6103  152.2304 C   0  0  0  0  0  0  0  0  0  0  0  0
  147.0531  132.9232  150.8700 C   0  0  0  0  0  0  0  0  0  0  0  0
  145.5937  132.4293  150.8075 C   0  0  2  0  0  0  0  0  0  0  0  0
  144.6851  133.1568  151.7091 N   0  0  0  0  0  0  0  0  0  0  0  0
  143.2537  133.0559  151.4399 C   0  0  0  0  0  0  0  0  0  0  0  0
  145.0289  134.4429  151.9453 C   0  0  0  0  0  0  0  0  0  0  0  0
  145.0252  135.2927  150.8893 N   0  0  0  0  0  0  0  0  0  0  0  0
  145.3522  136.5766  151.0669 C   0  0  0  0  0  0  0  0  0  0  0  0
  145.7088  137.1999  152.1924 N   0  0  0  0  0  0  0  0  0  0  0  0
  145.7176  136.3439  153.2542 C   0  0  0  0  0  0  0  0  0  0  0  0
  145.3923  134.9592  153.2208 C   0  0  0  0  0  0  0  0  0  0  0  0
  145.5115  134.4107  154.4918 N   0  0  0  0  0  0  0  0  0  0  0  0
  145.8910  135.4142  155.2353 C   0  0  0  0  0  0  0  0  0  0  0  0
  146.0335  136.6133  154.5744 N   0  0  0  0  0  0  0  0  0  0  0  0
  146.4443  137.8785  155.1582 C   0  0  0  0  0  0  0  0  0  0  0  0
  147.8254  138.3644  154.6532 C   0  0  2  0  0  0  0  0  0  0  0  0
  149.0027  137.5973  155.3033 C   0  0  0  0  0  0  0  0  0  0  0  0
  149.3373  136.4410  154.5634 O   0  0  0  0  0  0  0  0  0  0  0  0
  147.9779  139.9005  154.7932 C   0  0  2  0  0  0  0  0  0  0  0  0
  146.9744  140.7174  153.9983 C   0  0  0  0  0  0  0  0  0  0  0  0
  147.6420  142.0865  153.9550 C   0  0  0  0  0  0  0  0  0  0  0  0
  149.0387  141.8236  153.8954 O   0  0  0  0  0  0  0  0  0  0  0  0
  149.2944  140.4673  154.2492 C   0  0  0  0  0  0  0  0  0  0  0  0
  145.6331  130.9183  151.1027 C   0  0  0  0  0  0  0  0  0  0  0  0
  146.2840  130.5887  152.4663 C   0  0  1  0  0  0  0  0  0  0  0  0
  146.2392  129.0602  152.6732 C   0  0  0  0  0  0  0  0  0  0  0  0
  150.1346  131.3978  154.9699 H   0  0  0  0  0  0  0  0  0  0  0  0
  149.2803  132.7873  154.3390 H   0  0  0  0  0  0  0  0  0  0  0  0
  150.2552  131.7839  153.2584 H   0  0  0  0  0  0  0  0  0  0  0  0
  148.7533  129.8395  153.8275 H   0  0  0  0  0  0  0  0  0  0  0  0
  147.6536  130.9098  154.6610 H   0  0  0  0  0  0  0  0  0  0  0  0
  147.1947  133.1643  153.0247 H   0  0  0  0  0  0  0  0  0  0  0  0
  148.7221  132.9750  152.1962 H   0  0  0  0  0  0  0  0  0  0  0  0
  147.1251  133.9899  150.6562 H   0  0  0  0  0  0  0  0  0  0  0  0
  147.6306  132.4338  150.0846 H   0  0  0  0  0  0  0  0  0  0  0  0
  145.2258  132.5652  149.7899 H   0  0  0  0  0  0  0  0  0  0  0  0
  142.6841  133.8309  151.9561 H   0  0  0  0  0  0  0  0  0  0  0  0
  142.8730  132.0939  151.7831 H   0  0  0  0  0  0  0  0  0  0  0  0
  143.0533  133.1422  150.3712 H   0  0  0  0  0  0  0  0  0  0  0  0
  145.3259  137.1936  150.1808 H   0  0  0  0  0  0  0  0  0  0  0  0
  146.0770  135.3085  156.2943 H   0  0  0  0  0  0  0  0  0  0  0  0
  145.6711  138.6102  154.9236 H   0  0  0  0  0  0  0  0  0  0  0  0
  146.4520  137.7784  156.2441 H   0  0  0  0  0  0  0  0  0  0  0  0
  147.8657  138.1368  153.5869 H   0  0  0  0  0  0  0  0  0  0  0  0
  149.8869  138.2296  155.3838 H   0  0  0  0  0  0  0  0  0  0  0  0
  148.7553  137.2987  156.3217 H   0  0  0  0  0  0  0  0  0  0  0  0
  149.0612  136.5655  153.6684 H   0  0  0  0  0  0  0  0  0  0  0  0
  147.8877  140.1828  155.8435 H   0  0  0  0  0  0  0  0  0  0  0  0
  146.8704  140.3193  152.9880 H   0  0  0  0  0  0  0  0  0  0  0  0
  145.9860  140.7527  154.4574 H   0  0  0  0  0  0  0  0  0  0  0  0
  147.3103  142.6885  153.1090 H   0  0  0  0  0  0  0  0  0  0  0  0
  147.4313  142.6409  154.8702 H   0  0  0  0  0  0  0  0  0  0  0  0
  150.1059  140.4001  154.9744 H   0  0  0  0  0  0  0  0  0  0  0  0
  149.6037  139.9357  153.3482 H   0  0  0  0  0  0  0  0  0  0  0  0
  144.6307  130.4934  151.0464 H   0  0  0  0  0  0  0  0  0  0  0  0
  146.1966  130.4209  150.3118 H   0  0  0  0  0  0  0  0  0  0  0  0
  145.6868  131.0504  153.2544 H   0  0  0  0  0  0  0  0  0  0  0  0
  145.2463  128.6671  152.4524 H   0  0  0  0  0  0  0  0  0  0  0  0
  146.4514  128.7719  153.7020 H   0  0  0  0  0  0  0  0  0  0  0  0
  146.9457  128.5477  152.0193 H   0  0  0  0  0  0  0  0  0  0  0  0
  148.2034  130.6920  151.8235 H   0  0  0  0  0  0  0  0  0  0  0  0
  1  2  1  0  0  0  0
  1 30  1  0  0  0  0
  1 31  1  0  0  0  0
  1 32  1  0  0  0  0
  2  3  1  0  0  0  0
  2 33  1  0  0  0  0
  2 34  1  0  0  0  0
  3 28  1  0  0  0  0
  3  4  1  0  0  0  0
  3 64  1  0  0  0  0
  4  5  1  0  0  0  0
  4 35  1  0  0  0  0
  4 36  1  0  0  0  0
  5  6  1  0  0  0  0
  5 37  1  0  0  0  0
  5 38  1  0  0  0  0
  6  7  1  0  0  0  0
  6 27  1  0  0  0  0
  6 39  1  0  0  0  0
  7  8  1  0  0  0  0
  7  9  1  0  0  0  0
  8 40  1  0  0  0  0
  8 41  1  0  0  0  0
  8 42  1  0  0  0  0
  9 14  1  0  0  0  0
  9 10  2  0  0  0  0
 10 11  1  0  0  0  0
 11 12  2  0  0  0  0
 11 43  1  0  0  0  0
 12 13  1  0  0  0  0
 13 17  1  0  0  0  0
 13 14  2  0  0  0  0
 14 15  1  0  0  0  0
 15 16  2  0  0  0  0
 16 17  1  0  0  0  0
 16 44  1  0  0  0  0
 17 18  1  0  0  0  0
 18 19  1  0  0  0  0
 18 45  1  0  0  0  0
 18 46  1  0  0  0  0
 19 20  1  0  0  0  0
 19 22  1  0  0  0  0
 19 47  1  0  0  0  0
 20 21  1  0  0  0  0
 20 48  1  0  0  0  0
 20 49  1  0  0  0  0
 21 50  1  0  0  0  0
 22 26  1  0  0  0  0
 22 23  1  0  0  0  0
 22 51  1  0  0  0  0
 23 24  1  0  0  0  0
 23 52  1  0  0  0  0
 23 53  1  0  0  0  0
 24 25  1  0  0  0  0
 24 54  1  0  0  0  0
 24 55  1  0  0  0  0
 25 26  1  0  0  0  0
 26 56  1  0  0  0  0
 26 57  1  0  0  0  0
 27 28  1  0  0  0  0
 27 58  1  0  0  0  0
 27 59  1  0  0  0  0
 28 29  1  0  0  0  0
 28 60  1  0  0  0  0
 29 61  1  0  0  0  0
 29 62  1  0  0  0  0
 29 63  1  0  0  0  0
M  CHG  1   3   1
M  END
> <s_m_source_file>
AV-unprocessed.smi

> <i_m_source_file_index>
249

> <i_lp_mmshare_version>
43012

> <i_f3d_flags>
0

> <s_epik_input>
W0NIM11bQ0gyXU4xW0NIMl1bQ0gyXVtDQEhdKFtDSDJdW0NASF0xW0NIM10pTihbQ0gzXSljKG5bY0hdbjIpYyhjMjMpbltjSF1uM1tDSDJdW0NASF0oW0NIMl1bT0hdKVtDQEBIXTRbQ0gyXVtDSDJdT1tDSDJdNA==

> <s_epik_cmdline>
J2VwaWtfcHl0aG9uJywgJy1waCcsICc3LjAnLCAnLXRuJywgJzgnLCAnLW1hJywgJzIwMCcsICctbWV0YWxfYmluZGluZycsICctaW1hZScsICc8aW5maWxlLm1hZT4nLCAnLW9tYWUnLCAnPG91dGZpbGUubWFlPic=

> <r_lp_tautomer_probability>
1

> <r_epik_Ionization_Penalty>
0.00294688

> <r_epik_Ionization_Penalty_Charging>
0.00169971

> <r_epik_Ionization_Penalty_Neutral>
0.00124717

> <r_epik_State_Penalty>
-0

> <r_epik_Charging_Adjusted_Penalty>
0.00169971

> <i_epik_Tot_Q>
1

> <i_epik_Tot_abs_Q>
1

> <r_epik_Metal_State_Penalty>
-0

> <b_epik_Metal_Only>
0

> <s_lp_Force_Field>
OPLS_2005

> <r_lp_Energy>
57.7525

> <b_lp_Chiralities_Consistent>
1

> <s_lp_Variant>
AV-unprocessed.smi:249-3

> <Gold.Version>
5.8.1

> <Gold.Id.Protein>
6NUR|6NUR_protein|mol2

> <Gold.PLP.Fitness>
44.5726

> <Gold.PLP.PLP>
-36.9729

> <Gold.PLP.part.hbond>
-3.5439

> <Gold.PLP.part.metal>
0.0000

> <Gold.PLP.part.buried>
-0.8146

> <Gold.PLP.part.nonpolar>
-33.8819

> <Gold.PLP.part.repulsive>
0.8442

> <Gold.PLP.ligand.clash>
0.0000

> <Gold.PLP.ligand.torsion>
1.5578

> <Gold.PLP.Chemscore.Hbond>
2.4720

> <Gold.PLP.Chemscore.CHOScore>
0.8875

> <Gold.PLP.Chemscore.Metal>
0.0000

> <Gold.Chemscore.Hbonds>
donor molecule, donor type, donor heavy atom, donor atom, acceptor molecule, acceptor atom, score
      L1  H     3    64       P1 10747  0.94
      L1  H    21    50       P1  7948  1.00
      P1  H  8011  8017       L1    25  0.54
      L1  C    11    43       P1 10171  0.89

> <Gold.PLP.Chemscore.Internal.Correction>
0.6368

> <Gold.Rescore>
     Score         DG    S(hbond)    S(metal)    S(lipo)     H(rot)  DE(clash)    DE(int)     intcor
     13.67     -17.29       2.36        0.00      97.12       2.90       2.03       1.58       ----

> <Gold.Chemscore.Fitness>
13.6731

> <Gold.Chemscore.DG>
-17.2873

> <Gold.Chemscore.ZeroCoef>
-5.4800

> <Gold.Chemscore.Hbond>
2.3563

> <Gold.Chemscore.Metal>
0.0000

> <Gold.Chemscore.Lipo>
97.1180

> <Gold.Chemscore.Internal_Hbond>
0.0000

> <Gold.Chemscore.DEClash>
2.0324

> <Gold.Chemscore.DEInternal>
1.5818

> <Gold.Chemscore.Rot>
2.9006

> <Gold.Chemscore.Internal.Correction>
   9.000000E+99

> <Gold.Chemscore.Hbonds>
donor molecule, donor type, donor heavy atom, donor atom, acceptor molecule, acceptor atom, score
      L1  H     3    64       P1 10747  0.91
      L1  H    21    50       P1  7948  0.98
      P1  H  8011  8017       L1    25  0.42

> <Gold.Chemscore.Hbond.Weighted>
-7.8702

> <Gold.Chemscore.Metal.Weighted>
-0.0000

> <Gold.Chemscore.Lipo.Weighted>
-11.3628

> <Gold.Chemscore.Internal_Hbond.Weighted>
0.0000

> <Gold.Chemscore.DEClash.Weighted>
2.0324

> <Gold.Chemscore.DEInternal.Weighted>
1.5818

> <Gold.Chemscore.Rot.Weighted>
7.4256

> <Gold.Chemscore.Internal.Correction.Weighted>
   9.000000E+99

> <Gold.Protein.RotatedTorsions>
[ 6907 6896 6895 6894 ] final -128.41 input  -60.11 | X-H torsion
[ 7974 7965 7964 7962 ] final  119.72 input  175.53 | X-H torsion
[ 8008 7997 7996 7995 ] final -171.77 input   59.86 | X-H torsion
[ 10167 10162 10161 10158 ] final   48.43 input  -65.29 | X-H torsion
[ 10718 10713 10712 10709 ] final  -38.06 input   66.30 | X-H torsion
[ 10763 10752 10751 10750 ] final   96.86 input  -60.55 | X-H torsion
[ 11005 11000 10999 10996 ] final   84.16 input  -57.11 | X-H torsion

> <Gold.Protein.ActiveResidues>
 VAL166  LYS551  ARG553  GLY616  TRP617  ASP618  TYR619  PRO620  LYS621  CYS622 
 ASP623  PHE694  ASN695  SER759  ASP760  ASP761  ALA762  ILE779  LEU786  VAL792 
 PHE793  MET794  SER795  GLU796  ALA797  LYS798  CYS799  TRP800  GLU811  SER814 

> <Gold.Protein.RotatedAtoms>
  150.9176  133.6920  159.2839 H   0  0  0  0  0  0  0  0  0  0  0  0  # atno 6907 bound_to 6896
  151.4385  135.1016  159.9673 H   0  0  0  0  0  0  0  0  0  0  0  0  # atno 6908 bound_to 6896
  152.4963  133.8590  159.7295 H   0  0  0  0  0  0  0  0  0  0  0  0  # atno 6909 bound_to 6896
  145.1398  139.3275  143.4622 H   0  0  0  0  0  0  0  0  0  0  0  0  # atno 7974 bound_to 7965
  155.9359  140.1099  157.1095 H   0  0  0  0  0  0  0  0  0  0  0  0  # atno 8008 bound_to 7997
  154.4079  140.1228  156.4929 H   0  0  0  0  0  0  0  0  0  0  0  0  # atno 8009 bound_to 7997
  155.7022  140.3472  155.4940 H   0  0  0  0  0  0  0  0  0  0  0  0  # atno 8010 bound_to 7997
  140.2934  144.3019  150.6235 H   0  0  0  0  0  0  0  0  0  0  0  0  # atno 10167 bound_to 10162
  156.3081  130.4249  149.8077 H   0  0  0  0  0  0  0  0  0  0  0  0  # atno 10718 bound_to 10713
  153.2700  135.4203  155.0978 H   0  0  0  0  0  0  0  0  0  0  0  0  # atno 10763 bound_to 10752
  154.8452  135.3470  154.6258 H   0  0  0  0  0  0  0  0  0  0  0  0  # atno 10764 bound_to 10752
  153.6678  135.7045  153.5214 H   0  0  0  0  0  0  0  0  0  0  0  0  # atno 10765 bound_to 10752
  139.9009  134.8196  156.2407 H   0  0  0  0  0  0  0  0  0  0  0  0  # atno 11005 bound_to 11000
  146.3506  140.1430  142.8594 LP  0  0  0  0  0  0  0  0  0  0  0  0  # atno 17320 bound_to 7965
  145.0545  140.9042  143.4975 LP  0  0  0  0  0  0  0  0  0  0  0  0  # atno 17321 bound_to 7965
  140.5713  143.2180  151.7594 LP  0  0  0  0  0  0  0  0  0  0  0  0  # atno 17342 bound_to 10162
  139.4932  144.4213  151.9975 LP  0  0  0  0  0  0  0  0  0  0  0  0  # atno 17343 bound_to 10162
  156.5431  130.8308  151.3275 LP  0  0  0  0  0  0  0  0  0  0  0  0  # atno 17370 bound_to 10713
  157.7384  130.9813  150.2252 LP  0  0  0  0  0  0  0  0  0  0  0  0  # atno 17371 bound_to 10713
  141.0287  133.7001  156.1392 LP  0  0  0  0  0  0  0  0  0  0  0  0  # atno 17394 bound_to 11000
  140.7129  134.4442  157.5580 LP  0  0  0  0  0  0  0  0  0  0  0  0  # atno 17395 bound_to 11000

$$$$
