AV-unprocessed.smi:1480|AV-procd|sdf|5986|dock4
  -GOLD-   22720 6 83D 1   1.00000     0.00000
 Structure written by MMmdl.
 37 38  0  0  0  0  0  0  0  0  1 V2000
  152.3249  144.6293  161.1094 C   0  0  0  0  0  0  0  0  0  0  0  0
  151.7371  143.7899  160.0638 N   0  0  0  0  0  0  0  0  0  0  0  0
  150.6161  144.3988  159.3337 C   0  0  0  0  0  0  0  0  0  0  0  0
  149.7674  143.3856  158.5550 C   0  0  0  0  0  0  0  0  0  0  0  0
  150.6743  142.4528  157.7422 C   0  0  2  0  0  0  0  0  0  0  0  0
  149.8392  141.4692  156.9092 C   0  0  0  0  0  0  0  0  0  0  0  0
  149.8587  140.2693  157.1835 O   0  0  0  0  0  0  0  0  0  0  0  0
  149.1203  142.0132  155.9099 N   0  0  0  0  0  0  0  0  0  0  0  0
  148.2742  141.3660  154.9724 C   0  0  0  0  0  0  0  0  0  0  0  0
  147.3558  142.0040  154.0850 C   0  0  0  0  0  0  0  0  0  0  0  0
  146.7928  140.9576  153.4119 C   0  0  0  0  0  0  0  0  0  0  0  0
  147.3644  139.7969  153.8937 N   0  0  0  0  0  0  0  0  0  0  0  0
  147.0942  138.4272  153.4941 C   0  0  0  0  0  0  0  0  0  0  0  0
  146.3429  138.3782  152.1629 C   0  0  0  0  0  0  0  0  0  0  0  0
  145.1220  137.8369  152.1712 N   0  0  0  0  0  0  0  0  0  0  0  0
  146.8583  138.8240  151.1401 O   0  0  0  0  0  0  0  0  0  0  0  0
  148.2785  140.0488  154.8570 N   0  0  0  0  0  0  0  0  0  0  0  0
  151.6281  141.7000  158.6922 C   0  0  0  0  0  0  0  0  0  0  0  0
  152.2802  142.5839  159.7688 C   0  0  0  0  0  0  0  0  0  0  0  0
  153.2700  142.1446  160.3550 O   0  0  0  0  0  0  0  0  0  0  0  0
  153.3660  144.8587  160.8778 H   0  0  0  0  0  0  0  0  0  0  0  0
  152.2939  144.1198  162.0735 H   0  0  0  0  0  0  0  0  0  0  0  0
  151.8005  145.5788  161.2216 H   0  0  0  0  0  0  0  0  0  0  0  0
  149.9699  144.9448  160.0226 H   0  0  0  0  0  0  0  0  0  0  0  0
  151.0280  145.1359  158.6431 H   0  0  0  0  0  0  0  0  0  0  0  0
  149.1623  142.8075  159.2559 H   0  0  0  0  0  0  0  0  0  0  0  0
  149.0701  143.9138  157.9030 H   0  0  0  0  0  0  0  0  0  0  0  0
  151.2736  143.0631  157.0634 H   0  0  0  0  0  0  0  0  0  0  0  0
  149.1922  143.0147  155.8045 H   0  0  0  0  0  0  0  0  0  0  0  0
  147.1322  143.0512  153.9507 H   0  0  0  0  0  0  0  0  0  0  0  0
  146.0409  140.9412  152.6366 H   0  0  0  0  0  0  0  0  0  0  0  0
  148.0314  137.8727  153.4205 H   0  0  0  0  0  0  0  0  0  0  0  0
  146.4994  137.9480  154.2728 H   0  0  0  0  0  0  0  0  0  0  0  0
  144.5861  137.7886  151.3167 H   0  0  0  0  0  0  0  0  0  0  0  0
  144.7367  137.4831  153.0351 H   0  0  0  0  0  0  0  0  0  0  0  0
  151.0964  140.9042  159.2162 H   0  0  0  0  0  0  0  0  0  0  0  0
  152.4147  141.2141  158.1134 H   0  0  0  0  0  0  0  0  0  0  0  0
  1  2  1  0  0  0  0
  1 21  1  0  0  0  0
  1 22  1  0  0  0  0
  1 23  1  0  0  0  0
  2 19  1  0  0  0  0
  2  3  1  0  0  0  0
  3  4  1  0  0  0  0
  3 24  1  0  0  0  0
  3 25  1  0  0  0  0
  4  5  1  0  0  0  0
  4 26  1  0  0  0  0
  4 27  1  0  0  0  0
  5  6  1  0  0  0  0
  5 18  1  0  0  0  0
  5 28  1  0  0  0  0
  6  7  2  0  0  0  0
  6  8  1  0  0  0  0
  8  9  1  0  0  0  0
  8 29  1  0  0  0  0
  9 17  2  0  0  0  0
  9 10  1  0  0  0  0
 10 11  2  0  0  0  0
 10 30  1  0  0  0  0
 11 12  1  0  0  0  0
 11 31  1  0  0  0  0
 12 13  1  0  0  0  0
 12 17  1  0  0  0  0
 13 14  1  0  0  0  0
 13 32  1  0  0  0  0
 13 33  1  0  0  0  0
 14 15  1  0  0  0  0
 14 16  2  0  0  0  0
 15 34  1  0  0  0  0
 15 35  1  0  0  0  0
 18 19  1  0  0  0  0
 18 36  1  0  0  0  0
 18 37  1  0  0  0  0
 19 20  2  0  0  0  0
M  END
> <s_m_source_file>
AV-unprocessed.smi

> <i_m_source_file_index>
1480

> <i_lp_mmshare_version>
43012

> <i_f3d_flags>
0

> <s_epik_input>
W0NIM11OMVtDSDJdW0NIMl1bQ0BIXShbQ0gyXUMxPU8pQyg9TylbTkhdYzJbY0hdW2NIXW4objIpW0NIMl1DKD1PKVtOSDJd

> <s_epik_cmdline>
J2VwaWtfcHl0aG9uJywgJy1waCcsICc3LjAnLCAnLXRuJywgJzgnLCAnLW1hJywgJzIwMCcsICctbWV0YWxfYmluZGluZycsICctaW1hZScsICc8aW5maWxlLm1hZT4nLCAnLW9tYWUnLCAnPG91dGZpbGUubWFlPic=

> <r_lp_tautomer_probability>
1

> <r_epik_Ionization_Penalty>
3.93272e-06

> <r_epik_Ionization_Penalty_Charging>
0

> <r_epik_Ionization_Penalty_Neutral>
3.93272e-06

> <r_epik_State_Penalty>
-0

> <r_epik_Charging_Adjusted_Penalty>
0

> <i_epik_Tot_Q>
0

> <i_epik_Tot_abs_Q>
0

> <r_epik_Metal_State_Penalty>
-0

> <b_epik_Metal_Only>
0

> <s_lp_Force_Field>
OPLS_2005

> <r_lp_Energy>
16.8293

> <b_lp_Chiralities_Consistent>
1

> <s_lp_Variant>
AV-unprocessed.smi:1480-2

> <Gold.Version>
5.8.1

> <Gold.Id.Protein>
6NUR|6NUR_protein|mol2

> <Gold.PLP.Fitness>
47.5663

> <Gold.PLP.PLP>
-36.8094

> <Gold.PLP.part.hbond>
-4.0000

> <Gold.PLP.part.metal>
0.0000

> <Gold.PLP.part.buried>
-8.2639

> <Gold.PLP.part.nonpolar>
-28.5646

> <Gold.PLP.part.repulsive>
1.7020

> <Gold.PLP.ligand.clash>
0.0000

> <Gold.PLP.ligand.torsion>
0.3815

> <Gold.PLP.Chemscore.Hbond>
2.9440

> <Gold.PLP.Chemscore.CHOScore>
0.8935

> <Gold.PLP.Chemscore.Metal>
0.0000

> <Gold.Chemscore.Hbonds>
donor molecule, donor type, donor heavy atom, donor atom, acceptor molecule, acceptor atom, score
      L1  H     8    29       P1  8028  1.00
      L1  H    15    34       P1 10171  1.00
      P1  H  7954  7966       L1    16  0.92
      L1  C    11    31       P1 10175  0.91

> <Gold.PLP.Chemscore.Internal.Correction>
0.0072

> <Gold.Rescore>
     Score         DG    S(hbond)    S(metal)    S(lipo)     H(rot)  DE(clash)    DE(int)     intcor
     15.12     -16.92       2.94        0.00      58.19       2.03       0.15       1.66       ----

> <Gold.Chemscore.Fitness>
15.1158

> <Gold.Chemscore.DG>
-16.9250

> <Gold.Chemscore.ZeroCoef>
-5.4800

> <Gold.Chemscore.Hbond>
2.9418

> <Gold.Chemscore.Metal>
0.0000

> <Gold.Chemscore.Lipo>
58.1906

> <Gold.Chemscore.Internal_Hbond>
0.0000

> <Gold.Chemscore.DEClash>
0.1474

> <Gold.Chemscore.DEInternal>
1.6618

> <Gold.Chemscore.Rot>
2.0269

> <Gold.Chemscore.Internal.Correction>
   9.000000E+99

> <Gold.Chemscore.Hbonds>
donor molecule, donor type, donor heavy atom, donor atom, acceptor molecule, acceptor atom, score
      L1  H     8    29       P1  8028  1.00
      L1  H    15    34       P1 10171  0.95
      P1  H  7954  7966       L1    16  0.83

> <Gold.Chemscore.Hbond.Weighted>
-9.8254

> <Gold.Chemscore.Metal.Weighted>
-0.0000

> <Gold.Chemscore.Lipo.Weighted>
-6.8083

> <Gold.Chemscore.Internal_Hbond.Weighted>
0.0000

> <Gold.Chemscore.DEClash.Weighted>
0.1474

> <Gold.Chemscore.DEInternal.Weighted>
1.6618

> <Gold.Chemscore.Rot.Weighted>
5.1888

> <Gold.Chemscore.Internal.Correction.Weighted>
   9.000000E+99

> <Gold.Protein.RotatedTorsions>
[ 6907 6896 6895 6894 ] final  145.39 input  -60.11 | X-H torsion
[ 7974 7965 7964 7962 ] final  -86.37 input  175.53 | X-H torsion
[ 8008 7997 7996 7995 ] final   38.58 input   59.86 | X-H torsion
[ 10167 10162 10161 10158 ] final  116.89 input  -65.29 | X-H torsion
[ 10718 10713 10712 10709 ] final  125.59 input   66.30 | X-H torsion
[ 10763 10752 10751 10750 ] final   89.16 input  -60.55 | X-H torsion
[ 11005 11000 10999 10996 ] final -136.72 input  -57.11 | X-H torsion

> <Gold.Protein.ActiveResidues>
 VAL166  LYS551  ARG553  GLY616  TRP617  ASP618  TYR619  PRO620  LYS621  CYS622 
 ASP623  PHE694  ASN695  SER759  ASP760  ASP761  ALA762  ILE779  LEU786  VAL792 
 PHE793  MET794  SER795  GLU796  ALA797  LYS798  CYS799  TRP800  GLU811  SER814 

> <Gold.Protein.RotatedAtoms>
  152.1815  133.4710  159.4960 H   0  0  0  0  0  0  0  0  0  0  0  0  # atno 6907 bound_to 6896
  150.6935  134.1828  159.4264 H   0  0  0  0  0  0  0  0  0  0  0  0  # atno 6908 bound_to 6896
  151.9739  135.0062  160.0605 H   0  0  0  0  0  0  0  0  0  0  0  0  # atno 6909 bound_to 6896
  145.4808  140.9557  143.1865 H   0  0  0  0  0  0  0  0  0  0  0  0  # atno 7974 bound_to 7965
  155.2226  140.3332  155.4313 H   0  0  0  0  0  0  0  0  0  0  0  0  # atno 8008 bound_to 7997
  156.2327  140.1858  156.7247 H   0  0  0  0  0  0  0  0  0  0  0  0  # atno 8009 bound_to 7997
  154.6006  140.0624  156.9348 H   0  0  0  0  0  0  0  0  0  0  0  0  # atno 8010 bound_to 7997
  139.6216  144.7102  151.2623 H   0  0  0  0  0  0  0  0  0  0  0  0  # atno 10167 bound_to 10162
  157.5490  131.1094  150.8733 H   0  0  0  0  0  0  0  0  0  0  0  0  # atno 10718 bound_to 10713
  153.1843  135.4480  155.0068 H   0  0  0  0  0  0  0  0  0  0  0  0  # atno 10763 bound_to 10752
  154.8050  135.3271  154.7457 H   0  0  0  0  0  0  0  0  0  0  0  0  # atno 10764 bound_to 10752
  153.7918  135.6969  153.4925 H   0  0  0  0  0  0  0  0  0  0  0  0  # atno 10765 bound_to 10752
  140.8779  134.1969  157.4610 H   0  0  0  0  0  0  0  0  0  0  0  0  # atno 11005 bound_to 11000
  144.7890  139.6367  143.7121 LP  0  0  0  0  0  0  0  0  0  0  0  0  # atno 17320 bound_to 7965
  146.2342  139.5873  142.9535 LP  0  0  0  0  0  0  0  0  0  0  0  0  # atno 17321 bound_to 7965
  140.7385  143.6645  150.8135 LP  0  0  0  0  0  0  0  0  0  0  0  0  # atno 17342 bound_to 10162
  140.0257  143.5496  152.2781 LP  0  0  0  0  0  0  0  0  0  0  0  0  # atno 17343 bound_to 10162
  156.9264  130.5333  149.5279 LP  0  0  0  0  0  0  0  0  0  0  0  0  # atno 17370 bound_to 10713
  156.0560  130.5622  150.9093 LP  0  0  0  0  0  0  0  0  0  0  0  0  # atno 17371 bound_to 10713
  139.8717  134.9804  156.5074 LP  0  0  0  0  0  0  0  0  0  0  0  0  # atno 17394 bound_to 11000
  140.8496  133.8142  155.9155 LP  0  0  0  0  0  0  0  0  0  0  0  0  # atno 17395 bound_to 11000

$$$$
