AV-unprocessed.smi:194|AV-procd|sdf|1520|dock7
  -GOLD-   2262019363D 1   1.00000     0.00000
 Structure written by MMmdl.
 53 55  0  0  0  0  0  0  0  0  1 V2000
  153.9571  142.0756  161.5994 C   0  0  0  0  0  0  0  0  0  0  0  0
  153.9926  141.0653  160.4413 C   0  0  2  0  0  0  0  0  0  0  0  0
  155.4372  140.6469  160.1001 C   0  0  0  0  0  0  0  0  0  0  0  0
  156.0947  139.5706  161.4631 S   0  0  1  0  0  0  0  0  0  0  0  0
  157.7799  139.3101  160.7367 C   0  0  0  0  0  0  0  0  0  0  0  0
  156.2736  140.4695  162.6880 O   0  0  0  0  0  0  0  0  0  0  0  0
  153.2651  141.5847  159.2744 N   0  0  0  0  0  0  0  0  0  0  0  0
  152.7815  142.9618  159.2455 C   0  0  0  0  0  0  0  0  0  0  0  0
  152.7774  140.7071  158.3574 C   0  0  0  0  0  0  0  0  0  0  0  0
  153.3208  139.4625  158.3087 N   0  0  0  0  0  0  0  0  0  0  0  0
  152.8893  138.5658  157.4187 C   0  0  0  0  0  0  0  0  0  0  0  0
  151.9367  138.7005  156.4957 N   0  0  0  0  0  0  0  0  0  0  0  0
  151.3839  139.9463  156.5330 C   0  0  0  0  0  0  0  0  0  0  0  0
  151.7370  141.0000  157.4256 C   0  0  0  0  0  0  0  0  0  0  0  0
  150.9334  142.1079  157.1781 N   0  0  0  0  0  0  0  0  0  0  0  0
  150.1591  141.7336  156.1977 C   0  0  0  0  0  0  0  0  0  0  0  0
  150.3744  140.4562  155.7337 N   0  0  0  0  0  0  0  0  0  0  0  0
  149.6503  139.7904  154.6603 C   0  0  0  0  0  0  0  0  0  0  0  0
  148.1900  140.2806  154.4185 C   0  0  0  0  0  0  0  0  0  0  0  0
  147.4156  139.2963  153.4908 C   0  0  0  0  0  0  0  0  0  0  0  0
  148.1374  138.9081  152.3390 O   0  0  0  0  0  0  0  0  0  0  0  0
  147.4496  140.5103  155.7610 C   0  0  0  0  0  0  0  0  0  0  0  0
  146.1377  141.2941  155.5872 C   0  0  0  0  0  0  0  0  0  0  0  0
  146.4064  142.5505  154.9792 O   0  0  0  0  0  0  0  0  0  0  0  0
  146.9517  142.4251  153.6727 C   0  0  0  0  0  0  0  0  0  0  0  0
  148.2911  141.6636  153.7248 C   0  0  0  0  0  0  0  0  0  0  0  0
  154.4173  141.6594  162.4959 H   0  0  0  0  0  0  0  0  0  0  0  0
  152.9312  142.3447  161.8529 H   0  0  0  0  0  0  0  0  0  0  0  0
  154.4913  142.9930  161.3504 H   0  0  0  0  0  0  0  0  0  0  0  0
  153.4907  140.1734  160.8169 H   0  0  0  0  0  0  0  0  0  0  0  0
  155.4981  140.1219  159.1472 H   0  0  0  0  0  0  0  0  0  0  0  0
  156.0748  141.5279  160.0219 H   0  0  0  0  0  0  0  0  0  0  0  0
  157.7038  138.8450  159.7540 H   0  0  0  0  0  0  0  0  0  0  0  0
  158.3703  138.6607  161.3829 H   0  0  0  0  0  0  0  0  0  0  0  0
  158.3009  140.2621  160.6336 H   0  0  0  0  0  0  0  0  0  0  0  0
  152.6412  143.3047  158.2197 H   0  0  0  0  0  0  0  0  0  0  0  0
  153.4869  143.6407  159.7221 H   0  0  0  0  0  0  0  0  0  0  0  0
  151.8306  143.0451  159.7723 H   0  0  0  0  0  0  0  0  0  0  0  0
  153.3793  137.6037  157.4502 H   0  0  0  0  0  0  0  0  0  0  0  0
  149.4109  142.3879  155.7747 H   0  0  0  0  0  0  0  0  0  0  0  0
  150.2403  139.9063  153.7500 H   0  0  0  0  0  0  0  0  0  0  0  0
  149.6494  138.7205  154.8741 H   0  0  0  0  0  0  0  0  0  0  0  0
  147.1572  138.3764  154.0117 H   0  0  0  0  0  0  0  0  0  0  0  0
  146.4708  139.7396  153.1752 H   0  0  0  0  0  0  0  0  0  0  0  0
  148.6302  138.1277  152.5418 H   0  0  0  0  0  0  0  0  0  0  0  0
  147.2482  139.5671  156.2687 H   0  0  0  0  0  0  0  0  0  0  0  0
  148.0931  141.0783  156.4338 H   0  0  0  0  0  0  0  0  0  0  0  0
  145.4114  140.7329  154.9981 H   0  0  0  0  0  0  0  0  0  0  0  0
  145.6814  141.4716  156.5610 H   0  0  0  0  0  0  0  0  0  0  0  0
  146.2327  141.9420  153.0112 H   0  0  0  0  0  0  0  0  0  0  0  0
  147.1134  143.4248  153.2693 H   0  0  0  0  0  0  0  0  0  0  0  0
  149.0040  142.2893  154.2642 H   0  0  0  0  0  0  0  0  0  0  0  0
  148.6926  141.5542  152.7165 H   0  0  0  0  0  0  0  0  0  0  0  0
  1  2  1  0  0  0  0
  1 27  1  0  0  0  0
  1 28  1  0  0  0  0
  1 29  1  0  0  0  0
  2  3  1  0  0  0  0
  2  7  1  0  0  0  0
  2 30  1  0  0  0  0
  3  4  1  0  0  0  0
  3 31  1  0  0  0  0
  3 32  1  0  0  0  0
  4  5  1  0  0  0  0
  4  6  2  0  0  0  0
  5 33  1  0  0  0  0
  5 34  1  0  0  0  0
  5 35  1  0  0  0  0
  7  8  1  0  0  0  0
  7  9  1  0  0  0  0
  8 36  1  0  0  0  0
  8 37  1  0  0  0  0
  8 38  1  0  0  0  0
  9 14  1  0  0  0  0
  9 10  2  0  0  0  0
 10 11  1  0  0  0  0
 11 12  2  0  0  0  0
 11 39  1  0  0  0  0
 12 13  1  0  0  0  0
 13 17  1  0  0  0  0
 13 14  2  0  0  0  0
 14 15  1  0  0  0  0
 15 16  2  0  0  0  0
 16 17  1  0  0  0  0
 16 40  1  0  0  0  0
 17 18  1  0  0  0  0
 18 19  1  0  0  0  0
 18 41  1  0  0  0  0
 18 42  1  0  0  0  0
 19 26  1  0  0  0  0
 19 20  1  0  0  0  0
 19 22  1  0  0  0  0
 20 21  1  0  0  0  0
 20 43  1  0  0  0  0
 20 44  1  0  0  0  0
 21 45  1  0  0  0  0
 22 23  1  0  0  0  0
 22 46  1  0  0  0  0
 22 47  1  0  0  0  0
 23 24  1  0  0  0  0
 23 48  1  0  0  0  0
 23 49  1  0  0  0  0
 24 25  1  0  0  0  0
 25 26  1  0  0  0  0
 25 50  1  0  0  0  0
 25 51  1  0  0  0  0
 26 52  1  0  0  0  0
 26 53  1  0  0  0  0
M  END
> <s_m_source_file>
AV-unprocessed.smi

> <i_m_source_file_index>
194

> <i_lp_mmshare_version>
43012

> <i_f3d_flags>
0

> <s_epik_input>
W0NIM11bU0BAXSg9TylbQ0gyXVtDQEBIXShbQ0gzXSlOKFtDSDNdKWMobltjSF1uMSljKGMxMiluW2NIXW4yW0NIMl1DMyhbQ0gyXVtPSF0pW0NIMl1bQ0gyXU9bQ0gyXVtDSDJdMw==

> <s_epik_cmdline>
J2VwaWtfcHl0aG9uJywgJy1waCcsICc3LjAnLCAnLXRuJywgJzgnLCAnLW1hJywgJzIwMCcsICctbWV0YWxfYmluZGluZycsICctaW1hZScsICc8aW5maWxlLm1hZT4nLCAnLW9tYWUnLCAnPG91dGZpbGUubWFlPic=

> <r_lp_tautomer_probability>
1

> <r_epik_Ionization_Penalty>
0.00101625

> <r_epik_Ionization_Penalty_Charging>
0

> <r_epik_Ionization_Penalty_Neutral>
0.00101625

> <r_epik_State_Penalty>
0.000568005

> <r_epik_Charging_Adjusted_Penalty>
0.000568005

> <i_epik_Tot_Q>
0

> <i_epik_Tot_abs_Q>
0

> <r_epik_Metal_State_Penalty>
-0

> <b_epik_Metal_Only>
0

> <s_lp_Force_Field>
OPLS_2005

> <r_lp_Energy>
28.4609

> <b_lp_Chiralities_Consistent>
1

> <s_lp_Variant>
AV-unprocessed.smi:194-1

> <Gold.Version>
5.8.1

> <Gold.Id.Protein>
6NUR|6NUR_protein|mol2

> <Gold.PLP.Fitness>
51.4645

> <Gold.PLP.PLP>
-45.4516

> <Gold.PLP.part.hbond>
-3.2687

> <Gold.PLP.part.metal>
0.0000

> <Gold.PLP.part.buried>
-6.1366

> <Gold.PLP.part.nonpolar>
-36.0061

> <Gold.PLP.part.repulsive>
0.2577

> <Gold.PLP.ligand.clash>
0.0000

> <Gold.PLP.ligand.torsion>
1.1797

> <Gold.PLP.Chemscore.Hbond>
1.6051

> <Gold.PLP.Chemscore.CHOScore>
0.9947

> <Gold.PLP.Chemscore.Metal>
0.0000

> <Gold.Chemscore.Hbonds>
donor molecule, donor type, donor heavy atom, donor atom, acceptor molecule, acceptor atom, score
      L1  H    21    45       P1  7948  0.82
      P1  H  7997  8008       L1    10  0.42
      L1  C    16    40       P1  8028  1.00

> <Gold.PLP.Chemscore.Internal.Correction>
0.5731

> <Gold.Rescore>
     Score         DG    S(hbond)    S(metal)    S(lipo)     H(rot)  DE(clash)    DE(int)     intcor
      6.65     -10.66       0.79        0.00      87.89       3.03       0.15       3.87       ----

> <Gold.Chemscore.Fitness>
6.6471

> <Gold.Chemscore.DG>
-10.6611

> <Gold.Chemscore.ZeroCoef>
-5.4800

> <Gold.Chemscore.Hbond>
0.7943

> <Gold.Chemscore.Metal>
0.0000

> <Gold.Chemscore.Lipo>
87.8948

> <Gold.Chemscore.Internal_Hbond>
0.0000

> <Gold.Chemscore.DEClash>
0.1475

> <Gold.Chemscore.DEInternal>
3.8665

> <Gold.Chemscore.Rot>
3.0295

> <Gold.Chemscore.Internal.Correction>
   9.000000E+99

> <Gold.Chemscore.Hbonds>
donor molecule, donor type, donor heavy atom, donor atom, acceptor molecule, acceptor atom, score
      L1  H    21    45       P1  7948  0.78

> <Gold.Chemscore.Hbond.Weighted>
-2.6529

> <Gold.Chemscore.Metal.Weighted>
-0.0000

> <Gold.Chemscore.Lipo.Weighted>
-10.2837

> <Gold.Chemscore.Internal_Hbond.Weighted>
0.0000

> <Gold.Chemscore.DEClash.Weighted>
0.1475

> <Gold.Chemscore.DEInternal.Weighted>
3.8665

> <Gold.Chemscore.Rot.Weighted>
7.7555

> <Gold.Chemscore.Internal.Correction.Weighted>
   9.000000E+99

> <Gold.Protein.RotatedTorsions>
[ 6907 6896 6895 6894 ] final  102.50 input  -60.11 | X-H torsion
[ 7974 7965 7964 7962 ] final  -77.91 input  175.53 | X-H torsion
[ 8008 7997 7996 7995 ] final -101.99 input   59.86 | X-H torsion
[ 10167 10162 10161 10158 ] final  -67.27 input  -65.29 | X-H torsion
[ 10718 10713 10712 10709 ] final  -67.56 input   66.30 | X-H torsion
[ 10763 10752 10751 10750 ] final  -65.46 input  -60.55 | X-H torsion
[ 11005 11000 10999 10996 ] final  154.45 input  -57.11 | X-H torsion

> <Gold.Protein.ActiveResidues>
 VAL166  LYS551  ARG553  GLY616  TRP617  ASP618  TYR619  PRO620  LYS621  CYS622 
 ASP623  PHE694  ASN695  SER759  ASP760  ASP761  ALA762  ILE779  LEU786  VAL792 
 PHE793  MET794  SER795  GLU796  ALA797  LYS798  CYS799  TRP800  GLU811  SER814 

> <Gold.Protein.RotatedAtoms>
  152.5322  133.9966  159.7874 H   0  0  0  0  0  0  0  0  0  0  0  0  # atno 6907 bound_to 6896
  151.0192  133.5884  159.2680 H   0  0  0  0  0  0  0  0  0  0  0  0  # atno 6908 bound_to 6896
  151.2930  135.0754  159.9264 H   0  0  0  0  0  0  0  0  0  0  0  0  # atno 6909 bound_to 6896
  145.5934  140.9424  143.1280 H   0  0  0  0  0  0  0  0  0  0  0  0  # atno 7974 bound_to 7965
  154.8503  140.0431  157.1599 H   0  0  0  0  0  0  0  0  0  0  0  0  # atno 8008 bound_to 7997
  154.8950  140.2992  155.5329 H   0  0  0  0  0  0  0  0  0  0  0  0  # atno 8009 bound_to 7997
  156.2996  140.2386  156.3971 H   0  0  0  0  0  0  0  0  0  0  0  0  # atno 8010 bound_to 7997
  140.5595  143.2312  151.6755 H   0  0  0  0  0  0  0  0  0  0  0  0  # atno 10167 bound_to 10162
  156.0551  130.4280  150.1872 H   0  0  0  0  0  0  0  0  0  0  0  0  # atno 10718 bound_to 10713
  154.3453  135.6148  153.5616 H   0  0  0  0  0  0  0  0  0  0  0  0  # atno 10763 bound_to 10752
  152.9801  135.5779  154.4806 H   0  0  0  0  0  0  0  0  0  0  0  0  # atno 10764 bound_to 10752
  154.4517  135.2853  155.1753 H   0  0  0  0  0  0  0  0  0  0  0  0  # atno 10765 bound_to 10752
  140.1490  134.8688  157.2430 H   0  0  0  0  0  0  0  0  0  0  0  0  # atno 11005 bound_to 11000
  144.7341  139.7638  143.7336 LP  0  0  0  0  0  0  0  0  0  0  0  0  # atno 17320 bound_to 7965
  146.1630  139.4751  142.9976 LP  0  0  0  0  0  0  0  0  0  0  0  0  # atno 17321 bound_to 7965
  139.5063  144.3684  152.0494 LP  0  0  0  0  0  0  0  0  0  0  0  0  # atno 17342 bound_to 10162
  140.2810  144.3860  150.6119 LP  0  0  0  0  0  0  0  0  0  0  0  0  # atno 17343 bound_to 10162
  156.9950  130.9905  151.3405 LP  0  0  0  0  0  0  0  0  0  0  0  0  # atno 17370 bound_to 10713
  157.5513  130.8184  149.8149 LP  0  0  0  0  0  0  0  0  0  0  0  0  # atno 17371 bound_to 10713
  140.2628  134.3551  155.7400 LP  0  0  0  0  0  0  0  0  0  0  0  0  # atno 17394 bound_to 11000
  141.2196  133.7379  156.9106 LP  0  0  0  0  0  0  0  0  0  0  0  0  # atno 17395 bound_to 11000

$$$$
