AV-unprocessed.smi:3135|AV-procd|sdf|11946|dock5
  -GOLD-   2272017343D 1   1.00000     0.00000
 Structure written by MMmdl.
 38 39  0  0  0  0  0  0  0  0  2 V2000
  145.9241  131.7628  149.1548 C   0  0  0  0  0  0  0  0  0  0  0  0
  145.0361  132.5577  150.0681 C   0  0  0  0  0  0  0  0  0  0  0  0
  144.0523  132.0687  150.9740 C   0  0  0  0  0  0  0  0  0  0  0  0
  143.4389  133.0347  151.6381 N   0  0  0  0  0  0  0  0  0  0  0  0
  144.0073  134.1716  151.1824 N   0  0  0  0  0  0  0  0  0  0  0  0
  143.5784  135.4580  151.7065 C   0  0  0  0  0  0  0  0  0  0  0  0
  144.7366  136.2519  152.3206 C   0  0  0  0  0  0  0  0  0  0  0  0
  145.2207  135.8959  153.3945 O   0  0  0  0  0  0  0  0  0  0  0  0
  145.1630  137.3339  151.6487 N   0  0  0  0  0  0  0  0  0  0  0  0
  146.2585  138.1992  152.0678 C   0  0  0  0  0  0  0  0  0  0  0  0
  146.1400  138.5788  153.5557 C   0  0  0  0  0  0  0  0  0  0  0  0
  145.9823  140.0395  153.7730 N   0  3  2  0  0  0  0  0  0  0  0  0
  147.1038  140.7944  153.1686 C   0  0  0  0  0  0  0  0  0  0  0  0
  145.7896  140.3990  155.1989 C   0  0  0  0  0  0  0  0  0  0  0  0
  146.1228  141.8382  155.5268 C   0  0  0  0  0  0  0  0  0  0  0  0
  147.0735  140.7360  155.9270 C   0  0  0  0  0  0  0  0  0  0  0  0
  144.9713  133.9126  150.2306 C   0  0  0  0  0  0  0  0  0  0  0  0
  146.2466  130.8296  149.6172 H   0  0  0  0  0  0  0  0  0  0  0  0
  146.8251  132.3140  148.8840 H   0  0  0  0  0  0  0  0  0  0  0  0
  145.4144  131.5032  148.2270 H   0  0  0  0  0  0  0  0  0  0  0  0
  143.7678  131.0448  151.1679 H   0  0  0  0  0  0  0  0  0  0  0  0
  143.1311  136.0384  150.8986 H   0  0  0  0  0  0  0  0  0  0  0  0
  142.7991  135.2932  152.4522 H   0  0  0  0  0  0  0  0  0  0  0  0
  144.7108  137.5565  150.7734 H   0  0  0  0  0  0  0  0  0  0  0  0
  147.2160  137.7147  151.8684 H   0  0  0  0  0  0  0  0  0  0  0  0
  146.2209  139.0895  151.4408 H   0  0  0  0  0  0  0  0  0  0  0  0
  145.3059  138.0481  154.0177 H   0  0  0  0  0  0  0  0  0  0  0  0
  147.0422  138.2481  154.0727 H   0  0  0  0  0  0  0  0  0  0  0  0
  148.0498  140.5327  153.6446 H   0  0  0  0  0  0  0  0  0  0  0  0
  146.9574  141.8697  153.2728 H   0  0  0  0  0  0  0  0  0  0  0  0
  147.1863  140.5790  152.1028 H   0  0  0  0  0  0  0  0  0  0  0  0
  144.9929  139.8748  155.7241 H   0  0  0  0  0  0  0  0  0  0  0  0
  146.4350  142.4953  154.7172 H   0  0  0  0  0  0  0  0  0  0  0  0
  145.5528  142.3173  156.3202 H   0  0  0  0  0  0  0  0  0  0  0  0
  147.1306  140.4889  156.9853 H   0  0  0  0  0  0  0  0  0  0  0  0
  148.0153  140.6739  155.3846 H   0  0  0  0  0  0  0  0  0  0  0  0
  145.5290  134.7060  149.7548 H   0  0  0  0  0  0  0  0  0  0  0  0
  145.1473  140.3217  153.2797 H   0  0  0  0  0  0  0  0  0  0  0  0
  1  2  1  0  0  0  0
  1 18  1  0  0  0  0
  1 19  1  0  0  0  0
  1 20  1  0  0  0  0
  2 17  2  0  0  0  0
  2  3  1  0  0  0  0
  3  4  2  0  0  0  0
  3 21  1  0  0  0  0
  4  5  1  0  0  0  0
  5  6  1  0  0  0  0
  5 17  1  0  0  0  0
  6  7  1  0  0  0  0
  6 22  1  0  0  0  0
  6 23  1  0  0  0  0
  7  8  2  0  0  0  0
  7  9  1  0  0  0  0
  9 10  1  0  0  0  0
  9 24  1  0  0  0  0
 10 11  1  0  0  0  0
 10 25  1  0  0  0  0
 10 26  1  0  0  0  0
 11 12  1  0  0  0  0
 11 27  1  0  0  0  0
 11 28  1  0  0  0  0
 12 13  1  0  0  0  0
 12 14  1  0  0  0  0
 12 38  1  0  0  0  0
 13 29  1  0  0  0  0
 13 30  1  0  0  0  0
 13 31  1  0  0  0  0
 14 16  1  0  0  0  0
 14 15  1  0  0  0  0
 14 32  1  0  0  0  0
 15 16  1  0  0  0  0
 15 33  1  0  0  0  0
 15 34  1  0  0  0  0
 16 35  1  0  0  0  0
 16 36  1  0  0  0  0
 17 37  1  0  0  0  0
M  CHG  1  12   1
M  END
> <s_m_source_file>
AV-unprocessed.smi

> <i_m_source_file_index>
3135

> <i_lp_mmshare_version>
43012

> <i_f3d_flags>
0

> <s_epik_input>
W0NIM11jMVtjSF1ubihbY0hdMSlbQ0gyXUMoPU8pW05IXVtDSDJdW0NIMl1OKFtDSDNdKVtDSF0yW0NIMl1bQ0gyXTI=

> <s_epik_cmdline>
J2VwaWtfcHl0aG9uJywgJy1waCcsICc3LjAnLCAnLXRuJywgJzgnLCAnLW1hJywgJzIwMCcsICctbWV0YWxfYmluZGluZycsICctaW1hZScsICc8aW5maWxlLm1hZT4nLCAnLW9tYWUnLCAnPG91dGZpbGUubWFlPic=

> <r_lp_tautomer_probability>
1

> <r_epik_Ionization_Penalty>
0.174318

> <r_epik_Ionization_Penalty_Charging>
0.174302

> <r_epik_Ionization_Penalty_Neutral>
1.62778e-05

> <r_epik_State_Penalty>
0.163722

> <r_epik_Charging_Adjusted_Penalty>
0.338024

> <i_epik_Tot_Q>
1

> <i_epik_Tot_abs_Q>
1

> <r_epik_Metal_State_Penalty>
0.163727

> <b_epik_Metal_Only>
0

> <s_lp_Force_Field>
OPLS_2005

> <r_lp_Energy>
17.5594

> <b_lp_Chiralities_Consistent>
1

> <s_lp_Variant>
AV-unprocessed.smi:3135-2

> <Gold.Version>
5.8.1

> <Gold.Id.Protein>
6NUR|6NUR_protein|mol2

> <Gold.PLP.Fitness>
39.0168

> <Gold.PLP.PLP>
-28.3104

> <Gold.PLP.part.hbond>
-2.0000

> <Gold.PLP.part.metal>
0.0000

> <Gold.PLP.part.buried>
-4.5404

> <Gold.PLP.part.nonpolar>
-23.4560

> <Gold.PLP.part.repulsive>
0.3248

> <Gold.PLP.ligand.clash>
0.0000

> <Gold.PLP.ligand.torsion>
1.2118

> <Gold.PLP.Chemscore.Hbond>
3.0000

> <Gold.PLP.Chemscore.CHOScore>
0.9449

> <Gold.PLP.Chemscore.Metal>
0.0000

> <Gold.Chemscore.Hbonds>
donor molecule, donor type, donor heavy atom, donor atom, acceptor molecule, acceptor atom, score
      L1  H     9    24       P1 10171  1.00
      L1  H    12    38       P1 10175  2.00
      L1  C    17    37       P1  7921  0.95

> <Gold.PLP.Chemscore.Internal.Correction>
1.2952

> <Gold.Rescore>
     Score         DG    S(hbond)    S(metal)    S(lipo)     H(rot)  DE(clash)    DE(int)     intcor
     13.18     -15.62       1.97        0.00      73.20       1.96       0.03       2.41       ----

> <Gold.Chemscore.Fitness>
13.1809

> <Gold.Chemscore.DG>
-15.6168

> <Gold.Chemscore.ZeroCoef>
-5.4800

> <Gold.Chemscore.Hbond>
1.9697

> <Gold.Chemscore.Metal>
0.0000

> <Gold.Chemscore.Lipo>
73.1958

> <Gold.Chemscore.Internal_Hbond>
0.0000

> <Gold.Chemscore.DEClash>
0.0301

> <Gold.Chemscore.DEInternal>
2.4059

> <Gold.Chemscore.Rot>
1.9555

> <Gold.Chemscore.Internal.Correction>
   9.000000E+99

> <Gold.Chemscore.Hbonds>
donor molecule, donor type, donor heavy atom, donor atom, acceptor molecule, acceptor atom, score
      L1  H     9    24       P1 10171  0.96
      L1  H    12    38       P1 10175  1.00

> <Gold.Chemscore.Hbond.Weighted>
-6.5789

> <Gold.Chemscore.Metal.Weighted>
-0.0000

> <Gold.Chemscore.Lipo.Weighted>
-8.5639

> <Gold.Chemscore.Internal_Hbond.Weighted>
0.0000

> <Gold.Chemscore.DEClash.Weighted>
0.0301

> <Gold.Chemscore.DEInternal.Weighted>
2.4059

> <Gold.Chemscore.Rot.Weighted>
5.0060

> <Gold.Chemscore.Internal.Correction.Weighted>
   9.000000E+99

> <Gold.Protein.RotatedTorsions>
[ 6907 6896 6895 6894 ] final  -28.61 input  -60.11 | X-H torsion
[ 7974 7965 7964 7962 ] final  -51.58 input  175.53 | X-H torsion
[ 8008 7997 7996 7995 ] final    9.15 input   59.86 | X-H torsion
[ 10167 10162 10161 10158 ] final  120.77 input  -65.29 | X-H torsion
[ 10718 10713 10712 10709 ] final   78.96 input   66.30 | X-H torsion
[ 10763 10752 10751 10750 ] final   57.49 input  -60.55 | X-H torsion
[ 11005 11000 10999 10996 ] final  -94.37 input  -57.11 | X-H torsion

> <Gold.Protein.ActiveResidues>
 VAL166  LYS551  ARG553  GLY616  TRP617  ASP618  TYR619  PRO620  LYS621  CYS622 
 ASP623  PHE694  ASN695  SER759  ASP760  ASP761  ALA762  ILE779  LEU786  VAL792 
 PHE793  MET794  SER795  GLU796  ALA797  LYS798  CYS799  TRP800  GLU811  SER814 

> <Gold.Protein.RotatedAtoms>
  151.1306  135.0128  159.8580 H   0  0  0  0  0  0  0  0  0  0  0  0  # atno 6907 bound_to 6896
  152.5451  134.1614  159.8569 H   0  0  0  0  0  0  0  0  0  0  0  0  # atno 6908 bound_to 6896
  151.1681  133.4757  159.2627 H   0  0  0  0  0  0  0  0  0  0  0  0  # atno 6909 bound_to 6896
  145.9174  140.7863  142.9665 H   0  0  0  0  0  0  0  0  0  0  0  0  # atno 7974 bound_to 7965
  154.7762  140.2811  155.6099 H   0  0  0  0  0  0  0  0  0  0  0  0  # atno 8008 bound_to 7997
  156.2942  140.2632  156.2504 H   0  0  0  0  0  0  0  0  0  0  0  0  # atno 8009 bound_to 7997
  154.9840  140.0374  157.2280 H   0  0  0  0  0  0  0  0  0  0  0  0  # atno 8010 bound_to 7997
  139.5961  144.7042  151.3173 H   0  0  0  0  0  0  0  0  0  0  0  0  # atno 10167 bound_to 10162
  157.6761  130.9892  150.1862 H   0  0  0  0  0  0  0  0  0  0  0  0  # atno 10718 bound_to 10713
  152.9851  135.5640  154.5399 H   0  0  0  0  0  0  0  0  0  0  0  0  # atno 10763 bound_to 10752
  154.4855  135.2790  155.1539 H   0  0  0  0  0  0  0  0  0  0  0  0  # atno 10764 bound_to 10752
  154.3030  135.6303  153.5486 H   0  0  0  0  0  0  0  0  0  0  0  0  # atno 10765 bound_to 10752
  141.1472  133.7951  157.0288 H   0  0  0  0  0  0  0  0  0  0  0  0  # atno 11005 bound_to 11000
  144.6749  140.1921  143.7395 LP  0  0  0  0  0  0  0  0  0  0  0  0  # atno 17320 bound_to 7965
  145.8594  139.2215  143.1725 LP  0  0  0  0  0  0  0  0  0  0  0  0  # atno 17321 bound_to 7965
  140.7213  143.7128  150.7756 LP  0  0  0  0  0  0  0  0  0  0  0  0  # atno 17342 bound_to 10162
  140.0695  143.5075  152.2587 LP  0  0  0  0  0  0  0  0  0  0  0  0  # atno 17343 bound_to 10162
  156.2583  130.3708  149.8157 LP  0  0  0  0  0  0  0  0  0  0  0  0  # atno 17370 bound_to 10713
  156.5910  130.8506  151.3408 LP  0  0  0  0  0  0  0  0  0  0  0  0  # atno 17371 bound_to 10713
  140.0767  134.9671  157.1558 LP  0  0  0  0  0  0  0  0  0  0  0  0  # atno 17394 bound_to 11000
  140.3633  134.2470  155.7185 LP  0  0  0  0  0  0  0  0  0  0  0  0  # atno 17395 bound_to 11000

$$$$
