AV-unprocessed.smi:2147|AV-procd|sdf|8745|dock7
  -GOLD-   2272011523D 1   1.00000     0.00000
 Structure written by MMmdl.
 42 44  0  0  0  0  0  0  0  0  2 V2000
  153.4811  136.7020  163.3415 C   0  0  0  0  0  0  0  0  0  0  0  0
  154.4325  136.1159  162.2998 C   0  0  0  0  0  0  0  0  0  0  0  0
  155.2552  135.2741  162.6587 O   0  0  0  0  0  0  0  0  0  0  0  0
  154.3081  136.5981  160.8946 C   0  0  0  0  0  0  0  0  0  0  0  0
  155.3946  136.5525  159.9906 C   0  0  0  0  0  0  0  0  0  0  0  0
  155.2448  137.0192  158.6705 C   0  0  0  0  0  0  0  0  0  0  0  0
  154.0159  137.5407  158.2207 C   0  0  0  0  0  0  0  0  0  0  0  0
  153.9615  137.9819  156.9159 O   0  0  0  0  0  0  0  0  0  0  0  0
  152.6870  138.0902  156.2959 C   0  0  0  0  0  0  0  0  0  0  0  0
  152.2839  139.5709  156.2404 C   0  0  1  0  0  0  0  0  0  0  0  0
  151.4146  139.7588  155.1409 O   0  0  0  0  0  0  0  0  0  0  0  0
  151.5907  140.0390  157.5359 C   0  0  0  0  0  0  0  0  0  0  0  0
  151.3112  141.4808  157.5461 N   0  0  0  0  0  0  0  0  0  0  0  0
  150.6282  142.2445  156.6507 C   0  0  0  0  0  0  0  0  0  0  0  0
  150.6478  143.5280  157.1061 N   0  3  0  0  0  0  0  0  0  0  0  0
  151.3555  143.5850  158.3089 C   0  0  0  0  0  0  0  0  0  0  0  0
  151.6471  144.6581  159.1453 C   0  0  0  0  0  0  0  0  0  0  0  0
  152.3977  144.3710  160.3046 C   0  0  0  0  0  0  0  0  0  0  0  0
  152.8282  143.0598  160.5955 C   0  0  0  0  0  0  0  0  0  0  0  0
  152.5268  141.9790  159.7402 C   0  0  0  0  0  0  0  0  0  0  0  0
  151.7844  142.2721  158.5972 C   0  0  0  0  0  0  0  0  0  0  0  0
  152.9251  137.5815  159.1234 C   0  0  0  0  0  0  0  0  0  0  0  0
  153.0729  137.1152  160.4439 C   0  0  0  0  0  0  0  0  0  0  0  0
  152.4446  136.5074  163.0652 H   0  0  0  0  0  0  0  0  0  0  0  0
  153.6268  137.7788  163.4284 H   0  0  0  0  0  0  0  0  0  0  0  0
  153.6629  136.2537  164.3186 H   0  0  0  0  0  0  0  0  0  0  0  0
  156.3569  136.1636  160.2879 H   0  0  0  0  0  0  0  0  0  0  0  0
  156.0868  136.9782  157.9951 H   0  0  0  0  0  0  0  0  0  0  0  0
  152.7434  137.6848  155.2841 H   0  0  0  0  0  0  0  0  0  0  0  0
  151.9360  137.5211  156.8469 H   0  0  0  0  0  0  0  0  0  0  0  0
  153.1739  140.1746  156.0596 H   0  0  0  0  0  0  0  0  0  0  0  0
  150.6043  140.1274  155.4587 H   0  0  0  0  0  0  0  0  0  0  0  0
  150.6382  139.5223  157.6619 H   0  0  0  0  0  0  0  0  0  0  0  0
  152.1916  139.7975  158.4136 H   0  0  0  0  0  0  0  0  0  0  0  0
  150.1601  141.8953  155.7417 H   0  0  0  0  0  0  0  0  0  0  0  0
  151.3195  145.6634  158.9245 H   0  0  0  0  0  0  0  0  0  0  0  0
  152.6484  145.1727  160.9839 H   0  0  0  0  0  0  0  0  0  0  0  0
  153.4018  142.8794  161.4931 H   0  0  0  0  0  0  0  0  0  0  0  0
  152.8617  140.9782  159.9696 H   0  0  0  0  0  0  0  0  0  0  0  0
  151.9611  137.9669  158.8285 H   0  0  0  0  0  0  0  0  0  0  0  0
  152.2220  137.1615  161.1084 H   0  0  0  0  0  0  0  0  0  0  0  0
  150.2119  144.3058  156.6275 H   0  0  0  0  0  0  0  0  0  0  0  0
  1  2  1  0  0  0  0
  1 24  1  0  0  0  0
  1 25  1  0  0  0  0
  1 26  1  0  0  0  0
  2  3  2  0  0  0  0
  2  4  1  0  0  0  0
  4 23  1  0  0  0  0
  4  5  2  0  0  0  0
  5  6  1  0  0  0  0
  5 27  1  0  0  0  0
  6  7  2  0  0  0  0
  6 28  1  0  0  0  0
  7  8  1  0  0  0  0
  7 22  1  0  0  0  0
  8  9  1  0  0  0  0
  9 10  1  0  0  0  0
  9 29  1  0  0  0  0
  9 30  1  0  0  0  0
 10 11  1  0  0  0  0
 10 12  1  0  0  0  0
 10 31  1  0  0  0  0
 11 32  1  0  0  0  0
 12 13  1  0  0  0  0
 12 33  1  0  0  0  0
 12 34  1  0  0  0  0
 13 21  1  0  0  0  0
 13 14  1  0  0  0  0
 14 15  2  0  0  0  0
 14 35  1  0  0  0  0
 15 16  1  0  0  0  0
 15 42  1  0  0  0  0
 16 21  2  0  0  0  0
 16 17  1  0  0  0  0
 17 18  2  0  0  0  0
 17 36  1  0  0  0  0
 18 19  1  0  0  0  0
 18 37  1  0  0  0  0
 19 20  2  0  0  0  0
 19 38  1  0  0  0  0
 20 21  1  0  0  0  0
 20 39  1  0  0  0  0
 22 23  2  0  0  0  0
 22 40  1  0  0  0  0
 23 41  1  0  0  0  0
M  CHG  1  15   1
M  END
> <s_m_source_file>
AV-unprocessed.smi

> <i_m_source_file_index>
2147

> <i_lp_mmshare_version>
43012

> <i_f3d_flags>
0

> <s_epik_input>
W0NIM11DKD1PKWMxW2NIXVtjSF1jKFtjSF1bY0hdMSlPW0NIMl1bQ0BIXShbT0hdKVtDSDJdbihbY0hdbjIpYyhjMjMpW2NIXVtjSF1bY0hdW2NIXTM=

> <s_epik_cmdline>
J2VwaWtfcHl0aG9uJywgJy1waCcsICc3LjAnLCAnLXRuJywgJzgnLCAnLW1hJywgJzIwMCcsICctbWV0YWxfYmluZGluZycsICctaW1hZScsICc8aW5maWxlLm1hZT4nLCAnLW9tYWUnLCAnPG91dGZpbGUubWFlPic=

> <r_lp_tautomer_probability>
0.99995

> <r_epik_Ionization_Penalty>
1.40272

> <r_epik_Ionization_Penalty_Charging>
1.40272

> <r_epik_Ionization_Penalty_Neutral>
2.3993e-06

> <r_epik_State_Penalty>
1.48501

> <r_epik_Charging_Adjusted_Penalty>
2.88772

> <i_epik_Tot_Q>
1

> <i_epik_Tot_abs_Q>
1

> <r_epik_Metal_State_Penalty>
5.5274

> <b_epik_Metal_Only>
0

> <s_lp_Force_Field>
OPLS_2005

> <r_lp_Energy>
26.1974

> <b_lp_Chiralities_Consistent>
1

> <s_lp_Variant>
AV-unprocessed.smi:2147-4

> <Gold.Version>
5.8.1

> <Gold.Id.Protein>
6NUR|6NUR_protein|mol2

> <Gold.PLP.Fitness>
52.1586

> <Gold.PLP.PLP>
-43.6564

> <Gold.PLP.part.hbond>
-2.7770

> <Gold.PLP.part.metal>
0.0000

> <Gold.PLP.part.buried>
-5.1212

> <Gold.PLP.part.nonpolar>
-36.1872

> <Gold.PLP.part.repulsive>
0.0045

> <Gold.PLP.ligand.clash>
0.0000

> <Gold.PLP.ligand.torsion>
1.2218

> <Gold.PLP.Chemscore.Hbond>
3.6080

> <Gold.PLP.Chemscore.CHOScore>
0.0000

> <Gold.PLP.Chemscore.Metal>
0.0000

> <Gold.Chemscore.Hbonds>
donor molecule, donor type, donor heavy atom, donor atom, acceptor molecule, acceptor atom, score
      L1  H    15    42       P1  8028  1.79
      P1  H  7989  7998       L1    11  0.95
      P1  H  7997  8008       L1     8  0.47

> <Gold.PLP.Chemscore.Internal.Correction>
0.1219

> <Gold.Rescore>
     Score         DG    S(hbond)    S(metal)    S(lipo)     H(rot)  DE(clash)    DE(int)     intcor
     16.89     -18.59       1.71        0.00     117.47       2.48       0.07       1.63       ----

> <Gold.Chemscore.Fitness>
16.8897

> <Gold.Chemscore.DG>
-18.5855

> <Gold.Chemscore.ZeroCoef>
-5.4800

> <Gold.Chemscore.Hbond>
1.7129

> <Gold.Chemscore.Metal>
0.0000

> <Gold.Chemscore.Lipo>
117.4684

> <Gold.Chemscore.Internal_Hbond>
0.0000

> <Gold.Chemscore.DEClash>
0.0685

> <Gold.Chemscore.DEInternal>
1.6273

> <Gold.Chemscore.Rot>
2.4842

> <Gold.Chemscore.Internal.Correction>
   9.000000E+99

> <Gold.Chemscore.Hbonds>
donor molecule, donor type, donor heavy atom, donor atom, acceptor molecule, acceptor atom, score
      L1  H    15    42       P1  8028  0.87
      P1  H  7989  7998       L1    11  0.21
      P1  H  7997  8008       L1     8  0.08

> <Gold.Chemscore.Hbond.Weighted>
-5.7211

> <Gold.Chemscore.Metal.Weighted>
-0.0000

> <Gold.Chemscore.Lipo.Weighted>
-13.7438

> <Gold.Chemscore.Internal_Hbond.Weighted>
0.0000

> <Gold.Chemscore.DEClash.Weighted>
0.0685

> <Gold.Chemscore.DEInternal.Weighted>
1.6273

> <Gold.Chemscore.Rot.Weighted>
6.3594

> <Gold.Chemscore.Internal.Correction.Weighted>
   9.000000E+99

> <Gold.Protein.RotatedTorsions>
[ 6907 6896 6895 6894 ] final   36.20 input  -60.11 | X-H torsion
[ 7974 7965 7964 7962 ] final -146.30 input  175.53 | X-H torsion
[ 8008 7997 7996 7995 ] final  -75.65 input   59.86 | X-H torsion
[ 10167 10162 10161 10158 ] final   22.90 input  -65.29 | X-H torsion
[ 10718 10713 10712 10709 ] final  119.00 input   66.30 | X-H torsion
[ 10763 10752 10751 10750 ] final -149.59 input  -60.55 | X-H torsion
[ 11005 11000 10999 10996 ] final -173.48 input  -57.11 | X-H torsion

> <Gold.Protein.ActiveResidues>
 VAL166  LYS551  ARG553  GLY616  TRP617  ASP618  TYR619  PRO620  LYS621  CYS622 
 ASP623  PHE694  ASN695  SER759  ASP760  ASP761  ALA762  ILE779  LEU786  VAL792 
 PHE793  MET794  SER795  GLU796  ALA797  LYS798  CYS799  TRP800  GLU811  SER814 

> <Gold.Protein.RotatedAtoms>
  152.1264  134.9167  160.0560 H   0  0  0  0  0  0  0  0  0  0  0  0  # atno 6907 bound_to 6896
  152.0288  133.3924  159.4297 H   0  0  0  0  0  0  0  0  0  0  0  0  # atno 6908 bound_to 6896
  150.6853  134.3465  159.4934 H   0  0  0  0  0  0  0  0  0  0  0  0  # atno 6909 bound_to 6896
  144.8168  140.5473  143.5605 H   0  0  0  0  0  0  0  0  0  0  0  0  # atno 7974 bound_to 7965
  154.5435  140.0740  156.8550 H   0  0  0  0  0  0  0  0  0  0  0  0  # atno 8008 bound_to 7997
  155.3134  140.3391  155.4225 H   0  0  0  0  0  0  0  0  0  0  0  0  # atno 8009 bound_to 7997
  156.1896  140.1681  156.8103 H   0  0  0  0  0  0  0  0  0  0  0  0  # atno 8010 bound_to 7997
  140.5312  143.9838  150.6467 H   0  0  0  0  0  0  0  0  0  0  0  0  # atno 10167 bound_to 10162
  157.5992  131.1053  150.7835 H   0  0  0  0  0  0  0  0  0  0  0  0  # atno 10718 bound_to 10713
  154.8168  135.3305  154.7152 H   0  0  0  0  0  0  0  0  0  0  0  0  # atno 10763 bound_to 10752
  153.7791  135.6920  153.4896 H   0  0  0  0  0  0  0  0  0  0  0  0  # atno 10764 bound_to 10752
  153.1992  135.4522  155.0193 H   0  0  0  0  0  0  0  0  0  0  0  0  # atno 10765 bound_to 10752
  140.4852  134.6037  157.4934 H   0  0  0  0  0  0  0  0  0  0  0  0  # atno 11005 bound_to 11000
  145.5195  139.1477  143.3560 LP  0  0  0  0  0  0  0  0  0  0  0  0  # atno 17320 bound_to 7965
  146.2472  140.5336  142.8909 LP  0  0  0  0  0  0  0  0  0  0  0  0  # atno 17321 bound_to 7965
  140.3213  143.3135  152.0781 LP  0  0  0  0  0  0  0  0  0  0  0  0  # atno 17342 bound_to 10162
  139.4955  144.6571  151.6547 LP  0  0  0  0  0  0  0  0  0  0  0  0  # atno 17343 bound_to 10162
  156.8238  130.4993  149.5340 LP  0  0  0  0  0  0  0  0  0  0  0  0  # atno 17370 bound_to 10713
  156.1061  130.6005  150.9973 LP  0  0  0  0  0  0  0  0  0  0  0  0  # atno 17371 bound_to 10713
  139.9802  134.7149  155.9874 LP  0  0  0  0  0  0  0  0  0  0  0  0  # atno 17394 bound_to 11000
  141.1511  133.6548  156.4017 LP  0  0  0  0  0  0  0  0  0  0  0  0  # atno 17395 bound_to 11000

$$$$
