AV-unprocessed.smi:1389|AV-procd|sdf|5655|dock5
  -GOLD-   22720 5283D 1   1.00000     0.00000
 Structure written by MMmdl.
 52 54  0  0  0  0  0  0  0  0  4 V2000
  145.7364  136.8754  150.3623 C   0  0  0  0  0  0  0  0  0  0  0  0
  145.5788  135.8934  151.5476 C   0  0  1  0  0  0  0  0  0  0  0  0
  144.4384  136.2853  152.5269 C   0  0  0  0  0  0  0  0  0  0  0  0
  144.7064  137.5895  153.1425 N   0  5  0  0  0  0  0  0  0  0  0  0
  145.8830  137.9452  153.7244 C   0  0  0  0  0  0  0  0  0  0  0  0
  146.7001  137.2089  154.2888 O   0  0  0  0  0  0  0  0  0  0  0  0
  146.1173  139.2647  153.6262 N   0  0  0  0  0  0  0  0  0  0  0  0
  147.2747  139.9842  154.0335 C   0  0  0  0  0  0  0  0  0  0  0  0
  148.5363  139.3433  154.1222 C   0  0  0  0  0  0  0  0  0  0  0  0
  149.6534  140.0552  154.5979 C   0  0  0  0  0  0  0  0  0  0  0  0
  149.4871  141.3931  154.9960 C   0  0  0  0  0  0  0  0  0  0  0  0
  148.2700  141.9695  154.9140 N   0  3  0  0  0  0  0  0  0  0  0  0
  147.1606  141.3416  154.4496 C   0  0  0  0  0  0  0  0  0  0  0  0
  145.9529  142.0747  154.4076 N   0  0  0  0  0  0  0  0  0  0  0  0
  145.2164  142.3570  155.6343 C   0  0  0  0  0  0  0  0  0  0  0  0
  144.2185  143.4478  155.2550 C   0  0  0  0  0  0  0  0  0  0  0  0
  145.0002  144.2652  154.2309 C   0  0  0  0  0  0  0  0  0  0  0  0
  145.8514  143.2181  153.5053 C   0  0  0  0  0  0  0  0  0  0  0  0
  145.4538  134.4652  151.1176 N   0  3  0  0  0  0  0  0  0  0  0  0
  145.7165  133.4276  152.1523 C   0  0  0  0  0  0  0  0  0  0  0  0
  145.7252  132.0336  151.5056 C   0  0  0  0  0  0  0  0  0  0  0  0
  144.4796  131.8048  150.8572 O   0  0  0  0  0  0  0  0  0  0  0  0
  144.2392  132.7436  149.8157 C   0  0  0  0  0  0  0  0  0  0  0  0
  144.1931  134.1675  150.3953 C   0  0  0  0  0  0  0  0  0  0  0  0
  145.9661  137.8863  150.7044 H   0  0  0  0  0  0  0  0  0  0  0  0
  144.8402  136.9388  149.7425 H   0  0  0  0  0  0  0  0  0  0  0  0
  146.5599  136.5716  149.7156 H   0  0  0  0  0  0  0  0  0  0  0  0
  146.5016  135.9778  152.1240 H   0  0  0  0  0  0  0  0  0  0  0  0
  143.4872  136.2746  151.9933 H   0  0  0  0  0  0  0  0  0  0  0  0
  144.3480  135.5104  153.2882 H   0  0  0  0  0  0  0  0  0  0  0  0
  145.4536  139.7818  153.0683 H   0  0  0  0  0  0  0  0  0  0  0  0
  148.6562  138.3054  153.8496 H   0  0  0  0  0  0  0  0  0  0  0  0
  150.6196  139.5774  154.6679 H   0  0  0  0  0  0  0  0  0  0  0  0
  150.2832  142.0150  155.3790 H   0  0  0  0  0  0  0  0  0  0  0  0
  144.7166  141.4649  156.0131 H   0  0  0  0  0  0  0  0  0  0  0  0
  145.8893  142.7306  156.4073 H   0  0  0  0  0  0  0  0  0  0  0  0
  143.3399  143.0044  154.7840 H   0  0  0  0  0  0  0  0  0  0  0  0
  143.8860  144.0366  156.1104 H   0  0  0  0  0  0  0  0  0  0  0  0
  144.3580  144.8311  153.5556 H   0  0  0  0  0  0  0  0  0  0  0  0
  145.6503  144.9724  154.7479 H   0  0  0  0  0  0  0  0  0  0  0  0
  146.8290  143.6199  153.2353 H   0  0  0  0  0  0  0  0  0  0  0  0
  145.3509  142.8994  152.5901 H   0  0  0  0  0  0  0  0  0  0  0  0
  146.6739  133.6079  152.6419 H   0  0  0  0  0  0  0  0  0  0  0  0
  144.9470  133.4606  152.9243 H   0  0  0  0  0  0  0  0  0  0  0  0
  146.5459  131.9386  150.7926 H   0  0  0  0  0  0  0  0  0  0  0  0
  145.8729  131.2673  152.2667 H   0  0  0  0  0  0  0  0  0  0  0  0
  145.0135  132.6607  149.0511 H   0  0  0  0  0  0  0  0  0  0  0  0
  143.2908  132.5030  149.3351 H   0  0  0  0  0  0  0  0  0  0  0  0
  143.3454  134.2748  151.0734 H   0  0  0  0  0  0  0  0  0  0  0  0
  144.0499  134.8807  149.5824 H   0  0  0  0  0  0  0  0  0  0  0  0
  146.1837  134.3600  150.4260 H   0  0  0  0  0  0  0  0  0  0  0  0
  148.1808  142.9410  155.2115 H   0  0  0  0  0  0  0  0  0  0  0  0
  1  2  1  0  0  0  0
  1 25  1  0  0  0  0
  1 26  1  0  0  0  0
  1 27  1  0  0  0  0
  2  3  1  0  0  0  0
  2 19  1  0  0  0  0
  2 28  1  0  0  0  0
  3  4  1  0  0  0  0
  3 29  1  0  0  0  0
  3 30  1  0  0  0  0
  4  5  1  0  0  0  0
  5  6  2  0  0  0  0
  5  7  1  0  0  0  0
  7  8  1  0  0  0  0
  7 31  1  0  0  0  0
  8 13  1  0  0  0  0
  8  9  2  0  0  0  0
  9 10  1  0  0  0  0
  9 32  1  0  0  0  0
 10 11  2  0  0  0  0
 10 33  1  0  0  0  0
 11 12  1  0  0  0  0
 11 34  1  0  0  0  0
 12 13  2  0  0  0  0
 12 52  1  0  0  0  0
 13 14  1  0  0  0  0
 14 18  1  0  0  0  0
 14 15  1  0  0  0  0
 15 16  1  0  0  0  0
 15 35  1  0  0  0  0
 15 36  1  0  0  0  0
 16 17  1  0  0  0  0
 16 37  1  0  0  0  0
 16 38  1  0  0  0  0
 17 18  1  0  0  0  0
 17 39  1  0  0  0  0
 17 40  1  0  0  0  0
 18 41  1  0  0  0  0
 18 42  1  0  0  0  0
 19 24  1  0  0  0  0
 19 20  1  0  0  0  0
 19 51  1  0  0  0  0
 20 21  1  0  0  0  0
 20 43  1  0  0  0  0
 20 44  1  0  0  0  0
 21 22  1  0  0  0  0
 21 45  1  0  0  0  0
 21 46  1  0  0  0  0
 22 23  1  0  0  0  0
 23 24  1  0  0  0  0
 23 47  1  0  0  0  0
 23 48  1  0  0  0  0
 24 49  1  0  0  0  0
 24 50  1  0  0  0  0
M  CHG  1   4  -1
M  CHG  1  12   1
M  CHG  1  19   1
M  END
> <s_m_source_file>
AV-unprocessed.smi

> <i_m_source_file_index>
1389

> <i_lp_mmshare_version>
43012

> <i_f3d_flags>
0

> <s_epik_input>
W0NIMl0xW0NIMl1PW0NIMl1bQ0gyXU4xW0NASF0oW0NIM10pW0NIMl1bTkhdQyg9TylbTkhdYzJbY0hdW2NIXVtjSF1uYzJOM1tDSDJdW0NIMl1bQ0gyXVtDSDJdMw==

> <s_epik_cmdline>
J2VwaWtfcHl0aG9uJywgJy1waCcsICc3LjAnLCAnLXRuJywgJzgnLCAnLW1hJywgJzIwMCcsICctbWV0YWxfYmluZGluZycsICctaW1hZScsICc8aW5maWxlLm1hZT4nLCAnLW9tYWUnLCAnPG91dGZpbGUubWFlPic=

> <r_lp_tautomer_probability>
0.999994

> <r_epik_Ionization_Penalty>
8.58362

> <r_epik_Ionization_Penalty_Charging>
8.58361

> <r_epik_Ionization_Penalty_Neutral>
3.55275e-06

> <r_epik_State_Penalty>
8.57766

> <r_epik_Charging_Adjusted_Penalty>
17.1613

> <i_epik_Tot_Q>
1

> <i_epik_Tot_abs_Q>
3

> <r_epik_Metal_State_Penalty>
4.57399

> <b_epik_Metal_Only>
1

> <s_lp_Force_Field>
OPLS_2005

> <r_lp_Energy>
47.3553

> <b_lp_Chiralities_Consistent>
1

> <s_lp_Variant>
AV-unprocessed.smi:1389-10

> <Gold.Version>
5.8.1

> <Gold.Id.Protein>
6NUR|6NUR_protein|mol2

> <Gold.PLP.Fitness>
46.6681

> <Gold.PLP.PLP>
-38.4970

> <Gold.PLP.part.hbond>
-2.0000

> <Gold.PLP.part.metal>
0.0000

> <Gold.PLP.part.buried>
-2.6512

> <Gold.PLP.part.nonpolar>
-33.7085

> <Gold.PLP.part.repulsive>
1.0294

> <Gold.PLP.ligand.clash>
0.0000

> <Gold.PLP.ligand.torsion>
0.7557

> <Gold.PLP.Chemscore.Hbond>
3.0000

> <Gold.PLP.Chemscore.CHOScore>
0.0000

> <Gold.PLP.Chemscore.Metal>
0.0000

> <Gold.Chemscore.Hbonds>
donor molecule, donor type, donor heavy atom, donor atom, acceptor molecule, acceptor atom, score
      L1  H     7    31       P1 10175  1.00
      L1  H    12    52       P1  8028  2.00

> <Gold.PLP.Chemscore.Internal.Correction>
0.6825

> <Gold.Rescore>
     Score         DG    S(hbond)    S(metal)    S(lipo)     H(rot)  DE(clash)    DE(int)     intcor
     15.27     -18.77       1.86        0.00      96.34       1.63       1.42       2.08       ----

> <Gold.Chemscore.Fitness>
15.2741

> <Gold.Chemscore.DG>
-18.7743

> <Gold.Chemscore.ZeroCoef>
-5.4800

> <Gold.Chemscore.Hbond>
1.8553

> <Gold.Chemscore.Metal>
0.0000

> <Gold.Chemscore.Lipo>
96.3425

> <Gold.Chemscore.Internal_Hbond>
0.0000

> <Gold.Chemscore.DEClash>
1.4241

> <Gold.Chemscore.DEInternal>
2.0761

> <Gold.Chemscore.Rot>
1.6307

> <Gold.Chemscore.Internal.Correction>
   9.000000E+99

> <Gold.Chemscore.Hbonds>
donor molecule, donor type, donor heavy atom, donor atom, acceptor molecule, acceptor atom, score
      L1  H     7    31       P1 10175  0.96
      L1  H    12    52       P1  8028  0.94

> <Gold.Chemscore.Hbond.Weighted>
-6.1968

> <Gold.Chemscore.Metal.Weighted>
-0.0000

> <Gold.Chemscore.Lipo.Weighted>
-11.2721

> <Gold.Chemscore.Internal_Hbond.Weighted>
0.0000

> <Gold.Chemscore.DEClash.Weighted>
1.4241

> <Gold.Chemscore.DEInternal.Weighted>
2.0761

> <Gold.Chemscore.Rot.Weighted>
4.1746

> <Gold.Chemscore.Internal.Correction.Weighted>
   9.000000E+99

> <Gold.Protein.RotatedTorsions>
[ 6907 6896 6895 6894 ] final  -31.50 input  -60.11 | X-H torsion
[ 7974 7965 7964 7962 ] final   60.06 input  175.53 | X-H torsion
[ 8008 7997 7996 7995 ] final  -73.83 input   59.86 | X-H torsion
[ 10167 10162 10161 10158 ] final  -12.52 input  -65.29 | X-H torsion
[ 10718 10713 10712 10709 ] final -118.76 input   66.30 | X-H torsion
[ 10763 10752 10751 10750 ] final   45.21 input  -60.55 | X-H torsion
[ 11005 11000 10999 10996 ] final  115.59 input  -57.11 | X-H torsion

> <Gold.Protein.ActiveResidues>
 VAL166  LYS551  ARG553  GLY616  TRP617  ASP618  TYR619  PRO620  LYS621  CYS622 
 ASP623  PHE694  ASN695  SER759  ASP760  ASP761  ALA762  ILE779  LEU786  VAL792 
 PHE793  MET794  SER795  GLU796  ALA797  LYS798  CYS799  TRP800  GLU811  SER814 

> <Gold.Protein.RotatedAtoms>
  151.0913  134.9917  159.8403 H   0  0  0  0  0  0  0  0  0  0  0  0  # atno 6907 bound_to 6896
  152.5429  134.2062  159.8742 H   0  0  0  0  0  0  0  0  0  0  0  0  # atno 6908 bound_to 6896
  151.2099  133.4518  159.2631 H   0  0  0  0  0  0  0  0  0  0  0  0  # atno 6909 bound_to 6896
  145.9002  139.3575  143.0597 H   0  0  0  0  0  0  0  0  0  0  0  0  # atno 7974 bound_to 7965
  154.5280  140.0772  156.8293 H   0  0  0  0  0  0  0  0  0  0  0  0  # atno 8008 bound_to 7997
  155.3435  140.3408  155.4221 H   0  0  0  0  0  0  0  0  0  0  0  0  # atno 8009 bound_to 7997
  156.1751  140.1633  156.8363 H   0  0  0  0  0  0  0  0  0  0  0  0  # atno 8010 bound_to 7997
  140.7163  143.5523  150.9287 H   0  0  0  0  0  0  0  0  0  0  0  0  # atno 10167 bound_to 10162
  156.1130  130.6263  150.9331 H   0  0  0  0  0  0  0  0  0  0  0  0  # atno 10718 bound_to 10713
  152.9828  135.6046  154.3400 H   0  0  0  0  0  0  0  0  0  0  0  0  # atno 10763 bound_to 10752
  154.3098  135.2771  155.2573 H   0  0  0  0  0  0  0  0  0  0  0  0  # atno 10764 bound_to 10752
  154.4788  135.5922  153.6430 H   0  0  0  0  0  0  0  0  0  0  0  0  # atno 10765 bound_to 10752
  139.9014  134.9586  156.7068 H   0  0  0  0  0  0  0  0  0  0  0  0  # atno 11005 bound_to 11000
  145.8800  140.9368  143.0606 LP  0  0  0  0  0  0  0  0  0  0  0  0  # atno 17320 bound_to 7965
  144.6735  140.0768  143.7471 LP  0  0  0  0  0  0  0  0  0  0  0  0  # atno 17321 bound_to 7965
  139.9248  143.6563  152.3089 LP  0  0  0  0  0  0  0  0  0  0  0  0  # atno 17342 bound_to 10162
  139.6993  144.7637  151.1301 LP  0  0  0  0  0  0  0  0  0  0  0  0  # atno 17343 bound_to 10162
  157.6312  131.0921  150.8437 LP  0  0  0  0  0  0  0  0  0  0  0  0  # atno 17370 bound_to 10713
  156.8545  130.5092  149.5309 LP  0  0  0  0  0  0  0  0  0  0  0  0  # atno 17371 bound_to 10713
  140.7107  133.9226  155.8082 LP  0  0  0  0  0  0  0  0  0  0  0  0  # atno 17394 bound_to 11000
  141.0302  134.0766  157.4022 LP  0  0  0  0  0  0  0  0  0  0  0  0  # atno 17395 bound_to 11000

$$$$
