AV-unprocessed.smi:90|AV-procd|sdf|829|dock6
  -GOLD-   2262017243D 1   1.00000     0.00000
 Structure written by MMmdl.
 64 67  0  0  0  0  0  0  0  0  2 V2000
  147.9165  139.9326  156.6620 C   0  0  0  0  0  0  0  0  0  0  0  0
  149.3727  139.8540  156.6678 N   0  0  0  0  0  0  0  0  0  0  0  0
  150.0938  140.6087  157.6943 C   0  0  0  0  0  0  0  0  0  0  0  0
  150.9721  141.7266  157.0965 C   0  0  0  0  0  0  0  0  0  0  0  0
  152.1596  142.1630  157.9929 C   0  0  2  0  0  0  0  0  0  0  0  0
  152.5093  141.0642  159.0278 C   0  0  0  0  0  0  0  0  0  0  0  0
  153.6676  141.4762  159.9433 C   0  0  0  0  0  0  0  0  0  0  0  0
  153.3424  142.8064  160.6228 C   0  0  0  0  0  0  0  0  0  0  0  0
  153.0207  143.8750  159.5707 C   0  0  0  0  0  0  0  0  0  0  0  0
  151.8918  143.4601  158.6958 N   0  3  1  0  0  0  0  0  0  0  0  0
  151.4910  144.5737  157.8010 C   0  0  0  0  0  0  0  0  0  0  0  0
  149.9939  138.8597  155.9679 C   0  0  0  0  0  0  0  0  0  0  0  0
  151.1331  139.1556  155.2847 N   0  0  0  0  0  0  0  0  0  0  0  0
  151.7846  138.2168  154.5944 C   0  0  0  0  0  0  0  0  0  0  0  0
  151.4759  136.9296  154.4454 N   0  0  0  0  0  0  0  0  0  0  0  0
  150.3273  136.6171  155.1087 C   0  0  0  0  0  0  0  0  0  0  0  0
  149.5330  137.5080  155.8901 C   0  0  0  0  0  0  0  0  0  0  0  0
  148.4446  136.8148  156.4107 N   0  0  0  0  0  0  0  0  0  0  0  0
  148.5921  135.5951  155.9747 C   0  0  0  0  0  0  0  0  0  0  0  0
  149.6878  135.3898  155.1686 N   0  0  0  0  0  0  0  0  0  0  0  0
  150.0870  134.1319  154.5498 C   0  0  0  0  0  0  0  0  0  0  0  0
  150.4033  132.9715  155.5429 C   0  0  0  0  0  0  0  0  0  0  0  0
  151.6124  133.4067  156.4256 C   0  0  0  0  0  0  0  0  0  0  0  0
  151.9340  132.5293  157.4819 O   0  0  0  0  0  0  0  0  0  0  0  0
  149.1432  132.6705  156.3964 C   0  0  0  0  0  0  0  0  0  0  0  0
  149.1566  131.2842  157.0638 C   0  0  0  0  0  0  0  0  0  0  0  0
  149.3548  130.2771  156.0812 O   0  0  0  0  0  0  0  0  0  0  0  0
  150.6182  130.3812  155.4399 C   0  0  0  0  0  0  0  0  0  0  0  0
  150.7238  131.7194  154.6824 C   0  0  0  0  0  0  0  0  0  0  0  0
  147.4706  138.9497  156.8177 H   0  0  0  0  0  0  0  0  0  0  0  0
  147.5598  140.3367  155.7147 H   0  0  0  0  0  0  0  0  0  0  0  0
  147.5555  140.5879  157.4551 H   0  0  0  0  0  0  0  0  0  0  0  0
  149.3863  141.0051  158.4222 H   0  0  0  0  0  0  0  0  0  0  0  0
  150.7240  139.9123  158.2485 H   0  0  0  0  0  0  0  0  0  0  0  0
  151.3491  141.3532  156.1456 H   0  0  0  0  0  0  0  0  0  0  0  0
  150.3549  142.5944  156.8616 H   0  0  0  0  0  0  0  0  0  0  0  0
  153.0279  142.3128  157.3488 H   0  0  0  0  0  0  0  0  0  0  0  0
  151.6308  140.8341  159.6324 H   0  0  0  0  0  0  0  0  0  0  0  0
  152.7904  140.1379  158.5281 H   0  0  0  0  0  0  0  0  0  0  0  0
  153.8512  140.7048  160.6916 H   0  0  0  0  0  0  0  0  0  0  0  0
  154.5846  141.5723  159.3605 H   0  0  0  0  0  0  0  0  0  0  0  0
  152.4938  142.6813  161.2965 H   0  0  0  0  0  0  0  0  0  0  0  0
  154.1840  143.1271  161.2376 H   0  0  0  0  0  0  0  0  0  0  0  0
  152.7693  144.8059  160.0805 H   0  0  0  0  0  0  0  0  0  0  0  0
  153.9011  144.0786  158.9589 H   0  0  0  0  0  0  0  0  0  0  0  0
  152.2165  144.7130  156.9985 H   0  0  0  0  0  0  0  0  0  0  0  0
  151.4164  145.5106  158.3543 H   0  0  0  0  0  0  0  0  0  0  0  0
  150.5094  144.4018  157.3613 H   0  0  0  0  0  0  0  0  0  0  0  0
  152.6812  138.5439  154.0888 H   0  0  0  0  0  0  0  0  0  0  0  0
  147.8946  134.8085  156.2232 H   0  0  0  0  0  0  0  0  0  0  0  0
  149.2967  133.8377  153.8577 H   0  0  0  0  0  0  0  0  0  0  0  0
  150.9601  134.3333  153.9272 H   0  0  0  0  0  0  0  0  0  0  0  0
  152.5051  133.5134  155.8089 H   0  0  0  0  0  0  0  0  0  0  0  0
  151.4268  134.3813  156.8763 H   0  0  0  0  0  0  0  0  0  0  0  0
  152.5950  131.9252  157.1803 H   0  0  0  0  0  0  0  0  0  0  0  0
  148.9960  133.4433  157.1516 H   0  0  0  0  0  0  0  0  0  0  0  0
  148.2621  132.7041  155.7545 H   0  0  0  0  0  0  0  0  0  0  0  0
  149.9138  131.2120  157.8438 H   0  0  0  0  0  0  0  0  0  0  0  0
  148.1980  131.1044  157.5508 H   0  0  0  0  0  0  0  0  0  0  0  0
  151.4212  130.2508  156.1639 H   0  0  0  0  0  0  0  0  0  0  0  0
  150.7131  129.5554  154.7346 H   0  0  0  0  0  0  0  0  0  0  0  0
  150.0195  131.6668  153.8510 H   0  0  0  0  0  0  0  0  0  0  0  0
  151.7109  131.8133  154.2283 H   0  0  0  0  0  0  0  0  0  0  0  0
  151.1068  143.2959  159.3099 H   0  0  0  0  0  0  0  0  0  0  0  0
  1  2  1  0  0  0  0
  1 30  1  0  0  0  0
  1 31  1  0  0  0  0
  1 32  1  0  0  0  0
  2  3  1  0  0  0  0
  2 12  1  0  0  0  0
  3  4  1  0  0  0  0
  3 33  1  0  0  0  0
  3 34  1  0  0  0  0
  4  5  1  0  0  0  0
  4 35  1  0  0  0  0
  4 36  1  0  0  0  0
  5 10  1  0  0  0  0
  5  6  1  0  0  0  0
  5 37  1  0  0  0  0
  6  7  1  0  0  0  0
  6 38  1  0  0  0  0
  6 39  1  0  0  0  0
  7  8  1  0  0  0  0
  7 40  1  0  0  0  0
  7 41  1  0  0  0  0
  8  9  1  0  0  0  0
  8 42  1  0  0  0  0
  8 43  1  0  0  0  0
  9 10  1  0  0  0  0
  9 44  1  0  0  0  0
  9 45  1  0  0  0  0
 10 11  1  0  0  0  0
 10 64  1  0  0  0  0
 11 46  1  0  0  0  0
 11 47  1  0  0  0  0
 11 48  1  0  0  0  0
 12 17  1  0  0  0  0
 12 13  2  0  0  0  0
 13 14  1  0  0  0  0
 14 15  2  0  0  0  0
 14 49  1  0  0  0  0
 15 16  1  0  0  0  0
 16 20  1  0  0  0  0
 16 17  2  0  0  0  0
 17 18  1  0  0  0  0
 18 19  2  0  0  0  0
 19 20  1  0  0  0  0
 19 50  1  0  0  0  0
 20 21  1  0  0  0  0
 21 22  1  0  0  0  0
 21 51  1  0  0  0  0
 21 52  1  0  0  0  0
 22 29  1  0  0  0  0
 22 23  1  0  0  0  0
 22 25  1  0  0  0  0
 23 24  1  0  0  0  0
 23 53  1  0  0  0  0
 23 54  1  0  0  0  0
 24 55  1  0  0  0  0
 25 26  1  0  0  0  0
 25 56  1  0  0  0  0
 25 57  1  0  0  0  0
 26 27  1  0  0  0  0
 26 58  1  0  0  0  0
 26 59  1  0  0  0  0
 27 28  1  0  0  0  0
 28 29  1  0  0  0  0
 28 60  1  0  0  0  0
 28 61  1  0  0  0  0
 29 62  1  0  0  0  0
 29 63  1  0  0  0  0
M  CHG  1  10   1
M  END
> <s_m_source_file>
AV-unprocessed.smi

> <i_m_source_file_index>
90

> <i_lp_mmshare_version>
43012

> <i_f3d_flags>
0

> <s_epik_input>
W0NIM11OMVtDSDJdW0NIMl1bQ0gyXVtDSDJdW0NASF0xW0NIMl1bQ0gyXU4oW0NIM10pYyhuW2NIXW4yKWMoYzIzKW5bY0hdbjNbQ0gyXUM0KFtDSDJdW09IXSlbQ0gyXVtDSDJdT1tDSDJdW0NIMl00

> <s_epik_cmdline>
J2VwaWtfcHl0aG9uJywgJy1waCcsICc3LjAnLCAnLXRuJywgJzgnLCAnLW1hJywgJzIwMCcsICctbWV0YWxfYmluZGluZycsICctaW1hZScsICc8aW5maWxlLm1hZT4nLCAnLW9tYWUnLCAnPG91dGZpbGUubWFlPic=

> <r_lp_tautomer_probability>
1

> <r_epik_Ionization_Penalty>
0.00234895

> <r_epik_Ionization_Penalty_Charging>
0.00106647

> <r_epik_Ionization_Penalty_Neutral>
0.00128248

> <r_epik_State_Penalty>
-0

> <r_epik_Charging_Adjusted_Penalty>
0.00106647

> <i_epik_Tot_Q>
1

> <i_epik_Tot_abs_Q>
1

> <r_epik_Metal_State_Penalty>
-0

> <b_epik_Metal_Only>
0

> <s_lp_Force_Field>
OPLS_2005

> <r_lp_Energy>
43.9513

> <b_lp_Chiralities_Consistent>
1

> <s_lp_Variant>
AV-unprocessed.smi:90-1

> <Gold.Version>
5.8.1

> <Gold.Id.Protein>
6NUR|6NUR_protein|mol2

> <Gold.PLP.Fitness>
45.8226

> <Gold.PLP.PLP>
-42.8416

> <Gold.PLP.part.hbond>
-2.0000

> <Gold.PLP.part.metal>
0.0000

> <Gold.PLP.part.buried>
-7.0519

> <Gold.PLP.part.nonpolar>
-33.7666

> <Gold.PLP.part.repulsive>
0.2499

> <Gold.PLP.ligand.clash>
0.0000

> <Gold.PLP.ligand.torsion>
1.7453

> <Gold.PLP.Chemscore.Hbond>
2.0000

> <Gold.PLP.Chemscore.CHOScore>
0.0000

> <Gold.PLP.Chemscore.Metal>
0.0000

> <Gold.Chemscore.Hbonds>
donor molecule, donor type, donor heavy atom, donor atom, acceptor molecule, acceptor atom, score
      P1  H  6896  6909       L1    24  1.00
      P1  H 10752 10764       L1    15  1.00

> <Gold.PLP.Chemscore.Internal.Correction>
0.4716

> <Gold.Rescore>
     Score         DG    S(hbond)    S(metal)    S(lipo)     H(rot)  DE(clash)    DE(int)     intcor
     13.72     -17.47       1.82        0.00     110.49       2.73       1.04       2.71       ----

> <Gold.Chemscore.Fitness>
13.7249

> <Gold.Chemscore.DG>
-17.4723

> <Gold.Chemscore.ZeroCoef>
-5.4800

> <Gold.Chemscore.Hbond>
1.8162

> <Gold.Chemscore.Metal>
0.0000

> <Gold.Chemscore.Lipo>
110.4888

> <Gold.Chemscore.Internal_Hbond>
0.0000

> <Gold.Chemscore.DEClash>
1.0364

> <Gold.Chemscore.DEInternal>
2.7111

> <Gold.Chemscore.Rot>
2.7347

> <Gold.Chemscore.Internal.Correction>
   9.000000E+99

> <Gold.Chemscore.Hbonds>
donor molecule, donor type, donor heavy atom, donor atom, acceptor molecule, acceptor atom, score
      P1  H  6896  6909       L1    24  0.72
      P1  H 10752 10764       L1    15  0.93

> <Gold.Chemscore.Hbond.Weighted>
-6.0660

> <Gold.Chemscore.Metal.Weighted>
-0.0000

> <Gold.Chemscore.Lipo.Weighted>
-12.9272

> <Gold.Chemscore.Internal_Hbond.Weighted>
0.0000

> <Gold.Chemscore.DEClash.Weighted>
1.0364

> <Gold.Chemscore.DEInternal.Weighted>
2.7111

> <Gold.Chemscore.Rot.Weighted>
7.0009

> <Gold.Chemscore.Internal.Correction.Weighted>
   9.000000E+99

> <Gold.Protein.RotatedTorsions>
[ 6907 6896 6895 6894 ] final  -46.44 input  -60.11 | X-H torsion
[ 7974 7965 7964 7962 ] final  175.83 input  175.53 | X-H torsion
[ 8008 7997 7996 7995 ] final  -34.62 input   59.86 | X-H torsion
[ 10167 10162 10161 10158 ] final -160.49 input  -65.29 | X-H torsion
[ 10718 10713 10712 10709 ] final   46.39 input   66.30 | X-H torsion
[ 10763 10752 10751 10750 ] final  -73.85 input  -60.55 | X-H torsion
[ 11005 11000 10999 10996 ] final  156.17 input  -57.11 | X-H torsion

> <Gold.Protein.ActiveResidues>
 VAL166  LYS551  ARG553  GLY616  TRP617  ASP618  TYR619  PRO620  LYS621  CYS622 
 ASP623  PHE694  ASN695  SER759  ASP760  ASP761  ALA762  ILE779  LEU786  VAL792 
 PHE793  MET794  SER795  GLU796  ALA797  LYS798  CYS799  TRP800  GLU811  SER814 

> <Gold.Protein.RotatedAtoms>
  150.9113  134.8529  159.7426 H   0  0  0  0  0  0  0  0  0  0  0  0  # atno 6907 bound_to 6896
  152.4945  134.4356  159.9536 H   0  0  0  0  0  0  0  0  0  0  0  0  # atno 6908 bound_to 6896
  151.4398  133.3607  159.2815 H   0  0  0  0  0  0  0  0  0  0  0  0  # atno 6909 bound_to 6896
  144.7194  140.0006  143.6440 H   0  0  0  0  0  0  0  0  0  0  0  0  # atno 7974 bound_to 7965
  154.4116  140.1679  156.2079 H   0  0  0  0  0  0  0  0  0  0  0  0  # atno 8008 bound_to 7997
  155.9469  140.3404  155.6351 H   0  0  0  0  0  0  0  0  0  0  0  0  # atno 8009 bound_to 7997
  155.6919  140.0735  157.2435 H   0  0  0  0  0  0  0  0  0  0  0  0  # atno 8010 bound_to 7997
  139.6535  144.0040  152.2178 H   0  0  0  0  0  0  0  0  0  0  0  0  # atno 10167 bound_to 10162
  157.4476  130.8119  149.7756 H   0  0  0  0  0  0  0  0  0  0  0  0  # atno 10718 bound_to 10713
  154.4651  135.5884  153.6282 H   0  0  0  0  0  0  0  0  0  0  0  0  # atno 10763 bound_to 10752
  152.9827  135.6053  154.3438 H   0  0  0  0  0  0  0  0  0  0  0  0  # atno 10764 bound_to 10752
  154.3314  135.2842  155.2449 H   0  0  0  0  0  0  0  0  0  0  0  0  # atno 10765 bound_to 10752
  140.1650  134.8583  157.2621 H   0  0  0  0  0  0  0  0  0  0  0  0  # atno 11005 bound_to 11000
  146.0338  139.3359  143.0739 LP  0  0  0  0  0  0  0  0  0  0  0  0  # atno 17320 bound_to 7965
  145.8419  140.9576  143.0795 LP  0  0  0  0  0  0  0  0  0  0  0  0  # atno 17321 bound_to 7965
  139.9761  144.6460  150.7944 LP  0  0  0  0  0  0  0  0  0  0  0  0  # atno 17342 bound_to 10162
  140.7549  143.3035  151.3020 LP  0  0  0  0  0  0  0  0  0  0  0  0  # atno 17343 bound_to 10162
  155.9974  130.3900  150.2743 LP  0  0  0  0  0  0  0  0  0  0  0  0  # atno 17370 bound_to 10713
  157.0912  131.0170  151.3121 LP  0  0  0  0  0  0  0  0  0  0  0  0  # atno 17371 bound_to 10713
  140.2444  134.3757  155.7467 LP  0  0  0  0  0  0  0  0  0  0  0  0  # atno 17394 bound_to 11000
  141.2213  133.7283  156.8839 LP  0  0  0  0  0  0  0  0  0  0  0  0  # atno 17395 bound_to 11000

$$$$
