AV-unprocessed.smi:36|AV-procd|sdf|280|dock1
  -GOLD-   2262016 53D 1   1.00000     0.00000
 Structure written by MMmdl.
 64 67  0  0  0  0  0  0  0  0  1 V2000
  145.7162  134.5587  162.9667 C   0  0  0  0  0  0  0  0  0  0  0  0
  147.0027  134.5818  162.1241 C   0  0  0  0  0  0  0  0  0  0  0  0
  147.9045  135.7353  162.5949 C   0  0  0  0  0  0  0  0  0  0  0  0
  147.7475  133.2456  162.2796 C   0  0  0  0  0  0  0  0  0  0  0  0
  146.5393  134.8307  160.2829 Si  0  0  0  0  0  0  0  0  0  0  0  0
  145.4838  133.3776  159.6637 C   0  0  0  0  0  0  0  0  0  0  0  0
  145.5957  136.4636  160.0356 C   0  0  0  0  0  0  0  0  0  0  0  0
  147.9538  134.8702  159.3519 O   0  0  0  0  0  0  0  0  0  0  0  0
  148.7572  133.7331  159.1105 C   0  0  0  0  0  0  0  0  0  0  0  0
  148.8377  133.4408  157.6002 C   0  0  1  0  0  0  0  0  0  0  0  0
  148.7057  134.6876  156.9165 O   0  0  0  0  0  0  0  0  0  0  0  0
  149.9250  135.0693  156.3498 C   0  0  1  0  0  0  0  0  0  0  0  0
  150.2161  136.4729  156.7605 N   0  0  0  0  0  0  0  0  0  0  0  0
  150.3416  136.9934  158.0305 C   0  0  0  0  0  0  0  0  0  0  0  0
  150.5984  138.2730  158.0861 N   0  0  0  0  0  0  0  0  0  0  0  0
  150.6583  138.6616  156.7537 C   0  0  0  0  0  0  0  0  0  0  0  0
  150.8931  139.8986  156.1002 C   0  0  0  0  0  0  0  0  0  0  0  0
  151.1120  141.0184  156.8280 N   0  0  0  0  0  0  0  0  0  0  0  0
  151.8103  141.1430  158.0951 C   0  0  0  0  0  0  0  0  0  0  0  0
  152.2145  140.1621  158.7203 O   0  0  0  0  0  0  0  0  0  0  0  0
  151.9369  142.5347  158.6428 C   0  0  0  0  0  0  0  0  0  0  0  0
  151.5250  143.6411  157.8660 C   0  0  0  0  0  0  0  0  0  0  0  0
  151.6186  144.9486  158.3814 C   0  0  0  0  0  0  0  0  0  0  0  0
  152.1172  145.1602  159.6806 C   0  0  0  0  0  0  0  0  0  0  0  0
  152.5194  144.0632  160.4655 C   0  0  0  0  0  0  0  0  0  0  0  0
  152.4279  142.7554  159.9507 C   0  0  0  0  0  0  0  0  0  0  0  0
  150.8781  139.9008  154.7409 N   0  0  0  0  0  0  0  0  0  0  0  0
  150.6502  138.7681  154.0686 C   0  0  0  0  0  0  0  0  0  0  0  0
  150.4139  137.5453  154.5494 N   0  0  0  0  0  0  0  0  0  0  0  0
  150.4248  137.5384  155.9134 C   0  0  0  0  0  0  0  0  0  0  0  0
  150.9944  134.1238  156.8901 C   0  0  0  0  0  0  0  0  0  0  0  0
  150.1733  132.8710  157.0970 C   0  0  1  0  0  0  0  0  0  0  0  0
  150.7999  131.9686  157.9848 O   0  0  0  0  0  0  0  0  0  0  0  0
  145.9377  134.4074  164.0237 H   0  0  0  0  0  0  0  0  0  0  0  0
  145.0496  133.7548  162.6541 H   0  0  0  0  0  0  0  0  0  0  0  0
  145.1664  135.4961  162.8782 H   0  0  0  0  0  0  0  0  0  0  0  0
  147.4153  136.7013  162.4692 H   0  0  0  0  0  0  0  0  0  0  0  0
  148.8405  135.7637  162.0388 H   0  0  0  0  0  0  0  0  0  0  0  0
  148.1599  135.6312  163.6500 H   0  0  0  0  0  0  0  0  0  0  0  0
  148.0453  133.0757  163.3149 H   0  0  0  0  0  0  0  0  0  0  0  0
  148.6501  133.2208  161.6692 H   0  0  0  0  0  0  0  0  0  0  0  0
  147.1233  132.4046  161.9771 H   0  0  0  0  0  0  0  0  0  0  0  0
  144.5598  133.2803  160.2332 H   0  0  0  0  0  0  0  0  0  0  0  0
  146.0167  132.4304  159.7438 H   0  0  0  0  0  0  0  0  0  0  0  0
  145.2072  133.5054  158.6174 H   0  0  0  0  0  0  0  0  0  0  0  0
  144.6637  136.4765  160.6002 H   0  0  0  0  0  0  0  0  0  0  0  0
  145.3408  136.6217  158.9879 H   0  0  0  0  0  0  0  0  0  0  0  0
  146.1828  137.3226  160.3599 H   0  0  0  0  0  0  0  0  0  0  0  0
  149.7558  133.9510  159.4905 H   0  0  0  0  0  0  0  0  0  0  0  0
  148.3885  132.8733  159.6685 H   0  0  0  0  0  0  0  0  0  0  0  0
  148.0078  132.7933  157.3153 H   0  0  0  0  0  0  0  0  0  0  0  0
  149.8506  135.0771  155.2617 H   0  0  0  0  0  0  0  0  0  0  0  0
  150.2329  136.3940  158.9218 H   0  0  0  0  0  0  0  0  0  0  0  0
  150.7742  141.8794  156.4229 H   0  0  0  0  0  0  0  0  0  0  0  0
  151.1374  143.4952  156.8678 H   0  0  0  0  0  0  0  0  0  0  0  0
  151.3053  145.7890  157.7797 H   0  0  0  0  0  0  0  0  0  0  0  0
  152.1868  146.1625  160.0765 H   0  0  0  0  0  0  0  0  0  0  0  0
  152.8957  144.2240  161.4652 H   0  0  0  0  0  0  0  0  0  0  0  0
  152.7336  141.9275  160.5737 H   0  0  0  0  0  0  0  0  0  0  0  0
  150.6557  138.8553  152.9922 H   0  0  0  0  0  0  0  0  0  0  0  0
  151.8154  134.0074  156.1819 H   0  0  0  0  0  0  0  0  0  0  0  0
  151.3858  134.5014  157.8364 H   0  0  0  0  0  0  0  0  0  0  0  0
  150.0198  132.3761  156.1369 H   0  0  0  0  0  0  0  0  0  0  0  0
  150.7891  131.1074  157.5951 H   0  0  0  0  0  0  0  0  0  0  0  0
  1  2  1  0  0  0  0
  1 34  1  0  0  0  0
  1 35  1  0  0  0  0
  1 36  1  0  0  0  0
  2  3  1  0  0  0  0
  2  4  1  0  0  0  0
  2  5  1  0  0  0  0
  3 37  1  0  0  0  0
  3 38  1  0  0  0  0
  3 39  1  0  0  0  0
  4 40  1  0  0  0  0
  4 41  1  0  0  0  0
  4 42  1  0  0  0  0
  5  6  1  0  0  0  0
  5  7  1  0  0  0  0
  5  8  1  0  0  0  0
  6 43  1  0  0  0  0
  6 44  1  0  0  0  0
  6 45  1  0  0  0  0
  7 46  1  0  0  0  0
  7 47  1  0  0  0  0
  7 48  1  0  0  0  0
  8  9  1  0  0  0  0
  9 10  1  0  0  0  0
  9 49  1  0  0  0  0
  9 50  1  0  0  0  0
 10 32  1  0  0  0  0
 10 11  1  0  0  0  0
 10 51  1  0  0  0  0
 11 12  1  0  0  0  0
 12 13  1  0  0  0  0
 12 31  1  0  0  0  0
 12 52  1  0  0  0  0
 13 30  1  0  0  0  0
 13 14  1  0  0  0  0
 14 15  2  0  0  0  0
 14 53  1  0  0  0  0
 15 16  1  0  0  0  0
 16 30  2  0  0  0  0
 16 17  1  0  0  0  0
 17 18  1  0  0  0  0
 17 27  2  0  0  0  0
 18 19  1  0  0  0  0
 18 54  1  0  0  0  0
 19 20  2  0  0  0  0
 19 21  1  0  0  0  0
 21 26  1  0  0  0  0
 21 22  2  0  0  0  0
 22 23  1  0  0  0  0
 22 55  1  0  0  0  0
 23 24  2  0  0  0  0
 23 56  1  0  0  0  0
 24 25  1  0  0  0  0
 24 57  1  0  0  0  0
 25 26  2  0  0  0  0
 25 58  1  0  0  0  0
 26 59  1  0  0  0  0
 27 28  1  0  0  0  0
 28 29  2  0  0  0  0
 28 60  1  0  0  0  0
 29 30  1  0  0  0  0
 31 32  1  0  0  0  0
 31 61  1  0  0  0  0
 31 62  1  0  0  0  0
 32 33  1  0  0  0  0
 32 63  1  0  0  0  0
 33 64  1  0  0  0  0
M  END
> <s_m_source_file>
AV-unprocessed.smi

> <i_m_source_file_index>
36

> <i_lp_mmshare_version>
43012

> <i_f3d_flags>
0

> <s_epik_input>
W0NIM11DKFtDSDNdKShbQ0gzXSlbU2ldKFtDSDNdKShbQ0gzXSlPW0NIMl1bQ0BASF0xT1tDQEhdKFtDSDJdW0NASF0xW09IXSluKFtjSF1uMiljKGMyMyluW2NIXW5jM1tOSF1DKD1PKWM0W2NIXVtjSF1bY0hdW2NIXVtjSF00

> <s_epik_cmdline>
J2VwaWtfcHl0aG9uJywgJy1waCcsICc3LjAnLCAnLXRuJywgJzgnLCAnLW1hJywgJzIwMCcsICctbWV0YWxfYmluZGluZycsICctaW1hZScsICc8aW5maWxlLm1hZT4nLCAnLW9tYWUnLCAnPG91dGZpbGUubWFlPic=

> <r_lp_tautomer_probability>
1

> <r_epik_Ionization_Penalty>
0.00150433

> <r_epik_Ionization_Penalty_Charging>
0

> <r_epik_Ionization_Penalty_Neutral>
0.00150433

> <r_epik_State_Penalty>
0.00724046

> <r_epik_Charging_Adjusted_Penalty>
0.00724046

> <i_epik_Tot_Q>
0

> <i_epik_Tot_abs_Q>
0

> <r_epik_Metal_State_Penalty>
0.323355

> <b_epik_Metal_Only>
0

> <s_epik_Chemistry_Notes>
This compound contains an acetal/aminal-like group ( X-CH(R)-Y where X, Y are N, S, or O) that may be acid/base labile, releasing an aldehyde.

> <s_lp_Force_Field>
OPLS_2005

> <r_lp_Energy>
33.9603

> <b_lp_Chiralities_Consistent>
1

> <s_lp_Variant>
AV-unprocessed.smi:36-2

> <Gold.Version>
5.8.1

> <Gold.Id.Protein>
6NUR|6NUR_protein|mol2

> <Gold.PLP.Fitness>
55.9731

> <Gold.PLP.PLP>
-48.8061

> <Gold.PLP.part.hbond>
-2.0000

> <Gold.PLP.part.metal>
0.0000

> <Gold.PLP.part.buried>
-7.0842

> <Gold.PLP.part.nonpolar>
-39.5518

> <Gold.PLP.part.repulsive>
0.3691

> <Gold.PLP.ligand.clash>
0.0000

> <Gold.PLP.ligand.torsion>
1.1650

> <Gold.PLP.Chemscore.Hbond>
1.9500

> <Gold.PLP.Chemscore.CHOScore>
1.0000

> <Gold.PLP.Chemscore.Metal>
0.0000

> <Gold.Chemscore.Hbonds>
donor molecule, donor type, donor heavy atom, donor atom, acceptor molecule, acceptor atom, score
      P1  H  6896  6907       L1    33  0.65
      P1  H  7989  7998       L1    27  1.00
      L1  C    28    60       P1  7957  1.00

> <Gold.PLP.Chemscore.Internal.Correction>
0.6471

> <Gold.Rescore>
     Score         DG    S(hbond)    S(metal)    S(lipo)     H(rot)  DE(clash)    DE(int)     intcor
     12.68     -16.66       0.95        0.00     127.45       2.70       0.68       3.30       ----

> <Gold.Chemscore.Fitness>
12.6795

> <Gold.Chemscore.DG>
-16.6589

> <Gold.Chemscore.ZeroCoef>
-5.4800

> <Gold.Chemscore.Hbond>
0.9548

> <Gold.Chemscore.Metal>
0.0000

> <Gold.Chemscore.Lipo>
127.4549

> <Gold.Chemscore.Internal_Hbond>
0.0000

> <Gold.Chemscore.DEClash>
0.6775

> <Gold.Chemscore.DEInternal>
3.3018

> <Gold.Chemscore.Rot>
2.7041

> <Gold.Chemscore.Internal.Correction>
   9.000000E+99

> <Gold.Chemscore.Hbonds>
donor molecule, donor type, donor heavy atom, donor atom, acceptor molecule, acceptor atom, score
      P1  H  6896  6907       L1    33  0.06
      P1  H  7989  7998       L1    27  0.30

> <Gold.Chemscore.Hbond.Weighted>
-3.1891

> <Gold.Chemscore.Metal.Weighted>
-0.0000

> <Gold.Chemscore.Lipo.Weighted>
-14.9122

> <Gold.Chemscore.Internal_Hbond.Weighted>
0.0000

> <Gold.Chemscore.DEClash.Weighted>
0.6775

> <Gold.Chemscore.DEInternal.Weighted>
3.3018

> <Gold.Chemscore.Rot.Weighted>
6.9225

> <Gold.Chemscore.Internal.Correction.Weighted>
   9.000000E+99

> <Gold.Protein.RotatedTorsions>
[ 6907 6896 6895 6894 ] final -156.77 input  -60.11 | X-H torsion
[ 7974 7965 7964 7962 ] final  177.30 input  175.53 | X-H torsion
[ 8008 7997 7996 7995 ] final  169.19 input   59.86 | X-H torsion
[ 10167 10162 10161 10158 ] final   -8.53 input  -65.29 | X-H torsion
[ 10718 10713 10712 10709 ] final  167.55 input   66.30 | X-H torsion
[ 10763 10752 10751 10750 ] final -170.32 input  -60.55 | X-H torsion
[ 11005 11000 10999 10996 ] final   -2.03 input  -57.11 | X-H torsion

> <Gold.Protein.ActiveResidues>
 VAL166  LYS551  ARG553  GLY616  TRP617  ASP618  TYR619  PRO620  LYS621  CYS622 
 ASP623  PHE694  ASN695  SER759  ASP760  ASP761  ALA762  ILE779  LEU786  VAL792 
 PHE793  MET794  SER795  GLU796  ALA797  LYS798  CYS799  TRP800  GLU811  SER814 

> <Gold.Protein.RotatedAtoms>
  151.2927  133.4158  159.2633 H   0  0  0  0  0  0  0  0  0  0  0  0  # atno 6907 bound_to 6896
  151.0264  134.9507  159.8097 H   0  0  0  0  0  0  0  0  0  0  0  0  # atno 6908 bound_to 6896
  152.5336  134.2889  159.9088 H   0  0  0  0  0  0  0  0  0  0  0  0  # atno 6909 bound_to 6896
  144.7171  140.0227  143.6440 H   0  0  0  0  0  0  0  0  0  0  0  0  # atno 7974 bound_to 7965
  156.1480  140.1571  156.8816 H   0  0  0  0  0  0  0  0  0  0  0  0  # atno 8008 bound_to 7997
  154.5045  140.0816  156.7904 H   0  0  0  0  0  0  0  0  0  0  0  0  # atno 8009 bound_to 7997
  155.3951  140.3412  155.4256 H   0  0  0  0  0  0  0  0  0  0  0  0  # atno 8010 bound_to 7997
  140.7062  143.5958  150.8847 H   0  0  0  0  0  0  0  0  0  0  0  0  # atno 10167 bound_to 10162
  157.0499  131.0310  151.2684 H   0  0  0  0  0  0  0  0  0  0  0  0  # atno 10718 bound_to 10713
  154.6428  135.2901  155.0083 H   0  0  0  0  0  0  0  0  0  0  0  0  # atno 10763 bound_to 10752
  154.1204  135.6549  153.4906 H   0  0  0  0  0  0  0  0  0  0  0  0  # atno 10764 bound_to 10752
  153.0335  135.5286  154.7302 H   0  0  0  0  0  0  0  0  0  0  0  0  # atno 10765 bound_to 10752
  140.6538  133.9381  155.8396 H   0  0  0  0  0  0  0  0  0  0  0  0  # atno 11005 bound_to 11000
  146.0167  139.3216  143.0837 LP  0  0  0  0  0  0  0  0  0  0  0  0  # atno 17320 bound_to 7965
  145.8617  140.9471  143.0697 LP  0  0  0  0  0  0  0  0  0  0  0  0  # atno 17321 bound_to 7965
  139.9683  143.6085  152.2981 LP  0  0  0  0  0  0  0  0  0  0  0  0  # atno 17342 bound_to 10162
  139.6663  144.7662  151.1867 LP  0  0  0  0  0  0  0  0  0  0  0  0  # atno 17343 bound_to 10162
  157.5038  130.7896  149.7633 LP  0  0  0  0  0  0  0  0  0  0  0  0  # atno 17370 bound_to 10713
  156.0011  130.3880  150.2603 LP  0  0  0  0  0  0  0  0  0  0  0  0  # atno 17371 bound_to 10713
  141.0516  134.0476  157.3775 LP  0  0  0  0  0  0  0  0  0  0  0  0  # atno 17394 bound_to 11000
  139.9036  135.0173  156.7385 LP  0  0  0  0  0  0  0  0  0  0  0  0  # atno 17395 bound_to 11000

$$$$
