AV-unprocessed.smi:249|AV-procd|sdf|1905|dock4
  -GOLD-   2262020583D 1   1.00000     0.00000
 Structure written by MMmdl.
 64 67  0  0  0  0  0  0  0  0  2 V2000
  146.8060  130.4005  152.1480 C   0  0  0  0  0  0  0  0  0  0  0  0
  146.5173  130.5348  153.6507 C   0  0  0  0  0  0  0  0  0  0  0  0
  147.4920  131.4068  154.3599 N   0  3  1  0  0  0  0  0  0  0  0  0
  148.8957  130.9495  154.1760 C   0  0  0  0  0  0  0  0  0  0  0  0
  149.8567  131.7012  155.1107 C   0  0  0  0  0  0  0  0  0  0  0  0
  149.7390  133.2254  154.9110 C   0  0  2  0  0  0  0  0  0  0  0  0
  150.6777  134.0073  155.7270 N   0  0  0  0  0  0  0  0  0  0  0  0
  151.0812  133.4739  157.0222 C   0  0  0  0  0  0  0  0  0  0  0  0
  150.7162  135.3623  155.6708 C   0  0  0  0  0  0  0  0  0  0  0  0
  151.0315  135.9925  154.5091 N   0  0  0  0  0  0  0  0  0  0  0  0
  151.0532  137.3275  154.4504 C   0  0  0  0  0  0  0  0  0  0  0  0
  150.7954  138.2093  155.4180 N   0  0  0  0  0  0  0  0  0  0  0  0
  150.4737  137.5813  156.5848 C   0  0  0  0  0  0  0  0  0  0  0  0
  150.4069  136.1756  156.7957 C   0  0  0  0  0  0  0  0  0  0  0  0
  150.0507  135.9101  158.1125 N   0  0  0  0  0  0  0  0  0  0  0  0
  149.9138  137.0922  158.6499 C   0  0  0  0  0  0  0  0  0  0  0  0
  150.1459  138.1511  157.8013 N   0  0  0  0  0  0  0  0  0  0  0  0
  150.0690  139.5639  158.1266 C   0  0  0  0  0  0  0  0  0  0  0  0
  151.4333  140.1681  158.5406 C   0  0  1  0  0  0  0  0  0  0  0  0
  152.5856  139.7374  157.6009 C   0  0  0  0  0  0  0  0  0  0  0  0
  153.0419  138.4352  157.9050 O   0  0  0  0  0  0  0  0  0  0  0  0
  151.3457  141.7064  158.7053 C   0  0  2  0  0  0  0  0  0  0  0  0
  151.1171  142.4764  157.4166 C   0  0  0  0  0  0  0  0  0  0  0  0
  151.5428  143.8858  157.8088 C   0  0  0  0  0  0  0  0  0  0  0  0
  152.6113  143.7135  158.7318 O   0  0  0  0  0  0  0  0  0  0  0  0
  152.6369  142.3684  159.2011 C   0  0  0  0  0  0  0  0  0  0  0  0
  148.2677  133.6682  155.0651 C   0  0  0  0  0  0  0  0  0  0  0  0
  147.3228  132.8770  154.1379 C   0  0  1  0  0  0  0  0  0  0  0  0
  147.4578  133.3033  152.6599 C   0  0  0  0  0  0  0  0  0  0  0  0
  145.9943  129.8707  151.6492 H   0  0  0  0  0  0  0  0  0  0  0  0
  147.7194  129.8384  151.9550 H   0  0  0  0  0  0  0  0  0  0  0  0
  146.9012  131.3784  151.6749 H   0  0  0  0  0  0  0  0  0  0  0  0
  145.5242  130.9735  153.7555 H   0  0  0  0  0  0  0  0  0  0  0  0
  146.4611  129.5535  154.1216 H   0  0  0  0  0  0  0  0  0  0  0  0
  148.9636  129.8827  154.3919 H   0  0  0  0  0  0  0  0  0  0  0  0
  149.1994  131.0724  153.1360 H   0  0  0  0  0  0  0  0  0  0  0  0
  149.6312  131.4234  156.1394 H   0  0  0  0  0  0  0  0  0  0  0  0
  150.8786  131.3716  154.9207 H   0  0  0  0  0  0  0  0  0  0  0  0
  150.0241  133.4346  153.8796 H   0  0  0  0  0  0  0  0  0  0  0  0
  152.1555  133.5861  157.1686 H   0  0  0  0  0  0  0  0  0  0  0  0
  150.8454  132.4122  157.0999 H   0  0  0  0  0  0  0  0  0  0  0  0
  150.5671  133.9922  157.8327 H   0  0  0  0  0  0  0  0  0  0  0  0
  151.3112  137.7502  153.4906 H   0  0  0  0  0  0  0  0  0  0  0  0
  149.6335  137.2257  159.6848 H   0  0  0  0  0  0  0  0  0  0  0  0
  149.6637  140.0964  157.2652 H   0  0  0  0  0  0  0  0  0  0  0  0
  149.3388  139.6768  158.9282 H   0  0  0  0  0  0  0  0  0  0  0  0
  151.6741  139.7578  159.5225 H   0  0  0  0  0  0  0  0  0  0  0  0
  152.2669  139.7619  156.5591 H   0  0  0  0  0  0  0  0  0  0  0  0
  153.4260  140.4282  157.6697 H   0  0  0  0  0  0  0  0  0  0  0  0
  152.4024  138.0145  158.4595 H   0  0  0  0  0  0  0  0  0  0  0  0
  150.5427  141.9550  159.4016 H   0  0  0  0  0  0  0  0  0  0  0  0
  151.7635  142.0969  156.6240 H   0  0  0  0  0  0  0  0  0  0  0  0
  150.0852  142.4367  157.0669 H   0  0  0  0  0  0  0  0  0  0  0  0
  151.8461  144.4863  156.9512 H   0  0  0  0  0  0  0  0  0  0  0  0
  150.7259  144.4024  158.3143 H   0  0  0  0  0  0  0  0  0  0  0  0
  152.7294  142.3359  160.2869 H   0  0  0  0  0  0  0  0  0  0  0  0
  153.5131  141.8781  158.7746 H   0  0  0  0  0  0  0  0  0  0  0  0
  147.9313  133.5224  156.0913 H   0  0  0  0  0  0  0  0  0  0  0  0
  148.1761  134.7371  154.8679 H   0  0  0  0  0  0  0  0  0  0  0  0
  146.3145  133.1458  154.4507 H   0  0  0  0  0  0  0  0  0  0  0  0
  147.3452  134.3833  152.5613 H   0  0  0  0  0  0  0  0  0  0  0  0
  146.6869  132.8518  152.0363 H   0  0  0  0  0  0  0  0  0  0  0  0
  148.4258  133.0401  152.2353 H   0  0  0  0  0  0  0  0  0  0  0  0
  147.3009  131.2654  155.3417 H   0  0  0  0  0  0  0  0  0  0  0  0
  1  2  1  0  0  0  0
  1 30  1  0  0  0  0
  1 31  1  0  0  0  0
  1 32  1  0  0  0  0
  2  3  1  0  0  0  0
  2 33  1  0  0  0  0
  2 34  1  0  0  0  0
  3 28  1  0  0  0  0
  3  4  1  0  0  0  0
  3 64  1  0  0  0  0
  4  5  1  0  0  0  0
  4 35  1  0  0  0  0
  4 36  1  0  0  0  0
  5  6  1  0  0  0  0
  5 37  1  0  0  0  0
  5 38  1  0  0  0  0
  6  7  1  0  0  0  0
  6 27  1  0  0  0  0
  6 39  1  0  0  0  0
  7  8  1  0  0  0  0
  7  9  1  0  0  0  0
  8 40  1  0  0  0  0
  8 41  1  0  0  0  0
  8 42  1  0  0  0  0
  9 14  1  0  0  0  0
  9 10  2  0  0  0  0
 10 11  1  0  0  0  0
 11 12  2  0  0  0  0
 11 43  1  0  0  0  0
 12 13  1  0  0  0  0
 13 17  1  0  0  0  0
 13 14  2  0  0  0  0
 14 15  1  0  0  0  0
 15 16  2  0  0  0  0
 16 17  1  0  0  0  0
 16 44  1  0  0  0  0
 17 18  1  0  0  0  0
 18 19  1  0  0  0  0
 18 45  1  0  0  0  0
 18 46  1  0  0  0  0
 19 20  1  0  0  0  0
 19 22  1  0  0  0  0
 19 47  1  0  0  0  0
 20 21  1  0  0  0  0
 20 48  1  0  0  0  0
 20 49  1  0  0  0  0
 21 50  1  0  0  0  0
 22 26  1  0  0  0  0
 22 23  1  0  0  0  0
 22 51  1  0  0  0  0
 23 24  1  0  0  0  0
 23 52  1  0  0  0  0
 23 53  1  0  0  0  0
 24 25  1  0  0  0  0
 24 54  1  0  0  0  0
 24 55  1  0  0  0  0
 25 26  1  0  0  0  0
 26 56  1  0  0  0  0
 26 57  1  0  0  0  0
 27 28  1  0  0  0  0
 27 58  1  0  0  0  0
 27 59  1  0  0  0  0
 28 29  1  0  0  0  0
 28 60  1  0  0  0  0
 29 61  1  0  0  0  0
 29 62  1  0  0  0  0
 29 63  1  0  0  0  0
M  CHG  1   3   1
M  END
> <s_m_source_file>
AV-unprocessed.smi

> <i_m_source_file_index>
249

> <i_lp_mmshare_version>
43012

> <i_f3d_flags>
0

> <s_epik_input>
W0NIM11bQ0gyXU4xW0NIMl1bQ0gyXVtDQEhdKFtDSDJdW0NASF0xW0NIM10pTihbQ0gzXSljKG5bY0hdbjIpYyhjMjMpbltjSF1uM1tDSDJdW0NASF0oW0NIMl1bT0hdKVtDQEBIXTRbQ0gyXVtDSDJdT1tDSDJdNA==

> <s_epik_cmdline>
J2VwaWtfcHl0aG9uJywgJy1waCcsICc3LjAnLCAnLXRuJywgJzgnLCAnLW1hJywgJzIwMCcsICctbWV0YWxfYmluZGluZycsICctaW1hZScsICc8aW5maWxlLm1hZT4nLCAnLW9tYWUnLCAnPG91dGZpbGUubWFlPic=

> <r_lp_tautomer_probability>
1

> <r_epik_Ionization_Penalty>
0.00294688

> <r_epik_Ionization_Penalty_Charging>
0.00169971

> <r_epik_Ionization_Penalty_Neutral>
0.00124717

> <r_epik_State_Penalty>
-0

> <r_epik_Charging_Adjusted_Penalty>
0.00169971

> <i_epik_Tot_Q>
1

> <i_epik_Tot_abs_Q>
1

> <r_epik_Metal_State_Penalty>
-0

> <b_epik_Metal_Only>
0

> <s_lp_Force_Field>
OPLS_2005

> <r_lp_Energy>
52.9117

> <b_lp_Chiralities_Consistent>
1

> <s_lp_Variant>
AV-unprocessed.smi:249-8

> <Gold.Version>
5.8.1

> <Gold.Id.Protein>
6NUR|6NUR_protein|mol2

> <Gold.PLP.Fitness>
43.0596

> <Gold.PLP.PLP>
-38.3155

> <Gold.PLP.part.hbond>
-2.0000

> <Gold.PLP.part.metal>
0.0000

> <Gold.PLP.part.buried>
-1.3705

> <Gold.PLP.part.nonpolar>
-36.4168

> <Gold.PLP.part.repulsive>
1.1627

> <Gold.PLP.ligand.clash>
0.0000

> <Gold.PLP.ligand.torsion>
1.9503

> <Gold.PLP.Chemscore.Hbond>
1.9199

> <Gold.PLP.Chemscore.CHOScore>
0.4622

> <Gold.PLP.Chemscore.Metal>
0.0000

> <Gold.Chemscore.Hbonds>
donor molecule, donor type, donor heavy atom, donor atom, acceptor molecule, acceptor atom, score
      P1  H  6896  6908       L1    15  0.93
      P1  H 10752 10763       L1    10  1.00
      L1  C    11    43       P1  7949  0.44

> <Gold.PLP.Chemscore.Internal.Correction>
1.4986

> <Gold.Rescore>
     Score         DG    S(hbond)    S(metal)    S(lipo)     H(rot)  DE(clash)    DE(int)     intcor
      7.65     -15.00       1.35        0.00     100.87       2.65       1.93       5.42       ----

> <Gold.Chemscore.Fitness>
7.6478

> <Gold.Chemscore.DG>
-14.9994

> <Gold.Chemscore.ZeroCoef>
-5.4800

> <Gold.Chemscore.Hbond>
1.3489

> <Gold.Chemscore.Metal>
0.0000

> <Gold.Chemscore.Lipo>
100.8737

> <Gold.Chemscore.Internal_Hbond>
0.0000

> <Gold.Chemscore.DEClash>
1.9316

> <Gold.Chemscore.DEInternal>
5.4200

> <Gold.Chemscore.Rot>
2.6515

> <Gold.Chemscore.Internal.Correction>
   9.000000E+99

> <Gold.Chemscore.Hbonds>
donor molecule, donor type, donor heavy atom, donor atom, acceptor molecule, acceptor atom, score
      P1  H  6896  6908       L1    15  0.46
      P1  H 10752 10763       L1    10  0.08

> <Gold.Chemscore.Hbond.Weighted>
-4.5052

> <Gold.Chemscore.Metal.Weighted>
-0.0000

> <Gold.Chemscore.Lipo.Weighted>
-11.8022

> <Gold.Chemscore.Internal_Hbond.Weighted>
0.0000

> <Gold.Chemscore.DEClash.Weighted>
1.9316

> <Gold.Chemscore.DEInternal.Weighted>
5.4200

> <Gold.Chemscore.Rot.Weighted>
6.7880

> <Gold.Chemscore.Internal.Correction.Weighted>
   9.000000E+99

> <Gold.Protein.RotatedTorsions>
[ 6907 6896 6895 6894 ] final  178.72 input  -60.11 | X-H torsion
[ 7974 7965 7964 7962 ] final   52.75 input  175.53 | X-H torsion
[ 8008 7997 7996 7995 ] final   23.38 input   59.86 | X-H torsion
[ 10167 10162 10161 10158 ] final  -90.56 input  -65.29 | X-H torsion
[ 10718 10713 10712 10709 ] final  -63.48 input   66.30 | X-H torsion
[ 10763 10752 10751 10750 ] final   47.80 input  -60.55 | X-H torsion
[ 11005 11000 10999 10996 ] final  103.39 input  -57.11 | X-H torsion

> <Gold.Protein.ActiveResidues>
 VAL166  LYS551  ARG553  GLY616  TRP617  ASP618  TYR619  PRO620  LYS621  CYS622 
 ASP623  PHE694  ASN695  SER759  ASP760  ASP761  ALA762  ILE779  LEU786  VAL792 
 PHE793  MET794  SER795  GLU796  ALA797  LYS798  CYS799  TRP800  GLU811  SER814 

> <Gold.Protein.RotatedAtoms>
  151.6832  133.3311  159.3224 H   0  0  0  0  0  0  0  0  0  0  0  0  # atno 6907 bound_to 6896
  150.7813  134.6762  159.6428 H   0  0  0  0  0  0  0  0  0  0  0  0  # atno 6908 bound_to 6896
  152.3871  134.6504  160.0173 H   0  0  0  0  0  0  0  0  0  0  0  0  # atno 6909 bound_to 6896
  145.9781  139.4215  143.0149 H   0  0  0  0  0  0  0  0  0  0  0  0  # atno 7974 bound_to 7965
  154.9800  140.3101  155.4950 H   0  0  0  0  0  0  0  0  0  0  0  0  # atno 8008 bound_to 7997
  156.2954  140.2268  156.4838 H   0  0  0  0  0  0  0  0  0  0  0  0  # atno 8009 bound_to 7997
  154.7798  140.0446  157.1106 H   0  0  0  0  0  0  0  0  0  0  0  0  # atno 8010 bound_to 7997
  140.3537  143.2878  151.9696 H   0  0  0  0  0  0  0  0  0  0  0  0  # atno 10167 bound_to 10162
  156.0788  130.4221  150.1284 H   0  0  0  0  0  0  0  0  0  0  0  0  # atno 10718 bound_to 10713
  152.9797  135.5964  154.3822 H   0  0  0  0  0  0  0  0  0  0  0  0  # atno 10763 bound_to 10752
  154.3486  135.2767  155.2386 H   0  0  0  0  0  0  0  0  0  0  0  0  # atno 10764 bound_to 10752
  154.4435  135.6007  153.6200 H   0  0  0  0  0  0  0  0  0  0  0  0  # atno 10765 bound_to 10752
  139.8783  134.9261  156.5203 H   0  0  0  0  0  0  0  0  0  0  0  0  # atno 11005 bound_to 11000
  145.7809  140.9856  143.1100 LP  0  0  0  0  0  0  0  0  0  0  0  0  # atno 17320 bound_to 7965
  144.6854  139.9563  143.7479 LP  0  0  0  0  0  0  0  0  0  0  0  0  # atno 17321 bound_to 7965
  139.4823  144.6054  151.7531 LP  0  0  0  0  0  0  0  0  0  0  0  0  # atno 17342 bound_to 10162
  140.5194  144.0902  150.6018 LP  0  0  0  0  0  0  0  0  0  0  0  0  # atno 17343 bound_to 10162
  156.9319  130.9716  151.3531 LP  0  0  0  0  0  0  0  0  0  0  0  0  # atno 17370 bound_to 10713
  157.5896  130.8434  149.8639 LP  0  0  0  0  0  0  0  0  0  0  0  0  # atno 17371 bound_to 10713
  140.8455  133.8172  155.9117 LP  0  0  0  0  0  0  0  0  0  0  0  0  # atno 17394 bound_to 11000
  140.9195  134.2159  157.4935 LP  0  0  0  0  0  0  0  0  0  0  0  0  # atno 17395 bound_to 11000

$$$$
