AV-unprocessed.smi:1645|AV-procd|sdf|6616|dock3
  -GOLD-   22720 7313D 1   1.00000     0.00000
 Structure written by MMmdl.
 55 58  0  0  0  0  0  0  0  0  4 V2000
  146.6804  140.7057  153.3736 O   0  0  0  0  0  0  0  0  0  0  0  0
  147.2181  139.6086  153.1862 C   0  0  0  0  0  0  0  0  0  0  0  0
  148.4164  139.3339  153.7311 N   0  0  0  0  0  0  0  0  0  0  0  0
  149.2004  140.1138  154.6229 C   0  0  0  0  0  0  0  0  0  0  0  0
  150.3978  139.5509  155.1078 C   0  0  0  0  0  0  0  0  0  0  0  0
  151.1954  140.2743  156.0178 C   0  0  0  0  0  0  0  0  0  0  0  0
  150.7826  141.5591  156.4529 C   0  0  0  0  0  0  0  0  0  0  0  0
  151.5148  142.3567  157.3615 N   0  0  0  0  0  0  0  0  0  0  0  0
  151.2743  143.8018  157.2898 C   0  0  0  0  0  0  0  0  0  0  0  0
  152.3802  144.5946  158.0070 C   0  0  0  0  0  0  0  0  0  0  0  0
  152.5781  144.0938  159.4442 C   0  0  0  0  0  0  0  0  0  0  0  0
  152.8646  142.5864  159.4333 C   0  0  0  0  0  0  0  0  0  0  0  0
  151.7531  141.8152  158.7011 C   0  0  0  0  0  0  0  0  0  0  0  0
  149.6168  142.0507  155.9674 N   0  3  0  0  0  0  0  0  0  0  0  0
  148.8248  141.3939  155.0924 C   0  0  0  0  0  0  0  0  0  0  0  0
  146.7489  138.5720  152.4416 N   0  5  0  0  0  0  0  0  0  0  0  0
  145.4847  137.8736  152.6824 C   0  0  2  0  0  0  0  0  0  0  0  0
  145.1181  137.8468  154.1796 C   0  0  0  0  0  0  0  0  0  0  0  0
  144.4691  136.4713  154.4237 C   0  0  0  0  0  0  0  0  0  0  0  0
  144.4984  135.7822  153.1192 N   0  3  2  0  0  0  0  0  0  0  0  0
  144.5459  134.3034  153.1358 C   0  0  0  0  0  0  0  0  0  0  0  0
  144.4564  133.7752  151.6895 C   0  0  0  0  0  0  0  0  0  0  0  0
  145.5193  134.4191  150.7748 C   0  0  0  0  0  0  0  0  0  0  0  0
  145.4776  135.9577  150.8661 C   0  0  0  0  0  0  0  0  0  0  0  0
  145.5967  136.3819  152.3447 C   0  0  1  0  0  0  0  0  0  0  0  0
  148.8295  138.4602  153.4400 H   0  0  0  0  0  0  0  0  0  0  0  0
  150.7079  138.5677  154.7846 H   0  0  0  0  0  0  0  0  0  0  0  0
  152.1055  139.8177  156.3754 H   0  0  0  0  0  0  0  0  0  0  0  0
  151.2157  144.1490  156.2585 H   0  0  0  0  0  0  0  0  0  0  0  0
  150.3078  144.0159  157.7477 H   0  0  0  0  0  0  0  0  0  0  0  0
  153.3161  144.4977  157.4551 H   0  0  0  0  0  0  0  0  0  0  0  0
  152.1330  145.6565  158.0121 H   0  0  0  0  0  0  0  0  0  0  0  0
  153.3982  144.6306  159.9218 H   0  0  0  0  0  0  0  0  0  0  0  0
  151.6833  144.2967  160.0340 H   0  0  0  0  0  0  0  0  0  0  0  0
  153.8211  142.4015  158.9422 H   0  0  0  0  0  0  0  0  0  0  0  0
  152.9647  142.2165  160.4540 H   0  0  0  0  0  0  0  0  0  0  0  0
  150.8258  141.8599  159.2742 H   0  0  0  0  0  0  0  0  0  0  0  0
  152.0477  140.7673  158.6369 H   0  0  0  0  0  0  0  0  0  0  0  0
  147.9189  141.9141  154.8200 H   0  0  0  0  0  0  0  0  0  0  0  0
  144.6515  138.2969  152.1184 H   0  0  0  0  0  0  0  0  0  0  0  0
  146.0037  137.9432  154.8101 H   0  0  0  0  0  0  0  0  0  0  0  0
  144.4463  138.6667  154.4358 H   0  0  0  0  0  0  0  0  0  0  0  0
  145.0431  135.9113  155.1639 H   0  0  0  0  0  0  0  0  0  0  0  0
  143.4437  136.5538  154.7861 H   0  0  0  0  0  0  0  0  0  0  0  0
  145.4695  133.9677  153.6097 H   0  0  0  0  0  0  0  0  0  0  0  0
  143.7177  133.9169  153.7304 H   0  0  0  0  0  0  0  0  0  0  0  0
  144.5639  132.6901  151.6812 H   0  0  0  0  0  0  0  0  0  0  0  0
  143.4641  133.9884  151.2900 H   0  0  0  0  0  0  0  0  0  0  0  0
  146.5094  134.0666  151.0664 H   0  0  0  0  0  0  0  0  0  0  0  0
  145.3695  134.1002  149.7430 H   0  0  0  0  0  0  0  0  0  0  0  0
  146.2891  136.3825  150.2727 H   0  0  0  0  0  0  0  0  0  0  0  0
  144.5454  136.3208  150.4282 H   0  0  0  0  0  0  0  0  0  0  0  0
  146.5385  136.0005  152.7473 H   0  0  0  0  0  0  0  0  0  0  0  0
  143.6494  136.0507  152.6431 H   0  0  0  0  0  0  0  0  0  0  0  0
  149.3157  142.9729  156.2821 H   0  0  0  0  0  0  0  0  0  0  0  0
  1  2  2  0  0  0  0
  2  3  1  0  0  0  0
  2 16  1  0  0  0  0
  3  4  1  0  0  0  0
  3 26  1  0  0  0  0
  4 15  1  0  0  0  0
  4  5  2  0  0  0  0
  5  6  1  0  0  0  0
  5 27  1  0  0  0  0
  6  7  2  0  0  0  0
  6 28  1  0  0  0  0
  7  8  1  0  0  0  0
  7 14  1  0  0  0  0
  8 13  1  0  0  0  0
  8  9  1  0  0  0  0
  9 10  1  0  0  0  0
  9 29  1  0  0  0  0
  9 30  1  0  0  0  0
 10 11  1  0  0  0  0
 10 31  1  0  0  0  0
 10 32  1  0  0  0  0
 11 12  1  0  0  0  0
 11 33  1  0  0  0  0
 11 34  1  0  0  0  0
 12 13  1  0  0  0  0
 12 35  1  0  0  0  0
 12 36  1  0  0  0  0
 13 37  1  0  0  0  0
 13 38  1  0  0  0  0
 14 15  2  0  0  0  0
 14 55  1  0  0  0  0
 15 39  1  0  0  0  0
 16 17  1  0  0  0  0
 17 25  1  0  0  0  0
 17 18  1  0  0  0  0
 17 40  1  0  0  0  0
 18 19  1  0  0  0  0
 18 41  1  0  0  0  0
 18 42  1  0  0  0  0
 19 20  1  0  0  0  0
 19 43  1  0  0  0  0
 19 44  1  0  0  0  0
 20 25  1  0  0  0  0
 20 21  1  0  0  0  0
 20 54  1  0  0  0  0
 21 22  1  0  0  0  0
 21 45  1  0  0  0  0
 21 46  1  0  0  0  0
 22 23  1  0  0  0  0
 22 47  1  0  0  0  0
 22 48  1  0  0  0  0
 23 24  1  0  0  0  0
 23 49  1  0  0  0  0
 23 50  1  0  0  0  0
 24 25  1  0  0  0  0
 24 51  1  0  0  0  0
 24 52  1  0  0  0  0
 25 53  1  0  0  0  0
M  CHG  1  14   1
M  CHG  1  16  -1
M  CHG  1  20   1
M  END
> <s_m_source_file>
AV-unprocessed.smi

> <i_m_source_file_index>
1645

> <i_lp_mmshare_version>
43012

> <i_f3d_flags>
0

> <s_epik_input>
W0NIMl0xW0NIMl1bQ0gyXVtDSDJdW0NASF0oTjEyKVtDQEBIXShbQ0gyXVtDSDJdMilbTkhdQyg9TylbTkhdYzNbY0hdW2NIXWMobltjSF0zKU40W0NIMl1bQ0gyXVtDSDJdW0NIMl1bQ0gyXTQ=

> <s_epik_cmdline>
J2VwaWtfcHl0aG9uJywgJy1waCcsICc3LjAnLCAnLXRuJywgJzgnLCAnLW1hJywgJzIwMCcsICctbWV0YWxfYmluZGluZycsICctaW1hZScsICc8aW5maWxlLm1hZT4nLCAnLW9tYWUnLCAnPG91dGZpbGUubWFlPic=

> <r_lp_tautomer_probability>
0.999994

> <r_epik_Ionization_Penalty>
8.55589

> <r_epik_Ionization_Penalty_Charging>
8.55589

> <r_epik_Ionization_Penalty_Neutral>
3.8092e-06

> <r_epik_State_Penalty>
8.15703

> <r_epik_Charging_Adjusted_Penalty>
16.7129

> <i_epik_Tot_Q>
1

> <i_epik_Tot_abs_Q>
3

> <r_epik_Metal_State_Penalty>
4.13781

> <b_epik_Metal_Only>
1

> <s_lp_Force_Field>
OPLS_2005

> <r_lp_Energy>
51.6627

> <b_lp_Chiralities_Consistent>
1

> <s_lp_Variant>
AV-unprocessed.smi:1645-17

> <Gold.Version>
5.8.1

> <Gold.Id.Protein>
6NUR|6NUR_protein|mol2

> <Gold.PLP.Fitness>
49.1164

> <Gold.PLP.PLP>
-45.1560

> <Gold.PLP.part.hbond>
-2.0000

> <Gold.PLP.part.metal>
0.0000

> <Gold.PLP.part.buried>
-2.4829

> <Gold.PLP.part.nonpolar>
-42.7325

> <Gold.PLP.part.repulsive>
0.7447

> <Gold.PLP.ligand.clash>
0.0006

> <Gold.PLP.ligand.torsion>
1.2644

> <Gold.PLP.Chemscore.Hbond>
1.9840

> <Gold.PLP.Chemscore.CHOScore>
0.0000

> <Gold.PLP.Chemscore.Metal>
0.0000

> <Gold.Chemscore.Hbonds>
donor molecule, donor type, donor heavy atom, donor atom, acceptor molecule, acceptor atom, score
      L1  H    14    55       P1  8028  1.73

> <Gold.PLP.Chemscore.Internal.Correction>
0.5377

> <Gold.Rescore>
     Score         DG    S(hbond)    S(metal)    S(lipo)     H(rot)  DE(clash)    DE(int)     intcor
     16.45     -19.62       0.92        0.00     120.22       1.17       0.65       2.52       ----

> <Gold.Chemscore.Fitness>
16.4534

> <Gold.Chemscore.DG>
-19.6215

> <Gold.Chemscore.ZeroCoef>
-5.4800

> <Gold.Chemscore.Hbond>
0.9219

> <Gold.Chemscore.Metal>
0.0000

> <Gold.Chemscore.Lipo>
120.2184

> <Gold.Chemscore.Internal_Hbond>
0.0000

> <Gold.Chemscore.DEClash>
0.6479

> <Gold.Chemscore.DEInternal>
2.5202

> <Gold.Chemscore.Rot>
1.1731

> <Gold.Chemscore.Internal.Correction>
   9.000000E+99

> <Gold.Chemscore.Hbonds>
donor molecule, donor type, donor heavy atom, donor atom, acceptor molecule, acceptor atom, score
      L1  H    14    55       P1  8028  0.85

> <Gold.Chemscore.Hbond.Weighted>
-3.0792

> <Gold.Chemscore.Metal.Weighted>
-0.0000

> <Gold.Chemscore.Lipo.Weighted>
-14.0656

> <Gold.Chemscore.Internal_Hbond.Weighted>
0.0000

> <Gold.Chemscore.DEClash.Weighted>
0.6479

> <Gold.Chemscore.DEInternal.Weighted>
2.5202

> <Gold.Chemscore.Rot.Weighted>
3.0032

> <Gold.Chemscore.Internal.Correction.Weighted>
   9.000000E+99

> <Gold.Protein.RotatedTorsions>
[ 6907 6896 6895 6894 ] final   65.25 input  -60.11 | X-H torsion
[ 7974 7965 7964 7962 ] final   14.34 input  175.53 | X-H torsion
[ 8008 7997 7996 7995 ] final -179.17 input   59.86 | X-H torsion
[ 10167 10162 10161 10158 ] final  -83.39 input  -65.29 | X-H torsion
[ 10718 10713 10712 10709 ] final  -94.66 input   66.30 | X-H torsion
[ 10763 10752 10751 10750 ] final  -67.06 input  -60.55 | X-H torsion
[ 11005 11000 10999 10996 ] final -175.95 input  -57.11 | X-H torsion

> <Gold.Protein.ActiveResidues>
 VAL166  LYS551  ARG553  GLY616  TRP617  ASP618  TYR619  PRO620  LYS621  CYS622 
 ASP623  PHE694  ASN695  SER759  ASP760  ASP761  ALA762  ILE779  LEU786  VAL792 
 PHE793  MET794  SER795  GLU796  ALA797  LYS798  CYS799  TRP800  GLU811  SER814 

> <Gold.Protein.RotatedAtoms>
  152.4393  134.5622  159.9897 H   0  0  0  0  0  0  0  0  0  0  0  0  # atno 6907 bound_to 6896
  151.5724  133.3382  159.3000 H   0  0  0  0  0  0  0  0  0  0  0  0  # atno 6908 bound_to 6896
  150.8297  134.7578  159.6907 H   0  0  0  0  0  0  0  0  0  0  0  0  # atno 6909 bound_to 6896
  146.2307  139.9055  142.8532 H   0  0  0  0  0  0  0  0  0  0  0  0  # atno 7974 bound_to 7965
  156.0274  140.1274  157.0294 H   0  0  0  0  0  0  0  0  0  0  0  0  # atno 8008 bound_to 7997
  154.4336  140.1056  156.6120 H   0  0  0  0  0  0  0  0  0  0  0  0  # atno 8009 bound_to 7997
  155.5857  140.3468  155.4554 H   0  0  0  0  0  0  0  0  0  0  0  0  # atno 8010 bound_to 7997
  140.4231  143.2577  151.8862 H   0  0  0  0  0  0  0  0  0  0  0  0  # atno 10167 bound_to 10162
  156.0030  130.5077  150.5960 H   0  0  0  0  0  0  0  0  0  0  0  0  # atno 10718 bound_to 10713
  154.3690  135.6099  153.5730 H   0  0  0  0  0  0  0  0  0  0  0  0  # atno 10763 bound_to 10752
  152.9791  135.5833  154.4544 H   0  0  0  0  0  0  0  0  0  0  0  0  # atno 10764 bound_to 10752
  154.4295  135.2847  155.1900 H   0  0  0  0  0  0  0  0  0  0  0  0  # atno 10765 bound_to 10752
  140.4575  134.6285  157.4828 H   0  0  0  0  0  0  0  0  0  0  0  0  # atno 11005 bound_to 11000
  145.2281  140.9962  143.4007 LP  0  0  0  0  0  0  0  0  0  0  0  0  # atno 17320 bound_to 7965
  144.9554  139.4037  143.6382 LP  0  0  0  0  0  0  0  0  0  0  0  0  # atno 17321 bound_to 7965
  139.4783  144.5415  151.8520 LP  0  0  0  0  0  0  0  0  0  0  0  0  # atno 17342 bound_to 10162
  140.4511  144.1854  150.5897 LP  0  0  0  0  0  0  0  0  0  0  0  0  # atno 17343 bound_to 10162
  157.3817  131.0782  151.1471 LP  0  0  0  0  0  0  0  0  0  0  0  0  # atno 17370 bound_to 10713
  157.2191  130.6473  149.5804 LP  0  0  0  0  0  0  0  0  0  0  0  0  # atno 17371 bound_to 10713
  139.9966  134.6901  155.9599 LP  0  0  0  0  0  0  0  0  0  0  0  0  # atno 17394 bound_to 11000
  141.1636  133.6537  156.4403 LP  0  0  0  0  0  0  0  0  0  0  0  0  # atno 17395 bound_to 11000

$$$$
