AV-unprocessed.smi:49|AV-procd|sdf|490|dock10
  -GOLD-   2262016353D 1   1.00000     0.00000
 Structure written by MMmdl.
 26 27  0  0  0  0  0  0  0  0  2 V2000
  152.7729  142.8368  160.2017 C   0  0  0  0  0  0  0  0  0  0  0  0
  153.2163  141.4661  159.6806 C   0  0  0  0  0  0  0  0  0  0  0  0
  152.5309  141.1010  158.3821 C   0  0  0  0  0  0  0  0  0  0  0  0
  151.6370  141.8444  157.7377 N   0  0  0  0  0  0  0  0  0  0  0  0
  151.3163  141.1565  156.6327 C   0  0  0  0  0  0  0  0  0  0  0  0
  150.3424  141.6504  155.5780 C   0  0  1  0  0  0  0  0  0  0  0  0
  150.1357  140.6124  154.4599 C   0  0  0  0  0  0  0  0  0  0  0  0
  148.7048  140.1255  154.6659 C   0  0  2  0  0  0  0  0  0  0  0  0
  148.0978  139.6771  153.4726 O   0  0  0  0  0  0  0  0  0  0  0  0
  148.0227  141.3615  155.2372 C   0  0  0  0  0  0  0  0  0  0  0  0
  149.0146  141.9442  156.1295 N   0  0  0  0  0  0  0  0  0  0  0  0
  152.0184  140.0132  156.5674 N   0  0  0  0  0  0  0  0  0  0  0  0
  152.7625  139.9945  157.6544 N   0  5  0  0  0  0  0  0  0  0  0  0
  150.7617  142.5570  155.1404 H   0  0  0  0  0  0  0  0  0  0  0  0
  148.6906  139.3225  155.4047 H   0  0  0  0  0  0  0  0  0  0  0  0
  153.2787  143.0800  161.1361 H   0  0  0  0  0  0  0  0  0  0  0  0
  151.6987  142.8560  160.3877 H   0  0  0  0  0  0  0  0  0  0  0  0
  153.0027  143.6227  159.4819 H   0  0  0  0  0  0  0  0  0  0  0  0
  154.2952  141.4582  159.5236 H   0  0  0  0  0  0  0  0  0  0  0  0
  153.0003  140.6968  160.4222 H   0  0  0  0  0  0  0  0  0  0  0  0
  150.2208  141.1132  153.4943 H   0  0  0  0  0  0  0  0  0  0  0  0
  150.8656  139.8017  154.4731 H   0  0  0  0  0  0  0  0  0  0  0  0
  148.6141  139.9831  152.7428 H   0  0  0  0  0  0  0  0  0  0  0  0
  147.7934  142.0647  154.4354 H   0  0  0  0  0  0  0  0  0  0  0  0
  147.0926  141.1289  155.7562 H   0  0  0  0  0  0  0  0  0  0  0  0
  148.8735  142.9479  156.1735 H   0  0  0  0  0  0  0  0  0  0  0  0
  1  2  1  0  0  0  0
  1 16  1  0  0  0  0
  1 17  1  0  0  0  0
  1 18  1  0  0  0  0
  2  3  1  0  0  0  0
  2 19  1  0  0  0  0
  2 20  1  0  0  0  0
  3 13  1  0  0  0  0
  3  4  2  0  0  0  0
  4  5  1  0  0  0  0
  5  6  1  0  0  0  0
  5 12  2  0  0  0  0
  6 14  1  0  0  0  0
  6 11  1  0  0  0  0
  6  7  1  0  0  0  0
  7  8  1  0  0  0  0
  7 21  1  0  0  0  0
  7 22  1  0  0  0  0
  8 15  1  0  0  0  0
  8  9  1  0  0  0  0
  8 10  1  0  0  0  0
  9 23  1  0  0  0  0
 10 11  1  0  0  0  0
 10 24  1  0  0  0  0
 10 25  1  0  0  0  0
 11 26  1  0  0  0  0
 12 13  1  0  0  0  0
M  CHG  1  13  -1
M  END
> <s_m_source_file>
AV-unprocessed.smi

> <i_m_source_file_index>
49

> <i_lp_mmshare_version>
43012

> <i_f3d_flags>
0

> <s_epik_input>
W0NIM11bQ0gyXWMxbmMobltuSF0xKVtDQEBIXTJbQ0gyXVtDQEBIXShbT0hdKVtDSDJdW05IXTI=

> <s_epik_cmdline>
J2VwaWtfcHl0aG9uJywgJy1waCcsICc3LjAnLCAnLXRuJywgJzgnLCAnLW1hJywgJzIwMCcsICctbWV0YWxfYmluZGluZycsICctaW1hZScsICc8aW5maWxlLm1hZT4nLCAnLW9tYWUnLCAnPG91dGZpbGUubWFlPic=

> <r_lp_tautomer_probability>
0.948284

> <r_epik_Ionization_Penalty>
20.726

> <r_epik_Ionization_Penalty_Charging>
17.6814

> <r_epik_Ionization_Penalty_Neutral>
3.04463

> <r_epik_State_Penalty>
7.95092

> <r_epik_Charging_Adjusted_Penalty>
25.6323

> <i_epik_Tot_Q>
-1

> <i_epik_Tot_abs_Q>
1

> <r_epik_Metal_State_Penalty>
4.146

> <b_epik_Metal_Only>
1

> <s_lp_Force_Field>
OPLS_2005

> <r_lp_Energy>
18.0563

> <b_lp_Chiralities_Consistent>
1

> <s_lp_Variant>
AV-unprocessed.smi:49-28

> <Gold.Version>
5.8.1

> <Gold.Id.Protein>
6NUR|6NUR_protein|mol2

> <Gold.PLP.Fitness>
34.5738

> <Gold.PLP.PLP>
-22.6482

> <Gold.PLP.part.hbond>
-3.0561

> <Gold.PLP.part.metal>
0.0000

> <Gold.PLP.part.buried>
-0.3844

> <Gold.PLP.part.nonpolar>
-17.7184

> <Gold.PLP.part.repulsive>
0.0237

> <Gold.PLP.ligand.clash>
0.0000

> <Gold.PLP.ligand.torsion>
0.0446

> <Gold.PLP.Chemscore.Hbond>
4.0000

> <Gold.PLP.Chemscore.CHOScore>
0.0000

> <Gold.PLP.Chemscore.Metal>
0.0000

> <Gold.Chemscore.Hbonds>
donor molecule, donor type, donor heavy atom, donor atom, acceptor molecule, acceptor atom, score
      L1  H     9    23       P1  7957  1.00
      L1  H    11    26       P1  8028  1.00
      P1  H  7997  8010       L1    13  1.95

> <Gold.PLP.Chemscore.Internal.Correction>
0.0149

> <Gold.Rescore>
     Score         DG    S(hbond)    S(metal)    S(lipo)     H(rot)  DE(clash)    DE(int)     intcor
     12.70     -14.28       2.31        0.00      49.12       1.82       1.57       0.02       ----

> <Gold.Chemscore.Fitness>
12.6954

> <Gold.Chemscore.DG>
-14.2850

> <Gold.Chemscore.ZeroCoef>
-5.4800

> <Gold.Chemscore.Hbond>
2.3125

> <Gold.Chemscore.Metal>
0.0000

> <Gold.Chemscore.Lipo>
49.1189

> <Gold.Chemscore.Internal_Hbond>
0.0000

> <Gold.Chemscore.DEClash>
1.5690

> <Gold.Chemscore.DEInternal>
0.0207

> <Gold.Chemscore.Rot>
1.8226

> <Gold.Chemscore.Internal.Correction>
   9.000000E+99

> <Gold.Chemscore.Hbonds>
donor molecule, donor type, donor heavy atom, donor atom, acceptor molecule, acceptor atom, score
      L1  H     9    23       P1  7957  1.00
      L1  H    11    26       P1  8028  0.99
      P1  H  7997  8010       L1    13  0.29

> <Gold.Chemscore.Hbond.Weighted>
-7.7239

> <Gold.Chemscore.Metal.Weighted>
-0.0000

> <Gold.Chemscore.Lipo.Weighted>
-5.7469

> <Gold.Chemscore.Internal_Hbond.Weighted>
0.0000

> <Gold.Chemscore.DEClash.Weighted>
1.5690

> <Gold.Chemscore.DEInternal.Weighted>
0.0207

> <Gold.Chemscore.Rot.Weighted>
4.6658

> <Gold.Chemscore.Internal.Correction.Weighted>
   9.000000E+99

> <Gold.Protein.RotatedTorsions>
[ 6907 6896 6895 6894 ] final  108.35 input  -60.11 | X-H torsion
[ 7974 7965 7964 7962 ] final   50.73 input  175.53 | X-H torsion
[ 8008 7997 7996 7995 ] final   35.35 input   59.86 | X-H torsion
[ 10167 10162 10161 10158 ] final  -91.26 input  -65.29 | X-H torsion
[ 10718 10713 10712 10709 ] final  179.77 input   66.30 | X-H torsion
[ 10763 10752 10751 10750 ] final  -67.22 input  -60.55 | X-H torsion
[ 11005 11000 10999 10996 ] final -126.17 input  -57.11 | X-H torsion

> <Gold.Protein.ActiveResidues>
 VAL166  LYS551  ARG553  GLY616  TRP617  ASP618  TYR619  PRO620  LYS621  CYS622 
 ASP623  PHE694  ASN695  SER759  ASP760  ASP761  ALA762  ILE779  LEU786  VAL792 
 PHE793  MET794  SER795  GLU796  ALA797  LYS798  CYS799  TRP800  GLU811  SER814 

> <Gold.Protein.RotatedAtoms>
  152.5116  133.9101  159.7483 H   0  0  0  0  0  0  0  0  0  0  0  0  # atno 6907 bound_to 6896
  150.9497  133.6555  159.2781 H   0  0  0  0  0  0  0  0  0  0  0  0  # atno 6908 bound_to 6896
  151.3838  135.0949  159.9557 H   0  0  0  0  0  0  0  0  0  0  0  0  # atno 6909 bound_to 6896
  145.9983  139.4412  143.0030 H   0  0  0  0  0  0  0  0  0  0  0  0  # atno 7974 bound_to 7965
  155.1697  140.3290  155.4395 H   0  0  0  0  0  0  0  0  0  0  0  0  # atno 8008 bound_to 7997
  156.2514  140.1945  156.6751 H   0  0  0  0  0  0  0  0  0  0  0  0  # atno 8009 bound_to 7997
  154.6346  140.0578  156.9760 H   0  0  0  0  0  0  0  0  0  0  0  0  # atno 8010 bound_to 7997
  140.3466  143.2913  151.9774 H   0  0  0  0  0  0  0  0  0  0  0  0  # atno 10167 bound_to 10162
  156.8709  130.9783  151.3073 H   0  0  0  0  0  0  0  0  0  0  0  0  # atno 10718 bound_to 10713
  154.3712  135.6094  153.5741 H   0  0  0  0  0  0  0  0  0  0  0  0  # atno 10763 bound_to 10752
  152.9790  135.5838  154.4519 H   0  0  0  0  0  0  0  0  0  0  0  0  # atno 10764 bound_to 10752
  154.4273  135.2847  155.1913 H   0  0  0  0  0  0  0  0  0  0  0  0  # atno 10765 bound_to 10752
  140.9703  134.0815  157.3877 H   0  0  0  0  0  0  0  0  0  0  0  0  # atno 11005 bound_to 11000
  145.7526  140.9967  143.1242 LP  0  0  0  0  0  0  0  0  0  0  0  0  # atno 17320 bound_to 7965
  144.6911  139.9232  143.7469 LP  0  0  0  0  0  0  0  0  0  0  0  0  # atno 17321 bound_to 7965
  139.4832  144.6111  151.7431 LP  0  0  0  0  0  0  0  0  0  0  0  0  # atno 17342 bound_to 10162
  140.5258  144.0807  150.6037 LP  0  0  0  0  0  0  0  0  0  0  0  0  # atno 17343 bound_to 10162
  157.6196  130.8645  149.9087 LP  0  0  0  0  0  0  0  0  0  0  0  0  # atno 17370 bound_to 10713
  156.0727  130.3683  150.0742 LP  0  0  0  0  0  0  0  0  0  0  0  0  # atno 17371 bound_to 10713
  139.8910  135.0115  156.6765 LP  0  0  0  0  0  0  0  0  0  0  0  0  # atno 17394 bound_to 11000
  140.7339  133.9035  155.8230 LP  0  0  0  0  0  0  0  0  0  0  0  0  # atno 17395 bound_to 11000

$$$$
