AV-unprocessed.smi:1154|AV-procd|sdf|4902|dock2
  -GOLD-   22720 3473D 1   1.00000     0.00000
 Structure written by MMmdl.
 42 43  0  0  0  0  0  0  0  0  2 V2000
  145.3854  132.1784  150.1861 C   0  0  0  0  0  0  0  0  0  0  0  0
  145.4538  133.1258  151.3922 C   0  0  2  0  0  0  0  0  0  0  0  0
  144.2348  134.0642  151.4353 C   0  0  0  0  0  0  0  0  0  0  0  0
  144.3329  135.0438  152.6180 C   0  0  2  0  0  0  0  0  0  0  0  0
  143.1347  136.0029  152.6520 C   0  0  0  0  0  0  0  0  0  0  0  0
  145.6683  135.8147  152.5570 C   0  0  0  0  0  0  0  0  0  0  0  0
  146.8416  134.9023  152.5272 N   0  3  1  0  0  0  0  0  0  0  0  0
  147.1449  134.2860  153.8471 C   0  0  0  0  0  0  0  0  0  0  0  0
  147.5396  135.3267  154.9073 C   0  0  0  0  0  0  0  0  0  0  0  0
  148.1983  136.4649  154.2820 N   0  0  0  0  0  0  0  0  0  0  0  0
  148.8936  137.3978  154.9498 C   0  0  0  0  0  0  0  0  0  0  0  0
  149.0332  137.3883  156.1722 O   0  0  0  0  0  0  0  0  0  0  0  0
  149.5225  138.5165  154.1167 C   0  0  0  0  0  0  0  0  0  0  0  0
  150.9308  138.6806  154.4267 N   0  0  0  0  0  0  0  0  0  0  0  0
  151.9694  137.8622  154.2463 C   0  0  0  0  0  0  0  0  0  0  0  0
  153.0970  138.3984  154.6869 N   0  0  0  0  0  0  0  0  0  0  0  0
  152.6928  139.6350  155.1619 N   0  0  0  0  0  0  0  0  0  0  0  0
  151.4085  139.8083  155.0098 N   0  0  0  0  0  0  0  0  0  0  0  0
  146.7631  133.9455  151.3891 C   0  0  0  0  0  0  0  0  0  0  0  0
  145.3900  132.7307  149.2456 H   0  0  0  0  0  0  0  0  0  0  0  0
  144.4774  131.5753  150.2124 H   0  0  0  0  0  0  0  0  0  0  0  0
  146.2340  131.4938  150.1743 H   0  0  0  0  0  0  0  0  0  0  0  0
  145.4335  132.5022  152.2864 H   0  0  0  0  0  0  0  0  0  0  0  0
  144.1674  134.6229  150.5003 H   0  0  0  0  0  0  0  0  0  0  0  0
  143.3178  133.4783  151.5119 H   0  0  0  0  0  0  0  0  0  0  0  0
  144.3085  134.4649  153.5422 H   0  0  0  0  0  0  0  0  0  0  0  0
  143.0925  136.6190  151.7533 H   0  0  0  0  0  0  0  0  0  0  0  0
  143.1909  136.6714  153.5118 H   0  0  0  0  0  0  0  0  0  0  0  0
  142.1949  135.4545  152.7237 H   0  0  0  0  0  0  0  0  0  0  0  0
  145.6932  136.4316  151.6574 H   0  0  0  0  0  0  0  0  0  0  0  0
  145.7535  136.5054  153.3971 H   0  0  0  0  0  0  0  0  0  0  0  0
  146.2546  133.7672  154.2057 H   0  0  0  0  0  0  0  0  0  0  0  0
  147.9193  133.5254  153.7502 H   0  0  0  0  0  0  0  0  0  0  0  0
  146.6669  135.6954  155.4462 H   0  0  0  0  0  0  0  0  0  0  0  0
  148.2057  134.8712  155.6423 H   0  0  0  0  0  0  0  0  0  0  0  0
  148.1255  136.5484  153.2783 H   0  0  0  0  0  0  0  0  0  0  0  0
  149.4167  138.2902  153.0550 H   0  0  0  0  0  0  0  0  0  0  0  0
  149.0056  139.4599  154.2991 H   0  0  0  0  0  0  0  0  0  0  0  0
  151.8995  136.8803  153.8016 H   0  0  0  0  0  0  0  0  0  0  0  0
  147.6279  133.2834  151.3815 H   0  0  0  0  0  0  0  0  0  0  0  0
  146.8245  134.5220  150.4648 H   0  0  0  0  0  0  0  0  0  0  0  0
  147.6343  135.4983  152.3349 H   0  0  0  0  0  0  0  0  0  0  0  0
  1  2  1  0  0  0  0
  1 20  1  0  0  0  0
  1 21  1  0  0  0  0
  1 22  1  0  0  0  0
  2 19  1  0  0  0  0
  2  3  1  0  0  0  0
  2 23  1  0  0  0  0
  3  4  1  0  0  0  0
  3 24  1  0  0  0  0
  3 25  1  0  0  0  0
  4  5  1  0  0  0  0
  4  6  1  0  0  0  0
  4 26  1  0  0  0  0
  5 27  1  0  0  0  0
  5 28  1  0  0  0  0
  5 29  1  0  0  0  0
  6  7  1  0  0  0  0
  6 30  1  0  0  0  0
  6 31  1  0  0  0  0
  7  8  1  0  0  0  0
  7 19  1  0  0  0  0
  7 42  1  0  0  0  0
  8  9  1  0  0  0  0
  8 32  1  0  0  0  0
  8 33  1  0  0  0  0
  9 10  1  0  0  0  0
  9 34  1  0  0  0  0
  9 35  1  0  0  0  0
 10 11  1  0  0  0  0
 10 36  1  0  0  0  0
 11 12  2  0  0  0  0
 11 13  1  0  0  0  0
 13 14  1  0  0  0  0
 13 37  1  0  0  0  0
 13 38  1  0  0  0  0
 14 18  1  0  0  0  0
 14 15  1  0  0  0  0
 15 16  2  0  0  0  0
 15 39  1  0  0  0  0
 16 17  1  0  0  0  0
 17 18  2  0  0  0  0
 19 40  1  0  0  0  0
 19 41  1  0  0  0  0
M  CHG  1   7   1
M  END
> <s_m_source_file>
AV-unprocessed.smi

> <i_m_source_file_index>
1154

> <i_lp_mmshare_version>
43012

> <i_f3d_flags>
0

> <s_epik_input>
W0NIM11bQ0BASF0xW0NIMl1bQ0BASF0oW0NIM10pW0NIMl1OKFtDSDJdMSlbQ0gyXVtDSDJdW05IXUMoPU8pW0NIMl1uMltjSF1ubm4y

> <s_epik_cmdline>
J2VwaWtfcHl0aG9uJywgJy1waCcsICc3LjAnLCAnLXRuJywgJzgnLCAnLW1hJywgJzIwMCcsICctbWV0YWxfYmluZGluZycsICctaW1hZScsICc8aW5maWxlLm1hZT4nLCAnLW9tYWUnLCAnPG91dGZpbGUubWFlPic=

> <r_lp_tautomer_probability>
1

> <r_epik_Ionization_Penalty>
0.00217773

> <r_epik_Ionization_Penalty_Charging>
0.00217329

> <r_epik_Ionization_Penalty_Neutral>
4.43997e-06

> <r_epik_State_Penalty>
0.00149294

> <r_epik_Charging_Adjusted_Penalty>
0.00366623

> <i_epik_Tot_Q>
1

> <i_epik_Tot_abs_Q>
1

> <r_epik_Metal_State_Penalty>
-0

> <b_epik_Metal_Only>
0

> <s_lp_Force_Field>
OPLS_2005

> <r_lp_Energy>
22.2263

> <b_lp_Chiralities_Consistent>
1

> <s_lp_Variant>
AV-unprocessed.smi:1154-3

> <Gold.Version>
5.8.1

> <Gold.Id.Protein>
6NUR|6NUR_protein|mol2

> <Gold.PLP.Fitness>
45.4481

> <Gold.PLP.PLP>
-29.2477

> <Gold.PLP.part.hbond>
-5.4368

> <Gold.PLP.part.metal>
0.0000

> <Gold.PLP.part.buried>
-4.2725

> <Gold.PLP.part.nonpolar>
-19.7449

> <Gold.PLP.part.repulsive>
0.1132

> <Gold.PLP.ligand.clash>
0.0000

> <Gold.PLP.ligand.torsion>
0.4201

> <Gold.PLP.Chemscore.Hbond>
4.6480

> <Gold.PLP.Chemscore.CHOScore>
1.0000

> <Gold.PLP.Chemscore.Metal>
0.0000

> <Gold.Chemscore.Hbonds>
donor molecule, donor type, donor heavy atom, donor atom, acceptor molecule, acceptor atom, score
      L1  H     7    42       P1  7948  2.00
      L1  H    10    36       P1  7948  0.83
      P1  H  7989  7998       L1    18  0.60
      P1  H  7997  8008       L1    17  0.95
      L1  C    15    39       P1  7949  0.88

> <Gold.PLP.Chemscore.Internal.Correction>
0.0967

> <Gold.Rescore>
     Score         DG    S(hbond)    S(metal)    S(lipo)     H(rot)  DE(clash)    DE(int)     intcor
     15.40     -17.03       3.73        0.00      50.76       2.67       1.20       0.43       ----

> <Gold.Chemscore.Fitness>
15.4048

> <Gold.Chemscore.DG>
-17.0327

> <Gold.Chemscore.ZeroCoef>
-5.4800

> <Gold.Chemscore.Hbond>
3.7252

> <Gold.Chemscore.Metal>
0.0000

> <Gold.Chemscore.Lipo>
50.7618

> <Gold.Chemscore.Internal_Hbond>
0.0000

> <Gold.Chemscore.DEClash>
1.1964

> <Gold.Chemscore.DEInternal>
0.4314

> <Gold.Chemscore.Rot>
2.6674

> <Gold.Chemscore.Internal.Correction>
   9.000000E+99

> <Gold.Chemscore.Hbonds>
donor molecule, donor type, donor heavy atom, donor atom, acceptor molecule, acceptor atom, score
      L1  H     7    42       P1  7948  0.96
      L1  H    10    36       P1  7948  0.83
      P1  H  7989  7998       L1    18  0.01
      P1  H  7997  8008       L1    17  0.21

> <Gold.Chemscore.Hbond.Weighted>
-12.4422

> <Gold.Chemscore.Metal.Weighted>
-0.0000

> <Gold.Chemscore.Lipo.Weighted>
-5.9391

> <Gold.Chemscore.Internal_Hbond.Weighted>
0.0000

> <Gold.Chemscore.DEClash.Weighted>
1.1964

> <Gold.Chemscore.DEInternal.Weighted>
0.4314

> <Gold.Chemscore.Rot.Weighted>
6.8286

> <Gold.Chemscore.Internal.Correction.Weighted>
   9.000000E+99

> <Gold.Protein.RotatedTorsions>
[ 6907 6896 6895 6894 ] final  141.48 input  -60.11 | X-H torsion
[ 7974 7965 7964 7962 ] final -154.75 input  175.53 | X-H torsion
[ 8008 7997 7996 7995 ] final  -31.10 input   59.86 | X-H torsion
[ 10167 10162 10161 10158 ] final  -81.16 input  -65.29 | X-H torsion
[ 10718 10713 10712 10709 ] final  -70.75 input   66.30 | X-H torsion
[ 10763 10752 10751 10750 ] final  -32.89 input  -60.55 | X-H torsion
[ 11005 11000 10999 10996 ] final  -53.13 input  -57.11 | X-H torsion

> <Gold.Protein.ActiveResidues>
 VAL166  LYS551  ARG553  GLY616  TRP617  ASP618  TYR619  PRO620  LYS621  CYS622 
 ASP623  PHE694  ASN695  SER759  ASP760  ASP761  ALA762  ILE779  LEU786  VAL792 
 PHE793  MET794  SER795  GLU796  ALA797  LYS798  CYS799  TRP800  GLU811  SER814 

> <Gold.Protein.RotatedAtoms>
  152.2305  133.5054  159.5212 H   0  0  0  0  0  0  0  0  0  0  0  0  # atno 6907 bound_to 6896
  150.7036  134.1223  159.4048 H   0  0  0  0  0  0  0  0  0  0  0  0  # atno 6908 bound_to 6896
  151.9144  135.0325  160.0568 H   0  0  0  0  0  0  0  0  0  0  0  0  # atno 6909 bound_to 6896
  144.7674  140.4344  143.5932 H   0  0  0  0  0  0  0  0  0  0  0  0  # atno 7974 bound_to 7965
  154.4226  140.1773  156.1513 H   0  0  0  0  0  0  0  0  0  0  0  0  # atno 8008 bound_to 7997
  155.9913  140.3368  155.6731 H   0  0  0  0  0  0  0  0  0  0  0  0  # atno 8009 bound_to 7997
  155.6369  140.0676  157.2622 H   0  0  0  0  0  0  0  0  0  0  0  0  # atno 8010 bound_to 7997
  140.4437  143.2506  151.8588 H   0  0  0  0  0  0  0  0  0  0  0  0  # atno 10167 bound_to 10162
  156.0394  130.4337  150.2341 H   0  0  0  0  0  0  0  0  0  0  0  0  # atno 10718 bound_to 10713
  153.8211  135.6874  153.4827 H   0  0  0  0  0  0  0  0  0  0  0  0  # atno 10763 bound_to 10752
  153.1568  135.4595  154.9714 H   0  0  0  0  0  0  0  0  0  0  0  0  # atno 10764 bound_to 10752
  154.7927  135.3307  154.7683 H   0  0  0  0  0  0  0  0  0  0  0  0  # atno 10765 bound_to 10752
  141.0960  133.6624  156.4127 H   0  0  0  0  0  0  0  0  0  0  0  0  # atno 11005 bound_to 11000
  145.6429  139.1553  143.2905 LP  0  0  0  0  0  0  0  0  0  0  0  0  # atno 17320 bound_to 7965
  146.1792  140.6524  142.9197 LP  0  0  0  0  0  0  0  0  0  0  0  0  # atno 17321 bound_to 7965
  139.4791  144.5199  151.8816 LP  0  0  0  0  0  0  0  0  0  0  0  0  # atno 17342 bound_to 10162
  140.4288  144.2144  150.5887 LP  0  0  0  0  0  0  0  0  0  0  0  0  # atno 17343 bound_to 10162
  157.0438  131.0043  151.3275 LP  0  0  0  0  0  0  0  0  0  0  0  0  # atno 17370 bound_to 10713
  157.5190  130.7986  149.7788 LP  0  0  0  0  0  0  0  0  0  0  0  0  # atno 17371 bound_to 10713
  140.5138  134.6370  157.5294 LP  0  0  0  0  0  0  0  0  0  0  0  0  # atno 17394 bound_to 11000
  139.9797  134.7157  155.9882 LP  0  0  0  0  0  0  0  0  0  0  0  0  # atno 17395 bound_to 11000

$$$$
