AV-unprocessed.smi:3234|AV-procd|sdf|12349|dock8
  -GOLD-   2272018213D 1   1.00000     0.00000
 Structure written by MMmdl.
 37 39  0  0  0  0  0  0  0  0  2 V2000
  144.2870  136.2780  151.8244 O   0  0  0  0  0  0  0  0  0  0  0  0
  145.5067  136.1335  151.8964 C   0  0  0  0  0  0  0  0  0  0  0  0
  146.2059  135.0912  151.4136 N   0  0  0  0  0  0  0  0  0  0  0  0
  145.7452  133.9241  150.7426 C   0  0  0  0  0  0  0  0  0  0  0  0
  144.3946  133.9030  150.3366 C   0  0  0  0  0  0  0  0  0  0  0  0
  143.9036  132.7688  149.6600 C   0  0  0  0  0  0  0  0  0  0  0  0
  144.6628  131.6914  149.3720 N   0  0  0  0  0  0  0  0  0  0  0  0
  145.9571  131.7147  149.7536 C   0  0  0  0  0  0  0  0  0  0  0  0
  146.5478  132.7984  150.4344 C   0  0  0  0  0  0  0  0  0  0  0  0
  146.3171  137.0324  152.4737 N   0  0  0  0  0  0  0  0  0  0  0  0
  145.8733  138.2670  153.1134 C   0  0  1  0  0  0  0  0  0  0  0  0
  146.1732  138.3182  154.6115 C   0  0  0  0  0  0  0  0  0  0  0  0
  146.3408  139.8159  154.9216 C   0  0  0  0  0  0  0  0  0  0  0  0
  146.3511  140.5263  153.6213 N   0  3  1  0  0  0  0  0  0  0  0  0
  147.2727  141.6805  153.5632 C   0  0  0  0  0  0  0  0  0  0  0  0
  148.6086  141.4197  154.2169 C   0  0  0  0  0  0  0  0  0  0  0  0
  147.5767  142.2778  154.9163 C   0  0  0  0  0  0  0  0  0  0  0  0
  146.5960  139.5071  152.5867 C   0  0  0  0  0  0  0  0  0  0  0  0
  147.2079  135.1497  151.5201 H   0  0  0  0  0  0  0  0  0  0  0  0
  143.7402  134.7383  150.5389 H   0  0  0  0  0  0  0  0  0  0  0  0
  142.8728  132.7275  149.3405 H   0  0  0  0  0  0  0  0  0  0  0  0
  146.5437  130.8427  149.5051 H   0  0  0  0  0  0  0  0  0  0  0  0
  147.5932  132.7393  150.6910 H   0  0  0  0  0  0  0  0  0  0  0  0
  147.3082  136.8401  152.4880 H   0  0  0  0  0  0  0  0  0  0  0  0
  144.7978  138.3871  152.9665 H   0  0  0  0  0  0  0  0  0  0  0  0
  145.3863  137.8538  155.2069 H   0  0  0  0  0  0  0  0  0  0  0  0
  147.1059  137.7965  154.8320 H   0  0  0  0  0  0  0  0  0  0  0  0
  145.5205  140.1938  155.5322 H   0  0  0  0  0  0  0  0  0  0  0  0
  147.2679  139.9835  155.4721 H   0  0  0  0  0  0  0  0  0  0  0  0
  147.2043  142.3139  152.6805 H   0  0  0  0  0  0  0  0  0  0  0  0
  148.7987  140.4285  154.6245 H   0  0  0  0  0  0  0  0  0  0  0  0
  149.4780  141.9257  153.8017 H   0  0  0  0  0  0  0  0  0  0  0  0
  147.7670  143.3483  154.9617 H   0  0  0  0  0  0  0  0  0  0  0  0
  147.0807  141.8566  155.7891 H   0  0  0  0  0  0  0  0  0  0  0  0
  147.6677  139.3178  152.4989 H   0  0  0  0  0  0  0  0  0  0  0  0
  146.2255  139.8317  151.6137 H   0  0  0  0  0  0  0  0  0  0  0  0
  145.4130  140.8695  153.4710 H   0  0  0  0  0  0  0  0  0  0  0  0
  1  2  2  0  0  0  0
  2  3  1  0  0  0  0
  2 10  1  0  0  0  0
  3  4  1  0  0  0  0
  3 19  1  0  0  0  0
  4  9  1  0  0  0  0
  4  5  2  0  0  0  0
  5  6  1  0  0  0  0
  5 20  1  0  0  0  0
  6  7  2  0  0  0  0
  6 21  1  0  0  0  0
  7  8  1  0  0  0  0
  8  9  2  0  0  0  0
  8 22  1  0  0  0  0
  9 23  1  0  0  0  0
 10 11  1  0  0  0  0
 10 24  1  0  0  0  0
 11 18  1  0  0  0  0
 11 12  1  0  0  0  0
 11 25  1  0  0  0  0
 12 13  1  0  0  0  0
 12 26  1  0  0  0  0
 12 27  1  0  0  0  0
 13 14  1  0  0  0  0
 13 28  1  0  0  0  0
 13 29  1  0  0  0  0
 14 15  1  0  0  0  0
 14 18  1  0  0  0  0
 14 37  1  0  0  0  0
 15 17  1  0  0  0  0
 15 16  1  0  0  0  0
 15 30  1  0  0  0  0
 16 17  1  0  0  0  0
 16 31  1  0  0  0  0
 16 32  1  0  0  0  0
 17 33  1  0  0  0  0
 17 34  1  0  0  0  0
 18 35  1  0  0  0  0
 18 36  1  0  0  0  0
M  CHG  1  14   1
M  END
> <s_m_source_file>
AV-unprocessed.smi

> <i_m_source_file_index>
3234

> <i_lp_mmshare_version>
43012

> <i_f3d_flags>
0

> <s_epik_input>
W2NIXTFbY0hdbltjSF1bY0hdYzFbTkhdQyg9TylbTkhdW0NAQEhdMltDSDJdW0NIMl1OKFtDSDJdMilbQ0hdM1tDSDJdW0NIMl0z

> <s_epik_cmdline>
J2VwaWtfcHl0aG9uJywgJy1waCcsICc3LjAnLCAnLXRuJywgJzgnLCAnLW1hJywgJzIwMCcsICctbWV0YWxfYmluZGluZycsICctaW1hZScsICc8aW5maWxlLm1hZT4nLCAnLW9tYWUnLCAnPG91dGZpbGUubWFlPic=

> <r_epik_Ionization_Penalty>
0.0934328

> <r_epik_Ionization_Penalty_Charging>
0.000606352

> <r_epik_Ionization_Penalty_Neutral>
0.0928265

> <r_epik_State_Penalty>
0.0830811

> <r_epik_Charging_Adjusted_Penalty>
0.0836875

> <i_epik_Tot_Q>
1

> <i_epik_Tot_abs_Q>
1

> <r_epik_Metal_State_Penalty>
0.0724491

> <b_epik_Metal_Only>
0

> <s_lp_Force_Field>
OPLS_2005

> <r_lp_Energy>
41.3186

> <b_lp_Chiralities_Consistent>
1

> <s_lp_Variant>
AV-unprocessed.smi:3234-2

> <Gold.Version>
5.8.1

> <Gold.Id.Protein>
6NUR|6NUR_protein|mol2

> <Gold.PLP.Fitness>
45.6502

> <Gold.PLP.PLP>
-28.6413

> <Gold.PLP.part.hbond>
-4.0000

> <Gold.PLP.part.metal>
0.0000

> <Gold.PLP.part.buried>
2.0697

> <Gold.PLP.part.nonpolar>
-27.8288

> <Gold.PLP.part.repulsive>
0.8789

> <Gold.PLP.ligand.clash>
0.0000

> <Gold.PLP.ligand.torsion>
0.6888

> <Gold.PLP.Chemscore.Hbond>
3.9634

> <Gold.PLP.Chemscore.CHOScore>
1.7443

> <Gold.PLP.Chemscore.Metal>
0.0000

> <Gold.Chemscore.Hbonds>
donor molecule, donor type, donor heavy atom, donor atom, acceptor molecule, acceptor atom, score
      L1  H     3    19       P1  7948  0.99
      L1  H    10    24       P1  7948  1.00
      L1  H    14    37       P1 10175  1.76
      P1  H 10785 10796       L1     7  0.21
      L1  C     6    21       P1 10186  1.00
      L1  C     8    22       P1 10747  0.75

> <Gold.PLP.Chemscore.Internal.Correction>
1.2632

> <Gold.Rescore>
     Score         DG    S(hbond)    S(metal)    S(lipo)     H(rot)  DE(clash)    DE(int)     intcor
     17.98     -20.50       2.54        0.00      82.26       1.21       0.44       2.08       ----

> <Gold.Chemscore.Fitness>
17.9788

> <Gold.Chemscore.DG>
-20.5016

> <Gold.Chemscore.ZeroCoef>
-5.4800

> <Gold.Chemscore.Hbond>
2.5440

> <Gold.Chemscore.Metal>
0.0000

> <Gold.Chemscore.Lipo>
82.2571

> <Gold.Chemscore.Internal_Hbond>
0.0000

> <Gold.Chemscore.DEClash>
0.4406

> <Gold.Chemscore.DEInternal>
2.0822

> <Gold.Chemscore.Rot>
1.2108

> <Gold.Chemscore.Internal.Correction>
   9.000000E+99

> <Gold.Chemscore.Hbonds>
donor molecule, donor type, donor heavy atom, donor atom, acceptor molecule, acceptor atom, score
      L1  H     3    19       P1  7948  0.79
      L1  H    10    24       P1  7948  0.99
      L1  H    14    37       P1 10175  0.63
      P1  H 10785 10796       L1     7  0.11

> <Gold.Chemscore.Hbond.Weighted>
-8.4971

> <Gold.Chemscore.Metal.Weighted>
-0.0000

> <Gold.Chemscore.Lipo.Weighted>
-9.6241

> <Gold.Chemscore.Internal_Hbond.Weighted>
0.0000

> <Gold.Chemscore.DEClash.Weighted>
0.4406

> <Gold.Chemscore.DEInternal.Weighted>
2.0822

> <Gold.Chemscore.Rot.Weighted>
3.0996

> <Gold.Chemscore.Internal.Correction.Weighted>
   9.000000E+99

> <Gold.Protein.RotatedTorsions>
[ 6907 6896 6895 6894 ] final   -2.76 input  -60.11 | X-H torsion
[ 7974 7965 7964 7962 ] final  -60.43 input  175.53 | X-H torsion
[ 8008 7997 7996 7995 ] final -178.57 input   59.86 | X-H torsion
[ 10167 10162 10161 10158 ] final   36.13 input  -65.29 | X-H torsion
[ 10718 10713 10712 10709 ] final   95.95 input   66.30 | X-H torsion
[ 10763 10752 10751 10750 ] final    8.80 input  -60.55 | X-H torsion
[ 11005 11000 10999 10996 ] final   36.08 input  -57.11 | X-H torsion

> <Gold.Protein.ActiveResidues>
 VAL166  LYS551  ARG553  GLY616  TRP617  ASP618  TYR619  PRO620  LYS621  CYS622 
 ASP623  PHE694  ASN695  SER759  ASP760  ASP761  ALA762  ILE779  LEU786  VAL792 
 PHE793  MET794  SER795  GLU796  ALA797  LYS798  CYS799  TRP800  GLU811  SER814 

> <Gold.Protein.RotatedAtoms>
  151.5246  135.1067  159.9886 H   0  0  0  0  0  0  0  0  0  0  0  0  # atno 6907 bound_to 6896
  152.4605  133.7808  159.6860 H   0  0  0  0  0  0  0  0  0  0  0  0  # atno 6908 bound_to 6896
  150.8566  133.7642  159.3032 H   0  0  0  0  0  0  0  0  0  0  0  0  # atno 6909 bound_to 6896
  145.8155  140.8572  143.0159 H   0  0  0  0  0  0  0  0  0  0  0  0  # atno 7974 bound_to 7965
  156.0204  140.1260  157.0363 H   0  0  0  0  0  0  0  0  0  0  0  0  # atno 8008 bound_to 7997
  154.4309  140.1070  156.6026 H   0  0  0  0  0  0  0  0  0  0  0  0  # atno 8009 bound_to 7997
  155.5952  140.3470  155.4580 H   0  0  0  0  0  0  0  0  0  0  0  0  # atno 8010 bound_to 7997
  140.4157  144.1530  150.6143 H   0  0  0  0  0  0  0  0  0  0  0  0  # atno 10167 bound_to 10162
  157.6933  131.0562  150.4416 H   0  0  0  0  0  0  0  0  0  0  0  0  # atno 10718 bound_to 10713
  153.2210  135.6881  153.8000 H   0  0  0  0  0  0  0  0  0  0  0  0  # atno 10763 bound_to 10752
  153.7199  135.3269  155.3265 H   0  0  0  0  0  0  0  0  0  0  0  0  # atno 10764 bound_to 10752
  154.8269  135.4610  154.1057 H   0  0  0  0  0  0  0  0  0  0  0  0  # atno 10765 bound_to 10752
  140.2361  134.3470  155.7944 H   0  0  0  0  0  0  0  0  0  0  0  0  # atno 11005 bound_to 11000
  144.6753  140.0458  143.7480 LP  0  0  0  0  0  0  0  0  0  0  0  0  # atno 17320 bound_to 7965
  145.9731  139.2884  143.1087 LP  0  0  0  0  0  0  0  0  0  0  0  0  # atno 17321 bound_to 7965
  140.4589  143.2456  151.9247 LP  0  0  0  0  0  0  0  0  0  0  0  0  # atno 17342 bound_to 10162
  139.4782  144.5487  151.8418 LP  0  0  0  0  0  0  0  0  0  0  0  0  # atno 17343 bound_to 10162
  156.4774  130.4066  149.6481 LP  0  0  0  0  0  0  0  0  0  0  0  0  # atno 17370 bound_to 10713
  156.3539  130.7446  151.2410 LP  0  0  0  0  0  0  0  0  0  0  0  0  # atno 17371 bound_to 10713
  141.2214  133.7272  156.8810 LP  0  0  0  0  0  0  0  0  0  0  0  0  # atno 17394 bound_to 11000
  140.1701  134.9106  157.2822 LP  0  0  0  0  0  0  0  0  0  0  0  0  # atno 17395 bound_to 11000

$$$$
