AV-unprocessed.smi:462|AV-procd|sdf|2632|dock8
  -GOLD-   2262023 43D 1   1.00000     0.00000
 Structure written by MMmdl.
 46 48  0  0  0  0  0  0  0  0  1 V2000
  148.1462  136.5847  155.0560 C   0  0  0  0  0  0  0  0  0  0  0  0
  148.8392  137.7869  155.3550 O   0  0  0  0  0  0  0  0  0  0  0  0
  148.4138  138.9558  154.7575 C   0  0  0  0  0  0  0  0  0  0  0  0
  147.4430  139.0039  153.7254 C   0  0  0  0  0  0  0  0  0  0  0  0
  147.0576  140.2356  153.1653 C   0  0  0  0  0  0  0  0  0  0  0  0
  147.6366  141.4300  153.6272 C   0  0  0  0  0  0  0  0  0  0  0  0
  148.6010  141.3940  154.6504 C   0  0  0  0  0  0  0  0  0  0  0  0
  148.9942  140.1581  155.2223 C   0  0  0  0  0  0  0  0  0  0  0  0
  149.9295  140.0437  156.2275 O   0  0  0  0  0  0  0  0  0  0  0  0
  150.4210  141.2225  156.8487 C   0  0  0  0  0  0  0  0  0  0  0  0
  151.9200  141.0404  157.1369 C   0  0  0  0  0  0  0  0  0  0  0  0
  152.2950  141.5416  158.4553 N   0  0  0  0  0  0  0  0  0  0  0  0
  152.9162  140.9036  159.4917 C   0  0  0  0  0  0  0  0  0  0  0  0
  153.3091  139.4357  159.4915 C   0  0  0  0  0  0  0  0  0  0  0  0
  154.0099  139.0317  160.8060 C   0  0  0  0  0  0  0  0  0  0  0  0
  152.0763  138.5493  159.2476 C   0  0  0  0  0  0  0  0  0  0  0  0
  154.2669  139.1101  158.5031 O   0  0  0  0  0  0  0  0  0  0  0  0
  153.0448  141.6378  160.6019 N   0  0  0  0  0  0  0  0  0  0  0  0
  152.5341  142.8648  160.2384 C   0  0  0  0  0  0  0  0  0  0  0  0
  152.4249  144.0675  160.9726 C   0  0  0  0  0  0  0  0  0  0  0  0
  151.8499  145.2128  160.3846 C   0  0  0  0  0  0  0  0  0  0  0  0
  151.3730  145.1693  159.0589 C   0  0  0  0  0  0  0  0  0  0  0  0
  151.4683  143.9783  158.3142 C   0  0  0  0  0  0  0  0  0  0  0  0
  152.0514  142.8390  158.9029 C   0  0  0  0  0  0  0  0  0  0  0  0
  148.5922  135.7653  155.6198 H   0  0  0  0  0  0  0  0  0  0  0  0
  148.2196  136.3348  153.9968 H   0  0  0  0  0  0  0  0  0  0  0  0
  147.0955  136.6477  155.3422 H   0  0  0  0  0  0  0  0  0  0  0  0
  146.9774  138.1076  153.3451 H   0  0  0  0  0  0  0  0  0  0  0  0
  146.3167  140.2634  152.3800 H   0  0  0  0  0  0  0  0  0  0  0  0
  147.3409  142.3753  153.1962 H   0  0  0  0  0  0  0  0  0  0  0  0
  149.0263  142.3298  154.9802 H   0  0  0  0  0  0  0  0  0  0  0  0
  150.2754  142.0809  156.1917 H   0  0  0  0  0  0  0  0  0  0  0  0
  149.8810  141.4119  157.7770 H   0  0  0  0  0  0  0  0  0  0  0  0
  152.1712  139.9804  157.0908 H   0  0  0  0  0  0  0  0  0  0  0  0
  152.5305  141.5134  156.3698 H   0  0  0  0  0  0  0  0  0  0  0  0
  153.3528  139.1550  161.6677 H   0  0  0  0  0  0  0  0  0  0  0  0
  154.9017  139.6346  160.9827 H   0  0  0  0  0  0  0  0  0  0  0  0
  154.3185  137.9855  160.7911 H   0  0  0  0  0  0  0  0  0  0  0  0
  151.3213  138.7076  160.0186 H   0  0  0  0  0  0  0  0  0  0  0  0
  152.3361  137.4901  159.2550 H   0  0  0  0  0  0  0  0  0  0  0  0
  151.6120  138.7679  158.2855 H   0  0  0  0  0  0  0  0  0  0  0  0
  154.2369  138.1778  158.3533 H   0  0  0  0  0  0  0  0  0  0  0  0
  152.7861  144.1086  161.9895 H   0  0  0  0  0  0  0  0  0  0  0  0
  151.7737  146.1279  160.9534 H   0  0  0  0  0  0  0  0  0  0  0  0
  150.9346  146.0502  158.6133 H   0  0  0  0  0  0  0  0  0  0  0  0
  151.1060  143.9451  157.2974 H   0  0  0  0  0  0  0  0  0  0  0  0
  1  2  1  0  0  0  0
  1 25  1  0  0  0  0
  1 26  1  0  0  0  0
  1 27  1  0  0  0  0
  2  3  1  0  0  0  0
  3  8  1  0  0  0  0
  3  4  2  0  0  0  0
  4  5  1  0  0  0  0
  4 28  1  0  0  0  0
  5  6  2  0  0  0  0
  5 29  1  0  0  0  0
  6  7  1  0  0  0  0
  6 30  1  0  0  0  0
  7  8  2  0  0  0  0
  7 31  1  0  0  0  0
  8  9  1  0  0  0  0
  9 10  1  0  0  0  0
 10 11  1  0  0  0  0
 10 32  1  0  0  0  0
 10 33  1  0  0  0  0
 11 12  1  0  0  0  0
 11 34  1  0  0  0  0
 11 35  1  0  0  0  0
 12 24  1  0  0  0  0
 12 13  1  0  0  0  0
 13 14  1  0  0  0  0
 13 18  2  0  0  0  0
 14 15  1  0  0  0  0
 14 16  1  0  0  0  0
 14 17  1  0  0  0  0
 15 36  1  0  0  0  0
 15 37  1  0  0  0  0
 15 38  1  0  0  0  0
 16 39  1  0  0  0  0
 16 40  1  0  0  0  0
 16 41  1  0  0  0  0
 17 42  1  0  0  0  0
 18 19  1  0  0  0  0
 19 24  2  0  0  0  0
 19 20  1  0  0  0  0
 20 21  2  0  0  0  0
 20 43  1  0  0  0  0
 21 22  1  0  0  0  0
 21 44  1  0  0  0  0
 22 23  2  0  0  0  0
 22 45  1  0  0  0  0
 23 24  1  0  0  0  0
 23 46  1  0  0  0  0
M  END
> <s_m_source_file>
AV-unprocessed.smi

> <i_m_source_file_index>
462

> <i_lp_mmshare_version>
43012

> <i_f3d_flags>
0

> <s_epik_input>
W0NIM11PYzFbY0hdW2NIXVtjSF1bY0hdYzFPW0NIMl1bQ0gyXW4oYyhuMilDKFtDSDNdKShbQ0gzXSlbT0hdKWMoYzIzKVtjSF1bY0hdW2NIXVtjSF0z

> <s_epik_cmdline>
J2VwaWtfcHl0aG9uJywgJy1waCcsICc3LjAnLCAnLXRuJywgJzgnLCAnLW1hJywgJzIwMCcsICctbWV0YWxfYmluZGluZycsICctaW1hZScsICc8aW5maWxlLm1hZT4nLCAnLW9tYWUnLCAnPG91dGZpbGUubWFlPic=

> <r_lp_tautomer_probability>
1

> <r_epik_Ionization_Penalty>
0.0665975

> <r_epik_Ionization_Penalty_Charging>
0

> <r_epik_Ionization_Penalty_Neutral>
0.0665975

> <r_epik_State_Penalty>
0.0581545

> <r_epik_Charging_Adjusted_Penalty>
0.0581545

> <i_epik_Tot_Q>
0

> <i_epik_Tot_abs_Q>
0

> <r_epik_Metal_State_Penalty>
6.11011e-05

> <b_epik_Metal_Only>
0

> <s_lp_Force_Field>
OPLS_2005

> <r_lp_Energy>
19.5197

> <b_lp_Chiralities_Consistent>
1

> <s_lp_Variant>
AV-unprocessed.smi:462-1

> <Gold.Version>
5.8.1

> <Gold.Id.Protein>
6NUR|6NUR_protein|mol2

> <Gold.PLP.Fitness>
48.6284

> <Gold.PLP.PLP>
-47.0115

> <Gold.PLP.part.hbond>
-1.0000

> <Gold.PLP.part.metal>
0.0000

> <Gold.PLP.part.buried>
-7.1263

> <Gold.PLP.part.nonpolar>
-37.9487

> <Gold.PLP.part.repulsive>
0.0862

> <Gold.PLP.ligand.clash>
0.0000

> <Gold.PLP.ligand.torsion>
0.7772

> <Gold.PLP.Chemscore.Hbond>
1.0000

> <Gold.PLP.Chemscore.CHOScore>
0.0000

> <Gold.PLP.Chemscore.Metal>
0.0000

> <Gold.Chemscore.Hbonds>
donor molecule, donor type, donor heavy atom, donor atom, acceptor molecule, acceptor atom, score
      P1  H  7997  8009       L1    17  1.00

> <Gold.PLP.Chemscore.Internal.Correction>
0.1712

> <Gold.Rescore>
     Score         DG    S(hbond)    S(metal)    S(lipo)     H(rot)  DE(clash)    DE(int)     intcor
     18.35     -19.15       0.96        0.00     138.78       2.25       0.07       0.72       ----

> <Gold.Chemscore.Fitness>
18.3527

> <Gold.Chemscore.DG>
-19.1458

> <Gold.Chemscore.ZeroCoef>
-5.4800

> <Gold.Chemscore.Hbond>
0.9576

> <Gold.Chemscore.Metal>
0.0000

> <Gold.Chemscore.Lipo>
138.7849

> <Gold.Chemscore.Internal_Hbond>
0.0000

> <Gold.Chemscore.DEClash>
0.0692

> <Gold.Chemscore.DEInternal>
0.7239

> <Gold.Chemscore.Rot>
2.2541

> <Gold.Chemscore.Internal.Correction>
   9.000000E+99

> <Gold.Chemscore.Hbonds>
donor molecule, donor type, donor heavy atom, donor atom, acceptor molecule, acceptor atom, score
      P1  H  7997  8009       L1    17  0.91

> <Gold.Chemscore.Hbond.Weighted>
-3.1985

> <Gold.Chemscore.Metal.Weighted>
-0.0000

> <Gold.Chemscore.Lipo.Weighted>
-16.2378

> <Gold.Chemscore.Internal_Hbond.Weighted>
0.0000

> <Gold.Chemscore.DEClash.Weighted>
0.0692

> <Gold.Chemscore.DEInternal.Weighted>
0.7239

> <Gold.Chemscore.Rot.Weighted>
5.7705

> <Gold.Chemscore.Internal.Correction.Weighted>
   9.000000E+99

> <Gold.Protein.RotatedTorsions>
[ 6907 6896 6895 6894 ] final  149.15 input  -60.11 | X-H torsion
[ 7974 7965 7964 7962 ] final  107.19 input  175.53 | X-H torsion
[ 8008 7997 7996 7995 ] final  139.18 input   59.86 | X-H torsion
[ 10167 10162 10161 10158 ] final   62.99 input  -65.29 | X-H torsion
[ 10718 10713 10712 10709 ] final -141.01 input   66.30 | X-H torsion
[ 10763 10752 10751 10750 ] final   17.23 input  -60.55 | X-H torsion
[ 11005 11000 10999 10996 ] final   71.03 input  -57.11 | X-H torsion

> <Gold.Protein.ActiveResidues>
 VAL166  LYS551  ARG553  GLY616  TRP617  ASP618  TYR619  PRO620  LYS621  CYS622 
 ASP623  PHE694  ASN695  SER759  ASP760  ASP761  ALA762  ILE779  LEU786  VAL792 
 PHE793  MET794  SER795  GLU796  ALA797  LYS798  CYS799  TRP800  GLU811  SER814 

> <Gold.Protein.RotatedAtoms>
  152.1319  133.4413  159.4724 H   0  0  0  0  0  0  0  0  0  0  0  0  # atno 6907 bound_to 6896
  150.6879  134.2410  159.4481 H   0  0  0  0  0  0  0  0  0  0  0  0  # atno 6908 bound_to 6896
  152.0294  134.9776  160.0623 H   0  0  0  0  0  0  0  0  0  0  0  0  # atno 6909 bound_to 6896
  145.2968  139.2582  143.3835 H   0  0  0  0  0  0  0  0  0  0  0  0  # atno 7974 bound_to 7965
  156.2992  140.2374  156.4194 H   0  0  0  0  0  0  0  0  0  0  0  0  # atno 8008 bound_to 7997
  154.8369  140.0430  157.1535 H   0  0  0  0  0  0  0  0  0  0  0  0  # atno 8009 bound_to 7997
  154.9146  140.2995  155.5252 H   0  0  0  0  0  0  0  0  0  0  0  0  # atno 8010 bound_to 7997
  140.1379  144.4581  150.6827 H   0  0  0  0  0  0  0  0  0  0  0  0  # atno 10167 bound_to 10162
  156.3290  130.7575  151.1689 H   0  0  0  0  0  0  0  0  0  0  0  0  # atno 10718 bound_to 10713
  153.1358  135.6750  153.9105 H   0  0  0  0  0  0  0  0  0  0  0  0  # atno 10763 bound_to 10752
  153.8578  135.3085  155.3437 H   0  0  0  0  0  0  0  0  0  0  0  0  # atno 10764 bound_to 10752
  154.7746  135.4921  153.9801 H   0  0  0  0  0  0  0  0  0  0  0  0  # atno 10765 bound_to 10752
  139.9565  134.7135  156.0741 H   0  0  0  0  0  0  0  0  0  0  0  0  # atno 11005 bound_to 11000
  146.3166  140.3473  142.8653 LP  0  0  0  0  0  0  0  0  0  0  0  0  # atno 17320 bound_to 7965
  144.9126  140.7775  143.5798 LP  0  0  0  0  0  0  0  0  0  0  0  0  # atno 17321 bound_to 7965
  140.6778  143.2313  151.5462 LP  0  0  0  0  0  0  0  0  0  0  0  0  # atno 17342 bound_to 10162
  139.5487  144.2453  152.1490 LP  0  0  0  0  0  0  0  0  0  0  0  0  # atno 17343 bound_to 10162
  157.7426  131.0486  150.5007 LP  0  0  0  0  0  0  0  0  0  0  0  0  # atno 17370 bound_to 10713
  156.5170  130.4153  149.6271 LP  0  0  0  0  0  0  0  0  0  0  0  0  # atno 17371 bound_to 10713
  141.1237  133.6605  156.3281 LP  0  0  0  0  0  0  0  0  0  0  0  0  # atno 17394 bound_to 11000
  140.5597  134.5946  157.5430 LP  0  0  0  0  0  0  0  0  0  0  0  0  # atno 17395 bound_to 11000

$$$$
