AV-unprocessed.smi:1493|AV-procd|sdf|6050|dock4
  -GOLD-   22720 6163D 1   1.00000     0.00000
 Structure written by MMmdl.
 34 34  0  0  0  0  0  0  0  0  1 V2000
  152.2231  144.9743  158.5278 C   0  0  0  0  0  0  0  0  0  0  0  0
  151.9440  144.5354  159.9692 C   0  0  0  0  0  0  0  0  0  0  0  0
  152.8849  143.4094  160.4335 C   0  0  0  0  0  0  0  0  0  0  0  0
  152.4251  141.9991  160.0167 C   0  0  2  0  0  0  0  0  0  0  0  0
  153.4856  140.9391  160.3569 C   0  0  0  0  0  0  0  0  0  0  0  0
  152.1239  141.9756  158.5887 N   0  0  0  0  0  0  0  0  0  0  0  0
  151.2025  141.2042  157.9868 C   0  0  0  0  0  0  0  0  0  0  0  0
  150.5148  140.3872  158.5981 O   0  0  0  0  0  0  0  0  0  0  0  0
  150.9981  141.3679  156.4704 C   0  0  0  0  0  0  0  0  0  0  0  0
  151.0356  140.1126  155.7018 N   0  0  0  0  0  0  0  0  0  0  0  0
  149.9575  139.9446  154.8458 N   0  0  0  0  0  0  0  0  0  0  0  0
  149.8819  138.8939  154.1011 C   0  0  0  0  0  0  0  0  0  0  0  0
  148.7988  138.7694  153.2661 O   0  0  0  0  0  0  0  0  0  0  0  0
  150.9063  137.8734  154.1412 C   0  0  0  0  0  0  0  0  0  0  0  0
  151.9520  138.0448  154.9794 C   0  0  0  0  0  0  0  0  0  0  0  0
  152.0706  139.2270  155.8347 C   0  0  0  0  0  0  0  0  0  0  0  0
  153.0196  139.4159  156.5949 O   0  0  0  0  0  0  0  0  0  0  0  0
  148.8731  137.9090  152.8832 H   0  0  0  0  0  0  0  0  0  0  0  0
  151.5432  145.7712  158.2259 H   0  0  0  0  0  0  0  0  0  0  0  0
  152.0938  144.1449  157.8319 H   0  0  0  0  0  0  0  0  0  0  0  0
  153.2419  145.3477  158.4202 H   0  0  0  0  0  0  0  0  0  0  0  0
  152.0473  145.3950  160.6323 H   0  0  0  0  0  0  0  0  0  0  0  0
  150.9051  144.2116  160.0432 H   0  0  0  0  0  0  0  0  0  0  0  0
  153.8879  143.5959  160.0467 H   0  0  0  0  0  0  0  0  0  0  0  0
  152.9687  143.4456  161.5206 H   0  0  0  0  0  0  0  0  0  0  0  0
  151.5142  141.7649  160.5708 H   0  0  0  0  0  0  0  0  0  0  0  0
  153.7118  140.9402  161.4233 H   0  0  0  0  0  0  0  0  0  0  0  0
  154.4166  141.1218  159.8191 H   0  0  0  0  0  0  0  0  0  0  0  0
  153.1435  139.9365  160.0982 H   0  0  0  0  0  0  0  0  0  0  0  0
  152.6452  142.6166  158.0083 H   0  0  0  0  0  0  0  0  0  0  0  0
  150.0550  141.8903  156.3019 H   0  0  0  0  0  0  0  0  0  0  0  0
  151.7691  142.0458  156.0998 H   0  0  0  0  0  0  0  0  0  0  0  0
  150.8288  136.9981  153.5134 H   0  0  0  0  0  0  0  0  0  0  0  0
  152.7241  137.2907  155.0199 H   0  0  0  0  0  0  0  0  0  0  0  0
  1  2  1  0  0  0  0
  1 19  1  0  0  0  0
  1 20  1  0  0  0  0
  1 21  1  0  0  0  0
  2  3  1  0  0  0  0
  2 22  1  0  0  0  0
  2 23  1  0  0  0  0
  3  4  1  0  0  0  0
  3 24  1  0  0  0  0
  3 25  1  0  0  0  0
  4  5  1  0  0  0  0
  4  6  1  0  0  0  0
  4 26  1  0  0  0  0
  5 27  1  0  0  0  0
  5 28  1  0  0  0  0
  5 29  1  0  0  0  0
  6  7  1  0  0  0  0
  6 30  1  0  0  0  0
  7  8  2  0  0  0  0
  7  9  1  0  0  0  0
  9 31  1  0  0  0  0
  9 32  1  0  0  0  0
  9 10  1  0  0  0  0
 10 11  1  0  0  0  0
 10 16  1  0  0  0  0
 11 12  2  0  0  0  0
 12 13  1  0  0  0  0
 12 14  1  0  0  0  0
 13 18  1  0  0  0  0
 14 33  1  0  0  0  0
 14 15  2  0  0  0  0
 15 34  1  0  0  0  0
 15 16  1  0  0  0  0
 16 17  2  0  0  0  0
M  END
> <s_m_source_file>
AV-unprocessed.smi

> <i_m_source_file_index>
1493

> <i_lp_mmshare_version>
43012

> <i_f3d_flags>
0

> <s_epik_input>
W0NIM11bQ0gyXVtDSDJdW0NASF0oW0NIM10pW05IXUMoPU8pW0NIMl1uMVtuSF1jKD1PKVtjSF1bY0hdYzE9Tw==

> <s_epik_cmdline>
J2VwaWtfcHl0aG9uJywgJy1waCcsICc3LjAnLCAnLXRuJywgJzgnLCAnLW1hJywgJzIwMCcsICctbWV0YWxfYmluZGluZycsICctaW1hZScsICc8aW5maWxlLm1hZT4nLCAnLW9tYWUnLCAnPG91dGZpbGUubWFlPic=

> <r_lp_tautomer_probability>
0.9996

> <r_epik_Ionization_Penalty>
2.12047

> <r_epik_Ionization_Penalty_Charging>
3.81971e-08

> <r_epik_Ionization_Penalty_Neutral>
2.12047

> <r_epik_State_Penalty>
1.69728

> <r_epik_Charging_Adjusted_Penalty>
1.69728

> <i_epik_Tot_Q>
0

> <i_epik_Tot_abs_Q>
0

> <r_epik_Metal_State_Penalty>
1.69728

> <b_epik_Metal_Only>
0

> <s_lp_Force_Field>
OPLS_2005

> <r_lp_Energy>
13.2358

> <b_lp_Chiralities_Consistent>
1

> <s_lp_Variant>
AV-unprocessed.smi:1493-3

> <Gold.Version>
5.8.1

> <Gold.Id.Protein>
6NUR|6NUR_protein|mol2

> <Gold.PLP.Fitness>
46.3069

> <Gold.PLP.PLP>
-41.7864

> <Gold.PLP.part.hbond>
-2.6961

> <Gold.PLP.part.metal>
0.0000

> <Gold.PLP.part.buried>
-4.8941

> <Gold.PLP.part.nonpolar>
-34.9654

> <Gold.PLP.part.repulsive>
0.1536

> <Gold.PLP.ligand.clash>
0.0000

> <Gold.PLP.ligand.torsion>
0.6888

> <Gold.PLP.Chemscore.Hbond>
1.9588

> <Gold.PLP.Chemscore.CHOScore>
0.0000

> <Gold.PLP.Chemscore.Metal>
0.0000

> <Gold.Chemscore.Hbonds>
donor molecule, donor type, donor heavy atom, donor atom, acceptor molecule, acceptor atom, score
      L1  H    13    18       P1  7948  1.00
      P1  H  7997  8008       L1    17  1.00

> <Gold.PLP.Chemscore.Internal.Correction>
0.0218

> <Gold.Rescore>
     Score         DG    S(hbond)    S(metal)    S(lipo)     H(rot)  DE(clash)    DE(int)     intcor
     12.68     -14.48       1.99        0.00      80.99       2.78       0.00       1.79       ----

> <Gold.Chemscore.Fitness>
12.6788

> <Gold.Chemscore.DG>
-14.4754

> <Gold.Chemscore.ZeroCoef>
-5.4800

> <Gold.Chemscore.Hbond>
1.9858

> <Gold.Chemscore.Metal>
0.0000

> <Gold.Chemscore.Lipo>
80.9893

> <Gold.Chemscore.Internal_Hbond>
0.0000

> <Gold.Chemscore.DEClash>
0.0038

> <Gold.Chemscore.DEInternal>
1.7928

> <Gold.Chemscore.Rot>
2.7785

> <Gold.Chemscore.Internal.Correction>
   9.000000E+99

> <Gold.Chemscore.Hbonds>
donor molecule, donor type, donor heavy atom, donor atom, acceptor molecule, acceptor atom, score
      L1  H    13    18       P1  7948  0.99
      P1  H  7997  8008       L1    17  0.94

> <Gold.Chemscore.Hbond.Weighted>
-6.6326

> <Gold.Chemscore.Metal.Weighted>
-0.0000

> <Gold.Chemscore.Lipo.Weighted>
-9.4757

> <Gold.Chemscore.Internal_Hbond.Weighted>
0.0000

> <Gold.Chemscore.DEClash.Weighted>
0.0038

> <Gold.Chemscore.DEInternal.Weighted>
1.7928

> <Gold.Chemscore.Rot.Weighted>
7.1129

> <Gold.Chemscore.Internal.Correction.Weighted>
   9.000000E+99

> <Gold.Protein.RotatedTorsions>
[ 6907 6896 6895 6894 ] final   94.69 input  -60.11 | X-H torsion
[ 7974 7965 7964 7962 ] final   90.16 input  175.53 | X-H torsion
[ 8008 7997 7996 7995 ] final  -69.34 input   59.86 | X-H torsion
[ 10167 10162 10161 10158 ] final   45.42 input  -65.29 | X-H torsion
[ 10718 10713 10712 10709 ] final  171.42 input   66.30 | X-H torsion
[ 10763 10752 10751 10750 ] final  109.44 input  -60.55 | X-H torsion
[ 11005 11000 10999 10996 ] final   -2.93 input  -57.11 | X-H torsion

> <Gold.Protein.ActiveResidues>
 VAL166  LYS551  ARG553  GLY616  TRP617  ASP618  TYR619  PRO620  LYS621  CYS622 
 ASP623  PHE694  ASN695  SER759  ASP760  ASP761  ALA762  ILE779  LEU786  VAL792 
 PHE793  MET794  SER795  GLU796  ALA797  LYS798  CYS799  TRP800  GLU811  SER814 

> <Gold.Protein.RotatedAtoms>
  152.5448  134.1154  159.8376 H   0  0  0  0  0  0  0  0  0  0  0  0  # atno 6907 bound_to 6896
  151.1216  133.5093  159.2609 H   0  0  0  0  0  0  0  0  0  0  0  0  # atno 6908 bound_to 6896
  151.1773  135.0354  159.8832 H   0  0  0  0  0  0  0  0  0  0  0  0  # atno 6909 bound_to 6896
  145.5227  139.2280  143.2663 H   0  0  0  0  0  0  0  0  0  0  0  0  # atno 7974 bound_to 7965
  154.4932  140.0855  156.7640 H   0  0  0  0  0  0  0  0  0  0  0  0  # atno 8008 bound_to 7997
  155.4180  140.3444  155.4251 H   0  0  0  0  0  0  0  0  0  0  0  0  # atno 8009 bound_to 7997
  156.1358  140.1515  156.8984 H   0  0  0  0  0  0  0  0  0  0  0  0  # atno 8010 bound_to 7997
  140.3243  144.2667  150.6178 H   0  0  0  0  0  0  0  0  0  0  0  0  # atno 10167 bound_to 10162
  156.9938  131.0156  151.2849 H   0  0  0  0  0  0  0  0  0  0  0  0  # atno 10718 bound_to 10713
  153.4348  135.3780  155.2192 H   0  0  0  0  0  0  0  0  0  0  0  0  # atno 10763 bound_to 10752
  154.8751  135.3848  154.4224 H   0  0  0  0  0  0  0  0  0  0  0  0  # atno 10764 bound_to 10752
  153.4762  135.7088  153.6028 H   0  0  0  0  0  0  0  0  0  0  0  0  # atno 10765 bound_to 10752
  140.6638  133.9296  155.8452 H   0  0  0  0  0  0  0  0  0  0  0  0  # atno 11005 bound_to 11000
  146.2096  140.6040  142.9066 LP  0  0  0  0  0  0  0  0  0  0  0  0  # atno 17320 bound_to 7965
  144.7667  140.5547  143.6698 LP  0  0  0  0  0  0  0  0  0  0  0  0  # atno 17321 bound_to 7965
  140.5455  143.2215  151.8014 LP  0  0  0  0  0  0  0  0  0  0  0  0  # atno 17342 bound_to 10162
  139.4868  144.4545  151.9615 LP  0  0  0  0  0  0  0  0  0  0  0  0  # atno 17343 bound_to 10162
  157.5439  130.8138  149.8062 LP  0  0  0  0  0  0  0  0  0  0  0  0  # atno 17370 bound_to 10713
  156.0197  130.3800  150.2001 LP  0  0  0  0  0  0  0  0  0  0  0  0  # atno 17371 bound_to 10713
  141.0445  134.0574  157.3861 LP  0  0  0  0  0  0  0  0  0  0  0  0  # atno 17394 bound_to 11000
  139.9004  135.0162  156.7240 LP  0  0  0  0  0  0  0  0  0  0  0  0  # atno 17395 bound_to 11000

$$$$
