AV-unprocessed.smi:568|AV-procd|sdf|2958|dock9
  -GOLD-   2262023463D 1   1.00000     0.00000
 Structure written by MMmdl.
 35 36  0  0  0  0  0  0  0  0  1 V2000
  150.8247  140.2416  154.7357 C   0  0  0  0  0  0  0  0  0  0  0  0
  149.4767  140.9021  154.6878 C   0  0  0  0  0  0  0  0  0  0  0  0
  148.8625  141.0304  153.5239 N   0  0  0  0  0  0  0  0  0  0  0  0
  147.6508  141.6712  153.7981 O   0  0  0  0  0  0  0  0  0  0  0  0
  147.5820  141.9078  155.1323 C   0  0  0  0  0  0  0  0  0  0  0  0
  146.3491  142.5890  155.6216 C   0  0  0  0  0  0  0  0  0  0  0  0
  148.7085  141.4469  155.7578 C   0  0  0  0  0  0  0  0  0  0  0  0
  149.0603  141.4953  157.2225 C   0  0  0  0  0  0  0  0  0  0  0  0
  150.4807  142.0355  157.3899 C   0  0  0  0  0  0  0  0  0  0  0  0
  151.3066  141.3996  158.0446 O   0  0  0  0  0  0  0  0  0  0  0  0
  150.7485  143.2104  156.7988 N   0  0  0  0  0  0  0  0  0  0  0  0
  152.0271  143.9127  156.8473 C   0  0  0  0  0  0  0  0  0  0  0  0
  152.3330  144.4592  158.2548 C   0  0  1  0  0  0  0  0  0  0  0  0
  151.1422  145.1065  158.9318 C   0  0  0  0  0  0  0  0  0  0  0  0
  151.5734  145.1208  160.3959 C   0  0  0  0  0  0  0  0  0  0  0  0
  152.4411  144.0027  160.5607 O   0  0  0  0  0  0  0  0  0  0  0  0
  152.7117  143.4052  159.2968 C   0  0  0  0  0  0  0  0  0  0  0  0
  151.0971  139.9624  155.7533 H   0  0  0  0  0  0  0  0  0  0  0  0
  151.5995  140.9079  154.3563 H   0  0  0  0  0  0  0  0  0  0  0  0
  150.8408  139.3335  154.1326 H   0  0  0  0  0  0  0  0  0  0  0  0
  146.2869  142.5566  156.7092 H   0  0  0  0  0  0  0  0  0  0  0  0
  145.4569  142.1083  155.2200 H   0  0  0  0  0  0  0  0  0  0  0  0
  146.3384  143.6345  155.3134 H   0  0  0  0  0  0  0  0  0  0  0  0
  148.3729  142.1365  157.7751 H   0  0  0  0  0  0  0  0  0  0  0  0
  148.9845  140.5101  157.6843 H   0  0  0  0  0  0  0  0  0  0  0  0
  150.0052  143.6575  156.2821 H   0  0  0  0  0  0  0  0  0  0  0  0
  152.8019  143.2022  156.5587 H   0  0  0  0  0  0  0  0  0  0  0  0
  152.0591  144.7132  156.1061 H   0  0  0  0  0  0  0  0  0  0  0  0
  153.1363  145.1954  158.1922 H   0  0  0  0  0  0  0  0  0  0  0  0
  150.9176  146.1016  158.5470 H   0  0  0  0  0  0  0  0  0  0  0  0
  150.2528  144.4857  158.8122 H   0  0  0  0  0  0  0  0  0  0  0  0
  152.1337  146.0295  160.6195 H   0  0  0  0  0  0  0  0  0  0  0  0
  150.7248  145.0701  161.0784 H   0  0  0  0  0  0  0  0  0  0  0  0
  152.0840  142.5186  159.1949 H   0  0  0  0  0  0  0  0  0  0  0  0
  153.7535  143.0930  159.2201 H   0  0  0  0  0  0  0  0  0  0  0  0
  1  2  1  0  0  0  0
  1 18  1  0  0  0  0
  1 19  1  0  0  0  0
  1 20  1  0  0  0  0
  2  7  1  0  0  0  0
  2  3  2  0  0  0  0
  3  4  1  0  0  0  0
  4  5  1  0  0  0  0
  5  6  1  0  0  0  0
  5  7  2  0  0  0  0
  6 21  1  0  0  0  0
  6 22  1  0  0  0  0
  6 23  1  0  0  0  0
  7  8  1  0  0  0  0
  8  9  1  0  0  0  0
  8 24  1  0  0  0  0
  8 25  1  0  0  0  0
  9 10  2  0  0  0  0
  9 11  1  0  0  0  0
 11 12  1  0  0  0  0
 11 26  1  0  0  0  0
 12 13  1  0  0  0  0
 12 27  1  0  0  0  0
 12 28  1  0  0  0  0
 13 17  1  0  0  0  0
 13 14  1  0  0  0  0
 13 29  1  0  0  0  0
 14 15  1  0  0  0  0
 14 30  1  0  0  0  0
 14 31  1  0  0  0  0
 15 16  1  0  0  0  0
 15 32  1  0  0  0  0
 15 33  1  0  0  0  0
 16 17  1  0  0  0  0
 17 34  1  0  0  0  0
 17 35  1  0  0  0  0
M  END
> <s_m_source_file>
AV-unprocessed.smi

> <i_m_source_file_index>
568

> <i_lp_mmshare_version>
43012

> <i_f3d_flags>
0

> <s_epik_input>
W0NIM11jMW5vYyhbQ0gzXSljMVtDSDJdQyg9TylbTkhdW0NIMl1bQ0BASF0yW0NIMl1bQ0gyXU9bQ0gyXTI=

> <s_epik_cmdline>
J2VwaWtfcHl0aG9uJywgJy1waCcsICc3LjAnLCAnLXRuJywgJzgnLCAnLW1hJywgJzIwMCcsICctbWV0YWxfYmluZGluZycsICctaW1hZScsICc8aW5maWxlLm1hZT4nLCAnLW9tYWUnLCAnPG91dGZpbGUubWFlPic=

> <r_lp_tautomer_probability>
1

> <r_epik_Ionization_Penalty>
2.07075e-08

> <r_epik_Ionization_Penalty_Charging>
0

> <r_epik_Ionization_Penalty_Neutral>
2.07075e-08

> <r_epik_State_Penalty>
-0

> <r_epik_Charging_Adjusted_Penalty>
0

> <i_epik_Tot_Q>
0

> <i_epik_Tot_abs_Q>
0

> <r_epik_Metal_State_Penalty>
-0

> <b_epik_Metal_Only>
0

> <s_lp_Force_Field>
OPLS_2005

> <r_lp_Energy>
12.1953

> <b_lp_Chiralities_Consistent>
1

> <s_lp_Variant>
AV-unprocessed.smi:568-2

> <Gold.Version>
5.8.1

> <Gold.Id.Protein>
6NUR|6NUR_protein|mol2

> <Gold.PLP.Fitness>
36.7909

> <Gold.PLP.PLP>
-31.4626

> <Gold.PLP.part.hbond>
-2.1742

> <Gold.PLP.part.metal>
0.0000

> <Gold.PLP.part.buried>
-0.5967

> <Gold.PLP.part.nonpolar>
-30.7402

> <Gold.PLP.part.repulsive>
3.3100

> <Gold.PLP.ligand.clash>
0.0000

> <Gold.PLP.ligand.torsion>
0.3059

> <Gold.PLP.Chemscore.Hbond>
1.9750

> <Gold.PLP.Chemscore.CHOScore>
0.0000

> <Gold.PLP.Chemscore.Metal>
0.0000

> <Gold.Chemscore.Hbonds>
donor molecule, donor type, donor heavy atom, donor atom, acceptor molecule, acceptor atom, score
      L1  H    11    26       P1  8028  1.00
      P1  H  8011  8017       L1     3  0.96

> <Gold.PLP.Chemscore.Internal.Correction>
0.0150

> <Gold.Rescore>
     Score         DG    S(hbond)    S(metal)    S(lipo)     H(rot)  DE(clash)    DE(int)     intcor
     13.03     -17.77       1.54        0.00      94.95       1.56       2.95       1.79       ----

> <Gold.Chemscore.Fitness>
13.0273

> <Gold.Chemscore.DG>
-17.7680

> <Gold.Chemscore.ZeroCoef>
-5.4800

> <Gold.Chemscore.Hbond>
1.5449

> <Gold.Chemscore.Metal>
0.0000

> <Gold.Chemscore.Lipo>
94.9478

> <Gold.Chemscore.Internal_Hbond>
0.0000

> <Gold.Chemscore.DEClash>
2.9524

> <Gold.Chemscore.DEInternal>
1.7883

> <Gold.Chemscore.Rot>
1.5551

> <Gold.Chemscore.Internal.Correction>
   9.000000E+99

> <Gold.Chemscore.Hbonds>
donor molecule, donor type, donor heavy atom, donor atom, acceptor molecule, acceptor atom, score
      L1  H    11    26       P1  8028  1.00
      P1  H  8011  8017       L1     3  0.21

> <Gold.Chemscore.Hbond.Weighted>
-5.1601

> <Gold.Chemscore.Metal.Weighted>
-0.0000

> <Gold.Chemscore.Lipo.Weighted>
-11.1089

> <Gold.Chemscore.Internal_Hbond.Weighted>
0.0000

> <Gold.Chemscore.DEClash.Weighted>
2.9524

> <Gold.Chemscore.DEInternal.Weighted>
1.7883

> <Gold.Chemscore.Rot.Weighted>
3.9809

> <Gold.Chemscore.Internal.Correction.Weighted>
   9.000000E+99

> <Gold.Protein.RotatedTorsions>
[ 6907 6896 6895 6894 ] final -145.77 input  -60.11 | X-H torsion
[ 7974 7965 7964 7962 ] final  -45.64 input  175.53 | X-H torsion
[ 8008 7997 7996 7995 ] final  110.92 input   59.86 | X-H torsion
[ 10167 10162 10161 10158 ] final -119.22 input  -65.29 | X-H torsion
[ 10718 10713 10712 10709 ] final  173.20 input   66.30 | X-H torsion
[ 10763 10752 10751 10750 ] final -175.01 input  -60.55 | X-H torsion
[ 11005 11000 10999 10996 ] final -160.19 input  -57.11 | X-H torsion

> <Gold.Protein.ActiveResidues>
 VAL166  LYS551  ARG553  GLY616  TRP617  ASP618  TYR619  PRO620  LYS621  CYS622 
 ASP623  PHE694  ASN695  SER759  ASP760  ASP761  ALA762  ILE779  LEU786  VAL792 
 PHE793  MET794  SER795  GLU796  ALA797  LYS798  CYS799  TRP800  GLU811  SER814 

> <Gold.Protein.RotatedAtoms>
  151.1324  133.5027  159.2598 H   0  0  0  0  0  0  0  0  0  0  0  0  # atno 6907 bound_to 6896
  151.1743  135.0332  159.8775 H   0  0  0  0  0  0  0  0  0  0  0  0  # atno 6908 bound_to 6896
  152.5460  134.1184  159.8441 H   0  0  0  0  0  0  0  0  0  0  0  0  # atno 6909 bound_to 6896
  145.9800  140.7293  142.9368 H   0  0  0  0  0  0  0  0  0  0  0  0  # atno 7974 bound_to 7965
  156.2087  140.3029  155.9685 H   0  0  0  0  0  0  0  0  0  0  0  0  # atno 8008 bound_to 7997
  155.2776  140.0436  157.3030 H   0  0  0  0  0  0  0  0  0  0  0  0  # atno 8009 bound_to 7997
  154.5670  140.2337  155.8258 H   0  0  0  0  0  0  0  0  0  0  0  0  # atno 8010 bound_to 7997
  140.0490  143.5078  152.2091 H   0  0  0  0  0  0  0  0  0  0  0  0  # atno 10167 bound_to 10162
  156.9677  131.0080  151.2912 H   0  0  0  0  0  0  0  0  0  0  0  0  # atno 10718 bound_to 10713
  154.5894  135.2843  155.0651 H   0  0  0  0  0  0  0  0  0  0  0  0  # atno 10763 bound_to 10752
  154.1957  135.6433  153.5076 H   0  0  0  0  0  0  0  0  0  0  0  0  # atno 10764 bound_to 10752
  153.0116  135.5457  154.6575 H   0  0  0  0  0  0  0  0  0  0  0  0  # atno 10765 bound_to 10752
  140.6343  134.4618  157.5231 H   0  0  0  0  0  0  0  0  0  0  0  0  # atno 11005 bound_to 11000
  144.6859  140.2892  143.7280 LP  0  0  0  0  0  0  0  0  0  0  0  0  # atno 17320 bound_to 7965
  145.7783  139.1882  143.2172 LP  0  0  0  0  0  0  0  0  0  0  0  0  # atno 17321 bound_to 7965
  139.5965  144.7568  151.3274 LP  0  0  0  0  0  0  0  0  0  0  0  0  # atno 17342 bound_to 10162
  140.7225  143.7095  150.7780 LP  0  0  0  0  0  0  0  0  0  0  0  0  # atno 17343 bound_to 10162
  157.5614  130.8248  149.8271 LP  0  0  0  0  0  0  0  0  0  0  0  0  # atno 17370 bound_to 10713
  156.0296  130.3769  150.1726 LP  0  0  0  0  0  0  0  0  0  0  0  0  # atno 17371 bound_to 10713
  139.9104  134.8357  156.1549 LP  0  0  0  0  0  0  0  0  0  0  0  0  # atno 17394 bound_to 11000
  141.0653  133.6822  156.2032 LP  0  0  0  0  0  0  0  0  0  0  0  0  # atno 17395 bound_to 11000

$$$$
