AV-unprocessed.smi:2921|AV-procd|sdf|11197|dock4
  -GOLD-   2272016 83D 1   1.00000     0.00000
 Structure written by MMmdl.
 41 42  0  0  0  0  0  0  0  0  1 V2000
  150.5216  137.0286  155.2569 C   0  0  0  0  0  0  0  0  0  0  0  0
  150.9881  138.1711  154.3415 C   0  0  0  0  0  0  0  0  0  0  0  0
  152.4090  138.6430  154.6918 C   0  0  0  0  0  0  0  0  0  0  0  0
  150.0385  139.2796  154.3653 N   0  0  0  0  0  0  0  0  0  0  0  0
  150.4339  140.5028  154.7899 N   0  0  0  0  0  0  0  0  0  0  0  0
  149.3547  141.2686  154.7034 C   0  0  0  0  0  0  0  0  0  0  0  0
  148.2121  140.5675  154.2256 C   0  0  0  0  0  0  0  0  0  0  0  0
  148.6998  139.3046  154.0259 C   0  0  0  0  0  0  0  0  0  0  0  0
  148.0386  138.2018  153.5837 N   0  0  0  0  0  0  0  0  0  0  0  0
  146.7297  137.9102  153.6807 C   0  0  0  0  0  0  0  0  0  0  0  0
  145.8757  138.6217  154.2100 O   0  0  0  0  0  0  0  0  0  0  0  0
  146.4553  136.7305  153.1064 N   0  0  0  0  0  0  0  0  0  0  0  0
  145.1258  136.1408  152.9901 C   0  0  0  0  0  0  0  0  0  0  0  0
  144.6795  135.9453  151.5276 C   0  0  0  0  0  0  0  0  0  0  0  0
  145.0270  134.5849  150.9458 C   0  0  0  0  0  0  0  0  0  0  0  0
  146.2517  134.0785  150.8057 C   0  0  0  0  0  0  0  0  0  0  0  0
  146.2457  132.6909  150.2258 C   0  0  0  0  0  0  0  0  0  0  0  0
  144.7454  132.3498  150.0923 C   0  0  0  0  0  0  0  0  0  0  0  0
  143.9607  133.6189  150.4921 C   0  0  0  0  0  0  0  0  0  0  0  0
  151.1963  136.1746  155.1914 H   0  0  0  0  0  0  0  0  0  0  0  0
  149.5257  136.6838  154.9766 H   0  0  0  0  0  0  0  0  0  0  0  0
  150.4843  137.3417  156.3007 H   0  0  0  0  0  0  0  0  0  0  0  0
  151.0209  137.7818  153.3238 H   0  0  0  0  0  0  0  0  0  0  0  0
  153.1265  137.8281  154.5921 H   0  0  0  0  0  0  0  0  0  0  0  0
  152.4703  139.0116  155.7163 H   0  0  0  0  0  0  0  0  0  0  0  0
  152.7295  139.4464  154.0281 H   0  0  0  0  0  0  0  0  0  0  0  0
  149.4313  142.3062  154.9932 H   0  0  0  0  0  0  0  0  0  0  0  0
  147.2131  140.9451  154.0686 H   0  0  0  0  0  0  0  0  0  0  0  0
  148.6081  137.5265  153.0959 H   0  0  0  0  0  0  0  0  0  0  0  0
  147.2183  136.2109  152.6979 H   0  0  0  0  0  0  0  0  0  0  0  0
  145.1245  135.1827  153.5106 H   0  0  0  0  0  0  0  0  0  0  0  0
  144.4060  136.7718  153.5140 H   0  0  0  0  0  0  0  0  0  0  0  0
  143.5967  136.0654  151.4791 H   0  0  0  0  0  0  0  0  0  0  0  0
  145.0965  136.7225  150.8862 H   0  0  0  0  0  0  0  0  0  0  0  0
  147.1685  134.5835  151.0720 H   0  0  0  0  0  0  0  0  0  0  0  0
  146.7482  132.6906  149.2582 H   0  0  0  0  0  0  0  0  0  0  0  0
  146.7620  131.9951  150.8879 H   0  0  0  0  0  0  0  0  0  0  0  0
  144.5000  132.0367  149.0769 H   0  0  0  0  0  0  0  0  0  0  0  0
  144.4867  131.5242  150.7564 H   0  0  0  0  0  0  0  0  0  0  0  0
  143.2525  133.4200  151.2970 H   0  0  0  0  0  0  0  0  0  0  0  0
  143.4146  134.0207  149.6395 H   0  0  0  0  0  0  0  0  0  0  0  0
  1  2  1  0  0  0  0
  1 20  1  0  0  0  0
  1 21  1  0  0  0  0
  1 22  1  0  0  0  0
  2  3  1  0  0  0  0
  2  4  1  0  0  0  0
  2 23  1  0  0  0  0
  3 24  1  0  0  0  0
  3 25  1  0  0  0  0
  3 26  1  0  0  0  0
  4  8  1  0  0  0  0
  4  5  1  0  0  0  0
  5  6  2  0  0  0  0
  6  7  1  0  0  0  0
  6 27  1  0  0  0  0
  7  8  2  0  0  0  0
  7 28  1  0  0  0  0
  8  9  1  0  0  0  0
  9 10  1  0  0  0  0
  9 29  1  0  0  0  0
 10 11  2  0  0  0  0
 10 12  1  0  0  0  0
 12 13  1  0  0  0  0
 12 30  1  0  0  0  0
 13 14  1  0  0  0  0
 13 31  1  0  0  0  0
 13 32  1  0  0  0  0
 14 15  1  0  0  0  0
 14 33  1  0  0  0  0
 14 34  1  0  0  0  0
 15 19  1  0  0  0  0
 15 16  2  0  0  0  0
 16 17  1  0  0  0  0
 16 35  1  0  0  0  0
 17 18  1  0  0  0  0
 17 36  1  0  0  0  0
 17 37  1  0  0  0  0
 18 19  1  0  0  0  0
 18 38  1  0  0  0  0
 18 39  1  0  0  0  0
 19 40  1  0  0  0  0
 19 41  1  0  0  0  0
M  END
> <s_m_source_file>
AV-unprocessed.smi

> <i_m_source_file_index>
2921

> <i_lp_mmshare_version>
43012

> <i_f3d_flags>
0

> <s_epik_input>
W0NIM11bQ0hdKFtDSDNdKW4xbltjSF1bY0hdYzFbTkhdQyg9TylbTkhdW0NIMl1bQ0gyXUMyPVtDSF1bQ0gyXVtDSDJdW0NIMl0y

> <s_epik_cmdline>
J2VwaWtfcHl0aG9uJywgJy1waCcsICc3LjAnLCAnLXRuJywgJzgnLCAnLW1hJywgJzIwMCcsICctbWV0YWxfYmluZGluZycsICctaW1hZScsICc8aW5maWxlLm1hZT4nLCAnLW9tYWUnLCAnPG91dGZpbGUubWFlPic=

> <r_lp_tautomer_probability>
1

> <r_epik_Ionization_Penalty>
4.14613e-05

> <r_epik_Ionization_Penalty_Charging>
0

> <r_epik_Ionization_Penalty_Neutral>
4.14613e-05

> <r_epik_State_Penalty>
-0

> <r_epik_Charging_Adjusted_Penalty>
0

> <i_epik_Tot_Q>
0

> <i_epik_Tot_abs_Q>
0

> <r_epik_Metal_State_Penalty>
-0

> <b_epik_Metal_Only>
0

> <s_lp_Force_Field>
OPLS_2005

> <r_lp_Energy>
26.255

> <b_lp_Chiralities_Consistent>
1

> <s_lp_Variant>
AV-unprocessed.smi:2921-1

> <Gold.Version>
5.8.1

> <Gold.Id.Protein>
6NUR|6NUR_protein|mol2

> <Gold.PLP.Fitness>
49.2552

> <Gold.PLP.PLP>
-38.2443

> <Gold.PLP.part.hbond>
-3.0000

> <Gold.PLP.part.metal>
0.0000

> <Gold.PLP.part.buried>
-3.8721

> <Gold.PLP.part.nonpolar>
-31.3205

> <Gold.PLP.part.repulsive>
0.2318

> <Gold.PLP.ligand.clash>
0.0000

> <Gold.PLP.ligand.torsion>
0.3905

> <Gold.PLP.Chemscore.Hbond>
2.9760

> <Gold.PLP.Chemscore.CHOScore>
0.9357

> <Gold.PLP.Chemscore.Metal>
0.0000

> <Gold.Chemscore.Hbonds>
donor molecule, donor type, donor heavy atom, donor atom, acceptor molecule, acceptor atom, score
      L1  H     9    29       P1  7948  1.00
      L1  H    12    30       P1  7948  0.98
      P1  H  7989  7998       L1     5  0.95
      L1  C     6    27       P1  8028  0.94

> <Gold.PLP.Chemscore.Internal.Correction>
0.0567

> <Gold.Rescore>
     Score         DG    S(hbond)    S(metal)    S(lipo)     H(rot)  DE(clash)    DE(int)     intcor
     17.82     -19.20       2.26        0.00      85.69       1.50       0.14       1.24       ----

> <Gold.Chemscore.Fitness>
17.8215

> <Gold.Chemscore.DG>
-19.1980

> <Gold.Chemscore.ZeroCoef>
-5.4800

> <Gold.Chemscore.Hbond>
2.2564

> <Gold.Chemscore.Metal>
0.0000

> <Gold.Chemscore.Lipo>
85.6939

> <Gold.Chemscore.Internal_Hbond>
0.0000

> <Gold.Chemscore.DEClash>
0.1354

> <Gold.Chemscore.DEInternal>
1.2411

> <Gold.Chemscore.Rot>
1.5018

> <Gold.Chemscore.Internal.Correction>
   9.000000E+99

> <Gold.Chemscore.Hbonds>
donor molecule, donor type, donor heavy atom, donor atom, acceptor molecule, acceptor atom, score
      L1  H     9    29       P1  7948  0.99
      L1  H    12    30       P1  7948  0.93
      P1  H  7989  7998       L1     5  0.16

> <Gold.Chemscore.Hbond.Weighted>
-7.5364

> <Gold.Chemscore.Metal.Weighted>
-0.0000

> <Gold.Chemscore.Lipo.Weighted>
-10.0262

> <Gold.Chemscore.Internal_Hbond.Weighted>
0.0000

> <Gold.Chemscore.DEClash.Weighted>
0.1354

> <Gold.Chemscore.DEInternal.Weighted>
1.2411

> <Gold.Chemscore.Rot.Weighted>
3.8446

> <Gold.Chemscore.Internal.Correction.Weighted>
   9.000000E+99

> <Gold.Protein.RotatedTorsions>
[ 6907 6896 6895 6894 ] final  -12.46 input  -60.11 | X-H torsion
[ 7974 7965 7964 7962 ] final  -27.76 input  175.53 | X-H torsion
[ 8008 7997 7996 7995 ] final -113.98 input   59.86 | X-H torsion
[ 10167 10162 10161 10158 ] final  172.76 input  -65.29 | X-H torsion
[ 10718 10713 10712 10709 ] final  -12.47 input   66.30 | X-H torsion
[ 10763 10752 10751 10750 ] final   39.17 input  -60.55 | X-H torsion
[ 11005 11000 10999 10996 ] final -117.72 input  -57.11 | X-H torsion

> <Gold.Protein.ActiveResidues>
 VAL166  LYS551  ARG553  GLY616  TRP617  ASP618  TYR619  PRO620  LYS621  CYS622 
 ASP623  PHE694  ASN695  SER759  ASP760  ASP761  ALA762  ILE779  LEU786  VAL792 
 PHE793  MET794  SER795  GLU796  ALA797  LYS798  CYS799  TRP800  GLU811  SER814 

> <Gold.Protein.RotatedAtoms>
  151.3701  135.0921  159.9462 H   0  0  0  0  0  0  0  0  0  0  0  0  # atno 6907 bound_to 6896
  152.5138  133.9173  159.7527 H   0  0  0  0  0  0  0  0  0  0  0  0  # atno 6908 bound_to 6896
  150.9585  133.6416  159.2788 H   0  0  0  0  0  0  0  0  0  0  0  0  # atno 6909 bound_to 6896
  146.1335  140.5194  142.8683 H   0  0  0  0  0  0  0  0  0  0  0  0  # atno 7974 bound_to 7965
  155.0292  140.0393  157.2467 H   0  0  0  0  0  0  0  0  0  0  0  0  # atno 8008 bound_to 7997
  154.7311  140.2731  155.6431 H   0  0  0  0  0  0  0  0  0  0  0  0  # atno 8009 bound_to 7997
  156.2841  140.2684  156.2011 H   0  0  0  0  0  0  0  0  0  0  0  0  # atno 8010 bound_to 7997
  139.5087  144.3337  152.0086 H   0  0  0  0  0  0  0  0  0  0  0  0  # atno 10167 bound_to 10162
  156.6442  130.4936  149.6084 H   0  0  0  0  0  0  0  0  0  0  0  0  # atno 10718 bound_to 10713
  152.9976  135.6228  154.2422 H   0  0  0  0  0  0  0  0  0  0  0  0  # atno 10763 bound_to 10752
  154.2162  135.2798  155.2942 H   0  0  0  0  0  0  0  0  0  0  0  0  # atno 10764 bound_to 10752
  154.5566  135.5717  153.7028 H   0  0  0  0  0  0  0  0  0  0  0  0  # atno 10765 bound_to 10752
  141.0335  133.9945  157.3106 H   0  0  0  0  0  0  0  0  0  0  0  0  # atno 11005 bound_to 11000
  144.7715  140.5649  143.6666 LP  0  0  0  0  0  0  0  0  0  0  0  0  # atno 17320 bound_to 7965
  145.5207  139.1477  143.3554 LP  0  0  0  0  0  0  0  0  0  0  0  0  # atno 17321 bound_to 7965
  140.2776  144.3895  150.6129 LP  0  0  0  0  0  0  0  0  0  0  0  0  # atno 17342 bound_to 10162
  140.6042  143.2167  151.7014 LP  0  0  0  0  0  0  0  0  0  0  0  0  # atno 17343 bound_to 10162
  156.2135  130.6693  151.1294 LP  0  0  0  0  0  0  0  0  0  0  0  0  # atno 17370 bound_to 10713
  157.7161  131.0708  150.6319 LP  0  0  0  0  0  0  0  0  0  0  0  0  # atno 17371 bound_to 10713
  139.9224  135.0201  156.8113 LP  0  0  0  0  0  0  0  0  0  0  0  0  # atno 17394 bound_to 11000
  140.6364  133.9858  155.7686 LP  0  0  0  0  0  0  0  0  0  0  0  0  # atno 17395 bound_to 11000

$$$$
