AV-unprocessed.smi:1492|AV-procd|sdf|6044|dock7
  -GOLD-   22720 6153D 1   1.00000     0.00000
 Structure written by MMmdl.
 51 52  0  0  0  0  0  0  0  0  2 V2000
  149.0023  132.9504  152.5519 C   0  0  0  0  0  0  0  0  0  0  0  0
  148.6455  133.7903  153.7902 C   0  0  0  0  0  0  0  0  0  0  0  0
  149.7104  133.7831  154.9371 C   0  0  1  0  0  0  0  0  0  0  0  0
  150.1654  132.3087  155.1033 C   0  0  0  0  0  0  0  0  0  0  0  0
  150.9498  134.6250  154.4787 C   0  0  0  0  0  0  0  0  0  0  0  0
  150.6337  136.0071  154.1288 N   0  0  0  0  0  0  0  0  0  0  0  0
  151.2223  137.1109  154.6129 C   0  0  0  0  0  0  0  0  0  0  0  0
  152.0400  137.1043  155.5329 O   0  0  0  0  0  0  0  0  0  0  0  0
  150.8505  138.4218  153.9191 C   0  0  0  0  0  0  0  0  0  0  0  0
  150.8602  139.6497  154.8311 C   0  0  0  0  0  0  0  0  0  0  0  0
  149.7541  140.4108  155.0697 C   0  0  0  0  0  0  0  0  0  0  0  0
  148.4043  140.1284  154.4338 C   0  0  0  0  0  0  0  0  0  0  0  0
  149.8032  141.5117  155.9416 N   0  0  0  0  0  0  0  0  0  0  0  0
  150.9014  141.8010  156.5287 C   0  0  0  0  0  0  0  0  0  0  0  0
  150.9487  142.9846  157.4710 C   0  0  0  0  0  0  0  0  0  0  0  0
  152.0719  141.0958  156.3605 N   0  5  0  0  0  0  0  0  0  0  0  0
  152.1063  140.0168  155.5285 C   0  0  0  0  0  0  0  0  0  0  0  0
  153.1279  139.3508  155.3644 O   0  0  0  0  0  0  0  0  0  0  0  0
  149.1482  134.3424  156.2036 N   0  0  0  0  0  0  0  0  0  0  0  0
  147.9505  133.6618  156.7152 C   0  0  0  0  0  0  0  0  0  0  0  0
  147.3592  134.3699  157.9456 C   0  0  0  0  0  0  0  0  0  0  0  0
  148.3459  134.4632  158.9648 O   0  0  0  0  0  0  0  0  0  0  0  0
  149.4994  135.1735  158.5336 C   0  0  0  0  0  0  0  0  0  0  0  0
  150.1108  134.4783  157.3050 C   0  0  0  0  0  0  0  0  0  0  0  0
  148.2236  133.0395  151.7944 H   0  0  0  0  0  0  0  0  0  0  0  0
  149.0958  131.8920  152.7944 H   0  0  0  0  0  0  0  0  0  0  0  0
  149.9388  133.2769  152.0999 H   0  0  0  0  0  0  0  0  0  0  0  0
  148.4311  134.8101  153.4729 H   0  0  0  0  0  0  0  0  0  0  0  0
  147.6807  133.4456  154.1635 H   0  0  0  0  0  0  0  0  0  0  0  0
  150.5164  131.8892  154.1606 H   0  0  0  0  0  0  0  0  0  0  0  0
  149.3559  131.6606  155.4367 H   0  0  0  0  0  0  0  0  0  0  0  0
  150.9850  132.2097  155.8146 H   0  0  0  0  0  0  0  0  0  0  0  0
  151.6923  134.6583  155.2765 H   0  0  0  0  0  0  0  0  0  0  0  0
  151.4506  134.1584  153.6302 H   0  0  0  0  0  0  0  0  0  0  0  0
  149.9683  136.1335  153.3790 H   0  0  0  0  0  0  0  0  0  0  0  0
  151.5124  138.5659  153.0645 H   0  0  0  0  0  0  0  0  0  0  0  0
  149.8562  138.3140  153.4851 H   0  0  0  0  0  0  0  0  0  0  0  0
  148.4613  140.2440  153.3515 H   0  0  0  0  0  0  0  0  0  0  0  0
  147.6422  140.8145  154.8049 H   0  0  0  0  0  0  0  0  0  0  0  0
  148.0762  139.1137  154.6588 H   0  0  0  0  0  0  0  0  0  0  0  0
  151.6139  143.7537  157.0773 H   0  0  0  0  0  0  0  0  0  0  0  0
  151.3178  142.6753  158.4493 H   0  0  0  0  0  0  0  0  0  0  0  0
  149.9583  143.4221  157.6034 H   0  0  0  0  0  0  0  0  0  0  0  0
  147.1675  133.6231  155.9612 H   0  0  0  0  0  0  0  0  0  0  0  0
  148.1851  132.6321  156.9849 H   0  0  0  0  0  0  0  0  0  0  0  0
  147.0001  135.3660  157.6820 H   0  0  0  0  0  0  0  0  0  0  0  0
  146.5045  133.8124  158.3284 H   0  0  0  0  0  0  0  0  0  0  0  0
  149.2345  136.2059  158.3007 H   0  0  0  0  0  0  0  0  0  0  0  0
  150.2223  135.2051  159.3487 H   0  0  0  0  0  0  0  0  0  0  0  0
  150.4820  133.4980  157.6040 H   0  0  0  0  0  0  0  0  0  0  0  0
  150.9746  135.0660  157.0019 H   0  0  0  0  0  0  0  0  0  0  0  0
  1  2  1  0  0  0  0
  1 25  1  0  0  0  0
  1 26  1  0  0  0  0
  1 27  1  0  0  0  0
  2  3  1  0  0  0  0
  2 28  1  0  0  0  0
  2 29  1  0  0  0  0
  3  4  1  0  0  0  0
  3  5  1  0  0  0  0
  3 19  1  0  0  0  0
  4 30  1  0  0  0  0
  4 31  1  0  0  0  0
  4 32  1  0  0  0  0
  5  6  1  0  0  0  0
  5 33  1  0  0  0  0
  5 34  1  0  0  0  0
  6  7  1  0  0  0  0
  6 35  1  0  0  0  0
  7  8  2  0  0  0  0
  7  9  1  0  0  0  0
  9 10  1  0  0  0  0
  9 36  1  0  0  0  0
  9 37  1  0  0  0  0
 10 17  1  0  0  0  0
 10 11  2  0  0  0  0
 11 12  1  0  0  0  0
 11 13  1  0  0  0  0
 12 38  1  0  0  0  0
 12 39  1  0  0  0  0
 12 40  1  0  0  0  0
 13 14  2  0  0  0  0
 14 15  1  0  0  0  0
 14 16  1  0  0  0  0
 15 41  1  0  0  0  0
 15 42  1  0  0  0  0
 15 43  1  0  0  0  0
 16 17  1  0  0  0  0
 17 18  2  0  0  0  0
 19 24  1  0  0  0  0
 19 20  1  0  0  0  0
 20 21  1  0  0  0  0
 20 44  1  0  0  0  0
 20 45  1  0  0  0  0
 21 22  1  0  0  0  0
 21 46  1  0  0  0  0
 21 47  1  0  0  0  0
 22 23  1  0  0  0  0
 23 24  1  0  0  0  0
 23 48  1  0  0  0  0
 23 49  1  0  0  0  0
 24 50  1  0  0  0  0
 24 51  1  0  0  0  0
M  CHG  1  16  -1
M  END
> <s_m_source_file>
AV-unprocessed.smi

> <i_m_source_file_index>
1492

> <i_lp_mmshare_version>
43012

> <i_f3d_flags>
0

> <s_epik_input>
W0NIMl0xW0NIMl1PW0NIMl1bQ0gyXU4xW0NAQF0oW0NIM10pKFtDSDJdW0NIM10pW0NIMl1bTkhdQyg9TylbQ0gyXWMyYyhbQ0gzXSluYyhbQ0gzXSlbbkhdYzI9Tw==

> <s_epik_cmdline>
J2VwaWtfcHl0aG9uJywgJy1waCcsICc3LjAnLCAnLXRuJywgJzgnLCAnLW1hJywgJzIwMCcsICctbWV0YWxfYmluZGluZycsICctaW1hZScsICc8aW5maWxlLm1hZT4nLCAnLW9tYWUnLCAnPG91dGZpbGUubWFlPic=

> <r_lp_tautomer_probability>
0.839158

> <r_epik_Ionization_Penalty>
6.88574

> <r_epik_Ionization_Penalty_Charging>
6.74373e-08

> <r_epik_Ionization_Penalty_Neutral>
6.88574

> <r_epik_State_Penalty>
4.79448

> <r_epik_Charging_Adjusted_Penalty>
4.79448

> <i_epik_Tot_Q>
-1

> <i_epik_Tot_abs_Q>
1

> <r_epik_Metal_State_Penalty>
1.16421

> <b_epik_Metal_Only>
1

> <s_lp_Force_Field>
OPLS_2005

> <r_lp_Energy>
44.9842

> <b_lp_Chiralities_Consistent>
1

> <s_lp_Variant>
AV-unprocessed.smi:1492-9

> <Gold.Version>
5.8.1

> <Gold.Id.Protein>
6NUR|6NUR_protein|mol2

> <Gold.PLP.Fitness>
37.7699

> <Gold.PLP.PLP>
-32.7908

> <Gold.PLP.part.hbond>
-3.1425

> <Gold.PLP.part.metal>
0.0000

> <Gold.PLP.part.buried>
1.1375

> <Gold.PLP.part.nonpolar>
-30.4635

> <Gold.PLP.part.repulsive>
0.1941

> <Gold.PLP.ligand.clash>
0.0000

> <Gold.PLP.ligand.torsion>
0.5776

> <Gold.PLP.Chemscore.Hbond>
2.0000

> <Gold.PLP.Chemscore.CHOScore>
0.0000

> <Gold.PLP.Chemscore.Metal>
0.0000

> <Gold.Chemscore.Hbonds>
donor molecule, donor type, donor heavy atom, donor atom, acceptor molecule, acceptor atom, score
      L1  H     6    35       P1  7948  0.55
      P1  H  7997  8008       L1    18  1.00
      P1  H 10752 10765       L1     8  0.19

> <Gold.PLP.Chemscore.Internal.Correction>
0.1343

> <Gold.Rescore>
     Score         DG    S(hbond)    S(metal)    S(lipo)     H(rot)  DE(clash)    DE(int)     intcor
     12.25     -13.10       1.84        0.00      57.54       2.05       0.02       0.84       ----

> <Gold.Chemscore.Fitness>
12.2466

> <Gold.Chemscore.DG>
-13.1048

> <Gold.Chemscore.ZeroCoef>
-5.4800

> <Gold.Chemscore.Hbond>
1.8356

> <Gold.Chemscore.Metal>
0.0000

> <Gold.Chemscore.Lipo>
57.5385

> <Gold.Chemscore.Internal_Hbond>
0.0000

> <Gold.Chemscore.DEClash>
0.0192

> <Gold.Chemscore.DEInternal>
0.8390

> <Gold.Chemscore.Rot>
2.0461

> <Gold.Chemscore.Internal.Correction>
   9.000000E+99

> <Gold.Chemscore.Hbonds>
donor molecule, donor type, donor heavy atom, donor atom, acceptor molecule, acceptor atom, score
      L1  H     6    35       P1  7948  0.03
      P1  H  7997  8008       L1    18  0.65
      P1  H 10752 10765       L1     8  0.14

> <Gold.Chemscore.Hbond.Weighted>
-6.1308

> <Gold.Chemscore.Metal.Weighted>
-0.0000

> <Gold.Chemscore.Lipo.Weighted>
-6.7320

> <Gold.Chemscore.Internal_Hbond.Weighted>
0.0000

> <Gold.Chemscore.DEClash.Weighted>
0.0192

> <Gold.Chemscore.DEInternal.Weighted>
0.8390

> <Gold.Chemscore.Rot.Weighted>
5.2381

> <Gold.Chemscore.Internal.Correction.Weighted>
   9.000000E+99

> <Gold.Protein.RotatedTorsions>
[ 6907 6896 6895 6894 ] final  173.17 input  -60.11 | X-H torsion
[ 7974 7965 7964 7962 ] final  -12.58 input  175.53 | X-H torsion
[ 8008 7997 7996 7995 ] final  -29.50 input   59.86 | X-H torsion
[ 10167 10162 10161 10158 ] final  117.95 input  -65.29 | X-H torsion
[ 10718 10713 10712 10709 ] final  -72.17 input   66.30 | X-H torsion
[ 10763 10752 10751 10750 ] final -124.00 input  -60.55 | X-H torsion
[ 11005 11000 10999 10996 ] final  -28.09 input  -57.11 | X-H torsion

> <Gold.Protein.ActiveResidues>
 VAL166  LYS551  ARG553  GLY616  TRP617  ASP618  TYR619  PRO620  LYS621  CYS622 
 ASP623  PHE694  ASN695  SER759  ASP760  ASP761  ALA762  ILE779  LEU786  VAL792 
 PHE793  MET794  SER795  GLU796  ALA797  LYS798  CYS799  TRP800  GLU811  SER814 

> <Gold.Protein.RotatedAtoms>
  151.7727  133.3342  159.3448 H   0  0  0  0  0  0  0  0  0  0  0  0  # atno 6907 bound_to 6896
  150.7456  134.6004  159.6043 H   0  0  0  0  0  0  0  0  0  0  0  0  # atno 6908 bound_to 6896
  152.3330  134.7236  160.0336 H   0  0  0  0  0  0  0  0  0  0  0  0  # atno 6909 bound_to 6896
  146.2146  140.3078  142.8380 H   0  0  0  0  0  0  0  0  0  0  0  0  # atno 7974 bound_to 7965
  154.4287  140.1816  156.1257 H   0  0  0  0  0  0  0  0  0  0  0  0  # atno 8008 bound_to 7997
  156.0107  140.3351  155.6913 H   0  0  0  0  0  0  0  0  0  0  0  0  # atno 8009 bound_to 7997
  155.6114  140.0650  157.2695 H   0  0  0  0  0  0  0  0  0  0  0  0  # atno 8010 bound_to 7997
  139.6144  144.7089  151.2773 H   0  0  0  0  0  0  0  0  0  0  0  0  # atno 10167 bound_to 10162
  156.0331  130.4366  150.2553 H   0  0  0  0  0  0  0  0  0  0  0  0  # atno 10718 bound_to 10713
  154.8717  135.4079  154.3035 H   0  0  0  0  0  0  0  0  0  0  0  0  # atno 10763 bound_to 10752
  153.3890  135.7014  153.6514 H   0  0  0  0  0  0  0  0  0  0  0  0  # atno 10764 bound_to 10752
  153.5305  135.3668  155.2645 H   0  0  0  0  0  0  0  0  0  0  0  0  # atno 10765 bound_to 10752
  140.9178  133.7419  156.0758 H   0  0  0  0  0  0  0  0  0  0  0  0  # atno 11005 bound_to 11000
  144.9010  140.7642  143.5867 LP  0  0  0  0  0  0  0  0  0  0  0  0  # atno 17320 bound_to 7965
  145.3004  139.1852  143.4692 LP  0  0  0  0  0  0  0  0  0  0  0  0  # atno 17321 bound_to 7965
  140.7341  143.6776  150.8028 LP  0  0  0  0  0  0  0  0  0  0  0  0  # atno 17342 bound_to 10162
  140.0376  143.5379  152.2732 LP  0  0  0  0  0  0  0  0  0  0  0  0  # atno 17343 bound_to 10162
  157.0654  131.0101  151.3208 LP  0  0  0  0  0  0  0  0  0  0  0  0  # atno 17370 bound_to 10713
  157.5039  130.7897  149.7634 LP  0  0  0  0  0  0  0  0  0  0  0  0  # atno 17371 bound_to 10713
  140.8028  134.3489  157.5434 LP  0  0  0  0  0  0  0  0  0  0  0  0  # atno 17394 bound_to 11000
  139.8769  134.9208  156.3259 LP  0  0  0  0  0  0  0  0  0  0  0  0  # atno 17395 bound_to 11000

$$$$
