AV-unprocessed.smi:2972|AV-procd|sdf|11336|dock4
  -GOLD-   2272016243D 1   1.00000     0.00000
 Structure written by MMmdl.
 33 34  0  0  0  0  0  0  0  0  1 V2000
  150.8747  140.8482  156.5211 O   0  0  0  0  0  0  0  0  0  0  0  0
  150.2516  141.8993  156.3682 C   0  0  0  0  0  0  0  0  0  0  0  0
  149.2179  142.0757  155.5262 N   0  0  0  0  0  0  0  0  0  0  0  0
  148.6279  141.1268  154.6491 C   0  0  0  0  0  0  0  0  0  0  0  0
  147.4941  141.5894  153.9430 C   0  0  0  0  0  0  0  0  0  0  0  0
  146.8354  140.7251  153.0468 C   0  0  0  0  0  0  0  0  0  0  0  0
  147.3293  139.4188  152.8810 C   0  0  0  0  0  0  0  0  0  0  0  0
  146.5648  138.3144  151.7981 Cl  0  0  0  0  0  0  0  0  0  0  0  0
  148.4632  139.0367  153.6216 C   0  0  0  0  0  0  0  0  0  0  0  0
  149.0954  139.8643  154.4805 N   0  0  0  0  0  0  0  0  0  0  0  0
  150.5290  143.0277  157.0381 N   0  0  0  0  0  0  0  0  0  0  0  0
  151.5920  143.1820  158.0272 C   0  0  0  0  0  0  0  0  0  0  0  0
  151.6532  141.9524  158.9574 C   0  0  0  0  0  0  0  0  0  0  0  0
  152.7150  142.1297  160.0549 C   0  0  0  0  0  0  0  0  0  0  0  0
  152.4775  143.4176  160.8590 C   0  0  0  0  0  0  0  0  0  0  0  0
  152.4218  144.6449  159.9359 C   0  0  0  0  0  0  0  0  0  0  0  0
  151.3587  144.4702  158.8392 C   0  0  0  0  0  0  0  0  0  0  0  0
  148.8050  142.9963  155.5108 H   0  0  0  0  0  0  0  0  0  0  0  0
  147.1287  142.5963  154.0835 H   0  0  0  0  0  0  0  0  0  0  0  0
  145.9677  141.0608  152.4983 H   0  0  0  0  0  0  0  0  0  0  0  0
  148.8747  138.0429  153.5238 H   0  0  0  0  0  0  0  0  0  0  0  0
  149.9645  143.8432  156.8500 H   0  0  0  0  0  0  0  0  0  0  0  0
  152.5476  143.2792  157.5079 H   0  0  0  0  0  0  0  0  0  0  0  0
  150.6787  141.7908  159.4209 H   0  0  0  0  0  0  0  0  0  0  0  0
  151.8733  141.0530  158.3812 H   0  0  0  0  0  0  0  0  0  0  0  0
  152.7069  141.2675  160.7225 H   0  0  0  0  0  0  0  0  0  0  0  0
  153.7064  142.1596  159.6010 H   0  0  0  0  0  0  0  0  0  0  0  0
  151.5424  143.3348  161.4144 H   0  0  0  0  0  0  0  0  0  0  0  0
  153.2673  143.5449  161.5999 H   0  0  0  0  0  0  0  0  0  0  0  0
  152.2087  145.5404  160.5203 H   0  0  0  0  0  0  0  0  0  0  0  0
  153.3984  144.8008  159.4759 H   0  0  0  0  0  0  0  0  0  0  0  0
  151.3699  145.3370  158.1773 H   0  0  0  0  0  0  0  0  0  0  0  0
  150.3692  144.4447  159.2983 H   0  0  0  0  0  0  0  0  0  0  0  0
  1  2  2  0  0  0  0
  2  3  1  0  0  0  0
  2 11  1  0  0  0  0
  3  4  1  0  0  0  0
  3 18  1  0  0  0  0
  4 10  1  0  0  0  0
  4  5  2  0  0  0  0
  5  6  1  0  0  0  0
  5 19  1  0  0  0  0
  6  7  2  0  0  0  0
  6 20  1  0  0  0  0
  7  8  1  0  0  0  0
  7  9  1  0  0  0  0
  9 10  2  0  0  0  0
  9 21  1  0  0  0  0
 11 12  1  0  0  0  0
 11 22  1  0  0  0  0
 12 17  1  0  0  0  0
 12 13  1  0  0  0  0
 12 23  1  0  0  0  0
 13 14  1  0  0  0  0
 13 24  1  0  0  0  0
 13 25  1  0  0  0  0
 14 15  1  0  0  0  0
 14 26  1  0  0  0  0
 14 27  1  0  0  0  0
 15 16  1  0  0  0  0
 15 28  1  0  0  0  0
 15 29  1  0  0  0  0
 16 17  1  0  0  0  0
 16 30  1  0  0  0  0
 16 31  1  0  0  0  0
 17 32  1  0  0  0  0
 17 33  1  0  0  0  0
M  END
> <s_m_source_file>
AV-unprocessed.smi

> <i_m_source_file_index>
2972

> <i_lp_mmshare_version>
43012

> <i_f3d_flags>
0

> <s_epik_input>
W0NIMl0xW0NIMl1bQ0gyXVtDSDJdW0NIMl1bQ0hdMVtOSF1DKD1PKVtOSF1jMltjSF1bY0hdYyhDbClbY0hdbjI=

> <s_epik_cmdline>
J2VwaWtfcHl0aG9uJywgJy1waCcsICc3LjAnLCAnLXRuJywgJzgnLCAnLW1hJywgJzIwMCcsICctbWV0YWxfYmluZGluZycsICctaW1hZScsICc8aW5maWxlLm1hZT4nLCAnLW9tYWUnLCAnPG91dGZpbGUubWFlPic=

> <r_lp_tautomer_probability>
1

> <r_epik_Ionization_Penalty>
4.0409e-05

> <r_epik_Ionization_Penalty_Charging>
0

> <r_epik_Ionization_Penalty_Neutral>
4.0409e-05

> <r_epik_State_Penalty>
-0

> <r_epik_Charging_Adjusted_Penalty>
0

> <i_epik_Tot_Q>
0

> <i_epik_Tot_abs_Q>
0

> <r_epik_Metal_State_Penalty>
-0

> <b_epik_Metal_Only>
0

> <s_lp_Force_Field>
OPLS_2005

> <r_lp_Energy>
12.1461

> <b_lp_Chiralities_Consistent>
1

> <s_lp_Variant>
AV-unprocessed.smi:2972-1

> <Gold.Version>
5.8.1

> <Gold.Id.Protein>
6NUR|6NUR_protein|mol2

> <Gold.PLP.Fitness>
47.0083

> <Gold.PLP.PLP>
-38.4445

> <Gold.PLP.part.hbond>
-2.0000

> <Gold.PLP.part.metal>
0.0000

> <Gold.PLP.part.buried>
-1.4354

> <Gold.PLP.part.nonpolar>
-35.1505

> <Gold.PLP.part.repulsive>
0.3218

> <Gold.PLP.ligand.clash>
0.0000

> <Gold.PLP.ligand.torsion>
0.2197

> <Gold.PLP.Chemscore.Hbond>
2.0000

> <Gold.PLP.Chemscore.CHOScore>
1.0000

> <Gold.PLP.Chemscore.Metal>
0.0000

> <Gold.Chemscore.Hbonds>
donor molecule, donor type, donor heavy atom, donor atom, acceptor molecule, acceptor atom, score
      L1  H     3    18       P1  8028  1.00
      L1  H    11    22       P1  8028  0.96
      L1  C     9    21       P1  7948  1.00

> <Gold.PLP.Chemscore.Internal.Correction>
0.0032

> <Gold.Rescore>
     Score         DG    S(hbond)    S(metal)    S(lipo)     H(rot)  DE(clash)    DE(int)     intcor
     17.77     -20.87       1.92        0.00      98.54       1.00       0.10       3.01       ----

> <Gold.Chemscore.Fitness>
17.7685

> <Gold.Chemscore.DG>
-20.8720

> <Gold.Chemscore.ZeroCoef>
-5.4800

> <Gold.Chemscore.Hbond>
1.9229

> <Gold.Chemscore.Metal>
0.0000

> <Gold.Chemscore.Lipo>
98.5441

> <Gold.Chemscore.Internal_Hbond>
0.0000

> <Gold.Chemscore.DEClash>
0.0958

> <Gold.Chemscore.DEInternal>
3.0077

> <Gold.Chemscore.Rot>
1.0000

> <Gold.Chemscore.Internal.Correction>
   9.000000E+99

> <Gold.Chemscore.Hbonds>
donor molecule, donor type, donor heavy atom, donor atom, acceptor molecule, acceptor atom, score
      L1  H     3    18       P1  8028  0.98
      L1  H    11    22       P1  8028  0.91

> <Gold.Chemscore.Hbond.Weighted>
-6.4223

> <Gold.Chemscore.Metal.Weighted>
-0.0000

> <Gold.Chemscore.Lipo.Weighted>
-11.5297

> <Gold.Chemscore.Internal_Hbond.Weighted>
0.0000

> <Gold.Chemscore.DEClash.Weighted>
0.0958

> <Gold.Chemscore.DEInternal.Weighted>
3.0077

> <Gold.Chemscore.Rot.Weighted>
2.5600

> <Gold.Chemscore.Internal.Correction.Weighted>
   9.000000E+99

> <Gold.Protein.RotatedTorsions>
[ 6907 6896 6895 6894 ] final   47.89 input  -60.11 | X-H torsion
[ 7974 7965 7964 7962 ] final  -74.63 input  175.53 | X-H torsion
[ 8008 7997 7996 7995 ] final  164.95 input   59.86 | X-H torsion
[ 10167 10162 10161 10158 ] final  -37.08 input  -65.29 | X-H torsion
[ 10718 10713 10712 10709 ] final   -2.43 input   66.30 | X-H torsion
[ 10763 10752 10751 10750 ] final  -36.52 input  -60.55 | X-H torsion
[ 11005 11000 10999 10996 ] final    8.21 input  -57.11 | X-H torsion

> <Gold.Protein.ActiveResidues>
 VAL166  LYS551  ARG553  GLY616  TRP617  ASP618  TYR619  PRO620  LYS621  CYS622 
 ASP623  PHE694  ASN695  SER759  ASP760  ASP761  ALA762  ILE779  LEU786  VAL792 
 PHE793  MET794  SER795  GLU796  ALA797  LYS798  CYS799  TRP800  GLU811  SER814 

> <Gold.Protein.RotatedAtoms>
  152.2732  134.7909  160.0410 H   0  0  0  0  0  0  0  0  0  0  0  0  # atno 6907 bound_to 6896
  151.8515  133.3435  159.3683 H   0  0  0  0  0  0  0  0  0  0  0  0  # atno 6908 bound_to 6896
  150.7160  134.5223  159.5704 H   0  0  0  0  0  0  0  0  0  0  0  0  # atno 6909 bound_to 6896
  145.6366  140.9323  143.1058 H   0  0  0  0  0  0  0  0  0  0  0  0  # atno 7974 bound_to 7965
  156.1839  140.1683  156.8222 H   0  0  0  0  0  0  0  0  0  0  0  0  # atno 8008 bound_to 7997
  154.5392  140.0740  156.8512 H   0  0  0  0  0  0  0  0  0  0  0  0  # atno 8009 bound_to 7997
  155.3250  140.3375  155.4243 H   0  0  0  0  0  0  0  0  0  0  0  0  # atno 8010 bound_to 7997
  140.7127  143.3366  151.2450 H   0  0  0  0  0  0  0  0  0  0  0  0  # atno 10167 bound_to 10162
  156.7910  130.5361  149.5736 H   0  0  0  0  0  0  0  0  0  0  0  0  # atno 10718 bound_to 10713
  153.8811  135.6821  153.4767 H   0  0  0  0  0  0  0  0  0  0  0  0  # atno 10763 bound_to 10752
  153.1233  135.4730  154.9229 H   0  0  0  0  0  0  0  0  0  0  0  0  # atno 10764 bound_to 10752
  154.7668  135.3227  154.8221 H   0  0  0  0  0  0  0  0  0  0  0  0  # atno 10765 bound_to 10752
  140.5395  134.0388  155.7899 H   0  0  0  0  0  0  0  0  0  0  0  0  # atno 11005 bound_to 11000
  144.7173  139.8151  143.7394 LP  0  0  0  0  0  0  0  0  0  0  0  0  # atno 17320 bound_to 7965
  146.1314  139.4351  143.0166 LP  0  0  0  0  0  0  0  0  0  0  0  0  # atno 17321 bound_to 7965
  139.6862  143.9769  152.2835 LP  0  0  0  0  0  0  0  0  0  0  0  0  # atno 17342 bound_to 10162
  139.9416  144.6678  150.8261 LP  0  0  0  0  0  0  0  0  0  0  0  0  # atno 17343 bound_to 10162
  156.1159  130.6074  151.0120 LP  0  0  0  0  0  0  0  0  0  0  0  0  # atno 17370 bound_to 10713
  157.6600  131.0882  150.7859 LP  0  0  0  0  0  0  0  0  0  0  0  0  # atno 17371 bound_to 10713
  141.1235  133.9421  157.2682 LP  0  0  0  0  0  0  0  0  0  0  0  0  # atno 17394 bound_to 11000
  139.9511  135.0175  156.8997 LP  0  0  0  0  0  0  0  0  0  0  0  0  # atno 17395 bound_to 11000

$$$$
