AV-unprocessed.smi:264|AV-procd|sdf|2009|dock3
  -GOLD-   2262021203D 1   1.00000     0.00000
 Structure written by MMmdl.
 52 56  0  0  0  0  0  0  0  0  1 V2000
  147.0381  138.4597  155.7739 C   0  0  0  0  0  0  0  0  0  0  0  0
  146.4864  139.0108  154.4488 C   0  0  2  0  0  0  0  0  0  0  0  0
  145.4561  138.1633  153.9411 O   0  0  0  0  0  0  0  0  0  0  0  0
  145.7826  137.7300  152.6280 C   0  0  0  0  0  0  0  0  0  0  0  0
  146.6865  138.8278  152.0837 C   0  0  0  0  0  0  0  0  0  0  0  0
  147.5074  139.2152  153.3055 C   0  0  2  0  0  0  0  0  0  0  0  0
  148.5898  138.3041  153.4236 O   0  0  0  0  0  0  0  0  0  0  0  0
  148.0754  140.6540  153.2547 C   0  0  0  0  0  0  0  0  0  0  0  0
  148.8306  141.0205  154.4429 N   0  0  0  0  0  0  0  0  0  0  0  0
  148.4904  141.9843  155.3653 C   0  0  0  0  0  0  0  0  0  0  0  0
  149.3238  142.1218  156.3597 N   0  0  0  0  0  0  0  0  0  0  0  0
  150.3225  141.1915  156.0970 C   0  0  0  0  0  0  0  0  0  0  0  0
  151.5158  140.8036  156.7682 C   0  0  0  0  0  0  0  0  0  0  0  0
  151.9202  141.3793  157.9278 N   0  0  0  0  0  0  0  0  0  0  0  0
  152.4956  140.4620  158.9026 C   0  0  0  0  0  0  0  0  0  0  0  0
  153.2355  141.2545  159.9896 C   0  0  0  0  0  0  0  0  0  0  0  0
  152.3640  142.2212  160.5758 O   0  0  0  0  0  0  0  0  0  0  0  0
  151.8054  143.1552  159.6464 C   0  0  1  0  0  0  0  0  0  0  0  0
  150.8577  144.0705  160.4145 C   0  0  0  0  0  0  0  0  0  0  0  0
  151.0233  145.4095  159.7122 C   0  0  0  0  0  0  0  0  0  0  0  0
  152.4176  145.4561  159.4737 O   0  0  0  0  0  0  0  0  0  0  0  0
  152.8494  144.1544  159.0935 C   0  0  0  0  0  0  0  0  0  0  0  0
  151.0545  142.3857  158.5348 C   0  0  0  0  0  0  0  0  0  0  0  0
  152.2563  139.8114  156.2051 N   0  0  0  0  0  0  0  0  0  0  0  0
  151.8657  139.2448  155.0598 C   0  0  0  0  0  0  0  0  0  0  0  0
  150.7833  139.5083  154.3254 N   0  0  0  0  0  0  0  0  0  0  0  0
  150.0293  140.4934  154.8914 C   0  0  0  0  0  0  0  0  0  0  0  0
  147.8378  139.0923  156.1597 H   0  0  0  0  0  0  0  0  0  0  0  0
  147.4316  137.4496  155.6568 H   0  0  0  0  0  0  0  0  0  0  0  0
  146.2541  138.4185  156.5302 H   0  0  0  0  0  0  0  0  0  0  0  0
  145.9995  139.9647  154.6562 H   0  0  0  0  0  0  0  0  0  0  0  0
  146.3193  136.7821  152.6873 H   0  0  0  0  0  0  0  0  0  0  0  0
  144.8892  137.5790  152.0220 H   0  0  0  0  0  0  0  0  0  0  0  0
  147.2869  138.5088  151.2305 H   0  0  0  0  0  0  0  0  0  0  0  0
  146.0679  139.6669  151.7632 H   0  0  0  0  0  0  0  0  0  0  0  0
  148.3408  137.4892  153.0150 H   0  0  0  0  0  0  0  0  0  0  0  0
  148.7228  140.7779  152.3854 H   0  0  0  0  0  0  0  0  0  0  0  0
  147.2624  141.3712  153.1335 H   0  0  0  0  0  0  0  0  0  0  0  0
  147.5919  142.5790  155.2820 H   0  0  0  0  0  0  0  0  0  0  0  0
  151.6934  139.8735  159.3501 H   0  0  0  0  0  0  0  0  0  0  0  0
  153.1819  139.7572  158.4344 H   0  0  0  0  0  0  0  0  0  0  0  0
  153.5843  140.5790  160.7708 H   0  0  0  0  0  0  0  0  0  0  0  0
  154.1219  141.7342  159.5744 H   0  0  0  0  0  0  0  0  0  0  0  0
  149.8247  143.7215  160.4296 H   0  0  0  0  0  0  0  0  0  0  0  0
  151.1877  144.1706  161.4499 H   0  0  0  0  0  0  0  0  0  0  0  0
  150.4837  145.4281  158.7640 H   0  0  0  0  0  0  0  0  0  0  0  0
  150.6898  146.2512  160.3194 H   0  0  0  0  0  0  0  0  0  0  0  0
  153.8486  143.9897  159.4960 H   0  0  0  0  0  0  0  0  0  0  0  0
  152.9182  144.1006  158.0063 H   0  0  0  0  0  0  0  0  0  0  0  0
  150.6913  143.0808  157.7762 H   0  0  0  0  0  0  0  0  0  0  0  0
  150.1815  141.8847  158.9560 H   0  0  0  0  0  0  0  0  0  0  0  0
  152.5123  138.4687  154.6777 H   0  0  0  0  0  0  0  0  0  0  0  0
  1  2  1  0  0  0  0
  1 28  1  0  0  0  0
  1 29  1  0  0  0  0
  1 30  1  0  0  0  0
  2  6  1  0  0  0  0
  2  3  1  0  0  0  0
  2 31  1  0  0  0  0
  3  4  1  0  0  0  0
  4  5  1  0  0  0  0
  4 32  1  0  0  0  0
  4 33  1  0  0  0  0
  5  6  1  0  0  0  0
  5 34  1  0  0  0  0
  5 35  1  0  0  0  0
  6  7  1  0  0  0  0
  6  8  1  0  0  0  0
  7 36  1  0  0  0  0
  8  9  1  0  0  0  0
  8 37  1  0  0  0  0
  8 38  1  0  0  0  0
  9 27  1  0  0  0  0
  9 10  1  0  0  0  0
 10 11  2  0  0  0  0
 10 39  1  0  0  0  0
 11 12  1  0  0  0  0
 12 27  2  0  0  0  0
 12 13  1  0  0  0  0
 13 14  1  0  0  0  0
 13 24  2  0  0  0  0
 14 23  1  0  0  0  0
 14 15  1  0  0  0  0
 15 16  1  0  0  0  0
 15 40  1  0  0  0  0
 15 41  1  0  0  0  0
 16 17  1  0  0  0  0
 16 42  1  0  0  0  0
 16 43  1  0  0  0  0
 17 18  1  0  0  0  0
 18 22  1  0  0  0  0
 18 19  1  0  0  0  0
 18 23  1  0  0  0  0
 19 20  1  0  0  0  0
 19 44  1  0  0  0  0
 19 45  1  0  0  0  0
 20 21  1  0  0  0  0
 20 46  1  0  0  0  0
 20 47  1  0  0  0  0
 21 22  1  0  0  0  0
 22 48  1  0  0  0  0
 22 49  1  0  0  0  0
 23 50  1  0  0  0  0
 23 51  1  0  0  0  0
 24 25  1  0  0  0  0
 25 26  2  0  0  0  0
 25 52  1  0  0  0  0
 26 27  1  0  0  0  0
M  END
> <s_m_source_file>
AV-unprocessed.smi

> <i_m_source_file_index>
264

> <i_lp_mmshare_version>
43012

> <i_f3d_flags>
0

> <s_epik_input>
W0NIMl0xW0NIMl1PW0NAQEhdKFtDSDNdKVtDQEBdMShbT0hdKVtDSDJdbihbY0hdbjIpYyhjMjMpbltjSF1uYzNOKFtDSDJdNClbQ0gyXVtDSDJdT1tDQF00NVtDSDJdW0NIMl1PW0NIMl01

> <s_epik_cmdline>
J2VwaWtfcHl0aG9uJywgJy1waCcsICc3LjAnLCAnLXRuJywgJzgnLCAnLW1hJywgJzIwMCcsICctbWV0YWxfYmluZGluZycsICctaW1hZScsICc8aW5maWxlLm1hZT4nLCAnLW9tYWUnLCAnPG91dGZpbGUubWFlPic=

> <r_lp_tautomer_probability>
1

> <r_epik_Ionization_Penalty>
0.00539389

> <r_epik_Ionization_Penalty_Charging>
0

> <r_epik_Ionization_Penalty_Neutral>
0.00539389

> <r_epik_State_Penalty>
0.00375441

> <r_epik_Charging_Adjusted_Penalty>
0.00375441

> <i_epik_Tot_Q>
0

> <i_epik_Tot_abs_Q>
0

> <r_epik_Metal_State_Penalty>
-0

> <b_epik_Metal_Only>
0

> <s_lp_Force_Field>
OPLS_2005

> <r_lp_Energy>
53.6529

> <b_lp_Chiralities_Consistent>
1

> <s_lp_Variant>
AV-unprocessed.smi:264-3

> <Gold.Version>
5.8.1

> <Gold.Id.Protein>
6NUR|6NUR_protein|mol2

> <Gold.PLP.Fitness>
49.0543

> <Gold.PLP.PLP>
-42.7866

> <Gold.PLP.part.hbond>
-3.9393

> <Gold.PLP.part.metal>
0.0000

> <Gold.PLP.part.buried>
5.0521

> <Gold.PLP.part.nonpolar>
-45.0966

> <Gold.PLP.part.repulsive>
2.5585

> <Gold.PLP.ligand.clash>
0.0000

> <Gold.PLP.ligand.torsion>
0.3449

> <Gold.PLP.Chemscore.Hbond>
2.0738

> <Gold.PLP.Chemscore.CHOScore>
0.1452

> <Gold.PLP.Chemscore.Metal>
0.0000

> <Gold.Chemscore.Hbonds>
donor molecule, donor type, donor heavy atom, donor atom, acceptor molecule, acceptor atom, score
      L1  H     7    36       P1  7948  0.82
      P1  H  7989  7998       L1    26  0.14
      P1  H  7997  8008       L1    24  0.73
      L1  C    10    39       P1  8028  0.26

> <Gold.PLP.Chemscore.Internal.Correction>
0.3006

> <Gold.Rescore>
     Score         DG    S(hbond)    S(metal)    S(lipo)     H(rot)  DE(clash)    DE(int)     intcor
     10.97     -16.64       1.64        0.00      94.57       2.11       2.58       3.08       ----

> <Gold.Chemscore.Fitness>
10.9708

> <Gold.Chemscore.DG>
-16.6396

> <Gold.Chemscore.ZeroCoef>
-5.4800

> <Gold.Chemscore.Hbond>
1.6427

> <Gold.Chemscore.Metal>
0.0000

> <Gold.Chemscore.Lipo>
94.5726

> <Gold.Chemscore.Internal_Hbond>
0.0000

> <Gold.Chemscore.DEClash>
2.5840

> <Gold.Chemscore.DEInternal>
3.0848

> <Gold.Chemscore.Rot>
2.1063

> <Gold.Chemscore.Internal.Correction>
   9.000000E+99

> <Gold.Chemscore.Hbonds>
donor molecule, donor type, donor heavy atom, donor atom, acceptor molecule, acceptor atom, score
      L1  H     7    36       P1  7948  0.81
      P1  H  7997  8008       L1    24  0.46

> <Gold.Chemscore.Hbond.Weighted>
-5.4867

> <Gold.Chemscore.Metal.Weighted>
-0.0000

> <Gold.Chemscore.Lipo.Weighted>
-11.0650

> <Gold.Chemscore.Internal_Hbond.Weighted>
0.0000

> <Gold.Chemscore.DEClash.Weighted>
2.5840

> <Gold.Chemscore.DEInternal.Weighted>
3.0848

> <Gold.Chemscore.Rot.Weighted>
5.3921

> <Gold.Chemscore.Internal.Correction.Weighted>
   9.000000E+99

> <Gold.Protein.RotatedTorsions>
[ 6907 6896 6895 6894 ] final  -32.39 input  -60.11 | X-H torsion
[ 7974 7965 7964 7962 ] final   51.89 input  175.53 | X-H torsion
[ 8008 7997 7996 7995 ] final  -28.89 input   59.86 | X-H torsion
[ 10167 10162 10161 10158 ] final   13.14 input  -65.29 | X-H torsion
[ 10718 10713 10712 10709 ] final   -3.79 input   66.30 | X-H torsion
[ 10763 10752 10751 10750 ] final  169.42 input  -60.55 | X-H torsion
[ 11005 11000 10999 10996 ] final   48.08 input  -57.11 | X-H torsion

> <Gold.Protein.ActiveResidues>
 VAL166  LYS551  ARG553  GLY616  TRP617  ASP618  TYR619  PRO620  LYS621  CYS622 
 ASP623  PHE694  ASN695  SER759  ASP760  ASP761  ALA762  ILE779  LEU786  VAL792 
 PHE793  MET794  SER795  GLU796  ALA797  LYS798  CYS799  TRP800  GLU811  SER814 

> <Gold.Protein.RotatedAtoms>
  151.0794  134.9849  159.8348 H   0  0  0  0  0  0  0  0  0  0  0  0  # atno 6907 bound_to 6896
  152.5418  134.2200  159.8794 H   0  0  0  0  0  0  0  0  0  0  0  0  # atno 6908 bound_to 6896
  151.2229  133.4448  159.2635 H   0  0  0  0  0  0  0  0  0  0  0  0  # atno 6909 bound_to 6896
  145.9868  139.4298  143.0098 H   0  0  0  0  0  0  0  0  0  0  0  0  # atno 7974 bound_to 7965
  154.4313  140.1833  156.1161 H   0  0  0  0  0  0  0  0  0  0  0  0  # atno 8008 bound_to 7997
  156.0179  140.3344  155.6983 H   0  0  0  0  0  0  0  0  0  0  0  0  # atno 8009 bound_to 7997
  155.6017  140.0641  157.2722 H   0  0  0  0  0  0  0  0  0  0  0  0  # atno 8010 bound_to 7997
  140.6022  143.8581  150.6977 H   0  0  0  0  0  0  0  0  0  0  0  0  # atno 10167 bound_to 10162
  156.7708  130.5299  149.5768 H   0  0  0  0  0  0  0  0  0  0  0  0  # atno 10718 bound_to 10713
  154.3829  135.2753  155.2201 H   0  0  0  0  0  0  0  0  0  0  0  0  # atno 10763 bound_to 10752
  154.4300  135.5979  153.6066 H   0  0  0  0  0  0  0  0  0  0  0  0  # atno 10764 bound_to 10752
  152.9834  135.5993  154.4074 H   0  0  0  0  0  0  0  0  0  0  0  0  # atno 10765 bound_to 10752
  140.1222  134.4815  155.8588 H   0  0  0  0  0  0  0  0  0  0  0  0  # atno 11005 bound_to 11000
  145.7688  140.9905  143.1160 LP  0  0  0  0  0  0  0  0  0  0  0  0  # atno 17320 bound_to 7965
  144.6877  139.9421  143.7475 LP  0  0  0  0  0  0  0  0  0  0  0  0  # atno 17321 bound_to 7965
  140.2130  143.3869  152.1703 LP  0  0  0  0  0  0  0  0  0  0  0  0  # atno 17342 bound_to 10162
  139.5299  144.7147  151.5093 LP  0  0  0  0  0  0  0  0  0  0  0  0  # atno 17343 bound_to 10162
  156.1279  130.6157  151.0290 LP  0  0  0  0  0  0  0  0  0  0  0  0  # atno 17370 bound_to 10713
  157.6692  131.0865  150.7655 LP  0  0  0  0  0  0  0  0  0  0  0  0  # atno 17371 bound_to 10713
  141.2154  133.6765  156.6910 LP  0  0  0  0  0  0  0  0  0  0  0  0  # atno 17394 bound_to 11000
  140.2950  134.8210  157.4049 LP  0  0  0  0  0  0  0  0  0  0  0  0  # atno 17395 bound_to 11000

$$$$
