AV-unprocessed.smi:2822|AV-procd|sdf|10865|dock3
  -GOLD-   2272015313D 1   1.00000     0.00000
 Structure written by MMmdl.
 41 43  0  0  0  0  0  0  0  0  3 V2000
  149.9105  138.2088  154.4131 Cl  0  0  0  0  0  0  0  0  0  0  0  0
  148.9142  139.6045  154.1905 C   0  0  0  0  0  0  0  0  0  0  0  0
  149.3692  140.8568  154.6522 C   0  0  0  0  0  0  0  0  0  0  0  0
  148.6040  141.9565  154.4868 N   0  3  0  0  0  0  0  0  0  0  0  0
  147.3957  141.9202  153.8869 C   0  0  0  0  0  0  0  0  0  0  0  0
  146.8870  140.6979  153.4030 C   0  0  0  0  0  0  0  0  0  0  0  0
  147.6522  139.5137  153.5526 C   0  0  0  0  0  0  0  0  0  0  0  0
  147.2008  138.2654  153.0959 N   0  0  0  0  0  0  0  0  0  0  0  0
  145.7784  137.9692  153.0113 C   0  0  0  0  0  0  0  0  0  0  0  0
  145.5257  136.5319  152.5333 C   0  0  1  0  0  0  0  0  0  0  0  0
  145.7417  136.3984  151.0091 C   0  0  0  0  0  0  0  0  0  0  0  0
  145.6200  134.9900  150.5609 N   0  3  2  0  0  0  0  0  0  0  0  0
  144.2113  134.5183  150.4665 C   0  0  0  0  0  0  0  0  0  0  0  0
  144.1364  133.0793  149.9361 C   0  0  0  0  0  0  0  0  0  0  0  0
  144.9615  132.1346  150.8167 C   0  0  0  0  0  0  0  0  0  0  0  0
  146.4106  132.6327  150.8989 C   0  0  0  0  0  0  0  0  0  0  0  0
  146.5061  134.1016  151.3631 C   0  0  2  0  0  0  0  0  0  0  0  0
  146.2541  134.2998  152.8728 C   0  0  0  0  0  0  0  0  0  0  0  0
  146.4426  135.6713  153.2035 O   0  0  0  0  0  0  0  0  0  0  0  0
  150.3174  141.0103  155.1466 H   0  0  0  0  0  0  0  0  0  0  0  0
  146.8744  142.8637  153.8130 H   0  0  0  0  0  0  0  0  0  0  0  0
  145.9174  140.6893  152.9281 H   0  0  0  0  0  0  0  0  0  0  0  0
  147.8454  137.6686  152.5961 H   0  0  0  0  0  0  0  0  0  0  0  0
  145.3405  138.1007  154.0015 H   0  0  0  0  0  0  0  0  0  0  0  0
  145.2909  138.6792  152.3418 H   0  0  0  0  0  0  0  0  0  0  0  0
  144.5034  136.2515  152.7917 H   0  0  0  0  0  0  0  0  0  0  0  0
  145.0406  137.0284  150.4603 H   0  0  0  0  0  0  0  0  0  0  0  0
  146.7408  136.7517  150.7503 H   0  0  0  0  0  0  0  0  0  0  0  0
  143.7221  134.5730  151.4388 H   0  0  0  0  0  0  0  0  0  0  0  0
  143.6549  135.1786  149.8005 H   0  0  0  0  0  0  0  0  0  0  0  0
  143.0982  132.7473  149.9046 H   0  0  0  0  0  0  0  0  0  0  0  0
  144.5042  133.0439  148.9096 H   0  0  0  0  0  0  0  0  0  0  0  0
  144.5254  132.0778  151.8145 H   0  0  0  0  0  0  0  0  0  0  0  0
  144.9355  131.1238  150.4087 H   0  0  0  0  0  0  0  0  0  0  0  0
  146.9928  131.9886  151.5588 H   0  0  0  0  0  0  0  0  0  0  0  0
  146.8669  132.5435  149.9119 H   0  0  0  0  0  0  0  0  0  0  0  0
  147.5303  134.4256  151.1713 H   0  0  0  0  0  0  0  0  0  0  0  0
  145.2550  133.9762  153.1672 H   0  0  0  0  0  0  0  0  0  0  0  0
  146.9608  133.7054  153.4525 H   0  0  0  0  0  0  0  0  0  0  0  0
  145.9730  134.9613  149.6149 H   0  0  0  0  0  0  0  0  0  0  0  0
  148.9533  142.8520  154.8301 H   0  0  0  0  0  0  0  0  0  0  0  0
  1  2  1  0  0  0  0
  2  7  1  0  0  0  0
  2  3  2  0  0  0  0
  3  4  1  0  0  0  0
  3 20  1  0  0  0  0
  4  5  2  0  0  0  0
  4 41  1  0  0  0  0
  5  6  1  0  0  0  0
  5 21  1  0  0  0  0
  6  7  2  0  0  0  0
  6 22  1  0  0  0  0
  7  8  1  0  0  0  0
  8  9  1  0  0  0  0
  8 23  1  0  0  0  0
  9 10  1  0  0  0  0
  9 24  1  0  0  0  0
  9 25  1  0  0  0  0
 10 19  1  0  0  0  0
 10 11  1  0  0  0  0
 10 26  1  0  0  0  0
 11 12  1  0  0  0  0
 11 27  1  0  0  0  0
 11 28  1  0  0  0  0
 12 17  1  0  0  0  0
 12 13  1  0  0  0  0
 12 40  1  0  0  0  0
 13 14  1  0  0  0  0
 13 29  1  0  0  0  0
 13 30  1  0  0  0  0
 14 15  1  0  0  0  0
 14 31  1  0  0  0  0
 14 32  1  0  0  0  0
 15 16  1  0  0  0  0
 15 33  1  0  0  0  0
 15 34  1  0  0  0  0
 16 17  1  0  0  0  0
 16 35  1  0  0  0  0
 16 36  1  0  0  0  0
 17 18  1  0  0  0  0
 17 37  1  0  0  0  0
 18 19  1  0  0  0  0
 18 38  1  0  0  0  0
 18 39  1  0  0  0  0
M  CHG  1   4   1
M  CHG  1  12   1
M  END
> <s_m_source_file>
AV-unprocessed.smi

> <i_m_source_file_index>
2822

> <i_lp_mmshare_version>
43012

> <i_f3d_flags>
0

> <s_epik_input>
Q2xjMVtjSF1uW2NIXVtjSF1jMVtOSF1bQ0gyXVtDQEhdKFtDSDJdMilPW0NIMl1bQ0BASF0oTjIzKVtDSDJdW0NIMl1bQ0gyXVtDSDJdMw==

> <s_epik_cmdline>
J2VwaWtfcHl0aG9uJywgJy1waCcsICc3LjAnLCAnLXRuJywgJzgnLCAnLW1hJywgJzIwMCcsICctbWV0YWxfYmluZGluZycsICctaW1hZScsICc8aW5maWxlLm1hZT4nLCAnLW9tYWUnLCAnPG91dGZpbGUubWFlPic=

> <r_lp_tautomer_probability>
1

> <r_epik_Ionization_Penalty>
0.254999

> <r_epik_Ionization_Penalty_Charging>
0.254956

> <r_epik_Ionization_Penalty_Neutral>
4.33524e-05

> <r_epik_State_Penalty>
0.230978

> <r_epik_Charging_Adjusted_Penalty>
0.485934

> <i_epik_Tot_Q>
2

> <i_epik_Tot_abs_Q>
2

> <r_epik_Metal_State_Penalty>
3.47007

> <b_epik_Metal_Only>
0

> <s_lp_Force_Field>
OPLS_2005

> <r_lp_Energy>
40.6185

> <b_lp_Chiralities_Consistent>
1

> <s_lp_Variant>
AV-unprocessed.smi:2822-6

> <Gold.Version>
5.8.1

> <Gold.Id.Protein>
6NUR|6NUR_protein|mol2

> <Gold.PLP.Fitness>
45.4043

> <Gold.PLP.PLP>
-34.0218

> <Gold.PLP.part.hbond>
-3.0000

> <Gold.PLP.part.metal>
0.0000

> <Gold.PLP.part.buried>
-2.3710

> <Gold.PLP.part.nonpolar>
-31.4557

> <Gold.PLP.part.repulsive>
2.1495

> <Gold.PLP.ligand.clash>
0.0000

> <Gold.PLP.ligand.torsion>
0.3089

> <Gold.PLP.Chemscore.Hbond>
4.0000

> <Gold.PLP.Chemscore.CHOScore>
0.0000

> <Gold.PLP.Chemscore.Metal>
0.0000

> <Gold.Chemscore.Hbonds>
donor molecule, donor type, donor heavy atom, donor atom, acceptor molecule, acceptor atom, score
      L1  H     4    41       P1  8028  2.00
      L1  H     8    23       P1  7948  1.00
      L1  H    12    40       P1  7921  1.00

> <Gold.PLP.Chemscore.Internal.Correction>
0.0003

> <Gold.Rescore>
     Score         DG    S(hbond)    S(metal)    S(lipo)     H(rot)  DE(clash)    DE(int)     intcor
     22.08     -23.97       2.82        0.00     103.75       1.20       1.55       0.34       ----

> <Gold.Chemscore.Fitness>
22.0792

> <Gold.Chemscore.DG>
-23.9667

> <Gold.Chemscore.ZeroCoef>
-5.4800

> <Gold.Chemscore.Hbond>
2.8173

> <Gold.Chemscore.Metal>
0.0000

> <Gold.Chemscore.Lipo>
103.7533

> <Gold.Chemscore.Internal_Hbond>
0.0000

> <Gold.Chemscore.DEClash>
1.5465

> <Gold.Chemscore.DEInternal>
0.3409

> <Gold.Chemscore.Rot>
1.1962

> <Gold.Chemscore.Internal.Correction>
   9.000000E+99

> <Gold.Chemscore.Hbonds>
donor molecule, donor type, donor heavy atom, donor atom, acceptor molecule, acceptor atom, score
      L1  H     4    41       P1  8028  0.92
      L1  H     8    23       P1  7948  0.99
      L1  H    12    40       P1  7921  0.80

> <Gold.Chemscore.Hbond.Weighted>
-9.4099

> <Gold.Chemscore.Metal.Weighted>
-0.0000

> <Gold.Chemscore.Lipo.Weighted>
-12.1391

> <Gold.Chemscore.Internal_Hbond.Weighted>
0.0000

> <Gold.Chemscore.DEClash.Weighted>
1.5465

> <Gold.Chemscore.DEInternal.Weighted>
0.3409

> <Gold.Chemscore.Rot.Weighted>
3.0623

> <Gold.Chemscore.Internal.Correction.Weighted>
   9.000000E+99

> <Gold.Protein.RotatedTorsions>
[ 6907 6896 6895 6894 ] final -179.41 input  -60.11 | X-H torsion
[ 7974 7965 7964 7962 ] final   28.75 input  175.53 | X-H torsion
[ 8008 7997 7996 7995 ] final -154.87 input   59.86 | X-H torsion
[ 10167 10162 10161 10158 ] final -138.95 input  -65.29 | X-H torsion
[ 10718 10713 10712 10709 ] final   92.64 input   66.30 | X-H torsion
[ 10763 10752 10751 10750 ] final   35.86 input  -60.55 | X-H torsion
[ 11005 11000 10999 10996 ] final -161.91 input  -57.11 | X-H torsion

> <Gold.Protein.ActiveResidues>
 VAL166  LYS551  ARG553  GLY616  TRP617  ASP618  TYR619  PRO620  LYS621  CYS622 
 ASP623  PHE694  ASN695  SER759  ASP760  ASP761  ALA762  ILE779  LEU786  VAL792 
 PHE793  MET794  SER795  GLU796  ALA797  LYS798  CYS799  TRP800  GLU811  SER814 

> <Gold.Protein.RotatedAtoms>
  151.6530  133.3320  159.3156 H   0  0  0  0  0  0  0  0  0  0  0  0  # atno 6907 bound_to 6896
  150.7951  134.7008  159.6558 H   0  0  0  0  0  0  0  0  0  0  0  0  # atno 6908 bound_to 6896
  152.4036  134.6248  160.0111 H   0  0  0  0  0  0  0  0  0  0  0  0  # atno 6909 bound_to 6896
  146.1711  139.7013  142.8967 H   0  0  0  0  0  0  0  0  0  0  0  0  # atno 7974 bound_to 7965
  155.6931  140.0758  157.2440 H   0  0  0  0  0  0  0  0  0  0  0  0  # atno 8008 bound_to 7997
  154.4085  140.1661  156.2161 H   0  0  0  0  0  0  0  0  0  0  0  0  # atno 8009 bound_to 7997
  155.9434  140.3383  155.6349 H   0  0  0  0  0  0  0  0  0  0  0  0  # atno 8010 bound_to 7997
  139.8428  143.7300  152.2662 H   0  0  0  0  0  0  0  0  0  0  0  0  # atno 10167 bound_to 10162
  157.6958  131.0450  150.3912 H   0  0  0  0  0  0  0  0  0  0  0  0  # atno 10718 bound_to 10713
  153.0101  135.6322  154.1893 H   0  0  0  0  0  0  0  0  0  0  0  0  # atno 10763 bound_to 10752
  154.1635  135.2822  155.3103 H   0  0  0  0  0  0  0  0  0  0  0  0  # atno 10764 bound_to 10752
  154.5963  135.5601  153.7389 H   0  0  0  0  0  0  0  0  0  0  0  0  # atno 10765 bound_to 10752
  140.6152  134.4808  157.5219 H   0  0  0  0  0  0  0  0  0  0  0  0  # atno 11005 bound_to 11000
  145.4338  141.0417  143.2896 LP  0  0  0  0  0  0  0  0  0  0  0  0  # atno 17320 bound_to 7965
  144.8164  139.5869  143.7006 LP  0  0  0  0  0  0  0  0  0  0  0  0  # atno 17321 bound_to 7965
  139.7542  144.7525  151.0460 LP  0  0  0  0  0  0  0  0  0  0  0  0  # atno 17342 bound_to 10162
  140.7796  143.4824  151.0000 LP  0  0  0  0  0  0  0  0  0  0  0  0  # atno 17343 bound_to 10162
  156.4315  130.3973  149.6757 LP  0  0  0  0  0  0  0  0  0  0  0  0  # atno 17370 bound_to 10713
  156.3972  130.7657  151.2662 LP  0  0  0  0  0  0  0  0  0  0  0  0  # atno 17371 bound_to 10713
  139.9176  134.8215  156.1316 LP  0  0  0  0  0  0  0  0  0  0  0  0  # atno 17394 bound_to 11000
  141.0781  133.6766  156.2278 LP  0  0  0  0  0  0  0  0  0  0  0  0  # atno 17395 bound_to 11000

$$$$
