AV-unprocessed.smi:2821|AV-procd|sdf|10859|dock5
  -GOLD-   2272015303D 1   1.00000     0.00000
 Structure written by MMmdl.
 36 37  0  0  0  0  0  0  0  0  1 V2000
  154.6900  140.4383  161.6436 C   0  0  0  0  0  0  0  0  0  0  0  0
  153.7538  141.5550  161.1765 C   0  0  0  0  0  0  0  0  0  0  0  0
  153.0304  141.0997  160.0371 O   0  0  0  0  0  0  0  0  0  0  0  0
  152.4811  142.0427  159.1933 C   0  0  0  0  0  0  0  0  0  0  0  0
  152.6262  143.4142  159.4921 C   0  0  0  0  0  0  0  0  0  0  0  0
  152.1189  144.3779  158.6922 N   0  0  0  0  0  0  0  0  0  0  0  0
  151.4661  143.9631  157.5841 C   0  0  0  0  0  0  0  0  0  0  0  0
  151.3151  142.5943  157.2704 C   0  0  0  0  0  0  0  0  0  0  0  0
  150.6351  142.2297  156.0994 N   0  0  0  0  0  0  0  0  0  0  0  0
  150.0453  140.9022  155.9303 C   0  0  1  0  0  0  0  0  0  0  0  0
  149.3120  140.8312  154.5829 C   0  0  0  0  0  0  0  0  0  0  0  0
  151.0882  139.7636  156.0592 C   0  0  1  0  0  0  0  0  0  0  0  0
  150.5681  138.3381  155.7960 C   0  0  0  0  0  0  0  0  0  0  0  0
  151.3300  137.9021  154.5594 C   0  0  0  0  0  0  0  0  0  0  0  0
  152.6153  138.7086  154.6731 C   0  0  0  0  0  0  0  0  0  0  0  0
  152.1676  139.9664  155.1503 O   0  0  0  0  0  0  0  0  0  0  0  0
  151.8148  141.6345  158.0843 N   0  0  0  0  0  0  0  0  0  0  0  0
  155.2660  140.7522  162.5142 H   0  0  0  0  0  0  0  0  0  0  0  0
  155.3937  140.1633  160.8578 H   0  0  0  0  0  0  0  0  0  0  0  0
  154.1275  139.5458  161.9187 H   0  0  0  0  0  0  0  0  0  0  0  0
  153.0684  141.8181  161.9843 H   0  0  0  0  0  0  0  0  0  0  0  0
  154.3376  142.4424  160.9261 H   0  0  0  0  0  0  0  0  0  0  0  0
  153.1552  143.7397  160.3757 H   0  0  0  0  0  0  0  0  0  0  0  0
  151.0664  144.7327  156.9399 H   0  0  0  0  0  0  0  0  0  0  0  0
  150.7939  142.7783  155.2669 H   0  0  0  0  0  0  0  0  0  0  0  0
  149.2863  140.7555  156.6995 H   0  0  0  0  0  0  0  0  0  0  0  0
  148.8232  139.8654  154.4526 H   0  0  0  0  0  0  0  0  0  0  0  0
  149.9949  140.9731  153.7447 H   0  0  0  0  0  0  0  0  0  0  0  0
  148.5404  141.5989  154.5161 H   0  0  0  0  0  0  0  0  0  0  0  0
  151.5215  139.7951  157.0600 H   0  0  0  0  0  0  0  0  0  0  0  0
  150.8262  137.6929  156.6367 H   0  0  0  0  0  0  0  0  0  0  0  0
  149.4886  138.2774  155.6572 H   0  0  0  0  0  0  0  0  0  0  0  0
  151.5018  136.8264  154.5179 H   0  0  0  0  0  0  0  0  0  0  0  0
  150.7857  138.1972  153.6612 H   0  0  0  0  0  0  0  0  0  0  0  0
  153.2930  138.2620  155.4023 H   0  0  0  0  0  0  0  0  0  0  0  0
  153.1408  138.8044  153.7229 H   0  0  0  0  0  0  0  0  0  0  0  0
  1  2  1  0  0  0  0
  1 18  1  0  0  0  0
  1 19  1  0  0  0  0
  1 20  1  0  0  0  0
  2  3  1  0  0  0  0
  2 21  1  0  0  0  0
  2 22  1  0  0  0  0
  3  4  1  0  0  0  0
  4 17  1  0  0  0  0
  4  5  2  0  0  0  0
  5  6  1  0  0  0  0
  5 23  1  0  0  0  0
  6  7  2  0  0  0  0
  7  8  1  0  0  0  0
  7 24  1  0  0  0  0
  8  9  1  0  0  0  0
  8 17  2  0  0  0  0
  9 10  1  0  0  0  0
  9 25  1  0  0  0  0
 10 11  1  0  0  0  0
 10 12  1  0  0  0  0
 10 26  1  0  0  0  0
 11 27  1  0  0  0  0
 11 28  1  0  0  0  0
 11 29  1  0  0  0  0
 12 16  1  0  0  0  0
 12 13  1  0  0  0  0
 12 30  1  0  0  0  0
 13 14  1  0  0  0  0
 13 31  1  0  0  0  0
 13 32  1  0  0  0  0
 14 15  1  0  0  0  0
 14 33  1  0  0  0  0
 14 34  1  0  0  0  0
 15 16  1  0  0  0  0
 15 35  1  0  0  0  0
 15 36  1  0  0  0  0
M  END
> <s_m_source_file>
AV-unprocessed.smi

> <i_m_source_file_index>
2821

> <i_lp_mmshare_version>
43012

> <i_f3d_flags>
0

> <s_epik_input>
W0NIM11bQ0gyXU9jMVtjSF1uW2NIXWMobjEpW05IXVtDQEhdKFtDSDNdKVtDQEBIXTJbQ0gyXVtDSDJdW0NIMl1PMg==

> <s_epik_cmdline>
J2VwaWtfcHl0aG9uJywgJy1waCcsICc3LjAnLCAnLXRuJywgJzgnLCAnLW1hJywgJzIwMCcsICctbWV0YWxfYmluZGluZycsICctaW1hZScsICc8aW5maWxlLm1hZT4nLCAnLW9tYWUnLCAnPG91dGZpbGUubWFlPic=

> <r_lp_tautomer_probability>
1

> <r_epik_Ionization_Penalty>
4.69533e-05

> <r_epik_Ionization_Penalty_Charging>
0

> <r_epik_Ionization_Penalty_Neutral>
4.69533e-05

> <r_epik_State_Penalty>
-0

> <r_epik_Charging_Adjusted_Penalty>
0

> <i_epik_Tot_Q>
0

> <i_epik_Tot_abs_Q>
0

> <r_epik_Metal_State_Penalty>
-0

> <b_epik_Metal_Only>
0

> <s_lp_Force_Field>
OPLS_2005

> <r_lp_Energy>
30.0608

> <b_lp_Chiralities_Consistent>
1

> <s_lp_Variant>
AV-unprocessed.smi:2821-4

> <Gold.Version>
5.8.1

> <Gold.Id.Protein>
6NUR|6NUR_protein|mol2

> <Gold.PLP.Fitness>
42.1863

> <Gold.PLP.PLP>
-37.4300

> <Gold.PLP.part.hbond>
-1.8602

> <Gold.PLP.part.metal>
0.0000

> <Gold.PLP.part.buried>
-6.1668

> <Gold.PLP.part.nonpolar>
-31.3525

> <Gold.PLP.part.repulsive>
0.1745

> <Gold.PLP.ligand.clash>
0.0000

> <Gold.PLP.ligand.torsion>
0.2557

> <Gold.PLP.Chemscore.Hbond>
0.7520

> <Gold.PLP.Chemscore.CHOScore>
0.9906

> <Gold.PLP.Chemscore.Metal>
0.0000

> <Gold.Chemscore.Hbonds>
donor molecule, donor type, donor heavy atom, donor atom, acceptor molecule, acceptor atom, score
      P1  H  7989  7998       L1    16  0.75
      L1  C     7    24       P1  8028  0.99

> <Gold.PLP.Chemscore.Internal.Correction>
0.0400

> <Gold.Rescore>
     Score         DG    S(hbond)    S(metal)    S(lipo)     H(rot)  DE(clash)    DE(int)     intcor
     12.42     -13.94       0.88        0.00      81.11       1.55       0.16       1.36       ----

> <Gold.Chemscore.Fitness>
12.4181

> <Gold.Chemscore.DG>
-13.9449

> <Gold.Chemscore.ZeroCoef>
-5.4800

> <Gold.Chemscore.Hbond>
0.8822

> <Gold.Chemscore.Metal>
0.0000

> <Gold.Chemscore.Lipo>
81.1109

> <Gold.Chemscore.Internal_Hbond>
0.0000

> <Gold.Chemscore.DEClash>
0.1639

> <Gold.Chemscore.DEInternal>
1.3629

> <Gold.Chemscore.Rot>
1.5514

> <Gold.Chemscore.Internal.Correction>
   9.000000E+99

> <Gold.Chemscore.Hbonds>
donor molecule, donor type, donor heavy atom, donor atom, acceptor molecule, acceptor atom, score
      P1  H  7989  7998       L1    16  0.24

> <Gold.Chemscore.Hbond.Weighted>
-2.9464

> <Gold.Chemscore.Metal.Weighted>
-0.0000

> <Gold.Chemscore.Lipo.Weighted>
-9.4900

> <Gold.Chemscore.Internal_Hbond.Weighted>
0.0000

> <Gold.Chemscore.DEClash.Weighted>
0.1639

> <Gold.Chemscore.DEInternal.Weighted>
1.3629

> <Gold.Chemscore.Rot.Weighted>
3.9715

> <Gold.Chemscore.Internal.Correction.Weighted>
   9.000000E+99

> <Gold.Protein.RotatedTorsions>
[ 6907 6896 6895 6894 ] final   64.62 input  -60.11 | X-H torsion
[ 7974 7965 7964 7962 ] final -113.77 input  175.53 | X-H torsion
[ 8008 7997 7996 7995 ] final   -1.31 input   59.86 | X-H torsion
[ 10167 10162 10161 10158 ] final   27.47 input  -65.29 | X-H torsion
[ 10718 10713 10712 10709 ] final   10.14 input   66.30 | X-H torsion
[ 10763 10752 10751 10750 ] final   79.90 input  -60.55 | X-H torsion
[ 11005 11000 10999 10996 ] final  -12.70 input  -57.11 | X-H torsion

> <Gold.Protein.ActiveResidues>
 VAL166  LYS551  ARG553  GLY616  TRP617  ASP618  TYR619  PRO620  LYS621  CYS622 
 ASP623  PHE694  ASN695  SER759  ASP760  ASP761  ALA762  ILE779  LEU786  VAL792 
 PHE793  MET794  SER795  GLU796  ALA797  LYS798  CYS799  TRP800  GLU811  SER814 

> <Gold.Protein.RotatedAtoms>
  152.4346  134.5712  159.9921 H   0  0  0  0  0  0  0  0  0  0  0  0  # atno 6907 bound_to 6896
  151.5826  133.3370  159.3019 H   0  0  0  0  0  0  0  0  0  0  0  0  # atno 6908 bound_to 6896
  150.8242  134.7500  159.6863 H   0  0  0  0  0  0  0  0  0  0  0  0  # atno 6909 bound_to 6896
  145.1281  140.8708  143.3774 H   0  0  0  0  0  0  0  0  0  0  0  0  # atno 7974 bound_to 7965
  154.6482  140.2562  155.7244 H   0  0  0  0  0  0  0  0  0  0  0  0  # atno 8008 bound_to 7997
  156.2562  140.2873  156.0825 H   0  0  0  0  0  0  0  0  0  0  0  0  # atno 8009 bound_to 7997
  155.1492  140.0382  157.2807 H   0  0  0  0  0  0  0  0  0  0  0  0  # atno 8010 bound_to 7997
  140.4935  144.0429  150.6306 H   0  0  0  0  0  0  0  0  0  0  0  0  # atno 10167 bound_to 10162
  156.9767  130.5990  149.5673 H   0  0  0  0  0  0  0  0  0  0  0  0  # atno 10718 bound_to 10713
  153.0989  135.4823  154.8831 H   0  0  0  0  0  0  0  0  0  0  0  0  # atno 10763 bound_to 10752
  154.7357  135.3070  154.8818 H   0  0  0  0  0  0  0  0  0  0  0  0  # atno 10764 bound_to 10752
  153.9441  135.6831  153.4797 H   0  0  0  0  0  0  0  0  0  0  0  0  # atno 10765 bound_to 10752
  140.7685  133.8458  155.9186 H   0  0  0  0  0  0  0  0  0  0  0  0  # atno 11005 bound_to 11000
  145.0665  139.3064  143.5853 LP  0  0  0  0  0  0  0  0  0  0  0  0  # atno 17320 bound_to 7965
  146.3516  140.0125  142.8666 LP  0  0  0  0  0  0  0  0  0  0  0  0  # atno 17321 bound_to 7965
  140.3704  143.2857  152.0284 LP  0  0  0  0  0  0  0  0  0  0  0  0  # atno 17342 bound_to 10162
  139.4856  144.6234  151.7211 LP  0  0  0  0  0  0  0  0  0  0  0  0  # atno 17343 bound_to 10162
  156.0261  130.5354  150.8410 LP  0  0  0  0  0  0  0  0  0  0  0  0  # atno 17370 bound_to 10713
  157.5555  131.0945  150.9635 LP  0  0  0  0  0  0  0  0  0  0  0  0  # atno 17371 bound_to 10713
  140.9596  134.1672  157.4664 LP  0  0  0  0  0  0  0  0  0  0  0  0  # atno 17394 bound_to 11000
  139.8759  134.9940  156.5671 LP  0  0  0  0  0  0  0  0  0  0  0  0  # atno 17395 bound_to 11000

$$$$
