AV-unprocessed.smi:22|AV-procd|sdf|171|dock8
  -GOLD-   2262015423D 1   1.00000     0.00000
 Structure written by MMmdl.
 56 59  0  0  0  0  0  0  0  0  2 V2000
  147.7669  131.7738  154.2706 C   0  0  0  0  0  0  0  0  0  0  0  0
  147.2609  133.1508  154.0270 N   0  3  2  0  0  0  0  0  0  0  0  0
  146.9702  133.3945  152.5815 C   0  0  0  0  0  0  0  0  0  0  0  0
  145.9819  132.3899  151.9586 C   0  0  0  0  0  0  0  0  0  0  0  0
  146.3446  132.1081  150.6231 O   0  0  0  0  0  0  0  0  0  0  0  0
  148.1273  134.1772  154.6956 C   0  0  0  0  0  0  0  0  0  0  0  0
  147.6128  135.6025  154.3807 C   0  0  0  0  0  0  0  0  0  0  0  0
  148.4586  136.6832  155.0718 C   0  0  0  0  0  0  0  0  0  0  0  0
  149.8704  136.5443  154.7198 N   0  0  0  0  0  0  0  0  0  0  0  0
  150.6945  137.5841  155.0065 C   0  0  0  0  0  0  0  0  0  0  0  0
  152.0382  137.4513  154.8429 N   0  0  0  0  0  0  0  0  0  0  0  0
  152.8550  138.4748  155.1085 C   0  0  0  0  0  0  0  0  0  0  0  0
  152.5458  139.6974  155.5438 N   0  0  0  0  0  0  0  0  0  0  0  0
  151.2006  139.8345  155.7212 C   0  0  0  0  0  0  0  0  0  0  0  0
  150.2131  138.8387  155.4761 C   0  0  0  0  0  0  0  0  0  0  0  0
  148.9516  139.3401  155.7743 N   0  0  0  0  0  0  0  0  0  0  0  0
  149.1798  140.5644  156.1649 C   0  0  0  0  0  0  0  0  0  0  0  0
  150.5037  140.9424  156.1719 N   0  0  0  0  0  0  0  0  0  0  0  0
  151.0371  142.2402  156.5587 C   0  0  0  0  0  0  0  0  0  0  0  0
  151.2560  142.3919  158.0825 C   0  0  2  0  0  0  0  0  0  0  0  0
  150.0035  142.2926  158.7392 O   0  0  0  0  0  0  0  0  0  0  0  0
  151.8895  143.7250  158.4608 C   0  0  0  0  0  0  0  0  0  0  0  0
  152.6383  143.3886  159.7433 C   0  0  0  0  0  0  0  0  0  0  0  0
  153.1665  142.1010  159.4738 O   0  0  0  0  0  0  0  0  0  0  0  0
  152.2192  141.3615  158.7082 C   0  0  0  0  0  0  0  0  0  0  0  0
  150.4393  135.2289  155.0000 C   0  0  0  0  0  0  0  0  0  0  0  0
  149.6286  134.1193  154.3104 C   0  0  0  0  0  0  0  0  0  0  0  0
  148.6413  131.5662  153.6525 H   0  0  0  0  0  0  0  0  0  0  0  0
  147.0060  131.0254  154.0537 H   0  0  0  0  0  0  0  0  0  0  0  0
  148.0543  131.6147  155.3083 H   0  0  0  0  0  0  0  0  0  0  0  0
  146.5278  134.3800  152.4414 H   0  0  0  0  0  0  0  0  0  0  0  0
  147.9069  133.3843  152.0223 H   0  0  0  0  0  0  0  0  0  0  0  0
  146.0098  131.4553  152.5193 H   0  0  0  0  0  0  0  0  0  0  0  0
  144.9500  132.7359  152.0025 H   0  0  0  0  0  0  0  0  0  0  0  0
  147.0874  131.5232  150.6273 H   0  0  0  0  0  0  0  0  0  0  0  0
  148.0693  134.0104  155.7728 H   0  0  0  0  0  0  0  0  0  0  0  0
  147.6312  135.7666  153.3022 H   0  0  0  0  0  0  0  0  0  0  0  0
  146.5767  135.7325  154.6889 H   0  0  0  0  0  0  0  0  0  0  0  0
  148.0964  137.6691  154.7761 H   0  0  0  0  0  0  0  0  0  0  0  0
  148.3452  136.6084  156.1544 H   0  0  0  0  0  0  0  0  0  0  0  0
  153.9065  138.2880  154.9478 H   0  0  0  0  0  0  0  0  0  0  0  0
  148.3833  141.2291  156.4668 H   0  0  0  0  0  0  0  0  0  0  0  0
  151.9774  142.3940  156.0279 H   0  0  0  0  0  0  0  0  0  0  0  0
  150.3546  143.0105  156.1972 H   0  0  0  0  0  0  0  0  0  0  0  0
  150.1063  142.6009  159.6265 H   0  0  0  0  0  0  0  0  0  0  0  0
  152.6094  144.0321  157.7008 H   0  0  0  0  0  0  0  0  0  0  0  0
  151.1697  144.5356  158.5829 H   0  0  0  0  0  0  0  0  0  0  0  0
  153.4254  144.1059  159.9758 H   0  0  0  0  0  0  0  0  0  0  0  0
  151.9563  143.3348  160.5933 H   0  0  0  0  0  0  0  0  0  0  0  0
  151.7006  140.6417  159.3431 H   0  0  0  0  0  0  0  0  0  0  0  0
  152.7672  140.7958  157.9559 H   0  0  0  0  0  0  0  0  0  0  0  0
  151.4778  135.1686  154.6758 H   0  0  0  0  0  0  0  0  0  0  0  0
  150.4410  135.0708  156.0792 H   0  0  0  0  0  0  0  0  0  0  0  0
  150.0690  133.1644  154.5973 H   0  0  0  0  0  0  0  0  0  0  0  0
  149.7428  134.2140  153.2293 H   0  0  0  0  0  0  0  0  0  0  0  0
  146.3648  133.2120  154.4896 H   0  0  0  0  0  0  0  0  0  0  0  0
  1  2  1  0  0  0  0
  1 28  1  0  0  0  0
  1 29  1  0  0  0  0
  1 30  1  0  0  0  0
  2  3  1  0  0  0  0
  2  6  1  0  0  0  0
  2 56  1  0  0  0  0
  3  4  1  0  0  0  0
  3 31  1  0  0  0  0
  3 32  1  0  0  0  0
  4  5  1  0  0  0  0
  4 33  1  0  0  0  0
  4 34  1  0  0  0  0
  5 35  1  0  0  0  0
  6 27  1  0  0  0  0
  6  7  1  0  0  0  0
  6 36  1  0  0  0  0
  7  8  1  0  0  0  0
  7 37  1  0  0  0  0
  7 38  1  0  0  0  0
  8  9  1  0  0  0  0
  8 39  1  0  0  0  0
  8 40  1  0  0  0  0
  9 10  1  0  0  0  0
  9 26  1  0  0  0  0
 10 15  1  0  0  0  0
 10 11  2  0  0  0  0
 11 12  1  0  0  0  0
 12 13  2  0  0  0  0
 12 41  1  0  0  0  0
 13 14  1  0  0  0  0
 14 18  1  0  0  0  0
 14 15  2  0  0  0  0
 15 16  1  0  0  0  0
 16 17  2  0  0  0  0
 17 18  1  0  0  0  0
 17 42  1  0  0  0  0
 18 19  1  0  0  0  0
 19 20  1  0  0  0  0
 19 43  1  0  0  0  0
 19 44  1  0  0  0  0
 20 25  1  0  0  0  0
 20 21  1  0  0  0  0
 20 22  1  0  0  0  0
 21 45  1  0  0  0  0
 22 23  1  0  0  0  0
 22 46  1  0  0  0  0
 22 47  1  0  0  0  0
 23 24  1  0  0  0  0
 23 48  1  0  0  0  0
 23 49  1  0  0  0  0
 24 25  1  0  0  0  0
 25 50  1  0  0  0  0
 25 51  1  0  0  0  0
 26 27  1  0  0  0  0
 26 52  1  0  0  0  0
 26 53  1  0  0  0  0
 27 54  1  0  0  0  0
 27 55  1  0  0  0  0
M  CHG  1   2   1
M  END
> <s_m_source_file>
AV-unprocessed.smi

> <i_m_source_file_index>
22

> <i_lp_mmshare_version>
43012

> <i_f3d_flags>
0

> <s_epik_input>
W09IXVtDSDJdW0NIMl1OKFtDSDNdKVtDSF0xW0NIMl1bQ0gyXU4oW0NIMl1bQ0gyXTEpYyhuW2NIXW4yKWMoYzIzKW5bY0hdbjNbQ0gyXVtDQEBdNChbT0hdKVtDSDJdW0NIMl1PW0NIMl00

> <s_epik_cmdline>
J2VwaWtfcHl0aG9uJywgJy1waCcsICc3LjAnLCAnLXRuJywgJzgnLCAnLW1hJywgJzIwMCcsICctbWV0YWxfYmluZGluZycsICctaW1hZScsICc8aW5maWxlLm1hZT4nLCAnLW9tYWUnLCAnPG91dGZpbGUubWFlPic=

> <r_lp_tautomer_probability>
1

> <r_epik_Ionization_Penalty>
0.00317524

> <r_epik_Ionization_Penalty_Charging>
0.00191487

> <r_epik_Ionization_Penalty_Neutral>
0.00126037

> <r_epik_State_Penalty>
-0

> <r_epik_Charging_Adjusted_Penalty>
0.00191487

> <i_epik_Tot_Q>
1

> <i_epik_Tot_abs_Q>
1

> <r_epik_Metal_State_Penalty>
-0

> <b_epik_Metal_Only>
0

> <s_lp_Force_Field>
OPLS_2005

> <r_lp_Energy>
48.0385

> <b_lp_Chiralities_Consistent>
1

> <s_lp_Variant>
AV-unprocessed.smi:22-3

> <Gold.Version>
5.8.1

> <Gold.Id.Protein>
6NUR|6NUR_protein|mol2

> <Gold.PLP.Fitness>
47.2961

> <Gold.PLP.PLP>
-40.9231

> <Gold.PLP.part.hbond>
-3.1949

> <Gold.PLP.part.metal>
0.0000

> <Gold.PLP.part.buried>
-5.4044

> <Gold.PLP.part.nonpolar>
-33.5743

> <Gold.PLP.part.repulsive>
0.6996

> <Gold.PLP.ligand.clash>
0.0000

> <Gold.PLP.ligand.torsion>
1.1046

> <Gold.PLP.Chemscore.Hbond>
2.7104

> <Gold.PLP.Chemscore.CHOScore>
0.0000

> <Gold.PLP.Chemscore.Metal>
0.0000

> <Gold.Chemscore.Hbonds>
donor molecule, donor type, donor heavy atom, donor atom, acceptor molecule, acceptor atom, score
      L1  H     5    35       P1 10747  1.00
      P1  H  7997  8009       L1    13  0.78
      P1  H 10752 10764       L1    11  0.72

> <Gold.PLP.Chemscore.Internal.Correction>
0.4510

> <Gold.Rescore>
     Score         DG    S(hbond)    S(metal)    S(lipo)     H(rot)  DE(clash)    DE(int)     intcor
      9.95     -12.98       1.96        0.00      90.26       3.76       0.32       2.71       ----

> <Gold.Chemscore.Fitness>
9.9514

> <Gold.Chemscore.DG>
-12.9788

> <Gold.Chemscore.ZeroCoef>
-5.4800

> <Gold.Chemscore.Hbond>
1.9639

> <Gold.Chemscore.Metal>
0.0000

> <Gold.Chemscore.Lipo>
90.2626

> <Gold.Chemscore.Internal_Hbond>
0.0000

> <Gold.Chemscore.DEClash>
0.3216

> <Gold.Chemscore.DEInternal>
2.7057

> <Gold.Chemscore.Rot>
3.7583

> <Gold.Chemscore.Internal.Correction>
   9.000000E+99

> <Gold.Chemscore.Hbonds>
donor molecule, donor type, donor heavy atom, donor atom, acceptor molecule, acceptor atom, score
      L1  H     5    35       P1 10747  0.93
      P1  H  7997  8009       L1    13  0.12
      P1  H 10752 10764       L1    11  0.62

> <Gold.Chemscore.Hbond.Weighted>
-6.5593

> <Gold.Chemscore.Metal.Weighted>
-0.0000

> <Gold.Chemscore.Lipo.Weighted>
-10.5607

> <Gold.Chemscore.Internal_Hbond.Weighted>
0.0000

> <Gold.Chemscore.DEClash.Weighted>
0.3216

> <Gold.Chemscore.DEInternal.Weighted>
2.7057

> <Gold.Chemscore.Rot.Weighted>
9.6213

> <Gold.Chemscore.Internal.Correction.Weighted>
   9.000000E+99

> <Gold.Protein.RotatedTorsions>
[ 6907 6896 6895 6894 ] final    2.11 input  -60.11 | X-H torsion
[ 7974 7965 7964 7962 ] final   57.14 input  175.53 | X-H torsion
[ 8008 7997 7996 7995 ] final -171.00 input   59.86 | X-H torsion
[ 10167 10162 10161 10158 ] final -141.23 input  -65.29 | X-H torsion
[ 10718 10713 10712 10709 ] final  118.27 input   66.30 | X-H torsion
[ 10763 10752 10751 10750 ] final  -57.83 input  -60.55 | X-H torsion
[ 11005 11000 10999 10996 ] final  -36.91 input  -57.11 | X-H torsion

> <Gold.Protein.ActiveResidues>
 VAL166  LYS551  ARG553  GLY616  TRP617  ASP618  TYR619  PRO620  LYS621  CYS622 
 ASP623  PHE694  ASN695  SER759  ASP760  ASP761  ALA762  ILE779  LEU786  VAL792 
 PHE793  MET794  SER795  GLU796  ALA797  LYS798  CYS799  TRP800  GLU811  SER814 

> <Gold.Protein.RotatedAtoms>
  151.6035  135.1045  160.0065 H   0  0  0  0  0  0  0  0  0  0  0  0  # atno 6907 bound_to 6896
  152.4245  133.7168  159.6521 H   0  0  0  0  0  0  0  0  0  0  0  0  # atno 6908 bound_to 6896
  150.8134  133.8309  159.3194 H   0  0  0  0  0  0  0  0  0  0  0  0  # atno 6909 bound_to 6896
  145.9323  139.3817  143.0414 H   0  0  0  0  0  0  0  0  0  0  0  0  # atno 7974 bound_to 7965
  155.9258  140.1082  157.1171 H   0  0  0  0  0  0  0  0  0  0  0  0  # atno 8008 bound_to 7997
  154.4062  140.1247  156.4804 H   0  0  0  0  0  0  0  0  0  0  0  0  # atno 8009 bound_to 7997
  155.7140  140.3470  155.4989 H   0  0  0  0  0  0  0  0  0  0  0  0  # atno 8010 bound_to 7997
  139.8205  143.7581  152.2666 H   0  0  0  0  0  0  0  0  0  0  0  0  # atno 10167 bound_to 10162
  157.6041  131.1046  150.7733 H   0  0  0  0  0  0  0  0  0  0  0  0  # atno 10718 bound_to 10713
  154.2286  135.6365  153.5168 H   0  0  0  0  0  0  0  0  0  0  0  0  # atno 10763 bound_to 10752
  152.9953  135.5514  154.6037 H   0  0  0  0  0  0  0  0  0  0  0  0  # atno 10764 bound_to 10752
  154.5514  135.2902  155.0979 H   0  0  0  0  0  0  0  0  0  0  0  0  # atno 10765 bound_to 10752
  140.9911  133.7004  156.1852 H   0  0  0  0  0  0  0  0  0  0  0  0  # atno 11005 bound_to 11000
  145.8410  140.9580  143.0799 LP  0  0  0  0  0  0  0  0  0  0  0  0  # atno 17320 bound_to 7965
  144.6766  140.0284  143.7483 LP  0  0  0  0  0  0  0  0  0  0  0  0  # atno 17321 bound_to 7965
  139.7757  144.7461  151.0160 LP  0  0  0  0  0  0  0  0  0  0  0  0  # atno 17342 bound_to 10162
  140.7813  143.4596  151.0297 LP  0  0  0  0  0  0  0  0  0  0  0  0  # atno 17343 bound_to 10162
  156.8125  130.4957  149.5354 LP  0  0  0  0  0  0  0  0  0  0  0  0  # atno 17370 bound_to 10713
  156.1122  130.6049  151.0065 LP  0  0  0  0  0  0  0  0  0  0  0  0  # atno 17371 bound_to 10713
  140.7038  134.4535  157.5585 LP  0  0  0  0  0  0  0  0  0  0  0  0  # atno 17394 bound_to 11000
  139.8993  134.8595  156.1967 LP  0  0  0  0  0  0  0  0  0  0  0  0  # atno 17395 bound_to 11000

$$$$
