AV-unprocessed.smi:2945|AV-procd|sdf|11277|dock2
  -GOLD-   2272016173D 1   1.00000     0.00000
 Structure written by MMmdl.
 36 37  0  0  0  0  0  0  0  0  1 V2000
  151.9042  141.0407  156.3541 C   0  0  0  0  0  0  0  0  0  0  0  0
  151.7169  139.7070  155.7158 C   0  0  0  0  0  0  0  0  0  0  0  0
  150.6083  138.9654  155.4185 C   0  0  0  0  0  0  0  0  0  0  0  0
  151.1550  137.7979  154.8224 C   0  0  0  0  0  0  0  0  0  0  0  0
  150.3124  136.7523  154.3672 N   0  0  0  0  0  0  0  0  0  0  0  0
  149.8091  135.7328  155.0833 C   0  0  0  0  0  0  0  0  0  0  0  0
  150.0217  135.5339  156.2797 O   0  0  0  0  0  0  0  0  0  0  0  0
  149.0374  134.9442  154.3207 N   0  0  0  0  0  0  0  0  0  0  0  0
  148.3174  133.7477  154.7625 C   0  0  1  0  0  0  0  0  0  0  0  0
  146.8122  133.9075  154.4680 C   0  0  0  0  0  0  0  0  0  0  0  0
  146.5062  133.8591  152.9610 C   0  0  0  0  0  0  0  0  0  0  0  0
  147.0607  132.5771  152.3220 C   0  0  0  0  0  0  0  0  0  0  0  0
  148.5661  132.4220  152.5925 C   0  0  0  0  0  0  0  0  0  0  0  0
  148.8788  132.4619  154.1029 C   0  0  1  0  0  0  0  0  0  0  0  0
  150.3775  132.2492  154.3766 C   0  0  0  0  0  0  0  0  0  0  0  0
  152.4773  137.8250  154.7595 N   0  0  0  0  0  0  0  0  0  0  0  0
  152.8442  139.0490  155.3314 O   0  0  0  0  0  0  0  0  0  0  0  0
  150.9539  141.4404  156.7085 H   0  0  0  0  0  0  0  0  0  0  0  0
  152.3271  141.7523  155.6447 H   0  0  0  0  0  0  0  0  0  0  0  0
  152.5793  140.9703  157.2071 H   0  0  0  0  0  0  0  0  0  0  0  0
  149.5747  139.2189  155.6013 H   0  0  0  0  0  0  0  0  0  0  0  0
  150.0576  136.7894  153.3917 H   0  0  0  0  0  0  0  0  0  0  0  0
  148.9310  135.1926  153.3482 H   0  0  0  0  0  0  0  0  0  0  0  0
  148.4228  133.6438  155.8438 H   0  0  0  0  0  0  0  0  0  0  0  0
  146.2640  133.1074  154.9670 H   0  0  0  0  0  0  0  0  0  0  0  0
  146.4407  134.8397  154.8953 H   0  0  0  0  0  0  0  0  0  0  0  0
  145.4295  133.9176  152.7998 H   0  0  0  0  0  0  0  0  0  0  0  0
  146.9373  134.7304  152.4669 H   0  0  0  0  0  0  0  0  0  0  0  0
  146.5276  131.7121  152.7186 H   0  0  0  0  0  0  0  0  0  0  0  0
  146.8752  132.5877  151.2476 H   0  0  0  0  0  0  0  0  0  0  0  0
  148.9147  131.4810  152.1657 H   0  0  0  0  0  0  0  0  0  0  0  0
  149.1132  133.2120  152.0766 H   0  0  0  0  0  0  0  0  0  0  0  0
  148.3581  131.6188  154.5598 H   0  0  0  0  0  0  0  0  0  0  0  0
  150.9889  133.0164  153.9012 H   0  0  0  0  0  0  0  0  0  0  0  0
  150.7101  131.2830  153.9966 H   0  0  0  0  0  0  0  0  0  0  0  0
  150.5867  132.2715  155.4463 H   0  0  0  0  0  0  0  0  0  0  0  0
  1  2  1  0  0  0  0
  1 18  1  0  0  0  0
  1 19  1  0  0  0  0
  1 20  1  0  0  0  0
  2 17  1  0  0  0  0
  2  3  2  0  0  0  0
  3  4  1  0  0  0  0
  3 21  1  0  0  0  0
  4  5  1  0  0  0  0
  4 16  2  0  0  0  0
  5  6  1  0  0  0  0
  5 22  1  0  0  0  0
  6  7  2  0  0  0  0
  6  8  1  0  0  0  0
  8  9  1  0  0  0  0
  8 23  1  0  0  0  0
  9 14  1  0  0  0  0
  9 10  1  0  0  0  0
  9 24  1  0  0  0  0
 10 11  1  0  0  0  0
 10 25  1  0  0  0  0
 10 26  1  0  0  0  0
 11 12  1  0  0  0  0
 11 27  1  0  0  0  0
 11 28  1  0  0  0  0
 12 13  1  0  0  0  0
 12 29  1  0  0  0  0
 12 30  1  0  0  0  0
 13 14  1  0  0  0  0
 13 31  1  0  0  0  0
 13 32  1  0  0  0  0
 14 15  1  0  0  0  0
 14 33  1  0  0  0  0
 15 34  1  0  0  0  0
 15 35  1  0  0  0  0
 15 36  1  0  0  0  0
 16 17  1  0  0  0  0
M  END
> <s_m_source_file>
AV-unprocessed.smi

> <i_m_source_file_index>
2945

> <i_lp_mmshare_version>
43012

> <i_f3d_flags>
0

> <s_epik_input>
W0NIM11jMVtjSF1jKG5vMSlbTkhdQyg9TylbTkhdW0NAQEhdMltDSDJdW0NIMl1bQ0gyXVtDSDJdW0NASF0yW0NIM10=

> <s_epik_cmdline>
J2VwaWtfcHl0aG9uJywgJy1waCcsICc3LjAnLCAnLXRuJywgJzgnLCAnLW1hJywgJzIwMCcsICctbWV0YWxfYmluZGluZycsICctaW1hZScsICc8aW5maWxlLm1hZT4nLCAnLW9tYWUnLCAnPG91dGZpbGUubWFlPic=

> <r_lp_tautomer_probability>
1

> <r_epik_Ionization_Penalty>
2.357e-05

> <r_epik_Ionization_Penalty_Charging>
0

> <r_epik_Ionization_Penalty_Neutral>
2.357e-05

> <r_epik_State_Penalty>
-0

> <r_epik_Charging_Adjusted_Penalty>
0

> <i_epik_Tot_Q>
0

> <i_epik_Tot_abs_Q>
0

> <r_epik_Metal_State_Penalty>
-0

> <b_epik_Metal_Only>
0

> <s_lp_Force_Field>
OPLS_2005

> <r_lp_Energy>
7.46694

> <b_lp_Chiralities_Consistent>
1

> <s_lp_Variant>
AV-unprocessed.smi:2945-2

> <Gold.Version>
5.8.1

> <Gold.Id.Protein>
6NUR|6NUR_protein|mol2

> <Gold.PLP.Fitness>
31.8719

> <Gold.PLP.PLP>
-24.0230

> <Gold.PLP.part.hbond>
-4.3970

> <Gold.PLP.part.metal>
0.0000

> <Gold.PLP.part.buried>
-3.6564

> <Gold.PLP.part.nonpolar>
-17.4780

> <Gold.PLP.part.repulsive>
0.1266

> <Gold.PLP.ligand.clash>
0.0000

> <Gold.PLP.ligand.torsion>
0.7672

> <Gold.PLP.Chemscore.Hbond>
3.1255

> <Gold.PLP.Chemscore.CHOScore>
0.0000

> <Gold.PLP.Chemscore.Metal>
0.0000

> <Gold.Chemscore.Hbonds>
donor molecule, donor type, donor heavy atom, donor atom, acceptor molecule, acceptor atom, score
      L1  H     5    22       P1  7948  0.80
      L1  H     8    23       P1  7948  1.00
      P1  H  7997  8009       L1    17  0.99
      P1  H 10752 10765       L1    16  0.27

> <Gold.PLP.Chemscore.Internal.Correction>
0.0068

> <Gold.Rescore>
     Score         DG    S(hbond)    S(metal)    S(lipo)     H(rot)  DE(clash)    DE(int)     intcor
     15.36     -16.13       2.28        0.00      47.79       1.00       0.05       0.72       ----

> <Gold.Chemscore.Fitness>
15.3570

> <Gold.Chemscore.DG>
-16.1258

> <Gold.Chemscore.ZeroCoef>
-5.4800

> <Gold.Chemscore.Hbond>
2.2797

> <Gold.Chemscore.Metal>
0.0000

> <Gold.Chemscore.Lipo>
47.7921

> <Gold.Chemscore.Internal_Hbond>
0.0000

> <Gold.Chemscore.DEClash>
0.0482

> <Gold.Chemscore.DEInternal>
0.7206

> <Gold.Chemscore.Rot>
1.0000

> <Gold.Chemscore.Internal.Correction>
   9.000000E+99

> <Gold.Chemscore.Hbonds>
donor molecule, donor type, donor heavy atom, donor atom, acceptor molecule, acceptor atom, score
      L1  H     5    22       P1  7948  0.11
      L1  H     8    23       P1  7948  0.50
      P1  H  7997  8009       L1    17  0.46
      P1  H 10752 10765       L1    16  0.10

> <Gold.Chemscore.Hbond.Weighted>
-7.6141

> <Gold.Chemscore.Metal.Weighted>
-0.0000

> <Gold.Chemscore.Lipo.Weighted>
-5.5917

> <Gold.Chemscore.Internal_Hbond.Weighted>
0.0000

> <Gold.Chemscore.DEClash.Weighted>
0.0482

> <Gold.Chemscore.DEInternal.Weighted>
0.7206

> <Gold.Chemscore.Rot.Weighted>
2.5600

> <Gold.Chemscore.Internal.Correction.Weighted>
   9.000000E+99

> <Gold.Protein.RotatedTorsions>
[ 6907 6896 6895 6894 ] final  107.98 input  -60.11 | X-H torsion
[ 7974 7965 7964 7962 ] final  -17.74 input  175.53 | X-H torsion
[ 8008 7997 7996 7995 ] final -149.64 input   59.86 | X-H torsion
[ 10167 10162 10161 10158 ] final   54.27 input  -65.29 | X-H torsion
[ 10718 10713 10712 10709 ] final   14.45 input   66.30 | X-H torsion
[ 10763 10752 10751 10750 ] final  165.58 input  -60.55 | X-H torsion
[ 11005 11000 10999 10996 ] final   36.53 input  -57.11 | X-H torsion

> <Gold.Protein.ActiveResidues>
 VAL166  LYS551  ARG553  GLY616  TRP617  ASP618  TYR619  PRO620  LYS621  CYS622 
 ASP623  PHE694  ASN695  SER759  ASP760  ASP761  ALA762  ILE779  LEU786  VAL792 
 PHE793  MET794  SER795  GLU796  ALA797  LYS798  CYS799  TRP800  GLU811  SER814 

> <Gold.Protein.RotatedAtoms>
  152.5132  133.9156  159.7508 H   0  0  0  0  0  0  0  0  0  0  0  0  # atno 6907 bound_to 6896
  150.9539  133.6510  159.2773 H   0  0  0  0  0  0  0  0  0  0  0  0  # atno 6908 bound_to 6896
  151.3779  135.0939  159.9539 H   0  0  0  0  0  0  0  0  0  0  0  0  # atno 6909 bound_to 6896
  146.1926  140.3822  142.8452 H   0  0  0  0  0  0  0  0  0  0  0  0  # atno 7974 bound_to 7965
  155.6109  140.0671  157.2706 H   0  0  0  0  0  0  0  0  0  0  0  0  # atno 8008 bound_to 7997
  154.4254  140.1801  156.1319 H   0  0  0  0  0  0  0  0  0  0  0  0  # atno 8009 bound_to 7997
  156.0086  140.3329  155.6921 H   0  0  0  0  0  0  0  0  0  0  0  0  # atno 8010 bound_to 7997
  140.2319  144.3678  150.6411 H   0  0  0  0  0  0  0  0  0  0  0  0  # atno 10167 bound_to 10162
  157.0393  130.6225  149.5748 H   0  0  0  0  0  0  0  0  0  0  0  0  # atno 10718 bound_to 10713
  154.3262  135.2755  155.2495 H   0  0  0  0  0  0  0  0  0  0  0  0  # atno 10763 bound_to 10752
  154.4827  135.5854  153.6404 H   0  0  0  0  0  0  0  0  0  0  0  0  # atno 10764 bound_to 10752
  152.9871  135.6115  154.3451 H   0  0  0  0  0  0  0  0  0  0  0  0  # atno 10765 bound_to 10752
  140.2316  134.3520  155.7961 H   0  0  0  0  0  0  0  0  0  0  0  0  # atno 11005 bound_to 11000
  144.8517  140.7010  143.6164 LP  0  0  0  0  0  0  0  0  0  0  0  0  # atno 17320 bound_to 7965
  145.3744  139.1651  143.4314 LP  0  0  0  0  0  0  0  0  0  0  0  0  # atno 17321 bound_to 7965
  140.6179  143.2174  151.6755 LP  0  0  0  0  0  0  0  0  0  0  0  0  # atno 17342 bound_to 10162
  139.5107  144.3534  152.0631 LP  0  0  0  0  0  0  0  0  0  0  0  0  # atno 17343 bound_to 10162
  156.0043  130.5127  150.7775 LP  0  0  0  0  0  0  0  0  0  0  0  0  # atno 17370 bound_to 10713
  157.5117  131.0926  151.0190 LP  0  0  0  0  0  0  0  0  0  0  0  0  # atno 17371 bound_to 10713
  141.2217  133.7249  156.8741 LP  0  0  0  0  0  0  0  0  0  0  0  0  # atno 17394 bound_to 11000
  140.1744  134.9077  157.2873 LP  0  0  0  0  0  0  0  0  0  0  0  0  # atno 17395 bound_to 11000

$$$$
