AV-unprocessed.smi:120|AV-procd|sdf|1137|dock1
  -GOLD-   2262018263D 1   1.00000     0.00000
 Structure written by MMmdl.
 45 48  0  0  0  0  0  0  0  0  1 V2000
  147.2046  131.9947  152.7042 C   0  0  0  0  0  0  0  0  0  0  0  0
  148.1570  133.0469  152.7619 O   0  0  0  0  0  0  0  0  0  0  0  0
  149.0033  133.0996  153.8489 C   0  0  0  0  0  0  0  0  0  0  0  0
  149.3301  131.8763  154.4649 C   0  0  0  0  0  0  0  0  0  0  0  0
  150.1916  131.8436  155.5752 C   0  0  0  0  0  0  0  0  0  0  0  0
  150.7346  133.0386  156.0807 C   0  0  0  0  0  0  0  0  0  0  0  0
  150.4244  134.2846  155.4889 C   0  0  0  0  0  0  0  0  0  0  0  0
  150.9921  135.5434  156.0193 C   0  0  0  0  0  0  0  0  0  0  0  0
  150.9053  135.8648  157.3040 N   0  0  0  0  0  0  0  0  0  0  0  0
  151.5720  137.0981  157.3618 O   0  0  0  0  0  0  0  0  0  0  0  0
  151.9768  137.3659  156.0946 C   0  0  0  0  0  0  0  0  0  0  0  0
  152.7299  138.6366  155.8360 C   0  0  0  0  0  0  0  0  0  0  0  0
  151.9132  139.8016  156.1392 N   0  0  0  0  0  0  0  0  0  0  0  0
  150.8452  140.0978  155.2574 C   0  0  0  0  0  0  0  0  0  0  0  0
  150.6240  139.4241  154.2496 O   0  0  0  0  0  0  0  0  0  0  0  0
  150.0325  141.2429  155.6530 C   0  0  0  0  0  0  0  0  0  0  0  0
  148.9893  141.6123  154.8908 F   0  0  0  0  0  0  0  0  0  0  0  0
  150.3050  141.9356  156.7798 C   0  0  0  0  0  0  0  0  0  0  0  0
  151.3555  141.6201  157.6256 N   0  0  0  0  0  0  0  0  0  0  0  0
  151.6098  142.4052  158.8936 C   0  0  2  0  0  0  0  0  0  0  0  0
  150.5879  143.5406  159.0264 C   0  0  0  0  0  0  0  0  0  0  0  0
  151.3338  144.7034  158.4096 C   0  0  0  0  0  0  0  0  0  0  0  0
  152.7667  144.4087  158.8371 C   0  0  0  0  0  0  0  0  0  0  0  0
  152.8798  142.9878  158.8252 O   0  0  0  0  0  0  0  0  0  0  0  0
  152.1885  140.5198  157.3275 C   0  0  0  0  0  0  0  0  0  0  0  0
  153.1030  140.1965  158.0891 O   0  0  0  0  0  0  0  0  0  0  0  0
  151.6356  136.4282  155.2110 N   0  0  0  0  0  0  0  0  0  0  0  0
  149.5547  134.2963  154.3721 C   0  0  0  0  0  0  0  0  0  0  0  0
  146.6054  132.1009  151.8001 H   0  0  0  0  0  0  0  0  0  0  0  0
  146.5237  132.0262  153.5560 H   0  0  0  0  0  0  0  0  0  0  0  0
  147.6898  131.0184  152.6651 H   0  0  0  0  0  0  0  0  0  0  0  0
  148.9180  130.9544  154.0813 H   0  0  0  0  0  0  0  0  0  0  0  0
  150.4366  130.9002  156.0406 H   0  0  0  0  0  0  0  0  0  0  0  0
  151.3917  132.9891  156.9366 H   0  0  0  0  0  0  0  0  0  0  0  0
  153.6439  138.6720  156.4297 H   0  0  0  0  0  0  0  0  0  0  0  0
  153.0418  138.7049  154.7923 H   0  0  0  0  0  0  0  0  0  0  0  0
  149.6604  142.7670  157.0235 H   0  0  0  0  0  0  0  0  0  0  0  0
  151.5803  141.6825  159.7107 H   0  0  0  0  0  0  0  0  0  0  0  0
  149.6400  143.3098  158.5386 H   0  0  0  0  0  0  0  0  0  0  0  0
  150.4054  143.7227  160.0863 H   0  0  0  0  0  0  0  0  0  0  0  0
  151.2481  144.6730  157.3227 H   0  0  0  0  0  0  0  0  0  0  0  0
  150.9767  145.6740  158.7547 H   0  0  0  0  0  0  0  0  0  0  0  0
  153.5050  144.8752  158.1845 H   0  0  0  0  0  0  0  0  0  0  0  0
  152.9388  144.7639  159.8540 H   0  0  0  0  0  0  0  0  0  0  0  0
  149.3207  135.2462  153.9165 H   0  0  0  0  0  0  0  0  0  0  0  0
  1  2  1  0  0  0  0
  1 29  1  0  0  0  0
  1 30  1  0  0  0  0
  1 31  1  0  0  0  0
  2  3  1  0  0  0  0
  3 28  1  0  0  0  0
  3  4  2  0  0  0  0
  4  5  1  0  0  0  0
  4 32  1  0  0  0  0
  5  6  2  0  0  0  0
  5 33  1  0  0  0  0
  6  7  1  0  0  0  0
  6 34  1  0  0  0  0
  7  8  1  0  0  0  0
  7 28  2  0  0  0  0
  8 27  1  0  0  0  0
  8  9  2  0  0  0  0
  9 10  1  0  0  0  0
 10 11  1  0  0  0  0
 11 12  1  0  0  0  0
 11 27  2  0  0  0  0
 12 13  1  0  0  0  0
 12 35  1  0  0  0  0
 12 36  1  0  0  0  0
 13 25  1  0  0  0  0
 13 14  1  0  0  0  0
 14 15  2  0  0  0  0
 14 16  1  0  0  0  0
 16 17  1  0  0  0  0
 16 18  2  0  0  0  0
 18 19  1  0  0  0  0
 18 37  1  0  0  0  0
 19 20  1  0  0  0  0
 19 25  1  0  0  0  0
 20 24  1  0  0  0  0
 20 21  1  0  0  0  0
 20 38  1  0  0  0  0
 21 22  1  0  0  0  0
 21 39  1  0  0  0  0
 21 40  1  0  0  0  0
 22 23  1  0  0  0  0
 22 41  1  0  0  0  0
 22 42  1  0  0  0  0
 23 24  1  0  0  0  0
 23 43  1  0  0  0  0
 23 44  1  0  0  0  0
 25 26  2  0  0  0  0
 28 45  1  0  0  0  0
M  END
> <s_m_source_file>
AV-unprocessed.smi

> <i_m_source_file_index>
120

> <i_lp_mmshare_version>
43012

> <i_f3d_flags>
0

> <s_epik_input>
W0NIM11PYzFbY0hdW2NIXVtjSF1jKFtjSF0xKS1jMm5vYyhuMilbQ0gyXW4zYyg9TyljKEYpW2NIXW4oYzM9TylbQ0BASF00W0NIMl1bQ0gyXVtDSDJdTzQ=

> <s_epik_cmdline>
J2VwaWtfcHl0aG9uJywgJy1waCcsICc3LjAnLCAnLXRuJywgJzgnLCAnLW1hJywgJzIwMCcsICctbWV0YWxfYmluZGluZycsICctaW1hZScsICc8aW5maWxlLm1hZT4nLCAnLW9tYWUnLCAnPG91dGZpbGUubWFlPic=

> <r_lp_tautomer_probability>
1

> <r_epik_Ionization_Penalty>
4.93314e-09

> <r_epik_Ionization_Penalty_Charging>
4.92654e-09

> <r_epik_Ionization_Penalty_Neutral>
6.60436e-12

> <r_epik_State_Penalty>
-0

> <r_epik_Charging_Adjusted_Penalty>
4.92654e-09

> <i_epik_Tot_Q>
0

> <i_epik_Tot_abs_Q>
0

> <r_epik_Metal_State_Penalty>
-0

> <b_epik_Metal_Only>
0

> <s_epik_Chemistry_Notes>
This compound contains an acetal/aminal-like group ( X-CH(R)-Y where X, Y are N, S, or O) that may be acid/base labile, releasing an aldehyde.

> <s_lp_Force_Field>
OPLS_2005

> <r_lp_Energy>
37.1389

> <b_lp_Chiralities_Consistent>
1

> <s_lp_Variant>
AV-unprocessed.smi:120-1

> <Gold.Version>
5.8.1

> <Gold.Id.Protein>
6NUR|6NUR_protein|mol2

> <Gold.PLP.Fitness>
58.5405

> <Gold.PLP.PLP>
-51.9944

> <Gold.PLP.part.hbond>
-3.5228

> <Gold.PLP.part.metal>
0.0000

> <Gold.PLP.part.buried>
-2.3738

> <Gold.PLP.part.nonpolar>
-44.7037

> <Gold.PLP.part.repulsive>
0.4646

> <Gold.PLP.ligand.clash>
0.0000

> <Gold.PLP.ligand.torsion>
1.4709

> <Gold.PLP.Chemscore.Hbond>
2.1000

> <Gold.PLP.Chemscore.CHOScore>
1.0000

> <Gold.PLP.Chemscore.Metal>
0.0000

> <Gold.Chemscore.Hbonds>
donor molecule, donor type, donor heavy atom, donor atom, acceptor molecule, acceptor atom, score
      P1  H  7997  8008       L1    26  0.98
      P1  H 10752 10765       L1    27  1.00
      L1  C    18    37       P1  8028  1.00

> <Gold.PLP.Chemscore.Internal.Correction>
0.1878

> <Gold.Rescore>
     Score         DG    S(hbond)    S(metal)    S(lipo)     H(rot)  DE(clash)    DE(int)     intcor
     13.32     -17.16       1.97        0.00      87.19       1.99       0.10       3.74       ----

> <Gold.Chemscore.Fitness>
13.3185

> <Gold.Chemscore.DG>
-17.1587

> <Gold.Chemscore.ZeroCoef>
-5.4800

> <Gold.Chemscore.Hbond>
1.9660

> <Gold.Chemscore.Metal>
0.0000

> <Gold.Chemscore.Lipo>
87.1897

> <Gold.Chemscore.Internal_Hbond>
0.0000

> <Gold.Chemscore.DEClash>
0.0961

> <Gold.Chemscore.DEInternal>
3.7441

> <Gold.Chemscore.Rot>
1.9879

> <Gold.Chemscore.Internal.Correction>
   9.000000E+99

> <Gold.Chemscore.Hbonds>
donor molecule, donor type, donor heavy atom, donor atom, acceptor molecule, acceptor atom, score
      P1  H  7997  8008       L1    26  0.42
      P1  H 10752 10765       L1    27  0.59

> <Gold.Chemscore.Hbond.Weighted>
-6.5665

> <Gold.Chemscore.Metal.Weighted>
-0.0000

> <Gold.Chemscore.Lipo.Weighted>
-10.2012

> <Gold.Chemscore.Internal_Hbond.Weighted>
0.0000

> <Gold.Chemscore.DEClash.Weighted>
0.0961

> <Gold.Chemscore.DEInternal.Weighted>
3.7441

> <Gold.Chemscore.Rot.Weighted>
5.0890

> <Gold.Chemscore.Internal.Correction.Weighted>
   9.000000E+99

> <Gold.Protein.RotatedTorsions>
[ 6907 6896 6895 6894 ] final  156.04 input  -60.11 | X-H torsion
[ 7974 7965 7964 7962 ] final   27.26 input  175.53 | X-H torsion
[ 8008 7997 7996 7995 ] final  -82.79 input   59.86 | X-H torsion
[ 10167 10162 10161 10158 ] final   -0.76 input  -65.29 | X-H torsion
[ 10718 10713 10712 10709 ] final -104.57 input   66.30 | X-H torsion
[ 10763 10752 10751 10750 ] final  172.64 input  -60.55 | X-H torsion
[ 11005 11000 10999 10996 ] final  156.32 input  -57.11 | X-H torsion

> <Gold.Protein.ActiveResidues>
 VAL166  LYS551  ARG553  GLY616  TRP617  ASP618  TYR619  PRO620  LYS621  CYS622 
 ASP623  PHE694  ASN695  SER759  ASP760  ASP761  ALA762  ILE779  LEU786  VAL792 
 PHE793  MET794  SER795  GLU796  ALA797  LYS798  CYS799  TRP800  GLU811  SER814 

> <Gold.Protein.RotatedAtoms>
  152.0354  133.3955  159.4314 H   0  0  0  0  0  0  0  0  0  0  0  0  # atno 6907 bound_to 6896
  150.6879  134.3474  159.4903 H   0  0  0  0  0  0  0  0  0  0  0  0  # atno 6908 bound_to 6896
  152.1266  134.9166  160.0611 H   0  0  0  0  0  0  0  0  0  0  0  0  # atno 6909 bound_to 6896
  146.1793  139.7215  142.8911 H   0  0  0  0  0  0  0  0  0  0  0  0  # atno 7974 bound_to 7965
  154.6123  140.0628  156.9510 H   0  0  0  0  0  0  0  0  0  0  0  0  # atno 8008 bound_to 7997
  155.1952  140.3310  155.4333 H   0  0  0  0  0  0  0  0  0  0  0  0  # atno 8009 bound_to 7997
  156.2384  140.1874  156.7040 H   0  0  0  0  0  0  0  0  0  0  0  0  # atno 8010 bound_to 7997
  140.6781  143.6856  150.8070 H   0  0  0  0  0  0  0  0  0  0  0  0  # atno 10167 bound_to 10162
  156.0310  130.5522  150.7415 H   0  0  0  0  0  0  0  0  0  0  0  0  # atno 10718 bound_to 10713
  154.4289  135.2759  155.1925 H   0  0  0  0  0  0  0  0  0  0  0  0  # atno 10763 bound_to 10752
  154.3840  135.6081  153.5810 H   0  0  0  0  0  0  0  0  0  0  0  0  # atno 10764 bound_to 10752
  152.9835  135.5887  154.4597 H   0  0  0  0  0  0  0  0  0  0  0  0  # atno 10765 bound_to 10752
  140.1664  134.8574  157.2637 H   0  0  0  0  0  0  0  0  0  0  0  0  # atno 11005 bound_to 11000
  145.4121  141.0397  143.3011 LP  0  0  0  0  0  0  0  0  0  0  0  0  # atno 17320 bound_to 7965
  144.8289  139.5663  143.6953 LP  0  0  0  0  0  0  0  0  0  0  0  0  # atno 17321 bound_to 7965
  140.0552  143.5210  152.2654 LP  0  0  0  0  0  0  0  0  0  0  0  0  # atno 17342 bound_to 10162
  139.6086  144.7603  151.3004 LP  0  0  0  0  0  0  0  0  0  0  0  0  # atno 17343 bound_to 10162
  157.4983  131.0916  151.0345 LP  0  0  0  0  0  0  0  0  0  0  0  0  # atno 17370 bound_to 10713
  157.0733  130.5873  149.5406 LP  0  0  0  0  0  0  0  0  0  0  0  0  # atno 17371 bound_to 10713
  140.2429  134.3774  155.7473 LP  0  0  0  0  0  0  0  0  0  0  0  0  # atno 17394 bound_to 11000
  141.2214  133.7275  156.8817 LP  0  0  0  0  0  0  0  0  0  0  0  0  # atno 17395 bound_to 11000

$$$$
