AV-unprocessed.smi:38|AV-procd|sdf|338|dock10
  -GOLD-   2262016173D 1   1.00000     0.00000
 Structure written by MMmdl.
 28 29  0  0  0  0  0  0  0  0  1 V2000
  152.5287  136.9778  159.6344 O   0  0  0  0  0  0  0  0  0  0  0  0
  152.0367  137.5046  158.6384 C   0  0  0  0  0  0  0  0  0  0  0  0
  152.8615  137.9809  157.6150 N   0  0  0  0  0  0  0  0  0  0  0  0
  152.4243  138.5936  156.4389 C   0  0  0  0  0  0  0  0  0  0  0  0
  153.2458  138.9900  155.6135 O   0  0  0  0  0  0  0  0  0  0  0  0
  151.0291  138.7337  156.2659 N   0  0  0  0  0  0  0  0  0  0  0  0
  150.4929  139.3833  155.0110 C   0  0  2  0  0  0  0  0  0  0  0  0
  150.0799  140.8340  155.2804 C   0  0  0  0  0  0  0  0  0  0  0  0
  148.8070  140.9610  154.4673 C   0  0  1  0  0  0  0  0  0  0  0  0
  149.1019  141.3405  153.1362 O   0  0  0  0  0  0  0  0  0  0  0  0
  148.2257  139.5425  154.5558 C   0  0  1  0  0  0  0  0  0  0  0  0
  147.2436  139.1213  153.4489 C   0  0  0  0  0  0  0  0  0  0  0  0
  147.9488  138.7459  152.2849 O   0  0  0  0  0  0  0  0  0  0  0  0
  149.3614  138.6812  154.5852 O   0  0  0  0  0  0  0  0  0  0  0  0
  150.1725  138.2879  157.2635 C   0  0  0  0  0  0  0  0  0  0  0  0
  150.6093  137.6990  158.4016 C   0  0  0  0  0  0  0  0  0  0  0  0
  149.7190  137.2950  159.3236 F   0  0  0  0  0  0  0  0  0  0  0  0
  153.8582  137.8764  157.7393 H   0  0  0  0  0  0  0  0  0  0  0  0
  151.2476  139.2881  154.2288 H   0  0  0  0  0  0  0  0  0  0  0  0
  148.1284  141.7020  154.8915 H   0  0  0  0  0  0  0  0  0  0  0  0
  147.7295  139.4394  155.5218 H   0  0  0  0  0  0  0  0  0  0  0  0
  149.8564  140.9621  156.3407 H   0  0  0  0  0  0  0  0  0  0  0  0
  150.8694  141.5329  155.0014 H   0  0  0  0  0  0  0  0  0  0  0  0
  149.1018  140.5640  152.5970 H   0  0  0  0  0  0  0  0  0  0  0  0
  146.6004  138.3025  153.7718 H   0  0  0  0  0  0  0  0  0  0  0  0
  146.5898  139.9565  153.1970 H   0  0  0  0  0  0  0  0  0  0  0  0
  148.0854  137.8109  152.3053 H   0  0  0  0  0  0  0  0  0  0  0  0
  149.1075  138.4141  157.1417 H   0  0  0  0  0  0  0  0  0  0  0  0
  1  2  2  0  0  0  0
  2 16  1  0  0  0  0
  2  3  1  0  0  0  0
  3 18  1  0  0  0  0
  3  4  1  0  0  0  0
  4  5  2  0  0  0  0
  4  6  1  0  0  0  0
  6  7  1  0  0  0  0
  6 15  1  0  0  0  0
  7 19  1  0  0  0  0
  7 14  1  0  0  0  0
  7  8  1  0  0  0  0
  8  9  1  0  0  0  0
  8 22  1  0  0  0  0
  8 23  1  0  0  0  0
  9 20  1  0  0  0  0
  9 10  1  0  0  0  0
  9 11  1  0  0  0  0
 10 24  1  0  0  0  0
 11 21  1  0  0  0  0
 11 12  1  0  0  0  0
 11 14  1  0  0  0  0
 12 13  1  0  0  0  0
 12 25  1  0  0  0  0
 12 26  1  0  0  0  0
 13 27  1  0  0  0  0
 15 16  2  0  0  0  0
 15 28  1  0  0  0  0
 16 17  1  0  0  0  0
M  END
> <s_m_source_file>
AV-unprocessed.smi

> <i_m_source_file_index>
38

> <i_lp_mmshare_version>
43012

> <i_f3d_flags>
0

> <s_epik_input>
Tz1jMVtuSF1jKD1PKW4oW2NIXWMxRilbQ0BIXTJbQ0gyXVtDQEhdKFtPSF0pW0NASF0oTzIpW0NIMl1bT0hd

> <s_epik_cmdline>
J2VwaWtfcHl0aG9uJywgJy1waCcsICc3LjAnLCAnLXRuJywgJzgnLCAnLW1hJywgJzIwMCcsICctbWV0YWxfYmluZGluZycsICctaW1hZScsICc8aW5maWxlLm1hZT4nLCAnLW9tYWUnLCAnPG91dGZpbGUubWFlPic=

> <r_lp_tautomer_probability>
0.999537

> <r_epik_Ionization_Penalty>
0.0357432

> <r_epik_Ionization_Penalty_Charging>
0.0357431

> <r_epik_Ionization_Penalty_Neutral>
1.19946e-07

> <r_epik_State_Penalty>
0.0298169

> <r_epik_Charging_Adjusted_Penalty>
0.06556

> <i_epik_Tot_Q>
0

> <i_epik_Tot_abs_Q>
0

> <r_epik_Metal_State_Penalty>
2.348

> <b_epik_Metal_Only>
0

> <s_epik_Chemistry_Notes>
This compound contains an acetal/aminal-like group ( X-CH(R)-Y where X, Y are N, S, or O) that may be acid/base labile, releasing an aldehyde.

> <s_lp_Force_Field>
OPLS_2005

> <r_lp_Energy>
29.3981

> <b_lp_Chiralities_Consistent>
1

> <s_lp_Variant>
AV-unprocessed.smi:38-4

> <Gold.Version>
5.8.1

> <Gold.Id.Protein>
6NUR|6NUR_protein|mol2

> <Gold.PLP.Fitness>
38.5542

> <Gold.PLP.PLP>
-25.4009

> <Gold.PLP.part.hbond>
-5.9659

> <Gold.PLP.part.metal>
0.0000

> <Gold.PLP.part.buried>
-3.3664

> <Gold.PLP.part.nonpolar>
-15.7934

> <Gold.PLP.part.repulsive>
0.2863

> <Gold.PLP.ligand.clash>
0.0000

> <Gold.PLP.ligand.torsion>
0.6965

> <Gold.PLP.Chemscore.Hbond>
4.8480

> <Gold.PLP.Chemscore.CHOScore>
0.0000

> <Gold.PLP.Chemscore.Metal>
0.0000

> <Gold.Chemscore.Hbonds>
donor molecule, donor type, donor heavy atom, donor atom, acceptor molecule, acceptor atom, score
      L1  H    10    24       P1  7957  0.80
      L1  H    13    27       P1  7948  1.00
      P1  H  6896  6908       L1     1  1.00
      P1  H  7997  8008       L1     5  1.00
      P1  H  8011  8017       L1    10  0.94

> <Gold.PLP.Chemscore.Internal.Correction>
0.0023

> <Gold.Rescore>
     Score         DG    S(hbond)    S(metal)    S(lipo)     H(rot)  DE(clash)    DE(int)     intcor
     15.20     -15.74       4.25        0.00      30.26       2.91       0.07       0.48       ----

> <Gold.Chemscore.Fitness>
15.1998

> <Gold.Chemscore.DG>
-15.7443

> <Gold.Chemscore.ZeroCoef>
-5.4800

> <Gold.Chemscore.Hbond>
4.2465

> <Gold.Chemscore.Metal>
0.0000

> <Gold.Chemscore.Lipo>
30.2644

> <Gold.Chemscore.Internal_Hbond>
0.0000

> <Gold.Chemscore.DEClash>
0.0694

> <Gold.Chemscore.DEInternal>
0.4752

> <Gold.Chemscore.Rot>
2.9141

> <Gold.Chemscore.Internal.Correction>
   9.000000E+99

> <Gold.Chemscore.Hbonds>
donor molecule, donor type, donor heavy atom, donor atom, acceptor molecule, acceptor atom, score
      L1  H    10    24       P1  7957  0.79
      L1  H    13    27       P1  7948  0.97
      P1  H  6896  6908       L1     1  0.88
      P1  H  7997  8008       L1     5  0.96
      P1  H  8011  8017       L1    10  0.48

> <Gold.Chemscore.Hbond.Weighted>
-14.1835

> <Gold.Chemscore.Metal.Weighted>
-0.0000

> <Gold.Chemscore.Lipo.Weighted>
-3.5409

> <Gold.Chemscore.Internal_Hbond.Weighted>
0.0000

> <Gold.Chemscore.DEClash.Weighted>
0.0694

> <Gold.Chemscore.DEInternal.Weighted>
0.4752

> <Gold.Chemscore.Rot.Weighted>
7.4601

> <Gold.Chemscore.Internal.Correction.Weighted>
   9.000000E+99

> <Gold.Protein.RotatedTorsions>
[ 6907 6896 6895 6894 ] final -100.16 input  -60.11 | X-H torsion
[ 7974 7965 7964 7962 ] final   -3.43 input  175.53 | X-H torsion
[ 8008 7997 7996 7995 ] final  -19.93 input   59.86 | X-H torsion
[ 10167 10162 10161 10158 ] final -105.60 input  -65.29 | X-H torsion
[ 10718 10713 10712 10709 ] final  -24.38 input   66.30 | X-H torsion
[ 10763 10752 10751 10750 ] final   92.51 input  -60.55 | X-H torsion
[ 11005 11000 10999 10996 ] final    7.57 input  -57.11 | X-H torsion

> <Gold.Protein.ActiveResidues>
 VAL166  LYS551  ARG553  GLY616  TRP617  ASP618  TYR619  PRO620  LYS621  CYS622 
 ASP623  PHE694  ASN695  SER759  ASP760  ASP761  ALA762  ILE779  LEU786  VAL792 
 PHE793  MET794  SER795  GLU796  ALA797  LYS798  CYS799  TRP800  GLU811  SER814 

> <Gold.Protein.RotatedAtoms>
  150.7105  134.0930  159.3938 H   0  0  0  0  0  0  0  0  0  0  0  0  # atno 6907 bound_to 6896
  151.8916  135.0412  160.0507 H   0  0  0  0  0  0  0  0  0  0  0  0  # atno 6908 bound_to 6896
  152.2487  133.5161  159.5349 H   0  0  0  0  0  0  0  0  0  0  0  0  # atno 6909 bound_to 6896
  146.2389  140.1720  142.8332 H   0  0  0  0  0  0  0  0  0  0  0  0  # atno 7974 bound_to 7965
  154.4803  140.2075  155.9779 H   0  0  0  0  0  0  0  0  0  0  0  0  # atno 8008 bound_to 7997
  156.1155  140.3222  155.8102 H   0  0  0  0  0  0  0  0  0  0  0  0  # atno 8009 bound_to 7997
  155.4560  140.0520  157.2987 H   0  0  0  0  0  0  0  0  0  0  0  0  # atno 8010 bound_to 7997
  140.1968  143.3849  152.1162 H   0  0  0  0  0  0  0  0  0  0  0  0  # atno 10167 bound_to 10162
  156.4784  130.4540  149.6826 H   0  0  0  0  0  0  0  0  0  0  0  0  # atno 10718 bound_to 10713
  153.2200  135.4359  155.0478 H   0  0  0  0  0  0  0  0  0  0  0  0  # atno 10763 bound_to 10752
  154.8245  135.3354  154.6942 H   0  0  0  0  0  0  0  0  0  0  0  0  # atno 10764 bound_to 10752
  153.7374  135.7007  153.5031 H   0  0  0  0  0  0  0  0  0  0  0  0  # atno 10765 bound_to 10752
  140.5468  134.0321  155.7923 H   0  0  0  0  0  0  0  0  0  0  0  0  # atno 11005 bound_to 11000
  145.0004  140.8627  143.5285 LP  0  0  0  0  0  0  0  0  0  0  0  0  # atno 17320 bound_to 7965
  145.1738  139.2389  143.5328 LP  0  0  0  0  0  0  0  0  0  0  0  0  # atno 17321 bound_to 7965
  139.5233  144.7070  151.5323 LP  0  0  0  0  0  0  0  0  0  0  0  0  # atno 17342 bound_to 10162
  140.6418  143.8873  150.6699 LP  0  0  0  0  0  0  0  0  0  0  0  0  # atno 17343 bound_to 10162
  156.3546  130.7450  151.2414 LP  0  0  0  0  0  0  0  0  0  0  0  0  # atno 17370 bound_to 10713
  157.7485  131.0367  150.4423 LP  0  0  0  0  0  0  0  0  0  0  0  0  # atno 17371 bound_to 10713
  141.1195  133.9485  157.2757 LP  0  0  0  0  0  0  0  0  0  0  0  0  # atno 17394 bound_to 11000
  139.9475  135.0181  156.8897 LP  0  0  0  0  0  0  0  0  0  0  0  0  # atno 17395 bound_to 11000

$$$$
