AV-unprocessed.smi:2339|AV-procd|sdf|9337|dock7
  -GOLD-   2272012553D 1   1.00000     0.00000
 Structure written by MMmdl.
 49 52  0  0  0  0  0  0  0  0  1 V2000
  145.3559  128.6600  151.9056 C   0  0  0  0  0  0  0  0  0  0  0  0
  146.3269  129.5723  152.6629 C   0  0  0  0  0  0  0  0  0  0  0  0
  146.1707  130.9680  152.2787 N   0  0  0  0  0  0  0  0  0  0  0  0
  145.3256  131.3396  151.2379 C   0  0  0  0  0  0  0  0  0  0  0  0
  145.2020  132.6000  150.7785 C   0  0  0  0  0  0  0  0  0  0  0  0
  146.0027  133.6769  151.3952 C   0  0  0  0  0  0  0  0  0  0  0  0
  145.9204  134.8390  150.9974 O   0  0  0  0  0  0  0  0  0  0  0  0
  146.9015  133.2800  152.5103 C   0  0  0  0  0  0  0  0  0  0  0  0
  147.6689  134.3042  153.0847 N   0  0  0  0  0  0  0  0  0  0  0  0
  147.7771  134.6650  154.3793 C   0  0  0  0  0  0  0  0  0  0  0  0
  147.1510  134.1633  155.3105 O   0  0  0  0  0  0  0  0  0  0  0  0
  148.6145  135.6967  154.5817 N   0  0  0  0  0  0  0  0  0  0  0  0
  148.9560  136.3319  155.8609 C   0  0  1  0  0  0  0  0  0  0  0  0
  149.6030  135.3701  156.8873 C   0  0  1  0  0  0  0  0  0  0  0  0
  149.6334  133.8700  156.7159 C   0  0  0  0  0  0  0  0  0  0  0  0
  151.0245  133.6220  156.1260 C   0  0  0  0  0  0  0  0  0  0  0  0
  151.4093  134.8744  155.5642 O   0  0  0  0  0  0  0  0  0  0  0  0
  150.9568  135.9008  156.4433 C   0  0  1  0  0  0  0  0  0  0  0  0
  150.2843  137.1213  155.7825 C   0  0  0  0  0  0  0  0  0  0  0  0
  150.8302  137.5880  154.4328 C   0  0  0  0  0  0  0  0  0  0  0  0
  151.9389  138.5972  154.7327 C   0  0  0  0  0  0  0  0  0  0  0  0
  151.5841  139.1968  156.0965 C   0  0  0  0  0  0  0  0  0  0  0  0
  150.3602  138.4170  156.5903 C   0  0  0  0  0  0  0  0  0  0  0  0
  146.9345  131.9720  152.8707 C   0  0  0  0  0  0  0  0  0  0  0  0
  145.4939  127.6197  152.2000 H   0  0  0  0  0  0  0  0  0  0  0  0
  145.5122  128.7249  150.8284 H   0  0  0  0  0  0  0  0  0  0  0  0
  144.3196  128.9291  152.1125 H   0  0  0  0  0  0  0  0  0  0  0  0
  146.1695  129.4703  153.7374 H   0  0  0  0  0  0  0  0  0  0  0  0
  147.3537  129.2566  152.4745 H   0  0  0  0  0  0  0  0  0  0  0  0
  144.7552  130.5253  150.8150 H   0  0  0  0  0  0  0  0  0  0  0  0
  144.5303  132.8418  149.9678 H   0  0  0  0  0  0  0  0  0  0  0  0
  148.1858  134.8640  152.4219 H   0  0  0  0  0  0  0  0  0  0  0  0
  148.9881  136.1450  153.7573 H   0  0  0  0  0  0  0  0  0  0  0  0
  148.1490  136.9298  156.2887 H   0  0  0  0  0  0  0  0  0  0  0  0
  149.3762  135.6884  157.9059 H   0  0  0  0  0  0  0  0  0  0  0  0
  149.5107  133.3448  157.6634 H   0  0  0  0  0  0  0  0  0  0  0  0
  148.8524  133.5123  156.0468 H   0  0  0  0  0  0  0  0  0  0  0  0
  151.7315  133.3552  156.9127 H   0  0  0  0  0  0  0  0  0  0  0  0
  151.0297  132.8290  155.3782 H   0  0  0  0  0  0  0  0  0  0  0  0
  151.6461  136.1105  157.2626 H   0  0  0  0  0  0  0  0  0  0  0  0
  151.1982  136.7672  153.8165 H   0  0  0  0  0  0  0  0  0  0  0  0
  150.0408  138.0802  153.8630 H   0  0  0  0  0  0  0  0  0  0  0  0
  152.8991  138.0836  154.7964 H   0  0  0  0  0  0  0  0  0  0  0  0
  152.0216  139.3551  153.9533 H   0  0  0  0  0  0  0  0  0  0  0  0
  152.4204  139.0787  156.7866 H   0  0  0  0  0  0  0  0  0  0  0  0
  151.3655  140.2628  156.0250 H   0  0  0  0  0  0  0  0  0  0  0  0
  149.4633  139.0138  156.4191 H   0  0  0  0  0  0  0  0  0  0  0  0
  150.4133  138.2365  157.6648 H   0  0  0  0  0  0  0  0  0  0  0  0
  147.5750  131.5963  153.6531 H   0  0  0  0  0  0  0  0  0  0  0  0
  1  2  1  0  0  0  0
  1 25  1  0  0  0  0
  1 26  1  0  0  0  0
  1 27  1  0  0  0  0
  2  3  1  0  0  0  0
  2 28  1  0  0  0  0
  2 29  1  0  0  0  0
  3 24  1  0  0  0  0
  3  4  1  0  0  0  0
  4  5  2  0  0  0  0
  4 30  1  0  0  0  0
  5  6  1  0  0  0  0
  5 31  1  0  0  0  0
  6  7  2  0  0  0  0
  6  8  1  0  0  0  0
  8  9  1  0  0  0  0
  8 24  2  0  0  0  0
  9 10  1  0  0  0  0
  9 32  1  0  0  0  0
 10 11  2  0  0  0  0
 10 12  1  0  0  0  0
 12 13  1  0  0  0  0
 12 33  1  0  0  0  0
 13 19  1  0  0  0  0
 13 14  1  0  0  0  0
 13 34  1  0  0  0  0
 14 18  1  0  0  0  0
 14 15  1  0  0  0  0
 14 35  1  0  0  0  0
 15 16  1  0  0  0  0
 15 36  1  0  0  0  0
 15 37  1  0  0  0  0
 16 17  1  0  0  0  0
 16 38  1  0  0  0  0
 16 39  1  0  0  0  0
 17 18  1  0  0  0  0
 18 19  1  0  0  0  0
 18 40  1  0  0  0  0
 19 23  1  0  0  0  0
 19 20  1  0  0  0  0
 20 21  1  0  0  0  0
 20 41  1  0  0  0  0
 20 42  1  0  0  0  0
 21 22  1  0  0  0  0
 21 43  1  0  0  0  0
 21 44  1  0  0  0  0
 22 23  1  0  0  0  0
 22 45  1  0  0  0  0
 22 46  1  0  0  0  0
 23 47  1  0  0  0  0
 23 48  1  0  0  0  0
 24 49  1  0  0  0  0
M  END
> <s_m_source_file>
AV-unprocessed.smi

> <i_m_source_file_index>
2339

> <i_lp_mmshare_version>
43012

> <i_f3d_flags>
0

> <s_epik_input>
W0NIM11bQ0gyXW4xW2NIXVtjSF1jKD1PKWMoW2NIXTEpW05IXUMoPU8pW05IXVtDQEBIXTJbQ0BASF0oW0NIMl1bQ0gyXU8zKVtDQEBIXTNDMjRbQ0gyXVtDSDJdW0NIMl1bQ0gyXTQ=

> <s_epik_cmdline>
J2VwaWtfcHl0aG9uJywgJy1waCcsICc3LjAnLCAnLXRuJywgJzgnLCAnLW1hJywgJzIwMCcsICctbWV0YWxfYmluZGluZycsICctaW1hZScsICc8aW5maWxlLm1hZT4nLCAnLW9tYWUnLCAnPG91dGZpbGUubWFlPic=

> <r_lp_tautomer_probability>
1

> <r_epik_Ionization_Penalty>
0.00145966

> <r_epik_Ionization_Penalty_Charging>
0.00143969

> <r_epik_Ionization_Penalty_Neutral>
1.99697e-05

> <r_epik_State_Penalty>
0.000961843

> <r_epik_Charging_Adjusted_Penalty>
0.00240153

> <i_epik_Tot_Q>
0

> <i_epik_Tot_abs_Q>
0

> <r_epik_Metal_State_Penalty>
-0

> <b_epik_Metal_Only>
0

> <s_lp_Force_Field>
OPLS_2005

> <r_lp_Energy>
59.7263

> <b_lp_Chiralities_Consistent>
1

> <s_lp_Variant>
AV-unprocessed.smi:2339-2

> <Gold.Version>
5.8.1

> <Gold.Id.Protein>
6NUR|6NUR_protein|mol2

> <Gold.PLP.Fitness>
42.3296

> <Gold.PLP.PLP>
-34.5930

> <Gold.PLP.part.hbond>
-3.0000

> <Gold.PLP.part.metal>
0.0000

> <Gold.PLP.part.buried>
-3.8567

> <Gold.PLP.part.nonpolar>
-27.4079

> <Gold.PLP.part.repulsive>
0.2872

> <Gold.PLP.ligand.clash>
0.0000

> <Gold.PLP.ligand.torsion>
0.6505

> <Gold.PLP.Chemscore.Hbond>
2.9440

> <Gold.PLP.Chemscore.CHOScore>
0.0000

> <Gold.PLP.Chemscore.Metal>
0.0000

> <Gold.Chemscore.Hbonds>
donor molecule, donor type, donor heavy atom, donor atom, acceptor molecule, acceptor atom, score
      L1  H     9    32       P1  7948  1.00
      L1  H    12    33       P1  7948  0.93
      P1  H 10752 10764       L1    17  0.82

> <Gold.PLP.Chemscore.Internal.Correction>
0.2055

> <Gold.Rescore>
     Score         DG    S(hbond)    S(metal)    S(lipo)     H(rot)  DE(clash)    DE(int)     intcor
     20.55     -21.30       2.56        0.00      87.60       1.17       0.01       0.74       ----

> <Gold.Chemscore.Fitness>
20.5539

> <Gold.Chemscore.DG>
-21.3024

> <Gold.Chemscore.ZeroCoef>
-5.4800

> <Gold.Chemscore.Hbond>
2.5631

> <Gold.Chemscore.Metal>
0.0000

> <Gold.Chemscore.Lipo>
87.5983

> <Gold.Chemscore.Internal_Hbond>
0.0000

> <Gold.Chemscore.DEClash>
0.0060

> <Gold.Chemscore.DEInternal>
0.7426

> <Gold.Chemscore.Rot>
1.1670

> <Gold.Chemscore.Internal.Correction>
   9.000000E+99

> <Gold.Chemscore.Hbonds>
donor molecule, donor type, donor heavy atom, donor atom, acceptor molecule, acceptor atom, score
      L1  H     9    32       P1  7948  0.54
      L1  H    12    33       P1  7948  0.88
      P1  H 10752 10764       L1    17  0.45

> <Gold.Chemscore.Hbond.Weighted>
-8.5609

> <Gold.Chemscore.Metal.Weighted>
-0.0000

> <Gold.Chemscore.Lipo.Weighted>
-10.2490

> <Gold.Chemscore.Internal_Hbond.Weighted>
0.0000

> <Gold.Chemscore.DEClash.Weighted>
0.0060

> <Gold.Chemscore.DEInternal.Weighted>
0.7426

> <Gold.Chemscore.Rot.Weighted>
2.9874

> <Gold.Chemscore.Internal.Correction.Weighted>
   9.000000E+99

> <Gold.Protein.RotatedTorsions>
[ 6907 6896 6895 6894 ] final   17.86 input  -60.11 | X-H torsion
[ 7974 7965 7964 7962 ] final   -0.45 input  175.53 | X-H torsion
[ 8008 7997 7996 7995 ] final    6.49 input   59.86 | X-H torsion
[ 10167 10162 10161 10158 ] final -152.81 input  -65.29 | X-H torsion
[ 10718 10713 10712 10709 ] final  -95.74 input   66.30 | X-H torsion
[ 10763 10752 10751 10750 ] final  -45.90 input  -60.55 | X-H torsion
[ 11005 11000 10999 10996 ] final -123.89 input  -57.11 | X-H torsion

> <Gold.Protein.ActiveResidues>
 VAL166  LYS551  ARG553  GLY616  TRP617  ASP618  TYR619  PRO620  LYS621  CYS622 
 ASP623  PHE694  ASN695  SER759  ASP760  ASP761  ALA762  ILE779  LEU786  VAL792 
 PHE793  MET794  SER795  GLU796  ALA797  LYS798  CYS799  TRP800  GLU811  SER814 

> <Gold.Protein.RotatedAtoms>
  151.8563  135.0540  160.0464 H   0  0  0  0  0  0  0  0  0  0  0  0  # atno 6907 bound_to 6896
  152.2697  133.5367  159.5440 H   0  0  0  0  0  0  0  0  0  0  0  0  # atno 6908 bound_to 6896
  150.7147  134.0630  159.3880 H   0  0  0  0  0  0  0  0  0  0  0  0  # atno 6909 bound_to 6896
  146.2427  140.1272  142.8339 H   0  0  0  0  0  0  0  0  0  0  0  0  # atno 7974 bound_to 7965
  154.7416  140.2750  155.6368 H   0  0  0  0  0  0  0  0  0  0  0  0  # atno 8008 bound_to 7997
  156.2875  140.2696  156.2071 H   0  0  0  0  0  0  0  0  0  0  0  0  # atno 8009 bound_to 7997
  155.0250  140.0371  157.2442 H   0  0  0  0  0  0  0  0  0  0  0  0  # atno 8010 bound_to 7997
  139.7150  143.9048  152.2482 H   0  0  0  0  0  0  0  0  0  0  0  0  # atno 10167 bound_to 10162
  156.0049  130.5122  150.6121 H   0  0  0  0  0  0  0  0  0  0  0  0  # atno 10718 bound_to 10713
  154.0361  135.6650  153.4785 H   0  0  0  0  0  0  0  0  0  0  0  0  # atno 10763 bound_to 10752
  153.0521  135.5078  154.7887 H   0  0  0  0  0  0  0  0  0  0  0  0  # atno 10764 bound_to 10752
  154.6848  135.3051  154.9528 H   0  0  0  0  0  0  0  0  0  0  0  0  # atno 10765 bound_to 10752
  140.9884  134.0574  157.3684 H   0  0  0  0  0  0  0  0  0  0  0  0  # atno 11005 bound_to 11000
  145.0356  140.8905  143.5083 LP  0  0  0  0  0  0  0  0  0  0  0  0  # atno 17320 bound_to 7965
  145.1344  139.2611  143.5523 LP  0  0  0  0  0  0  0  0  0  0  0  0  # atno 17321 bound_to 7965
  139.8928  144.6956  150.8752 LP  0  0  0  0  0  0  0  0  0  0  0  0  # atno 17342 bound_to 10162
  140.7741  143.3573  151.1896 LP  0  0  0  0  0  0  0  0  0  0  0  0  # atno 17343 bound_to 10162
  157.3952  131.0801  151.1358 LP  0  0  0  0  0  0  0  0  0  0  0  0  # atno 17370 bound_to 10713
  157.2038  130.6406  149.5748 LP  0  0  0  0  0  0  0  0  0  0  0  0  # atno 17371 bound_to 10713
  139.8981  135.0153  156.7131 LP  0  0  0  0  0  0  0  0  0  0  0  0  # atno 17394 bound_to 11000
  140.7079  133.9249  155.8065 LP  0  0  0  0  0  0  0  0  0  0  0  0  # atno 17395 bound_to 11000

$$$$
