AV-unprocessed.smi:2980|AV-procd|sdf|11373|dock6
  -GOLD-   2272016293D 1   1.00000     0.00000
 Structure written by MMmdl.
 39 40  0  0  0  0  0  0  0  0  2 V2000
  146.8118  142.3399  154.1804 C   0  0  0  0  0  0  0  0  0  0  0  0
  147.8283  141.2540  153.8212 C   0  0  0  0  0  0  0  0  0  0  0  0
  149.1198  141.7014  154.1933 O   0  0  0  0  0  0  0  0  0  0  0  0
  149.5243  141.2265  155.4668 C   0  0  0  0  0  0  0  0  0  0  0  0
  150.7984  141.9582  155.9122 C   0  0  0  0  0  0  0  0  0  0  0  0
  151.4024  141.3549  157.1120 N   0  0  0  0  0  0  0  0  0  0  0  0
  151.6518  140.0473  157.4161 C   0  0  0  0  0  0  0  0  0  0  0  0
  151.3485  138.8468  156.5784 C   0  0  0  0  0  0  0  0  0  0  0  0
  151.9728  138.9634  155.1784 C   0  0  0  0  0  0  0  0  0  0  0  0
  151.1773  138.2155  154.0990 C   0  0  0  0  0  0  0  0  0  0  0  0
  151.4845  136.8375  154.1266 O   0  0  0  0  0  0  0  0  0  0  0  0
  152.2170  140.0227  158.6562 N   0  3  0  0  0  0  0  0  0  0  0  0
  152.3292  141.3215  159.1519 C   0  0  0  0  0  0  0  0  0  0  0  0
  152.8334  141.7941  160.3595 C   0  0  0  0  0  0  0  0  0  0  0  0
  152.7948  143.1896  160.5588 C   0  0  0  0  0  0  0  0  0  0  0  0
  152.2686  144.0563  159.5791 C   0  0  0  0  0  0  0  0  0  0  0  0
  151.7612  143.5649  158.3584 C   0  0  0  0  0  0  0  0  0  0  0  0
  151.8054  142.1837  158.1671 C   0  0  0  0  0  0  0  0  0  0  0  0
  145.8014  142.0326  153.9099 H   0  0  0  0  0  0  0  0  0  0  0  0
  147.0311  143.2696  153.6553 H   0  0  0  0  0  0  0  0  0  0  0  0
  146.8236  142.5481  155.2507 H   0  0  0  0  0  0  0  0  0  0  0  0
  147.5840  140.3283  154.3440 H   0  0  0  0  0  0  0  0  0  0  0  0
  147.7944  141.0499  152.7501 H   0  0  0  0  0  0  0  0  0  0  0  0
  148.7287  141.3885  156.1952 H   0  0  0  0  0  0  0  0  0  0  0  0
  149.7113  140.1526  155.4238 H   0  0  0  0  0  0  0  0  0  0  0  0
  151.5395  141.9398  155.1138 H   0  0  0  0  0  0  0  0  0  0  0  0
  150.5934  143.0112  156.1050 H   0  0  0  0  0  0  0  0  0  0  0  0
  151.7084  137.9503  157.0821 H   0  0  0  0  0  0  0  0  0  0  0  0
  150.2663  138.7404  156.4973 H   0  0  0  0  0  0  0  0  0  0  0  0
  152.0300  140.0172  154.9029 H   0  0  0  0  0  0  0  0  0  0  0  0
  153.0005  138.5980  155.1931 H   0  0  0  0  0  0  0  0  0  0  0  0
  150.1047  138.3532  154.2395 H   0  0  0  0  0  0  0  0  0  0  0  0
  151.4264  138.6052  153.1115 H   0  0  0  0  0  0  0  0  0  0  0  0
  151.0931  136.4262  153.3708 H   0  0  0  0  0  0  0  0  0  0  0  0
  153.2339  141.1313  161.1125 H   0  0  0  0  0  0  0  0  0  0  0  0
  153.1740  143.6032  161.4819 H   0  0  0  0  0  0  0  0  0  0  0  0
  152.2521  145.1198  159.7676 H   0  0  0  0  0  0  0  0  0  0  0  0
  151.3545  144.2386  157.6188 H   0  0  0  0  0  0  0  0  0  0  0  0
  152.5003  139.1747  159.1298 H   0  0  0  0  0  0  0  0  0  0  0  0
  1  2  1  0  0  0  0
  1 19  1  0  0  0  0
  1 20  1  0  0  0  0
  1 21  1  0  0  0  0
  2  3  1  0  0  0  0
  2 22  1  0  0  0  0
  2 23  1  0  0  0  0
  3  4  1  0  0  0  0
  4  5  1  0  0  0  0
  4 24  1  0  0  0  0
  4 25  1  0  0  0  0
  5  6  1  0  0  0  0
  5 26  1  0  0  0  0
  5 27  1  0  0  0  0
  6 18  1  0  0  0  0
  6  7  1  0  0  0  0
  7  8  1  0  0  0  0
  7 12  2  0  0  0  0
  8  9  1  0  0  0  0
  8 28  1  0  0  0  0
  8 29  1  0  0  0  0
  9 10  1  0  0  0  0
  9 30  1  0  0  0  0
  9 31  1  0  0  0  0
 10 11  1  0  0  0  0
 10 32  1  0  0  0  0
 10 33  1  0  0  0  0
 11 34  1  0  0  0  0
 12 13  1  0  0  0  0
 12 39  1  0  0  0  0
 13 18  2  0  0  0  0
 13 14  1  0  0  0  0
 14 15  2  0  0  0  0
 14 35  1  0  0  0  0
 15 16  1  0  0  0  0
 15 36  1  0  0  0  0
 16 17  2  0  0  0  0
 16 37  1  0  0  0  0
 17 18  1  0  0  0  0
 17 38  1  0  0  0  0
M  CHG  1  12   1
M  END
> <s_m_source_file>
AV-unprocessed.smi

> <i_m_source_file_index>
2980

> <i_lp_mmshare_version>
43012

> <i_f3d_flags>
0

> <s_epik_input>
W0NIM11bQ0gyXU9bQ0gyXVtDSDJdbihjKG4xKVtDSDJdW0NIMl1bQ0gyXVtPSF0pYyhjMTIpW2NIXVtjSF1bY0hdW2NIXTI=

> <s_epik_cmdline>
J2VwaWtfcHl0aG9uJywgJy1waCcsICc3LjAnLCAnLXRuJywgJzgnLCAnLW1hJywgJzIwMCcsICctbWV0YWxfYmluZGluZycsICctaW1hZScsICc8aW5maWxlLm1hZT4nLCAnLW9tYWUnLCAnPG91dGZpbGUubWFlPic=

> <r_epik_Ionization_Penalty>
0.813193

> <r_epik_Ionization_Penalty_Charging>
0.813193

> <r_epik_Ionization_Penalty_Neutral>
1.64912e-07

> <r_epik_State_Penalty>
0.845533

> <r_epik_Charging_Adjusted_Penalty>
1.65873

> <i_epik_Tot_Q>
1

> <i_epik_Tot_abs_Q>
1

> <r_epik_Metal_State_Penalty>
4.77586

> <b_epik_Metal_Only>
0

> <s_lp_Force_Field>
OPLS_2005

> <r_lp_Energy>
11.2721

> <b_lp_Chiralities_Consistent>
1

> <s_lp_Variant>
AV-unprocessed.smi:2980-2

> <Gold.Version>
5.8.1

> <Gold.Id.Protein>
6NUR|6NUR_protein|mol2

> <Gold.PLP.Fitness>
51.1032

> <Gold.PLP.PLP>
-45.1996

> <Gold.PLP.part.hbond>
-3.5980

> <Gold.PLP.part.metal>
0.0000

> <Gold.PLP.part.buried>
-7.0926

> <Gold.PLP.part.nonpolar>
-34.5669

> <Gold.PLP.part.repulsive>
0.3051

> <Gold.PLP.ligand.clash>
0.0000

> <Gold.PLP.ligand.torsion>
0.7710

> <Gold.PLP.Chemscore.Hbond>
2.4596

> <Gold.PLP.Chemscore.CHOScore>
0.0000

> <Gold.PLP.Chemscore.Metal>
0.0000

> <Gold.Chemscore.Hbonds>
donor molecule, donor type, donor heavy atom, donor atom, acceptor molecule, acceptor atom, score
      L1  H    11    34       P1  7949  0.99
      P1  H  8011  8017       L1     3  0.45
      P1  H 10752 10763       L1    11  0.95

> <Gold.PLP.Chemscore.Internal.Correction>
0.0667

> <Gold.Rescore>
     Score         DG    S(hbond)    S(metal)    S(lipo)     H(rot)  DE(clash)    DE(int)     intcor
     16.17     -17.35       1.57        0.00     112.89       2.58       0.37       0.81       ----

> <Gold.Chemscore.Fitness>
16.1693

> <Gold.Chemscore.DG>
-17.3473

> <Gold.Chemscore.ZeroCoef>
-5.4800

> <Gold.Chemscore.Hbond>
1.5749

> <Gold.Chemscore.Metal>
0.0000

> <Gold.Chemscore.Lipo>
112.8875

> <Gold.Chemscore.Internal_Hbond>
0.0000

> <Gold.Chemscore.DEClash>
0.3685

> <Gold.Chemscore.DEInternal>
0.8095

> <Gold.Chemscore.Rot>
2.5784

> <Gold.Chemscore.Internal.Correction>
   9.000000E+99

> <Gold.Chemscore.Hbonds>
donor molecule, donor type, donor heavy atom, donor atom, acceptor molecule, acceptor atom, score
      L1  H    11    34       P1  7949  0.33
      P1  H  8011  8017       L1     3  0.11
      P1  H 10752 10763       L1    11  0.21

> <Gold.Chemscore.Hbond.Weighted>
-5.2602

> <Gold.Chemscore.Metal.Weighted>
-0.0000

> <Gold.Chemscore.Lipo.Weighted>
-13.2078

> <Gold.Chemscore.Internal_Hbond.Weighted>
0.0000

> <Gold.Chemscore.DEClash.Weighted>
0.3685

> <Gold.Chemscore.DEInternal.Weighted>
0.8095

> <Gold.Chemscore.Rot.Weighted>
6.6007

> <Gold.Chemscore.Internal.Correction.Weighted>
   9.000000E+99

> <Gold.Protein.RotatedTorsions>
[ 6907 6896 6895 6894 ] final -153.24 input  -60.11 | X-H torsion
[ 7974 7965 7964 7962 ] final  -16.93 input  175.53 | X-H torsion
[ 8008 7997 7996 7995 ] final -163.79 input   59.86 | X-H torsion
[ 10167 10162 10161 10158 ] final -104.78 input  -65.29 | X-H torsion
[ 10718 10713 10712 10709 ] final  114.10 input   66.30 | X-H torsion
[ 10763 10752 10751 10750 ] final   50.08 input  -60.55 | X-H torsion
[ 11005 11000 10999 10996 ] final   13.01 input  -57.11 | X-H torsion

> <Gold.Protein.ActiveResidues>
 VAL166  LYS551  ARG553  GLY616  TRP617  ASP618  TYR619  PRO620  LYS621  CYS622 
 ASP623  PHE694  ASN695  SER759  ASP760  ASP761  ALA762  ILE779  LEU786  VAL792 
 PHE793  MET794  SER795  GLU796  ALA797  LYS798  CYS799  TRP800  GLU811  SER814 

> <Gold.Protein.RotatedAtoms>
  151.2396  133.4406  159.2606 H   0  0  0  0  0  0  0  0  0  0  0  0  # atno 6907 bound_to 6896
  151.0717  134.9803  159.8322 H   0  0  0  0  0  0  0  0  0  0  0  0  # atno 6908 bound_to 6896
  152.5413  134.2341  159.8889 H   0  0  0  0  0  0  0  0  0  0  0  0  # atno 6909 bound_to 6896
  146.1965  140.3707  142.8439 H   0  0  0  0  0  0  0  0  0  0  0  0  # atno 7974 bound_to 7965
  155.8264  140.0927  157.1819 H   0  0  0  0  0  0  0  0  0  0  0  0  # atno 8008 bound_to 7997
  154.3979  140.1427  156.3621 H   0  0  0  0  0  0  0  0  0  0  0  0  # atno 8009 bound_to 7997
  155.8212  140.3446  155.5518 H   0  0  0  0  0  0  0  0  0  0  0  0  # atno 8010 bound_to 7997
  140.2056  143.3785  152.1093 H   0  0  0  0  0  0  0  0  0  0  0  0  # atno 10167 bound_to 10162
  157.6300  131.0993  150.7137 H   0  0  0  0  0  0  0  0  0  0  0  0  # atno 10718 bound_to 10713
  152.9785  135.5890  154.4194 H   0  0  0  0  0  0  0  0  0  0  0  0  # atno 10763 bound_to 10752
  154.3820  135.2767  155.2207 H   0  0  0  0  0  0  0  0  0  0  0  0  # atno 10764 bound_to 10752
  154.4117  135.6080  153.6011 H   0  0  0  0  0  0  0  0  0  0  0  0  # atno 10765 bound_to 10752
  140.4856  134.0892  155.7760 H   0  0  0  0  0  0  0  0  0  0  0  0  # atno 11005 bound_to 11000
  144.8590  140.7113  143.6119 LP  0  0  0  0  0  0  0  0  0  0  0  0  # atno 17320 bound_to 7965
  145.3628  139.1677  143.4374 LP  0  0  0  0  0  0  0  0  0  0  0  0  # atno 17321 bound_to 7965
  139.5200  144.7027  151.5447 LP  0  0  0  0  0  0  0  0  0  0  0  0  # atno 17342 bound_to 10162
  140.6359  143.8984  150.6647 LP  0  0  0  0  0  0  0  0  0  0  0  0  # atno 17343 bound_to 10162
  156.7478  130.4759  149.5463 LP  0  0  0  0  0  0  0  0  0  0  0  0  # atno 17370 bound_to 10713
  156.1498  130.6302  151.0580 LP  0  0  0  0  0  0  0  0  0  0  0  0  # atno 17371 bound_to 10713
  141.1510  133.8969  157.2098 LP  0  0  0  0  0  0  0  0  0  0  0  0  # atno 17394 bound_to 11000
  139.9800  135.0101  156.9726 LP  0  0  0  0  0  0  0  0  0  0  0  0  # atno 17395 bound_to 11000

$$$$
