AV-unprocessed.smi:86|AV-procd|sdf|819|dock6
  -GOLD-   2262017223D 1   1.00000     0.00000
 Structure written by MMmdl.
 51 55  0  0  0  0  0  0  0  0  1 V2000
  150.9090  136.7684  159.0536 O   0  0  0  0  0  0  0  0  0  0  0  0
  150.7570  137.7169  158.0166 C   0  0  0  0  0  0  0  0  0  0  0  0
  151.8593  137.5777  156.9553 C   0  0  0  0  0  0  0  0  0  0  0  0
  151.9061  136.0945  156.5162 C   0  0  0  0  0  0  0  0  0  0  0  0
  150.7325  135.6227  155.7958 N   0  0  0  0  0  0  0  0  0  0  0  0
  149.6672  136.3799  155.3661 C   0  0  0  0  0  0  0  0  0  0  0  0
  148.7389  135.7211  154.7290 N   0  0  0  0  0  0  0  0  0  0  0  0
  149.2025  134.4099  154.6969 C   0  0  0  0  0  0  0  0  0  0  0  0
  148.7073  133.1823  154.1632 C   0  0  0  0  0  0  0  0  0  0  0  0
  147.5263  133.0443  153.5079 N   0  0  0  0  0  0  0  0  0  0  0  0
  146.5245  134.0993  153.3974 C   0  0  0  0  0  0  0  0  0  0  0  0
  145.3969  133.4374  152.6071 C   0  0  1  0  0  0  0  0  0  0  0  0
  144.4139  134.3242  151.8338 C   0  0  0  0  0  0  0  0  0  0  0  0
  143.4367  133.4234  151.0473 C   0  0  0  0  0  0  0  0  0  0  0  0
  144.1719  132.3953  150.1518 C   0  0  2  0  0  0  0  0  0  0  0  0
  143.2301  131.5235  149.5632 O   0  0  0  0  0  0  0  0  0  0  0  0
  145.2190  131.5694  150.9340 C   0  0  0  0  0  0  0  0  0  0  0  0
  146.1689  132.5324  151.6562 C   0  0  2  0  0  0  0  0  0  0  0  0
  147.2558  131.9586  152.5660 C   0  0  0  0  0  0  0  0  0  0  0  0
  149.4769  132.0753  154.3351 N   0  0  0  0  0  0  0  0  0  0  0  0
  150.6466  132.1526  154.9748 C   0  0  0  0  0  0  0  0  0  0  0  0
  151.2298  133.2210  155.5189 N   0  0  0  0  0  0  0  0  0  0  0  0
  150.4636  134.3373  155.3573 C   0  0  0  0  0  0  0  0  0  0  0  0
  151.8080  138.6554  155.8572 C   0  0  0  0  0  0  0  0  0  0  0  0
  152.8619  139.4189  156.4799 O   0  0  0  0  0  0  0  0  0  0  0  0
  153.1846  138.2775  157.3016 C   0  0  0  0  0  0  0  0  0  0  0  0
  150.1836  136.8600  159.6526 H   0  0  0  0  0  0  0  0  0  0  0  0
  149.7678  137.5990  157.5734 H   0  0  0  0  0  0  0  0  0  0  0  0
  150.7765  138.7101  158.4670 H   0  0  0  0  0  0  0  0  0  0  0  0
  152.7706  135.9142  155.8761 H   0  0  0  0  0  0  0  0  0  0  0  0
  152.0425  135.4464  157.3827 H   0  0  0  0  0  0  0  0  0  0  0  0
  149.5976  137.4433  155.5440 H   0  0  0  0  0  0  0  0  0  0  0  0
  146.1791  134.4382  154.3744 H   0  0  0  0  0  0  0  0  0  0  0  0
  146.9424  134.9483  152.8549 H   0  0  0  0  0  0  0  0  0  0  0  0
  144.8279  132.8147  153.3009 H   0  0  0  0  0  0  0  0  0  0  0  0
  143.8645  134.9703  152.5191 H   0  0  0  0  0  0  0  0  0  0  0  0
  144.9548  134.9772  151.1478 H   0  0  0  0  0  0  0  0  0  0  0  0
  142.7971  132.8949  151.7558 H   0  0  0  0  0  0  0  0  0  0  0  0
  142.7741  134.0418  150.4404 H   0  0  0  0  0  0  0  0  0  0  0  0
  144.6754  132.9299  149.3452 H   0  0  0  0  0  0  0  0  0  0  0  0
  142.5035  131.4206  150.1585 H   0  0  0  0  0  0  0  0  0  0  0  0
  144.7256  130.9199  151.6587 H   0  0  0  0  0  0  0  0  0  0  0  0
  145.7783  130.9233  150.2566 H   0  0  0  0  0  0  0  0  0  0  0  0
  146.6632  133.1541  150.9067 H   0  0  0  0  0  0  0  0  0  0  0  0
  148.1369  131.6686  151.9922 H   0  0  0  0  0  0  0  0  0  0  0  0
  146.8957  131.0883  153.1157 H   0  0  0  0  0  0  0  0  0  0  0  0
  151.1925  131.2250  155.0639 H   0  0  0  0  0  0  0  0  0  0  0  0
  152.0967  138.3273  154.8597 H   0  0  0  0  0  0  0  0  0  0  0  0
  150.8644  139.2006  155.8178 H   0  0  0  0  0  0  0  0  0  0  0  0
  153.2863  138.5382  158.3555 H   0  0  0  0  0  0  0  0  0  0  0  0
  154.0811  137.7709  156.9467 H   0  0  0  0  0  0  0  0  0  0  0  0
  1  2  1  0  0  0  0
  1 27  1  0  0  0  0
  2  3  1  0  0  0  0
  2 28  1  0  0  0  0
  2 29  1  0  0  0  0
  3 26  1  0  0  0  0
  3  4  1  0  0  0  0
  3 24  1  0  0  0  0
  4  5  1  0  0  0  0
  4 30  1  0  0  0  0
  4 31  1  0  0  0  0
  5 23  1  0  0  0  0
  5  6  1  0  0  0  0
  6  7  2  0  0  0  0
  6 32  1  0  0  0  0
  7  8  1  0  0  0  0
  8 23  2  0  0  0  0
  8  9  1  0  0  0  0
  9 10  1  0  0  0  0
  9 20  2  0  0  0  0
 10 19  1  0  0  0  0
 10 11  1  0  0  0  0
 11 12  1  0  0  0  0
 11 33  1  0  0  0  0
 11 34  1  0  0  0  0
 12 18  1  0  0  0  0
 12 13  1  0  0  0  0
 12 35  1  0  0  0  0
 13 14  1  0  0  0  0
 13 36  1  0  0  0  0
 13 37  1  0  0  0  0
 14 15  1  0  0  0  0
 14 38  1  0  0  0  0
 14 39  1  0  0  0  0
 15 16  1  0  0  0  0
 15 17  1  0  0  0  0
 15 40  1  0  0  0  0
 16 41  1  0  0  0  0
 17 18  1  0  0  0  0
 17 42  1  0  0  0  0
 17 43  1  0  0  0  0
 18 19  1  0  0  0  0
 18 44  1  0  0  0  0
 19 45  1  0  0  0  0
 19 46  1  0  0  0  0
 20 21  1  0  0  0  0
 21 22  2  0  0  0  0
 21 47  1  0  0  0  0
 22 23  1  0  0  0  0
 24 25  1  0  0  0  0
 24 48  1  0  0  0  0
 24 49  1  0  0  0  0
 25 26  1  0  0  0  0
 26 50  1  0  0  0  0
 26 51  1  0  0  0  0
M  END
> <s_m_source_file>
AV-unprocessed.smi

> <i_m_source_file_index>
86

> <i_lp_mmshare_version>
43012

> <i_f3d_flags>
0

> <s_epik_input>
W0NIMl0xT1tDSDJdQzEoW0NIMl1bT0hdKVtDSDJdbihbY0hdbjIpYyhjMjMpbltjSF1uYzNOKFtDSDJdNClbQ0gyXVtDQEBIXShbQ0BIXTQ1KVtDSDJdW0NASF0oW09IXSlbQ0gyXVtDSDJdNQ==

> <s_epik_cmdline>
J2VwaWtfcHl0aG9uJywgJy1waCcsICc3LjAnLCAnLXRuJywgJzgnLCAnLW1hJywgJzIwMCcsICctbWV0YWxfYmluZGluZycsICctaW1hZScsICc8aW5maWxlLm1hZT4nLCAnLW9tYWUnLCAnPG91dGZpbGUubWFlPic=

> <r_lp_tautomer_probability>
1

> <r_epik_Ionization_Penalty>
0.00425795

> <r_epik_Ionization_Penalty_Charging>
0

> <r_epik_Ionization_Penalty_Neutral>
0.00425795

> <r_epik_State_Penalty>
0.00299946

> <r_epik_Charging_Adjusted_Penalty>
0.00299946

> <i_epik_Tot_Q>
0

> <i_epik_Tot_abs_Q>
0

> <r_epik_Metal_State_Penalty>
-0

> <b_epik_Metal_Only>
0

> <s_lp_Force_Field>
OPLS_2005

> <r_lp_Energy>
53.3624

> <b_lp_Chiralities_Consistent>
1

> <s_lp_Variant>
AV-unprocessed.smi:86-8

> <Gold.Version>
5.8.1

> <Gold.Id.Protein>
6NUR|6NUR_protein|mol2

> <Gold.PLP.Fitness>
46.1389

> <Gold.PLP.PLP>
-36.5698

> <Gold.PLP.part.hbond>
-4.0000

> <Gold.PLP.part.metal>
0.0000

> <Gold.PLP.part.buried>
-5.9127

> <Gold.PLP.part.nonpolar>
-28.2451

> <Gold.PLP.part.repulsive>
0.8547

> <Gold.PLP.ligand.clash>
0.0000

> <Gold.PLP.ligand.torsion>
0.4098

> <Gold.PLP.Chemscore.Hbond>
3.3380

> <Gold.PLP.Chemscore.CHOScore>
0.0000

> <Gold.PLP.Chemscore.Metal>
0.0000

> <Gold.Chemscore.Hbonds>
donor molecule, donor type, donor heavy atom, donor atom, acceptor molecule, acceptor atom, score
      L1  H    16    41       P1 10952  0.37
      P1  H  6896  6909       L1     1  0.45
      P1  H  7997  8008       L1    25  1.00
      P1  H 10785 10796       L1    16  1.00

> <Gold.PLP.Chemscore.Internal.Correction>
0.3747

> <Gold.Rescore>
     Score         DG    S(hbond)    S(metal)    S(lipo)     H(rot)  DE(clash)    DE(int)     intcor
     15.09     -16.41       2.87        0.00      72.03       2.76       0.12       1.20       ----

> <Gold.Chemscore.Fitness>
15.0926

> <Gold.Chemscore.DG>
-16.4116

> <Gold.Chemscore.ZeroCoef>
-5.4800

> <Gold.Chemscore.Hbond>
2.8674

> <Gold.Chemscore.Metal>
0.0000

> <Gold.Chemscore.Lipo>
72.0312

> <Gold.Chemscore.Internal_Hbond>
0.0000

> <Gold.Chemscore.DEClash>
0.1213

> <Gold.Chemscore.DEInternal>
1.1976

> <Gold.Chemscore.Rot>
2.7630

> <Gold.Chemscore.Internal.Correction>
   9.000000E+99

> <Gold.Chemscore.Hbonds>
donor molecule, donor type, donor heavy atom, donor atom, acceptor molecule, acceptor atom, score
      L1  H    16    41       P1 10952  0.30
      P1  H  6896  6909       L1     1  0.02
      P1  H  7997  8008       L1    25  0.30
      P1  H 10785 10796       L1    16  0.34

> <Gold.Chemscore.Hbond.Weighted>
-9.5773

> <Gold.Chemscore.Metal.Weighted>
-0.0000

> <Gold.Chemscore.Lipo.Weighted>
-8.4277

> <Gold.Chemscore.Internal_Hbond.Weighted>
0.0000

> <Gold.Chemscore.DEClash.Weighted>
0.1213

> <Gold.Chemscore.DEInternal.Weighted>
1.1976

> <Gold.Chemscore.Rot.Weighted>
7.0734

> <Gold.Chemscore.Internal.Correction.Weighted>
   9.000000E+99

> <Gold.Protein.RotatedTorsions>
[ 6907 6896 6895 6894 ] final  110.02 input  -60.11 | X-H torsion
[ 7974 7965 7964 7962 ] final   90.48 input  175.53 | X-H torsion
[ 8008 7997 7996 7995 ] final  -41.44 input   59.86 | X-H torsion
[ 10167 10162 10161 10158 ] final  161.69 input  -65.29 | X-H torsion
[ 10718 10713 10712 10709 ] final  -13.09 input   66.30 | X-H torsion
[ 10763 10752 10751 10750 ] final -133.92 input  -60.55 | X-H torsion
[ 11005 11000 10999 10996 ] final  134.12 input  -57.11 | X-H torsion

> <Gold.Protein.ActiveResidues>
 VAL166  LYS551  ARG553  GLY616  TRP617  ASP618  TYR619  PRO620  LYS621  CYS622 
 ASP623  PHE694  ASN695  SER759  ASP760  ASP761  ALA762  ILE779  LEU786  VAL792 
 PHE793  MET794  SER795  GLU796  ALA797  LYS798  CYS799  TRP800  GLU811  SER814 

> <Gold.Protein.RotatedAtoms>
  152.5040  133.8860  159.7369 H   0  0  0  0  0  0  0  0  0  0  0  0  # atno 6907 bound_to 6896
  150.9311  133.6757  159.2817 H   0  0  0  0  0  0  0  0  0  0  0  0  # atno 6908 bound_to 6896
  151.4101  135.0988  159.9635 H   0  0  0  0  0  0  0  0  0  0  0  0  # atno 6909 bound_to 6896
  145.5185  139.2278  143.2685 H   0  0  0  0  0  0  0  0  0  0  0  0  # atno 7974 bound_to 7965
  154.4004  140.1499  156.3191 H   0  0  0  0  0  0  0  0  0  0  0  0  # atno 8008 bound_to 7997
  155.8546  140.3456  155.5694 H   0  0  0  0  0  0  0  0  0  0  0  0  # atno 8009 bound_to 7997
  155.7947  140.0861  157.1980 H   0  0  0  0  0  0  0  0  0  0  0  0  # atno 8010 bound_to 7997
  139.4852  144.4512  151.8828 H   0  0  0  0  0  0  0  0  0  0  0  0  # atno 10167 bound_to 10162
  156.6352  130.4912  149.6114 H   0  0  0  0  0  0  0  0  0  0  0  0  # atno 10718 bound_to 10713
  154.8726  135.3751  154.4651 H   0  0  0  0  0  0  0  0  0  0  0  0  # atno 10763 bound_to 10752
  153.5316  135.7027  153.5685 H   0  0  0  0  0  0  0  0  0  0  0  0  # atno 10764 bound_to 10752
  153.3887  135.3978  155.1873 H   0  0  0  0  0  0  0  0  0  0  0  0  # atno 10765 bound_to 10752
  139.9894  134.9520  156.9821 H   0  0  0  0  0  0  0  0  0  0  0  0  # atno 11005 bound_to 11000
  146.2121  140.5995  142.9055 LP  0  0  0  0  0  0  0  0  0  0  0  0  # atno 17320 bound_to 7965
  144.7689  140.5593  143.6684 LP  0  0  0  0  0  0  0  0  0  0  0  0  # atno 17321 bound_to 7965
  140.3969  144.2544  150.5895 LP  0  0  0  0  0  0  0  0  0  0  0  0  # atno 17342 bound_to 10162
  140.5094  143.2295  151.8558 LP  0  0  0  0  0  0  0  0  0  0  0  0  # atno 17343 bound_to 10162
  156.2203  130.6733  151.1361 LP  0  0  0  0  0  0  0  0  0  0  0  0  # atno 17370 bound_to 10713
  157.7188  131.0694  150.6221 LP  0  0  0  0  0  0  0  0  0  0  0  0  # atno 17371 bound_to 10713
  140.4937  134.1167  155.7237 LP  0  0  0  0  0  0  0  0  0  0  0  0  # atno 17394 bound_to 11000
  141.1553  133.8894  157.1993 LP  0  0  0  0  0  0  0  0  0  0  0  0  # atno 17395 bound_to 11000

$$$$
