AV-unprocessed.smi:102|AV-procd|sdf|952|dock2
  -GOLD-   2262017483D 1   1.00000     0.00000
 Structure written by MMmdl.
 44 45  0  0  0  0  0  0  0  0  1 V2000
  151.5748  145.6096  159.9336 C   0  0  0  0  0  0  0  0  0  0  0  0
  152.2784  144.3432  159.4628 C   0  0  0  0  0  0  0  0  0  0  0  0
  152.8227  144.2884  158.3604 O   0  0  0  0  0  0  0  0  0  0  0  0
  152.2214  143.3535  160.3723 O   0  0  0  0  0  0  0  0  0  0  0  0
  152.7728  142.0736  160.0914 C   0  0  0  0  0  0  0  0  0  0  0  0
  151.8182  141.2505  159.2094 C   0  0  1  0  0  0  0  0  0  0  0  0
  151.8039  141.7336  157.8726 O   0  0  0  0  0  0  0  0  0  0  0  0
  151.3173  140.7387  157.0193 C   0  0  2  0  0  0  0  0  0  0  0  0
  149.9195  141.0959  156.5489 N   0  0  0  0  0  0  0  0  0  0  0  0
  148.9384  141.5751  157.4090 C   0  0  0  0  0  0  0  0  0  0  0  0
  147.6857  141.8831  156.9969 C   0  0  0  0  0  0  0  0  0  0  0  0
  146.7888  142.3411  157.8867 F   0  0  0  0  0  0  0  0  0  0  0  0
  147.2995  141.7231  155.5981 C   0  0  0  0  0  0  0  0  0  0  0  0
  146.1902  141.9743  155.1314 O   0  0  0  0  0  0  0  0  0  0  0  0
  148.3171  141.2403  154.7706 N   0  0  0  0  0  0  0  0  0  0  0  0
  149.6111  140.9184  155.1818 C   0  0  0  0  0  0  0  0  0  0  0  0
  150.4284  140.4893  154.3685 O   0  0  0  0  0  0  0  0  0  0  0  0
  151.3697  139.3965  157.7899 C   0  0  2  0  0  0  0  0  0  0  0  0
  150.0714  138.9171  158.1322 O   0  0  0  0  0  0  0  0  0  0  0  0
  149.9252  137.7747  158.8219 C   0  0  0  0  0  0  0  0  0  0  0  0
  148.4614  137.4135  159.0341 C   0  0  0  0  0  0  0  0  0  0  0  0
  150.8328  137.0634  159.2519 O   0  0  0  0  0  0  0  0  0  0  0  0
  152.1302  139.7610  159.0588 C   0  0  1  0  0  0  0  0  0  0  0  0
  153.5234  139.5331  158.8778 O   0  0  0  0  0  0  0  0  0  0  0  0
  154.3540  139.5264  159.9357 C   0  0  0  0  0  0  0  0  0  0  0  0
  155.7977  139.2536  159.5365 C   0  0  0  0  0  0  0  0  0  0  0  0
  154.0354  139.7159  161.1092 O   0  0  0  0  0  0  0  0  0  0  0  0
  148.0961  141.1113  153.7937 H   0  0  0  0  0  0  0  0  0  0  0  0
  152.3085  146.3609  160.2255 H   0  0  0  0  0  0  0  0  0  0  0  0
  150.9314  145.4031  160.7894 H   0  0  0  0  0  0  0  0  0  0  0  0
  150.9596  146.0197  159.1326 H   0  0  0  0  0  0  0  0  0  0  0  0
  153.6955  142.2472  159.5375 H   0  0  0  0  0  0  0  0  0  0  0  0
  153.0606  141.5332  160.9942 H   0  0  0  0  0  0  0  0  0  0  0  0
  150.8042  141.3545  159.5984 H   0  0  0  0  0  0  0  0  0  0  0  0
  151.9401  140.7433  156.1230 H   0  0  0  0  0  0  0  0  0  0  0  0
  149.1575  141.7179  158.4559 H   0  0  0  0  0  0  0  0  0  0  0  0
  151.9066  138.6667  157.1818 H   0  0  0  0  0  0  0  0  0  0  0  0
  147.9720  137.2443  158.0746 H   0  0  0  0  0  0  0  0  0  0  0  0
  147.9425  138.2211  159.5509 H   0  0  0  0  0  0  0  0  0  0  0  0
  148.3729  136.5065  159.6323 H   0  0  0  0  0  0  0  0  0  0  0  0
  151.7735  139.2079  159.9295 H   0  0  0  0  0  0  0  0  0  0  0  0
  156.1450  140.0122  158.8349 H   0  0  0  0  0  0  0  0  0  0  0  0
  155.8816  138.2759  159.0618 H   0  0  0  0  0  0  0  0  0  0  0  0
  156.4470  139.2700  160.4122 H   0  0  0  0  0  0  0  0  0  0  0  0
  1  2  1  0  0  0  0
  1 29  1  0  0  0  0
  1 30  1  0  0  0  0
  1 31  1  0  0  0  0
  2  3  2  0  0  0  0
  2  4  1  0  0  0  0
  4  5  1  0  0  0  0
  5  6  1  0  0  0  0
  5 32  1  0  0  0  0
  5 33  1  0  0  0  0
  6 23  1  0  0  0  0
  6  7  1  0  0  0  0
  6 34  1  0  0  0  0
  7  8  1  0  0  0  0
  8  9  1  0  0  0  0
  8 18  1  0  0  0  0
  8 35  1  0  0  0  0
  9 16  1  0  0  0  0
  9 10  1  0  0  0  0
 10 11  2  0  0  0  0
 10 36  1  0  0  0  0
 11 12  1  0  0  0  0
 11 13  1  0  0  0  0
 13 14  2  0  0  0  0
 13 15  1  0  0  0  0
 15 28  1  0  0  0  0
 15 16  1  0  0  0  0
 16 17  2  0  0  0  0
 18 19  1  0  0  0  0
 18 23  1  0  0  0  0
 18 37  1  0  0  0  0
 19 20  1  0  0  0  0
 20 21  1  0  0  0  0
 20 22  2  0  0  0  0
 21 38  1  0  0  0  0
 21 39  1  0  0  0  0
 21 40  1  0  0  0  0
 23 24  1  0  0  0  0
 23 41  1  0  0  0  0
 24 25  1  0  0  0  0
 25 26  1  0  0  0  0
 25 27  2  0  0  0  0
 26 42  1  0  0  0  0
 26 43  1  0  0  0  0
 26 44  1  0  0  0  0
M  END
> <s_m_source_file>
AV-unprocessed.smi

> <i_m_source_file_index>
102

> <i_lp_mmshare_version>
43012

> <i_f3d_flags>
0

> <s_epik_input>
W0NIM11DKD1PKU9bQ0gyXVtDQEBIXTFPW0NASF0oW0NAQEhdKE9DKD1PKVtDSDNdKVtDQEhdMU9DKD1PKVtDSDNdKW4yW2NIXWMoRiljKD1PKVtuSF1jMj1P

> <s_epik_cmdline>
J2VwaWtfcHl0aG9uJywgJy1waCcsICc3LjAnLCAnLXRuJywgJzgnLCAnLW1hJywgJzIwMCcsICctbWV0YWxfYmluZGluZycsICctaW1hZScsICc8aW5maWxlLm1hZT4nLCAnLW9tYWUnLCAnPG91dGZpbGUubWFlPic=

> <r_lp_tautomer_probability>
0.999537

> <r_epik_Ionization_Penalty>
0.058267

> <r_epik_Ionization_Penalty_Charging>
0.058267

> <r_epik_Ionization_Penalty_Neutral>
6.57791e-16

> <r_epik_State_Penalty>
0.0503774

> <r_epik_Charging_Adjusted_Penalty>
0.108644

> <i_epik_Tot_Q>
0

> <i_epik_Tot_abs_Q>
0

> <r_epik_Metal_State_Penalty>
2.6644

> <b_epik_Metal_Only>
0

> <s_epik_Chemistry_Notes>
This compound has an ester and may undergo hydrolysis at high or low pH. This compound contains an acetal/aminal-like group ( X-CH(R)-Y where X, Y are N, S, or O) that may be acid/base labile, releasing an aldehyde.

> <s_lp_Force_Field>
OPLS_2005

> <r_lp_Energy>
12.8015

> <b_lp_Chiralities_Consistent>
1

> <s_lp_Variant>
AV-unprocessed.smi:102-8

> <Gold.Version>
5.8.1

> <Gold.Id.Protein>
6NUR|6NUR_protein|mol2

> <Gold.PLP.Fitness>
45.4959

> <Gold.PLP.PLP>
-40.8242

> <Gold.PLP.part.hbond>
-2.7331

> <Gold.PLP.part.metal>
0.0000

> <Gold.PLP.part.buried>
-9.2097

> <Gold.PLP.part.nonpolar>
-30.0739

> <Gold.PLP.part.repulsive>
0.4129

> <Gold.PLP.ligand.clash>
0.0000

> <Gold.PLP.ligand.torsion>
0.7263

> <Gold.PLP.Chemscore.Hbond>
2.0000

> <Gold.PLP.Chemscore.CHOScore>
0.0000

> <Gold.PLP.Chemscore.Metal>
0.0000

> <Gold.Chemscore.Hbonds>
donor molecule, donor type, donor heavy atom, donor atom, acceptor molecule, acceptor atom, score
      P1  H  6896  6909       L1    22  0.84
      P1  H  7989  7998       L1    17  0.97

> <Gold.PLP.Chemscore.Internal.Correction>
0.1243

> <Gold.Rescore>
     Score         DG    S(hbond)    S(metal)    S(lipo)     H(rot)  DE(clash)    DE(int)     intcor
      5.64      -7.83       1.97        0.00      52.51       4.05       0.08       2.10       ----

> <Gold.Chemscore.Fitness>
5.6433

> <Gold.Chemscore.DG>
-7.8280

> <Gold.Chemscore.ZeroCoef>
-5.4800

> <Gold.Chemscore.Hbond>
1.9694

> <Gold.Chemscore.Metal>
0.0000

> <Gold.Chemscore.Lipo>
52.5075

> <Gold.Chemscore.Internal_Hbond>
0.0000

> <Gold.Chemscore.DEClash>
0.0846

> <Gold.Chemscore.DEInternal>
2.1001

> <Gold.Chemscore.Rot>
4.0520

> <Gold.Chemscore.Internal.Correction>
   9.000000E+99

> <Gold.Chemscore.Hbonds>
donor molecule, donor type, donor heavy atom, donor atom, acceptor molecule, acceptor atom, score
      P1  H  6896  6909       L1    22  0.84
      P1  H  7989  7998       L1    17  0.85

> <Gold.Chemscore.Hbond.Weighted>
-6.5778

> <Gold.Chemscore.Metal.Weighted>
-0.0000

> <Gold.Chemscore.Lipo.Weighted>
-6.1434

> <Gold.Chemscore.Internal_Hbond.Weighted>
0.0000

> <Gold.Chemscore.DEClash.Weighted>
0.0846

> <Gold.Chemscore.DEInternal.Weighted>
2.1001

> <Gold.Chemscore.Rot.Weighted>
10.3732

> <Gold.Chemscore.Internal.Correction.Weighted>
   9.000000E+99

> <Gold.Protein.RotatedTorsions>
[ 6907 6896 6895 6894 ] final  107.82 input  -60.11 | X-H torsion
[ 7974 7965 7964 7962 ] final   43.36 input  175.53 | X-H torsion
[ 8008 7997 7996 7995 ] final   33.34 input   59.86 | X-H torsion
[ 10167 10162 10161 10158 ] final   89.12 input  -65.29 | X-H torsion
[ 10718 10713 10712 10709 ] final  -14.97 input   66.30 | X-H torsion
[ 10763 10752 10751 10750 ] final  -52.54 input  -60.55 | X-H torsion
[ 11005 11000 10999 10996 ] final  140.95 input  -57.11 | X-H torsion

> <Gold.Protein.ActiveResidues>
 VAL166  LYS551  ARG553  GLY616  TRP617  ASP618  TYR619  PRO620  LYS621  CYS622 
 ASP623  PHE694  ASN695  SER759  ASP760  ASP761  ALA762  ILE779  LEU786  VAL792 
 PHE793  MET794  SER795  GLU796  ALA797  LYS798  CYS799  TRP800  GLU811  SER814 

> <Gold.Protein.RotatedAtoms>
  152.5138  133.9178  159.7519 H   0  0  0  0  0  0  0  0  0  0  0  0  # atno 6907 bound_to 6896
  150.9557  133.6492  159.2770 H   0  0  0  0  0  0  0  0  0  0  0  0  # atno 6908 bound_to 6896
  151.3754  135.0935  159.9532 H   0  0  0  0  0  0  0  0  0  0  0  0  # atno 6909 bound_to 6896
  146.0662  139.5195  142.9627 H   0  0  0  0  0  0  0  0  0  0  0  0  # atno 7974 bound_to 7965
  155.1371  140.3262  155.4460 H   0  0  0  0  0  0  0  0  0  0  0  0  # atno 8008 bound_to 7997
  156.2616  140.2000  156.6437 H   0  0  0  0  0  0  0  0  0  0  0  0  # atno 8009 bound_to 7997
  154.6570  140.0552  157.0006 H   0  0  0  0  0  0  0  0  0  0  0  0  # atno 8010 bound_to 7997
  139.8604  144.6547  150.9065 H   0  0  0  0  0  0  0  0  0  0  0  0  # atno 10167 bound_to 10162
  156.6084  130.4843  149.6211 H   0  0  0  0  0  0  0  0  0  0  0  0  # atno 10718 bound_to 10713
  154.1444  135.6500  153.4949 H   0  0  0  0  0  0  0  0  0  0  0  0  # atno 10763 bound_to 10752
  153.0156  135.5323  154.6872 H   0  0  0  0  0  0  0  0  0  0  0  0  # atno 10764 bound_to 10752
  154.6143  135.2957  155.0369 H   0  0  0  0  0  0  0  0  0  0  0  0  # atno 10765 bound_to 10752
  140.0365  134.9326  157.0762 H   0  0  0  0  0  0  0  0  0  0  0  0  # atno 11005 bound_to 11000
  145.6474  141.0271  143.1779 LP  0  0  0  0  0  0  0  0  0  0  0  0  # atno 17320 bound_to 7965
  144.7203  139.8051  143.7384 LP  0  0  0  0  0  0  0  0  0  0  0  0  # atno 17321 bound_to 7965
  140.7776  143.3749  151.1581 LP  0  0  0  0  0  0  0  0  0  0  0  0  # atno 17342 bound_to 10162
  139.7379  143.8970  152.3040 LP  0  0  0  0  0  0  0  0  0  0  0  0  # atno 17343 bound_to 10162
  156.2410  130.6851  151.1556 LP  0  0  0  0  0  0  0  0  0  0  0  0  # atno 17370 bound_to 10713
  157.7261  131.0649  150.5925 LP  0  0  0  0  0  0  0  0  0  0  0  0  # atno 17371 bound_to 10713
  140.4139  134.1952  155.7163 LP  0  0  0  0  0  0  0  0  0  0  0  0  # atno 17394 bound_to 11000
  141.1860  133.8312  157.1084 LP  0  0  0  0  0  0  0  0  0  0  0  0  # atno 17395 bound_to 11000

$$$$
