AV-unprocessed.smi:2672|AV-procd|sdf|10354|dock2
  -GOLD-   2272014383D 1   1.00000     0.00000
 Structure written by MMmdl.
 36 36  0  0  0  0  0  0  0  0  2 V2000
  151.5765  142.6684  158.3707 C   0  0  0  0  0  0  0  0  0  0  0  0
  151.2967  141.6696  157.2577 C   0  0  0  0  0  0  0  0  0  0  0  0
  150.5230  142.0398  156.2193 C   0  0  0  0  0  0  0  0  0  0  0  0
  150.1912  141.1397  155.1213 C   0  0  0  0  0  0  0  0  0  0  0  0
  149.4869  141.5111  154.1806 O   0  0  0  0  0  0  0  0  0  0  0  0
  150.6873  139.8684  155.2153 N   0  0  0  0  0  0  0  0  0  0  0  0
  150.2462  138.8828  154.1977 C   0  0  0  0  0  0  0  0  0  0  0  0
  148.7224  138.6953  154.1244 C   0  0  0  0  0  0  0  0  0  0  0  0
  148.0643  138.4246  155.1298 O   0  0  0  0  0  0  0  0  0  0  0  0
  148.1752  138.8540  152.9096 N   0  0  0  0  0  0  0  0  0  0  0  0
  146.7541  138.7326  152.5974 C   0  0  0  0  0  0  0  0  0  0  0  0
  146.2580  137.3411  153.0118 C   0  0  0  0  0  0  0  0  0  0  0  0
  146.5051  139.0007  151.1044 C   0  0  0  0  0  0  0  0  0  0  0  0
  151.5600  139.4713  156.2738 C   0  0  0  0  0  0  0  0  0  0  0  0
  152.1526  138.0584  156.1888 C   0  0  0  0  0  0  0  0  0  0  0  0
  151.8611  140.3256  157.2859 C   0  0  0  0  0  0  0  0  0  0  0  0
  152.7951  139.9115  158.4692 C   0  0  0  0  0  0  0  0  0  0  0  0
  152.4987  140.3813  159.5893 O   0  0  0  0  0  0  0  0  0  0  0  0
  153.7472  139.1553  158.1773 O   0  5  0  0  0  0  0  0  0  0  0  0
  151.0483  143.6092  158.2139 H   0  0  0  0  0  0  0  0  0  0  0  0
  152.6431  142.8880  158.4241 H   0  0  0  0  0  0  0  0  0  0  0  0
  151.2591  142.2652  159.3329 H   0  0  0  0  0  0  0  0  0  0  0  0
  150.1138  143.0392  156.1942 H   0  0  0  0  0  0  0  0  0  0  0  0
  150.6313  139.1263  153.2081 H   0  0  0  0  0  0  0  0  0  0  0  0
  150.6911  137.9052  154.3925 H   0  0  0  0  0  0  0  0  0  0  0  0
  148.7915  139.0777  152.1418 H   0  0  0  0  0  0  0  0  0  0  0  0
  146.1996  139.4699  153.1807 H   0  0  0  0  0  0  0  0  0  0  0  0
  145.1899  137.2331  152.8206 H   0  0  0  0  0  0  0  0  0  0  0  0
  146.4199  137.1668  154.0760 H   0  0  0  0  0  0  0  0  0  0  0  0
  146.7753  136.5542  152.4618 H   0  0  0  0  0  0  0  0  0  0  0  0
  145.4448  138.9182  150.8643 H   0  0  0  0  0  0  0  0  0  0  0  0
  147.0447  138.2898  150.4779 H   0  0  0  0  0  0  0  0  0  0  0  0
  146.8264  140.0039  150.8220 H   0  0  0  0  0  0  0  0  0  0  0  0
  153.1212  137.9904  156.6820 H   0  0  0  0  0  0  0  0  0  0  0  0
  152.3443  137.7329  155.1681 H   0  0  0  0  0  0  0  0  0  0  0  0
  151.4856  137.3413  156.6674 H   0  0  0  0  0  0  0  0  0  0  0  0
  1  2  1  0  0  0  0
  1 20  1  0  0  0  0
  1 21  1  0  0  0  0
  1 22  1  0  0  0  0
  2 16  1  0  0  0  0
  2  3  2  0  0  0  0
  3  4  1  0  0  0  0
  3 23  1  0  0  0  0
  4  5  2  0  0  0  0
  4  6  1  0  0  0  0
  6  7  1  0  0  0  0
  6 14  1  0  0  0  0
  7  8  1  0  0  0  0
  7 24  1  0  0  0  0
  7 25  1  0  0  0  0
  8  9  2  0  0  0  0
  8 10  1  0  0  0  0
 10 11  1  0  0  0  0
 10 26  1  0  0  0  0
 11 12  1  0  0  0  0
 11 13  1  0  0  0  0
 11 27  1  0  0  0  0
 12 28  1  0  0  0  0
 12 29  1  0  0  0  0
 12 30  1  0  0  0  0
 13 31  1  0  0  0  0
 13 32  1  0  0  0  0
 13 33  1  0  0  0  0
 14 15  1  0  0  0  0
 14 16  2  0  0  0  0
 15 34  1  0  0  0  0
 15 35  1  0  0  0  0
 15 36  1  0  0  0  0
 16 17  1  0  0  0  0
 17 18  2  0  0  0  0
 17 19  1  0  0  0  0
M  CHG  1  19  -1
M  END
> <s_m_source_file>
AV-unprocessed.smi

> <i_m_source_file_index>
2672

> <i_lp_mmshare_version>
43012

> <i_f3d_flags>
0

> <s_epik_input>
W0NIM11jMVtjSF1jKD1PKW4oYyhbQ0gzXSljMUMoPU8pW09IXSlbQ0gyXUMoPU8pW05IXVtDSF0oW0NIM10pW0NIM10=

> <s_epik_cmdline>
J2VwaWtfcHl0aG9uJywgJy1waCcsICc3LjAnLCAnLXRuJywgJzgnLCAnLW1hJywgJzIwMCcsICctbWV0YWxfYmluZGluZycsICctaW1hZScsICc8aW5maWxlLm1hZT4nLCAnLW9tYWUnLCAnPG91dGZpbGUubWFlPic=

> <r_lp_tautomer_probability>
1

> <r_epik_Ionization_Penalty>
0.000277152

> <r_epik_Ionization_Penalty_Charging>
0.000277132

> <r_epik_Ionization_Penalty_Neutral>
2.06705e-08

> <r_epik_State_Penalty>
-0

> <r_epik_Charging_Adjusted_Penalty>
0.000277132

> <i_epik_Tot_Q>
-1

> <i_epik_Tot_abs_Q>
1

> <r_epik_Metal_State_Penalty>
-0

> <b_epik_Metal_Only>
0

> <s_lp_Force_Field>
OPLS_2005

> <r_lp_Energy>
18.8997

> <b_lp_Chiralities_Consistent>
1

> <s_lp_Variant>
AV-unprocessed.smi:2672-1

> <Gold.Version>
5.8.1

> <Gold.Id.Protein>
6NUR|6NUR_protein|mol2

> <Gold.PLP.Fitness>
43.5691

> <Gold.PLP.PLP>
-32.9551

> <Gold.PLP.part.hbond>
-5.0000

> <Gold.PLP.part.metal>
0.0000

> <Gold.PLP.part.buried>
4.4263

> <Gold.PLP.part.nonpolar>
-29.9029

> <Gold.PLP.part.repulsive>
0.3318

> <Gold.PLP.ligand.clash>
0.0000

> <Gold.PLP.ligand.torsion>
0.5619

> <Gold.PLP.Chemscore.Hbond>
3.5577

> <Gold.PLP.Chemscore.CHOScore>
0.0000

> <Gold.PLP.Chemscore.Metal>
0.0000

> <Gold.Chemscore.Hbonds>
donor molecule, donor type, donor heavy atom, donor atom, acceptor molecule, acceptor atom, score
      L1  H    10    26       P1  7957  1.00
      P1  H  7997  8008       L1    19  2.00
      P1  H  8011  8017       L1     5  0.56

> <Gold.PLP.Chemscore.Internal.Correction>
1.0648

> <Gold.Rescore>
     Score         DG    S(hbond)    S(metal)    S(lipo)     H(rot)  DE(clash)    DE(int)     intcor
     12.62     -17.60       2.27        0.00      71.49       1.50       0.33       4.65       ----

> <Gold.Chemscore.Fitness>
12.6199

> <Gold.Chemscore.DG>
-17.5951

> <Gold.Chemscore.ZeroCoef>
-5.4800

> <Gold.Chemscore.Hbond>
2.2711

> <Gold.Chemscore.Metal>
0.0000

> <Gold.Chemscore.Lipo>
71.4930

> <Gold.Chemscore.Internal_Hbond>
0.0000

> <Gold.Chemscore.DEClash>
0.3280

> <Gold.Chemscore.DEInternal>
4.6473

> <Gold.Chemscore.Rot>
1.4980

> <Gold.Chemscore.Internal.Correction>
   9.000000E+99

> <Gold.Chemscore.Hbonds>
donor molecule, donor type, donor heavy atom, donor atom, acceptor molecule, acceptor atom, score
      L1  H    10    26       P1  7957  0.95
      P1  H  7997  8008       L1    19  0.40
      P1  H  8011  8017       L1     5  0.53

> <Gold.Chemscore.Hbond.Weighted>
-7.5854

> <Gold.Chemscore.Metal.Weighted>
-0.0000

> <Gold.Chemscore.Lipo.Weighted>
-8.3647

> <Gold.Chemscore.Internal_Hbond.Weighted>
0.0000

> <Gold.Chemscore.DEClash.Weighted>
0.3280

> <Gold.Chemscore.DEInternal.Weighted>
4.6473

> <Gold.Chemscore.Rot.Weighted>
3.8350

> <Gold.Chemscore.Internal.Correction.Weighted>
   9.000000E+99

> <Gold.Protein.RotatedTorsions>
[ 6907 6896 6895 6894 ] final -117.05 input  -60.11 | X-H torsion
[ 7974 7965 7964 7962 ] final -110.40 input  175.53 | X-H torsion
[ 8008 7997 7996 7995 ] final  -84.24 input   59.86 | X-H torsion
[ 10167 10162 10161 10158 ] final  -77.70 input  -65.29 | X-H torsion
[ 10718 10713 10712 10709 ] final  -67.84 input   66.30 | X-H torsion
[ 10763 10752 10751 10750 ] final  168.11 input  -60.55 | X-H torsion
[ 11005 11000 10999 10996 ] final -146.28 input  -57.11 | X-H torsion

> <Gold.Protein.ActiveResidues>
 VAL166  LYS551  ARG553  GLY616  TRP617  ASP618  TYR619  PRO620  LYS621  CYS622 
 ASP623  PHE694  ASN695  SER759  ASP760  ASP761  ALA762  ILE779  LEU786  VAL792 
 PHE793  MET794  SER795  GLU796  ALA797  LYS798  CYS799  TRP800  GLU811  SER814 

> <Gold.Protein.RotatedAtoms>
  150.8105  133.8431  159.3184 H   0  0  0  0  0  0  0  0  0  0  0  0  # atno 6907 bound_to 6896
  151.6217  135.1029  160.0112 H   0  0  0  0  0  0  0  0  0  0  0  0  # atno 6908 bound_to 6896
  152.4197  133.7055  159.6505 H   0  0  0  0  0  0  0  0  0  0  0  0  # atno 6909 bound_to 6896
  145.1687  140.8915  143.3548 H   0  0  0  0  0  0  0  0  0  0  0  0  # atno 7974 bound_to 7965
  154.6276  140.0608  156.9693 H   0  0  0  0  0  0  0  0  0  0  0  0  # atno 8008 bound_to 7997
  155.1716  140.3291  155.4373 H   0  0  0  0  0  0  0  0  0  0  0  0  # atno 8009 bound_to 7997
  156.2466  140.1913  156.6818 H   0  0  0  0  0  0  0  0  0  0  0  0  # atno 8010 bound_to 7997
  140.4747  143.2417  151.8150 H   0  0  0  0  0  0  0  0  0  0  0  0  # atno 10167 bound_to 10162
  156.0536  130.4284  150.1913 H   0  0  0  0  0  0  0  0  0  0  0  0  # atno 10718 bound_to 10713
  154.3637  135.2753  155.2305 H   0  0  0  0  0  0  0  0  0  0  0  0  # atno 10763 bound_to 10752
  154.4482  135.5937  153.6178 H   0  0  0  0  0  0  0  0  0  0  0  0  # atno 10764 bound_to 10752
  152.9842  135.6035  154.3861 H   0  0  0  0  0  0  0  0  0  0  0  0  # atno 10765 bound_to 10752
  140.7836  134.3050  157.5037 H   0  0  0  0  0  0  0  0  0  0  0  0  # atno 11005 bound_to 11000
  145.0255  139.3386  143.6051 LP  0  0  0  0  0  0  0  0  0  0  0  0  # atno 17320 bound_to 7965
  146.3472  139.9572  142.8721 LP  0  0  0  0  0  0  0  0  0  0  0  0  # atno 17321 bound_to 7965
  139.4824  144.4848  151.9261 LP  0  0  0  0  0  0  0  0  0  0  0  0  # atno 17342 bound_to 10162
  140.3933  144.2588  150.5898 LP  0  0  0  0  0  0  0  0  0  0  0  0  # atno 17343 bound_to 10162
  156.9993  130.9917  151.3395 LP  0  0  0  0  0  0  0  0  0  0  0  0  # atno 17370 bound_to 10713
  157.5486  130.8167  149.8116 LP  0  0  0  0  0  0  0  0  0  0  0  0  # atno 17371 bound_to 10713
  139.8739  134.9333  156.3577 LP  0  0  0  0  0  0  0  0  0  0  0  0  # atno 17394 bound_to 11000
  140.9458  133.7484  156.0207 LP  0  0  0  0  0  0  0  0  0  0  0  0  # atno 17395 bound_to 11000

$$$$
