AV-unprocessed.smi:252|AV-procd|sdf|1941|dock1
  -GOLD-   2262021 63D 1   1.00000     0.00000
 Structure written by MMmdl.
 56 59  0  0  0  0  0  0  0  0  1 V2000
  151.7867  145.0009  159.3221 C   0  0  0  0  0  0  0  0  0  0  0  0
  150.4151  144.3318  159.1415 C   0  0  0  0  0  0  0  0  0  0  0  0
  150.4900  142.9282  158.5316 C   0  0  0  0  0  0  0  0  0  0  0  0
  151.0667  142.0109  159.1173 O   0  0  0  0  0  0  0  0  0  0  0  0
  149.8949  142.7783  157.3383 N   0  0  0  0  0  0  0  0  0  0  0  0
  149.8436  141.5372  156.5727 C   0  0  1  0  0  0  0  0  0  0  0  0
  151.2671  141.1193  156.1597 C   0  0  0  0  0  0  0  0  0  0  0  0
  151.2408  139.7653  155.4330 C   0  0  0  0  0  0  0  0  0  0  0  0
  150.5360  138.6989  156.2868 C   0  0  0  0  0  0  0  0  0  0  0  0
  149.2034  139.1510  156.6759 N   0  0  0  0  0  0  0  0  0  0  0  0
  148.4571  138.1836  157.2487 C   0  0  0  0  0  0  0  0  0  0  0  0
  147.2844  137.8016  156.6773 N   0  0  0  0  0  0  0  0  0  0  0  0
  146.5472  136.8441  157.2492 C   0  0  0  0  0  0  0  0  0  0  0  0
  146.7930  136.1540  158.3658 N   0  0  0  0  0  0  0  0  0  0  0  0
  147.9702  136.5403  158.9368 C   0  0  0  0  0  0  0  0  0  0  0  0
  148.8553  137.5409  158.4490 C   0  0  0  0  0  0  0  0  0  0  0  0
  149.9516  137.6642  159.2932 N   0  0  0  0  0  0  0  0  0  0  0  0
  149.7265  136.7843  160.2313 C   0  0  0  0  0  0  0  0  0  0  0  0
  148.5602  136.0656  160.0939 N   0  0  0  0  0  0  0  0  0  0  0  0
  148.0614  135.0320  160.9865 C   0  0  0  0  0  0  0  0  0  0  0  0
  147.2734  135.5632  162.2253 C   0  0  1  0  0  0  0  0  0  0  0  0
  146.8584  134.5033  163.0766 O   0  0  0  0  0  0  0  0  0  0  0  0
  148.0760  136.5547  163.0829 C   0  0  0  0  0  0  0  0  0  0  0  0
  147.1757  137.7844  163.2163 C   0  0  0  0  0  0  0  0  0  0  0  0
  145.8796  137.3185  162.8837 O   0  0  0  0  0  0  0  0  0  0  0  0
  146.0352  136.3935  161.8207 C   0  0  2  0  0  0  0  0  0  0  0  0
  144.7350  135.6175  161.5544 C   0  0  0  0  0  0  0  0  0  0  0  0
  149.1730  140.4203  157.3979 C   0  0  0  0  0  0  0  0  0  0  0  0
  151.6766  145.9903  159.7663 H   0  0  0  0  0  0  0  0  0  0  0  0
  152.2982  145.1241  158.3667 H   0  0  0  0  0  0  0  0  0  0  0  0
  152.4322  144.4160  159.9784 H   0  0  0  0  0  0  0  0  0  0  0  0
  149.9131  144.2648  160.1073 H   0  0  0  0  0  0  0  0  0  0  0  0
  149.7876  144.9559  158.5041 H   0  0  0  0  0  0  0  0  0  0  0  0
  149.4474  143.5850  156.9278 H   0  0  0  0  0  0  0  0  0  0  0  0
  149.2618  141.7025  155.6636 H   0  0  0  0  0  0  0  0  0  0  0  0
  151.7140  141.8785  155.5168 H   0  0  0  0  0  0  0  0  0  0  0  0
  151.9033  141.0429  157.0428 H   0  0  0  0  0  0  0  0  0  0  0  0
  150.7195  139.8725  154.4809 H   0  0  0  0  0  0  0  0  0  0  0  0
  152.2559  139.4451  155.1973 H   0  0  0  0  0  0  0  0  0  0  0  0
  150.4621  137.7654  155.7270 H   0  0  0  0  0  0  0  0  0  0  0  0
  151.1256  138.4907  157.1810 H   0  0  0  0  0  0  0  0  0  0  0  0
  145.6285  136.5948  156.7390 H   0  0  0  0  0  0  0  0  0  0  0  0
  150.4081  136.6360  161.0560 H   0  0  0  0  0  0  0  0  0  0  0  0
  147.4511  134.3543  160.3898 H   0  0  0  0  0  0  0  0  0  0  0  0
  148.9172  134.4339  161.3019 H   0  0  0  0  0  0  0  0  0  0  0  0
  147.6287  134.1040  163.4513 H   0  0  0  0  0  0  0  0  0  0  0  0
  148.3066  136.1408  164.0659 H   0  0  0  0  0  0  0  0  0  0  0  0
  149.0280  136.8428  162.6368 H   0  0  0  0  0  0  0  0  0  0  0  0
  147.2000  138.2183  164.2160 H   0  0  0  0  0  0  0  0  0  0  0  0
  147.4715  138.5552  162.5031 H   0  0  0  0  0  0  0  0  0  0  0  0
  146.2700  136.9830  160.9321 H   0  0  0  0  0  0  0  0  0  0  0  0
  144.8758  134.8774  160.7663 H   0  0  0  0  0  0  0  0  0  0  0  0
  143.9424  136.2945  161.2356 H   0  0  0  0  0  0  0  0  0  0  0  0
  144.3808  135.0984  162.4451 H   0  0  0  0  0  0  0  0  0  0  0  0
  149.6860  140.3056  158.3539 H   0  0  0  0  0  0  0  0  0  0  0  0
  148.1389  140.6882  157.6204 H   0  0  0  0  0  0  0  0  0  0  0  0
  1  2  1  0  0  0  0
  1 29  1  0  0  0  0
  1 30  1  0  0  0  0
  1 31  1  0  0  0  0
  2  3  1  0  0  0  0
  2 32  1  0  0  0  0
  2 33  1  0  0  0  0
  3  4  2  0  0  0  0
  3  5  1  0  0  0  0
  5  6  1  0  0  0  0
  5 34  1  0  0  0  0
  6 28  1  0  0  0  0
  6  7  1  0  0  0  0
  6 35  1  0  0  0  0
  7  8  1  0  0  0  0
  7 36  1  0  0  0  0
  7 37  1  0  0  0  0
  8  9  1  0  0  0  0
  8 38  1  0  0  0  0
  8 39  1  0  0  0  0
  9 10  1  0  0  0  0
  9 40  1  0  0  0  0
  9 41  1  0  0  0  0
 10 11  1  0  0  0  0
 10 28  1  0  0  0  0
 11 16  1  0  0  0  0
 11 12  2  0  0  0  0
 12 13  1  0  0  0  0
 13 14  2  0  0  0  0
 13 42  1  0  0  0  0
 14 15  1  0  0  0  0
 15 19  1  0  0  0  0
 15 16  2  0  0  0  0
 16 17  1  0  0  0  0
 17 18  2  0  0  0  0
 18 19  1  0  0  0  0
 18 43  1  0  0  0  0
 19 20  1  0  0  0  0
 20 21  1  0  0  0  0
 20 44  1  0  0  0  0
 20 45  1  0  0  0  0
 21 26  1  0  0  0  0
 21 22  1  0  0  0  0
 21 23  1  0  0  0  0
 22 46  1  0  0  0  0
 23 24  1  0  0  0  0
 23 47  1  0  0  0  0
 23 48  1  0  0  0  0
 24 25  1  0  0  0  0
 24 49  1  0  0  0  0
 24 50  1  0  0  0  0
 25 26  1  0  0  0  0
 26 27  1  0  0  0  0
 26 51  1  0  0  0  0
 27 52  1  0  0  0  0
 27 53  1  0  0  0  0
 27 54  1  0  0  0  0
 28 55  1  0  0  0  0
 28 56  1  0  0  0  0
M  END
> <s_m_source_file>
AV-unprocessed.smi

> <i_m_source_file_index>
252

> <i_lp_mmshare_version>
43012

> <i_f3d_flags>
0

> <s_epik_input>
W0NIM11bQ0gyXUMoPU8pW05IXVtDQEBIXTFbQ0gyXVtDSDJdW0NIMl1OKFtDSDJdMSljKG5bY0hdbjIpYyhjMjMpbltjSF1uM1tDSDJdW0NAQF00KFtPSF0pW0NIMl1bQ0gyXU9bQ0BIXTRbQ0gzXQ==

> <s_epik_cmdline>
J2VwaWtfcHl0aG9uJywgJy1waCcsICc3LjAnLCAnLXRuJywgJzgnLCAnLW1hJywgJzIwMCcsICctbWV0YWxfYmluZGluZycsICctaW1hZScsICc8aW5maWxlLm1hZT4nLCAnLW9tYWUnLCAnPG91dGZpbGUubWFlPic=

> <r_lp_tautomer_probability>
1

> <r_epik_Ionization_Penalty>
0.00182575

> <r_epik_Ionization_Penalty_Charging>
0

> <r_epik_Ionization_Penalty_Neutral>
0.00182575

> <r_epik_State_Penalty>
0.00104524

> <r_epik_Charging_Adjusted_Penalty>
0.00104524

> <i_epik_Tot_Q>
0

> <i_epik_Tot_abs_Q>
0

> <r_epik_Metal_State_Penalty>
-0

> <b_epik_Metal_Only>
0

> <s_lp_Force_Field>
OPLS_2005

> <r_lp_Energy>
42.5457

> <b_lp_Chiralities_Consistent>
1

> <s_lp_Variant>
AV-unprocessed.smi:252-6

> <Gold.Version>
5.8.1

> <Gold.Id.Protein>
6NUR|6NUR_protein|mol2

> <Gold.PLP.Fitness>
40.3779

> <Gold.PLP.PLP>
-38.1091

> <Gold.PLP.part.hbond>
-2.3760

> <Gold.PLP.part.metal>
0.0000

> <Gold.PLP.part.buried>
-3.4595

> <Gold.PLP.part.nonpolar>
-32.1637

> <Gold.PLP.part.repulsive>
0.0214

> <Gold.PLP.ligand.clash>
0.0000

> <Gold.PLP.ligand.torsion>
0.5044

> <Gold.PLP.Chemscore.Hbond>
1.0000

> <Gold.PLP.Chemscore.CHOScore>
0.0000

> <Gold.PLP.Chemscore.Metal>
0.0000

> <Gold.Chemscore.Hbonds>
donor molecule, donor type, donor heavy atom, donor atom, acceptor molecule, acceptor atom, score
      L1  H     5    34       P1  8028  1.00

> <Gold.PLP.Chemscore.Internal.Correction>
0.2776

> <Gold.Rescore>
     Score         DG    S(hbond)    S(metal)    S(lipo)     H(rot)  DE(clash)    DE(int)     intcor
     10.95     -12.81       0.99        0.00      93.66       2.70       0.28       1.57       ----

> <Gold.Chemscore.Fitness>
10.9531

> <Gold.Chemscore.DG>
-12.8075

> <Gold.Chemscore.ZeroCoef>
-5.4800

> <Gold.Chemscore.Hbond>
0.9856

> <Gold.Chemscore.Metal>
0.0000

> <Gold.Chemscore.Lipo>
93.6598

> <Gold.Chemscore.Internal_Hbond>
0.0000

> <Gold.Chemscore.DEClash>
0.2810

> <Gold.Chemscore.DEInternal>
1.5735

> <Gold.Chemscore.Rot>
2.7041

> <Gold.Chemscore.Internal.Correction>
   9.000000E+99

> <Gold.Chemscore.Hbonds>
donor molecule, donor type, donor heavy atom, donor atom, acceptor molecule, acceptor atom, score
      L1  H     5    34       P1  8028  0.92

> <Gold.Chemscore.Hbond.Weighted>
-3.2918

> <Gold.Chemscore.Metal.Weighted>
-0.0000

> <Gold.Chemscore.Lipo.Weighted>
-10.9582

> <Gold.Chemscore.Internal_Hbond.Weighted>
0.0000

> <Gold.Chemscore.DEClash.Weighted>
0.2810

> <Gold.Chemscore.DEInternal.Weighted>
1.5735

> <Gold.Chemscore.Rot.Weighted>
6.9225

> <Gold.Chemscore.Internal.Correction.Weighted>
   9.000000E+99

> <Gold.Protein.RotatedTorsions>
[ 6907 6896 6895 6894 ] final    6.76 input  -60.11 | X-H torsion
[ 7974 7965 7964 7962 ] final  -24.58 input  175.53 | X-H torsion
[ 8008 7997 7996 7995 ] final  -91.12 input   59.86 | X-H torsion
[ 10167 10162 10161 10158 ] final  144.71 input  -65.29 | X-H torsion
[ 10718 10713 10712 10709 ] final -124.89 input   66.30 | X-H torsion
[ 10763 10752 10751 10750 ] final   55.69 input  -60.55 | X-H torsion
[ 11005 11000 10999 10996 ] final  153.33 input  -57.11 | X-H torsion

> <Gold.Protein.ActiveResidues>
 VAL166  LYS551  ARG553  GLY616  TRP617  ASP618  TYR619  PRO620  LYS621  CYS622 
 ASP623  PHE694  ASN695  SER759  ASP760  ASP761  ALA762  ILE779  LEU786  VAL792 
 PHE793  MET794  SER795  GLU796  ALA797  LYS798  CYS799  TRP800  GLU811  SER814 

> <Gold.Protein.RotatedAtoms>
  151.6789  135.0965  160.0211 H   0  0  0  0  0  0  0  0  0  0  0  0  # atno 6907 bound_to 6896
  152.3847  133.6590  159.6198 H   0  0  0  0  0  0  0  0  0  0  0  0  # atno 6908 bound_to 6896
  150.7776  133.8971  159.3371 H   0  0  0  0  0  0  0  0  0  0  0  0  # atno 6909 bound_to 6896
  146.1546  140.4771  142.8597 H   0  0  0  0  0  0  0  0  0  0  0  0  # atno 7974 bound_to 7965
  154.7069  140.0523  157.0512 H   0  0  0  0  0  0  0  0  0  0  0  0  # atno 8008 bound_to 7997
  155.0608  140.3189  155.4642 H   0  0  0  0  0  0  0  0  0  0  0  0  # atno 8009 bound_to 7997
  156.2777  140.2099  156.5735 H   0  0  0  0  0  0  0  0  0  0  0  0  # atno 8010 bound_to 7997
  139.4941  144.5953  151.6596 H   0  0  0  0  0  0  0  0  0  0  0  0  # atno 10167 bound_to 10162
  156.1627  130.6613  151.0072 H   0  0  0  0  0  0  0  0  0  0  0  0  # atno 10718 bound_to 10713
  152.9820  135.5702  154.5108 H   0  0  0  0  0  0  0  0  0  0  0  0  # atno 10763 bound_to 10752
  154.4612  135.2781  155.1713 H   0  0  0  0  0  0  0  0  0  0  0  0  # atno 10764 bound_to 10752
  154.3300  135.6251  153.5600 H   0  0  0  0  0  0  0  0  0  0  0  0  # atno 10765 bound_to 10752
  140.1388  134.8753  157.2303 H   0  0  0  0  0  0  0  0  0  0  0  0  # atno 11005 bound_to 11000
  144.7946  140.6098  143.6518 LP  0  0  0  0  0  0  0  0  0  0  0  0  # atno 17320 bound_to 7965
  145.4741  139.1501  143.3798 LP  0  0  0  0  0  0  0  0  0  0  0  0  # atno 17321 bound_to 7965
  140.5589  144.0301  150.6160 LP  0  0  0  0  0  0  0  0  0  0  0  0  # atno 17342 bound_to 10162
  140.3380  143.3037  152.0618 LP  0  0  0  0  0  0  0  0  0  0  0  0  # atno 17343 bound_to 10162
  157.6745  131.0854  150.7530 LP  0  0  0  0  0  0  0  0  0  0  0  0  # atno 17370 bound_to 10713
  156.7592  130.4793  149.5440 LP  0  0  0  0  0  0  0  0  0  0  0  0  # atno 17371 bound_to 10713
  140.2749  134.3418  155.7361 LP  0  0  0  0  0  0  0  0  0  0  0  0  # atno 17394 bound_to 11000
  141.2182  133.7444  156.9277 LP  0  0  0  0  0  0  0  0  0  0  0  0  # atno 17395 bound_to 11000

$$$$
