AV-unprocessed.smi:1644|AV-procd|sdf|6595|dock5
  -GOLD-   22720 7293D 1   1.00000     0.00000
 Structure written by MMmdl.
 48 50  0  0  0  0  0  0  0  0  2 V2000
  146.0285  144.8895  151.9031 C   0  0  0  0  0  0  0  0  0  0  0  0
  145.1981  145.0817  153.1764 C   0  0  0  0  0  0  0  0  0  0  0  0
  144.8737  143.7433  153.8746 C   0  0  0  0  0  0  0  0  0  0  0  0
  145.9973  143.1421  154.7541 C   0  0  1  0  0  0  0  0  0  0  0  0
  145.5205  142.0296  155.5489 N   0  5  0  0  0  0  0  0  0  0  0  0
  146.2811  140.9458  155.2661 C   0  0  0  0  0  0  0  0  0  0  0  0
  146.1615  139.8186  155.7458 O   0  0  0  0  0  0  0  0  0  0  0  0
  147.2249  141.2394  154.3500 N   0  0  0  0  0  0  0  0  0  0  0  0
  148.1870  140.2830  153.7935 C   0  0  0  0  0  0  0  0  0  0  0  0
  149.3662  140.0344  154.7567 C   0  0  1  0  0  0  0  0  0  0  0  0
  150.4747  139.5648  154.0130 O   0  0  0  0  0  0  0  0  0  0  0  0
  149.7830  141.3236  155.4895 C   0  0  0  0  0  0  0  0  0  0  0  0
  150.6135  141.0580  156.6502 N   0  0  0  0  0  0  0  0  0  0  0  0
  151.3806  139.9739  156.8746 C   0  0  0  0  0  0  0  0  0  0  0  0
  152.0694  139.9404  158.0122 N   0  0  0  0  0  0  0  0  0  0  0  0
  151.7046  141.1426  158.5942 C   0  0  0  0  0  0  0  0  0  0  0  0
  152.0877  141.7195  159.8250 C   0  0  0  0  0  0  0  0  0  0  0  0
  151.5822  142.9777  160.2242 C   0  0  0  0  0  0  0  0  0  0  0  0
  152.0200  143.5607  161.5562 C   0  0  0  0  0  0  0  0  0  0  0  0
  150.6788  143.6793  159.3856 C   0  0  0  0  0  0  0  0  0  0  0  0
  150.1203  145.0311  159.7937 C   0  0  0  0  0  0  0  0  0  0  0  0
  150.2869  143.1178  158.1525 C   0  0  0  0  0  0  0  0  0  0  0  0
  150.7962  141.8653  157.7671 C   0  0  0  0  0  0  0  0  0  0  0  0
  147.1346  142.5177  153.9714 C   0  0  0  0  0  0  0  0  0  0  0  0
  147.8225  143.1114  153.1401 O   0  0  0  0  0  0  0  0  0  0  0  0
  146.2424  145.8488  151.4316 H   0  0  0  0  0  0  0  0  0  0  0  0
  145.4988  144.2721  151.1773 H   0  0  0  0  0  0  0  0  0  0  0  0
  146.9811  144.4072  152.1235 H   0  0  0  0  0  0  0  0  0  0  0  0
  145.7434  145.7344  153.8588 H   0  0  0  0  0  0  0  0  0  0  0  0
  144.2785  145.6072  152.9175 H   0  0  0  0  0  0  0  0  0  0  0  0
  143.9845  143.8777  154.4918 H   0  0  0  0  0  0  0  0  0  0  0  0
  144.5942  143.0085  153.1183 H   0  0  0  0  0  0  0  0  0  0  0  0
  146.4132  143.9306  155.3828 H   0  0  0  0  0  0  0  0  0  0  0  0
  147.7021  139.3446  153.5183 H   0  0  0  0  0  0  0  0  0  0  0  0
  148.5611  140.6941  152.8543 H   0  0  0  0  0  0  0  0  0  0  0  0
  149.0965  139.2790  155.4960 H   0  0  0  0  0  0  0  0  0  0  0  0
  150.2117  139.4679  153.1108 H   0  0  0  0  0  0  0  0  0  0  0  0
  150.3196  141.9933  154.8156 H   0  0  0  0  0  0  0  0  0  0  0  0
  148.8989  141.8648  155.8290 H   0  0  0  0  0  0  0  0  0  0  0  0
  151.4353  139.1628  156.1632 H   0  0  0  0  0  0  0  0  0  0  0  0
  152.7755  141.1843  160.4631 H   0  0  0  0  0  0  0  0  0  0  0  0
  152.5464  144.5033  161.4049 H   0  0  0  0  0  0  0  0  0  0  0  0
  152.6909  142.8841  162.0865 H   0  0  0  0  0  0  0  0  0  0  0  0
  151.1568  143.7445  162.1961 H   0  0  0  0  0  0  0  0  0  0  0  0
  149.4621  145.4379  159.0252 H   0  0  0  0  0  0  0  0  0  0  0  0
  150.9270  145.7463  159.9553 H   0  0  0  0  0  0  0  0  0  0  0  0
  149.5441  144.9433  160.7150 H   0  0  0  0  0  0  0  0  0  0  0  0
  149.5971  143.6391  157.5047 H   0  0  0  0  0  0  0  0  0  0  0  0
  1  2  1  0  0  0  0
  1 26  1  0  0  0  0
  1 27  1  0  0  0  0
  1 28  1  0  0  0  0
  2  3  1  0  0  0  0
  2 29  1  0  0  0  0
  2 30  1  0  0  0  0
  3  4  1  0  0  0  0
  3 31  1  0  0  0  0
  3 32  1  0  0  0  0
  4 24  1  0  0  0  0
  4  5  1  0  0  0  0
  4 33  1  0  0  0  0
  5  6  1  0  0  0  0
  6  7  2  0  0  0  0
  6  8  1  0  0  0  0
  8  9  1  0  0  0  0
  8 24  1  0  0  0  0
  9 10  1  0  0  0  0
  9 34  1  0  0  0  0
  9 35  1  0  0  0  0
 10 11  1  0  0  0  0
 10 12  1  0  0  0  0
 10 36  1  0  0  0  0
 11 37  1  0  0  0  0
 12 13  1  0  0  0  0
 12 38  1  0  0  0  0
 12 39  1  0  0  0  0
 13 23  1  0  0  0  0
 13 14  1  0  0  0  0
 14 15  2  0  0  0  0
 14 40  1  0  0  0  0
 15 16  1  0  0  0  0
 16 23  2  0  0  0  0
 16 17  1  0  0  0  0
 17 18  2  0  0  0  0
 17 41  1  0  0  0  0
 18 19  1  0  0  0  0
 18 20  1  0  0  0  0
 19 42  1  0  0  0  0
 19 43  1  0  0  0  0
 19 44  1  0  0  0  0
 20 21  1  0  0  0  0
 20 22  2  0  0  0  0
 21 45  1  0  0  0  0
 21 46  1  0  0  0  0
 21 47  1  0  0  0  0
 22 23  1  0  0  0  0
 22 48  1  0  0  0  0
 24 25  2  0  0  0  0
M  CHG  1   5  -1
M  END
> <s_m_source_file>
AV-unprocessed.smi

> <i_m_source_file_index>
1644

> <i_lp_mmshare_version>
43012

> <i_f3d_flags>
0

> <s_epik_input>
W0NIM11bQ0gyXVtDSDJdW0NAQEhdMVtOSF1DKD1PKU4oQzE9TylbQ0gyXVtDQEhdKFtPSF0pW0NIMl1uKFtjSF1uMiljKGMyMylbY0hdYyhbQ0gzXSljKFtjSF0zKVtDSDNd

> <s_epik_cmdline>
J2VwaWtfcHl0aG9uJywgJy1waCcsICc3LjAnLCAnLXRuJywgJzgnLCAnLW1hJywgJzIwMCcsICctbWV0YWxfYmluZGluZycsICctaW1hZScsICc8aW5maWxlLm1hZT4nLCAnLW9tYWUnLCAnPG91dGZpbGUubWFlPic=

> <r_lp_tautomer_probability>
1

> <r_epik_Ionization_Penalty>
5.95212

> <r_epik_Ionization_Penalty_Charging>
5.84419

> <r_epik_Ionization_Penalty_Neutral>
0.107924

> <r_epik_State_Penalty>
5.94088

> <r_epik_Charging_Adjusted_Penalty>
11.7851

> <i_epik_Tot_Q>
-1

> <i_epik_Tot_abs_Q>
1

> <r_epik_Metal_State_Penalty>
1.99095

> <b_epik_Metal_Only>
1

> <s_lp_Force_Field>
OPLS_2005

> <r_lp_Energy>
19.6047

> <b_lp_Chiralities_Consistent>
1

> <s_lp_Variant>
AV-unprocessed.smi:1644-12

> <Gold.Version>
5.8.1

> <Gold.Id.Protein>
6NUR|6NUR_protein|mol2

> <Gold.PLP.Fitness>
54.8141

> <Gold.PLP.PLP>
-46.8607

> <Gold.PLP.part.hbond>
-5.0000

> <Gold.PLP.part.metal>
0.0000

> <Gold.PLP.part.buried>
0.5740

> <Gold.PLP.part.nonpolar>
-41.5151

> <Gold.PLP.part.repulsive>
0.6347

> <Gold.PLP.ligand.clash>
0.0000

> <Gold.PLP.ligand.torsion>
1.1234

> <Gold.PLP.Chemscore.Hbond>
3.3570

> <Gold.PLP.Chemscore.CHOScore>
0.0000

> <Gold.PLP.Chemscore.Metal>
0.0000

> <Gold.Chemscore.Hbonds>
donor molecule, donor type, donor heavy atom, donor atom, acceptor molecule, acceptor atom, score
      L1  H    11    37       P1  7957  0.80
      P1  H  7989  7998       L1    11  0.40
      P1  H  8022  8030       L1    25  0.38

> <Gold.PLP.Chemscore.Internal.Correction>
0.1291

> <Gold.Rescore>
     Score         DG    S(hbond)    S(metal)    S(lipo)     H(rot)  DE(clash)    DE(int)     intcor
     16.06     -19.92       2.36        0.00     113.86       2.65       1.07       2.78       ----

> <Gold.Chemscore.Fitness>
16.0638

> <Gold.Chemscore.DG>
-19.9175

> <Gold.Chemscore.ZeroCoef>
-5.4800

> <Gold.Chemscore.Hbond>
2.3641

> <Gold.Chemscore.Metal>
0.0000

> <Gold.Chemscore.Lipo>
113.8607

> <Gold.Chemscore.Internal_Hbond>
0.0000

> <Gold.Chemscore.DEClash>
1.0732

> <Gold.Chemscore.DEInternal>
2.7805

> <Gold.Chemscore.Rot>
2.6486

> <Gold.Chemscore.Internal.Correction>
   9.000000E+99

> <Gold.Chemscore.Hbonds>
donor molecule, donor type, donor heavy atom, donor atom, acceptor molecule, acceptor atom, score
      L1  H    11    37       P1  7957  0.76
      P1  H  7989  7998       L1    11  0.01
      P1  H  8022  8030       L1    25  0.37

> <Gold.Chemscore.Hbond.Weighted>
-7.8962

> <Gold.Chemscore.Metal.Weighted>
-0.0000

> <Gold.Chemscore.Lipo.Weighted>
-13.3217

> <Gold.Chemscore.Internal_Hbond.Weighted>
0.0000

> <Gold.Chemscore.DEClash.Weighted>
1.0732

> <Gold.Chemscore.DEInternal.Weighted>
2.7805

> <Gold.Chemscore.Rot.Weighted>
6.7804

> <Gold.Chemscore.Internal.Correction.Weighted>
   9.000000E+99

> <Gold.Protein.RotatedTorsions>
[ 6907 6896 6895 6894 ] final  144.36 input  -60.11 | X-H torsion
[ 7974 7965 7964 7962 ] final -147.16 input  175.53 | X-H torsion
[ 8008 7997 7996 7995 ] final  177.56 input   59.86 | X-H torsion
[ 10167 10162 10161 10158 ] final -107.62 input  -65.29 | X-H torsion
[ 10718 10713 10712 10709 ] final  -82.55 input   66.30 | X-H torsion
[ 10763 10752 10751 10750 ] final  103.01 input  -60.55 | X-H torsion
[ 11005 11000 10999 10996 ] final  112.09 input  -57.11 | X-H torsion

> <Gold.Protein.ActiveResidues>
 VAL166  LYS551  ARG553  GLY616  TRP617  ASP618  TYR619  PRO620  LYS621  CYS622 
 ASP623  PHE694  ASN695  SER759  ASP760  ASP761  ALA762  ILE779  LEU786  VAL792 
 PHE793  MET794  SER795  GLU796  ALA797  LYS798  CYS799  TRP800  GLU811  SER814 

> <Gold.Protein.RotatedAtoms>
  152.1947  133.4798  159.5026 H   0  0  0  0  0  0  0  0  0  0  0  0  # atno 6907 bound_to 6896
  150.6958  134.1668  159.4206 H   0  0  0  0  0  0  0  0  0  0  0  0  # atno 6908 bound_to 6896
  151.9583  135.0135  160.0597 H   0  0  0  0  0  0  0  0  0  0  0  0  # atno 6909 bound_to 6896
  144.8111  140.5362  143.5642 H   0  0  0  0  0  0  0  0  0  0  0  0  # atno 7974 bound_to 7965
  156.0643  140.1355  156.9904 H   0  0  0  0  0  0  0  0  0  0  0  0  # atno 8008 bound_to 7997
  154.4498  140.0985  156.6635 H   0  0  0  0  0  0  0  0  0  0  0  0  # atno 8009 bound_to 7997
  155.5328  140.3459  155.4432 H   0  0  0  0  0  0  0  0  0  0  0  0  # atno 8010 bound_to 7997
  140.1749  143.4013  152.1326 H   0  0  0  0  0  0  0  0  0  0  0  0  # atno 10167 bound_to 10162
  156.0031  130.4638  150.4122 H   0  0  0  0  0  0  0  0  0  0  0  0  # atno 10718 bound_to 10713
  153.3470  135.3991  155.1616 H   0  0  0  0  0  0  0  0  0  0  0  0  # atno 10763 bound_to 10752
  154.8655  135.3647  154.5271 H   0  0  0  0  0  0  0  0  0  0  0  0  # atno 10764 bound_to 10752
  153.5720  135.7078  153.5560 H   0  0  0  0  0  0  0  0  0  0  0  0  # atno 10765 bound_to 10752
  139.8919  134.9522  156.6532 H   0  0  0  0  0  0  0  0  0  0  0  0  # atno 11005 bound_to 11000
  145.5321  139.1475  143.3493 LP  0  0  0  0  0  0  0  0  0  0  0  0  # atno 17320 bound_to 7965
  146.2410  140.5462  142.8934 LP  0  0  0  0  0  0  0  0  0  0  0  0  # atno 17321 bound_to 7965
  139.5321  144.7170  151.5019 LP  0  0  0  0  0  0  0  0  0  0  0  0  # atno 17342 bound_to 10162
  140.6558  143.8603  150.6833 LP  0  0  0  0  0  0  0  0  0  0  0  0  # atno 17343 bound_to 10162
  157.2183  131.0476  151.2560 LP  0  0  0  0  0  0  0  0  0  0  0  0  # atno 17370 bound_to 10713
  157.3824  130.7238  149.6639 LP  0  0  0  0  0  0  0  0  0  0  0  0  # atno 17371 bound_to 10713
  140.7504  133.8902  155.8343 LP  0  0  0  0  0  0  0  0  0  0  0  0  # atno 17394 bound_to 11000
  141.0005  134.1156  157.4321 LP  0  0  0  0  0  0  0  0  0  0  0  0  # atno 17395 bound_to 11000

$$$$
