AV-unprocessed.smi:1031|AV-procd|sdf|4481|dock6
  -GOLD-   22720 2463D 1   1.00000     0.00000
 Structure written by MMmdl.
 35 36  0  0  0  0  0  0  0  0  1 V2000
  147.7748  141.6789  156.4893 C   0  0  0  0  0  0  0  0  0  0  0  0
  149.2273  141.2283  156.2836 C   0  0  1  0  0  0  0  0  0  0  0  0
  149.4927  140.8427  154.8124 C   0  0  0  0  0  0  0  0  0  0  0  0
  150.5117  139.8174  154.6737 N   0  0  0  0  0  0  0  0  0  0  0  0
  150.4155  138.5921  154.0479 C   0  0  0  0  0  0  0  0  0  0  0  0
  151.6319  137.9825  154.1593 C   0  0  0  0  0  0  0  0  0  0  0  0
  152.4164  138.9240  154.8826 C   0  0  0  0  0  0  0  0  0  0  0  0
  151.7420  140.0194  155.1929 N   0  0  0  0  0  0  0  0  0  0  0  0
  150.1206  142.3054  156.7089 N   0  0  0  0  0  0  0  0  0  0  0  0
  151.0330  142.2277  157.6910 C   0  0  0  0  0  0  0  0  0  0  0  0
  151.2140  141.2151  158.3682 O   0  0  0  0  0  0  0  0  0  0  0  0
  151.8786  143.4876  157.9362 C   0  0  0  0  0  0  0  0  0  0  0  0
  152.8601  143.3019  159.1175 C   0  0  0  0  0  0  0  0  0  0  0  0
  152.4994  144.3594  160.1691 C   0  0  0  0  0  0  0  0  0  0  0  0
  151.0689  144.7798  159.8449 C   0  0  0  0  0  0  0  0  0  0  0  0
  151.0014  144.6945  158.3212 C   0  0  0  0  0  0  0  0  0  0  0  0
  147.0763  140.8886  156.2136 H   0  0  0  0  0  0  0  0  0  0  0  0
  147.5404  142.5558  155.8847 H   0  0  0  0  0  0  0  0  0  0  0  0
  147.5867  141.9333  157.5330 H   0  0  0  0  0  0  0  0  0  0  0  0
  149.3814  140.3483  156.9107 H   0  0  0  0  0  0  0  0  0  0  0  0
  148.5764  140.4703  154.3517 H   0  0  0  0  0  0  0  0  0  0  0  0
  149.7957  141.7172  154.2349 H   0  0  0  0  0  0  0  0  0  0  0  0
  149.5021  138.2637  153.5739 H   0  0  0  0  0  0  0  0  0  0  0  0
  151.9187  137.0130  153.7801 H   0  0  0  0  0  0  0  0  0  0  0  0
  153.4487  138.8442  155.1900 H   0  0  0  0  0  0  0  0  0  0  0  0
  150.0443  143.1792  156.2084 H   0  0  0  0  0  0  0  0  0  0  0  0
  152.4331  143.7239  157.0261 H   0  0  0  0  0  0  0  0  0  0  0  0
  152.7836  142.3059  159.5576 H   0  0  0  0  0  0  0  0  0  0  0  0
  153.8950  143.4183  158.7940 H   0  0  0  0  0  0  0  0  0  0  0  0
  152.6027  143.9878  161.1891 H   0  0  0  0  0  0  0  0  0  0  0  0
  153.1623  145.2189  160.0625 H   0  0  0  0  0  0  0  0  0  0  0  0
  150.3655  144.0741  160.2889 H   0  0  0  0  0  0  0  0  0  0  0  0
  150.8274  145.7741  160.2214 H   0  0  0  0  0  0  0  0  0  0  0  0
  151.4216  145.6017  157.8854 H   0  0  0  0  0  0  0  0  0  0  0  0
  149.9727  144.6177  157.9649 H   0  0  0  0  0  0  0  0  0  0  0  0
  1  2  1  0  0  0  0
  1 17  1  0  0  0  0
  1 18  1  0  0  0  0
  1 19  1  0  0  0  0
  2  3  1  0  0  0  0
  2  9  1  0  0  0  0
  2 20  1  0  0  0  0
  3  4  1  0  0  0  0
  3 21  1  0  0  0  0
  3 22  1  0  0  0  0
  4  8  1  0  0  0  0
  4  5  1  0  0  0  0
  5  6  2  0  0  0  0
  5 23  1  0  0  0  0
  6  7  1  0  0  0  0
  6 24  1  0  0  0  0
  7  8  2  0  0  0  0
  7 25  1  0  0  0  0
  9 10  1  0  0  0  0
  9 26  1  0  0  0  0
 10 11  2  0  0  0  0
 10 12  1  0  0  0  0
 12 16  1  0  0  0  0
 12 13  1  0  0  0  0
 12 27  1  0  0  0  0
 13 14  1  0  0  0  0
 13 28  1  0  0  0  0
 13 29  1  0  0  0  0
 14 15  1  0  0  0  0
 14 30  1  0  0  0  0
 14 31  1  0  0  0  0
 15 16  1  0  0  0  0
 15 32  1  0  0  0  0
 15 33  1  0  0  0  0
 16 34  1  0  0  0  0
 16 35  1  0  0  0  0
M  END
> <s_m_source_file>
AV-unprocessed.smi

> <i_m_source_file_index>
1031

> <i_lp_mmshare_version>
43012

> <i_f3d_flags>
0

> <s_epik_input>
bjFbY0hdW2NIXVtjSF1uMVtDSDJdW0NAQEhdKFtDSDNdKVtOSF1DKD1PKVtDSF0yW0NIMl1bQ0gyXVtDSDJdW0NIMl0y

> <s_epik_cmdline>
J2VwaWtfcHl0aG9uJywgJy1waCcsICc3LjAnLCAnLXRuJywgJzgnLCAnLW1hJywgJzIwMCcsICctbWV0YWxfYmluZGluZycsICctaW1hZScsICc8aW5maWxlLm1hZT4nLCAnLW9tYWUnLCAnPG91dGZpbGUubWFlPic=

> <r_lp_tautomer_probability>
1

> <r_epik_Ionization_Penalty>
0.000326659

> <r_epik_Ionization_Penalty_Charging>
0

> <r_epik_Ionization_Penalty_Neutral>
0.000326659

> <r_epik_State_Penalty>
-0

> <r_epik_Charging_Adjusted_Penalty>
0

> <i_epik_Tot_Q>
0

> <i_epik_Tot_abs_Q>
0

> <r_epik_Metal_State_Penalty>
-0

> <b_epik_Metal_Only>
0

> <s_lp_Force_Field>
OPLS_2005

> <r_lp_Energy>
19.4397

> <b_lp_Chiralities_Consistent>
1

> <s_lp_Variant>
AV-unprocessed.smi:1031-2

> <Gold.Version>
5.8.1

> <Gold.Id.Protein>
6NUR|6NUR_protein|mol2

> <Gold.PLP.Fitness>
43.0995

> <Gold.PLP.PLP>
-39.1026

> <Gold.PLP.part.hbond>
-2.0000

> <Gold.PLP.part.metal>
0.0000

> <Gold.PLP.part.buried>
-4.6680

> <Gold.PLP.part.nonpolar>
-32.6088

> <Gold.PLP.part.repulsive>
0.0633

> <Gold.PLP.ligand.clash>
0.0000

> <Gold.PLP.ligand.torsion>
0.3831

> <Gold.PLP.Chemscore.Hbond>
0.9440

> <Gold.PLP.Chemscore.CHOScore>
0.6373

> <Gold.PLP.Chemscore.Metal>
0.0000

> <Gold.Chemscore.Hbonds>
donor molecule, donor type, donor heavy atom, donor atom, acceptor molecule, acceptor atom, score
      L1  H     9    26       P1  8028  0.96
      L1  C     5    23       P1  7948  0.62

> <Gold.PLP.Chemscore.Internal.Correction>
0.0191

> <Gold.Rescore>
     Score         DG    S(hbond)    S(metal)    S(lipo)     H(rot)  DE(clash)    DE(int)     intcor
     15.74     -16.25       0.93        0.00      98.59       1.51       0.16       0.36       ----

> <Gold.Chemscore.Fitness>
15.7368

> <Gold.Chemscore.DG>
-16.2489

> <Gold.Chemscore.ZeroCoef>
-5.4800

> <Gold.Chemscore.Hbond>
0.9314

> <Gold.Chemscore.Metal>
0.0000

> <Gold.Chemscore.Lipo>
98.5929

> <Gold.Chemscore.Internal_Hbond>
0.0000

> <Gold.Chemscore.DEClash>
0.1555

> <Gold.Chemscore.DEInternal>
0.3567

> <Gold.Chemscore.Rot>
1.5146

> <Gold.Chemscore.Internal.Correction>
   9.000000E+99

> <Gold.Chemscore.Hbonds>
donor molecule, donor type, donor heavy atom, donor atom, acceptor molecule, acceptor atom, score
      L1  H     9    26       P1  8028  0.89

> <Gold.Chemscore.Hbond.Weighted>
-3.1109

> <Gold.Chemscore.Metal.Weighted>
-0.0000

> <Gold.Chemscore.Lipo.Weighted>
-11.5354

> <Gold.Chemscore.Internal_Hbond.Weighted>
0.0000

> <Gold.Chemscore.DEClash.Weighted>
0.1555

> <Gold.Chemscore.DEInternal.Weighted>
0.3567

> <Gold.Chemscore.Rot.Weighted>
3.8773

> <Gold.Chemscore.Internal.Correction.Weighted>
   9.000000E+99

> <Gold.Protein.RotatedTorsions>
[ 6907 6896 6895 6894 ] final -144.61 input  -60.11 | X-H torsion
[ 7974 7965 7964 7962 ] final  132.48 input  175.53 | X-H torsion
[ 8008 7997 7996 7995 ] final  130.87 input   59.86 | X-H torsion
[ 10167 10162 10161 10158 ] final  -28.07 input  -65.29 | X-H torsion
[ 10718 10713 10712 10709 ] final   52.53 input   66.30 | X-H torsion
[ 10763 10752 10751 10750 ] final -107.62 input  -60.55 | X-H torsion
[ 11005 11000 10999 10996 ] final -143.32 input  -57.11 | X-H torsion

> <Gold.Protein.ActiveResidues>
 VAL166  LYS551  ARG553  GLY616  TRP617  ASP618  TYR619  PRO620  LYS621  CYS622 
 ASP623  PHE694  ASN695  SER759  ASP760  ASP761  ALA762  ILE779  LEU786  VAL792 
 PHE793  MET794  SER795  GLU796  ALA797  LYS798  CYS799  TRP800  GLU811  SER814 

> <Gold.Protein.RotatedAtoms>
  151.1164  133.5136  159.2603 H   0  0  0  0  0  0  0  0  0  0  0  0  # atno 6907 bound_to 6896
  151.1910  135.0402  159.8842 H   0  0  0  0  0  0  0  0  0  0  0  0  # atno 6908 bound_to 6896
  152.5453  134.1004  159.8369 H   0  0  0  0  0  0  0  0  0  0  0  0  # atno 6909 bound_to 6896
  144.9964  139.4355  143.5314 H   0  0  0  0  0  0  0  0  0  0  0  0  # atno 7974 bound_to 7965
  156.2961  140.2585  156.2832 H   0  0  0  0  0  0  0  0  0  0  0  0  # atno 8008 bound_to 7997
  154.9582  140.0393  157.2195 H   0  0  0  0  0  0  0  0  0  0  0  0  # atno 8009 bound_to 7997
  154.7972  140.2822  155.5952 H   0  0  0  0  0  0  0  0  0  0  0  0  # atno 8010 bound_to 7997
  140.7273  143.4041  151.1216 H   0  0  0  0  0  0  0  0  0  0  0  0  # atno 10167 bound_to 10162
  157.5084  130.8484  149.8403 H   0  0  0  0  0  0  0  0  0  0  0  0  # atno 10718 bound_to 10713
  154.8086  135.4668  154.0458 H   0  0  0  0  0  0  0  0  0  0  0  0  # atno 10763 bound_to 10752
  153.1907  135.6854  153.8364 H   0  0  0  0  0  0  0  0  0  0  0  0  # atno 10764 bound_to 10752
  153.7882  135.3247  155.3352 H   0  0  0  0  0  0  0  0  0  0  0  0  # atno 10765 bound_to 10752
  140.8137  134.2714  157.4930 H   0  0  0  0  0  0  0  0  0  0  0  0  # atno 11005 bound_to 11000
  146.3442  139.9326  142.8751 LP  0  0  0  0  0  0  0  0  0  0  0  0  # atno 17320 bound_to 7965
  145.2214  140.9936  143.4043 LP  0  0  0  0  0  0  0  0  0  0  0  0  # atno 17321 bound_to 7965
  139.7665  143.8558  152.3111 LP  0  0  0  0  0  0  0  0  0  0  0  0  # atno 17342 bound_to 10162
  139.8462  144.7186  150.9270 LP  0  0  0  0  0  0  0  0  0  0  0  0  # atno 17343 bound_to 10162
  156.0273  130.3775  150.1787 LP  0  0  0  0  0  0  0  0  0  0  0  0  # atno 17370 bound_to 10713
  156.9977  130.9913  151.3399 LP  0  0  0  0  0  0  0  0  0  0  0  0  # atno 17371 bound_to 10713
  139.8712  134.9497  156.4034 LP  0  0  0  0  0  0  0  0  0  0  0  0  # atno 17394 bound_to 11000
  140.9171  133.7671  155.9862 LP  0  0  0  0  0  0  0  0  0  0  0  0  # atno 17395 bound_to 11000

$$$$
