AV-unprocessed.smi:2310|AV-procd|sdf|9255|dock7
  -GOLD-   2272012473D 1   1.00000     0.00000
 Structure written by MMmdl.
 45 46  0  0  0  0  0  0  0  0  1 V2000
  143.2198  136.4925  152.6323 C   0  0  0  0  0  0  0  0  0  0  0  0
  144.6258  136.9864  153.0033 C   0  0  0  0  0  0  0  0  0  0  0  0
  145.5215  137.2748  151.7845 C   0  0  2  0  0  0  0  0  0  0  0  0
  145.6254  136.0486  150.8639 C   0  0  0  0  0  0  0  0  0  0  0  0
  145.9251  134.8007  151.5846 C   0  0  0  0  0  0  0  0  0  0  0  0
  146.1609  133.8202  152.1514 N   0  0  0  0  0  0  0  0  0  0  0  0
  146.8564  137.6752  152.2295 N   0  0  0  0  0  0  0  0  0  0  0  0
  147.1304  138.6118  153.1492 C   0  0  0  0  0  0  0  0  0  0  0  0
  146.2688  139.2687  153.7326 O   0  0  0  0  0  0  0  0  0  0  0  0
  148.4547  138.7118  153.3536 N   0  0  0  0  0  0  0  0  0  0  0  0
  149.1475  139.5518  154.2695 C   0  0  0  0  0  0  0  0  0  0  0  0
  148.7261  140.8627  154.5941 C   0  0  0  0  0  0  0  0  0  0  0  0
  149.4895  141.6257  155.4975 C   0  0  0  0  0  0  0  0  0  0  0  0
  150.6669  141.0677  156.0474 C   0  0  0  0  0  0  0  0  0  0  0  0
  151.4594  141.7933  156.9592 N   0  0  0  0  0  0  0  0  0  0  0  0
  152.1527  141.1429  158.0627 C   0  0  0  0  0  0  0  0  0  0  0  0
  152.3086  142.2180  159.1449 C   0  0  0  0  0  0  0  0  0  0  0  0
  152.1661  143.5375  158.3862 C   0  0  0  0  0  0  0  0  0  0  0  0
  151.1873  143.1891  157.2663 C   0  0  0  0  0  0  0  0  0  0  0  0
  151.0745  139.8166  155.7300 N   0  0  0  0  0  0  0  0  0  0  0  0
  150.3424  139.0832  154.8640 C   0  0  0  0  0  0  0  0  0  0  0  0
  150.8837  137.6956  154.5689 C   0  0  0  0  0  0  0  0  0  0  0  0
  142.6470  136.2486  153.5270 H   0  0  0  0  0  0  0  0  0  0  0  0
  143.2697  135.5949  152.0151 H   0  0  0  0  0  0  0  0  0  0  0  0
  142.6611  137.2485  152.0801 H   0  0  0  0  0  0  0  0  0  0  0  0
  144.5431  137.8816  153.6212 H   0  0  0  0  0  0  0  0  0  0  0  0
  145.1059  136.2318  153.6273 H   0  0  0  0  0  0  0  0  0  0  0  0
  145.0525  138.0788  151.2143 H   0  0  0  0  0  0  0  0  0  0  0  0
  144.6993  135.9043  150.3069 H   0  0  0  0  0  0  0  0  0  0  0  0
  146.4198  136.1936  150.1315 H   0  0  0  0  0  0  0  0  0  0  0  0
  147.6348  137.1883  151.8098 H   0  0  0  0  0  0  0  0  0  0  0  0
  149.0305  138.0481  152.8571 H   0  0  0  0  0  0  0  0  0  0  0  0
  147.8413  141.3023  154.1603 H   0  0  0  0  0  0  0  0  0  0  0  0
  149.1609  142.6214  155.7548 H   0  0  0  0  0  0  0  0  0  0  0  0
  151.6041  140.2822  158.4467 H   0  0  0  0  0  0  0  0  0  0  0  0
  153.1272  140.8013  157.7126 H   0  0  0  0  0  0  0  0  0  0  0  0
  151.4977  142.1271  159.8689 H   0  0  0  0  0  0  0  0  0  0  0  0
  153.2510  142.1389  159.6871 H   0  0  0  0  0  0  0  0  0  0  0  0
  151.8171  144.3575  159.0145 H   0  0  0  0  0  0  0  0  0  0  0  0
  153.1290  143.8236  157.9610 H   0  0  0  0  0  0  0  0  0  0  0  0
  151.3282  143.8295  156.3947 H   0  0  0  0  0  0  0  0  0  0  0  0
  150.1569  143.2923  157.6094 H   0  0  0  0  0  0  0  0  0  0  0  0
  150.1527  136.9365  154.8487 H   0  0  0  0  0  0  0  0  0  0  0  0
  151.8030  137.4980  155.1218 H   0  0  0  0  0  0  0  0  0  0  0  0
  151.1018  137.5909  153.5058 H   0  0  0  0  0  0  0  0  0  0  0  0
  1  2  1  0  0  0  0
  1 23  1  0  0  0  0
  1 24  1  0  0  0  0
  1 25  1  0  0  0  0
  2  3  1  0  0  0  0
  2 26  1  0  0  0  0
  2 27  1  0  0  0  0
  3  4  1  0  0  0  0
  3  7  1  0  0  0  0
  3 28  1  0  0  0  0
  4  5  1  0  0  0  0
  4 29  1  0  0  0  0
  4 30  1  0  0  0  0
  5  6  3  0  0  0  0
  7  8  1  0  0  0  0
  7 31  1  0  0  0  0
  8  9  2  0  0  0  0
  8 10  1  0  0  0  0
 10 11  1  0  0  0  0
 10 32  1  0  0  0  0
 11 21  1  0  0  0  0
 11 12  2  0  0  0  0
 12 13  1  0  0  0  0
 12 33  1  0  0  0  0
 13 14  2  0  0  0  0
 13 34  1  0  0  0  0
 14 15  1  0  0  0  0
 14 20  1  0  0  0  0
 15 19  1  0  0  0  0
 15 16  1  0  0  0  0
 16 17  1  0  0  0  0
 16 35  1  0  0  0  0
 16 36  1  0  0  0  0
 17 18  1  0  0  0  0
 17 37  1  0  0  0  0
 17 38  1  0  0  0  0
 18 19  1  0  0  0  0
 18 39  1  0  0  0  0
 18 40  1  0  0  0  0
 19 41  1  0  0  0  0
 19 42  1  0  0  0  0
 20 21  2  0  0  0  0
 21 22  1  0  0  0  0
 22 43  1  0  0  0  0
 22 44  1  0  0  0  0
 22 45  1  0  0  0  0
M  END
> <s_m_source_file>
AV-unprocessed.smi

> <i_m_source_file_index>
2310

> <i_lp_mmshare_version>
43012

> <i_f3d_flags>
0

> <s_epik_input>
TiNDW0NIMl1bQ0BASF0oW0NIMl1bQ0gzXSlbTkhdQyg9TylbTkhdYzFbY0hdW2NIXWMobmMxW0NIM10pTjJbQ0gyXVtDSDJdW0NIMl1bQ0gyXTI=

> <s_epik_cmdline>
J2VwaWtfcHl0aG9uJywgJy1waCcsICc3LjAnLCAnLXRuJywgJzgnLCAnLW1hJywgJzIwMCcsICctbWV0YWxfYmluZGluZycsICctaW1hZScsICc8aW5maWxlLm1hZT4nLCAnLW9tYWUnLCAnPG91dGZpbGUubWFlPic=

> <r_lp_tautomer_probability>
1

> <r_epik_Ionization_Penalty>
0.281354

> <r_epik_Ionization_Penalty_Charging>
0

> <r_epik_Ionization_Penalty_Neutral>
0.281354

> <r_epik_State_Penalty>
0.273364

> <r_epik_Charging_Adjusted_Penalty>
0.273364

> <i_epik_Tot_Q>
0

> <i_epik_Tot_abs_Q>
0

> <r_epik_Metal_State_Penalty>
0.18752

> <b_epik_Metal_Only>
0

> <s_lp_Force_Field>
OPLS_2005

> <r_lp_Energy>
30.6963

> <b_lp_Chiralities_Consistent>
1

> <s_lp_Variant>
AV-unprocessed.smi:2310-1

> <Gold.Version>
5.8.1

> <Gold.Id.Protein>
6NUR|6NUR_protein|mol2

> <Gold.PLP.Fitness>
45.2956

> <Gold.PLP.PLP>
-40.7834

> <Gold.PLP.part.hbond>
-3.0000

> <Gold.PLP.part.metal>
0.0000

> <Gold.PLP.part.buried>
-3.0318

> <Gold.PLP.part.nonpolar>
-36.4610

> <Gold.PLP.part.repulsive>
0.4300

> <Gold.PLP.ligand.clash>
0.0000

> <Gold.PLP.ligand.torsion>
0.6681

> <Gold.PLP.Chemscore.Hbond>
1.8800

> <Gold.PLP.Chemscore.CHOScore>
0.0000

> <Gold.PLP.Chemscore.Metal>
0.0000

> <Gold.Chemscore.Hbonds>
donor molecule, donor type, donor heavy atom, donor atom, acceptor molecule, acceptor atom, score
      L1  H     7    31       P1  7948  1.00
      L1  H    10    32       P1  7948  0.86

> <Gold.PLP.Chemscore.Internal.Correction>
0.2085

> <Gold.Rescore>
     Score         DG    S(hbond)    S(metal)    S(lipo)     H(rot)  DE(clash)    DE(int)     intcor
     17.39     -19.00       1.85        0.00      94.38       1.45       0.36       1.25       ----

> <Gold.Chemscore.Fitness>
17.3884

> <Gold.Chemscore.DG>
-18.9977

> <Gold.Chemscore.ZeroCoef>
-5.4800

> <Gold.Chemscore.Hbond>
1.8519

> <Gold.Chemscore.Metal>
0.0000

> <Gold.Chemscore.Lipo>
94.3774

> <Gold.Chemscore.Internal_Hbond>
0.0000

> <Gold.Chemscore.DEClash>
0.3554

> <Gold.Chemscore.DEInternal>
1.2538

> <Gold.Chemscore.Rot>
1.4492

> <Gold.Chemscore.Internal.Correction>
   9.000000E+99

> <Gold.Chemscore.Hbonds>
donor molecule, donor type, donor heavy atom, donor atom, acceptor molecule, acceptor atom, score
      L1  H     7    31       P1  7948  0.97
      L1  H    10    32       P1  7948  0.79

> <Gold.Chemscore.Hbond.Weighted>
-6.1855

> <Gold.Chemscore.Metal.Weighted>
-0.0000

> <Gold.Chemscore.Lipo.Weighted>
-11.0422

> <Gold.Chemscore.Internal_Hbond.Weighted>
0.0000

> <Gold.Chemscore.DEClash.Weighted>
0.3554

> <Gold.Chemscore.DEInternal.Weighted>
1.2538

> <Gold.Chemscore.Rot.Weighted>
3.7100

> <Gold.Chemscore.Internal.Correction.Weighted>
   9.000000E+99

> <Gold.Protein.RotatedTorsions>
[ 6907 6896 6895 6894 ] final  158.23 input  -60.11 | X-H torsion
[ 7974 7965 7964 7962 ] final   36.83 input  175.53 | X-H torsion
[ 8008 7997 7996 7995 ] final -153.84 input   59.86 | X-H torsion
[ 10167 10162 10161 10158 ] final  112.89 input  -65.29 | X-H torsion
[ 10718 10713 10712 10709 ] final   89.51 input   66.30 | X-H torsion
[ 10763 10752 10751 10750 ] final  -43.44 input  -60.55 | X-H torsion
[ 11005 11000 10999 10996 ] final   31.88 input  -57.11 | X-H torsion

> <Gold.Protein.ActiveResidues>
 VAL166  LYS551  ARG553  GLY616  TRP617  ASP618  TYR619  PRO620  LYS621  CYS622 
 ASP623  PHE694  ASN695  SER759  ASP760  ASP761  ALA762  ILE779  LEU786  VAL792 
 PHE793  MET794  SER795  GLU796  ALA797  LYS798  CYS799  TRP800  GLU811  SER814 

> <Gold.Protein.RotatedAtoms>
  152.0034  133.3834  159.4190 H   0  0  0  0  0  0  0  0  0  0  0  0  # atno 6907 bound_to 6896
  150.6907  134.3809  159.5043 H   0  0  0  0  0  0  0  0  0  0  0  0  # atno 6908 bound_to 6896
  152.1559  134.8951  160.0595 H   0  0  0  0  0  0  0  0  0  0  0  0  # atno 6909 bound_to 6896
  146.1182  139.5969  142.9307 H   0  0  0  0  0  0  0  0  0  0  0  0  # atno 7974 bound_to 7965
  155.6770  140.0740  157.2499 H   0  0  0  0  0  0  0  0  0  0  0  0  # atno 8008 bound_to 7997
  154.4112  140.1688  156.1993 H   0  0  0  0  0  0  0  0  0  0  0  0  # atno 8009 bound_to 7997
  155.9567  140.3373  155.6458 H   0  0  0  0  0  0  0  0  0  0  0  0  # atno 8010 bound_to 7997
  139.6502  144.7128  151.2063 H   0  0  0  0  0  0  0  0  0  0  0  0  # atno 10167 bound_to 10162
  157.6955  131.0336  150.3437 H   0  0  0  0  0  0  0  0  0  0  0  0  # atno 10718 bound_to 10713
  153.9957  135.6700  153.4756 H   0  0  0  0  0  0  0  0  0  0  0  0  # atno 10763 bound_to 10752
  153.0685  135.4987  154.8249 H   0  0  0  0  0  0  0  0  0  0  0  0  # atno 10764 bound_to 10752
  154.7083  135.3092  154.9199 H   0  0  0  0  0  0  0  0  0  0  0  0  # atno 10765 bound_to 10752
  140.2792  134.2992  155.7805 H   0  0  0  0  0  0  0  0  0  0  0  0  # atno 11005 bound_to 11000
  145.5521  141.0412  143.2272 LP  0  0  0  0  0  0  0  0  0  0  0  0  # atno 17320 bound_to 7965
  144.7573  139.7043  143.7249 LP  0  0  0  0  0  0  0  0  0  0  0  0  # atno 17321 bound_to 7965
  140.7534  143.6163  150.8556 LP  0  0  0  0  0  0  0  0  0  0  0  0  # atno 17342 bound_to 10162
  139.9810  143.5951  152.2943 LP  0  0  0  0  0  0  0  0  0  0  0  0  # atno 17343 bound_to 10162
  156.3895  130.3895  149.7041 LP  0  0  0  0  0  0  0  0  0  0  0  0  # atno 17370 bound_to 10713
  156.4395  130.7854  151.2875 LP  0  0  0  0  0  0  0  0  0  0  0  0  # atno 17371 bound_to 10713
  141.2165  133.7515  156.9455 LP  0  0  0  0  0  0  0  0  0  0  0  0  # atno 17394 bound_to 11000
  140.1299  134.9362  157.2322 LP  0  0  0  0  0  0  0  0  0  0  0  0  # atno 17395 bound_to 11000

$$$$
