AV-unprocessed.smi:286|AV-procd|sdf|2173|dock10
  -GOLD-   2262021533D 1   1.00000     0.00000
 Structure written by MMmdl.
 46 48  0  0  0  0  0  0  0  0  1 V2000
  152.3759  139.4832  156.0710 O   0  0  0  0  0  0  0  0  0  0  0  0
  151.2430  139.5021  155.5865 C   0  0  0  0  0  0  0  0  0  0  0  0
  150.7034  138.4196  154.7708 C   0  0  0  0  0  0  0  0  0  0  0  0
  151.4549  137.3318  154.5302 F   0  0  0  0  0  0  0  0  0  0  0  0
  149.4596  138.4904  154.2485 C   0  0  0  0  0  0  0  0  0  0  0  0
  148.6186  139.5742  154.4442 N   0  0  0  0  0  0  0  0  0  0  0  0
  147.2323  139.6380  153.8378 C   0  0  2  0  0  0  0  0  0  0  0  0
  146.6524  138.2219  153.6598 C   0  0  0  0  0  0  0  0  0  0  0  0
  146.2173  138.2170  152.2076 C   0  0  0  0  0  0  0  0  0  0  0  0
  147.1980  139.1966  151.5810 C   0  0  0  0  0  0  0  0  0  0  0  0
  147.2949  140.2175  152.5656 O   0  0  0  0  0  0  0  0  0  0  0  0
  149.0624  140.6723  155.2127 C   0  0  0  0  0  0  0  0  0  0  0  0
  148.3413  141.6597  155.3772 O   0  0  0  0  0  0  0  0  0  0  0  0
  150.3593  140.5932  155.7729 N   0  0  0  0  0  0  0  0  0  0  0  0
  150.8297  141.7285  156.5496 C   0  0  0  0  0  0  0  0  0  0  0  0
  150.9490  141.4283  158.0619 C   0  0  2  0  0  0  0  0  0  0  0  0
  149.7012  140.9627  158.5395 O   0  0  0  0  0  0  0  0  0  0  0  0
  151.3829  142.6661  158.8850 C   0  0  0  0  0  0  0  0  0  0  0  0
  150.1949  143.6050  159.1886 C   0  0  0  0  0  0  0  0  0  0  0  0
  150.6188  144.7925  160.0678 C   0  0  0  0  0  0  0  0  0  0  0  0
  151.7774  145.5725  159.4283 C   0  0  0  0  0  0  0  0  0  0  0  0
  152.9686  144.6484  159.1340 C   0  0  0  0  0  0  0  0  0  0  0  0
  152.5506  143.4600  158.2525 C   0  0  0  0  0  0  0  0  0  0  0  0
  149.1283  137.6546  153.6519 H   0  0  0  0  0  0  0  0  0  0  0  0
  146.6490  140.2808  154.4996 H   0  0  0  0  0  0  0  0  0  0  0  0
  147.4269  137.4719  153.8276 H   0  0  0  0  0  0  0  0  0  0  0  0
  145.8315  138.0452  154.3553 H   0  0  0  0  0  0  0  0  0  0  0  0
  146.2540  137.2266  151.7532 H   0  0  0  0  0  0  0  0  0  0  0  0
  145.1994  138.5985  152.1188 H   0  0  0  0  0  0  0  0  0  0  0  0
  148.1701  138.7264  151.4267 H   0  0  0  0  0  0  0  0  0  0  0  0
  146.8498  139.5915  150.6264 H   0  0  0  0  0  0  0  0  0  0  0  0
  151.7962  142.0063  156.1254 H   0  0  0  0  0  0  0  0  0  0  0  0
  150.1919  142.5890  156.3410 H   0  0  0  0  0  0  0  0  0  0  0  0
  151.6858  140.6401  158.2216 H   0  0  0  0  0  0  0  0  0  0  0  0
  149.0673  141.6579  158.4510 H   0  0  0  0  0  0  0  0  0  0  0  0
  151.7344  142.2905  159.8474 H   0  0  0  0  0  0  0  0  0  0  0  0
  149.7698  143.9828  158.2582 H   0  0  0  0  0  0  0  0  0  0  0  0
  149.3991  143.0510  159.6875 H   0  0  0  0  0  0  0  0  0  0  0  0
  149.7692  145.4562  160.2291 H   0  0  0  0  0  0  0  0  0  0  0  0
  150.9191  144.4304  161.0517 H   0  0  0  0  0  0  0  0  0  0  0  0
  151.4379  146.0386  158.5023 H   0  0  0  0  0  0  0  0  0  0  0  0
  152.0890  146.3835  160.0871 H   0  0  0  0  0  0  0  0  0  0  0  0
  153.7640  145.2117  158.6454 H   0  0  0  0  0  0  0  0  0  0  0  0
  153.3843  144.2790  160.0722 H   0  0  0  0  0  0  0  0  0  0  0  0
  153.4132  142.8118  158.0993 H   0  0  0  0  0  0  0  0  0  0  0  0
  152.2638  143.8298  157.2675 H   0  0  0  0  0  0  0  0  0  0  0  0
  1  2  2  0  0  0  0
  2 14  1  0  0  0  0
  2  3  1  0  0  0  0
  3  4  1  0  0  0  0
  3  5  2  0  0  0  0
  5  6  1  0  0  0  0
  5 24  1  0  0  0  0
  6  7  1  0  0  0  0
  6 12  1  0  0  0  0
  7 11  1  0  0  0  0
  7  8  1  0  0  0  0
  7 25  1  0  0  0  0
  8  9  1  0  0  0  0
  8 26  1  0  0  0  0
  8 27  1  0  0  0  0
  9 10  1  0  0  0  0
  9 28  1  0  0  0  0
  9 29  1  0  0  0  0
 10 11  1  0  0  0  0
 10 30  1  0  0  0  0
 10 31  1  0  0  0  0
 12 13  2  0  0  0  0
 12 14  1  0  0  0  0
 14 15  1  0  0  0  0
 15 16  1  0  0  0  0
 15 32  1  0  0  0  0
 15 33  1  0  0  0  0
 16 17  1  0  0  0  0
 16 18  1  0  0  0  0
 16 34  1  0  0  0  0
 17 35  1  0  0  0  0
 18 23  1  0  0  0  0
 18 19  1  0  0  0  0
 18 36  1  0  0  0  0
 19 20  1  0  0  0  0
 19 37  1  0  0  0  0
 19 38  1  0  0  0  0
 20 21  1  0  0  0  0
 20 39  1  0  0  0  0
 20 40  1  0  0  0  0
 21 22  1  0  0  0  0
 21 41  1  0  0  0  0
 21 42  1  0  0  0  0
 22 23  1  0  0  0  0
 22 43  1  0  0  0  0
 22 44  1  0  0  0  0
 23 45  1  0  0  0  0
 23 46  1  0  0  0  0
M  END
> <s_m_source_file>
AV-unprocessed.smi

> <i_m_source_file_index>
286

> <i_lp_mmshare_version>
43012

> <i_f3d_flags>
0

> <s_epik_input>
TzFbQ0gyXVtDSDJdW0NIMl1bQ0BIXTFuKFtjSF1jKEYpYzI9TyljKD1PKW4yW0NIMl1bQ0BIXShbT0hdKVtDSF0zW0NIMl1bQ0gyXVtDSDJdW0NIMl1bQ0gyXTM=

> <s_epik_cmdline>
J2VwaWtfcHl0aG9uJywgJy1waCcsICc3LjAnLCAnLXRuJywgJzgnLCAnLW1hJywgJzIwMCcsICctbWV0YWxfYmluZGluZycsICctaW1hZScsICc8aW5maWxlLm1hZT4nLCAnLW9tYWUnLCAnPG91dGZpbGUubWFlPic=

> <r_lp_tautomer_probability>
1

> <r_epik_Ionization_Penalty>
3.15564e-07

> <r_epik_Ionization_Penalty_Charging>
2.06416e-08

> <r_epik_Ionization_Penalty_Neutral>
2.94923e-07

> <r_epik_State_Penalty>
-0

> <r_epik_Charging_Adjusted_Penalty>
2.06416e-08

> <i_epik_Tot_Q>
0

> <i_epik_Tot_abs_Q>
0

> <r_epik_Metal_State_Penalty>
-0

> <b_epik_Metal_Only>
0

> <s_epik_Chemistry_Notes>
This compound contains an acetal/aminal-like group ( X-CH(R)-Y where X, Y are N, S, or O) that may be acid/base labile, releasing an aldehyde.

> <s_lp_Force_Field>
OPLS_2005

> <r_lp_Energy>
41.5856

> <b_lp_Chiralities_Consistent>
1

> <s_lp_Variant>
AV-unprocessed.smi:286-1

> <Gold.Version>
5.8.1

> <Gold.Id.Protein>
6NUR|6NUR_protein|mol2

> <Gold.PLP.Fitness>
46.8900

> <Gold.PLP.PLP>
-43.1632

> <Gold.PLP.part.hbond>
-1.0084

> <Gold.PLP.part.metal>
0.0000

> <Gold.PLP.part.buried>
0.6443

> <Gold.PLP.part.nonpolar>
-44.4592

> <Gold.PLP.part.repulsive>
1.4208

> <Gold.PLP.ligand.clash>
0.0000

> <Gold.PLP.ligand.torsion>
1.1545

> <Gold.PLP.Chemscore.Hbond>
1.0000

> <Gold.PLP.Chemscore.CHOScore>
1.0000

> <Gold.PLP.Chemscore.Metal>
0.0000

> <Gold.Chemscore.Hbonds>
donor molecule, donor type, donor heavy atom, donor atom, acceptor molecule, acceptor atom, score
      P1  H  7997  8009       L1     1  0.86
      L1  C     5    24       P1  7948  1.00

> <Gold.PLP.Chemscore.Internal.Correction>
0.0359

> <Gold.Rescore>
     Score         DG    S(hbond)    S(metal)    S(lipo)     H(rot)  DE(clash)    DE(int)     intcor
     13.65     -16.06       0.98        0.00     112.11       2.28       1.21       1.21       ----

> <Gold.Chemscore.Fitness>
13.6451

> <Gold.Chemscore.DG>
-16.0608

> <Gold.Chemscore.ZeroCoef>
-5.4800

> <Gold.Chemscore.Hbond>
0.9849

> <Gold.Chemscore.Metal>
0.0000

> <Gold.Chemscore.Lipo>
112.1077

> <Gold.Chemscore.Internal_Hbond>
0.0000

> <Gold.Chemscore.DEClash>
1.2070

> <Gold.Chemscore.DEInternal>
1.2088

> <Gold.Chemscore.Rot>
2.2756

> <Gold.Chemscore.Internal.Correction>
   9.000000E+99

> <Gold.Chemscore.Hbonds>
donor molecule, donor type, donor heavy atom, donor atom, acceptor molecule, acceptor atom, score
      P1  H  7997  8009       L1     1  0.84

> <Gold.Chemscore.Hbond.Weighted>
-3.2896

> <Gold.Chemscore.Metal.Weighted>
-0.0000

> <Gold.Chemscore.Lipo.Weighted>
-13.1166

> <Gold.Chemscore.Internal_Hbond.Weighted>
0.0000

> <Gold.Chemscore.DEClash.Weighted>
1.2070

> <Gold.Chemscore.DEInternal.Weighted>
1.2088

> <Gold.Chemscore.Rot.Weighted>
5.8254

> <Gold.Chemscore.Internal.Correction.Weighted>
   9.000000E+99

> <Gold.Protein.RotatedTorsions>
[ 6907 6896 6895 6894 ] final  -18.57 input  -60.11 | X-H torsion
[ 7974 7965 7964 7962 ] final -150.31 input  175.53 | X-H torsion
[ 8008 7997 7996 7995 ] final -152.25 input   59.86 | X-H torsion
[ 10167 10162 10161 10158 ] final   46.08 input  -65.29 | X-H torsion
[ 10718 10713 10712 10709 ] final -139.12 input   66.30 | X-H torsion
[ 10763 10752 10751 10750 ] final  146.53 input  -60.55 | X-H torsion
[ 11005 11000 10999 10996 ] final   -0.09 input  -57.11 | X-H torsion

> <Gold.Protein.ActiveResidues>
 VAL166  LYS551  ARG553  GLY616  TRP617  ASP618  TYR619  PRO620  LYS621  CYS622 
 ASP623  PHE694  ASN695  SER759  ASP760  ASP761  ALA762  ILE779  LEU786  VAL792 
 PHE793  MET794  SER795  GLU796  ALA797  LYS798  CYS799  TRP800  GLU811  SER814 

> <Gold.Protein.RotatedAtoms>
  151.2761  135.0699  159.9151 H   0  0  0  0  0  0  0  0  0  0  0  0  # atno 6907 bound_to 6896
  152.5342  134.0079  159.7935 H   0  0  0  0  0  0  0  0  0  0  0  0  # atno 6908 bound_to 6896
  151.0326  133.5727  159.2690 H   0  0  0  0  0  0  0  0  0  0  0  0  # atno 6909 bound_to 6896
  144.7915  140.4949  143.5769 H   0  0  0  0  0  0  0  0  0  0  0  0  # atno 7974 bound_to 7965
  155.6522  140.0713  157.2583 H   0  0  0  0  0  0  0  0  0  0  0  0  # atno 8008 bound_to 7997
  154.4160  140.1731  156.1737 H   0  0  0  0  0  0  0  0  0  0  0  0  # atno 8009 bound_to 7997
  155.9767  140.3357  155.6628 H   0  0  0  0  0  0  0  0  0  0  0  0  # atno 8010 bound_to 7997
  140.3176  144.2745  150.6188 H   0  0  0  0  0  0  0  0  0  0  0  0  # atno 10167 bound_to 10162
  156.3071  130.7461  151.1528 H   0  0  0  0  0  0  0  0  0  0  0  0  # atno 10718 bound_to 10713
  154.0233  135.2904  155.3378 H   0  0  0  0  0  0  0  0  0  0  0  0  # atno 10763 bound_to 10752
  154.7033  135.5180  153.8561 H   0  0  0  0  0  0  0  0  0  0  0  0  # atno 10764 bound_to 10752
  153.0671  135.6635  154.0453 H   0  0  0  0  0  0  0  0  0  0  0  0  # atno 10765 bound_to 10752
  140.6324  133.9563  155.8281 H   0  0  0  0  0  0  0  0  0  0  0  0  # atno 11005 bound_to 11000
  145.5782  139.1487  143.3250 LP  0  0  0  0  0  0  0  0  0  0  0  0  # atno 17320 bound_to 7965
  146.2169  140.5913  142.9035 LP  0  0  0  0  0  0  0  0  0  0  0  0  # atno 17321 bound_to 7965
  140.5513  143.2206  151.7923 LP  0  0  0  0  0  0  0  0  0  0  0  0  # atno 17342 bound_to 10162
  139.4881  144.4473  151.9695 LP  0  0  0  0  0  0  0  0  0  0  0  0  # atno 17343 bound_to 10162
  157.7382  131.0543  150.5308 LP  0  0  0  0  0  0  0  0  0  0  0  0  # atno 17370 bound_to 10713
  156.5443  130.4216  149.6139 LP  0  0  0  0  0  0  0  0  0  0  0  0  # atno 17371 bound_to 10713
  141.0666  134.0268  157.3586 LP  0  0  0  0  0  0  0  0  0  0  0  0  # atno 17394 bound_to 11000
  139.9111  135.0190  156.7694 LP  0  0  0  0  0  0  0  0  0  0  0  0  # atno 17395 bound_to 11000

$$$$
