AV-unprocessed.smi:2252|AV-procd|sdf|9109|dock3
  -GOLD-   2272012313D 1   1.00000     0.00000
 Structure written by MMmdl.
 45 47  0  0  0  0  0  0  0  0  4 V2000
  146.9973  133.3433  151.5700 C   0  0  0  0  0  0  0  0  0  0  0  0
  145.6075  133.2286  151.1208 N   0  0  0  0  0  0  0  0  0  0  0  0
  144.8987  132.0658  150.9591 C   0  0  0  0  0  0  0  0  0  0  0  0
  143.6504  132.4230  150.5219 C   0  0  0  0  0  0  0  0  0  0  0  0
  143.6474  133.7882  150.4353 N   0  3  0  0  0  0  0  0  0  0  0  0
  144.8364  134.2849  150.8032 C   0  0  0  0  0  0  0  0  0  0  0  0
  145.1985  135.7437  150.8363 C   0  0  0  0  0  0  0  0  0  0  0  0
  144.8463  136.4493  152.1600 C   0  0  0  0  0  0  0  0  0  0  0  0
  145.8275  137.4946  152.4306 N   0  5  0  0  0  0  0  0  0  0  0  0
  146.0563  138.0215  153.6645 C   0  0  0  0  0  0  0  0  0  0  0  0
  145.6268  137.6818  154.7726 O   0  0  0  0  0  0  0  0  0  0  0  0
  147.0040  139.2335  153.5904 C   0  0  2  0  0  0  0  0  0  0  0  0
  148.1698  139.0172  154.5800 C   0  0  0  0  0  0  0  0  0  0  0  0
  149.2861  140.0300  154.7141 C   0  0  0  0  0  0  0  0  0  0  0  0
  149.5600  138.6922  154.0767 C   0  0  0  0  0  0  0  0  0  0  0  0
  146.2781  140.5032  153.8698 N   0  3  0  0  0  0  0  0  0  0  0  0
  145.8003  140.6681  155.2626 C   0  0  0  0  0  0  0  0  0  0  0  0
  145.7648  142.1769  155.5491 C   0  0  0  0  0  0  0  0  0  0  0  0
  146.2555  142.8468  154.2661 C   0  0  0  0  0  0  0  0  0  0  0  0
  147.0157  141.7417  153.5414 C   0  0  0  0  0  0  0  0  0  0  0  0
  147.3961  132.3510  151.7820 H   0  0  0  0  0  0  0  0  0  0  0  0
  147.0373  133.9476  152.4767 H   0  0  0  0  0  0  0  0  0  0  0  0
  147.5935  133.8111  150.7861 H   0  0  0  0  0  0  0  0  0  0  0  0
  145.3247  131.0937  151.1617 H   0  0  0  0  0  0  0  0  0  0  0  0
  142.7865  131.8244  150.2724 H   0  0  0  0  0  0  0  0  0  0  0  0
  146.2653  135.8208  150.6249 H   0  0  0  0  0  0  0  0  0  0  0  0
  144.6754  136.2124  150.0014 H   0  0  0  0  0  0  0  0  0  0  0  0
  143.8396  136.8615  152.0871 H   0  0  0  0  0  0  0  0  0  0  0  0
  144.8038  135.6993  152.9511 H   0  0  0  0  0  0  0  0  0  0  0  0
  147.4235  139.3188  152.5847 H   0  0  0  0  0  0  0  0  0  0  0  0
  147.8787  138.5005  155.4932 H   0  0  0  0  0  0  0  0  0  0  0  0
  149.2684  140.8991  154.0597 H   0  0  0  0  0  0  0  0  0  0  0  0
  149.6879  140.2047  155.7099 H   0  0  0  0  0  0  0  0  0  0  0  0
  150.1431  137.9717  154.6464 H   0  0  0  0  0  0  0  0  0  0  0  0
  149.7180  138.6730  153.0000 H   0  0  0  0  0  0  0  0  0  0  0  0
  144.8207  140.2052  155.3857 H   0  0  0  0  0  0  0  0  0  0  0  0
  146.4875  140.1870  155.9602 H   0  0  0  0  0  0  0  0  0  0  0  0
  144.7654  142.5187  155.8205 H   0  0  0  0  0  0  0  0  0  0  0  0
  146.4303  142.4142  156.3799 H   0  0  0  0  0  0  0  0  0  0  0  0
  145.4006  143.1576  153.6640 H   0  0  0  0  0  0  0  0  0  0  0  0
  146.8695  143.7279  154.4551 H   0  0  0  0  0  0  0  0  0  0  0  0
  148.0348  141.6761  153.9265 H   0  0  0  0  0  0  0  0  0  0  0  0
  147.0691  141.9193  152.4668 H   0  0  0  0  0  0  0  0  0  0  0  0
  145.4556  140.5044  153.2839 H   0  0  0  0  0  0  0  0  0  0  0  0
  142.8581  134.3497  150.1413 H   0  0  0  0  0  0  0  0  0  0  0  0
  1  2  1  0  0  0  0
  1 21  1  0  0  0  0
  1 22  1  0  0  0  0
  1 23  1  0  0  0  0
  2  6  1  0  0  0  0
  2  3  1  0  0  0  0
  3  4  2  0  0  0  0
  3 24  1  0  0  0  0
  4  5  1  0  0  0  0
  4 25  1  0  0  0  0
  5  6  2  0  0  0  0
  5 45  1  0  0  0  0
  6  7  1  0  0  0  0
  7  8  1  0  0  0  0
  7 26  1  0  0  0  0
  7 27  1  0  0  0  0
  8  9  1  0  0  0  0
  8 28  1  0  0  0  0
  8 29  1  0  0  0  0
  9 10  1  0  0  0  0
 10 11  2  0  0  0  0
 10 12  1  0  0  0  0
 12 13  1  0  0  0  0
 12 16  1  0  0  0  0
 12 30  1  0  0  0  0
 13 15  1  0  0  0  0
 13 14  1  0  0  0  0
 13 31  1  0  0  0  0
 14 15  1  0  0  0  0
 14 32  1  0  0  0  0
 14 33  1  0  0  0  0
 15 34  1  0  0  0  0
 15 35  1  0  0  0  0
 16 20  1  0  0  0  0
 16 17  1  0  0  0  0
 16 44  1  0  0  0  0
 17 18  1  0  0  0  0
 17 36  1  0  0  0  0
 17 37  1  0  0  0  0
 18 19  1  0  0  0  0
 18 38  1  0  0  0  0
 18 39  1  0  0  0  0
 19 20  1  0  0  0  0
 19 40  1  0  0  0  0
 19 41  1  0  0  0  0
 20 42  1  0  0  0  0
 20 43  1  0  0  0  0
M  CHG  1   5   1
M  CHG  1   9  -1
M  CHG  1  16   1
M  END
> <s_m_source_file>
AV-unprocessed.smi

> <i_m_source_file_index>
2252

> <i_lp_mmshare_version>
43012

> <i_f3d_flags>
0

> <s_epik_input>
W0NIM11uMVtjSF1bY0hdbmMxW0NIMl1bQ0gyXVtOSF1DKD1PKVtDQEhdKFtDSF0yW0NIMl1bQ0gyXTIpTjNbQ0gyXVtDSDJdW0NIMl1bQ0gyXTM=

> <s_epik_cmdline>
J2VwaWtfcHl0aG9uJywgJy1waCcsICc3LjAnLCAnLXRuJywgJzgnLCAnLW1hJywgJzIwMCcsICctbWV0YWxfYmluZGluZycsICctaW1hZScsICc8aW5maWxlLm1hZT4nLCAnLW9tYWUnLCAnPG91dGZpbGUubWFlPic=

> <r_lp_tautomer_probability>
1

> <r_epik_Ionization_Penalty>
5.88052

> <r_epik_Ionization_Penalty_Charging>
5.85424

> <r_epik_Ionization_Penalty_Neutral>
0.026272

> <r_epik_State_Penalty>
5.94961

> <r_epik_Charging_Adjusted_Penalty>
11.8039

> <i_epik_Tot_Q>
1

> <i_epik_Tot_abs_Q>
3

> <r_epik_Metal_State_Penalty>
2.20001

> <b_epik_Metal_Only>
1

> <s_lp_Force_Field>
OPLS_2005

> <r_lp_Energy>
29.4432

> <b_lp_Chiralities_Consistent>
1

> <s_lp_Variant>
AV-unprocessed.smi:2252-7

> <Gold.Version>
5.8.1

> <Gold.Id.Protein>
6NUR|6NUR_protein|mol2

> <Gold.PLP.Fitness>
47.2843

> <Gold.PLP.PLP>
-37.2742

> <Gold.PLP.part.hbond>
-2.0000

> <Gold.PLP.part.metal>
0.0000

> <Gold.PLP.part.buried>
-7.6582

> <Gold.PLP.part.nonpolar>
-29.1063

> <Gold.PLP.part.repulsive>
0.3226

> <Gold.PLP.ligand.clash>
0.0000

> <Gold.PLP.ligand.torsion>
1.6856

> <Gold.PLP.Chemscore.Hbond>
4.0000

> <Gold.PLP.Chemscore.CHOScore>
0.0000

> <Gold.PLP.Chemscore.Metal>
0.0000

> <Gold.Chemscore.Hbonds>
donor molecule, donor type, donor heavy atom, donor atom, acceptor molecule, acceptor atom, score
      L1  H     5    45       P1 10186  1.95
      L1  H    16    44       P1 10175  2.00

> <Gold.PLP.Chemscore.Internal.Correction>
1.3813

> <Gold.Rescore>
     Score         DG    S(hbond)    S(metal)    S(lipo)     H(rot)  DE(clash)    DE(int)     intcor
     14.52     -16.39       1.95        0.00      80.75       1.98       0.10       1.77       ----

> <Gold.Chemscore.Fitness>
14.5201

> <Gold.Chemscore.DG>
-16.3856

> <Gold.Chemscore.ZeroCoef>
-5.4800

> <Gold.Chemscore.Hbond>
1.9547

> <Gold.Chemscore.Metal>
0.0000

> <Gold.Chemscore.Lipo>
80.7523

> <Gold.Chemscore.Internal_Hbond>
0.0000

> <Gold.Chemscore.DEClash>
0.0983

> <Gold.Chemscore.DEInternal>
1.7672

> <Gold.Chemscore.Rot>
1.9809

> <Gold.Chemscore.Internal.Correction>
   9.000000E+99

> <Gold.Chemscore.Hbonds>
donor molecule, donor type, donor heavy atom, donor atom, acceptor molecule, acceptor atom, score
      L1  H     5    45       P1 10186  0.82
      L1  H    16    44       P1 10175  0.94

> <Gold.Chemscore.Hbond.Weighted>
-6.5287

> <Gold.Chemscore.Metal.Weighted>
-0.0000

> <Gold.Chemscore.Lipo.Weighted>
-9.4480

> <Gold.Chemscore.Internal_Hbond.Weighted>
0.0000

> <Gold.Chemscore.DEClash.Weighted>
0.0983

> <Gold.Chemscore.DEInternal.Weighted>
1.7672

> <Gold.Chemscore.Rot.Weighted>
5.0711

> <Gold.Chemscore.Internal.Correction.Weighted>
   9.000000E+99

> <Gold.Protein.RotatedTorsions>
[ 6907 6896 6895 6894 ] final  -58.36 input  -60.11 | X-H torsion
[ 7974 7965 7964 7962 ] final   57.96 input  175.53 | X-H torsion
[ 8008 7997 7996 7995 ] final   59.23 input   59.86 | X-H torsion
[ 10167 10162 10161 10158 ] final  -55.51 input  -65.29 | X-H torsion
[ 10718 10713 10712 10709 ] final  139.51 input   66.30 | X-H torsion
[ 10763 10752 10751 10750 ] final  -35.46 input  -60.55 | X-H torsion
[ 11005 11000 10999 10996 ] final   64.59 input  -57.11 | X-H torsion

> <Gold.Protein.ActiveResidues>
 VAL166  LYS551  ARG553  GLY616  TRP617  ASP618  TYR619  PRO620  LYS621  CYS622 
 ASP623  PHE694  ASN695  SER759  ASP760  ASP761  ALA762  ILE779  LEU786  VAL792 
 PHE793  MET794  SER795  GLU796  ALA797  LYS798  CYS799  TRP800  GLU811  SER814 

> <Gold.Protein.RotatedAtoms>
  150.8013  134.7109  159.6602 H   0  0  0  0  0  0  0  0  0  0  0  0  # atno 6907 bound_to 6896
  152.4130  134.6087  160.0029 H   0  0  0  0  0  0  0  0  0  0  0  0  # atno 6908 bound_to 6896
  151.6325  133.3294  159.3148 H   0  0  0  0  0  0  0  0  0  0  0  0  # atno 6909 bound_to 6896
  145.9233  139.3747  143.0465 H   0  0  0  0  0  0  0  0  0  0  0  0  # atno 7974 bound_to 7965
  155.5628  140.3488  155.4495 H   0  0  0  0  0  0  0  0  0  0  0  0  # atno 8008 bound_to 7997
  156.0502  140.1316  157.0084 H   0  0  0  0  0  0  0  0  0  0  0  0  # atno 8009 bound_to 7997
  154.4431  140.1006  156.6350 H   0  0  0  0  0  0  0  0  0  0  0  0  # atno 8010 bound_to 7997
  140.6370  143.2487  151.5090 H   0  0  0  0  0  0  0  0  0  0  0  0  # atno 10167 bound_to 10162
  157.4136  131.1031  151.0428 H   0  0  0  0  0  0  0  0  0  0  0  0  # atno 10718 bound_to 10713
  153.8636  135.6837  153.4780 H   0  0  0  0  0  0  0  0  0  0  0  0  # atno 10763 bound_to 10752
  153.1327  135.4691  154.9372 H   0  0  0  0  0  0  0  0  0  0  0  0  # atno 10764 bound_to 10752
  154.7747  135.3249  154.8067 H   0  0  0  0  0  0  0  0  0  0  0  0  # atno 10765 bound_to 10752
  139.9949  134.6533  156.0027 H   0  0  0  0  0  0  0  0  0  0  0  0  # atno 11005 bound_to 11000
  145.8521  140.9523  143.0744 LP  0  0  0  0  0  0  0  0  0  0  0  0  # atno 17320 bound_to 7965
  144.6755  140.0421  143.7480 LP  0  0  0  0  0  0  0  0  0  0  0  0  # atno 17321 bound_to 7965
  139.5580  144.2226  152.1645 LP  0  0  0  0  0  0  0  0  0  0  0  0  # atno 17342 bound_to 10162
  140.1486  144.5136  150.6701 LP  0  0  0  0  0  0  0  0  0  0  0  0  # atno 17343 bound_to 10162
  157.1384  130.6132  149.5548 LP  0  0  0  0  0  0  0  0  0  0  0  0  # atno 17370 bound_to 10713
  155.9858  130.4890  150.7049 LP  0  0  0  0  0  0  0  0  0  0  0  0  # atno 17371 bound_to 10713
  141.1596  133.6540  156.4275 LP  0  0  0  0  0  0  0  0  0  0  0  0  # atno 17394 bound_to 11000
  140.4837  134.6640  157.5182 LP  0  0  0  0  0  0  0  0  0  0  0  0  # atno 17395 bound_to 11000

$$$$
