AV-unprocessed.smi:2085|AV-procd|sdf|8516|dock1
  -GOLD-   2272011233D 1   1.00000     0.00000
 Structure written by MMmdl.
 30 31  0  0  0  0  0  0  0  0  1 V2000
  147.1735  141.6009  153.9381 C   0  0  0  0  0  0  0  0  0  0  0  0
  148.2332  141.7598  154.8755 O   0  0  0  0  0  0  0  0  0  0  0  0
  149.2752  140.8521  154.8538 C   0  0  0  0  0  0  0  0  0  0  0  0
  149.1735  139.7737  154.0368 N   0  0  0  0  0  0  0  0  0  0  0  0
  150.1863  138.8833  154.0181 C   0  0  0  0  0  0  0  0  0  0  0  0
  151.3417  139.0149  154.8096 C   0  0  0  0  0  0  0  0  0  0  0  0
  151.4498  140.1322  155.6580 C   0  0  0  0  0  0  0  0  0  0  0  0
  150.4011  141.0838  155.6785 C   0  0  0  0  0  0  0  0  0  0  0  0
  150.3958  142.2370  156.5120 N   0  0  0  0  0  0  0  0  0  0  0  0
  151.0757  142.4645  157.6514 C   0  0  0  0  0  0  0  0  0  0  0  0
  151.8903  141.6839  158.1431 O   0  0  0  0  0  0  0  0  0  0  0  0
  150.8306  143.8225  158.3259 C   0  0  2  0  0  0  0  0  0  0  0  0
  152.0727  144.7218  158.3904 C   0  0  0  0  0  0  0  0  0  0  0  0
  151.8466  145.4892  159.6736 C   0  0  0  0  0  0  0  0  0  0  0  0
  151.2118  144.4247  160.5588 C   0  0  0  0  0  0  0  0  0  0  0  0
  150.4150  143.6360  159.6820 O   0  0  0  0  0  0  0  0  0  0  0  0
  146.4394  142.3926  154.0870 H   0  0  0  0  0  0  0  0  0  0  0  0
  146.6618  140.6468  154.0713 H   0  0  0  0  0  0  0  0  0  0  0  0
  147.5347  141.6739  152.9111 H   0  0  0  0  0  0  0  0  0  0  0  0
  150.0693  138.0369  153.3578 H   0  0  0  0  0  0  0  0  0  0  0  0
  152.1249  138.2723  154.7715 H   0  0  0  0  0  0  0  0  0  0  0  0
  152.3238  140.2258  156.2833 H   0  0  0  0  0  0  0  0  0  0  0  0
  149.8368  143.0087  156.1763 H   0  0  0  0  0  0  0  0  0  0  0  0
  150.0264  144.3397  157.8011 H   0  0  0  0  0  0  0  0  0  0  0  0
  152.9885  144.1329  158.4696 H   0  0  0  0  0  0  0  0  0  0  0  0
  152.1639  145.3765  157.5231 H   0  0  0  0  0  0  0  0  0  0  0  0
  152.7629  145.9046  160.0939 H   0  0  0  0  0  0  0  0  0  0  0  0
  151.1440  146.3062  159.5040 H   0  0  0  0  0  0  0  0  0  0  0  0
  151.9808  143.7892  160.9998 H   0  0  0  0  0  0  0  0  0  0  0  0
  150.6167  144.8497  161.3671 H   0  0  0  0  0  0  0  0  0  0  0  0
  1  2  1  0  0  0  0
  1 17  1  0  0  0  0
  1 18  1  0  0  0  0
  1 19  1  0  0  0  0
  2  3  1  0  0  0  0
  3  8  1  0  0  0  0
  3  4  2  0  0  0  0
  4  5  1  0  0  0  0
  5  6  2  0  0  0  0
  5 20  1  0  0  0  0
  6  7  1  0  0  0  0
  6 21  1  0  0  0  0
  7  8  2  0  0  0  0
  7 22  1  0  0  0  0
  8  9  1  0  0  0  0
  9 10  1  0  0  0  0
  9 23  1  0  0  0  0
 10 11  2  0  0  0  0
 10 12  1  0  0  0  0
 12 16  1  0  0  0  0
 12 13  1  0  0  0  0
 12 24  1  0  0  0  0
 13 14  1  0  0  0  0
 13 25  1  0  0  0  0
 13 26  1  0  0  0  0
 14 15  1  0  0  0  0
 14 27  1  0  0  0  0
 14 28  1  0  0  0  0
 15 16  1  0  0  0  0
 15 29  1  0  0  0  0
 15 30  1  0  0  0  0
M  END
> <s_m_source_file>
AV-unprocessed.smi

> <i_m_source_file_index>
2085

> <i_lp_mmshare_version>
43012

> <i_f3d_flags>
0

> <s_epik_input>
W0NIM11PYzFuW2NIXVtjSF1bY0hdYzFbTkhdQyg9TylbQ0BASF0yW0NIMl1bQ0gyXVtDSDJdTzI=

> <s_epik_cmdline>
J2VwaWtfcHl0aG9uJywgJy1waCcsICc3LjAnLCAnLXRuJywgJzgnLCAnLW1hJywgJzIwMCcsICctbWV0YWxfYmluZGluZycsICctaW1hZScsICc8aW5maWxlLm1hZT4nLCAnLW9tYWUnLCAnPG91dGZpbGUubWFlPic=

> <r_lp_tautomer_probability>
1

> <r_epik_Ionization_Penalty>
2.59253e-05

> <r_epik_Ionization_Penalty_Charging>
0

> <r_epik_Ionization_Penalty_Neutral>
2.59253e-05

> <r_epik_State_Penalty>
-0

> <r_epik_Charging_Adjusted_Penalty>
0

> <i_epik_Tot_Q>
0

> <i_epik_Tot_abs_Q>
0

> <r_epik_Metal_State_Penalty>
-0

> <b_epik_Metal_Only>
0

> <s_lp_Force_Field>
OPLS_2005

> <r_lp_Energy>
24.0215

> <b_lp_Chiralities_Consistent>
1

> <s_lp_Variant>
AV-unprocessed.smi:2085-1

> <Gold.Version>
5.8.1

> <Gold.Id.Protein>
6NUR|6NUR_protein|mol2

> <Gold.PLP.Fitness>
43.5626

> <Gold.PLP.PLP>
-37.9314

> <Gold.PLP.part.hbond>
-1.2589

> <Gold.PLP.part.metal>
0.0000

> <Gold.PLP.part.buried>
-6.0277

> <Gold.PLP.part.nonpolar>
-33.0366

> <Gold.PLP.part.repulsive>
1.6558

> <Gold.PLP.ligand.clash>
0.0000

> <Gold.PLP.ligand.torsion>
0.1805

> <Gold.PLP.Chemscore.Hbond>
1.0000

> <Gold.PLP.Chemscore.CHOScore>
0.9950

> <Gold.PLP.Chemscore.Metal>
0.0000

> <Gold.Chemscore.Hbonds>
donor molecule, donor type, donor heavy atom, donor atom, acceptor molecule, acceptor atom, score
      L1  H     9    23       P1  8028  1.00
      L1  C     5    20       P1  7948  0.95

> <Gold.PLP.Chemscore.Internal.Correction>
0.0072

> <Gold.Rescore>
     Score         DG    S(hbond)    S(metal)    S(lipo)     H(rot)  DE(clash)    DE(int)     intcor
     14.14     -15.42       0.94        0.00      85.06       1.24       0.03       1.25       ----

> <Gold.Chemscore.Fitness>
14.1427

> <Gold.Chemscore.DG>
-15.4159

> <Gold.Chemscore.ZeroCoef>
-5.4800

> <Gold.Chemscore.Hbond>
0.9441

> <Gold.Chemscore.Metal>
0.0000

> <Gold.Chemscore.Lipo>
85.0607

> <Gold.Chemscore.Internal_Hbond>
0.0000

> <Gold.Chemscore.DEClash>
0.0271

> <Gold.Chemscore.DEInternal>
1.2462

> <Gold.Chemscore.Rot>
1.2381

> <Gold.Chemscore.Internal.Correction>
   9.000000E+99

> <Gold.Chemscore.Hbonds>
donor molecule, donor type, donor heavy atom, donor atom, acceptor molecule, acceptor atom, score
      L1  H     9    23       P1  8028  0.93

> <Gold.Chemscore.Hbond.Weighted>
-3.1532

> <Gold.Chemscore.Metal.Weighted>
-0.0000

> <Gold.Chemscore.Lipo.Weighted>
-9.9521

> <Gold.Chemscore.Internal_Hbond.Weighted>
0.0000

> <Gold.Chemscore.DEClash.Weighted>
0.0271

> <Gold.Chemscore.DEInternal.Weighted>
1.2462

> <Gold.Chemscore.Rot.Weighted>
3.1694

> <Gold.Chemscore.Internal.Correction.Weighted>
   9.000000E+99

> <Gold.Protein.RotatedTorsions>
[ 6907 6896 6895 6894 ] final  -59.04 input  -60.11 | X-H torsion
[ 7974 7965 7964 7962 ] final  148.90 input  175.53 | X-H torsion
[ 8008 7997 7996 7995 ] final -177.47 input   59.86 | X-H torsion
[ 10167 10162 10161 10158 ] final -105.19 input  -65.29 | X-H torsion
[ 10718 10713 10712 10709 ] final   85.08 input   66.30 | X-H torsion
[ 10763 10752 10751 10750 ] final -142.81 input  -60.55 | X-H torsion
[ 11005 11000 10999 10996 ] final -127.88 input  -57.11 | X-H torsion

> <Gold.Protein.ActiveResidues>
 VAL166  LYS551  ARG553  GLY616  TRP617  ASP618  TYR619  PRO620  LYS621  CYS622 
 ASP623  PHE694  ASN695  SER759  ASP760  ASP761  ALA762  ILE779  LEU786  VAL792 
 PHE793  MET794  SER795  GLU796  ALA797  LYS798  CYS799  TRP800  GLU811  SER814 

> <Gold.Protein.RotatedAtoms>
  150.7960  134.7020  159.6555 H   0  0  0  0  0  0  0  0  0  0  0  0  # atno 6907 bound_to 6896
  152.4073  134.6182  160.0053 H   0  0  0  0  0  0  0  0  0  0  0  0  # atno 6908 bound_to 6896
  151.6436  133.3287  159.3172 H   0  0  0  0  0  0  0  0  0  0  0  0  # atno 6909 bound_to 6896
  144.8479  139.6212  143.5987 H   0  0  0  0  0  0  0  0  0  0  0  0  # atno 7974 bound_to 7965
  156.0074  140.1233  157.0488 H   0  0  0  0  0  0  0  0  0  0  0  0  # atno 8008 bound_to 7997
  154.4263  140.1094  156.5850 H   0  0  0  0  0  0  0  0  0  0  0  0  # atno 8009 bound_to 7997
  155.6128  140.3471  155.4630 H   0  0  0  0  0  0  0  0  0  0  0  0  # atno 8010 bound_to 7997
  140.2012  143.3817  152.1128 H   0  0  0  0  0  0  0  0  0  0  0  0  # atno 10167 bound_to 10162
  157.6909  131.0160  150.2768 H   0  0  0  0  0  0  0  0  0  0  0  0  # atno 10718 bound_to 10713
  154.8495  135.3485  154.6087 H   0  0  0  0  0  0  0  0  0  0  0  0  # atno 10763 bound_to 10752
  153.6695  135.6985  153.5156 H   0  0  0  0  0  0  0  0  0  0  0  0  # atno 10764 bound_to 10752
  153.2753  135.4280  155.0984 H   0  0  0  0  0  0  0  0  0  0  0  0  # atno 10765 bound_to 10752
  140.9563  134.0998  157.4013 H   0  0  0  0  0  0  0  0  0  0  0  0  # atno 11005 bound_to 11000
  146.2760  139.6753  142.9263 LP  0  0  0  0  0  0  0  0  0  0  0  0  # atno 17320 bound_to 7965
  145.4560  141.0430  143.2778 LP  0  0  0  0  0  0  0  0  0  0  0  0  # atno 17321 bound_to 7965
  139.5216  144.7048  151.5385 LP  0  0  0  0  0  0  0  0  0  0  0  0  # atno 17342 bound_to 10162
  140.6389  143.8929  150.6673 LP  0  0  0  0  0  0  0  0  0  0  0  0  # atno 17343 bound_to 10162
  156.3322  130.3802  149.7481 LP  0  0  0  0  0  0  0  0  0  0  0  0  # atno 17370 bound_to 10713
  156.5017  130.8132  151.3135 LP  0  0  0  0  0  0  0  0  0  0  0  0  # atno 17371 bound_to 10713
  139.8863  135.0080  156.6490 LP  0  0  0  0  0  0  0  0  0  0  0  0  # atno 17394 bound_to 11000
  140.7532  133.8880  155.8362 LP  0  0  0  0  0  0  0  0  0  0  0  0  # atno 17395 bound_to 11000

$$$$
