AV-unprocessed.smi:1752|AV-procd|sdf|7061|dock5
  -GOLD-   22720 8283D 1   1.00000     0.00000
 Structure written by MMmdl.
 43 44  0  0  0  0  0  0  0  0  2 V2000
  151.0554  143.8914  157.7452 C   0  0  0  0  0  0  0  0  0  0  0  0
  151.0713  142.4387  157.2417 C   0  0  1  0  0  0  0  0  0  0  0  0
  150.9752  141.3984  158.3795 C   0  0  0  0  0  0  0  0  0  0  0  0
  152.0968  141.4671  159.2987 N   0  0  0  0  0  0  0  0  0  0  0  0
  152.5034  142.5344  160.0714 C   0  0  0  0  0  0  0  0  0  0  0  0
  153.6021  142.1311  160.7749 C   0  0  0  0  0  0  0  0  0  0  0  0
  153.7954  140.7846  160.3568 C   0  0  0  0  0  0  0  0  0  0  0  0
  152.8942  140.3906  159.4716 N   0  0  0  0  0  0  0  0  0  0  0  0
  149.9761  142.2515  156.2944 N   0  0  0  0  0  0  0  0  0  0  0  0
  149.8879  141.2660  155.3836 C   0  0  0  0  0  0  0  0  0  0  0  0
  150.7675  140.4149  155.2453 O   0  0  0  0  0  0  0  0  0  0  0  0
  148.7858  141.3257  154.5944 N   0  0  0  0  0  0  0  0  0  0  0  0
  147.8921  142.5028  154.5107 C   0  0  0  0  0  0  0  0  0  0  0  0
  146.4078  142.1534  154.2487 C   0  0  0  0  0  0  0  0  0  0  0  0
  145.7603  141.2136  155.2893 C   0  0  0  0  0  0  0  0  0  0  0  0
  146.6073  140.0675  155.7173 N   0  3  1  0  0  0  0  0  0  0  0  0
  145.8892  139.1741  156.6529 C   0  0  0  0  0  0  0  0  0  0  0  0
  147.2706  139.3155  154.6181 C   0  0  0  0  0  0  0  0  0  0  0  0
  148.3382  140.1341  153.8532 C   0  0  0  0  0  0  0  0  0  0  0  0
  151.9117  144.1024  158.3863 H   0  0  0  0  0  0  0  0  0  0  0  0
  150.1517  144.1025  158.3178 H   0  0  0  0  0  0  0  0  0  0  0  0
  151.0953  144.5955  156.9134 H   0  0  0  0  0  0  0  0  0  0  0  0
  152.0145  142.2894  156.7127 H   0  0  0  0  0  0  0  0  0  0  0  0
  150.0488  141.5359  158.9402 H   0  0  0  0  0  0  0  0  0  0  0  0
  150.9416  140.3876  157.9708 H   0  0  0  0  0  0  0  0  0  0  0  0
  151.9808  143.4798  160.0578 H   0  0  0  0  0  0  0  0  0  0  0  0
  154.1797  142.7095  161.4804 H   0  0  0  0  0  0  0  0  0  0  0  0
  154.5591  140.0870  160.6682 H   0  0  0  0  0  0  0  0  0  0  0  0
  149.2286  142.9295  156.3290 H   0  0  0  0  0  0  0  0  0  0  0  0
  147.9238  143.0818  155.4352 H   0  0  0  0  0  0  0  0  0  0  0  0
  148.2587  143.1594  153.7209 H   0  0  0  0  0  0  0  0  0  0  0  0
  145.8341  143.0805  154.2242 H   0  0  0  0  0  0  0  0  0  0  0  0
  146.2795  141.7382  153.2494 H   0  0  0  0  0  0  0  0  0  0  0  0
  145.5149  141.7931  156.1800 H   0  0  0  0  0  0  0  0  0  0  0  0
  144.8144  140.8414  154.8933 H   0  0  0  0  0  0  0  0  0  0  0  0
  145.0641  138.6663  156.1519 H   0  0  0  0  0  0  0  0  0  0  0  0
  145.4842  139.7398  157.4925 H   0  0  0  0  0  0  0  0  0  0  0  0
  146.5607  138.4175  157.0598 H   0  0  0  0  0  0  0  0  0  0  0  0
  147.7723  138.4523  155.0582 H   0  0  0  0  0  0  0  0  0  0  0  0
  146.5247  138.9166  153.9293 H   0  0  0  0  0  0  0  0  0  0  0  0
  147.9592  140.4371  152.8775 H   0  0  0  0  0  0  0  0  0  0  0  0
  149.1792  139.4857  153.6004 H   0  0  0  0  0  0  0  0  0  0  0  0
  147.3628  140.4715  156.2524 H   0  0  0  0  0  0  0  0  0  0  0  0
  1  2  1  0  0  0  0
  1 20  1  0  0  0  0
  1 21  1  0  0  0  0
  1 22  1  0  0  0  0
  2  3  1  0  0  0  0
  2  9  1  0  0  0  0
  2 23  1  0  0  0  0
  3  4  1  0  0  0  0
  3 24  1  0  0  0  0
  3 25  1  0  0  0  0
  4  8  1  0  0  0  0
  4  5  1  0  0  0  0
  5  6  2  0  0  0  0
  5 26  1  0  0  0  0
  6  7  1  0  0  0  0
  6 27  1  0  0  0  0
  7  8  2  0  0  0  0
  7 28  1  0  0  0  0
  9 10  1  0  0  0  0
  9 29  1  0  0  0  0
 10 11  2  0  0  0  0
 10 12  1  0  0  0  0
 12 19  1  0  0  0  0
 12 13  1  0  0  0  0
 13 14  1  0  0  0  0
 13 30  1  0  0  0  0
 13 31  1  0  0  0  0
 14 15  1  0  0  0  0
 14 32  1  0  0  0  0
 14 33  1  0  0  0  0
 15 16  1  0  0  0  0
 15 34  1  0  0  0  0
 15 35  1  0  0  0  0
 16 17  1  0  0  0  0
 16 18  1  0  0  0  0
 16 43  1  0  0  0  0
 17 36  1  0  0  0  0
 17 37  1  0  0  0  0
 17 38  1  0  0  0  0
 18 19  1  0  0  0  0
 18 39  1  0  0  0  0
 18 40  1  0  0  0  0
 19 41  1  0  0  0  0
 19 42  1  0  0  0  0
M  CHG  1  16   1
M  END
> <s_m_source_file>
AV-unprocessed.smi

> <i_m_source_file_index>
1752

> <i_lp_mmshare_version>
43012

> <i_f3d_flags>
0

> <s_epik_input>
bjFbY0hdW2NIXVtjSF1uMVtDSDJdW0NAQEhdKFtDSDNdKVtOSF1DKD1PKU4yW0NIMl1bQ0gyXVtDSDJdTihbQ0gzXSlbQ0gyXVtDSDJdMg==

> <s_epik_cmdline>
J2VwaWtfcHl0aG9uJywgJy1waCcsICc3LjAnLCAnLXRuJywgJzgnLCAnLW1hJywgJzIwMCcsICctbWV0YWxfYmluZGluZycsICctaW1hZScsICc8aW5maWxlLm1hZT4nLCAnLW9tYWUnLCAnPG91dGZpbGUubWFlPic=

> <r_lp_tautomer_probability>
1

> <r_epik_Ionization_Penalty>
0.00208423

> <r_epik_Ionization_Penalty_Charging>
0.00203643

> <r_epik_Ionization_Penalty_Neutral>
4.77939e-05

> <r_epik_State_Penalty>
0.00139278

> <r_epik_Charging_Adjusted_Penalty>
0.00342922

> <i_epik_Tot_Q>
1

> <i_epik_Tot_abs_Q>
1

> <r_epik_Metal_State_Penalty>
-0

> <b_epik_Metal_Only>
0

> <s_lp_Force_Field>
OPLS_2005

> <r_lp_Energy>
45.7643

> <b_lp_Chiralities_Consistent>
1

> <s_lp_Variant>
AV-unprocessed.smi:1752-4

> <Gold.Version>
5.8.1

> <Gold.Id.Protein>
6NUR|6NUR_protein|mol2

> <Gold.PLP.Fitness>
40.1696

> <Gold.PLP.PLP>
-35.0296

> <Gold.PLP.part.hbond>
-2.0000

> <Gold.PLP.part.metal>
0.0000

> <Gold.PLP.part.buried>
2.1457

> <Gold.PLP.part.nonpolar>
-34.7218

> <Gold.PLP.part.repulsive>
0.1427

> <Gold.PLP.ligand.clash>
0.0000

> <Gold.PLP.ligand.torsion>
0.3676

> <Gold.PLP.Chemscore.Hbond>
1.9353

> <Gold.PLP.Chemscore.CHOScore>
0.0000

> <Gold.PLP.Chemscore.Metal>
0.0000

> <Gold.Chemscore.Hbonds>
donor molecule, donor type, donor heavy atom, donor atom, acceptor molecule, acceptor atom, score
      L1  H     9    29       P1  8028  0.75
      P1  H  7989  7998       L1    11  1.00

> <Gold.PLP.Chemscore.Internal.Correction>
0.0695

> <Gold.Rescore>
     Score         DG    S(hbond)    S(metal)    S(lipo)     H(rot)  DE(clash)    DE(int)     intcor
     13.74     -16.21       1.45        0.00      81.33       1.41       2.17       0.30       ----

> <Gold.Chemscore.Fitness>
13.7427

> <Gold.Chemscore.DG>
-16.2099

> <Gold.Chemscore.ZeroCoef>
-5.4800

> <Gold.Chemscore.Hbond>
1.4460

> <Gold.Chemscore.Metal>
0.0000

> <Gold.Chemscore.Lipo>
81.3343

> <Gold.Chemscore.Internal_Hbond>
0.0000

> <Gold.Chemscore.DEClash>
2.1709

> <Gold.Chemscore.DEInternal>
0.2962

> <Gold.Chemscore.Rot>
1.4125

> <Gold.Chemscore.Internal.Correction>
   9.000000E+99

> <Gold.Chemscore.Hbonds>
donor molecule, donor type, donor heavy atom, donor atom, acceptor molecule, acceptor atom, score
      L1  H     9    29       P1  8028  0.75
      P1  H  7989  7998       L1    11  0.41

> <Gold.Chemscore.Hbond.Weighted>
-4.8298

> <Gold.Chemscore.Metal.Weighted>
-0.0000

> <Gold.Chemscore.Lipo.Weighted>
-9.5161

> <Gold.Chemscore.Internal_Hbond.Weighted>
0.0000

> <Gold.Chemscore.DEClash.Weighted>
2.1709

> <Gold.Chemscore.DEInternal.Weighted>
0.2962

> <Gold.Chemscore.Rot.Weighted>
3.6160

> <Gold.Chemscore.Internal.Correction.Weighted>
   9.000000E+99

> <Gold.Protein.RotatedTorsions>
[ 6907 6896 6895 6894 ] final -153.28 input  -60.11 | X-H torsion
[ 7974 7965 7964 7962 ] final -109.07 input  175.53 | X-H torsion
[ 8008 7997 7996 7995 ] final   61.45 input   59.86 | X-H torsion
[ 10167 10162 10161 10158 ] final  135.59 input  -65.29 | X-H torsion
[ 10718 10713 10712 10709 ] final  132.54 input   66.30 | X-H torsion
[ 10763 10752 10751 10750 ] final  -79.33 input  -60.55 | X-H torsion
[ 11005 11000 10999 10996 ] final  -10.81 input  -57.11 | X-H torsion

> <Gold.Protein.ActiveResidues>
 VAL166  LYS551  ARG553  GLY616  TRP617  ASP618  TYR619  PRO620  LYS621  CYS622 
 ASP623  PHE694  ASN695  SER759  ASP760  ASP761  ALA762  ILE779  LEU786  VAL792 
 PHE793  MET794  SER795  GLU796  ALA797  LYS798  CYS799  TRP800  GLU811  SER814 

> <Gold.Protein.RotatedAtoms>
  151.2403  133.4403  159.2606 H   0  0  0  0  0  0  0  0  0  0  0  0  # atno 6907 bound_to 6896
  151.0711  134.9799  159.8319 H   0  0  0  0  0  0  0  0  0  0  0  0  # atno 6908 bound_to 6896
  152.5412  134.2348  159.8892 H   0  0  0  0  0  0  0  0  0  0  0  0  # atno 6909 bound_to 6896
  145.1850  140.8989  143.3458 H   0  0  0  0  0  0  0  0  0  0  0  0  # atno 7974 bound_to 7965
  155.5986  140.3493  155.4587 H   0  0  0  0  0  0  0  0  0  0  0  0  # atno 8008 bound_to 7997
  156.0246  140.1261  157.0347 H   0  0  0  0  0  0  0  0  0  0  0  0  # atno 8009 bound_to 7997
  154.4328  140.1055  156.5998 H   0  0  0  0  0  0  0  0  0  0  0  0  # atno 8010 bound_to 7997
  139.5211  144.6509  151.5306 H   0  0  0  0  0  0  0  0  0  0  0  0  # atno 10167 bound_to 10162
  157.4861  131.1088  150.9618 H   0  0  0  0  0  0  0  0  0  0  0  0  # atno 10718 bound_to 10713
  154.5372  135.5699  153.6808 H   0  0  0  0  0  0  0  0  0  0  0  0  # atno 10763 bound_to 10752
  152.9954  135.6219  154.2550 H   0  0  0  0  0  0  0  0  0  0  0  0  # atno 10764 bound_to 10752
  154.2480  135.2860  155.2808 H   0  0  0  0  0  0  0  0  0  0  0  0  # atno 10765 bound_to 10752
  140.7486  133.8610  155.9026 H   0  0  0  0  0  0  0  0  0  0  0  0  # atno 11005 bound_to 11000
  145.0098  139.3520  143.6126 LP  0  0  0  0  0  0  0  0  0  0  0  0  # atno 17320 bound_to 7965
  146.3446  139.9356  142.8748 LP  0  0  0  0  0  0  0  0  0  0  0  0  # atno 17321 bound_to 7965
  140.6313  143.9070  150.6608 LP  0  0  0  0  0  0  0  0  0  0  0  0  # atno 17342 bound_to 10162
  140.2375  143.3688  152.1514 LP  0  0  0  0  0  0  0  0  0  0  0  0  # atno 17343 bound_to 10162
  157.0336  130.5721  149.5346 LP  0  0  0  0  0  0  0  0  0  0  0  0  # atno 17370 bound_to 10713
  156.0147  130.5241  150.8099 LP  0  0  0  0  0  0  0  0  0  0  0  0  # atno 17371 bound_to 10713
  140.9771  134.1454  157.4527 LP  0  0  0  0  0  0  0  0  0  0  0  0  # atno 17394 bound_to 11000
  139.8792  134.9998  156.5975 LP  0  0  0  0  0  0  0  0  0  0  0  0  # atno 17395 bound_to 11000

$$$$
