AV-unprocessed.smi:1703|AV-procd|sdf|6863|dock4
  -GOLD-   22720 8 53D 1   1.00000     0.00000
 Structure written by MMmdl.
 49 51  0  0  0  0  0  0  0  0  2 V2000
  145.1925  144.5247  153.0438 C   0  0  0  0  0  0  0  0  0  0  0  0
  145.9181  143.9753  154.2770 C   0  0  2  0  0  0  0  0  0  0  0  0
  146.8659  142.8139  153.9228 C   0  0  0  0  0  0  0  0  0  0  0  0
  147.4879  142.2564  155.1468 N   0  3  2  0  0  0  0  0  0  0  0  0
  148.4608  141.1760  154.8442 C   0  0  0  0  0  0  0  0  0  0  0  0
  149.7903  141.3367  155.6141 C   0  0  2  0  0  0  0  0  0  0  0  0
  150.7754  140.5282  155.0033 O   0  0  0  0  0  0  0  0  0  0  0  0
  149.7007  140.9281  157.0983 C   0  0  0  0  0  0  0  0  0  0  0  0
  150.8759  141.3247  157.8632 N   0  0  0  0  0  0  0  0  0  0  0  0
  152.0124  140.6200  158.1000 C   0  0  0  0  0  0  0  0  0  0  0  0
  152.2285  139.2368  157.5662 C   0  0  0  0  0  0  0  0  0  0  0  0
  153.5269  138.7488  157.8260 O   0  0  0  0  0  0  0  0  0  0  0  0
  152.9306  141.2347  158.8459 N   0  0  0  0  0  0  0  0  0  0  0  0
  152.3429  142.4563  159.1083 C   0  0  0  0  0  0  0  0  0  0  0  0
  152.8147  143.5620  159.8512 C   0  0  0  0  0  0  0  0  0  0  0  0
  152.0247  144.7228  159.9827 C   0  0  0  0  0  0  0  0  0  0  0  0
  150.7547  144.7945  159.3745 C   0  0  0  0  0  0  0  0  0  0  0  0
  150.2652  143.7035  158.6310 C   0  0  0  0  0  0  0  0  0  0  0  0
  151.0570  142.5465  158.5042 C   0  0  0  0  0  0  0  0  0  0  0  0
  146.4411  141.8626  156.1220 C   0  0  0  0  0  0  0  0  0  0  0  0
  145.5086  143.0521  156.4197 C   0  0  2  0  0  0  0  0  0  0  0  0
  144.3673  142.6699  157.3685 C   0  0  0  0  0  0  0  0  0  0  0  0
  144.9380  143.5117  155.1993 O   0  0  0  0  0  0  0  0  0  0  0  0
  145.9011  144.9100  152.3103 H   0  0  0  0  0  0  0  0  0  0  0  0
  144.5220  145.3397  153.3174 H   0  0  0  0  0  0  0  0  0  0  0  0
  144.5955  143.7517  152.5589 H   0  0  0  0  0  0  0  0  0  0  0  0
  146.4859  144.7870  154.7353 H   0  0  0  0  0  0  0  0  0  0  0  0
  146.3208  142.0251  153.4010 H   0  0  0  0  0  0  0  0  0  0  0  0
  147.6430  143.1696  153.2449 H   0  0  0  0  0  0  0  0  0  0  0  0
  147.9920  140.2158  155.0632 H   0  0  0  0  0  0  0  0  0  0  0  0
  148.6804  141.1704  153.7754 H   0  0  0  0  0  0  0  0  0  0  0  0
  150.1313  142.3698  155.5645 H   0  0  0  0  0  0  0  0  0  0  0  0
  151.1487  139.9576  155.6583 H   0  0  0  0  0  0  0  0  0  0  0  0
  148.8060  141.3503  157.5550 H   0  0  0  0  0  0  0  0  0  0  0  0
  149.5972  139.8453  157.1811 H   0  0  0  0  0  0  0  0  0  0  0  0
  151.5047  138.5583  158.0194 H   0  0  0  0  0  0  0  0  0  0  0  0
  152.0406  139.2214  156.4930 H   0  0  0  0  0  0  0  0  0  0  0  0
  153.4636  137.8387  158.0722 H   0  0  0  0  0  0  0  0  0  0  0  0
  153.7869  143.5179  160.3192 H   0  0  0  0  0  0  0  0  0  0  0  0
  152.3960  145.5628  160.5517 H   0  0  0  0  0  0  0  0  0  0  0  0
  150.1574  145.6887  159.4778 H   0  0  0  0  0  0  0  0  0  0  0  0
  149.2941  143.7576  158.1623 H   0  0  0  0  0  0  0  0  0  0  0  0
  145.8669  141.0248  155.7226 H   0  0  0  0  0  0  0  0  0  0  0  0
  146.8951  141.5222  157.0517 H   0  0  0  0  0  0  0  0  0  0  0  0
  146.0809  143.8619  156.8762 H   0  0  0  0  0  0  0  0  0  0  0  0
  144.7533  142.3158  158.3248 H   0  0  0  0  0  0  0  0  0  0  0  0
  143.7473  141.8794  156.9445 H   0  0  0  0  0  0  0  0  0  0  0  0
  143.7235  143.5266  157.5684 H   0  0  0  0  0  0  0  0  0  0  0  0
  148.0172  143.0083  155.5658 H   0  0  0  0  0  0  0  0  0  0  0  0
  1  2  1  0  0  0  0
  1 24  1  0  0  0  0
  1 25  1  0  0  0  0
  1 26  1  0  0  0  0
  2 23  1  0  0  0  0
  2  3  1  0  0  0  0
  2 27  1  0  0  0  0
  3  4  1  0  0  0  0
  3 28  1  0  0  0  0
  3 29  1  0  0  0  0
  4  5  1  0  0  0  0
  4 20  1  0  0  0  0
  4 49  1  0  0  0  0
  5  6  1  0  0  0  0
  5 30  1  0  0  0  0
  5 31  1  0  0  0  0
  6  7  1  0  0  0  0
  6  8  1  0  0  0  0
  6 32  1  0  0  0  0
  7 33  1  0  0  0  0
  8  9  1  0  0  0  0
  8 34  1  0  0  0  0
  8 35  1  0  0  0  0
  9 19  1  0  0  0  0
  9 10  1  0  0  0  0
 10 11  1  0  0  0  0
 10 13  2  0  0  0  0
 11 12  1  0  0  0  0
 11 36  1  0  0  0  0
 11 37  1  0  0  0  0
 12 38  1  0  0  0  0
 13 14  1  0  0  0  0
 14 19  2  0  0  0  0
 14 15  1  0  0  0  0
 15 16  2  0  0  0  0
 15 39  1  0  0  0  0
 16 17  1  0  0  0  0
 16 40  1  0  0  0  0
 17 18  2  0  0  0  0
 17 41  1  0  0  0  0
 18 19  1  0  0  0  0
 18 42  1  0  0  0  0
 20 21  1  0  0  0  0
 20 43  1  0  0  0  0
 20 44  1  0  0  0  0
 21 22  1  0  0  0  0
 21 23  1  0  0  0  0
 21 45  1  0  0  0  0
 22 46  1  0  0  0  0
 22 47  1  0  0  0  0
 22 48  1  0  0  0  0
M  CHG  1   4   1
M  END
> <s_m_source_file>
AV-unprocessed.smi

> <i_m_source_file_index>
1703

> <i_lp_mmshare_version>
43012

> <i_f3d_flags>
0

> <s_epik_input>
W0NIM11bQ0BASF0xW0NIMl1OKFtDSDJdW0NASF0oTzEpW0NIM10pW0NIMl1bQ0BIXShbT0hdKVtDSDJdbihjKG4yKVtDSDJdW09IXSljKGMyMylbY0hdW2NIXVtjSF1bY0hdMw==

> <s_epik_cmdline>
J2VwaWtfcHl0aG9uJywgJy1waCcsICc3LjAnLCAnLXRuJywgJzgnLCAnLW1hJywgJzIwMCcsICctbWV0YWxfYmluZGluZycsICctaW1hZScsICc8aW5maWxlLm1hZT4nLCAnLW9tYWUnLCAnPG91dGZpbGUubWFlPic=

> <r_epik_Ionization_Penalty>
0.655661

> <r_epik_Ionization_Penalty_Charging>
0.608065

> <r_epik_Ionization_Penalty_Neutral>
0.0475963

> <r_epik_State_Penalty>
0.695267

> <r_epik_Charging_Adjusted_Penalty>
1.30333

> <i_epik_Tot_Q>
1

> <i_epik_Tot_abs_Q>
1

> <r_epik_Metal_State_Penalty>
0.653591

> <b_epik_Metal_Only>
0

> <s_lp_Force_Field>
OPLS_2005

> <r_lp_Energy>
21.8251

> <b_lp_Chiralities_Consistent>
1

> <s_lp_Variant>
AV-unprocessed.smi:1703-11

> <Gold.Version>
5.8.1

> <Gold.Id.Protein>
6NUR|6NUR_protein|mol2

> <Gold.PLP.Fitness>
52.1818

> <Gold.PLP.PLP>
-42.5105

> <Gold.PLP.part.hbond>
-3.0000

> <Gold.PLP.part.metal>
0.0000

> <Gold.PLP.part.buried>
-6.5165

> <Gold.PLP.part.nonpolar>
-33.7652

> <Gold.PLP.part.repulsive>
0.2785

> <Gold.PLP.ligand.clash>
0.0000

> <Gold.PLP.ligand.torsion>
1.2108

> <Gold.PLP.Chemscore.Hbond>
4.0000

> <Gold.PLP.Chemscore.CHOScore>
0.0000

> <Gold.PLP.Chemscore.Metal>
0.0000

> <Gold.Chemscore.Hbonds>
donor molecule, donor type, donor heavy atom, donor atom, acceptor molecule, acceptor atom, score
      L1  H     4    49       P1  8028  2.00
      P1  H  7989  7998       L1     7  1.00
      P1  H  7997  8008       L1    12  1.00

> <Gold.PLP.Chemscore.Internal.Correction>
0.0929

> <Gold.Rescore>
     Score         DG    S(hbond)    S(metal)    S(lipo)     H(rot)  DE(clash)    DE(int)     intcor
     17.34     -19.45       2.61        0.00     109.82       2.96       0.87       1.24       ----

> <Gold.Chemscore.Fitness>
17.3391

> <Gold.Chemscore.DG>
-19.4498

> <Gold.Chemscore.ZeroCoef>
-5.4800

> <Gold.Chemscore.Hbond>
2.6052

> <Gold.Chemscore.Metal>
0.0000

> <Gold.Chemscore.Lipo>
109.8170

> <Gold.Chemscore.Internal_Hbond>
0.0000

> <Gold.Chemscore.DEClash>
0.8720

> <Gold.Chemscore.DEInternal>
1.2386

> <Gold.Chemscore.Rot>
2.9611

> <Gold.Chemscore.Internal.Correction>
   9.000000E+99

> <Gold.Chemscore.Hbonds>
donor molecule, donor type, donor heavy atom, donor atom, acceptor molecule, acceptor atom, score
      L1  H     4    49       P1  8028  0.81
      P1  H  7989  7998       L1     7  0.94
      P1  H  7997  8008       L1    12  0.55

> <Gold.Chemscore.Hbond.Weighted>
-8.7015

> <Gold.Chemscore.Metal.Weighted>
-0.0000

> <Gold.Chemscore.Lipo.Weighted>
-12.8486

> <Gold.Chemscore.Internal_Hbond.Weighted>
0.0000

> <Gold.Chemscore.DEClash.Weighted>
0.8720

> <Gold.Chemscore.DEInternal.Weighted>
1.2386

> <Gold.Chemscore.Rot.Weighted>
7.5803

> <Gold.Chemscore.Internal.Correction.Weighted>
   9.000000E+99

> <Gold.Protein.RotatedTorsions>
[ 6907 6896 6895 6894 ] final   65.36 input  -60.11 | X-H torsion
[ 7974 7965 7964 7962 ] final   51.81 input  175.53 | X-H torsion
[ 8008 7997 7996 7995 ] final  -94.91 input   59.86 | X-H torsion
[ 10167 10162 10161 10158 ] final   35.46 input  -65.29 | X-H torsion
[ 10718 10713 10712 10709 ] final  114.43 input   66.30 | X-H torsion
[ 10763 10752 10751 10750 ] final  179.14 input  -60.55 | X-H torsion
[ 11005 11000 10999 10996 ] final   -3.87 input  -57.11 | X-H torsion

> <Gold.Protein.ActiveResidues>
 VAL166  LYS551  ARG553  GLY616  TRP617  ASP618  TYR619  PRO620  LYS621  CYS622 
 ASP623  PHE694  ASN695  SER759  ASP760  ASP761  ALA762  ILE779  LEU786  VAL792 
 PHE793  MET794  SER795  GLU796  ALA797  LYS798  CYS799  TRP800  GLU811  SER814 

> <Gold.Protein.RotatedAtoms>
  152.4402  134.5607  159.9893 H   0  0  0  0  0  0  0  0  0  0  0  0  # atno 6907 bound_to 6896
  151.5706  133.3385  159.2997 H   0  0  0  0  0  0  0  0  0  0  0  0  # atno 6908 bound_to 6896
  150.8306  134.7592  159.6915 H   0  0  0  0  0  0  0  0  0  0  0  0  # atno 6909 bound_to 6896
  145.9877  139.4306  143.0093 H   0  0  0  0  0  0  0  0  0  0  0  0  # atno 7974 bound_to 7965
  154.7545  140.0485  157.0922 H   0  0  0  0  0  0  0  0  0  0  0  0  # atno 8008 bound_to 7997
  155.0015  140.3125  155.4846 H   0  0  0  0  0  0  0  0  0  0  0  0  # atno 8009 bound_to 7997
  156.2892  140.2200  156.5125 H   0  0  0  0  0  0  0  0  0  0  0  0  # atno 8010 bound_to 7997
  140.4219  144.1447  150.6149 H   0  0  0  0  0  0  0  0  0  0  0  0  # atno 10167 bound_to 10162
  157.6282  131.0998  150.7184 H   0  0  0  0  0  0  0  0  0  0  0  0  # atno 10718 bound_to 10713
  154.5168  135.2791  155.1296 H   0  0  0  0  0  0  0  0  0  0  0  0  # atno 10763 bound_to 10752
  154.2870  135.6274  153.5373 H   0  0  0  0  0  0  0  0  0  0  0  0  # atno 10764 bound_to 10752
  152.9929  135.5665  154.5647 H   0  0  0  0  0  0  0  0  0  0  0  0  # atno 10765 bound_to 10752
  140.6741  133.9211  155.8513 H   0  0  0  0  0  0  0  0  0  0  0  0  # atno 11005 bound_to 11000
  145.7677  140.9909  143.1166 LP  0  0  0  0  0  0  0  0  0  0  0  0  # atno 17320 bound_to 7965
  144.6879  139.9408  143.7475 LP  0  0  0  0  0  0  0  0  0  0  0  0  # atno 17321 bound_to 7965
  140.4524  143.2481  151.9330 LP  0  0  0  0  0  0  0  0  0  0  0  0  # atno 17342 bound_to 10162
  139.4783  144.5549  151.8329 LP  0  0  0  0  0  0  0  0  0  0  0  0  # atno 17343 bound_to 10162
  156.7528  130.4774  149.5453 LP  0  0  0  0  0  0  0  0  0  0  0  0  # atno 17370 bound_to 10713
  156.1467  130.6282  151.0541 LP  0  0  0  0  0  0  0  0  0  0  0  0  # atno 17371 bound_to 10713
  141.0369  134.0677  157.3948 LP  0  0  0  0  0  0  0  0  0  0  0  0  # atno 17394 bound_to 11000
  139.8972  135.0149  156.7089 LP  0  0  0  0  0  0  0  0  0  0  0  0  # atno 17395 bound_to 11000

$$$$
