AV-unprocessed.smi:512|AV-procd|sdf|2769|dock1
  -GOLD-   2262023233D 1   1.00000     0.00000
 Structure written by MMmdl.
 48 50  0  0  0  0  0  0  0  0  1 V2000
  152.5995  143.4564  161.9112 C   0  0  0  0  0  0  0  0  0  0  0  0
  152.6356  143.6877  160.3989 C   0  0  0  0  0  0  0  0  0  0  0  0
  153.2840  142.5859  159.7902 O   0  0  0  0  0  0  0  0  0  0  0  0
  152.7155  141.3380  160.1514 C   0  0  0  0  0  0  0  0  0  0  0  0
  153.2692  140.2391  159.2338 C   0  0  0  0  0  0  0  0  0  0  0  0
  153.4186  138.9698  159.9436 N   0  0  0  0  0  0  0  0  0  0  0  0
  152.8449  137.7686  159.6597 C   0  0  0  0  0  0  0  0  0  0  0  0
  152.0168  137.5823  158.5527 N   0  0  0  0  0  0  0  0  0  0  0  0
  152.3351  136.8589  157.3241 C   0  0  0  0  0  0  0  0  0  0  0  0
  151.9732  137.6962  156.0818 C   0  0  0  0  0  0  0  0  0  0  0  0
  150.5356  137.9650  156.0859 N   0  0  0  0  0  0  0  0  0  0  0  0
  150.1831  138.7634  154.9213 C   0  0  0  0  0  0  0  0  0  0  0  0
  150.1973  138.6975  157.3064 C   0  0  0  0  0  0  0  0  0  0  0  0
  150.5828  137.8548  158.5388 C   0  0  0  0  0  0  0  0  0  0  0  0
  153.0939  136.8072  160.5528 N   0  0  0  0  0  0  0  0  0  0  0  0
  153.9176  137.4381  161.4718 C   0  0  0  0  0  0  0  0  0  0  0  0
  154.1180  138.7368  161.1307 C   0  0  0  0  0  0  0  0  0  0  0  0
  154.9128  139.6527  161.9628 C   0  0  0  0  0  0  0  0  0  0  0  0
  155.1000  140.8356  161.6874 O   0  0  0  0  0  0  0  0  0  0  0  0
  155.4139  139.0625  163.0749 N   0  0  0  0  0  0  0  0  0  0  0  0
  155.2523  137.7641  163.4724 C   0  0  0  0  0  0  0  0  0  0  0  0
  155.7635  137.3743  164.5221 O   0  0  0  0  0  0  0  0  0  0  0  0
  154.5092  136.9394  162.6674 N   0  0  0  0  0  0  0  0  0  0  0  0
  154.2976  135.5405  163.0443 C   0  0  0  0  0  0  0  0  0  0  0  0
  155.9650  139.6503  163.6833 H   0  0  0  0  0  0  0  0  0  0  0  0
  152.0993  144.2803  162.4202 H   0  0  0  0  0  0  0  0  0  0  0  0
  153.6080  143.3736  162.3175 H   0  0  0  0  0  0  0  0  0  0  0  0
  152.0641  142.5381  162.1534 H   0  0  0  0  0  0  0  0  0  0  0  0
  151.6201  143.7872  160.0127 H   0  0  0  0  0  0  0  0  0  0  0  0
  153.1696  144.6119  160.1739 H   0  0  0  0  0  0  0  0  0  0  0  0
  152.9541  141.1063  161.1904 H   0  0  0  0  0  0  0  0  0  0  0  0
  151.6289  141.3826  160.0675 H   0  0  0  0  0  0  0  0  0  0  0  0
  152.6211  140.1144  158.3715 H   0  0  0  0  0  0  0  0  0  0  0  0
  154.2275  140.5412  158.8172 H   0  0  0  0  0  0  0  0  0  0  0  0
  153.3875  136.5790  157.3093 H   0  0  0  0  0  0  0  0  0  0  0  0
  151.7829  135.9181  157.3121 H   0  0  0  0  0  0  0  0  0  0  0  0
  152.5382  138.6297  156.0691 H   0  0  0  0  0  0  0  0  0  0  0  0
  152.2374  137.1465  155.1776 H   0  0  0  0  0  0  0  0  0  0  0  0
  149.1125  138.9710  154.9104 H   0  0  0  0  0  0  0  0  0  0  0  0
  150.4271  138.2281  154.0030 H   0  0  0  0  0  0  0  0  0  0  0  0
  150.7163  139.7153  154.9141 H   0  0  0  0  0  0  0  0  0  0  0  0
  150.7111  139.6602  157.3299 H   0  0  0  0  0  0  0  0  0  0  0  0
  149.1263  138.9031  157.3222 H   0  0  0  0  0  0  0  0  0  0  0  0
  150.0275  136.9157  158.5533 H   0  0  0  0  0  0  0  0  0  0  0  0
  150.3085  138.3939  159.4463 H   0  0  0  0  0  0  0  0  0  0  0  0
  155.2397  135.0585  163.3105 H   0  0  0  0  0  0  0  0  0  0  0  0
  153.8572  134.9543  162.2377 H   0  0  0  0  0  0  0  0  0  0  0  0
  153.6288  135.4785  163.9034 H   0  0  0  0  0  0  0  0  0  0  0  0
  1  2  1  0  0  0  0
  1 26  1  0  0  0  0
  1 27  1  0  0  0  0
  1 28  1  0  0  0  0
  2  3  1  0  0  0  0
  2 29  1  0  0  0  0
  2 30  1  0  0  0  0
  3  4  1  0  0  0  0
  4  5  1  0  0  0  0
  4 31  1  0  0  0  0
  4 32  1  0  0  0  0
  5  6  1  0  0  0  0
  5 33  1  0  0  0  0
  5 34  1  0  0  0  0
  6 17  1  0  0  0  0
  6  7  1  0  0  0  0
  7  8  1  0  0  0  0
  7 15  2  0  0  0  0
  8 14  1  0  0  0  0
  8  9  1  0  0  0  0
  9 10  1  0  0  0  0
  9 35  1  0  0  0  0
  9 36  1  0  0  0  0
 10 11  1  0  0  0  0
 10 37  1  0  0  0  0
 10 38  1  0  0  0  0
 11 12  1  0  0  0  0
 11 13  1  0  0  0  0
 12 39  1  0  0  0  0
 12 40  1  0  0  0  0
 12 41  1  0  0  0  0
 13 14  1  0  0  0  0
 13 42  1  0  0  0  0
 13 43  1  0  0  0  0
 14 44  1  0  0  0  0
 14 45  1  0  0  0  0
 15 16  1  0  0  0  0
 16 23  1  0  0  0  0
 16 17  2  0  0  0  0
 17 18  1  0  0  0  0
 18 19  2  0  0  0  0
 18 20  1  0  0  0  0
 20 25  1  0  0  0  0
 20 21  1  0  0  0  0
 21 22  2  0  0  0  0
 21 23  1  0  0  0  0
 23 24  1  0  0  0  0
 24 46  1  0  0  0  0
 24 47  1  0  0  0  0
 24 48  1  0  0  0  0
M  END
> <s_m_source_file>
AV-unprocessed.smi

> <i_m_source_file_index>
512

> <i_lp_mmshare_version>
43012

> <i_f3d_flags>
0

> <s_epik_input>
W0NIM11uMWMoPU8pW25IXWMoPU8pYyhjMTIpbihbQ0gyXVtDSDJdT1tDSDJdW0NIM10pYyhuMilOM1tDSDJdW0NIMl1OKFtDSDNdKVtDSDJdW0NIMl0z

> <s_epik_cmdline>
J2VwaWtfcHl0aG9uJywgJy1waCcsICc3LjAnLCAnLXRuJywgJzgnLCAnLW1hJywgJzIwMCcsICctbWV0YWxfYmluZGluZycsICctaW1hZScsICc8aW5maWxlLm1hZT4nLCAnLW9tYWUnLCAnPG91dGZpbGUubWFlPic=

> <r_epik_Ionization_Penalty>
1.34391

> <r_epik_Ionization_Penalty_Charging>
1.55829e-05

> <r_epik_Ionization_Penalty_Neutral>
1.34389

> <r_epik_State_Penalty>
1.4212

> <r_epik_Charging_Adjusted_Penalty>
1.42122

> <i_epik_Tot_Q>
0

> <i_epik_Tot_abs_Q>
0

> <r_epik_Metal_State_Penalty>
1.44738

> <b_epik_Metal_Only>
0

> <s_lp_Force_Field>
OPLS_2005

> <r_lp_Energy>
48.5788

> <b_lp_Chiralities_Consistent>
1

> <s_lp_Variant>
AV-unprocessed.smi:512-2

> <Gold.Version>
5.8.1

> <Gold.Id.Protein>
6NUR|6NUR_protein|mol2

> <Gold.PLP.Fitness>
37.8863

> <Gold.PLP.PLP>
-38.5463

> <Gold.PLP.part.hbond>
-1.6913

> <Gold.PLP.part.metal>
0.0000

> <Gold.PLP.part.buried>
-6.9383

> <Gold.PLP.part.nonpolar>
-30.3205

> <Gold.PLP.part.repulsive>
0.0785

> <Gold.PLP.ligand.clash>
0.0000

> <Gold.PLP.ligand.torsion>
1.7367

> <Gold.PLP.Chemscore.Hbond>
0.7800

> <Gold.PLP.Chemscore.CHOScore>
0.0000

> <Gold.PLP.Chemscore.Metal>
0.0000

> <Gold.Chemscore.Hbonds>
donor molecule, donor type, donor heavy atom, donor atom, acceptor molecule, acceptor atom, score
      P1  H  6896  6908       L1    15  0.80

> <Gold.PLP.Chemscore.Internal.Correction>
0.4733

> <Gold.Rescore>
     Score         DG    S(hbond)    S(metal)    S(lipo)     H(rot)  DE(clash)    DE(int)     intcor
     10.83     -13.28       0.97        0.00      74.64       1.63       0.07       2.38       ----

> <Gold.Chemscore.Fitness>
10.8313

> <Gold.Chemscore.DG>
-13.2766

> <Gold.Chemscore.ZeroCoef>
-5.4800

> <Gold.Chemscore.Hbond>
0.9712

> <Gold.Chemscore.Metal>
0.0000

> <Gold.Chemscore.Lipo>
74.6403

> <Gold.Chemscore.Internal_Hbond>
0.0000

> <Gold.Chemscore.DEClash>
0.0689

> <Gold.Chemscore.DEInternal>
2.3764

> <Gold.Chemscore.Rot>
1.6328

> <Gold.Chemscore.Internal.Correction>
   9.000000E+99

> <Gold.Chemscore.Hbonds>
donor molecule, donor type, donor heavy atom, donor atom, acceptor molecule, acceptor atom, score
      P1  H  6896  6908       L1    15  0.67

> <Gold.Chemscore.Hbond.Weighted>
-3.2437

> <Gold.Chemscore.Metal.Weighted>
-0.0000

> <Gold.Chemscore.Lipo.Weighted>
-8.7329

> <Gold.Chemscore.Internal_Hbond.Weighted>
0.0000

> <Gold.Chemscore.DEClash.Weighted>
0.0689

> <Gold.Chemscore.DEInternal.Weighted>
2.3764

> <Gold.Chemscore.Rot.Weighted>
4.1800

> <Gold.Chemscore.Internal.Correction.Weighted>
   9.000000E+99

> <Gold.Protein.RotatedTorsions>
[ 6907 6896 6895 6894 ] final  -85.25 input  -60.11 | X-H torsion
[ 7974 7965 7964 7962 ] final   -3.85 input  175.53 | X-H torsion
[ 8008 7997 7996 7995 ] final  158.42 input   59.86 | X-H torsion
[ 10167 10162 10161 10158 ] final  -74.28 input  -65.29 | X-H torsion
[ 10718 10713 10712 10709 ] final  172.64 input   66.30 | X-H torsion
[ 10763 10752 10751 10750 ] final -161.28 input  -60.55 | X-H torsion
[ 11005 11000 10999 10996 ] final  -48.55 input  -57.11 | X-H torsion

> <Gold.Protein.ActiveResidues>
 VAL166  LYS551  ARG553  GLY616  TRP617  ASP618  TYR619  PRO620  LYS621  CYS622 
 ASP623  PHE694  ASN695  SER759  ASP760  ASP761  ALA762  ILE779  LEU786  VAL792 
 PHE793  MET794  SER795  GLU796  ALA797  LYS798  CYS799  TRP800  GLU811  SER814 

> <Gold.Protein.RotatedAtoms>
  150.6871  134.3234  159.4796 H   0  0  0  0  0  0  0  0  0  0  0  0  # atno 6907 bound_to 6896
  152.1107  134.9274  160.0576 H   0  0  0  0  0  0  0  0  0  0  0  0  # atno 6908 bound_to 6896
  152.0517  133.3987  159.4417 H   0  0  0  0  0  0  0  0  0  0  0  0  # atno 6909 bound_to 6896
  146.2382  140.1784  142.8332 H   0  0  0  0  0  0  0  0  0  0  0  0  # atno 7974 bound_to 7965
  156.2304  140.1859  156.7257 H   0  0  0  0  0  0  0  0  0  0  0  0  # atno 8008 bound_to 7997
  154.6012  140.0636  156.9399 H   0  0  0  0  0  0  0  0  0  0  0  0  # atno 8009 bound_to 7997
  155.2171  140.3304  155.4323 H   0  0  0  0  0  0  0  0  0  0  0  0  # atno 8010 bound_to 7997
  140.5040  143.2356  151.7704 H   0  0  0  0  0  0  0  0  0  0  0  0  # atno 10167 bound_to 10162
  156.9759  131.0104  151.2893 H   0  0  0  0  0  0  0  0  0  0  0  0  # atno 10718 bound_to 10713
  154.7317  135.3048  154.8880 H   0  0  0  0  0  0  0  0  0  0  0  0  # atno 10763 bound_to 10752
  153.9721  135.6740  153.4751 H   0  0  0  0  0  0  0  0  0  0  0  0  # atno 10764 bound_to 10752
  153.0924  135.4952  154.8637 H   0  0  0  0  0  0  0  0  0  0  0  0  # atno 10765 bound_to 10752
  141.0707  133.6680  156.3457 H   0  0  0  0  0  0  0  0  0  0  0  0  # atno 11005 bound_to 11000
  144.9955  140.8585  143.5314 LP  0  0  0  0  0  0  0  0  0  0  0  0  # atno 17320 bound_to 7965
  145.1796  139.2359  143.5299 LP  0  0  0  0  0  0  0  0  0  0  0  0  # atno 17321 bound_to 7965
  139.4879  144.4482  151.9685 LP  0  0  0  0  0  0  0  0  0  0  0  0  # atno 17342 bound_to 10162
  140.3572  144.3017  150.5939 LP  0  0  0  0  0  0  0  0  0  0  0  0  # atno 17343 bound_to 10162
  157.5560  130.8214  149.8205 LP  0  0  0  0  0  0  0  0  0  0  0  0  # atno 17370 bound_to 10713
  156.0264  130.3778  150.1812 LP  0  0  0  0  0  0  0  0  0  0  0  0  # atno 17371 bound_to 10713
  140.5679  134.5870  157.5450 LP  0  0  0  0  0  0  0  0  0  0  0  0  # atno 17394 bound_to 11000
  139.9521  134.7599  156.0425 LP  0  0  0  0  0  0  0  0  0  0  0  0  # atno 17395 bound_to 11000

$$$$
