AV-unprocessed.smi:678|AV-procd|sdf|3316|dock3
  -GOLD-   22720 0283D 1   1.00000     0.00000
 Structure written by MMmdl.
 51 52  0  0  0  0  0  0  0  0  2 V2000
  153.5838  141.0690  160.4587 C   0  0  0  0  0  0  0  0  0  0  0  0
  152.6704  141.8995  159.5752 C   0  0  0  0  0  0  0  0  0  0  0  0
  152.2520  143.1271  159.9519 C   0  0  0  0  0  0  0  0  0  0  0  0
  151.3850  143.9111  159.1066 C   0  0  0  0  0  0  0  0  0  0  0  0
  151.0076  143.3912  157.9299 C   0  0  0  0  0  0  0  0  0  0  0  0
  151.4318  142.1164  157.5117 N   0  0  0  0  0  0  0  0  0  0  0  0
  150.9599  141.6519  156.1958 C   0  0  0  0  0  0  0  0  0  0  0  0
  149.5362  141.0834  156.2458 C   0  0  0  0  0  0  0  0  0  0  0  0
  148.6205  141.7341  156.7503 O   0  0  0  0  0  0  0  0  0  0  0  0
  149.3710  139.8569  155.7281 N   0  0  0  0  0  0  0  0  0  0  0  0
  148.1344  139.0825  155.7645 C   0  0  0  0  0  0  0  0  0  0  0  0
  147.7964  138.4827  154.3857 C   0  0  1  0  0  0  0  0  0  0  0  0
  146.9359  137.2019  154.4617 C   0  0  0  0  0  0  0  0  0  0  0  0
  146.5888  136.7164  153.1041 N   0  3  1  0  0  0  0  0  0  0  0  0
  145.7821  135.4683  153.0990 C   0  0  0  0  0  0  0  0  0  0  0  0
  145.7125  134.7705  151.7214 C   0  0  0  0  0  0  0  0  0  0  0  0
  144.7330  135.4703  150.7641 C   0  0  0  0  0  0  0  0  0  0  0  0
  145.3332  133.2917  151.8922 C   0  0  0  0  0  0  0  0  0  0  0  0
  145.9493  137.7968  152.3167 C   0  0  0  0  0  0  0  0  0  0  0  0
  146.8315  139.0552  152.3072 C   0  0  0  0  0  0  0  0  0  0  0  0
  147.0858  139.4676  153.6441 O   0  0  0  0  0  0  0  0  0  0  0  0
  152.2470  141.3295  158.2828 C   0  0  0  0  0  0  0  0  0  0  0  0
  152.6011  140.2089  157.9093 O   0  0  0  0  0  0  0  0  0  0  0  0
  153.8452  141.6010  161.3740 H   0  0  0  0  0  0  0  0  0  0  0  0
  154.5082  140.8263  159.9339 H   0  0  0  0  0  0  0  0  0  0  0  0
  153.0934  140.1381  160.7401 H   0  0  0  0  0  0  0  0  0  0  0  0
  152.5681  143.5366  160.9003 H   0  0  0  0  0  0  0  0  0  0  0  0
  151.0478  144.8900  159.4142 H   0  0  0  0  0  0  0  0  0  0  0  0
  150.3570  143.9121  157.2426 H   0  0  0  0  0  0  0  0  0  0  0  0
  150.9752  142.4604  155.4636 H   0  0  0  0  0  0  0  0  0  0  0  0
  151.6491  140.8995  155.8071 H   0  0  0  0  0  0  0  0  0  0  0  0
  150.1770  139.4053  155.3203 H   0  0  0  0  0  0  0  0  0  0  0  0
  148.1785  138.3011  156.5251 H   0  0  0  0  0  0  0  0  0  0  0  0
  147.3364  139.7595  156.0702 H   0  0  0  0  0  0  0  0  0  0  0  0
  148.7319  138.2627  153.8671 H   0  0  0  0  0  0  0  0  0  0  0  0
  147.4892  136.4284  154.9895 H   0  0  0  0  0  0  0  0  0  0  0  0
  146.0239  137.3920  155.0298 H   0  0  0  0  0  0  0  0  0  0  0  0
  146.1809  134.7837  153.8495 H   0  0  0  0  0  0  0  0  0  0  0  0
  144.7650  135.7070  153.4141 H   0  0  0  0  0  0  0  0  0  0  0  0
  146.6999  134.7833  151.2608 H   0  0  0  0  0  0  0  0  0  0  0  0
  143.7238  135.4943  151.1767 H   0  0  0  0  0  0  0  0  0  0  0  0
  144.6868  134.9545  149.8043 H   0  0  0  0  0  0  0  0  0  0  0  0
  145.0367  136.4975  150.5615 H   0  0  0  0  0  0  0  0  0  0  0  0
  144.3490  133.1842  152.3489 H   0  0  0  0  0  0  0  0  0  0  0  0
  146.0524  132.7721  152.5261 H   0  0  0  0  0  0  0  0  0  0  0  0
  145.3102  132.7741  150.9331 H   0  0  0  0  0  0  0  0  0  0  0  0
  145.7808  137.4604  151.2929 H   0  0  0  0  0  0  0  0  0  0  0  0
  144.9722  138.0303  152.7429 H   0  0  0  0  0  0  0  0  0  0  0  0
  147.7708  138.8706  151.7833 H   0  0  0  0  0  0  0  0  0  0  0  0
  146.3265  139.8636  151.7782 H   0  0  0  0  0  0  0  0  0  0  0  0
  147.4584  136.4995  152.6382 H   0  0  0  0  0  0  0  0  0  0  0  0
  1  2  1  0  0  0  0
  1 24  1  0  0  0  0
  1 25  1  0  0  0  0
  1 26  1  0  0  0  0
  2 22  1  0  0  0  0
  2  3  2  0  0  0  0
  3  4  1  0  0  0  0
  3 27  1  0  0  0  0
  4  5  2  0  0  0  0
  4 28  1  0  0  0  0
  5  6  1  0  0  0  0
  5 29  1  0  0  0  0
  6  7  1  0  0  0  0
  6 22  1  0  0  0  0
  7  8  1  0  0  0  0
  7 30  1  0  0  0  0
  7 31  1  0  0  0  0
  8  9  2  0  0  0  0
  8 10  1  0  0  0  0
 10 11  1  0  0  0  0
 10 32  1  0  0  0  0
 11 12  1  0  0  0  0
 11 33  1  0  0  0  0
 11 34  1  0  0  0  0
 12 21  1  0  0  0  0
 12 13  1  0  0  0  0
 12 35  1  0  0  0  0
 13 14  1  0  0  0  0
 13 36  1  0  0  0  0
 13 37  1  0  0  0  0
 14 15  1  0  0  0  0
 14 19  1  0  0  0  0
 14 51  1  0  0  0  0
 15 16  1  0  0  0  0
 15 38  1  0  0  0  0
 15 39  1  0  0  0  0
 16 17  1  0  0  0  0
 16 18  1  0  0  0  0
 16 40  1  0  0  0  0
 17 41  1  0  0  0  0
 17 42  1  0  0  0  0
 17 43  1  0  0  0  0
 18 44  1  0  0  0  0
 18 45  1  0  0  0  0
 18 46  1  0  0  0  0
 19 20  1  0  0  0  0
 19 47  1  0  0  0  0
 19 48  1  0  0  0  0
 20 21  1  0  0  0  0
 20 49  1  0  0  0  0
 20 50  1  0  0  0  0
 22 23  2  0  0  0  0
M  CHG  1  14   1
M  END
> <s_m_source_file>
AV-unprocessed.smi

> <i_m_source_file_index>
678

> <i_lp_mmshare_version>
43012

> <i_f3d_flags>
0

> <s_epik_input>
W0NIM11jMVtjSF1bY0hdW2NIXW4oYzE9TylbQ0gyXUMoPU8pW05IXVtDSDJdW0NAQEhdMltDSDJdTihbQ0gyXVtDSDJdTzIpW0NIMl1bQ0hdKFtDSDNdKVtDSDNd

> <s_epik_cmdline>
J2VwaWtfcHl0aG9uJywgJy1waCcsICc3LjAnLCAnLXRuJywgJzgnLCAnLW1hJywgJzIwMCcsICctbWV0YWxfYmluZGluZycsICctaW1hZScsICc8aW5maWxlLm1hZT4nLCAnLW9tYWUnLCAnPG91dGZpbGUubWFlPic=

> <r_lp_tautomer_probability>
1

> <r_epik_Ionization_Penalty>
0.0975937

> <r_epik_Ionization_Penalty_Charging>
0.0975937

> <r_epik_Ionization_Penalty_Neutral>
6.27044e-08

> <r_epik_State_Penalty>
0.0877056

> <r_epik_Charging_Adjusted_Penalty>
0.185299

> <i_epik_Tot_Q>
1

> <i_epik_Tot_abs_Q>
1

> <r_epik_Metal_State_Penalty>
0.0877109

> <b_epik_Metal_Only>
0

> <s_lp_Force_Field>
OPLS_2005

> <r_lp_Energy>
24.9946

> <b_lp_Chiralities_Consistent>
1

> <s_lp_Variant>
AV-unprocessed.smi:678-4

> <Gold.Version>
5.8.1

> <Gold.Id.Protein>
6NUR|6NUR_protein|mol2

> <Gold.PLP.Fitness>
50.0129

> <Gold.PLP.PLP>
-39.8580

> <Gold.PLP.part.hbond>
-2.0000

> <Gold.PLP.part.metal>
0.0000

> <Gold.PLP.part.buried>
-5.1393

> <Gold.PLP.part.nonpolar>
-33.8122

> <Gold.PLP.part.repulsive>
0.3639

> <Gold.PLP.ligand.clash>
0.0000

> <Gold.PLP.ligand.torsion>
0.9544

> <Gold.PLP.Chemscore.Hbond>
3.0000

> <Gold.PLP.Chemscore.CHOScore>
1.0000

> <Gold.PLP.Chemscore.Metal>
0.0000

> <Gold.Chemscore.Hbonds>
donor molecule, donor type, donor heavy atom, donor atom, acceptor molecule, acceptor atom, score
      L1  H    14    51       P1  7948  2.00
      P1  H  7997  8009       L1    23  0.71
      L1  C     5    29       P1  8028  1.00

> <Gold.PLP.Chemscore.Internal.Correction>
0.0637

> <Gold.Rescore>
     Score         DG    S(hbond)    S(metal)    S(lipo)     H(rot)  DE(clash)    DE(int)     intcor
     17.84     -18.90       1.93        0.00     100.97       1.89       0.07       0.99       ----

> <Gold.Chemscore.Fitness>
17.8356

> <Gold.Chemscore.DG>
-18.8986

> <Gold.Chemscore.ZeroCoef>
-5.4800

> <Gold.Chemscore.Hbond>
1.9268

> <Gold.Chemscore.Metal>
0.0000

> <Gold.Chemscore.Lipo>
100.9742

> <Gold.Chemscore.Internal_Hbond>
0.0000

> <Gold.Chemscore.DEClash>
0.0698

> <Gold.Chemscore.DEInternal>
0.9933

> <Gold.Chemscore.Rot>
1.8871

> <Gold.Chemscore.Internal.Correction>
   9.000000E+99

> <Gold.Chemscore.Hbonds>
donor molecule, donor type, donor heavy atom, donor atom, acceptor molecule, acceptor atom, score
      L1  H    14    51       P1  7948  1.00
      P1  H  7997  8009       L1    23  0.65

> <Gold.Chemscore.Hbond.Weighted>
-6.4356

> <Gold.Chemscore.Metal.Weighted>
-0.0000

> <Gold.Chemscore.Lipo.Weighted>
-11.8140

> <Gold.Chemscore.Internal_Hbond.Weighted>
0.0000

> <Gold.Chemscore.DEClash.Weighted>
0.0698

> <Gold.Chemscore.DEInternal.Weighted>
0.9933

> <Gold.Chemscore.Rot.Weighted>
4.8309

> <Gold.Chemscore.Internal.Correction.Weighted>
   9.000000E+99

> <Gold.Protein.RotatedTorsions>
[ 6907 6896 6895 6894 ] final -173.19 input  -60.11 | X-H torsion
[ 7974 7965 7964 7962 ] final   86.45 input  175.53 | X-H torsion
[ 8008 7997 7996 7995 ] final  167.47 input   59.86 | X-H torsion
[ 10167 10162 10161 10158 ] final  -37.10 input  -65.29 | X-H torsion
[ 10718 10713 10712 10709 ] final   18.99 input   66.30 | X-H torsion
[ 10763 10752 10751 10750 ] final  -63.37 input  -60.55 | X-H torsion
[ 11005 11000 10999 10996 ] final -156.14 input  -57.11 | X-H torsion

> <Gold.Protein.ActiveResidues>
 VAL166  LYS551  ARG553  GLY616  TRP617  ASP618  TYR619  PRO620  LYS621  CYS622 
 ASP623  PHE694  ASN695  SER759  ASP760  ASP761  ALA762  ILE779  LEU786  VAL792 
 PHE793  MET794  SER795  GLU796  ALA797  LYS798  CYS799  TRP800  GLU811  SER814 

> <Gold.Protein.RotatedAtoms>
  151.5521  133.3416  159.2954 H   0  0  0  0  0  0  0  0  0  0  0  0  # atno 6907 bound_to 6896
  150.8472  134.7788  159.6991 H   0  0  0  0  0  0  0  0  0  0  0  0  # atno 6908 bound_to 6896
  152.4527  134.5366  159.9878 H   0  0  0  0  0  0  0  0  0  0  0  0  # atno 6909 bound_to 6896
  145.5721  139.2315  143.2400 H   0  0  0  0  0  0  0  0  0  0  0  0  # atno 7974 bound_to 7965
  156.1631  140.1616  156.8578 H   0  0  0  0  0  0  0  0  0  0  0  0  # atno 8008 bound_to 7997
  154.5180  140.0785  156.8153 H   0  0  0  0  0  0  0  0  0  0  0  0  # atno 8009 bound_to 7997
  155.3667  140.3398  155.4244 H   0  0  0  0  0  0  0  0  0  0  0  0  # atno 8010 bound_to 7997
  140.7126  143.3364  151.2453 H   0  0  0  0  0  0  0  0  0  0  0  0  # atno 10167 bound_to 10162
  157.1042  130.6481  149.5880 H   0  0  0  0  0  0  0  0  0  0  0  0  # atno 10718 bound_to 10713
  154.3141  135.6209  153.5478 H   0  0  0  0  0  0  0  0  0  0  0  0  # atno 10763 bound_to 10752
  152.9826  135.5708  154.5144 H   0  0  0  0  0  0  0  0  0  0  0  0  # atno 10764 bound_to 10752
  154.4800  135.2863  155.1554 H   0  0  0  0  0  0  0  0  0  0  0  0  # atno 10765 bound_to 10752
  140.6789  134.4166  157.5228 H   0  0  0  0  0  0  0  0  0  0  0  0  # atno 11005 bound_to 11000
  146.1777  140.6547  142.9204 LP  0  0  0  0  0  0  0  0  0  0  0  0  # atno 17320 bound_to 7965
  144.7433  140.5000  143.6854 LP  0  0  0  0  0  0  0  0  0  0  0  0  # atno 17321 bound_to 7965
  139.6860  143.9772  152.2834 LP  0  0  0  0  0  0  0  0  0  0  0  0  # atno 17342 bound_to 10162
  139.9418  144.6676  150.8258 LP  0  0  0  0  0  0  0  0  0  0  0  0  # atno 17343 bound_to 10162
  155.9866  130.4901  150.7087 LP  0  0  0  0  0  0  0  0  0  0  0  0  # atno 17370 bound_to 10713
  157.4615  131.0883  151.0741 LP  0  0  0  0  0  0  0  0  0  0  0  0  # atno 17371 bound_to 10713
  139.8958  134.8674  156.2116 LP  0  0  0  0  0  0  0  0  0  0  0  0  # atno 17394 bound_to 11000
  141.0333  133.6976  156.1469 LP  0  0  0  0  0  0  0  0  0  0  0  0  # atno 17395 bound_to 11000

$$$$
