AV-unprocessed.smi:1381|AV-procd|sdf|5618|dock10
  -GOLD-   22720 5233D 1   1.00000     0.00000
 Structure written by MMmdl.
 42 43  0  0  0  0  0  0  0  0  3 V2000
  151.9735  144.7770  159.5395 C   0  0  0  0  0  0  0  0  0  0  0  0
  151.6581  143.5281  158.7899 C   0  0  0  0  0  0  0  0  0  0  0  0
  151.5822  143.2377  157.4571 C   0  0  0  0  0  0  0  0  0  0  0  0
  151.2363  141.8600  157.4477 C   0  0  0  0  0  0  0  0  0  0  0  0
  151.0616  141.1677  156.2203 N   0  0  0  0  0  0  0  0  0  0  0  0
  151.6936  140.0665  155.7746 C   0  0  0  0  0  0  0  0  0  0  0  0
  152.5471  139.5090  156.4751 O   0  0  0  0  0  0  0  0  0  0  0  0
  151.2725  139.7011  154.5327 N   0  5  0  0  0  0  0  0  0  0  0  0
  150.9257  138.3368  154.1426 C   0  0  0  0  0  0  0  0  0  0  0  0
  149.7897  137.8153  155.0437 C   0  0  0  0  0  0  0  0  0  0  0  0
  148.4689  137.8587  154.3616 N   0  3  1  0  0  0  0  0  0  0  0  0
  147.4124  137.1294  155.1015 C   0  0  0  0  0  0  0  0  0  0  0  0
  146.1087  137.0968  154.2839 C   0  0  1  0  0  0  0  0  0  0  0  0
  144.9646  136.4276  155.0537 C   0  0  0  0  0  0  0  0  0  0  0  0
  145.7071  138.4286  153.9722 O   0  0  0  0  0  0  0  0  0  0  0  0
  146.6749  139.1955  153.2553 C   0  0  2  0  0  0  0  0  0  0  0  0
  146.8305  138.7264  151.7978 C   0  0  0  0  0  0  0  0  0  0  0  0
  148.0045  139.2323  154.0326 C   0  0  0  0  0  0  0  0  0  0  0  0
  151.1132  141.3558  158.6666 N   0  0  0  0  0  0  0  0  0  0  0  0
  151.3828  142.4221  159.5327 O   0  0  0  0  0  0  0  0  0  0  0  0
  152.1531  145.6071  158.8559 H   0  0  0  0  0  0  0  0  0  0  0  0
  152.8654  144.6447  160.1521 H   0  0  0  0  0  0  0  0  0  0  0  0
  151.1481  145.0524  160.1962 H   0  0  0  0  0  0  0  0  0  0  0  0
  151.7478  143.9041  156.6240 H   0  0  0  0  0  0  0  0  0  0  0  0
  150.3739  141.5593  155.5943 H   0  0  0  0  0  0  0  0  0  0  0  0
  150.6041  138.2806  153.1019 H   0  0  0  0  0  0  0  0  0  0  0  0
  151.7807  137.6647  154.2268 H   0  0  0  0  0  0  0  0  0  0  0  0
  150.0258  136.7851  155.3160 H   0  0  0  0  0  0  0  0  0  0  0  0
  149.7448  138.3718  155.9816 H   0  0  0  0  0  0  0  0  0  0  0  0
  147.7401  136.1079  155.3007 H   0  0  0  0  0  0  0  0  0  0  0  0
  147.2478  137.6091  156.0677 H   0  0  0  0  0  0  0  0  0  0  0  0
  146.2687  136.5358  153.3629 H   0  0  0  0  0  0  0  0  0  0  0  0
  145.2151  135.3990  155.3145 H   0  0  0  0  0  0  0  0  0  0  0  0
  144.0532  136.4055  154.4555 H   0  0  0  0  0  0  0  0  0  0  0  0
  144.7430  136.9628  155.9775 H   0  0  0  0  0  0  0  0  0  0  0  0
  146.2849  140.2133  153.2180 H   0  0  0  0  0  0  0  0  0  0  0  0
  147.4696  139.4108  151.2393 H   0  0  0  0  0  0  0  0  0  0  0  0
  145.8643  138.6936  151.2942 H   0  0  0  0  0  0  0  0  0  0  0  0
  147.2795  137.7361  151.7265 H   0  0  0  0  0  0  0  0  0  0  0  0
  147.8706  139.7932  154.9589 H   0  0  0  0  0  0  0  0  0  0  0  0
  148.7567  139.7667  153.4512 H   0  0  0  0  0  0  0  0  0  0  0  0
  148.5930  137.3666  153.4881 H   0  0  0  0  0  0  0  0  0  0  0  0
  1  2  1  0  0  0  0
  1 21  1  0  0  0  0
  1 22  1  0  0  0  0
  1 23  1  0  0  0  0
  2 20  1  0  0  0  0
  2  3  2  0  0  0  0
  3  4  1  0  0  0  0
  3 24  1  0  0  0  0
  4  5  1  0  0  0  0
  4 19  2  0  0  0  0
  5  6  1  0  0  0  0
  5 25  1  0  0  0  0
  6  7  2  0  0  0  0
  6  8  1  0  0  0  0
  8  9  1  0  0  0  0
  9 10  1  0  0  0  0
  9 26  1  0  0  0  0
  9 27  1  0  0  0  0
 10 11  1  0  0  0  0
 10 28  1  0  0  0  0
 10 29  1  0  0  0  0
 11 18  1  0  0  0  0
 11 12  1  0  0  0  0
 11 42  1  0  0  0  0
 12 13  1  0  0  0  0
 12 30  1  0  0  0  0
 12 31  1  0  0  0  0
 13 14  1  0  0  0  0
 13 15  1  0  0  0  0
 13 32  1  0  0  0  0
 14 33  1  0  0  0  0
 14 34  1  0  0  0  0
 14 35  1  0  0  0  0
 15 16  1  0  0  0  0
 16 17  1  0  0  0  0
 16 18  1  0  0  0  0
 16 36  1  0  0  0  0
 17 37  1  0  0  0  0
 17 38  1  0  0  0  0
 17 39  1  0  0  0  0
 18 40  1  0  0  0  0
 18 41  1  0  0  0  0
 19 20  1  0  0  0  0
M  CHG  1   8  -1
M  CHG  1  11   1
M  END
> <s_m_source_file>
AV-unprocessed.smi

> <i_m_source_file_index>
1381

> <i_lp_mmshare_version>
43012

> <i_f3d_flags>
0

> <s_epik_input>
W0NIM11jMVtjSF1jKG5vMSlbTkhdQyg9TylbTkhdW0NIMl1bQ0gyXU4yW0NIMl1bQ0BASF0oW0NIM10pT1tDQEBIXShbQ0gzXSlbQ0gyXTI=

> <s_epik_cmdline>
J2VwaWtfcHl0aG9uJywgJy1waCcsICc3LjAnLCAnLXRuJywgJzgnLCAnLW1hJywgJzIwMCcsICctbWV0YWxfYmluZGluZycsICctaW1hZScsICc8aW5maWxlLm1hZT4nLCAnLW9tYWUnLCAnPG91dGZpbGUubWFlPic=

> <r_epik_Ionization_Penalty>
6.8073

> <r_epik_Ionization_Penalty_Charging>
6.80729

> <r_epik_Ionization_Penalty_Neutral>
5.65391e-06

> <r_epik_State_Penalty>
7.47323

> <r_epik_Charging_Adjusted_Penalty>
14.2805

> <i_epik_Tot_Q>
0

> <i_epik_Tot_abs_Q>
2

> <r_epik_Metal_State_Penalty>
3.40035

> <b_epik_Metal_Only>
1

> <s_lp_Force_Field>
OPLS_2005

> <r_lp_Energy>
14.8512

> <b_lp_Chiralities_Consistent>
1

> <s_lp_Variant>
AV-unprocessed.smi:1381-17

> <Gold.Version>
5.8.1

> <Gold.Id.Protein>
6NUR|6NUR_protein|mol2

> <Gold.PLP.Fitness>
41.7546

> <Gold.PLP.PLP>
-32.2231

> <Gold.PLP.part.hbond>
-3.3140

> <Gold.PLP.part.metal>
0.0000

> <Gold.PLP.part.buried>
-4.3337

> <Gold.PLP.part.nonpolar>
-25.1414

> <Gold.PLP.part.repulsive>
0.3637

> <Gold.PLP.ligand.clash>
0.0000

> <Gold.PLP.ligand.torsion>
1.2553

> <Gold.PLP.Chemscore.Hbond>
4.0000

> <Gold.PLP.Chemscore.CHOScore>
0.0000

> <Gold.PLP.Chemscore.Metal>
0.0000

> <Gold.Chemscore.Hbonds>
donor molecule, donor type, donor heavy atom, donor atom, acceptor molecule, acceptor atom, score
      L1  H    11    42       P1  7948  2.00
      P1  H  7989  7998       L1     8  1.00
      P1  H  7997  8008       L1     7  1.00

> <Gold.PLP.Chemscore.Internal.Correction>
0.0421

> <Gold.Rescore>
     Score         DG    S(hbond)    S(metal)    S(lipo)     H(rot)  DE(clash)    DE(int)     intcor
     17.60     -19.17       2.76        0.00      72.90       1.58       0.20       1.38       ----

> <Gold.Chemscore.Fitness>
17.5971

> <Gold.Chemscore.DG>
-19.1730

> <Gold.Chemscore.ZeroCoef>
-5.4800

> <Gold.Chemscore.Hbond>
2.7566

> <Gold.Chemscore.Metal>
0.0000

> <Gold.Chemscore.Lipo>
72.8967

> <Gold.Chemscore.Internal_Hbond>
0.0000

> <Gold.Chemscore.DEClash>
0.1973

> <Gold.Chemscore.DEInternal>
1.3786

> <Gold.Chemscore.Rot>
1.5792

> <Gold.Chemscore.Internal.Correction>
   9.000000E+99

> <Gold.Chemscore.Hbonds>
donor molecule, donor type, donor heavy atom, donor atom, acceptor molecule, acceptor atom, score
      L1  H    11    42       P1  7948  0.96
      P1  H  7989  7998       L1     8  0.68
      P1  H  7997  8008       L1     7  0.99

> <Gold.Chemscore.Hbond.Weighted>
-9.2070

> <Gold.Chemscore.Metal.Weighted>
-0.0000

> <Gold.Chemscore.Lipo.Weighted>
-8.5289

> <Gold.Chemscore.Internal_Hbond.Weighted>
0.0000

> <Gold.Chemscore.DEClash.Weighted>
0.1973

> <Gold.Chemscore.DEInternal.Weighted>
1.3786

> <Gold.Chemscore.Rot.Weighted>
4.0428

> <Gold.Chemscore.Internal.Correction.Weighted>
   9.000000E+99

> <Gold.Protein.RotatedTorsions>
[ 6907 6896 6895 6894 ] final -147.66 input  -60.11 | X-H torsion
[ 7974 7965 7964 7962 ] final -100.73 input  175.53 | X-H torsion
[ 8008 7997 7996 7995 ] final  -56.40 input   59.86 | X-H torsion
[ 10167 10162 10161 10158 ] final -148.98 input  -65.29 | X-H torsion
[ 10718 10713 10712 10709 ] final  -97.07 input   66.30 | X-H torsion
[ 10763 10752 10751 10750 ] final  -57.68 input  -60.55 | X-H torsion
[ 11005 11000 10999 10996 ] final -144.07 input  -57.11 | X-H torsion

> <Gold.Protein.ActiveResidues>
 VAL166  LYS551  ARG553  GLY616  TRP617  ASP618  TYR619  PRO620  LYS621  CYS622 
 ASP623  PHE694  ASN695  SER759  ASP760  ASP761  ALA762  ILE779  LEU786  VAL792 
 PHE793  MET794  SER795  GLU796  ALA797  LYS798  CYS799  TRP800  GLU811  SER814 

> <Gold.Protein.RotatedAtoms>
  151.1589  133.4858  159.2594 H   0  0  0  0  0  0  0  0  0  0  0  0  # atno 6907 bound_to 6896
  151.1475  135.0210  159.8663 H   0  0  0  0  0  0  0  0  0  0  0  0  # atno 6908 bound_to 6896
  152.5463  134.1476  159.8558 H   0  0  0  0  0  0  0  0  0  0  0  0  # atno 6909 bound_to 6896
  145.2908  140.9352  143.2879 H   0  0  0  0  0  0  0  0  0  0  0  0  # atno 7974 bound_to 7965
  154.4229  140.1130  156.5631 H   0  0  0  0  0  0  0  0  0  0  0  0  # atno 8008 bound_to 7997
  155.6290  140.3495  155.4658 H   0  0  0  0  0  0  0  0  0  0  0  0  # atno 8009 bound_to 7997
  155.9963  140.1190  157.0580 H   0  0  0  0  0  0  0  0  0  0  0  0  # atno 8010 bound_to 7997
  139.7483  143.8556  152.2580 H   0  0  0  0  0  0  0  0  0  0  0  0  # atno 10167 bound_to 10162
  156.0075  130.5178  150.6319 H   0  0  0  0  0  0  0  0  0  0  0  0  # atno 10718 bound_to 10713
  154.2263  135.6369  153.5161 H   0  0  0  0  0  0  0  0  0  0  0  0  # atno 10763 bound_to 10752
  152.9958  135.5509  154.6060 H   0  0  0  0  0  0  0  0  0  0  0  0  # atno 10764 bound_to 10752
  154.5532  135.2903  155.0963 H   0  0  0  0  0  0  0  0  0  0  0  0  # atno 10765 bound_to 10752
  140.8061  134.2799  157.4959 H   0  0  0  0  0  0  0  0  0  0  0  0  # atno 11005 bound_to 11000
  144.9175  139.4453  143.6557 LP  0  0  0  0  0  0  0  0  0  0  0  0  # atno 17320 bound_to 7965
  146.3185  139.8016  142.8964 LP  0  0  0  0  0  0  0  0  0  0  0  0  # atno 17321 bound_to 7965
  139.8527  144.7156  150.9194 LP  0  0  0  0  0  0  0  0  0  0  0  0  # atno 17342 bound_to 10162
  140.7795  143.3885  151.1351 LP  0  0  0  0  0  0  0  0  0  0  0  0  # atno 17343 bound_to 10162
  157.4116  131.0824  151.1216 LP  0  0  0  0  0  0  0  0  0  0  0  0  # atno 17370 bound_to 10713
  157.1846  130.6324  149.5683 LP  0  0  0  0  0  0  0  0  0  0  0  0  # atno 17371 bound_to 10713
  139.8717  134.9457  156.3917 LP  0  0  0  0  0  0  0  0  0  0  0  0  # atno 17394 bound_to 11000
  140.9245  133.7622  155.9947 LP  0  0  0  0  0  0  0  0  0  0  0  0  # atno 17395 bound_to 11000

$$$$
