AV-unprocessed.smi:2271|AV-procd|sdf|9160|dock1
  -GOLD-   2272012373D 1   1.00000     0.00000
 Structure written by MMmdl.
 46 47  0  0  0  0  0  0  0  0  2 V2000
  152.8966  139.7313  159.7812 C   0  0  0  0  0  0  0  0  0  0  0  0
  152.4904  141.0922  159.2560 C   0  0  0  0  0  0  0  0  0  0  0  0
  153.0499  142.2715  159.7859 C   0  0  0  0  0  0  0  0  0  0  0  0
  152.6311  143.5026  159.2503 C   0  0  0  0  0  0  0  0  0  0  0  0
  151.6776  143.5042  158.2140 C   0  0  0  0  0  0  0  0  0  0  0  0
  151.1663  142.2755  157.7385 C   0  0  0  0  0  0  0  0  0  0  0  0
  150.2054  142.3844  156.6981 N   0  0  0  0  0  0  0  0  0  0  0  0
  150.0084  141.5521  155.6605 C   0  0  0  0  0  0  0  0  0  0  0  0
  150.6870  140.5562  155.4073 O   0  0  0  0  0  0  0  0  0  0  0  0
  148.9581  141.9374  154.9203 N   0  0  0  0  0  0  0  0  0  0  0  0
  148.4716  141.2552  153.7241 C   0  0  0  0  0  0  0  0  0  0  0  0
  147.6385  139.9975  154.0531 C   0  0  2  0  0  0  0  0  0  0  0  0
  148.4379  138.9171  154.8101 C   0  0  0  0  0  0  0  0  0  0  0  0
  147.5952  137.6566  155.0616 C   0  0  0  0  0  0  0  0  0  0  0  0
  147.0625  137.1047  153.7910 N   0  3  1  0  0  0  0  0  0  0  0  0
  146.3692  135.8059  153.9855 C   0  0  0  0  0  0  0  0  0  0  0  0
  147.3109  134.7113  154.5141 C   0  0  0  0  0  0  0  0  0  0  0  0
  148.0856  134.1909  153.4549 O   0  0  0  0  0  0  0  0  0  0  0  0
  146.2413  138.1100  153.0677 C   0  0  0  0  0  0  0  0  0  0  0  0
  147.0586  139.3775  152.7690 C   0  0  0  0  0  0  0  0  0  0  0  0
  151.5760  141.0934  158.2625 N   0  0  0  0  0  0  0  0  0  0  0  0
  153.5344  139.8207  160.6609 H   0  0  0  0  0  0  0  0  0  0  0  0
  153.4449  139.1807  159.0162 H   0  0  0  0  0  0  0  0  0  0  0  0
  152.0162  139.1504  160.0584 H   0  0  0  0  0  0  0  0  0  0  0  0
  153.7803  142.2366  160.5810 H   0  0  0  0  0  0  0  0  0  0  0  0
  153.0338  144.4311  159.6272 H   0  0  0  0  0  0  0  0  0  0  0  0
  151.3454  144.4416  157.7918 H   0  0  0  0  0  0  0  0  0  0  0  0
  149.5840  143.1768  156.7635 H   0  0  0  0  0  0  0  0  0  0  0  0
  148.4592  142.7687  155.2021 H   0  0  0  0  0  0  0  0  0  0  0  0
  147.8545  141.9679  153.1760 H   0  0  0  0  0  0  0  0  0  0  0  0
  149.2986  141.0016  153.0584 H   0  0  0  0  0  0  0  0  0  0  0  0
  146.8028  140.3040  154.6846 H   0  0  0  0  0  0  0  0  0  0  0  0
  149.3312  138.6529  154.2422 H   0  0  0  0  0  0  0  0  0  0  0  0
  148.7844  139.3003  155.7697 H   0  0  0  0  0  0  0  0  0  0  0  0
  148.2159  136.9091  155.5572 H   0  0  0  0  0  0  0  0  0  0  0  0
  146.7693  137.8830  155.7378 H   0  0  0  0  0  0  0  0  0  0  0  0
  145.5501  135.9236  154.6966 H   0  0  0  0  0  0  0  0  0  0  0  0
  145.9122  135.4929  153.0457 H   0  0  0  0  0  0  0  0  0  0  0  0
  147.9884  135.1346  155.2560 H   0  0  0  0  0  0  0  0  0  0  0  0
  146.7702  133.9037  155.0062 H   0  0  0  0  0  0  0  0  0  0  0  0
  148.6019  134.8917  153.0856 H   0  0  0  0  0  0  0  0  0  0  0  0
  145.8760  137.6971  152.1282 H   0  0  0  0  0  0  0  0  0  0  0  0
  145.3624  138.3617  153.6634 H   0  0  0  0  0  0  0  0  0  0  0  0
  146.4279  140.1048  152.2565 H   0  0  0  0  0  0  0  0  0  0  0  0
  147.8676  139.1322  152.0791 H   0  0  0  0  0  0  0  0  0  0  0  0
  147.8674  136.9071  153.2130 H   0  0  0  0  0  0  0  0  0  0  0  0
  1  2  1  0  0  0  0
  1 22  1  0  0  0  0
  1 23  1  0  0  0  0
  1 24  1  0  0  0  0
  2 21  1  0  0  0  0
  2  3  2  0  0  0  0
  3  4  1  0  0  0  0
  3 25  1  0  0  0  0
  4  5  2  0  0  0  0
  4 26  1  0  0  0  0
  5  6  1  0  0  0  0
  5 27  1  0  0  0  0
  6  7  1  0  0  0  0
  6 21  2  0  0  0  0
  7  8  1  0  0  0  0
  7 28  1  0  0  0  0
  8  9  2  0  0  0  0
  8 10  1  0  0  0  0
 10 11  1  0  0  0  0
 10 29  1  0  0  0  0
 11 12  1  0  0  0  0
 11 30  1  0  0  0  0
 11 31  1  0  0  0  0
 12 20  1  0  0  0  0
 12 13  1  0  0  0  0
 12 32  1  0  0  0  0
 13 14  1  0  0  0  0
 13 33  1  0  0  0  0
 13 34  1  0  0  0  0
 14 15  1  0  0  0  0
 14 35  1  0  0  0  0
 14 36  1  0  0  0  0
 15 16  1  0  0  0  0
 15 19  1  0  0  0  0
 15 46  1  0  0  0  0
 16 17  1  0  0  0  0
 16 37  1  0  0  0  0
 16 38  1  0  0  0  0
 17 18  1  0  0  0  0
 17 39  1  0  0  0  0
 17 40  1  0  0  0  0
 18 41  1  0  0  0  0
 19 20  1  0  0  0  0
 19 42  1  0  0  0  0
 19 43  1  0  0  0  0
 20 44  1  0  0  0  0
 20 45  1  0  0  0  0
M  CHG  1  15   1
M  END
> <s_m_source_file>
AV-unprocessed.smi

> <i_m_source_file_index>
2271

> <i_lp_mmshare_version>
43012

> <i_f3d_flags>
0

> <s_epik_input>
W0NIM11jMVtjSF1bY0hdW2NIXWMobjEpW05IXUMoPU8pW05IXVtDSDJdW0NIXTJbQ0gyXVtDSDJdTihbQ0gyXVtDSDJdMilbQ0gyXVtDSDJdW09IXQ==

> <s_epik_cmdline>
J2VwaWtfcHl0aG9uJywgJy1waCcsICc3LjAnLCAnLXRuJywgJzgnLCAnLW1hJywgJzIwMCcsICctbWV0YWxfYmluZGluZycsICctaW1hZScsICc8aW5maWxlLm1hZT4nLCAnLW9tYWUnLCAnPG91dGZpbGUubWFlPic=

> <r_epik_Ionization_Penalty>
0.00184663

> <r_epik_Ionization_Penalty_Charging>
0.00177223

> <r_epik_Ionization_Penalty_Neutral>
7.44064e-05

> <r_epik_State_Penalty>
0.00120075

> <r_epik_Charging_Adjusted_Penalty>
0.00297297

> <i_epik_Tot_Q>
1

> <i_epik_Tot_abs_Q>
1

> <r_epik_Metal_State_Penalty>
-0

> <b_epik_Metal_Only>
0

> <s_lp_Force_Field>
OPLS_2005

> <r_lp_Energy>
18.6881

> <b_lp_Chiralities_Consistent>
1

> <s_lp_Variant>
AV-unprocessed.smi:2271-1

> <Gold.Version>
5.8.1

> <Gold.Id.Protein>
6NUR|6NUR_protein|mol2

> <Gold.PLP.Fitness>
51.8132

> <Gold.PLP.PLP>
-35.7428

> <Gold.PLP.part.hbond>
-5.0000

> <Gold.PLP.part.metal>
0.0000

> <Gold.PLP.part.buried>
-1.9999

> <Gold.PLP.part.nonpolar>
-28.5895

> <Gold.PLP.part.repulsive>
0.3336

> <Gold.PLP.ligand.clash>
0.0000

> <Gold.PLP.ligand.torsion>
0.4855

> <Gold.PLP.Chemscore.Hbond>
5.6400

> <Gold.PLP.Chemscore.CHOScore>
0.0000

> <Gold.PLP.Chemscore.Metal>
0.0000

> <Gold.Chemscore.Hbonds>
donor molecule, donor type, donor heavy atom, donor atom, acceptor molecule, acceptor atom, score
      L1  H     7    28       P1  8028  0.83
      L1  H    10    29       P1  8028  0.78
      L1  H    15    46       P1  7948  2.00
      L1  H    18    41       P1  7948  1.00
      P1  H  7989  7998       L1     9  0.66

> <Gold.PLP.Chemscore.Internal.Correction>
0.1213

> <Gold.Rescore>
     Score         DG    S(hbond)    S(metal)    S(lipo)     H(rot)  DE(clash)    DE(int)     intcor
     20.43     -23.83       4.24        0.00      88.14       2.39       0.50       2.91       ----

> <Gold.Chemscore.Fitness>
20.4278

> <Gold.Chemscore.DG>
-23.8320

> <Gold.Chemscore.ZeroCoef>
-5.4800

> <Gold.Chemscore.Hbond>
4.2416

> <Gold.Chemscore.Metal>
0.0000

> <Gold.Chemscore.Lipo>
88.1425

> <Gold.Chemscore.Internal_Hbond>
0.0000

> <Gold.Chemscore.DEClash>
0.4978

> <Gold.Chemscore.DEInternal>
2.9064

> <Gold.Chemscore.Rot>
2.3935

> <Gold.Chemscore.Internal.Correction>
   9.000000E+99

> <Gold.Chemscore.Hbonds>
donor molecule, donor type, donor heavy atom, donor atom, acceptor molecule, acceptor atom, score
      L1  H     7    28       P1  8028  0.77
      L1  H    10    29       P1  8028  0.72
      L1  H    15    46       P1  7948  1.00
      L1  H    18    41       P1  7948  0.49
      P1  H  7989  7998       L1     9  0.39

> <Gold.Chemscore.Hbond.Weighted>
-14.1668

> <Gold.Chemscore.Metal.Weighted>
-0.0000

> <Gold.Chemscore.Lipo.Weighted>
-10.3127

> <Gold.Chemscore.Internal_Hbond.Weighted>
0.0000

> <Gold.Chemscore.DEClash.Weighted>
0.4978

> <Gold.Chemscore.DEInternal.Weighted>
2.9064

> <Gold.Chemscore.Rot.Weighted>
6.1274

> <Gold.Chemscore.Internal.Correction.Weighted>
   9.000000E+99

> <Gold.Protein.RotatedTorsions>
[ 6907 6896 6895 6894 ] final   88.25 input  -60.11 | X-H torsion
[ 7974 7965 7964 7962 ] final  144.95 input  175.53 | X-H torsion
[ 8008 7997 7996 7995 ] final -114.71 input   59.86 | X-H torsion
[ 10167 10162 10161 10158 ] final  -33.37 input  -65.29 | X-H torsion
[ 10718 10713 10712 10709 ] final  -82.54 input   66.30 | X-H torsion
[ 10763 10752 10751 10750 ] final   82.75 input  -60.55 | X-H torsion
[ 11005 11000 10999 10996 ] final   89.36 input  -57.11 | X-H torsion

> <Gold.Protein.ActiveResidues>
 VAL166  LYS551  ARG553  GLY616  TRP617  ASP618  TYR619  PRO620  LYS621  CYS622 
 ASP623  PHE694  ASN695  SER759  ASP760  ASP761  ALA762  ILE779  LEU786  VAL792 
 PHE793  MET794  SER795  GLU796  ALA797  LYS798  CYS799  TRP800  GLU811  SER814 

> <Gold.Protein.RotatedAtoms>
  152.5422  134.2150  159.8764 H   0  0  0  0  0  0  0  0  0  0  0  0  # atno 6907 bound_to 6896
  151.2130  133.4538  159.2606 H   0  0  0  0  0  0  0  0  0  0  0  0  # atno 6908 bound_to 6896
  151.0878  134.9910  159.8443 H   0  0  0  0  0  0  0  0  0  0  0  0  # atno 6909 bound_to 6896
  144.8793  139.5724  143.5850 H   0  0  0  0  0  0  0  0  0  0  0  0  # atno 7974 bound_to 7965
  155.0406  140.0392  157.2508 H   0  0  0  0  0  0  0  0  0  0  0  0  # atno 8008 bound_to 7997
  154.7219  140.2713  155.6509 H   0  0  0  0  0  0  0  0  0  0  0  0  # atno 8009 bound_to 7997
  156.2819  140.2701  156.1893 H   0  0  0  0  0  0  0  0  0  0  0  0  # atno 8010 bound_to 7997
  140.7205  143.3625  151.1935 H   0  0  0  0  0  0  0  0  0  0  0  0  # atno 10167 bound_to 10162
  156.0031  130.4637  150.4121 H   0  0  0  0  0  0  0  0  0  0  0  0  # atno 10718 bound_to 10713
  153.1230  135.4716  154.9227 H   0  0  0  0  0  0  0  0  0  0  0  0  # atno 10763 bound_to 10752
  154.7594  135.3127  154.8410 H   0  0  0  0  0  0  0  0  0  0  0  0  # atno 10764 bound_to 10752
  153.8970  135.6879  153.4811 H   0  0  0  0  0  0  0  0  0  0  0  0  # atno 10765 bound_to 10752
  139.8877  134.8546  156.3131 H   0  0  0  0  0  0  0  0  0  0  0  0  # atno 11005 bound_to 11000
  146.2983  139.7348  142.9110 LP  0  0  0  0  0  0  0  0  0  0  0  0  # atno 17320 bound_to 7965
  145.3985  141.0382  143.3084 LP  0  0  0  0  0  0  0  0  0  0  0  0  # atno 17321 bound_to 7965
  139.7180  143.9269  152.2974 LP  0  0  0  0  0  0  0  0  0  0  0  0  # atno 17342 bound_to 10162
  139.9017  144.6908  150.8658 LP  0  0  0  0  0  0  0  0  0  0  0  0  # atno 17343 bound_to 10162
  157.2183  131.0476  151.2561 LP  0  0  0  0  0  0  0  0  0  0  0  0  # atno 17370 bound_to 10713
  157.3824  130.7238  149.6639 LP  0  0  0  0  0  0  0  0  0  0  0  0  # atno 17371 bound_to 10713
  140.9837  133.7251  156.0710 LP  0  0  0  0  0  0  0  0  0  0  0  0  # atno 17394 bound_to 11000
  140.7716  134.3826  157.5506 LP  0  0  0  0  0  0  0  0  0  0  0  0  # atno 17395 bound_to 11000

$$$$
