AV-unprocessed.smi:1033|AV-procd|sdf|4492|dock8
  -GOLD-   22720 2473D 1   1.00000     0.00000
 Structure written by MMmdl.
 56 58  0  0  0  0  0  0  0  0  2 V2000
  153.0206  142.9931  161.4827 C   0  0  0  0  0  0  0  0  0  0  0  0
  152.4331  142.6512  160.1249 C   0  0  0  0  0  0  0  0  0  0  0  0
  152.7329  141.3993  159.5419 C   0  0  0  0  0  0  0  0  0  0  0  0
  152.2118  141.0458  158.2782 C   0  0  0  0  0  0  0  0  0  0  0  0
  152.3773  139.8945  157.5274 N   0  0  0  0  0  0  0  0  0  0  0  0
  151.6534  140.1717  156.4473 C   0  0  0  0  0  0  0  0  0  0  0  0
  151.0395  141.3699  156.4072 N   0  0  0  0  0  0  0  0  0  0  0  0
  150.2171  141.8924  155.3301 C   0  0  0  0  0  0  0  0  0  0  0  0
  149.2797  140.8209  154.7404 C   0  0  2  0  0  0  0  0  0  0  0  0
  150.0305  139.9348  153.9324 O   0  0  0  0  0  0  0  0  0  0  0  0
  148.1621  141.4417  153.8790 C   0  0  0  0  0  0  0  0  0  0  0  0
  147.2930  142.3663  154.6507 N   0  3  0  0  0  0  0  0  0  0  0  0
  146.7896  141.7597  155.9098 C   0  0  0  0  0  0  0  0  0  0  0  0
  145.9674  142.7903  156.7118 C   0  0  0  0  0  0  0  0  0  0  0  0
  144.8493  143.3541  155.9553 N   0  0  0  0  0  0  0  0  0  0  0  0
  143.7510  142.3958  155.7652 C   0  0  0  0  0  0  0  0  0  0  0  0
  142.3624  142.9878  155.4340 C   0  0  1  0  0  0  0  0  0  0  0  0
  141.7599  143.8685  156.5400 C   0  0  0  0  0  0  0  0  0  0  0  0
  142.3974  143.6880  154.2071 O   0  0  0  0  0  0  0  0  0  0  0  0
  145.3763  143.9409  154.7208 C   0  0  0  0  0  0  0  0  0  0  0  0
  146.1708  142.9391  153.8604 C   0  0  0  0  0  0  0  0  0  0  0  0
  151.3760  141.9864  157.6081 C   0  0  0  0  0  0  0  0  0  0  0  0
  151.0665  143.2330  158.1801 C   0  0  0  0  0  0  0  0  0  0  0  0
  151.5959  143.5705  159.4432 C   0  0  0  0  0  0  0  0  0  0  0  0
  151.2594  144.9210  160.0505 C   0  0  0  0  0  0  0  0  0  0  0  0
  153.6406  142.1814  161.8647 H   0  0  0  0  0  0  0  0  0  0  0  0
  152.2273  143.1775  162.2074 H   0  0  0  0  0  0  0  0  0  0  0  0
  153.6435  143.8854  161.4152 H   0  0  0  0  0  0  0  0  0  0  0  0
  153.3709  140.6990  160.0608 H   0  0  0  0  0  0  0  0  0  0  0  0
  151.5690  139.4651  155.6346 H   0  0  0  0  0  0  0  0  0  0  0  0
  149.6339  142.7269  155.7221 H   0  0  0  0  0  0  0  0  0  0  0  0
  150.8695  142.3043  154.5587 H   0  0  0  0  0  0  0  0  0  0  0  0
  148.8516  140.2512  155.5643 H   0  0  0  0  0  0  0  0  0  0  0  0
  149.6359  139.9037  153.0733 H   0  0  0  0  0  0  0  0  0  0  0  0
  148.5848  141.9727  153.0248 H   0  0  0  0  0  0  0  0  0  0  0  0
  147.5560  140.6334  153.4661 H   0  0  0  0  0  0  0  0  0  0  0  0
  146.1950  140.8733  155.6856 H   0  0  0  0  0  0  0  0  0  0  0  0
  147.6329  141.4268  156.5160 H   0  0  0  0  0  0  0  0  0  0  0  0
  145.6013  142.3365  157.6336 H   0  0  0  0  0  0  0  0  0  0  0  0
  146.6276  143.6006  157.0240 H   0  0  0  0  0  0  0  0  0  0  0  0
  144.0138  141.6406  155.0247 H   0  0  0  0  0  0  0  0  0  0  0  0
  143.6320  141.8463  156.7001 H   0  0  0  0  0  0  0  0  0  0  0  0
  141.6825  142.1506  155.2717 H   0  0  0  0  0  0  0  0  0  0  0  0
  141.7155  143.3297  157.4867 H   0  0  0  0  0  0  0  0  0  0  0  0
  140.7442  144.1733  156.2860 H   0  0  0  0  0  0  0  0  0  0  0  0
  142.3434  144.7754  156.7000 H   0  0  0  0  0  0  0  0  0  0  0  0
  142.6969  143.0981  153.5325 H   0  0  0  0  0  0  0  0  0  0  0  0
  144.5744  144.3858  154.1339 H   0  0  0  0  0  0  0  0  0  0  0  0
  146.0330  144.7724  154.9802 H   0  0  0  0  0  0  0  0  0  0  0  0
  146.5518  143.4600  152.9832 H   0  0  0  0  0  0  0  0  0  0  0  0
  145.5236  142.1417  153.4936 H   0  0  0  0  0  0  0  0  0  0  0  0
  150.4305  143.9256  157.6486 H   0  0  0  0  0  0  0  0  0  0  0  0
  150.6108  145.5022  159.3943 H   0  0  0  0  0  0  0  0  0  0  0  0
  152.1668  145.5006  160.2220 H   0  0  0  0  0  0  0  0  0  0  0  0
  150.7439  144.7940  161.0028 H   0  0  0  0  0  0  0  0  0  0  0  0
  147.8813  143.1391  154.9289 H   0  0  0  0  0  0  0  0  0  0  0  0
  1  2  1  0  0  0  0
  1 26  1  0  0  0  0
  1 27  1  0  0  0  0
  1 28  1  0  0  0  0
  2 24  1  0  0  0  0
  2  3  2  0  0  0  0
  3  4  1  0  0  0  0
  3 29  1  0  0  0  0
  4 22  2  0  0  0  0
  4  5  1  0  0  0  0
  5  6  2  0  0  0  0
  6  7  1  0  0  0  0
  6 30  1  0  0  0  0
  7  8  1  0  0  0  0
  7 22  1  0  0  0  0
  8  9  1  0  0  0  0
  8 31  1  0  0  0  0
  8 32  1  0  0  0  0
  9 10  1  0  0  0  0
  9 11  1  0  0  0  0
  9 33  1  0  0  0  0
 10 34  1  0  0  0  0
 11 12  1  0  0  0  0
 11 35  1  0  0  0  0
 11 36  1  0  0  0  0
 12 21  1  0  0  0  0
 12 13  1  0  0  0  0
 12 56  1  0  0  0  0
 13 14  1  0  0  0  0
 13 37  1  0  0  0  0
 13 38  1  0  0  0  0
 14 15  1  0  0  0  0
 14 39  1  0  0  0  0
 14 40  1  0  0  0  0
 15 16  1  0  0  0  0
 15 20  1  0  0  0  0
 16 17  1  0  0  0  0
 16 41  1  0  0  0  0
 16 42  1  0  0  0  0
 17 18  1  0  0  0  0
 17 19  1  0  0  0  0
 17 43  1  0  0  0  0
 18 44  1  0  0  0  0
 18 45  1  0  0  0  0
 18 46  1  0  0  0  0
 19 47  1  0  0  0  0
 20 21  1  0  0  0  0
 20 48  1  0  0  0  0
 20 49  1  0  0  0  0
 21 50  1  0  0  0  0
 21 51  1  0  0  0  0
 22 23  1  0  0  0  0
 23 24  2  0  0  0  0
 23 52  1  0  0  0  0
 24 25  1  0  0  0  0
 25 53  1  0  0  0  0
 25 54  1  0  0  0  0
 25 55  1  0  0  0  0
M  CHG  1  12   1
M  END
> <s_m_source_file>
AV-unprocessed.smi

> <i_m_source_file_index>
1033

> <i_lp_mmshare_version>
43012

> <i_f3d_flags>
0

> <s_epik_input>
W0NIM11jKFtjSF0xKWMoW0NIM10pW2NIXWMoYzEyKW4oW2NIXW4yKVtDSDJdW0NASF0oW09IXSlbQ0gyXU4zW0NIMl1bQ0gyXU4oW0NIMl1bQ0gyXTMpW0NIMl1bQ0BIXShbQ0gzXSlbT0hd

> <s_epik_cmdline>
J2VwaWtfcHl0aG9uJywgJy1waCcsICc3LjAnLCAnLXRuJywgJzgnLCAnLW1hJywgJzIwMCcsICctbWV0YWxfYmluZGluZycsICctaW1hZScsICc8aW5maWxlLm1hZT4nLCAnLW9tYWUnLCAnPG91dGZpbGUubWFlPic=

> <r_epik_Ionization_Penalty>
0.131893

> <r_epik_Ionization_Penalty_Charging>
0.00208556

> <r_epik_Ionization_Penalty_Neutral>
0.129808

> <r_epik_State_Penalty>
0.452125

> <r_epik_Charging_Adjusted_Penalty>
0.454211

> <i_epik_Tot_Q>
1

> <i_epik_Tot_abs_Q>
1

> <r_epik_Metal_State_Penalty>
0.376389

> <b_epik_Metal_Only>
0

> <s_lp_Force_Field>
OPLS_2005

> <r_lp_Energy>
36.4064

> <b_lp_Chiralities_Consistent>
1

> <s_lp_Variant>
AV-unprocessed.smi:1033-3

> <Gold.Version>
5.8.1

> <Gold.Id.Protein>
6NUR|6NUR_protein|mol2

> <Gold.PLP.Fitness>
65.3731

> <Gold.PLP.PLP>
-48.6922

> <Gold.PLP.part.hbond>
-4.9802

> <Gold.PLP.part.metal>
0.0000

> <Gold.PLP.part.buried>
-5.9124

> <Gold.PLP.part.nonpolar>
-37.0915

> <Gold.PLP.part.repulsive>
0.2175

> <Gold.PLP.ligand.clash>
0.0000

> <Gold.PLP.ligand.torsion>
0.5605

> <Gold.PLP.Chemscore.Hbond>
5.8640

> <Gold.PLP.Chemscore.CHOScore>
0.0000

> <Gold.PLP.Chemscore.Metal>
0.0000

> <Gold.Chemscore.Hbonds>
donor molecule, donor type, donor heavy atom, donor atom, acceptor molecule, acceptor atom, score
      L1  H    10    34       P1  7957  1.00
      L1  H    12    56       P1  8028  2.00
      L1  H    19    47       P1 10174  0.98
      P1  H  7989  7998       L1    10  0.82
      P1  H  7997  8008       L1     5  0.62

> <Gold.PLP.Chemscore.Internal.Correction>
0.2098

> <Gold.Rescore>
     Score         DG    S(hbond)    S(metal)    S(lipo)     H(rot)  DE(clash)    DE(int)     intcor
     20.50     -22.14       2.92        0.00     126.00       3.07       0.73       0.91       ----

> <Gold.Chemscore.Fitness>
20.4994

> <Gold.Chemscore.DG>
-22.1361

> <Gold.Chemscore.ZeroCoef>
-5.4800

> <Gold.Chemscore.Hbond>
2.9225

> <Gold.Chemscore.Metal>
0.0000

> <Gold.Chemscore.Lipo>
125.9956

> <Gold.Chemscore.Internal_Hbond>
0.0000

> <Gold.Chemscore.DEClash>
0.7270

> <Gold.Chemscore.DEInternal>
0.9097

> <Gold.Chemscore.Rot>
3.0650

> <Gold.Chemscore.Internal.Correction>
   9.000000E+99

> <Gold.Chemscore.Hbonds>
donor molecule, donor type, donor heavy atom, donor atom, acceptor molecule, acceptor atom, score
      L1  H    10    34       P1  7957  0.98
      L1  H    12    56       P1  8028  0.77
      L1  H    19    47       P1 10174  0.89
      P1  H  7989  7998       L1    10  0.09
      P1  H  7997  8008       L1     5  0.08

> <Gold.Chemscore.Hbond.Weighted>
-9.7611

> <Gold.Chemscore.Metal.Weighted>
-0.0000

> <Gold.Chemscore.Lipo.Weighted>
-14.7415

> <Gold.Chemscore.Internal_Hbond.Weighted>
0.0000

> <Gold.Chemscore.DEClash.Weighted>
0.7270

> <Gold.Chemscore.DEInternal.Weighted>
0.9097

> <Gold.Chemscore.Rot.Weighted>
7.8465

> <Gold.Chemscore.Internal.Correction.Weighted>
   9.000000E+99

> <Gold.Protein.RotatedTorsions>
[ 6907 6896 6895 6894 ] final -134.58 input  -60.11 | X-H torsion
[ 7974 7965 7964 7962 ] final  111.43 input  175.53 | X-H torsion
[ 8008 7997 7996 7995 ] final  -67.85 input   59.86 | X-H torsion
[ 10167 10162 10161 10158 ] final   89.94 input  -65.29 | X-H torsion
[ 10718 10713 10712 10709 ] final  115.06 input   66.30 | X-H torsion
[ 10763 10752 10751 10750 ] final   54.87 input  -60.55 | X-H torsion
[ 11005 11000 10999 10996 ] final -167.55 input  -57.11 | X-H torsion

> <Gold.Protein.ActiveResidues>
 VAL166  LYS551  ARG553  GLY616  TRP617  ASP618  TYR619  PRO620  LYS621  CYS622 
 ASP623  PHE694  ASN695  SER759  ASP760  ASP761  ALA762  ILE779  LEU786  VAL792 
 PHE793  MET794  SER795  GLU796  ALA797  LYS798  CYS799  TRP800  GLU811  SER814 

> <Gold.Protein.RotatedAtoms>
  150.9876  133.6182  159.2712 H   0  0  0  0  0  0  0  0  0  0  0  0  # atno 6907 bound_to 6896
  151.3415  135.0863  159.9382 H   0  0  0  0  0  0  0  0  0  0  0  0  # atno 6908 bound_to 6896
  152.5235  133.9486  159.7715 H   0  0  0  0  0  0  0  0  0  0  0  0  # atno 6909 bound_to 6896
  145.2423  139.2773  143.4111 H   0  0  0  0  0  0  0  0  0  0  0  0  # atno 7974 bound_to 7965
  154.4828  140.0884  156.7416 H   0  0  0  0  0  0  0  0  0  0  0  0  # atno 8008 bound_to 7997
  155.4427  140.3454  155.4273 H   0  0  0  0  0  0  0  0  0  0  0  0  # atno 8009 bound_to 7997
  156.1216  140.1476  156.9184 H   0  0  0  0  0  0  0  0  0  0  0  0  # atno 8010 bound_to 7997
  139.8523  144.6587  150.9155 H   0  0  0  0  0  0  0  0  0  0  0  0  # atno 10167 bound_to 10162
  157.6245  131.1007  150.7275 H   0  0  0  0  0  0  0  0  0  0  0  0  # atno 10718 bound_to 10713
  152.9809  135.5730  154.4974 H   0  0  0  0  0  0  0  0  0  0  0  0  # atno 10763 bound_to 10752
  154.4499  135.2778  155.1790 H   0  0  0  0  0  0  0  0  0  0  0  0  # atno 10764 bound_to 10752
  154.3422  135.6227  153.5655 H   0  0  0  0  0  0  0  0  0  0  0  0  # atno 10765 bound_to 10752
  140.5519  134.5419  157.5124 H   0  0  0  0  0  0  0  0  0  0  0  0  # atno 11005 bound_to 11000
  146.3325  140.2790  142.8609 LP  0  0  0  0  0  0  0  0  0  0  0  0  # atno 17320 bound_to 7965
  144.9577  140.8244  143.5532 LP  0  0  0  0  0  0  0  0  0  0  0  0  # atno 17321 bound_to 7965
  140.7786  143.3816  151.1466 LP  0  0  0  0  0  0  0  0  0  0  0  0  # atno 17342 bound_to 10162
  139.7454  143.8861  152.3062 LP  0  0  0  0  0  0  0  0  0  0  0  0  # atno 17343 bound_to 10162
  156.7626  130.4803  149.5434 LP  0  0  0  0  0  0  0  0  0  0  0  0  # atno 17370 bound_to 10713
  156.1408  130.6243  151.0465 LP  0  0  0  0  0  0  0  0  0  0  0  0  # atno 17371 bound_to 10713
  139.9451  134.7717  156.0583 LP  0  0  0  0  0  0  0  0  0  0  0  0  # atno 17394 bound_to 11000
  141.1166  133.6626  156.3110 LP  0  0  0  0  0  0  0  0  0  0  0  0  # atno 17395 bound_to 11000

$$$$
