AV-unprocessed.smi:3299|AV-procd|sdf|12649|dock6
  -GOLD-   2272018583D 1   1.00000     0.00000
 Structure written by MMmdl.
 34 35  0  0  0  0  0  0  0  0  1 V2000
  151.7689  142.8292  162.2303 C   0  0  0  0  0  0  0  0  0  0  0  0
  151.5771  143.6019  160.9632 C   0  0  0  0  0  0  0  0  0  0  0  0
  151.9805  144.8916  160.7146 C   0  0  0  0  0  0  0  0  0  0  0  0
  151.5565  145.4111  159.1059 S   0  0  0  0  0  0  0  0  0  0  0  0
  150.8335  143.8248  158.8311 C   0  0  0  0  0  0  0  0  0  0  0  0
  150.1948  143.3624  157.6541 N   0  0  0  0  0  0  0  0  0  0  0  0
  150.1540  142.1072  157.1791 C   0  0  0  0  0  0  0  0  0  0  0  0
  150.6727  141.1287  157.7158 O   0  0  0  0  0  0  0  0  0  0  0  0
  149.4694  142.0507  156.0255 N   0  0  0  0  0  0  0  0  0  0  0  0
  149.2100  140.8620  155.2102 C   0  0  1  0  0  0  0  0  0  0  0  0
  148.3906  141.1911  153.9414 C   0  0  0  0  0  0  0  0  0  0  0  0
  147.0137  141.8125  154.2288 C   0  0  0  0  0  0  0  0  0  0  0  0
  147.1175  142.7356  155.2913 O   0  0  0  0  0  0  0  0  0  0  0  0
  150.4517  140.0495  154.8724 C   0  0  0  0  0  0  0  0  0  0  0  0
  150.3684  138.5572  154.6576 C   0  0  0  0  0  0  0  0  0  0  0  0
  151.0698  139.1092  155.8789 C   0  0  0  0  0  0  0  0  0  0  0  0
  150.9235  143.0052  159.8800 N   0  0  0  0  0  0  0  0  0  0  0  0
  152.4257  143.3558  162.9231 H   0  0  0  0  0  0  0  0  0  0  0  0
  152.2132  141.8531  162.0341 H   0  0  0  0  0  0  0  0  0  0  0  0
  150.8180  142.6650  162.7375 H   0  0  0  0  0  0  0  0  0  0  0  0
  152.4999  145.5664  161.3789 H   0  0  0  0  0  0  0  0  0  0  0  0
  149.7221  144.0690  157.1104 H   0  0  0  0  0  0  0  0  0  0  0  0
  149.0852  142.9161  155.6751 H   0  0  0  0  0  0  0  0  0  0  0  0
  148.5815  140.2275  155.8366 H   0  0  0  0  0  0  0  0  0  0  0  0
  148.9597  141.8553  153.2899 H   0  0  0  0  0  0  0  0  0  0  0  0
  148.2461  140.2717  153.3722 H   0  0  0  0  0  0  0  0  0  0  0  0
  146.6322  142.3282  153.3472 H   0  0  0  0  0  0  0  0  0  0  0  0
  146.2866  141.0478  154.5028 H   0  0  0  0  0  0  0  0  0  0  0  0
  147.7606  143.3886  155.0609 H   0  0  0  0  0  0  0  0  0  0  0  0
  151.1522  140.5692  154.2216 H   0  0  0  0  0  0  0  0  0  0  0  0
  149.4046  138.0747  154.8079 H   0  0  0  0  0  0  0  0  0  0  0  0
  150.9871  138.1287  153.8718 H   0  0  0  0  0  0  0  0  0  0  0  0
  152.1558  139.0492  155.9068 H   0  0  0  0  0  0  0  0  0  0  0  0
  150.5714  138.9931  156.8393 H   0  0  0  0  0  0  0  0  0  0  0  0
  1  2  1  0  0  0  0
  1 18  1  0  0  0  0
  1 19  1  0  0  0  0
  1 20  1  0  0  0  0
  2 17  1  0  0  0  0
  2  3  2  0  0  0  0
  3  4  1  0  0  0  0
  3 21  1  0  0  0  0
  4  5  1  0  0  0  0
  5  6  1  0  0  0  0
  5 17  2  0  0  0  0
  6  7  1  0  0  0  0
  6 22  1  0  0  0  0
  7  8  2  0  0  0  0
  7  9  1  0  0  0  0
  9 10  1  0  0  0  0
  9 23  1  0  0  0  0
 10 11  1  0  0  0  0
 10 14  1  0  0  0  0
 10 24  1  0  0  0  0
 11 12  1  0  0  0  0
 11 25  1  0  0  0  0
 11 26  1  0  0  0  0
 12 13  1  0  0  0  0
 12 27  1  0  0  0  0
 12 28  1  0  0  0  0
 13 29  1  0  0  0  0
 14 16  1  0  0  0  0
 14 15  1  0  0  0  0
 14 30  1  0  0  0  0
 15 16  1  0  0  0  0
 15 31  1  0  0  0  0
 15 32  1  0  0  0  0
 16 33  1  0  0  0  0
 16 34  1  0  0  0  0
M  END
> <s_m_source_file>
AV-unprocessed.smi

> <i_m_source_file_index>
3299

> <i_lp_mmshare_version>
43012

> <i_f3d_flags>
0

> <s_epik_input>
W0NIM11jMVtjSF1zYyhuMSlbTkhdQyg9TylbTkhdW0NASF0oW0NIMl1bQ0gyXVtPSF0pW0NIXTJbQ0gyXVtDSDJdMg==

> <s_epik_cmdline>
J2VwaWtfcHl0aG9uJywgJy1waCcsICc3LjAnLCAnLXRuJywgJzgnLCAnLW1hJywgJzIwMCcsICctbWV0YWxfYmluZGluZycsICctaW1hZScsICc8aW5maWxlLm1hZT4nLCAnLW9tYWUnLCAnPG91dGZpbGUubWFlPic=

> <r_lp_tautomer_probability>
0.999

> <r_epik_Ionization_Penalty>
0.000568872

> <r_epik_Ionization_Penalty_Charging>
0

> <r_epik_Ionization_Penalty_Neutral>
0.000568872

> <r_epik_State_Penalty>
0.000177984

> <r_epik_Charging_Adjusted_Penalty>
0.000177984

> <i_epik_Tot_Q>
0

> <i_epik_Tot_abs_Q>
0

> <r_epik_Metal_State_Penalty>
-0

> <b_epik_Metal_Only>
0

> <s_lp_Force_Field>
OPLS_2005

> <r_lp_Energy>
11.9184

> <b_lp_Chiralities_Consistent>
1

> <s_lp_Variant>
AV-unprocessed.smi:3299-2

> <Gold.Version>
5.8.1

> <Gold.Id.Protein>
6NUR|6NUR_protein|mol2

> <Gold.PLP.Fitness>
46.9128

> <Gold.PLP.PLP>
-38.5102

> <Gold.PLP.part.hbond>
-3.0000

> <Gold.PLP.part.metal>
0.0000

> <Gold.PLP.part.buried>
-1.1714

> <Gold.PLP.part.nonpolar>
-33.1969

> <Gold.PLP.part.repulsive>
0.1514

> <Gold.PLP.ligand.clash>
0.0000

> <Gold.PLP.ligand.torsion>
0.8839

> <Gold.PLP.Chemscore.Hbond>
3.0000

> <Gold.PLP.Chemscore.CHOScore>
0.0000

> <Gold.PLP.Chemscore.Metal>
0.0000

> <Gold.Chemscore.Hbonds>
donor molecule, donor type, donor heavy atom, donor atom, acceptor molecule, acceptor atom, score
      L1  H     6    22       P1  8028  1.00
      L1  H     9    23       P1  8028  1.00
      L1  H    13    29       P1  8028  0.94

> <Gold.PLP.Chemscore.Internal.Correction>
1.1704

> <Gold.Rescore>
     Score         DG    S(hbond)    S(metal)    S(lipo)     H(rot)  DE(clash)    DE(int)     intcor
     11.63     -18.23       2.49        0.00      90.15       2.39       1.85       4.75       ----

> <Gold.Chemscore.Fitness>
11.6309

> <Gold.Chemscore.DG>
-18.2349

> <Gold.Chemscore.ZeroCoef>
-5.4800

> <Gold.Chemscore.Hbond>
2.4940

> <Gold.Chemscore.Metal>
0.0000

> <Gold.Chemscore.Lipo>
90.1508

> <Gold.Chemscore.Internal_Hbond>
0.0000

> <Gold.Chemscore.DEClash>
1.8508

> <Gold.Chemscore.DEInternal>
4.7532

> <Gold.Chemscore.Rot>
2.3917

> <Gold.Chemscore.Internal.Correction>
   9.000000E+99

> <Gold.Chemscore.Hbonds>
donor molecule, donor type, donor heavy atom, donor atom, acceptor molecule, acceptor atom, score
      L1  H     6    22       P1  8028  0.69
      L1  H     9    23       P1  8028  0.98
      L1  H    13    29       P1  8028  0.41

> <Gold.Chemscore.Hbond.Weighted>
-8.3300

> <Gold.Chemscore.Metal.Weighted>
-0.0000

> <Gold.Chemscore.Lipo.Weighted>
-10.5476

> <Gold.Chemscore.Internal_Hbond.Weighted>
0.0000

> <Gold.Chemscore.DEClash.Weighted>
1.8508

> <Gold.Chemscore.DEInternal.Weighted>
4.7532

> <Gold.Chemscore.Rot.Weighted>
6.1228

> <Gold.Chemscore.Internal.Correction.Weighted>
   9.000000E+99

> <Gold.Protein.RotatedTorsions>
[ 6907 6896 6895 6894 ] final  158.64 input  -60.11 | X-H torsion
[ 7974 7965 7964 7962 ] final  -15.47 input  175.53 | X-H torsion
[ 8008 7997 7996 7995 ] final  136.86 input   59.86 | X-H torsion
[ 10167 10162 10161 10158 ] final  138.61 input  -65.29 | X-H torsion
[ 10718 10713 10712 10709 ] final    1.43 input   66.30 | X-H torsion
[ 10763 10752 10751 10750 ] final  -51.86 input  -60.55 | X-H torsion
[ 11005 11000 10999 10996 ] final  -69.01 input  -57.11 | X-H torsion

> <Gold.Protein.ActiveResidues>
 VAL166  LYS551  ARG553  GLY616  TRP617  ASP618  TYR619  PRO620  LYS621  CYS622 
 ASP623  PHE694  ASN695  SER759  ASP760  ASP761  ALA762  ILE779  LEU786  VAL792 
 PHE793  MET794  SER795  GLU796  ALA797  LYS798  CYS799  TRP800  GLU811  SER814 

> <Gold.Protein.RotatedAtoms>
  151.9974  133.3813  159.4167 H   0  0  0  0  0  0  0  0  0  0  0  0  # atno 6907 bound_to 6896
  150.6914  134.3871  159.5069 H   0  0  0  0  0  0  0  0  0  0  0  0  # atno 6908 bound_to 6896
  152.1613  134.8909  160.0592 H   0  0  0  0  0  0  0  0  0  0  0  0  # atno 6909 bound_to 6896
  146.2031  140.3497  142.8416 H   0  0  0  0  0  0  0  0  0  0  0  0  # atno 7974 bound_to 7965
  156.3003  140.2434  156.3816 H   0  0  0  0  0  0  0  0  0  0  0  0  # atno 8008 bound_to 7997
  154.8696  140.0416  157.1736 H   0  0  0  0  0  0  0  0  0  0  0  0  # atno 8009 bound_to 7997
  154.8809  140.2949  155.5429 H   0  0  0  0  0  0  0  0  0  0  0  0  # atno 8010 bound_to 7997
  139.5105  144.6343  151.5736 H   0  0  0  0  0  0  0  0  0  0  0  0  # atno 10167 bound_to 10162
  156.8481  130.5544  149.5672 H   0  0  0  0  0  0  0  0  0  0  0  0  # atno 10718 bound_to 10713
  154.1334  135.6516  153.4927 H   0  0  0  0  0  0  0  0  0  0  0  0  # atno 10763 bound_to 10752
  153.0188  135.5298  154.6978 H   0  0  0  0  0  0  0  0  0  0  0  0  # atno 10764 bound_to 10752
  154.6219  135.2965  155.0287 H   0  0  0  0  0  0  0  0  0  0  0  0  # atno 10765 bound_to 10752
  141.1544  133.6754  156.6533 H   0  0  0  0  0  0  0  0  0  0  0  0  # atno 11005 bound_to 11000
  144.8728  140.7295  143.6036 LP  0  0  0  0  0  0  0  0  0  0  0  0  # atno 17320 bound_to 7965
  145.3416  139.1730  143.4482 LP  0  0  0  0  0  0  0  0  0  0  0  0  # atno 17321 bound_to 7965
  140.6087  143.9476  150.6437 LP  0  0  0  0  0  0  0  0  0  0  0  0  # atno 17342 bound_to 10162
  140.2712  143.3455  152.1236 LP  0  0  0  0  0  0  0  0  0  0  0  0  # atno 17343 bound_to 10162
  156.0843  130.5845  150.9620 LP  0  0  0  0  0  0  0  0  0  0  0  0  # atno 17370 bound_to 10713
  157.6318  131.0920  150.8426 LP  0  0  0  0  0  0  0  0  0  0  0  0  # atno 17371 bound_to 10713
  140.3303  134.7934  157.4321 LP  0  0  0  0  0  0  0  0  0  0  0  0  # atno 17394 bound_to 11000
  140.1022  134.5457  155.8342 LP  0  0  0  0  0  0  0  0  0  0  0  0  # atno 17395 bound_to 11000

$$$$
