AV-unprocessed.smi:851|AV-procd|sdf|3950|dock6
  -GOLD-   22720 1423D 1   1.00000     0.00000
 Structure written by MMmdl.
 34 35  0  0  0  0  0  0  0  0  1 V2000
  145.9397  132.8505  151.4195 C   0  0  0  0  0  0  0  0  0  0  0  0
  146.9961  133.3051  152.2576 O   0  0  0  0  0  0  0  0  0  0  0  0
  147.7169  132.3712  152.9779 C   0  0  0  0  0  0  0  0  0  0  0  0
  147.3558  131.0665  152.8893 N   0  0  0  0  0  0  0  0  0  0  0  0
  148.0576  130.1569  153.5964 C   0  0  0  0  0  0  0  0  0  0  0  0
  149.1417  130.4960  154.4267 C   0  0  0  0  0  0  0  0  0  0  0  0
  149.5183  131.8485  154.5198 C   0  0  0  0  0  0  0  0  0  0  0  0
  148.8002  132.8129  153.7723 C   0  0  0  0  0  0  0  0  0  0  0  0
  149.0776  134.2065  153.8014 N   0  0  0  0  0  0  0  0  0  0  0  0
  149.6257  134.9447  154.7856 C   0  0  0  0  0  0  0  0  0  0  0  0
  149.9621  134.5106  155.8849 O   0  0  0  0  0  0  0  0  0  0  0  0
  149.8089  136.2376  154.4616 N   0  0  0  0  0  0  0  0  0  0  0  0
  150.3754  137.3048  155.2889 C   0  0  1  0  0  0  0  0  0  0  0  0
  151.5865  136.7966  156.0930 C   0  0  0  0  0  0  0  0  0  0  0  0
  152.3426  138.0044  156.6612 C   0  0  0  0  0  0  0  0  0  0  0  0
  152.0871  139.3727  155.4677 S   0  0  0  0  0  0  0  0  0  0  0  0
  151.4414  140.4961  156.1635 O   0  0  0  0  0  0  0  0  0  0  0  0
  153.3096  139.5739  154.6754 O   0  0  0  0  0  0  0  0  0  0  0  0
  150.8455  138.4998  154.4430 C   0  0  0  0  0  0  0  0  0  0  0  0
  145.4797  133.7060  150.9250 H   0  0  0  0  0  0  0  0  0  0  0  0
  145.1634  132.3445  151.9952 H   0  0  0  0  0  0  0  0  0  0  0  0
  146.3068  132.1780  150.6427 H   0  0  0  0  0  0  0  0  0  0  0  0
  147.7416  129.1284  153.5020 H   0  0  0  0  0  0  0  0  0  0  0  0
  149.6697  129.7361  154.9835 H   0  0  0  0  0  0  0  0  0  0  0  0
  150.3359  132.1171  155.1702 H   0  0  0  0  0  0  0  0  0  0  0  0
  148.9183  134.6903  152.9297 H   0  0  0  0  0  0  0  0  0  0  0  0
  149.5412  136.5055  153.5253 H   0  0  0  0  0  0  0  0  0  0  0  0
  149.6310  137.6524  156.0078 H   0  0  0  0  0  0  0  0  0  0  0  0
  151.2890  136.1047  156.8816 H   0  0  0  0  0  0  0  0  0  0  0  0
  152.2557  136.2500  155.4267 H   0  0  0  0  0  0  0  0  0  0  0  0
  151.9191  138.3102  157.6181 H   0  0  0  0  0  0  0  0  0  0  0  0
  153.4074  137.8141  156.7965 H   0  0  0  0  0  0  0  0  0  0  0  0
  151.3427  138.1661  153.5314 H   0  0  0  0  0  0  0  0  0  0  0  0
  150.0400  139.1819  154.1700 H   0  0  0  0  0  0  0  0  0  0  0  0
  1  2  1  0  0  0  0
  1 20  1  0  0  0  0
  1 21  1  0  0  0  0
  1 22  1  0  0  0  0
  2  3  1  0  0  0  0
  3  8  1  0  0  0  0
  3  4  2  0  0  0  0
  4  5  1  0  0  0  0
  5  6  2  0  0  0  0
  5 23  1  0  0  0  0
  6  7  1  0  0  0  0
  6 24  1  0  0  0  0
  7  8  2  0  0  0  0
  7 25  1  0  0  0  0
  8  9  1  0  0  0  0
  9 10  1  0  0  0  0
  9 26  1  0  0  0  0
 10 11  2  0  0  0  0
 10 12  1  0  0  0  0
 12 13  1  0  0  0  0
 12 27  1  0  0  0  0
 13 19  1  0  0  0  0
 13 14  1  0  0  0  0
 13 28  1  0  0  0  0
 14 15  1  0  0  0  0
 14 29  1  0  0  0  0
 14 30  1  0  0  0  0
 15 16  1  0  0  0  0
 15 31  1  0  0  0  0
 15 32  1  0  0  0  0
 16 17  2  0  0  0  0
 16 18  2  0  0  0  0
 16 19  1  0  0  0  0
 19 33  1  0  0  0  0
 19 34  1  0  0  0  0
M  END
> <s_m_source_file>
AV-unprocessed.smi

> <i_m_source_file_index>
851

> <i_lp_mmshare_version>
43012

> <i_f3d_flags>
0

> <s_epik_input>
W0NIM11PYzFuW2NIXVtjSF1bY0hdYzFbTkhdQyg9TylbTkhdW0NAQEhdKFtDSDJdMilbQ0gyXVtDSDJdUzIoPU8pPU8=

> <s_epik_cmdline>
J2VwaWtfcHl0aG9uJywgJy1waCcsICc3LjAnLCAnLXRuJywgJzgnLCAnLW1hJywgJzIwMCcsICctbWV0YWxfYmluZGluZycsICctaW1hZScsICc8aW5maWxlLm1hZT4nLCAnLW9tYWUnLCAnPG91dGZpbGUubWFlPic=

> <r_lp_tautomer_probability>
1

> <r_epik_Ionization_Penalty>
7.64927e-05

> <r_epik_Ionization_Penalty_Charging>
0

> <r_epik_Ionization_Penalty_Neutral>
7.64927e-05

> <r_epik_State_Penalty>
-0

> <r_epik_Charging_Adjusted_Penalty>
0

> <i_epik_Tot_Q>
0

> <i_epik_Tot_abs_Q>
0

> <r_epik_Metal_State_Penalty>
-0

> <b_epik_Metal_Only>
0

> <s_lp_Force_Field>
OPLS_2005

> <r_lp_Energy>
17.9576

> <b_lp_Chiralities_Consistent>
1

> <s_lp_Variant>
AV-unprocessed.smi:851-2

> <Gold.Version>
5.8.1

> <Gold.Id.Protein>
6NUR|6NUR_protein|mol2

> <Gold.PLP.Fitness>
37.3467

> <Gold.PLP.PLP>
-30.2768

> <Gold.PLP.part.hbond>
-4.2001

> <Gold.PLP.part.metal>
0.0000

> <Gold.PLP.part.buried>
-3.4371

> <Gold.PLP.part.nonpolar>
-22.7952

> <Gold.PLP.part.repulsive>
0.7863

> <Gold.PLP.ligand.clash>
0.0000

> <Gold.PLP.ligand.torsion>
0.4407

> <Gold.PLP.Chemscore.Hbond>
2.6500

> <Gold.PLP.Chemscore.CHOScore>
0.0000

> <Gold.PLP.Chemscore.Metal>
0.0000

> <Gold.Chemscore.Hbonds>
donor molecule, donor type, donor heavy atom, donor atom, acceptor molecule, acceptor atom, score
      L1  H     9    26       P1  7948  0.65
      L1  H    12    27       P1  7948  1.00
      P1  H  7997  8009       L1    18  1.00

> <Gold.PLP.Chemscore.Internal.Correction>
0.0013

> <Gold.Rescore>
     Score         DG    S(hbond)    S(metal)    S(lipo)     H(rot)  DE(clash)    DE(int)     intcor
     13.50     -15.98       2.68        0.00      42.05       1.31       0.00       2.48       ----

> <Gold.Chemscore.Fitness>
13.5027

> <Gold.Chemscore.DG>
-15.9809

> <Gold.Chemscore.ZeroCoef>
-5.4800

> <Gold.Chemscore.Hbond>
2.6759

> <Gold.Chemscore.Metal>
0.0000

> <Gold.Chemscore.Lipo>
42.0463

> <Gold.Chemscore.Internal_Hbond>
0.0000

> <Gold.Chemscore.DEClash>
0.0000

> <Gold.Chemscore.DEInternal>
2.4782

> <Gold.Chemscore.Rot>
1.3109

> <Gold.Chemscore.Internal.Correction>
   9.000000E+99

> <Gold.Chemscore.Hbonds>
donor molecule, donor type, donor heavy atom, donor atom, acceptor molecule, acceptor atom, score
      L1  H     9    26       P1  7948  0.05
      L1  H    12    27       P1  7948  0.64
      P1  H  7997  8009       L1    18  0.50

> <Gold.Chemscore.Hbond.Weighted>
-8.9374

> <Gold.Chemscore.Metal.Weighted>
-0.0000

> <Gold.Chemscore.Lipo.Weighted>
-4.9194

> <Gold.Chemscore.Internal_Hbond.Weighted>
0.0000

> <Gold.Chemscore.DEClash.Weighted>
0.0000

> <Gold.Chemscore.DEInternal.Weighted>
2.4782

> <Gold.Chemscore.Rot.Weighted>
3.3559

> <Gold.Chemscore.Internal.Correction.Weighted>
   9.000000E+99

> <Gold.Protein.RotatedTorsions>
[ 6907 6896 6895 6894 ] final  143.20 input  -60.11 | X-H torsion
[ 7974 7965 7964 7962 ] final  153.90 input  175.53 | X-H torsion
[ 8008 7997 7996 7995 ] final -132.20 input   59.86 | X-H torsion
[ 10167 10162 10161 10158 ] final -154.94 input  -65.29 | X-H torsion
[ 10718 10713 10712 10709 ] final -130.97 input   66.30 | X-H torsion
[ 10763 10752 10751 10750 ] final  -67.45 input  -60.55 | X-H torsion
[ 11005 11000 10999 10996 ] final -169.33 input  -57.11 | X-H torsion

> <Gold.Protein.ActiveResidues>
 VAL166  LYS551  ARG553  GLY616  TRP617  ASP618  TYR619  PRO620  LYS621  CYS622 
 ASP623  PHE694  ASN695  SER759  ASP760  ASP761  ALA762  ILE779  LEU786  VAL792 
 PHE793  MET794  SER795  GLU796  ALA797  LYS798  CYS799  TRP800  GLU811  SER814 

> <Gold.Protein.RotatedAtoms>
  152.2093  133.4899  159.5100 H   0  0  0  0  0  0  0  0  0  0  0  0  # atno 6907 bound_to 6896
  150.6986  134.1488  159.4142 H   0  0  0  0  0  0  0  0  0  0  0  0  # atno 6908 bound_to 6896
  151.9407  135.0214  160.0586 H   0  0  0  0  0  0  0  0  0  0  0  0  # atno 6909 bound_to 6896
  144.8124  139.6862  143.6136 H   0  0  0  0  0  0  0  0  0  0  0  0  # atno 7974 bound_to 7965
  155.3249  140.0464  157.3040 H   0  0  0  0  0  0  0  0  0  0  0  0  # atno 8008 bound_to 7997
  154.5360  140.2272  155.8688 H   0  0  0  0  0  0  0  0  0  0  0  0  # atno 8009 bound_to 7997
  156.1835  140.3068  155.9200 H   0  0  0  0  0  0  0  0  0  0  0  0  # atno 8010 bound_to 7997
  139.6972  143.9322  152.2412 H   0  0  0  0  0  0  0  0  0  0  0  0  # atno 10167 bound_to 10162
  156.2197  130.6970  151.0742 H   0  0  0  0  0  0  0  0  0  0  0  0  # atno 10718 bound_to 10713
  154.3747  135.6087  153.5759 H   0  0  0  0  0  0  0  0  0  0  0  0  # atno 10763 bound_to 10752
  152.9789  135.5846  154.4480 H   0  0  0  0  0  0  0  0  0  0  0  0  # atno 10764 bound_to 10752
  154.4240  135.2846  155.1934 H   0  0  0  0  0  0  0  0  0  0  0  0  # atno 10765 bound_to 10752
  140.5319  134.5607  157.5077 H   0  0  0  0  0  0  0  0  0  0  0  0  # atno 11005 bound_to 11000
  146.2424  139.6028  142.9483 LP  0  0  0  0  0  0  0  0  0  0  0  0  # atno 17320 bound_to 7965
  145.5294  141.0428  143.2391 LP  0  0  0  0  0  0  0  0  0  0  0  0  # atno 17321 bound_to 7965
  139.9155  144.6831  150.8517 LP  0  0  0  0  0  0  0  0  0  0  0  0  # atno 17342 bound_to 10162
  140.7700  143.3412  151.2203 LP  0  0  0  0  0  0  0  0  0  0  0  0  # atno 17343 bound_to 10162
  157.7081  131.0747  150.6597 LP  0  0  0  0  0  0  0  0  0  0  0  0  # atno 17370 bound_to 10713
  156.6659  130.4525  149.5672 LP  0  0  0  0  0  0  0  0  0  0  0  0  # atno 17371 bound_to 10713
  139.9549  134.7552  156.0363 LP  0  0  0  0  0  0  0  0  0  0  0  0  # atno 17394 bound_to 11000
  141.1276  133.6595  156.3378 LP  0  0  0  0  0  0  0  0  0  0  0  0  # atno 17395 bound_to 11000

$$$$
