AV-unprocessed.smi:2702|AV-procd|sdf|10434|dock10
  -GOLD-   2272014473D 1   1.00000     0.00000
 Structure written by MMmdl.
 47 48  0  0  0  0  0  0  0  0  1 V2000
  145.9788  142.8503  153.8861 C   0  0  0  0  0  0  0  0  0  0  0  0
  147.3610  142.7470  153.5926 O   0  0  0  0  0  0  0  0  0  0  0  0
  147.7830  141.4028  153.4339 C   0  0  0  0  0  0  0  0  0  0  0  0
  148.6283  140.9703  154.6147 C   0  0  0  0  0  0  0  0  0  0  0  0
  149.9328  140.6364  154.4792 C   0  0  0  0  0  0  0  0  0  0  0  0
  150.7185  140.2122  155.6382 C   0  0  0  0  0  0  0  0  0  0  0  0
  151.9080  139.9042  155.5572 O   0  0  0  0  0  0  0  0  0  0  0  0
  150.0323  140.1848  156.8192 N   0  0  0  0  0  0  0  0  0  0  0  0
  150.6901  139.7823  158.0757 C   0  0  0  0  0  0  0  0  0  0  0  0
  152.0287  140.4965  158.3115 C   0  0  0  0  0  0  0  0  0  0  0  0
  153.0673  140.0649  157.8099 O   0  0  0  0  0  0  0  0  0  0  0  0
  151.9795  141.5869  159.0916 N   0  0  0  0  0  0  0  0  0  0  0  0
  153.1069  142.4519  159.4459 C   0  0  2  0  0  0  0  0  0  0  0  0
  153.4672  142.2569  160.9302 C   0  0  0  0  0  0  0  0  0  0  0  0
  152.3854  142.8238  161.8611 C   0  0  0  0  0  0  0  0  0  0  0  0
  152.1099  144.3006  161.5481 C   0  0  0  0  0  0  0  0  0  0  0  0
  151.7202  144.5214  160.0716 C   0  0  1  0  0  0  0  0  0  0  0  0
  151.4433  146.0154  159.8252 C   0  0  0  0  0  0  0  0  0  0  0  0
  152.8084  143.9413  159.1250 C   0  0  2  0  0  0  0  0  0  0  0  0
  152.4813  144.1435  157.6312 C   0  0  0  0  0  0  0  0  0  0  0  0
  148.6681  140.5283  156.9010 C   0  0  0  0  0  0  0  0  0  0  0  0
  147.9952  140.9027  155.8598 N   0  0  0  0  0  0  0  0  0  0  0  0
  145.7049  143.8998  153.9945 H   0  0  0  0  0  0  0  0  0  0  0  0
  145.7349  142.3405  154.8190 H   0  0  0  0  0  0  0  0  0  0  0  0
  145.3726  142.4248  153.0851 H   0  0  0  0  0  0  0  0  0  0  0  0
  146.9168  140.7428  153.3593 H   0  0  0  0  0  0  0  0  0  0  0  0
  148.3526  141.2944  152.5090 H   0  0  0  0  0  0  0  0  0  0  0  0
  150.4069  140.6844  153.5097 H   0  0  0  0  0  0  0  0  0  0  0  0
  150.0209  139.9817  158.9152 H   0  0  0  0  0  0  0  0  0  0  0  0
  150.8708  138.7065  158.1101 H   0  0  0  0  0  0  0  0  0  0  0  0
  151.0781  141.8572  159.4576 H   0  0  0  0  0  0  0  0  0  0  0  0
  153.9826  142.1540  158.8668 H   0  0  0  0  0  0  0  0  0  0  0  0
  153.6291  141.1998  161.1444 H   0  0  0  0  0  0  0  0  0  0  0  0
  154.4142  142.7566  161.1380 H   0  0  0  0  0  0  0  0  0  0  0  0
  151.4648  142.2481  161.7585 H   0  0  0  0  0  0  0  0  0  0  0  0
  152.6991  142.7174  162.8999 H   0  0  0  0  0  0  0  0  0  0  0  0
  151.3162  144.6643  162.2019 H   0  0  0  0  0  0  0  0  0  0  0  0
  152.9964  144.8903  161.7855 H   0  0  0  0  0  0  0  0  0  0  0  0
  150.7870  143.9861  159.8899 H   0  0  0  0  0  0  0  0  0  0  0  0
  152.3539  146.6083  159.9178 H   0  0  0  0  0  0  0  0  0  0  0  0
  150.7215  146.4030  160.5448 H   0  0  0  0  0  0  0  0  0  0  0  0
  151.0259  146.1919  158.8343 H   0  0  0  0  0  0  0  0  0  0  0  0
  153.7304  144.4924  159.3169 H   0  0  0  0  0  0  0  0  0  0  0  0
  151.5013  143.7402  157.3743 H   0  0  0  0  0  0  0  0  0  0  0  0
  153.2194  143.6480  156.9997 H   0  0  0  0  0  0  0  0  0  0  0  0
  152.4887  145.1981  157.3572 H   0  0  0  0  0  0  0  0  0  0  0  0
  148.2233  140.4531  157.8945 H   0  0  0  0  0  0  0  0  0  0  0  0
  1  2  1  0  0  0  0
  1 23  1  0  0  0  0
  1 24  1  0  0  0  0
  1 25  1  0  0  0  0
  2  3  1  0  0  0  0
  3  4  1  0  0  0  0
  3 26  1  0  0  0  0
  3 27  1  0  0  0  0
  4 22  1  0  0  0  0
  4  5  2  0  0  0  0
  5  6  1  0  0  0  0
  5 28  1  0  0  0  0
  6  7  2  0  0  0  0
  6  8  1  0  0  0  0
  8  9  1  0  0  0  0
  8 21  1  0  0  0  0
  9 10  1  0  0  0  0
  9 29  1  0  0  0  0
  9 30  1  0  0  0  0
 10 11  2  0  0  0  0
 10 12  1  0  0  0  0
 12 13  1  0  0  0  0
 12 31  1  0  0  0  0
 13 19  1  0  0  0  0
 13 14  1  0  0  0  0
 13 32  1  0  0  0  0
 14 15  1  0  0  0  0
 14 33  1  0  0  0  0
 14 34  1  0  0  0  0
 15 16  1  0  0  0  0
 15 35  1  0  0  0  0
 15 36  1  0  0  0  0
 16 17  1  0  0  0  0
 16 37  1  0  0  0  0
 16 38  1  0  0  0  0
 17 18  1  0  0  0  0
 17 19  1  0  0  0  0
 17 39  1  0  0  0  0
 18 40  1  0  0  0  0
 18 41  1  0  0  0  0
 18 42  1  0  0  0  0
 19 20  1  0  0  0  0
 19 43  1  0  0  0  0
 20 44  1  0  0  0  0
 20 45  1  0  0  0  0
 20 46  1  0  0  0  0
 21 22  2  0  0  0  0
 21 47  1  0  0  0  0
M  END
> <s_m_source_file>
AV-unprocessed.smi

> <i_m_source_file_index>
2702

> <i_lp_mmshare_version>
43012

> <i_f3d_flags>
0

> <s_epik_input>
W0NIM11PW0NIMl1jMVtjSF1jKD1PKW4oW2NIXW4xKVtDSDJdQyg9TylbTkhdW0NAQEhdMltDSDJdW0NIMl1bQ0gyXVtDQEBIXShbQ0gzXSlbQ0BIXTJbQ0gzXQ==

> <s_epik_cmdline>
J2VwaWtfcHl0aG9uJywgJy1waCcsICc3LjAnLCAnLXRuJywgJzgnLCAnLW1hJywgJzIwMCcsICctbWV0YWxfYmluZGluZycsICctaW1hZScsICc8aW5maWxlLm1hZT4nLCAnLW9tYWUnLCAnPG91dGZpbGUubWFlPic=

> <r_lp_tautomer_probability>
1

> <r_epik_Ionization_Penalty>
1.22164e-06

> <r_epik_Ionization_Penalty_Charging>
3.17988e-07

> <r_epik_Ionization_Penalty_Neutral>
9.03656e-07

> <r_epik_State_Penalty>
-0

> <r_epik_Charging_Adjusted_Penalty>
3.17988e-07

> <i_epik_Tot_Q>
0

> <i_epik_Tot_abs_Q>
0

> <r_epik_Metal_State_Penalty>
-0

> <b_epik_Metal_Only>
0

> <s_lp_Force_Field>
OPLS_2005

> <r_lp_Energy>
16.9419

> <b_lp_Chiralities_Consistent>
1

> <s_lp_Variant>
AV-unprocessed.smi:2702-5

> <Gold.Version>
5.8.1

> <Gold.Id.Protein>
6NUR|6NUR_protein|mol2

> <Gold.PLP.Fitness>
55.0437

> <Gold.PLP.PLP>
-51.7762

> <Gold.PLP.part.hbond>
-2.7969

> <Gold.PLP.part.metal>
0.0000

> <Gold.PLP.part.buried>
-3.2481

> <Gold.PLP.part.nonpolar>
-45.7208

> <Gold.PLP.part.repulsive>
1.0731

> <Gold.PLP.ligand.clash>
0.0000

> <Gold.PLP.ligand.torsion>
0.8973

> <Gold.PLP.Chemscore.Hbond>
1.6720

> <Gold.PLP.Chemscore.CHOScore>
0.0000

> <Gold.PLP.Chemscore.Metal>
0.0000

> <Gold.Chemscore.Hbonds>
donor molecule, donor type, donor heavy atom, donor atom, acceptor molecule, acceptor atom, score
      P1  H  7989  7998       L1     7  0.03
      P1  H  7997  8009       L1    11  0.90
      P1  H  8022  8030       L1     2  0.12

> <Gold.PLP.Chemscore.Internal.Correction>
0.0462

> <Gold.Rescore>
     Score         DG    S(hbond)    S(metal)    S(lipo)     H(rot)  DE(clash)    DE(int)     intcor
     16.87     -17.74       1.00        0.00     118.40       1.93       0.06       0.81       ----

> <Gold.Chemscore.Fitness>
16.8729

> <Gold.Chemscore.DG>
-17.7376

> <Gold.Chemscore.ZeroCoef>
-5.4800

> <Gold.Chemscore.Hbond>
1.0006

> <Gold.Chemscore.Metal>
0.0000

> <Gold.Chemscore.Lipo>
118.3979

> <Gold.Chemscore.Internal_Hbond>
0.0000

> <Gold.Chemscore.DEClash>
0.0575

> <Gold.Chemscore.DEInternal>
0.8072

> <Gold.Chemscore.Rot>
1.9284

> <Gold.Chemscore.Internal.Correction>
   9.000000E+99

> <Gold.Chemscore.Hbonds>
donor molecule, donor type, donor heavy atom, donor atom, acceptor molecule, acceptor atom, score
      P1  H  7997  8009       L1    11  0.88
      P1  H  8022  8030       L1     2  0.11

> <Gold.Chemscore.Hbond.Weighted>
-3.3418

> <Gold.Chemscore.Metal.Weighted>
-0.0000

> <Gold.Chemscore.Lipo.Weighted>
-13.8526

> <Gold.Chemscore.Internal_Hbond.Weighted>
0.0000

> <Gold.Chemscore.DEClash.Weighted>
0.0575

> <Gold.Chemscore.DEInternal.Weighted>
0.8072

> <Gold.Chemscore.Rot.Weighted>
4.9368

> <Gold.Chemscore.Internal.Correction.Weighted>
   9.000000E+99

> <Gold.Protein.RotatedTorsions>
[ 6907 6896 6895 6894 ] final -129.16 input  -60.11 | X-H torsion
[ 7974 7965 7964 7962 ] final   40.11 input  175.53 | X-H torsion
[ 8008 7997 7996 7995 ] final  148.25 input   59.86 | X-H torsion
[ 10167 10162 10161 10158 ] final  122.98 input  -65.29 | X-H torsion
[ 10718 10713 10712 10709 ] final  140.58 input   66.30 | X-H torsion
[ 10763 10752 10751 10750 ] final  179.50 input  -60.55 | X-H torsion
[ 11005 11000 10999 10996 ] final  156.50 input  -57.11 | X-H torsion

> <Gold.Protein.ActiveResidues>
 VAL166  LYS551  ARG553  GLY616  TRP617  ASP618  TYR619  PRO620  LYS621  CYS622 
 ASP623  PHE694  ASN695  SER759  ASP760  ASP761  ALA762  ILE779  LEU786  VAL792 
 PHE793  MET794  SER795  GLU796  ALA797  LYS798  CYS799  TRP800  GLU811  SER814 

> <Gold.Protein.RotatedAtoms>
  150.9257  133.6827  159.2821 H   0  0  0  0  0  0  0  0  0  0  0  0  # atno 6907 bound_to 6896
  151.4266  135.1003  159.9639 H   0  0  0  0  0  0  0  0  0  0  0  0  # atno 6908 bound_to 6896
  152.5001  133.8697  159.7347 H   0  0  0  0  0  0  0  0  0  0  0  0  # atno 6909 bound_to 6896
  146.0931  139.5571  142.9463 H   0  0  0  0  0  0  0  0  0  0  0  0  # atno 7974 bound_to 7965
  156.2798  140.2134  156.5668 H   0  0  0  0  0  0  0  0  0  0  0  0  # atno 8008 bound_to 7997
  154.7168  140.0507  157.0625 H   0  0  0  0  0  0  0  0  0  0  0  0  # atno 8009 bound_to 7997
  155.0531  140.3158  155.4688 H   0  0  0  0  0  0  0  0  0  0  0  0  # atno 8010 bound_to 7997
  139.5826  144.6993  151.3489 H   0  0  0  0  0  0  0  0  0  0  0  0  # atno 10167 bound_to 10162
  157.4016  131.1017  151.0545 H   0  0  0  0  0  0  0  0  0  0  0  0  # atno 10718 bound_to 10713
  154.5215  135.2794  155.1258 H   0  0  0  0  0  0  0  0  0  0  0  0  # atno 10763 bound_to 10752
  154.2814  135.6284  153.5352 H   0  0  0  0  0  0  0  0  0  0  0  0  # atno 10764 bound_to 10752
  152.9938  135.5652  154.5705 H   0  0  0  0  0  0  0  0  0  0  0  0  # atno 10765 bound_to 10752
  140.1681  134.8562  157.2657 H   0  0  0  0  0  0  0  0  0  0  0  0  # atno 11005 bound_to 11000
  145.6001  141.0356  143.2023 LP  0  0  0  0  0  0  0  0  0  0  0  0  # atno 17320 bound_to 7965
  144.7375  139.7545  143.7324 LP  0  0  0  0  0  0  0  0  0  0  0  0  # atno 17321 bound_to 7965
  140.7102  143.7409  150.7554 LP  0  0  0  0  0  0  0  0  0  0  0  0  # atno 17342 bound_to 10162
  140.0945  143.4846  152.2460 LP  0  0  0  0  0  0  0  0  0  0  0  0  # atno 17343 bound_to 10162
  157.1542  130.6197  149.5591 LP  0  0  0  0  0  0  0  0  0  0  0  0  # atno 17370 bound_to 10713
  155.9825  130.4839  150.6884 LP  0  0  0  0  0  0  0  0  0  0  0  0  # atno 17371 bound_to 10713
  140.2410  134.3796  155.7481 LP  0  0  0  0  0  0  0  0  0  0  0  0  # atno 17394 bound_to 11000
  141.2215  133.7265  156.8789 LP  0  0  0  0  0  0  0  0  0  0  0  0  # atno 17395 bound_to 11000

$$$$
