AV-unprocessed.smi:2386|AV-procd|sdf|9467|dock6
  -GOLD-   2272013 93D 1   1.00000     0.00000
 Structure written by MMmdl.
 43 44  0  0  0  0  0  0  0  0  2 V2000
  153.5081  141.0028  159.8477 C   0  0  0  0  0  0  0  0  0  0  0  0
  152.8390  142.2064  159.2183 C   0  0  0  0  0  0  0  0  0  0  0  0
  153.1682  143.5143  159.6251 C   0  0  0  0  0  0  0  0  0  0  0  0
  152.5110  144.5884  158.9991 C   0  0  0  0  0  0  0  0  0  0  0  0
  151.5597  144.3124  157.9981 C   0  0  0  0  0  0  0  0  0  0  0  0
  151.2879  142.9707  157.6483 C   0  0  0  0  0  0  0  0  0  0  0  0
  150.3157  142.8007  156.6271 N   0  0  0  0  0  0  0  0  0  0  0  0
  150.2157  141.8024  155.7318 C   0  0  0  0  0  0  0  0  0  0  0  0
  150.9708  140.8327  155.6559 O   0  0  0  0  0  0  0  0  0  0  0  0
  149.1676  141.9865  154.9159 N   0  0  0  0  0  0  0  0  0  0  0  0
  148.7798  141.0931  153.8285 C   0  0  0  0  0  0  0  0  0  0  0  0
  147.2761  141.1617  153.4982 C   0  0  0  0  0  0  0  0  0  0  0  0
  146.4400  140.0624  154.1808 C   0  0  0  0  0  0  0  0  0  0  0  0
  145.8741  139.0989  153.2039 N   0  3  0  0  0  0  0  0  0  0  0  0
  146.7952  138.8290  152.0740 C   0  0  0  0  0  0  0  0  0  0  0  0
  146.1456  137.8657  151.0665 C   0  0  0  0  0  0  0  0  0  0  0  0
  145.7772  136.6619  151.7273 O   0  0  0  0  0  0  0  0  0  0  0  0
  144.8242  136.8922  152.7572 C   0  0  0  0  0  0  0  0  0  0  0  0
  145.4259  137.8257  153.8213 C   0  0  0  0  0  0  0  0  0  0  0  0
  151.9254  141.9414  158.2595 N   0  0  0  0  0  0  0  0  0  0  0  0
  154.2173  141.3026  160.6197 H   0  0  0  0  0  0  0  0  0  0  0  0
  154.0489  140.4322  159.0922 H   0  0  0  0  0  0  0  0  0  0  0  0
  152.7635  140.3504  160.3045 H   0  0  0  0  0  0  0  0  0  0  0  0
  153.9041  143.6932  160.3954 H   0  0  0  0  0  0  0  0  0  0  0  0
  152.7324  145.6074  159.2806 H   0  0  0  0  0  0  0  0  0  0  0  0
  151.0472  145.1264  157.5065 H   0  0  0  0  0  0  0  0  0  0  0  0
  149.6185  143.5278  156.5688 H   0  0  0  0  0  0  0  0  0  0  0  0
  148.6043  142.8141  155.0463 H   0  0  0  0  0  0  0  0  0  0  0  0
  149.3623  141.3632  152.9473 H   0  0  0  0  0  0  0  0  0  0  0  0
  149.0615  140.0692  154.0794 H   0  0  0  0  0  0  0  0  0  0  0  0
  146.9138  142.1455  153.7948 H   0  0  0  0  0  0  0  0  0  0  0  0
  147.1354  141.1058  152.4180 H   0  0  0  0  0  0  0  0  0  0  0  0
  147.0849  139.5197  154.8730 H   0  0  0  0  0  0  0  0  0  0  0  0
  145.6412  140.4979  154.7830 H   0  0  0  0  0  0  0  0  0  0  0  0
  147.0504  139.7627  151.5717 H   0  0  0  0  0  0  0  0  0  0  0  0
  147.7251  138.4027  152.4532 H   0  0  0  0  0  0  0  0  0  0  0  0
  145.2714  138.3212  150.5986 H   0  0  0  0  0  0  0  0  0  0  0  0
  146.8474  137.6289  150.2669 H   0  0  0  0  0  0  0  0  0  0  0  0
  143.9110  137.3167  152.3372 H   0  0  0  0  0  0  0  0  0  0  0  0
  144.5531  135.9368  153.2065 H   0  0  0  0  0  0  0  0  0  0  0  0
  146.2718  137.3363  154.3065 H   0  0  0  0  0  0  0  0  0  0  0  0
  144.6820  138.0163  154.5941 H   0  0  0  0  0  0  0  0  0  0  0  0
  145.0582  139.5390  152.8025 H   0  0  0  0  0  0  0  0  0  0  0  0
  1  2  1  0  0  0  0
  1 21  1  0  0  0  0
  1 22  1  0  0  0  0
  1 23  1  0  0  0  0
  2 20  1  0  0  0  0
  2  3  2  0  0  0  0
  3  4  1  0  0  0  0
  3 24  1  0  0  0  0
  4  5  2  0  0  0  0
  4 25  1  0  0  0  0
  5  6  1  0  0  0  0
  5 26  1  0  0  0  0
  6  7  1  0  0  0  0
  6 20  2  0  0  0  0
  7  8  1  0  0  0  0
  7 27  1  0  0  0  0
  8  9  2  0  0  0  0
  8 10  1  0  0  0  0
 10 11  1  0  0  0  0
 10 28  1  0  0  0  0
 11 12  1  0  0  0  0
 11 29  1  0  0  0  0
 11 30  1  0  0  0  0
 12 13  1  0  0  0  0
 12 31  1  0  0  0  0
 12 32  1  0  0  0  0
 13 14  1  0  0  0  0
 13 33  1  0  0  0  0
 13 34  1  0  0  0  0
 14 19  1  0  0  0  0
 14 15  1  0  0  0  0
 14 43  1  0  0  0  0
 15 16  1  0  0  0  0
 15 35  1  0  0  0  0
 15 36  1  0  0  0  0
 16 17  1  0  0  0  0
 16 37  1  0  0  0  0
 16 38  1  0  0  0  0
 17 18  1  0  0  0  0
 18 19  1  0  0  0  0
 18 39  1  0  0  0  0
 18 40  1  0  0  0  0
 19 41  1  0  0  0  0
 19 42  1  0  0  0  0
M  CHG  1  14   1
M  END
> <s_m_source_file>
AV-unprocessed.smi

> <i_m_source_file_index>
2386

> <i_lp_mmshare_version>
43012

> <i_f3d_flags>
0

> <s_epik_input>
W0NIM11jMVtjSF1bY0hdW2NIXWMobjEpW05IXUMoPU8pW05IXVtDSDJdW0NIMl1bQ0gyXU4yW0NIMl1bQ0gyXU9bQ0gyXVtDSDJdMg==

> <s_epik_cmdline>
J2VwaWtfcHl0aG9uJywgJy1waCcsICc3LjAnLCAnLXRuJywgJzgnLCAnLW1hJywgJzIwMCcsICctbWV0YWxfYmluZGluZycsICctaW1hZScsICc8aW5maWxlLm1hZT4nLCAnLW9tYWUnLCAnPG91dGZpbGUubWFlPic=

> <r_epik_Ionization_Penalty>
0.270568

> <r_epik_Ionization_Penalty_Charging>
0.270496

> <r_epik_Ionization_Penalty_Neutral>
7.21828e-05

> <r_epik_State_Penalty>
0.262618

> <r_epik_Charging_Adjusted_Penalty>
0.533114

> <i_epik_Tot_Q>
1

> <i_epik_Tot_abs_Q>
1

> <r_epik_Metal_State_Penalty>
0.26262

> <b_epik_Metal_Only>
0

> <s_lp_Force_Field>
OPLS_2005

> <r_lp_Energy>
18.5564

> <b_lp_Chiralities_Consistent>
1

> <s_lp_Variant>
AV-unprocessed.smi:2386-1

> <Gold.Version>
5.8.1

> <Gold.Id.Protein>
6NUR|6NUR_protein|mol2

> <Gold.PLP.Fitness>
51.9892

> <Gold.PLP.PLP>
-41.9908

> <Gold.PLP.part.hbond>
-3.7636

> <Gold.PLP.part.metal>
0.0000

> <Gold.PLP.part.buried>
1.6751

> <Gold.PLP.part.nonpolar>
-40.0093

> <Gold.PLP.part.repulsive>
0.5527

> <Gold.PLP.ligand.clash>
0.0000

> <Gold.PLP.ligand.torsion>
1.1711

> <Gold.PLP.Chemscore.Hbond>
4.1025

> <Gold.PLP.Chemscore.CHOScore>
0.0000

> <Gold.PLP.Chemscore.Metal>
0.0000

> <Gold.Chemscore.Hbonds>
donor molecule, donor type, donor heavy atom, donor atom, acceptor molecule, acceptor atom, score
      L1  H     7    27       P1  8028  0.98
      L1  H    10    28       P1  8028  0.77
      L1  H    14    43       P1 10175  2.00
      P1  H  7989  7998       L1     9  0.35

> <Gold.PLP.Chemscore.Internal.Correction>
0.0331

> <Gold.Rescore>
     Score         DG    S(hbond)    S(metal)    S(lipo)     H(rot)  DE(clash)    DE(int)     intcor
     19.60     -22.71       2.91        0.00     102.81       1.76       1.00       2.11       ----

> <Gold.Chemscore.Fitness>
19.6028

> <Gold.Chemscore.DG>
-22.7134

> <Gold.Chemscore.ZeroCoef>
-5.4800

> <Gold.Chemscore.Hbond>
2.9068

> <Gold.Chemscore.Metal>
0.0000

> <Gold.Chemscore.Lipo>
102.8091

> <Gold.Chemscore.Internal_Hbond>
0.0000

> <Gold.Chemscore.DEClash>
0.9959

> <Gold.Chemscore.DEInternal>
2.1147

> <Gold.Chemscore.Rot>
1.7593

> <Gold.Chemscore.Internal.Correction>
   9.000000E+99

> <Gold.Chemscore.Hbonds>
donor molecule, donor type, donor heavy atom, donor atom, acceptor molecule, acceptor atom, score
      L1  H     7    27       P1  8028  0.93
      L1  H    10    28       P1  8028  0.73
      L1  H    14    43       P1 10175  1.00
      P1  H  7989  7998       L1     9  0.14

> <Gold.Chemscore.Hbond.Weighted>
-9.7087

> <Gold.Chemscore.Metal.Weighted>
-0.0000

> <Gold.Chemscore.Lipo.Weighted>
-12.0287

> <Gold.Chemscore.Internal_Hbond.Weighted>
0.0000

> <Gold.Chemscore.DEClash.Weighted>
0.9959

> <Gold.Chemscore.DEInternal.Weighted>
2.1147

> <Gold.Chemscore.Rot.Weighted>
4.5039

> <Gold.Chemscore.Internal.Correction.Weighted>
   9.000000E+99

> <Gold.Protein.RotatedTorsions>
[ 6907 6896 6895 6894 ] final -149.50 input  -60.11 | X-H torsion
[ 7974 7965 7964 7962 ] final  104.57 input  175.53 | X-H torsion
[ 8008 7997 7996 7995 ] final -109.28 input   59.86 | X-H torsion
[ 10167 10162 10161 10158 ] final   -2.28 input  -65.29 | X-H torsion
[ 10718 10713 10712 10709 ] final  149.76 input   66.30 | X-H torsion
[ 10763 10752 10751 10750 ] final   72.27 input  -60.55 | X-H torsion
[ 11005 11000 10999 10996 ] final  177.31 input  -57.11 | X-H torsion

> <Gold.Protein.ActiveResidues>
 VAL166  LYS551  ARG553  GLY616  TRP617  ASP618  TYR619  PRO620  LYS621  CYS622 
 ASP623  PHE694  ASN695  SER759  ASP760  ASP761  ALA762  ILE779  LEU786  VAL792 
 PHE793  MET794  SER795  GLU796  ALA797  LYS798  CYS799  TRP800  GLU811  SER814 

> <Gold.Protein.RotatedAtoms>
  151.1850  133.4702  159.2594 H   0  0  0  0  0  0  0  0  0  0  0  0  # atno 6907 bound_to 6896
  151.1221  135.0085  159.8553 H   0  0  0  0  0  0  0  0  0  0  0  0  # atno 6908 bound_to 6896
  152.5456  134.1760  159.8669 H   0  0  0  0  0  0  0  0  0  0  0  0  # atno 6909 bound_to 6896
  145.3311  139.2486  143.3660 H   0  0  0  0  0  0  0  0  0  0  0  0  # atno 7974 bound_to 7965
  154.9570  140.0400  157.2172 H   0  0  0  0  0  0  0  0  0  0  0  0  # atno 8008 bound_to 7997
  154.7925  140.2838  155.5959 H   0  0  0  0  0  0  0  0  0  0  0  0  # atno 8009 bound_to 7997
  156.2951  140.2570  156.2775 H   0  0  0  0  0  0  0  0  0  0  0  0  # atno 8010 bound_to 7997
  140.6845  143.6675  150.8213 H   0  0  0  0  0  0  0  0  0  0  0  0  # atno 10167 bound_to 10162
  157.2920  131.0855  151.1454 H   0  0  0  0  0  0  0  0  0  0  0  0  # atno 10718 bound_to 10713
  153.0449  135.5106  154.7719 H   0  0  0  0  0  0  0  0  0  0  0  0  # atno 10763 bound_to 10752
  154.6627  135.2941  154.9847 H   0  0  0  0  0  0  0  0  0  0  0  0  # atno 10764 bound_to 10752
  154.0693  135.6680  153.4874 H   0  0  0  0  0  0  0  0  0  0  0  0  # atno 10765 bound_to 10752
  140.3827  134.6932  157.4461 H   0  0  0  0  0  0  0  0  0  0  0  0  # atno 11005 bound_to 11000
  146.3045  140.3889  142.8692 LP  0  0  0  0  0  0  0  0  0  0  0  0  # atno 17320 bound_to 7965
  144.8863  140.7467  143.5954 LP  0  0  0  0  0  0  0  0  0  0  0  0  # atno 17321 bound_to 7965
  140.0380  143.5375  152.2730 LP  0  0  0  0  0  0  0  0  0  0  0  0  # atno 17342 bound_to 10162
  139.6192  144.7625  151.2779 LP  0  0  0  0  0  0  0  0  0  0  0  0  # atno 17343 bound_to 10162
  157.2847  130.6767  149.6083 LP  0  0  0  0  0  0  0  0  0  0  0  0  # atno 17370 bound_to 10713
  155.9667  130.4439  150.5440 LP  0  0  0  0  0  0  0  0  0  0  0  0  # atno 17371 bound_to 10713
  140.0466  134.6191  155.8913 LP  0  0  0  0  0  0  0  0  0  0  0  0  # atno 17394 bound_to 11000
  141.1918  133.6573  156.5472 LP  0  0  0  0  0  0  0  0  0  0  0  0  # atno 17395 bound_to 11000

$$$$
