AV-unprocessed.smi:2735|AV-procd|sdf|10544|dock9
  -GOLD-   2272014593D 1   1.00000     0.00000
 Structure written by MMmdl.
 42 42  0  0  0  0  0  0  0  0  2 V2000
  153.4223  142.2422  162.5429 C   0  0  0  0  0  0  0  0  0  0  0  0
  152.6596  142.6645  161.3223 C   0  0  0  0  0  0  0  0  0  0  0  0
  152.2299  143.9697  160.9579 C   0  0  0  0  0  0  0  0  0  0  0  0
  151.5779  143.7918  159.7702 C   0  0  0  0  0  0  0  0  0  0  0  0
  150.8893  144.7957  158.9034 C   0  0  0  0  0  0  0  0  0  0  0  0
  151.6523  142.4417  159.4623 N   0  0  0  0  0  0  0  0  0  0  0  0
  151.0742  141.7270  158.3238 C   0  0  1  0  0  0  0  0  0  0  0  0
  151.2247  142.4945  156.9934 C   0  0  0  0  0  0  0  0  0  0  0  0
  151.6583  140.3090  158.2397 C   0  0  0  0  0  0  0  0  0  0  0  0
  152.8753  140.1360  158.1658 O   0  0  0  0  0  0  0  0  0  0  0  0
  150.7677  139.3051  158.2561 N   0  0  0  0  0  0  0  0  0  0  0  0
  151.0608  137.8733  158.2373 C   0  0  2  0  0  0  0  0  0  0  0  0
  151.5815  137.4241  156.8510 C   0  0  0  0  0  0  0  0  0  0  0  0
  150.6066  137.6058  155.6650 C   0  0  0  0  0  0  0  0  0  0  0  0
  149.6856  136.3833  155.5337 C   0  0  0  0  0  0  0  0  0  0  0  0
  151.3385  137.8650  154.3371 C   0  0  0  0  0  0  0  0  0  0  0  0
  149.8090  137.1017  158.6708 C   0  0  0  0  0  0  0  0  0  0  0  0
  149.8311  135.8558  158.5505 O   0  0  0  0  0  0  0  0  0  0  0  0
  148.8494  137.7680  159.1169 O   0  5  0  0  0  0  0  0  0  0  0  0
  152.3039  141.7557  160.4311 N   0  0  0  0  0  0  0  0  0  0  0  0
  151.8232  137.6539  158.9859 H   0  0  0  0  0  0  0  0  0  0  0  0
  153.6546  143.0975  163.1777 H   0  0  0  0  0  0  0  0  0  0  0  0
  154.3640  141.7646  162.2718 H   0  0  0  0  0  0  0  0  0  0  0  0
  152.8472  141.5331  163.1390 H   0  0  0  0  0  0  0  0  0  0  0  0
  152.3706  144.8970  161.4932 H   0  0  0  0  0  0  0  0  0  0  0  0
  151.0205  145.8038  159.2975 H   0  0  0  0  0  0  0  0  0  0  0  0
  149.8187  144.5986  158.8512 H   0  0  0  0  0  0  0  0  0  0  0  0
  151.2907  144.7804  157.8903 H   0  0  0  0  0  0  0  0  0  0  0  0
  150.0031  141.6359  158.5074 H   0  0  0  0  0  0  0  0  0  0  0  0
  150.7277  141.9650  156.1799 H   0  0  0  0  0  0  0  0  0  0  0  0
  152.2690  142.6275  156.7073 H   0  0  0  0  0  0  0  0  0  0  0  0
  150.7718  143.4838  157.0629 H   0  0  0  0  0  0  0  0  0  0  0  0
  149.7903  139.5478  158.3285 H   0  0  0  0  0  0  0  0  0  0  0  0
  152.5053  137.9590  156.6243 H   0  0  0  0  0  0  0  0  0  0  0  0
  151.8641  136.3721  156.9170 H   0  0  0  0  0  0  0  0  0  0  0  0
  149.9630  138.4614  155.8677 H   0  0  0  0  0  0  0  0  0  0  0  0
  150.2562  135.4771  155.3270 H   0  0  0  0  0  0  0  0  0  0  0  0
  148.9674  136.5163  154.7242 H   0  0  0  0  0  0  0  0  0  0  0  0
  149.1178  136.2173  156.4496 H   0  0  0  0  0  0  0  0  0  0  0  0
  152.0170  137.0473  154.0921 H   0  0  0  0  0  0  0  0  0  0  0  0
  151.9228  138.7839  154.3691 H   0  0  0  0  0  0  0  0  0  0  0  0
  150.6307  137.9661  153.5140 H   0  0  0  0  0  0  0  0  0  0  0  0
  1  2  1  0  0  0  0
  1 22  1  0  0  0  0
  1 23  1  0  0  0  0
  1 24  1  0  0  0  0
  2 20  2  0  0  0  0
  2  3  1  0  0  0  0
  3  4  2  0  0  0  0
  3 25  1  0  0  0  0
  4  5  1  0  0  0  0
  4  6  1  0  0  0  0
  5 26  1  0  0  0  0
  5 27  1  0  0  0  0
  5 28  1  0  0  0  0
  6  7  1  0  0  0  0
  6 20  1  0  0  0  0
  7  8  1  0  0  0  0
  7  9  1  0  0  0  0
  7 29  1  0  0  0  0
  8 30  1  0  0  0  0
  8 31  1  0  0  0  0
  8 32  1  0  0  0  0
  9 10  2  0  0  0  0
  9 11  1  0  0  0  0
 11 12  1  0  0  0  0
 11 33  1  0  0  0  0
 12 21  1  0  0  0  0
 12 13  1  0  0  0  0
 12 17  1  0  0  0  0
 13 14  1  0  0  0  0
 13 34  1  0  0  0  0
 13 35  1  0  0  0  0
 14 15  1  0  0  0  0
 14 16  1  0  0  0  0
 14 36  1  0  0  0  0
 15 37  1  0  0  0  0
 15 38  1  0  0  0  0
 15 39  1  0  0  0  0
 16 40  1  0  0  0  0
 16 41  1  0  0  0  0
 16 42  1  0  0  0  0
 17 18  2  0  0  0  0
 17 19  1  0  0  0  0
M  CHG  1  19  -1
M  END
> <s_m_source_file>
AV-unprocessed.smi

> <i_m_source_file_index>
2735

> <i_lp_mmshare_version>
43012

> <i_f3d_flags>
0

> <s_epik_input>
W0NIM11jMVtjSF1jKFtDSDNdKW4objEpW0NASF0oW0NIM10pQyg9TylbTkhdW0NASF0oQyg9TylbT0hdKVtDSDJdW0NIXShbQ0gzXSlbQ0gzXQ==

> <s_epik_cmdline>
J2VwaWtfcHl0aG9uJywgJy1waCcsICc3LjAnLCAnLXRuJywgJzgnLCAnLW1hJywgJzIwMCcsICctbWV0YWxfYmluZGluZycsICctaW1hZScsICc8aW5maWxlLm1hZT4nLCAnLW9tYWUnLCAnPG91dGZpbGUubWFlPic=

> <r_lp_tautomer_probability>
1

> <r_epik_Ionization_Penalty>
0.0012303

> <r_epik_Ionization_Penalty_Charging>
0.000186407

> <r_epik_Ionization_Penalty_Neutral>
0.0010439

> <r_epik_State_Penalty>
-0

> <r_epik_Charging_Adjusted_Penalty>
0.000186407

> <i_epik_Tot_Q>
-1

> <i_epik_Tot_abs_Q>
1

> <r_epik_Metal_State_Penalty>
-0

> <b_epik_Metal_Only>
0

> <s_lp_Force_Field>
OPLS_2005

> <r_lp_Energy>
6.63837

> <b_lp_Chiralities_Consistent>
1

> <s_lp_Variant>
AV-unprocessed.smi:2735-4

> <Gold.Version>
5.8.1

> <Gold.Id.Protein>
6NUR|6NUR_protein|mol2

> <Gold.PLP.Fitness>
45.8835

> <Gold.PLP.PLP>
-39.3705

> <Gold.PLP.part.hbond>
-3.1685

> <Gold.PLP.part.metal>
0.0000

> <Gold.PLP.part.buried>
-7.0139

> <Gold.PLP.part.nonpolar>
-29.8978

> <Gold.PLP.part.repulsive>
0.1304

> <Gold.PLP.ligand.clash>
0.0000

> <Gold.PLP.ligand.torsion>
1.2850

> <Gold.PLP.Chemscore.Hbond>
2.9760

> <Gold.PLP.Chemscore.CHOScore>
0.0000

> <Gold.PLP.Chemscore.Metal>
0.0000

> <Gold.Chemscore.Hbonds>
donor molecule, donor type, donor heavy atom, donor atom, acceptor molecule, acceptor atom, score
      P1  H  6896  6909       L1    18  2.00
      P1  H  7997  8008       L1    10  0.96

> <Gold.PLP.Chemscore.Internal.Correction>
0.1550

> <Gold.Rescore>
     Score         DG    S(hbond)    S(metal)    S(lipo)     H(rot)  DE(clash)    DE(int)     intcor
     15.60     -17.61       1.91        0.00      98.06       2.24       0.10       1.91       ----

> <Gold.Chemscore.Fitness>
15.5984

> <Gold.Chemscore.DG>
-17.6078

> <Gold.Chemscore.ZeroCoef>
-5.4800

> <Gold.Chemscore.Hbond>
1.9120

> <Gold.Chemscore.Metal>
0.0000

> <Gold.Chemscore.Lipo>
98.0603

> <Gold.Chemscore.Internal_Hbond>
0.0000

> <Gold.Chemscore.DEClash>
0.1044

> <Gold.Chemscore.DEInternal>
1.9050

> <Gold.Chemscore.Rot>
2.2388

> <Gold.Chemscore.Internal.Correction>
   9.000000E+99

> <Gold.Chemscore.Hbonds>
donor molecule, donor type, donor heavy atom, donor atom, acceptor molecule, acceptor atom, score
      P1  H  6896  6909       L1    18  0.98
      P1  H  7997  8008       L1    10  0.86

> <Gold.Chemscore.Hbond.Weighted>
-6.3861

> <Gold.Chemscore.Metal.Weighted>
-0.0000

> <Gold.Chemscore.Lipo.Weighted>
-11.4731

> <Gold.Chemscore.Internal_Hbond.Weighted>
0.0000

> <Gold.Chemscore.DEClash.Weighted>
0.1044

> <Gold.Chemscore.DEInternal.Weighted>
1.9050

> <Gold.Chemscore.Rot.Weighted>
5.7314

> <Gold.Chemscore.Internal.Correction.Weighted>
   9.000000E+99

> <Gold.Protein.RotatedTorsions>
[ 6907 6896 6895 6894 ] final   51.06 input  -60.11 | X-H torsion
[ 7974 7965 7964 7962 ] final   66.19 input  175.53 | X-H torsion
[ 8008 7997 7996 7995 ] final  -79.69 input   59.86 | X-H torsion
[ 10167 10162 10161 10158 ] final   30.87 input  -65.29 | X-H torsion
[ 10718 10713 10712 10709 ] final  -74.86 input   66.30 | X-H torsion
[ 10763 10752 10751 10750 ] final  116.98 input  -60.55 | X-H torsion
[ 11005 11000 10999 10996 ] final  -93.06 input  -57.11 | X-H torsion

> <Gold.Protein.ActiveResidues>
 VAL166  LYS551  ARG553  GLY616  TRP617  ASP618  TYR619  PRO620  LYS621  CYS622 
 ASP623  PHE694  ASN695  SER759  ASP760  ASP761  ALA762  ILE779  LEU786  VAL792 
 PHE793  MET794  SER795  GLU796  ALA797  LYS798  CYS799  TRP800  GLU811  SER814 

> <Gold.Protein.RotatedAtoms>
  152.3086  134.7525  160.0341 H   0  0  0  0  0  0  0  0  0  0  0  0  # atno 6907 bound_to 6896
  151.8014  133.3365  159.3536 H   0  0  0  0  0  0  0  0  0  0  0  0  # atno 6908 bound_to 6896
  150.7309  134.5680  159.5920 H   0  0  0  0  0  0  0  0  0  0  0  0  # atno 6909 bound_to 6896
  145.8296  139.3131  143.0995 H   0  0  0  0  0  0  0  0  0  0  0  0  # atno 7974 bound_to 7965
  154.5810  140.0674  156.9103 H   0  0  0  0  0  0  0  0  0  0  0  0  # atno 8008 bound_to 7997
  155.2463  140.3348  155.4268 H   0  0  0  0  0  0  0  0  0  0  0  0  # atno 8009 bound_to 7997
  156.2189  140.1790  156.7509 H   0  0  0  0  0  0  0  0  0  0  0  0  # atno 8010 bound_to 7997
  140.4639  144.0864  150.6219 H   0  0  0  0  0  0  0  0  0  0  0  0  # atno 10167 bound_to 10162
  156.0228  130.4427  150.2955 H   0  0  0  0  0  0  0  0  0  0  0  0  # atno 10718 bound_to 10713
  153.5455  135.3550  155.2737 H   0  0  0  0  0  0  0  0  0  0  0  0  # atno 10763 bound_to 10752
  154.8713  135.4101  154.2996 H   0  0  0  0  0  0  0  0  0  0  0  0  # atno 10764 bound_to 10752
  153.3711  135.7064  153.6705 H   0  0  0  0  0  0  0  0  0  0  0  0  # atno 10765 bound_to 10752
  141.1506  133.7862  157.0107 H   0  0  0  0  0  0  0  0  0  0  0  0  # atno 11005 bound_to 11000
  145.9586  140.8853  143.0222 LP  0  0  0  0  0  0  0  0  0  0  0  0  # atno 17320 bound_to 7965
  144.6741  140.1780  143.7408 LP  0  0  0  0  0  0  0  0  0  0  0  0  # atno 17321 bound_to 7965
  140.4059  143.2680  151.9891 LP  0  0  0  0  0  0  0  0  0  0  0  0  # atno 17342 bound_to 10162
  139.4809  144.5957  151.7694 LP  0  0  0  0  0  0  0  0  0  0  0  0  # atno 17343 bound_to 10162
  157.1058  131.0208  151.3067 LP  0  0  0  0  0  0  0  0  0  0  0  0  # atno 17370 bound_to 10713
  157.4743  130.7727  149.7353 LP  0  0  0  0  0  0  0  0  0  0  0  0  # atno 17371 bound_to 10713
  140.0879  134.9609  157.1730 LP  0  0  0  0  0  0  0  0  0  0  0  0  # atno 17394 bound_to 11000
  140.3486  134.2624  155.7201 LP  0  0  0  0  0  0  0  0  0  0  0  0  # atno 17395 bound_to 11000

$$$$
