AV-unprocessed.smi:1046|AV-procd|sdf|4549|dock3
  -GOLD-   22720 2573D 1   1.00000     0.00000
 Structure written by MMmdl.
 53 55  0  0  0  0  0  0  0  0  2 V2000
  151.5824  141.4108  158.3585 C   0  0  0  0  0  0  0  0  0  0  0  0
  150.6474  140.8518  157.3007 C   0  0  0  0  0  0  0  0  0  0  0  0
  150.3332  141.6441  156.1738 C   0  0  0  0  0  0  0  0  0  0  0  0
  149.4698  141.1605  155.1670 C   0  0  0  0  0  0  0  0  0  0  0  0
  149.0348  141.7541  153.9945 N   0  0  0  0  0  0  0  0  0  0  0  0
  148.2542  140.8052  153.4869 C   0  0  0  0  0  0  0  0  0  0  0  0
  148.1330  139.6634  154.1913 N   0  0  0  0  0  0  0  0  0  0  0  0
  147.3428  138.4984  153.8351 C   0  0  0  0  0  0  0  0  0  0  0  0
  146.5504  138.7036  152.5277 C   0  0  1  0  0  0  0  0  0  0  0  0
  147.4288  138.5880  151.4264 O   0  0  0  0  0  0  0  0  0  0  0  0
  145.4223  137.6683  152.3379 C   0  0  0  0  0  0  0  0  0  0  0  0
  145.9242  136.2920  152.0921 N   0  3  0  0  0  0  0  0  0  0  0  0
  145.6123  135.8139  150.7205 C   0  0  0  0  0  0  0  0  0  0  0  0
  146.2261  134.4185  150.4847 C   0  0  0  0  0  0  0  0  0  0  0  0
  145.7877  133.4209  151.4605 N   0  0  0  0  0  0  0  0  0  0  0  0
  144.3933  133.0104  151.2677 C   0  0  0  0  0  0  0  0  0  0  0  0
  144.0727  132.4493  149.8730 C   0  0  0  0  0  0  0  0  0  0  0  0
  143.7503  133.5118  149.0032 O   0  0  0  0  0  0  0  0  0  0  0  0
  146.0964  133.9164  152.8041 C   0  0  0  0  0  0  0  0  0  0  0  0
  145.4793  135.2977  153.1051 C   0  0  0  0  0  0  0  0  0  0  0  0
  148.9235  139.8524  155.3201 C   0  0  0  0  0  0  0  0  0  0  0  0
  149.2281  139.0550  156.4371 C   0  0  0  0  0  0  0  0  0  0  0  0
  150.0932  139.5534  157.4336 C   0  0  0  0  0  0  0  0  0  0  0  0
  150.4175  138.6841  158.6356 C   0  0  0  0  0  0  0  0  0  0  0  0
  151.9316  142.4093  158.0942 H   0  0  0  0  0  0  0  0  0  0  0  0
  152.4571  140.7702  158.4723 H   0  0  0  0  0  0  0  0  0  0  0  0
  151.0737  141.4778  159.3204 H   0  0  0  0  0  0  0  0  0  0  0  0
  150.7550  142.6333  156.0726 H   0  0  0  0  0  0  0  0  0  0  0  0
  147.7419  140.9473  152.5465 H   0  0  0  0  0  0  0  0  0  0  0  0
  148.0061  137.6362  153.7521 H   0  0  0  0  0  0  0  0  0  0  0  0
  146.6647  138.2888  154.6631 H   0  0  0  0  0  0  0  0  0  0  0  0
  146.1453  139.7148  152.4997 H   0  0  0  0  0  0  0  0  0  0  0  0
  148.0223  139.3243  151.4336 H   0  0  0  0  0  0  0  0  0  0  0  0
  144.7630  137.6571  153.2075 H   0  0  0  0  0  0  0  0  0  0  0  0
  144.8069  137.9810  151.4925 H   0  0  0  0  0  0  0  0  0  0  0  0
  144.5323  135.7961  150.5685 H   0  0  0  0  0  0  0  0  0  0  0  0
  146.0205  136.5119  149.9887 H   0  0  0  0  0  0  0  0  0  0  0  0
  145.9944  134.0772  149.4750 H   0  0  0  0  0  0  0  0  0  0  0  0
  147.3131  134.5011  150.5259 H   0  0  0  0  0  0  0  0  0  0  0  0
  144.0976  132.2848  152.0251 H   0  0  0  0  0  0  0  0  0  0  0  0
  143.7529  133.8793  151.4259 H   0  0  0  0  0  0  0  0  0  0  0  0
  144.9282  131.9067  149.4698 H   0  0  0  0  0  0  0  0  0  0  0  0
  143.2280  131.7617  149.9008 H   0  0  0  0  0  0  0  0  0  0  0  0
  142.8255  133.6921  149.0778 H   0  0  0  0  0  0  0  0  0  0  0  0
  145.7842  133.1961  153.5593 H   0  0  0  0  0  0  0  0  0  0  0  0
  147.1797  133.9904  152.9094 H   0  0  0  0  0  0  0  0  0  0  0  0
  145.7952  135.6065  154.1004 H   0  0  0  0  0  0  0  0  0  0  0  0
  144.3901  135.2432  153.1253 H   0  0  0  0  0  0  0  0  0  0  0  0
  148.8019  138.0666  156.5251 H   0  0  0  0  0  0  0  0  0  0  0  0
  149.8919  137.7298  158.5907 H   0  0  0  0  0  0  0  0  0  0  0  0
  150.1241  139.1837  159.5591 H   0  0  0  0  0  0  0  0  0  0  0  0
  151.4868  138.4760  158.6783 H   0  0  0  0  0  0  0  0  0  0  0  0
  146.9314  136.3373  152.1488 H   0  0  0  0  0  0  0  0  0  0  0  0
  1  2  1  0  0  0  0
  1 25  1  0  0  0  0
  1 26  1  0  0  0  0
  1 27  1  0  0  0  0
  2 23  1  0  0  0  0
  2  3  2  0  0  0  0
  3  4  1  0  0  0  0
  3 28  1  0  0  0  0
  4 21  2  0  0  0  0
  4  5  1  0  0  0  0
  5  6  2  0  0  0  0
  6  7  1  0  0  0  0
  6 29  1  0  0  0  0
  7  8  1  0  0  0  0
  7 21  1  0  0  0  0
  8  9  1  0  0  0  0
  8 30  1  0  0  0  0
  8 31  1  0  0  0  0
  9 10  1  0  0  0  0
  9 11  1  0  0  0  0
  9 32  1  0  0  0  0
 10 33  1  0  0  0  0
 11 12  1  0  0  0  0
 11 34  1  0  0  0  0
 11 35  1  0  0  0  0
 12 20  1  0  0  0  0
 12 13  1  0  0  0  0
 12 53  1  0  0  0  0
 13 14  1  0  0  0  0
 13 36  1  0  0  0  0
 13 37  1  0  0  0  0
 14 15  1  0  0  0  0
 14 38  1  0  0  0  0
 14 39  1  0  0  0  0
 15 16  1  0  0  0  0
 15 19  1  0  0  0  0
 16 17  1  0  0  0  0
 16 40  1  0  0  0  0
 16 41  1  0  0  0  0
 17 18  1  0  0  0  0
 17 42  1  0  0  0  0
 17 43  1  0  0  0  0
 18 44  1  0  0  0  0
 19 20  1  0  0  0  0
 19 45  1  0  0  0  0
 19 46  1  0  0  0  0
 20 47  1  0  0  0  0
 20 48  1  0  0  0  0
 21 22  1  0  0  0  0
 22 23  2  0  0  0  0
 22 49  1  0  0  0  0
 23 24  1  0  0  0  0
 24 50  1  0  0  0  0
 24 51  1  0  0  0  0
 24 52  1  0  0  0  0
M  CHG  1  12   1
M  END
> <s_m_source_file>
AV-unprocessed.smi

> <i_m_source_file_index>
1046

> <i_lp_mmshare_version>
43012

> <i_f3d_flags>
0

> <s_epik_input>
W0NIM11jKFtjSF0xKWMoW0NIM10pW2NIXWMoYzEyKW4oW2NIXW4yKVtDSDJdW0NASF0oW09IXSlbQ0gyXU4zW0NIMl1bQ0gyXU4oW0NIMl1bQ0gyXTMpW0NIMl1bQ0gyXVtPSF0=

> <s_epik_cmdline>
J2VwaWtfcHl0aG9uJywgJy1waCcsICc3LjAnLCAnLXRuJywgJzgnLCAnLW1hJywgJzIwMCcsICctbWV0YWxfYmluZGluZycsICctaW1hZScsICc8aW5maWxlLm1hZT4nLCAnLW9tYWUnLCAnPG91dGZpbGUubWFlPic=

> <r_epik_Ionization_Penalty>
0.131947

> <r_epik_Ionization_Penalty_Charging>
0.00213896

> <r_epik_Ionization_Penalty_Neutral>
0.129808

> <r_epik_State_Penalty>
0.319681

> <r_epik_Charging_Adjusted_Penalty>
0.32182

> <i_epik_Tot_Q>
1

> <i_epik_Tot_abs_Q>
1

> <r_epik_Metal_State_Penalty>
0.225417

> <b_epik_Metal_Only>
0

> <s_lp_Force_Field>
OPLS_2005

> <r_lp_Energy>
33.7571

> <b_lp_Chiralities_Consistent>
1

> <s_lp_Variant>
AV-unprocessed.smi:1046-2

> <Gold.Version>
5.8.1

> <Gold.Id.Protein>
6NUR|6NUR_protein|mol2

> <Gold.PLP.Fitness>
54.6017

> <Gold.PLP.PLP>
-40.7402

> <Gold.PLP.part.hbond>
-7.0000

> <Gold.PLP.part.metal>
0.0000

> <Gold.PLP.part.buried>
-3.0424

> <Gold.PLP.part.nonpolar>
-30.1376

> <Gold.PLP.part.repulsive>
0.3467

> <Gold.PLP.ligand.clash>
0.0000

> <Gold.PLP.ligand.torsion>
1.0626

> <Gold.PLP.Chemscore.Hbond>
4.9740

> <Gold.PLP.Chemscore.CHOScore>
0.3090

> <Gold.PLP.Chemscore.Metal>
0.0000

> <Gold.Chemscore.Hbonds>
donor molecule, donor type, donor heavy atom, donor atom, acceptor molecule, acceptor atom, score
      L1  H    10    33       P1  7957  1.00
      L1  H    12    53       P1  7948  2.00
      L1  H    18    44       P1 10186  1.00
      P1  H  7954  7966       L1    10  0.60
      P1  H  8011  8017       L1     5  0.53
      L1  C     6    29       P1  7957  0.31

> <Gold.PLP.Chemscore.Internal.Correction>
0.1377

> <Gold.Rescore>
     Score         DG    S(hbond)    S(metal)    S(lipo)     H(rot)  DE(clash)    DE(int)     intcor
     15.80     -18.52       2.98        0.00      96.60       3.21       1.52       1.20       ----

> <Gold.Chemscore.Fitness>
15.8040

> <Gold.Chemscore.DG>
-18.5238

> <Gold.Chemscore.ZeroCoef>
-5.4800

> <Gold.Chemscore.Hbond>
2.9786

> <Gold.Chemscore.Metal>
0.0000

> <Gold.Chemscore.Lipo>
96.5992

> <Gold.Chemscore.Internal_Hbond>
0.0000

> <Gold.Chemscore.DEClash>
1.5198

> <Gold.Chemscore.DEInternal>
1.2000

> <Gold.Chemscore.Rot>
3.2058

> <Gold.Chemscore.Internal.Correction>
   9.000000E+99

> <Gold.Chemscore.Hbonds>
donor molecule, donor type, donor heavy atom, donor atom, acceptor molecule, acceptor atom, score
      L1  H    10    33       P1  7957  0.88
      L1  H    12    53       P1  7948  0.93
      L1  H    18    44       P1 10186  0.95
      P1  H  7954  7966       L1    10  0.04
      P1  H  8011  8017       L1     5  0.12

> <Gold.Chemscore.Hbond.Weighted>
-9.9484

> <Gold.Chemscore.Metal.Weighted>
-0.0000

> <Gold.Chemscore.Lipo.Weighted>
-11.3021

> <Gold.Chemscore.Internal_Hbond.Weighted>
0.0000

> <Gold.Chemscore.DEClash.Weighted>
1.5198

> <Gold.Chemscore.DEInternal.Weighted>
1.2000

> <Gold.Chemscore.Rot.Weighted>
8.2067

> <Gold.Chemscore.Internal.Correction.Weighted>
   9.000000E+99

> <Gold.Protein.RotatedTorsions>
[ 6907 6896 6895 6894 ] final    6.91 input  -60.11 | X-H torsion
[ 7974 7965 7964 7962 ] final  -98.34 input  175.53 | X-H torsion
[ 8008 7997 7996 7995 ] final  -26.89 input   59.86 | X-H torsion
[ 10167 10162 10161 10158 ] final  -27.88 input  -65.29 | X-H torsion
[ 10718 10713 10712 10709 ] final -173.60 input   66.30 | X-H torsion
[ 10763 10752 10751 10750 ] final -148.13 input  -60.55 | X-H torsion
[ 11005 11000 10999 10996 ] final -130.35 input  -57.11 | X-H torsion

> <Gold.Protein.ActiveResidues>
 VAL166  LYS551  ARG553  GLY616  TRP617  ASP618  TYR619  PRO620  LYS621  CYS622 
 ASP623  PHE694  ASN695  SER759  ASP760  ASP761  ALA762  ILE779  LEU786  VAL792 
 PHE793  MET794  SER795  GLU796  ALA797  LYS798  CYS799  TRP800  GLU811  SER814 

> <Gold.Protein.RotatedAtoms>
  151.6813  135.0961  160.0216 H   0  0  0  0  0  0  0  0  0  0  0  0  # atno 6907 bound_to 6896
  152.3833  133.6572  159.6187 H   0  0  0  0  0  0  0  0  0  0  0  0  # atno 6908 bound_to 6896
  150.7765  133.8993  159.3378 H   0  0  0  0  0  0  0  0  0  0  0  0  # atno 6909 bound_to 6896
  145.3219  140.9423  143.2711 H   0  0  0  0  0  0  0  0  0  0  0  0  # atno 7974 bound_to 7965
  154.4403  140.1887  156.0847 H   0  0  0  0  0  0  0  0  0  0  0  0  # atno 8008 bound_to 7997
  156.0412  140.3319  155.7219 H   0  0  0  0  0  0  0  0  0  0  0  0  # atno 8009 bound_to 7997
  155.5697  140.0611  157.2800 H   0  0  0  0  0  0  0  0  0  0  0  0  # atno 8010 bound_to 7997
  140.7274  143.4056  151.1191 H   0  0  0  0  0  0  0  0  0  0  0  0  # atno 10167 bound_to 10162
  156.7727  130.9454  151.3120 H   0  0  0  0  0  0  0  0  0  0  0  0  # atno 10718 bound_to 10713
  154.8249  135.3342  154.6927 H   0  0  0  0  0  0  0  0  0  0  0  0  # atno 10763 bound_to 10752
  153.7554  135.6936  153.4941 H   0  0  0  0  0  0  0  0  0  0  0  0  # atno 10764 bound_to 10752
  153.2147  135.4470  155.0370 H   0  0  0  0  0  0  0  0  0  0  0  0  # atno 10765 bound_to 10752
  140.9354  134.1264  157.4198 H   0  0  0  0  0  0  0  0  0  0  0  0  # atno 11005 bound_to 11000
  144.8933  139.4746  143.6667 LP  0  0  0  0  0  0  0  0  0  0  0  0  # atno 17320 bound_to 7965
  146.3079  139.7643  142.9042 LP  0  0  0  0  0  0  0  0  0  0  0  0  # atno 17321 bound_to 7965
  139.7682  143.8533  152.3115 LP  0  0  0  0  0  0  0  0  0  0  0  0  # atno 17342 bound_to 10162
  139.8443  144.7195  150.9293 LP  0  0  0  0  0  0  0  0  0  0  0  0  # atno 17343 bound_to 10162
  157.6683  130.9028  149.9982 LP  0  0  0  0  0  0  0  0  0  0  0  0  # atno 17370 bound_to 10713
  156.1267  130.3644  149.9797 LP  0  0  0  0  0  0  0  0  0  0  0  0  # atno 17371 bound_to 10713
  139.8806  135.0019  156.6094 LP  0  0  0  0  0  0  0  0  0  0  0  0  # atno 17394 bound_to 11000
  140.7807  133.8662  155.8565 LP  0  0  0  0  0  0  0  0  0  0  0  0  # atno 17395 bound_to 11000

$$$$
