AV-unprocessed.smi:2442|AV-procd|sdf|9625|dock4
  -GOLD-   2272013253D 1   1.00000     0.00000
 Structure written by MMmdl.
 46 47  0  0  0  0  0  0  0  0  1 V2000
  148.0944  141.1378  154.1285 C   0  0  0  0  0  0  0  0  0  0  0  0
  148.5692  139.8012  154.1591 O   0  0  0  0  0  0  0  0  0  0  0  0
  148.8020  139.2899  155.4686 C   0  0  2  0  0  0  0  0  0  0  0  0
  149.6277  140.2903  156.3054 C   0  0  0  0  0  0  0  0  0  0  0  0
  151.0424  140.4804  155.7339 C   0  0  0  0  0  0  0  0  0  0  0  0
  151.7775  139.1371  155.6109 C   0  0  0  0  0  0  0  0  0  0  0  0
  150.9684  138.1323  154.7756 C   0  0  0  0  0  0  0  0  0  0  0  0
  149.5481  137.9399  155.3433 C   0  0  2  0  0  0  0  0  0  0  0  0
  148.8020  137.0008  154.5091 N   0  0  0  0  0  0  0  0  0  0  0  0
  147.5408  136.6042  154.7279 C   0  0  0  0  0  0  0  0  0  0  0  0
  146.8581  136.9661  155.6864 O   0  0  0  0  0  0  0  0  0  0  0  0
  147.1075  135.7757  153.7697 N   0  0  0  0  0  0  0  0  0  0  0  0
  145.7641  135.2166  153.7144 C   0  0  0  0  0  0  0  0  0  0  0  0
  145.1917  135.3285  152.2947 C   0  0  0  0  0  0  0  0  0  0  0  0
  144.9817  133.9673  151.6500 C   0  0  0  0  0  0  0  0  0  0  0  0
  143.7031  133.6203  151.1653 C   0  0  0  0  0  0  0  0  0  0  0  0
  143.5238  132.3581  150.5669 C   0  0  0  0  0  0  0  0  0  0  0  0
  144.5170  131.4553  150.4311 N   0  0  0  0  0  0  0  0  0  0  0  0
  145.7399  131.7899  150.8939 C   0  0  0  0  0  0  0  0  0  0  0  0
  146.0322  133.0267  151.5091 C   0  0  0  0  0  0  0  0  0  0  0  0
  147.4421  133.3113  151.9951 C   0  0  0  0  0  0  0  0  0  0  0  0
  147.9307  141.4399  153.0942 H   0  0  0  0  0  0  0  0  0  0  0  0
  148.8078  141.8342  154.5682 H   0  0  0  0  0  0  0  0  0  0  0  0
  147.1442  141.2293  154.6561 H   0  0  0  0  0  0  0  0  0  0  0  0
  147.8464  139.1135  155.9661 H   0  0  0  0  0  0  0  0  0  0  0  0
  149.1215  141.2523  156.3747 H   0  0  0  0  0  0  0  0  0  0  0  0
  149.7041  139.9201  157.3286 H   0  0  0  0  0  0  0  0  0  0  0  0
  150.9810  140.9562  154.7543 H   0  0  0  0  0  0  0  0  0  0  0  0
  151.6119  141.1585  156.3699 H   0  0  0  0  0  0  0  0  0  0  0  0
  152.7583  139.2905  155.1601 H   0  0  0  0  0  0  0  0  0  0  0  0
  151.9556  138.7256  156.6053 H   0  0  0  0  0  0  0  0  0  0  0  0
  150.9128  138.4825  153.7438 H   0  0  0  0  0  0  0  0  0  0  0  0
  151.4921  137.1760  154.7480 H   0  0  0  0  0  0  0  0  0  0  0  0
  149.6465  137.5062  156.3405 H   0  0  0  0  0  0  0  0  0  0  0  0
  149.2756  136.6499  153.6899 H   0  0  0  0  0  0  0  0  0  0  0  0
  147.7399  135.5326  153.0214 H   0  0  0  0  0  0  0  0  0  0  0  0
  145.7939  134.1718  154.0276 H   0  0  0  0  0  0  0  0  0  0  0  0
  145.1230  135.7460  154.4209 H   0  0  0  0  0  0  0  0  0  0  0  0
  144.2541  135.8846  152.3061 H   0  0  0  0  0  0  0  0  0  0  0  0
  145.8716  135.9098  151.6701 H   0  0  0  0  0  0  0  0  0  0  0  0
  142.8734  134.3069  151.2472 H   0  0  0  0  0  0  0  0  0  0  0  0
  142.5561  132.0658  150.1865 H   0  0  0  0  0  0  0  0  0  0  0  0
  146.5101  131.0432  150.7670 H   0  0  0  0  0  0  0  0  0  0  0  0
  148.1297  132.5193  151.6974 H   0  0  0  0  0  0  0  0  0  0  0  0
  147.4633  133.3825  153.0827 H   0  0  0  0  0  0  0  0  0  0  0  0
  147.8131  134.2476  151.5785 H   0  0  0  0  0  0  0  0  0  0  0  0
  1  2  1  0  0  0  0
  1 22  1  0  0  0  0
  1 23  1  0  0  0  0
  1 24  1  0  0  0  0
  2  3  1  0  0  0  0
  3  8  1  0  0  0  0
  3  4  1  0  0  0  0
  3 25  1  0  0  0  0
  4  5  1  0  0  0  0
  4 26  1  0  0  0  0
  4 27  1  0  0  0  0
  5  6  1  0  0  0  0
  5 28  1  0  0  0  0
  5 29  1  0  0  0  0
  6  7  1  0  0  0  0
  6 30  1  0  0  0  0
  6 31  1  0  0  0  0
  7  8  1  0  0  0  0
  7 32  1  0  0  0  0
  7 33  1  0  0  0  0
  8  9  1  0  0  0  0
  8 34  1  0  0  0  0
  9 10  1  0  0  0  0
  9 35  1  0  0  0  0
 10 11  2  0  0  0  0
 10 12  1  0  0  0  0
 12 13  1  0  0  0  0
 12 36  1  0  0  0  0
 13 14  1  0  0  0  0
 13 37  1  0  0  0  0
 13 38  1  0  0  0  0
 14 15  1  0  0  0  0
 14 39  1  0  0  0  0
 14 40  1  0  0  0  0
 15 20  1  0  0  0  0
 15 16  2  0  0  0  0
 16 17  1  0  0  0  0
 16 41  1  0  0  0  0
 17 18  2  0  0  0  0
 17 42  1  0  0  0  0
 18 19  1  0  0  0  0
 19 20  2  0  0  0  0
 19 43  1  0  0  0  0
 20 21  1  0  0  0  0
 21 44  1  0  0  0  0
 21 45  1  0  0  0  0
 21 46  1  0  0  0  0
M  END
> <s_m_source_file>
AV-unprocessed.smi

> <i_m_source_file_index>
2442

> <i_lp_mmshare_version>
43012

> <i_f3d_flags>
0

> <s_epik_input>
W0NIM11PW0NAQEhdMVtDSDJdW0NIMl1bQ0gyXVtDSDJdW0NASF0xW05IXUMoPU8pW05IXVtDSDJdW0NIMl1jMltjSF1bY0hdbltjSF1jMltDSDNd

> <s_epik_cmdline>
J2VwaWtfcHl0aG9uJywgJy1waCcsICc3LjAnLCAnLXRuJywgJzgnLCAnLW1hJywgJzIwMCcsICctbWV0YWxfYmluZGluZycsICctaW1hZScsICc8aW5maWxlLm1hZT4nLCAnLW9tYWUnLCAnPG91dGZpbGUubWFlPic=

> <r_epik_Ionization_Penalty>
0.106136

> <r_epik_Ionization_Penalty_Charging>
0

> <r_epik_Ionization_Penalty_Neutral>
0.106136

> <r_epik_State_Penalty>
0.0959393

> <r_epik_Charging_Adjusted_Penalty>
0.0959393

> <i_epik_Tot_Q>
0

> <i_epik_Tot_abs_Q>
0

> <r_epik_Metal_State_Penalty>
0.0812517

> <b_epik_Metal_Only>
0

> <s_lp_Force_Field>
OPLS_2005

> <r_lp_Energy>
9.91993

> <b_lp_Chiralities_Consistent>
1

> <s_lp_Variant>
AV-unprocessed.smi:2442-3

> <Gold.Version>
5.8.1

> <Gold.Id.Protein>
6NUR|6NUR_protein|mol2

> <Gold.PLP.Fitness>
42.9450

> <Gold.PLP.PLP>
-32.4470

> <Gold.PLP.part.hbond>
-2.5141

> <Gold.PLP.part.metal>
0.0000

> <Gold.PLP.part.buried>
-4.0937

> <Gold.PLP.part.nonpolar>
-26.9309

> <Gold.PLP.part.repulsive>
0.4163

> <Gold.PLP.ligand.clash>
0.0000

> <Gold.PLP.ligand.torsion>
0.5318

> <Gold.PLP.Chemscore.Hbond>
1.7120

> <Gold.PLP.Chemscore.CHOScore>
2.1285

> <Gold.PLP.Chemscore.Metal>
0.0000

> <Gold.Chemscore.Hbonds>
donor molecule, donor type, donor heavy atom, donor atom, acceptor molecule, acceptor atom, score
      L1  H     9    35       P1  7948  0.85
      L1  H    12    36       P1  7948  0.88
      L1  C    17    42       P1 10186  0.08
      L1  C    17    42       P1 10952  1.00
      L1  C    19    43       P1 10747  1.00

> <Gold.PLP.Chemscore.Internal.Correction>
0.0401

> <Gold.Rescore>
     Score         DG    S(hbond)    S(metal)    S(lipo)     H(rot)  DE(clash)    DE(int)     intcor
     16.37     -17.49       1.79        0.00      87.25       1.64       0.60       0.51       ----

> <Gold.Chemscore.Fitness>
16.3725

> <Gold.Chemscore.DG>
-17.4863

> <Gold.Chemscore.ZeroCoef>
-5.4800

> <Gold.Chemscore.Hbond>
1.7938

> <Gold.Chemscore.Metal>
0.0000

> <Gold.Chemscore.Lipo>
87.2504

> <Gold.Chemscore.Internal_Hbond>
0.0000

> <Gold.Chemscore.DEClash>
0.5996

> <Gold.Chemscore.DEInternal>
0.5142

> <Gold.Chemscore.Rot>
1.6380

> <Gold.Chemscore.Internal.Correction>
   9.000000E+99

> <Gold.Chemscore.Hbonds>
donor molecule, donor type, donor heavy atom, donor atom, acceptor molecule, acceptor atom, score
      L1  H     9    35       P1  7948  0.80
      L1  H    12    36       P1  7948  0.87

> <Gold.Chemscore.Hbond.Weighted>
-5.9914

> <Gold.Chemscore.Metal.Weighted>
-0.0000

> <Gold.Chemscore.Lipo.Weighted>
-10.2083

> <Gold.Chemscore.Internal_Hbond.Weighted>
0.0000

> <Gold.Chemscore.DEClash.Weighted>
0.5996

> <Gold.Chemscore.DEInternal.Weighted>
0.5142

> <Gold.Chemscore.Rot.Weighted>
4.1934

> <Gold.Chemscore.Internal.Correction.Weighted>
   9.000000E+99

> <Gold.Protein.RotatedTorsions>
[ 6907 6896 6895 6894 ] final  167.23 input  -60.11 | X-H torsion
[ 7974 7965 7964 7962 ] final   -5.34 input  175.53 | X-H torsion
[ 8008 7997 7996 7995 ] final  152.37 input   59.86 | X-H torsion
[ 10167 10162 10161 10158 ] final  143.05 input  -65.29 | X-H torsion
[ 10718 10713 10712 10709 ] final  175.94 input   66.30 | X-H torsion
[ 10763 10752 10751 10750 ] final -156.41 input  -60.55 | X-H torsion
[ 11005 11000 10999 10996 ] final  -13.87 input  -57.11 | X-H torsion

> <Gold.Protein.ActiveResidues>
 VAL166  LYS551  ARG553  GLY616  TRP617  ASP618  TYR619  PRO620  LYS621  CYS622 
 ASP623  PHE694  ASN695  SER759  ASP760  ASP761  ALA762  ILE779  LEU786  VAL792 
 PHE793  MET794  SER795  GLU796  ALA797  LYS798  CYS799  TRP800  GLU811  SER814 

> <Gold.Protein.RotatedAtoms>
  151.8665  133.3467  159.3720 H   0  0  0  0  0  0  0  0  0  0  0  0  # atno 6907 bound_to 6896
  150.7164  134.5155  159.5637 H   0  0  0  0  0  0  0  0  0  0  0  0  # atno 6908 bound_to 6896
  152.2679  134.7965  160.0470 H   0  0  0  0  0  0  0  0  0  0  0  0  # atno 6909 bound_to 6896
  146.2355  140.2007  142.8333 H   0  0  0  0  0  0  0  0  0  0  0  0  # atno 7974 bound_to 7965
  156.2632  140.2022  156.6323 H   0  0  0  0  0  0  0  0  0  0  0  0  # atno 8008 bound_to 7997
  154.6673  140.0554  157.0152 H   0  0  0  0  0  0  0  0  0  0  0  0  # atno 8009 bound_to 7997
  155.1188  140.3222  155.4505 H   0  0  0  0  0  0  0  0  0  0  0  0  # atno 8010 bound_to 7997
  139.4979  144.6066  151.6365 H   0  0  0  0  0  0  0  0  0  0  0  0  # atno 10167 bound_to 10162
  156.9275  130.9960  151.2993 H   0  0  0  0  0  0  0  0  0  0  0  0  # atno 10718 bound_to 10713
  154.7715  135.3146  154.8180 H   0  0  0  0  0  0  0  0  0  0  0  0  # atno 10763 bound_to 10752
  153.8915  135.6825  153.4764 H   0  0  0  0  0  0  0  0  0  0  0  0  # atno 10764 bound_to 10752
  153.1329  135.4772  154.9312 H   0  0  0  0  0  0  0  0  0  0  0  0  # atno 10765 bound_to 10752
  140.7805  133.8366  155.9288 H   0  0  0  0  0  0  0  0  0  0  0  0  # atno 11005 bound_to 11000
  144.9784  140.8436  143.5412 LP  0  0  0  0  0  0  0  0  0  0  0  0  # atno 17320 bound_to 7965
  145.1997  139.2258  143.5199 LP  0  0  0  0  0  0  0  0  0  0  0  0  # atno 17321 bound_to 7965
  140.5729  144.0077  150.6226 LP  0  0  0  0  0  0  0  0  0  0  0  0  # atno 17342 bound_to 10162
  140.3201  143.3143  152.0793 LP  0  0  0  0  0  0  0  0  0  0  0  0  # atno 17343 bound_to 10162
  157.5868  130.8415  149.8601 LP  0  0  0  0  0  0  0  0  0  0  0  0  # atno 17370 bound_to 10713
  156.0462  130.3727  150.1311 LP  0  0  0  0  0  0  0  0  0  0  0  0  # atno 17371 bound_to 10713
  140.9487  134.1807  157.4744 LP  0  0  0  0  0  0  0  0  0  0  0  0  # atno 17394 bound_to 11000
  139.8743  134.9900  156.5484 LP  0  0  0  0  0  0  0  0  0  0  0  0  # atno 17395 bound_to 11000

$$$$
