AV-unprocessed.smi:290|AV-procd|sdf|2219|dock7
  -GOLD-   2262022 63D 1   1.00000     0.00000
 Structure written by MMmdl.
 59 62  0  0  0  0  0  0  0  0  2 V2000
  152.6642  144.6088  157.3626 C   0  0  0  0  0  0  0  0  0  0  0  0
  152.0305  143.8862  158.5615 C   0  0  2  0  0  0  0  0  0  0  0  0
  153.0890  143.3993  159.3826 O   0  0  0  0  0  0  0  0  0  0  0  0
  152.6501  142.2263  160.0437 C   0  0  0  0  0  0  0  0  0  0  0  0
  151.8703  141.5108  158.9517 C   0  0  0  0  0  0  0  0  0  0  0  0
  151.1391  142.6509  158.2472 C   0  0  1  0  0  0  0  0  0  0  0  0
  149.8976  142.8359  158.9067 O   0  0  0  0  0  0  0  0  0  0  0  0
  150.8532  142.3699  156.7482 C   0  0  0  0  0  0  0  0  0  0  0  0
  150.1444  141.1201  156.5200 N   0  0  0  0  0  0  0  0  0  0  0  0
  148.8755  140.7997  156.9500 C   0  0  0  0  0  0  0  0  0  0  0  0
  148.4546  139.6114  156.6102 N   0  0  0  0  0  0  0  0  0  0  0  0
  149.5180  139.0712  155.8994 C   0  0  0  0  0  0  0  0  0  0  0  0
  149.7361  137.8315  155.2455 C   0  0  0  0  0  0  0  0  0  0  0  0
  148.7875  136.8679  155.2189 N   0  0  0  0  0  0  0  0  0  0  0  0
  149.3067  135.5134  155.2034 C   0  0  0  0  0  0  0  0  0  0  0  0
  148.1370  134.6322  154.7669 C   0  0  0  0  0  0  0  0  0  0  0  0
  147.0894  135.5858  154.1534 C   0  0  2  0  0  0  0  0  0  0  0  0
  146.5963  135.0757  152.8347 N   0  3  1  0  0  0  0  0  0  0  0  0
  146.3044  133.6199  152.9016 C   0  0  0  0  0  0  0  0  0  0  0  0
  145.4757  135.8500  152.2275 C   0  0  0  0  0  0  0  0  0  0  0  0
  145.6814  136.1830  150.7374 C   0  0  0  0  0  0  0  0  0  0  0  0
  146.3948  137.3939  150.5985 O   0  0  0  0  0  0  0  0  0  0  0  0
  147.8102  136.9567  154.1408 C   0  0  1  0  0  0  0  0  0  0  0  0
  146.8750  138.1649  154.3696 C   0  0  0  0  0  0  0  0  0  0  0  0
  150.9306  137.6387  154.6257 N   0  0  0  0  0  0  0  0  0  0  0  0
  151.8576  138.6018  154.6520 C   0  0  0  0  0  0  0  0  0  0  0  0
  151.7939  139.8068  155.2234 N   0  0  0  0  0  0  0  0  0  0  0  0
  150.5916  140.0019  155.8382 C   0  0  0  0  0  0  0  0  0  0  0  0
  146.2426  135.6552  154.8392 H   0  0  0  0  0  0  0  0  0  0  0  0
  148.3485  137.0757  153.1991 H   0  0  0  0  0  0  0  0  0  0  0  0
  151.9044  145.0196  156.6978 H   0  0  0  0  0  0  0  0  0  0  0  0
  153.3026  143.9418  156.7831 H   0  0  0  0  0  0  0  0  0  0  0  0
  153.2840  145.4396  157.7008 H   0  0  0  0  0  0  0  0  0  0  0  0
  151.4714  144.6192  159.1463 H   0  0  0  0  0  0  0  0  0  0  0  0
  153.4859  141.6380  160.4221 H   0  0  0  0  0  0  0  0  0  0  0  0
  152.0036  142.4926  160.8813 H   0  0  0  0  0  0  0  0  0  0  0  0
  152.5780  141.0396  158.2685 H   0  0  0  0  0  0  0  0  0  0  0  0
  151.2101  140.7315  159.3350 H   0  0  0  0  0  0  0  0  0  0  0  0
  149.3639  143.4168  158.3858 H   0  0  0  0  0  0  0  0  0  0  0  0
  150.2658  143.1791  156.3122 H   0  0  0  0  0  0  0  0  0  0  0  0
  151.7849  142.3255  156.1836 H   0  0  0  0  0  0  0  0  0  0  0  0
  148.2644  141.4822  157.5227 H   0  0  0  0  0  0  0  0  0  0  0  0
  150.1308  135.4193  154.4945 H   0  0  0  0  0  0  0  0  0  0  0  0
  149.6765  135.2273  156.1885 H   0  0  0  0  0  0  0  0  0  0  0  0
  148.4885  133.8769  154.0628 H   0  0  0  0  0  0  0  0  0  0  0  0
  147.7105  134.1075  155.6225 H   0  0  0  0  0  0  0  0  0  0  0  0
  145.3821  133.4332  153.4532 H   0  0  0  0  0  0  0  0  0  0  0  0
  147.1032  133.0678  153.3960 H   0  0  0  0  0  0  0  0  0  0  0  0
  146.2064  133.1838  151.9084 H   0  0  0  0  0  0  0  0  0  0  0  0
  144.5456  135.2951  152.3568 H   0  0  0  0  0  0  0  0  0  0  0  0
  145.3523  136.8028  152.7386 H   0  0  0  0  0  0  0  0  0  0  0  0
  146.1893  135.3851  150.1975 H   0  0  0  0  0  0  0  0  0  0  0  0
  144.7120  136.3058  150.2535 H   0  0  0  0  0  0  0  0  0  0  0  0
  145.7891  138.0772  150.3534 H   0  0  0  0  0  0  0  0  0  0  0  0
  146.0921  138.2430  153.6184 H   0  0  0  0  0  0  0  0  0  0  0  0
  147.4293  139.1036  154.3465 H   0  0  0  0  0  0  0  0  0  0  0  0
  146.3844  138.1003  155.3415 H   0  0  0  0  0  0  0  0  0  0  0  0
  152.7819  138.3759  154.1409 H   0  0  0  0  0  0  0  0  0  0  0  0
  147.3717  135.1840  152.1962 H   0  0  0  0  0  0  0  0  0  0  0  0
  1  2  1  0  0  0  0
  1 31  1  0  0  0  0
  1 32  1  0  0  0  0
  1 33  1  0  0  0  0
  2  6  1  0  0  0  0
  2  3  1  0  0  0  0
  2 34  1  0  0  0  0
  3  4  1  0  0  0  0
  4  5  1  0  0  0  0
  4 35  1  0  0  0  0
  4 36  1  0  0  0  0
  5  6  1  0  0  0  0
  5 37  1  0  0  0  0
  5 38  1  0  0  0  0
  6  7  1  0  0  0  0
  6  8  1  0  0  0  0
  7 39  1  0  0  0  0
  8  9  1  0  0  0  0
  8 40  1  0  0  0  0
  8 41  1  0  0  0  0
  9 28  1  0  0  0  0
  9 10  1  0  0  0  0
 10 11  2  0  0  0  0
 10 42  1  0  0  0  0
 11 12  1  0  0  0  0
 12 28  2  0  0  0  0
 12 13  1  0  0  0  0
 13 14  1  0  0  0  0
 13 25  2  0  0  0  0
 14 23  1  0  0  0  0
 14 15  1  0  0  0  0
 15 16  1  0  0  0  0
 15 43  1  0  0  0  0
 15 44  1  0  0  0  0
 16 17  1  0  0  0  0
 16 45  1  0  0  0  0
 16 46  1  0  0  0  0
 17 29  1  0  0  0  0
 17 18  1  0  0  0  0
 17 23  1  0  0  0  0
 18 19  1  0  0  0  0
 18 20  1  0  0  0  0
 18 59  1  0  0  0  0
 19 47  1  0  0  0  0
 19 48  1  0  0  0  0
 19 49  1  0  0  0  0
 20 21  1  0  0  0  0
 20 50  1  0  0  0  0
 20 51  1  0  0  0  0
 21 22  1  0  0  0  0
 21 52  1  0  0  0  0
 21 53  1  0  0  0  0
 22 54  1  0  0  0  0
 23 30  1  0  0  0  0
 23 24  1  0  0  0  0
 24 55  1  0  0  0  0
 24 56  1  0  0  0  0
 24 57  1  0  0  0  0
 25 26  1  0  0  0  0
 26 27  2  0  0  0  0
 26 58  1  0  0  0  0
 27 28  1  0  0  0  0
M  CHG  1  18   1
M  END
> <s_m_source_file>
AV-unprocessed.smi

> <i_m_source_file_index>
290

> <i_lp_mmshare_version>
43012

> <i_f3d_flags>
0

> <s_epik_input>
W0NIMl0xW0NIMl1PW0NAQEhdKFtDSDNdKVtDQEBdMShbT0hdKVtDSDJdbihbY0hdbjIpYyhjMjMpbltjSF1uYzNONFtDSDJdW0NIMl1bQ0BIXShbQ0BIXTRbQ0gzXSlOKFtDSDNdKVtDSDJdW0NIMl1bT0hd

> <s_epik_cmdline>
J2VwaWtfcHl0aG9uJywgJy1waCcsICc3LjAnLCAnLXRuJywgJzgnLCAnLW1hJywgJzIwMCcsICctbWV0YWxfYmluZGluZycsICctaW1hZScsICc8aW5maWxlLm1hZT4nLCAnLW9tYWUnLCAnPG91dGZpbGUubWFlPic=

> <r_lp_tautomer_probability>
1

> <r_epik_Ionization_Penalty>
0.0036983

> <r_epik_Ionization_Penalty_Charging>
0.0032725

> <r_epik_Ionization_Penalty_Neutral>
0.000425798

> <r_epik_State_Penalty>
-0

> <r_epik_Charging_Adjusted_Penalty>
0.0032725

> <i_epik_Tot_Q>
1

> <i_epik_Tot_abs_Q>
1

> <r_epik_Metal_State_Penalty>
-0

> <b_epik_Metal_Only>
0

> <s_lp_Force_Field>
OPLS_2005

> <r_lp_Energy>
64.8136

> <b_lp_Chiralities_Consistent>
1

> <s_lp_Variant>
AV-unprocessed.smi:290-5

> <Gold.Version>
5.8.1

> <Gold.Id.Protein>
6NUR|6NUR_protein|mol2

> <Gold.PLP.Fitness>
49.5293

> <Gold.PLP.PLP>
-38.7732

> <Gold.PLP.part.hbond>
-5.4985

> <Gold.PLP.part.metal>
0.0000

> <Gold.PLP.part.buried>
-3.5512

> <Gold.PLP.part.nonpolar>
-31.0008

> <Gold.PLP.part.repulsive>
0.3005

> <Gold.PLP.ligand.clash>
0.0000

> <Gold.PLP.ligand.torsion>
1.6996

> <Gold.PLP.Chemscore.Hbond>
4.6505

> <Gold.PLP.Chemscore.CHOScore>
0.0000

> <Gold.PLP.Chemscore.Metal>
0.0000

> <Gold.Chemscore.Hbonds>
donor molecule, donor type, donor heavy atom, donor atom, acceptor molecule, acceptor atom, score
      L1  H    18    59       P1  7948  1.79
      L1  H    22    54       P1 10171  0.95
      P1  H  7954  7966       L1    22  0.96
      P1  H  7989  7998       L1    27  0.78

> <Gold.PLP.Chemscore.Internal.Correction>
0.2039

> <Gold.Rescore>
     Score         DG    S(hbond)    S(metal)    S(lipo)     H(rot)  DE(clash)    DE(int)     intcor
     11.17     -16.04       2.67        0.00      94.38       3.67       2.95       1.92       ----

> <Gold.Chemscore.Fitness>
11.1748

> <Gold.Chemscore.DG>
-16.0438

> <Gold.Chemscore.ZeroCoef>
-5.4800

> <Gold.Chemscore.Hbond>
2.6664

> <Gold.Chemscore.Metal>
0.0000

> <Gold.Chemscore.Lipo>
94.3807

> <Gold.Chemscore.Internal_Hbond>
0.0000

> <Gold.Chemscore.DEClash>
2.9484

> <Gold.Chemscore.DEInternal>
1.9206

> <Gold.Chemscore.Rot>
3.6658

> <Gold.Chemscore.Internal.Correction>
   9.000000E+99

> <Gold.Chemscore.Hbonds>
donor molecule, donor type, donor heavy atom, donor atom, acceptor molecule, acceptor atom, score
      L1  H    18    59       P1  7948  0.87
      L1  H    22    54       P1 10171  0.84
      P1  H  7954  7966       L1    22  0.60
      P1  H  7989  7998       L1    27  0.05

> <Gold.Chemscore.Hbond.Weighted>
-8.9057

> <Gold.Chemscore.Metal.Weighted>
-0.0000

> <Gold.Chemscore.Lipo.Weighted>
-11.0425

> <Gold.Chemscore.Internal_Hbond.Weighted>
0.0000

> <Gold.Chemscore.DEClash.Weighted>
2.9484

> <Gold.Chemscore.DEInternal.Weighted>
1.9206

> <Gold.Chemscore.Rot.Weighted>
9.3844

> <Gold.Chemscore.Internal.Correction.Weighted>
   9.000000E+99

> <Gold.Protein.RotatedTorsions>
[ 6907 6896 6895 6894 ] final  125.59 input  -60.11 | X-H torsion
[ 7974 7965 7964 7962 ] final  150.96 input  175.53 | X-H torsion
[ 8008 7997 7996 7995 ] final  153.97 input   59.86 | X-H torsion
[ 10167 10162 10161 10158 ] final  -40.17 input  -65.29 | X-H torsion
[ 10718 10713 10712 10709 ] final -141.09 input   66.30 | X-H torsion
[ 10763 10752 10751 10750 ] final  149.76 input  -60.55 | X-H torsion
[ 11005 11000 10999 10996 ] final  -41.80 input  -57.11 | X-H torsion

> <Gold.Protein.ActiveResidues>
 VAL166  LYS551  ARG553  GLY616  TRP617  ASP618  TYR619  PRO620  LYS621  CYS622 
 ASP623  PHE694  ASN695  SER759  ASP760  ASP761  ALA762  ILE779  LEU786  VAL792 
 PHE793  MET794  SER795  GLU796  ALA797  LYS798  CYS799  TRP800  GLU811  SER814 

> <Gold.Protein.RotatedAtoms>
  152.3978  133.6773  159.6290 H   0  0  0  0  0  0  0  0  0  0  0  0  # atno 6907 bound_to 6896
  150.7874  133.8843  159.3304 H   0  0  0  0  0  0  0  0  0  0  0  0  # atno 6908 bound_to 6896
  151.6616  135.0990  160.0232 H   0  0  0  0  0  0  0  0  0  0  0  0  # atno 6909 bound_to 6896
  144.8327  139.6475  143.6052 H   0  0  0  0  0  0  0  0  0  0  0  0  # atno 7974 bound_to 7965
  156.2555  140.1979  156.6574 H   0  0  0  0  0  0  0  0  0  0  0  0  # atno 8008 bound_to 7997
  154.6490  140.0574  156.9959 H   0  0  0  0  0  0  0  0  0  0  0  0  # atno 8009 bound_to 7997
  155.1446  140.3246  155.4447 H   0  0  0  0  0  0  0  0  0  0  0  0  # atno 8010 bound_to 7997
  140.7042  143.3170  151.2886 H   0  0  0  0  0  0  0  0  0  0  0  0  # atno 10167 bound_to 10162
  156.3300  130.7581  151.1697 H   0  0  0  0  0  0  0  0  0  0  0  0  # atno 10718 bound_to 10713
  154.0765  135.2862  155.3298 H   0  0  0  0  0  0  0  0  0  0  0  0  # atno 10763 bound_to 10752
  154.6712  135.5298  153.8144 H   0  0  0  0  0  0  0  0  0  0  0  0  # atno 10764 bound_to 10752
  153.0465  135.6558  154.0943 H   0  0  0  0  0  0  0  0  0  0  0  0  # atno 10765 bound_to 10752
  141.0271  133.6836  156.2507 H   0  0  0  0  0  0  0  0  0  0  0  0  # atno 11005 bound_to 11000
  146.2628  139.6450  142.9350 LP  0  0  0  0  0  0  0  0  0  0  0  0  # atno 17320 bound_to 7965
  145.4861  141.0438  143.2619 LP  0  0  0  0  0  0  0  0  0  0  0  0  # atno 17321 bound_to 7965
  139.6611  144.0187  152.2693 LP  0  0  0  0  0  0  0  0  0  0  0  0  # atno 17342 bound_to 10162
  139.9755  144.6464  150.7949 LP  0  0  0  0  0  0  0  0  0  0  0  0  # atno 17343 bound_to 10162
  157.7428  131.0484  150.4992 LP  0  0  0  0  0  0  0  0  0  0  0  0  # atno 17370 bound_to 10713
  156.5157  130.4150  149.6277 LP  0  0  0  0  0  0  0  0  0  0  0  0  # atno 17371 bound_to 10713
  140.6472  134.5105  157.5574 LP  0  0  0  0  0  0  0  0  0  0  0  0  # atno 17394 bound_to 11000
  139.9183  134.8200  156.1293 LP  0  0  0  0  0  0  0  0  0  0  0  0  # atno 17395 bound_to 11000

$$$$
