AV-unprocessed.smi:1701|AV-procd|sdf|6828|dock4
  -GOLD-   22720 8 03D 1   1.00000     0.00000
 Structure written by MMmdl.
 55 57  0  0  0  0  0  0  0  0  3 V2000
  151.3061  145.4870  159.6126 C   0  0  0  0  0  0  0  0  0  0  0  0
  151.3129  144.7333  158.2741 C   0  0  0  0  0  0  0  0  0  0  0  0
  151.8798  143.3878  158.3693 N   0  0  0  0  0  0  0  0  0  0  0  0
  153.1762  143.1993  159.0251 C   0  0  0  0  0  0  0  0  0  0  0  0
  153.0653  143.0326  160.5481 C   0  0  0  0  0  0  0  0  0  0  0  0
  151.1031  142.2607  158.0048 C   0  0  0  0  0  0  0  0  0  0  0  0
  151.3525  140.9491  158.4810 C   0  0  0  0  0  0  0  0  0  0  0  0
  150.5327  139.8800  158.0660 C   0  0  0  0  0  0  0  0  0  0  0  0
  149.4586  140.1175  157.1842 C   0  0  0  0  0  0  0  0  0  0  0  0
  148.6731  139.0016  156.7857 N   0  0  0  0  0  0  0  0  0  0  0  0
  147.4330  138.9822  156.2572 C   0  0  0  0  0  0  0  0  0  0  0  0
  146.7396  139.9765  156.0586 O   0  0  0  0  0  0  0  0  0  0  0  0
  146.9749  137.7501  155.9725 N   0  0  0  0  0  0  0  0  0  0  0  0
  145.6814  137.3794  155.3957 C   0  0  1  0  0  0  0  0  0  0  0  0
  144.4705  137.8620  156.2113 C   0  0  0  0  0  0  0  0  0  0  0  0
  143.4250  138.3093  155.1699 C   0  0  0  0  0  0  0  0  0  0  0  0
  143.9914  137.9986  153.8372 N   0  3  2  0  0  0  0  0  0  0  0  0
  143.4761  136.7108  153.2960 C   0  0  0  0  0  0  0  0  0  0  0  0
  144.2310  136.2709  152.0351 C   0  0  0  0  0  0  0  0  0  0  0  0
  145.7261  136.1379  152.3341 C   0  0  0  0  0  0  0  0  0  0  0  0
  146.2667  137.4781  152.8444 C   0  0  0  0  0  0  0  0  0  0  0  0
  145.4604  138.0465  154.0341 C   0  0  2  0  0  0  0  0  0  0  0  0
  149.2507  141.4412  156.7305 C   0  0  0  0  0  0  0  0  0  0  0  0
  150.0624  142.4344  157.1530 N   0  3  0  0  0  0  0  0  0  0  0  0
  150.8349  146.4631  159.4969 H   0  0  0  0  0  0  0  0  0  0  0  0
  152.3155  145.6587  159.9833 H   0  0  0  0  0  0  0  0  0  0  0  0
  150.7545  144.9443  160.3804 H   0  0  0  0  0  0  0  0  0  0  0  0
  150.3077  144.6873  157.8561 H   0  0  0  0  0  0  0  0  0  0  0  0
  151.8935  145.3074  157.5515 H   0  0  0  0  0  0  0  0  0  0  0  0
  153.6951  142.3446  158.5902 H   0  0  0  0  0  0  0  0  0  0  0  0
  153.8096  144.0600  158.8089 H   0  0  0  0  0  0  0  0  0  0  0  0
  154.0505  142.8736  160.9870 H   0  0  0  0  0  0  0  0  0  0  0  0
  152.4456  142.1765  160.8152 H   0  0  0  0  0  0  0  0  0  0  0  0
  152.6386  143.9154  161.0215 H   0  0  0  0  0  0  0  0  0  0  0  0
  152.1665  140.7354  159.1564 H   0  0  0  0  0  0  0  0  0  0  0  0
  150.7314  138.8821  158.4285 H   0  0  0  0  0  0  0  0  0  0  0  0
  149.0921  138.0988  156.9527 H   0  0  0  0  0  0  0  0  0  0  0  0
  147.5897  136.9820  156.2021 H   0  0  0  0  0  0  0  0  0  0  0  0
  145.6278  136.2963  155.2733 H   0  0  0  0  0  0  0  0  0  0  0  0
  144.0877  137.0657  156.8505 H   0  0  0  0  0  0  0  0  0  0  0  0
  144.7322  138.7021  156.8564 H   0  0  0  0  0  0  0  0  0  0  0  0
  142.4512  137.8440  155.3304 H   0  0  0  0  0  0  0  0  0  0  0  0
  143.2811  139.3884  155.2371 H   0  0  0  0  0  0  0  0  0  0  0  0
  143.5555  135.9299  154.0541 H   0  0  0  0  0  0  0  0  0  0  0  0
  142.4141  136.8192  153.0725 H   0  0  0  0  0  0  0  0  0  0  0  0
  143.8370  135.3184  151.6792 H   0  0  0  0  0  0  0  0  0  0  0  0
  144.0721  136.9932  151.2331 H   0  0  0  0  0  0  0  0  0  0  0  0
  145.8928  135.3552  153.0750 H   0  0  0  0  0  0  0  0  0  0  0  0
  146.2639  135.8344  151.4354 H   0  0  0  0  0  0  0  0  0  0  0  0
  147.3191  137.3812  153.1127 H   0  0  0  0  0  0  0  0  0  0  0  0
  146.2320  138.1978  152.0253 H   0  0  0  0  0  0  0  0  0  0  0  0
  145.7252  139.1013  154.1335 H   0  0  0  0  0  0  0  0  0  0  0  0
  148.4817  141.7528  156.0404 H   0  0  0  0  0  0  0  0  0  0  0  0
  143.7283  138.7231  153.1842 H   0  0  0  0  0  0  0  0  0  0  0  0
  149.8826  143.3759  156.8040 H   0  0  0  0  0  0  0  0  0  0  0  0
  1  2  1  0  0  0  0
  1 25  1  0  0  0  0
  1 26  1  0  0  0  0
  1 27  1  0  0  0  0
  2  3  1  0  0  0  0
  2 28  1  0  0  0  0
  2 29  1  0  0  0  0
  3  4  1  0  0  0  0
  3  6  1  0  0  0  0
  4  5  1  0  0  0  0
  4 30  1  0  0  0  0
  4 31  1  0  0  0  0
  5 32  1  0  0  0  0
  5 33  1  0  0  0  0
  5 34  1  0  0  0  0
  6 24  1  0  0  0  0
  6  7  2  0  0  0  0
  7  8  1  0  0  0  0
  7 35  1  0  0  0  0
  8  9  2  0  0  0  0
  8 36  1  0  0  0  0
  9 10  1  0  0  0  0
  9 23  1  0  0  0  0
 10 11  1  0  0  0  0
 10 37  1  0  0  0  0
 11 12  2  0  0  0  0
 11 13  1  0  0  0  0
 13 14  1  0  0  0  0
 13 38  1  0  0  0  0
 14 22  1  0  0  0  0
 14 15  1  0  0  0  0
 14 39  1  0  0  0  0
 15 16  1  0  0  0  0
 15 40  1  0  0  0  0
 15 41  1  0  0  0  0
 16 17  1  0  0  0  0
 16 42  1  0  0  0  0
 16 43  1  0  0  0  0
 17 22  1  0  0  0  0
 17 18  1  0  0  0  0
 17 54  1  0  0  0  0
 18 19  1  0  0  0  0
 18 44  1  0  0  0  0
 18 45  1  0  0  0  0
 19 20  1  0  0  0  0
 19 46  1  0  0  0  0
 19 47  1  0  0  0  0
 20 21  1  0  0  0  0
 20 48  1  0  0  0  0
 20 49  1  0  0  0  0
 21 22  1  0  0  0  0
 21 50  1  0  0  0  0
 21 51  1  0  0  0  0
 22 52  1  0  0  0  0
 23 24  2  0  0  0  0
 23 53  1  0  0  0  0
 24 55  1  0  0  0  0
M  CHG  1  17   1
M  CHG  1  24   1
M  END
> <s_m_source_file>
AV-unprocessed.smi

> <i_m_source_file_index>
1701

> <i_lp_mmshare_version>
43012

> <i_f3d_flags>
0

> <s_epik_input>
W0NIM11bQ0gyXU4oW0NIMl1bQ0gzXSljMVtjSF1bY0hdYyhbY0hdbjEpW05IXUMoPU8pW05IXVtDQEhdKFtDSDJdW0NIMl0yKVtDQEBIXShOMjMpW0NIMl1bQ0gyXVtDSDJdW0NIMl0z

> <s_epik_cmdline>
J2VwaWtfcHl0aG9uJywgJy1waCcsICc3LjAnLCAnLXRuJywgJzgnLCAnLW1hJywgJzIwMCcsICctbWV0YWxfYmluZGluZycsICctaW1hZScsICc8aW5maWxlLm1hZT4nLCAnLW9tYWUnLCAnPG91dGZpbGUubWFlPic=

> <r_lp_tautomer_probability>
0.999994

> <r_epik_Ionization_Penalty>
0.302862

> <r_epik_Ionization_Penalty_Charging>
0.302842

> <r_epik_Ionization_Penalty_Neutral>
1.95166e-05

> <r_epik_State_Penalty>
0.019791

> <r_epik_Charging_Adjusted_Penalty>
0.322633

> <i_epik_Tot_Q>
2

> <i_epik_Tot_abs_Q>
2

> <r_epik_Metal_State_Penalty>
0.0536763

> <b_epik_Metal_Only>
0

> <s_lp_Force_Field>
OPLS_2005

> <r_lp_Energy>
65.6354

> <b_lp_Chiralities_Consistent>
1

> <s_lp_Variant>
AV-unprocessed.smi:1701-8

> <Gold.Version>
5.8.1

> <Gold.Id.Protein>
6NUR|6NUR_protein|mol2

> <Gold.PLP.Fitness>
45.8315

> <Gold.PLP.PLP>
-34.9378

> <Gold.PLP.part.hbond>
-2.0000

> <Gold.PLP.part.metal>
0.0000

> <Gold.PLP.part.buried>
-4.3473

> <Gold.PLP.part.nonpolar>
-29.0188

> <Gold.PLP.part.repulsive>
0.0526

> <Gold.PLP.ligand.clash>
0.0000

> <Gold.PLP.ligand.torsion>
0.6547

> <Gold.PLP.Chemscore.Hbond>
4.0000

> <Gold.PLP.Chemscore.CHOScore>
0.0000

> <Gold.PLP.Chemscore.Metal>
0.0000

> <Gold.Chemscore.Hbonds>
donor molecule, donor type, donor heavy atom, donor atom, acceptor molecule, acceptor atom, score
      L1  H    17    54       P1 10175  2.00
      L1  H    24    55       P1  8028  2.00

> <Gold.PLP.Chemscore.Internal.Correction>
0.2031

> <Gold.Rescore>
     Score         DG    S(hbond)    S(metal)    S(lipo)     H(rot)  DE(clash)    DE(int)     intcor
     16.47     -18.84       1.95        0.00      87.07       1.30       0.02       2.35       ----

> <Gold.Chemscore.Fitness>
16.4705

> <Gold.Chemscore.DG>
-18.8378

> <Gold.Chemscore.ZeroCoef>
-5.4800

> <Gold.Chemscore.Hbond>
1.9472

> <Gold.Chemscore.Metal>
0.0000

> <Gold.Chemscore.Lipo>
87.0694

> <Gold.Chemscore.Internal_Hbond>
0.0000

> <Gold.Chemscore.DEClash>
0.0174

> <Gold.Chemscore.DEInternal>
2.3499

> <Gold.Chemscore.Rot>
1.3020

> <Gold.Chemscore.Internal.Correction>
   9.000000E+99

> <Gold.Chemscore.Hbonds>
donor molecule, donor type, donor heavy atom, donor atom, acceptor molecule, acceptor atom, score
      L1  H    17    54       P1 10175  0.99
      L1  H    24    55       P1  8028  0.92

> <Gold.Chemscore.Hbond.Weighted>
-6.5038

> <Gold.Chemscore.Metal.Weighted>
-0.0000

> <Gold.Chemscore.Lipo.Weighted>
-10.1871

> <Gold.Chemscore.Internal_Hbond.Weighted>
0.0000

> <Gold.Chemscore.DEClash.Weighted>
0.0174

> <Gold.Chemscore.DEInternal.Weighted>
2.3499

> <Gold.Chemscore.Rot.Weighted>
3.3330

> <Gold.Chemscore.Internal.Correction.Weighted>
   9.000000E+99

> <Gold.Protein.RotatedTorsions>
[ 6907 6896 6895 6894 ] final  -41.08 input  -60.11 | X-H torsion
[ 7974 7965 7964 7962 ] final -123.40 input  175.53 | X-H torsion
[ 8008 7997 7996 7995 ] final  134.82 input   59.86 | X-H torsion
[ 10167 10162 10161 10158 ] final   43.35 input  -65.29 | X-H torsion
[ 10718 10713 10712 10709 ] final   99.56 input   66.30 | X-H torsion
[ 10763 10752 10751 10750 ] final  111.06 input  -60.55 | X-H torsion
[ 11005 11000 10999 10996 ] final   54.74 input  -57.11 | X-H torsion

> <Gold.Protein.ActiveResidues>
 VAL166  LYS551  ARG553  GLY616  TRP617  ASP618  TYR619  PRO620  LYS621  CYS622 
 ASP623  PHE694  ASN695  SER759  ASP760  ASP761  ALA762  ILE779  LEU786  VAL792 
 PHE793  MET794  SER795  GLU796  ALA797  LYS798  CYS799  TRP800  GLU811  SER814 

> <Gold.Protein.RotatedAtoms>
  150.9709  134.9082  159.7786 H   0  0  0  0  0  0  0  0  0  0  0  0  # atno 6907 bound_to 6896
  152.5189  134.3543  159.9272 H   0  0  0  0  0  0  0  0  0  0  0  0  # atno 6908 bound_to 6896
  151.3552  133.3869  159.2719 H   0  0  0  0  0  0  0  0  0  0  0  0  # atno 6909 bound_to 6896
  145.0191  140.7972  143.4392 H   0  0  0  0  0  0  0  0  0  0  0  0  # atno 7974 bound_to 7965
  156.3001  140.2486  156.3480 H   0  0  0  0  0  0  0  0  0  0  0  0  # atno 8008 bound_to 7997
  154.8992  140.0407  157.1902 H   0  0  0  0  0  0  0  0  0  0  0  0  # atno 8009 bound_to 7997
  154.8518  140.2907  155.5598 H   0  0  0  0  0  0  0  0  0  0  0  0  # atno 8010 bound_to 7997
  140.3452  144.2420  150.6151 H   0  0  0  0  0  0  0  0  0  0  0  0  # atno 10167 bound_to 10162
  157.6873  131.0673  150.4967 H   0  0  0  0  0  0  0  0  0  0  0  0  # atno 10718 bound_to 10713
  153.4579  135.3729  155.2321 H   0  0  0  0  0  0  0  0  0  0  0  0  # atno 10763 bound_to 10752
  154.8757  135.3901  154.3960 H   0  0  0  0  0  0  0  0  0  0  0  0  # atno 10764 bound_to 10752
  153.4529  135.7086  153.6162 H   0  0  0  0  0  0  0  0  0  0  0  0  # atno 10765 bound_to 10752
  140.0662  134.5533  155.9096 H   0  0  0  0  0  0  0  0  0  0  0  0  # atno 11005 bound_to 11000
  145.1920  139.2296  143.5237 LP  0  0  0  0  0  0  0  0  0  0  0  0  # atno 17320 bound_to 7965
  146.3482  140.1718  142.8589 LP  0  0  0  0  0  0  0  0  0  0  0  0  # atno 17321 bound_to 7965
  140.5271  143.2252  151.8297 LP  0  0  0  0  0  0  0  0  0  0  0  0  # atno 17342 bound_to 10162
  139.4834  144.4766  151.9359 LP  0  0  0  0  0  0  0  0  0  0  0  0  # atno 17343 bound_to 10162
  156.5291  130.4180  149.6211 LP  0  0  0  0  0  0  0  0  0  0  0  0  # atno 17370 bound_to 10713
  156.3086  130.7216  151.2104 LP  0  0  0  0  0  0  0  0  0  0  0  0  # atno 17371 bound_to 10713
  141.1994  133.6606  156.5840 LP  0  0  0  0  0  0  0  0  0  0  0  0  # atno 17394 bound_to 11000
  140.3695  134.7618  157.4589 LP  0  0  0  0  0  0  0  0  0  0  0  0  # atno 17395 bound_to 11000

$$$$
