AV-unprocessed.smi:290|AV-procd|sdf|2226|dock4
  -GOLD-   2262022 83D 1   1.00000     0.00000
 Structure written by MMmdl.
 59 62  0  0  0  0  0  0  0  0  2 V2000
  152.7958  142.2752  159.9233 C   0  0  0  0  0  0  0  0  0  0  0  0
  151.7318  143.3816  159.8490 C   0  0  1  0  0  0  0  0  0  0  0  0
  152.2765  144.5554  160.4452 O   0  0  0  0  0  0  0  0  0  0  0  0
  151.6630  145.6872  159.8554 C   0  0  0  0  0  0  0  0  0  0  0  0
  151.6144  145.2983  158.3861 C   0  0  0  0  0  0  0  0  0  0  0  0
  151.2595  143.8131  158.4311 C   0  0  2  0  0  0  0  0  0  0  0  0
  149.8463  143.7052  158.3982 O   0  0  0  0  0  0  0  0  0  0  0  0
  151.8313  143.0042  157.2371 C   0  0  0  0  0  0  0  0  0  0  0  0
  151.1750  141.7202  157.0426 N   0  0  0  0  0  0  0  0  0  0  0  0
  149.9925  141.4925  156.3733 C   0  0  0  0  0  0  0  0  0  0  0  0
  149.6032  140.2472  156.3348 N   0  0  0  0  0  0  0  0  0  0  0  0
  150.5990  139.5655  157.0214 C   0  0  0  0  0  0  0  0  0  0  0  0
  150.8125  138.2019  157.3464 C   0  0  0  0  0  0  0  0  0  0  0  0
  149.9382  137.2424  156.9712 N   0  0  0  0  0  0  0  0  0  0  0  0
  149.3383  136.5073  158.0734 C   0  0  0  0  0  0  0  0  0  0  0  0
  148.6895  135.2672  157.4459 C   0  0  0  0  0  0  0  0  0  0  0  0
  149.3600  135.1217  156.0620 C   0  0  1  0  0  0  0  0  0  0  0  0
  148.4194  135.1447  154.8979 N   0  3  2  0  0  0  0  0  0  0  0  0
  147.3149  136.1349  154.9833 C   0  0  0  0  0  0  0  0  0  0  0  0
  147.9318  133.7993  154.4996 C   0  0  0  0  0  0  0  0  0  0  0  0
  148.9355  133.0593  153.5986 C   0  0  0  0  0  0  0  0  0  0  0  0
  148.3136  131.9423  152.9996 O   0  0  0  0  0  0  0  0  0  0  0  0
  150.4241  136.2374  156.0358 C   0  0  1  0  0  0  0  0  0  0  0  0
  150.8203  136.7953  154.6538 C   0  0  0  0  0  0  0  0  0  0  0  0
  151.9328  137.8799  158.0456 N   0  0  0  0  0  0  0  0  0  0  0  0
  152.7925  138.8391  158.4036 C   0  0  0  0  0  0  0  0  0  0  0  0
  152.7234  140.1519  158.1695 N   0  0  0  0  0  0  0  0  0  0  0  0
  151.5981  140.4734  157.4689 C   0  0  0  0  0  0  0  0  0  0  0  0
  149.9020  134.1768  156.0329 H   0  0  0  0  0  0  0  0  0  0  0  0
  151.3280  135.8068  156.4708 H   0  0  0  0  0  0  0  0  0  0  0  0
  152.4344  141.3444  159.4860 H   0  0  0  0  0  0  0  0  0  0  0  0
  153.0590  142.0670  160.9605 H   0  0  0  0  0  0  0  0  0  0  0  0
  153.7123  142.5632  159.4080 H   0  0  0  0  0  0  0  0  0  0  0  0
  150.8771  143.0754  160.4556 H   0  0  0  0  0  0  0  0  0  0  0  0
  150.6597  145.8218  160.2624 H   0  0  0  0  0  0  0  0  0  0  0  0
  152.2367  146.5968  160.0334 H   0  0  0  0  0  0  0  0  0  0  0  0
  150.9178  145.9034  157.8041 H   0  0  0  0  0  0  0  0  0  0  0  0
  152.6085  145.4343  157.9587 H   0  0  0  0  0  0  0  0  0  0  0  0
  149.5319  144.1105  157.6045 H   0  0  0  0  0  0  0  0  0  0  0  0
  151.7239  143.5665  156.3092 H   0  0  0  0  0  0  0  0  0  0  0  0
  152.8996  142.8280  157.3699 H   0  0  0  0  0  0  0  0  0  0  0  0
  149.4209  142.2863  155.9144 H   0  0  0  0  0  0  0  0  0  0  0  0
  150.0999  136.2097  158.7960 H   0  0  0  0  0  0  0  0  0  0  0  0
  148.6025  137.1208  158.5944 H   0  0  0  0  0  0  0  0  0  0  0  0
  148.8699  134.3891  158.0666 H   0  0  0  0  0  0  0  0  0  0  0  0
  147.6095  135.3871  157.3895 H   0  0  0  0  0  0  0  0  0  0  0  0
  146.5130  135.7968  155.6391 H   0  0  0  0  0  0  0  0  0  0  0  0
  146.8820  136.2881  153.9944 H   0  0  0  0  0  0  0  0  0  0  0  0
  147.6577  137.1059  155.3380 H   0  0  0  0  0  0  0  0  0  0  0  0
  147.7136  133.2113  155.3923 H   0  0  0  0  0  0  0  0  0  0  0  0
  146.9878  133.8875  153.9587 H   0  0  0  0  0  0  0  0  0  0  0  0
  149.3507  133.7047  152.8252 H   0  0  0  0  0  0  0  0  0  0  0  0
  149.7745  132.7026  154.1966 H   0  0  0  0  0  0  0  0  0  0  0  0
  148.8321  131.6695  152.2572 H   0  0  0  0  0  0  0  0  0  0  0  0
  151.1188  135.9910  153.9810 H   0  0  0  0  0  0  0  0  0  0  0  0
  151.6662  137.4784  154.7368 H   0  0  0  0  0  0  0  0  0  0  0  0
  150.0079  137.3455  154.1804 H   0  0  0  0  0  0  0  0  0  0  0  0
  153.6596  138.5080  158.9558 H   0  0  0  0  0  0  0  0  0  0  0  0
  148.9794  135.4524  154.1151 H   0  0  0  0  0  0  0  0  0  0  0  0
  1  2  1  0  0  0  0
  1 31  1  0  0  0  0
  1 32  1  0  0  0  0
  1 33  1  0  0  0  0
  2  6  1  0  0  0  0
  2  3  1  0  0  0  0
  2 34  1  0  0  0  0
  3  4  1  0  0  0  0
  4  5  1  0  0  0  0
  4 35  1  0  0  0  0
  4 36  1  0  0  0  0
  5  6  1  0  0  0  0
  5 37  1  0  0  0  0
  5 38  1  0  0  0  0
  6  7  1  0  0  0  0
  6  8  1  0  0  0  0
  7 39  1  0  0  0  0
  8  9  1  0  0  0  0
  8 40  1  0  0  0  0
  8 41  1  0  0  0  0
  9 28  1  0  0  0  0
  9 10  1  0  0  0  0
 10 11  2  0  0  0  0
 10 42  1  0  0  0  0
 11 12  1  0  0  0  0
 12 28  2  0  0  0  0
 12 13  1  0  0  0  0
 13 14  1  0  0  0  0
 13 25  2  0  0  0  0
 14 23  1  0  0  0  0
 14 15  1  0  0  0  0
 15 16  1  0  0  0  0
 15 43  1  0  0  0  0
 15 44  1  0  0  0  0
 16 17  1  0  0  0  0
 16 45  1  0  0  0  0
 16 46  1  0  0  0  0
 17 29  1  0  0  0  0
 17 18  1  0  0  0  0
 17 23  1  0  0  0  0
 18 19  1  0  0  0  0
 18 20  1  0  0  0  0
 18 59  1  0  0  0  0
 19 47  1  0  0  0  0
 19 48  1  0  0  0  0
 19 49  1  0  0  0  0
 20 21  1  0  0  0  0
 20 50  1  0  0  0  0
 20 51  1  0  0  0  0
 21 22  1  0  0  0  0
 21 52  1  0  0  0  0
 21 53  1  0  0  0  0
 22 54  1  0  0  0  0
 23 30  1  0  0  0  0
 23 24  1  0  0  0  0
 24 55  1  0  0  0  0
 24 56  1  0  0  0  0
 24 57  1  0  0  0  0
 25 26  1  0  0  0  0
 26 27  2  0  0  0  0
 26 58  1  0  0  0  0
 27 28  1  0  0  0  0
M  CHG  1  18   1
M  END
> <s_m_source_file>
AV-unprocessed.smi

> <i_m_source_file_index>
290

> <i_lp_mmshare_version>
43012

> <i_f3d_flags>
0

> <s_epik_input>
W0NIMl0xW0NIMl1PW0NAQEhdKFtDSDNdKVtDQEBdMShbT0hdKVtDSDJdbihbY0hdbjIpYyhjMjMpbltjSF1uYzNONFtDSDJdW0NIMl1bQ0BIXShbQ0BIXTRbQ0gzXSlOKFtDSDNdKVtDSDJdW0NIMl1bT0hd

> <s_epik_cmdline>
J2VwaWtfcHl0aG9uJywgJy1waCcsICc3LjAnLCAnLXRuJywgJzgnLCAnLW1hJywgJzIwMCcsICctbWV0YWxfYmluZGluZycsICctaW1hZScsICc8aW5maWxlLm1hZT4nLCAnLW9tYWUnLCAnPG91dGZpbGUubWFlPic=

> <r_lp_tautomer_probability>
1

> <r_epik_Ionization_Penalty>
0.0036983

> <r_epik_Ionization_Penalty_Charging>
0.0032725

> <r_epik_Ionization_Penalty_Neutral>
0.000425798

> <r_epik_State_Penalty>
-0

> <r_epik_Charging_Adjusted_Penalty>
0.0032725

> <i_epik_Tot_Q>
1

> <i_epik_Tot_abs_Q>
1

> <r_epik_Metal_State_Penalty>
-0

> <b_epik_Metal_Only>
0

> <s_lp_Force_Field>
OPLS_2005

> <r_lp_Energy>
69.8612

> <b_lp_Chiralities_Consistent>
1

> <s_lp_Variant>
AV-unprocessed.smi:290-12

> <Gold.Version>
5.8.1

> <Gold.Id.Protein>
6NUR|6NUR_protein|mol2

> <Gold.PLP.Fitness>
50.3596

> <Gold.PLP.PLP>
-38.6629

> <Gold.PLP.part.hbond>
-3.7445

> <Gold.PLP.part.metal>
0.0000

> <Gold.PLP.part.buried>
-5.2600

> <Gold.PLP.part.nonpolar>
-29.8967

> <Gold.PLP.part.repulsive>
0.1291

> <Gold.PLP.ligand.clash>
0.0000

> <Gold.PLP.ligand.torsion>
1.5527

> <Gold.PLP.Chemscore.Hbond>
3.7920

> <Gold.PLP.Chemscore.CHOScore>
1.0000

> <Gold.PLP.Chemscore.Metal>
0.0000

> <Gold.Chemscore.Hbonds>
donor molecule, donor type, donor heavy atom, donor atom, acceptor molecule, acceptor atom, score
      L1  H     7    39       P1  8028  0.72
      L1  H    18    59       P1  7948  0.33
      L1  H    22    54       P1 10747  0.76
      P1  H  7997  8008       L1    27  0.31
      L1  C    10    42       P1  8028  1.00

> <Gold.PLP.Chemscore.Internal.Correction>
0.4261

> <Gold.Rescore>
     Score         DG    S(hbond)    S(metal)    S(lipo)     H(rot)  DE(clash)    DE(int)     intcor
     11.71     -16.12       2.61        0.00      96.71       3.67       1.50       2.90       ----

> <Gold.Chemscore.Fitness>
11.7112

> <Gold.Chemscore.DG>
-16.1166

> <Gold.Chemscore.ZeroCoef>
-5.4800

> <Gold.Chemscore.Hbond>
2.6067

> <Gold.Chemscore.Metal>
0.0000

> <Gold.Chemscore.Lipo>
96.7071

> <Gold.Chemscore.Internal_Hbond>
0.0000

> <Gold.Chemscore.DEClash>
1.5044

> <Gold.Chemscore.DEInternal>
2.9010

> <Gold.Chemscore.Rot>
3.6658

> <Gold.Chemscore.Internal.Correction>
   9.000000E+99

> <Gold.Chemscore.Hbonds>
donor molecule, donor type, donor heavy atom, donor atom, acceptor molecule, acceptor atom, score
      L1  H     7    39       P1  8028  0.14
      L1  H    18    59       P1  7948  0.15
      L1  H    22    54       P1 10747  0.65
      P1  H  7997  8008       L1    27  0.02

> <Gold.Chemscore.Hbond.Weighted>
-8.7063

> <Gold.Chemscore.Metal.Weighted>
-0.0000

> <Gold.Chemscore.Lipo.Weighted>
-11.3147

> <Gold.Chemscore.Internal_Hbond.Weighted>
0.0000

> <Gold.Chemscore.DEClash.Weighted>
1.5044

> <Gold.Chemscore.DEInternal.Weighted>
2.9010

> <Gold.Chemscore.Rot.Weighted>
9.3844

> <Gold.Chemscore.Internal.Correction.Weighted>
   9.000000E+99

> <Gold.Protein.RotatedTorsions>
[ 6907 6896 6895 6894 ] final  167.33 input  -60.11 | X-H torsion
[ 7974 7965 7964 7962 ] final   71.77 input  175.53 | X-H torsion
[ 8008 7997 7996 7995 ] final  -63.57 input   59.86 | X-H torsion
[ 10167 10162 10161 10158 ] final -111.77 input  -65.29 | X-H torsion
[ 10718 10713 10712 10709 ] final  133.71 input   66.30 | X-H torsion
[ 10763 10752 10751 10750 ] final -174.51 input  -60.55 | X-H torsion
[ 11005 11000 10999 10996 ] final -175.67 input  -57.11 | X-H torsion

> <Gold.Protein.ActiveResidues>
 VAL166  LYS551  ARG553  GLY616  TRP617  ASP618  TYR619  PRO620  LYS621  CYS622 
 ASP623  PHE694  ASN695  SER759  ASP760  ASP761  ALA762  ILE779  LEU786  VAL792 
 PHE793  MET794  SER795  GLU796  ALA797  LYS798  CYS799  TRP800  GLU811  SER814 

> <Gold.Protein.RotatedAtoms>
  151.8649  133.3464  159.3715 H   0  0  0  0  0  0  0  0  0  0  0  0  # atno 6907 bound_to 6896
  150.7168  134.5169  159.5644 H   0  0  0  0  0  0  0  0  0  0  0  0  # atno 6908 bound_to 6896
  152.2690  134.7953  160.0468 H   0  0  0  0  0  0  0  0  0  0  0  0  # atno 6909 bound_to 6896
  145.7617  139.2803  143.1372 H   0  0  0  0  0  0  0  0  0  0  0  0  # atno 7974 bound_to 7965
  154.4562  140.0972  156.6762 H   0  0  0  0  0  0  0  0  0  0  0  0  # atno 8008 bound_to 7997
  155.5133  140.3477  155.4374 H   0  0  0  0  0  0  0  0  0  0  0  0  # atno 8009 bound_to 7997
  156.0781  140.1366  156.9735 H   0  0  0  0  0  0  0  0  0  0  0  0  # atno 8010 bound_to 7997
  140.1300  143.4369  152.1634 H   0  0  0  0  0  0  0  0  0  0  0  0  # atno 10167 bound_to 10162
  157.4746  131.1082  150.9760 H   0  0  0  0  0  0  0  0  0  0  0  0  # atno 10718 bound_to 10713
  154.5954  135.2849  155.0592 H   0  0  0  0  0  0  0  0  0  0  0  0  # atno 10763 bound_to 10752
  154.1877  135.6446  153.5055 H   0  0  0  0  0  0  0  0  0  0  0  0  # atno 10764 bound_to 10752
  153.0136  135.5438  154.6654 H   0  0  0  0  0  0  0  0  0  0  0  0  # atno 10765 bound_to 10752
  140.4607  134.6257  157.4841 H   0  0  0  0  0  0  0  0  0  0  0  0  # atno 11005 bound_to 11000
  146.0257  140.8306  142.9901 LP  0  0  0  0  0  0  0  0  0  0  0  0  # atno 17320 bound_to 7965
  144.6829  140.2695  143.7308 LP  0  0  0  0  0  0  0  0  0  0  0  0  # atno 17321 bound_to 7965
  139.5525  144.7348  151.4393 LP  0  0  0  0  0  0  0  0  0  0  0  0  # atno 17342 bound_to 10162
  140.6823  143.8054  150.7137 LP  0  0  0  0  0  0  0  0  0  0  0  0  # atno 17343 bound_to 10162
  157.0513  130.5788  149.5371 LP  0  0  0  0  0  0  0  0  0  0  0  0  # atno 17370 bound_to 10713
  156.0090  130.5180  150.7926 LP  0  0  0  0  0  0  0  0  0  0  0  0  # atno 17371 bound_to 10713
  139.9947  134.6929  155.9629 LP  0  0  0  0  0  0  0  0  0  0  0  0  # atno 17394 bound_to 11000
  141.1622  133.6538  156.4359 LP  0  0  0  0  0  0  0  0  0  0  0  0  # atno 17395 bound_to 11000

$$$$
