AV-unprocessed.smi:2340|AV-procd|sdf|9349|dock6
  -GOLD-   2272012573D 1   1.00000     0.00000
 Structure written by MMmdl.
 40 41  0  0  0  0  0  0  0  0  1 V2000
  145.8543  131.8170  149.3514 C   0  0  0  0  0  0  0  0  0  0  0  0
  145.9831  132.7193  150.5379 C   0  0  0  0  0  0  0  0  0  0  0  0
  146.8782  132.6033  151.5718 C   0  0  0  0  0  0  0  0  0  0  0  0
  146.6820  133.8751  152.7459 S   0  0  0  0  0  0  0  0  0  0  0  0
  145.3674  134.5303  151.7731 C   0  0  0  0  0  0  0  0  0  0  0  0
  144.6044  135.7695  152.1352 C   0  0  1  0  0  0  0  0  0  0  0  0
  144.2149  135.7869  153.6200 C   0  0  0  0  0  0  0  0  0  0  0  0
  145.3241  137.0666  151.7039 C   0  0  0  0  0  0  0  0  0  0  0  0
  146.5780  137.2846  152.4200 N   0  0  0  0  0  0  0  0  0  0  0  0
  146.7551  138.1748  153.4052 C   0  0  0  0  0  0  0  0  0  0  0  0
  145.8634  138.8971  153.8506 O   0  0  0  0  0  0  0  0  0  0  0  0
  148.0221  138.1831  153.8415 N   0  0  0  0  0  0  0  0  0  0  0  0
  148.5517  139.0519  154.8926 C   0  0  2  0  0  0  0  0  0  0  0  0
  148.1252  140.4995  154.6546 C   0  0  0  0  0  0  0  0  0  0  0  0
  149.4210  141.2948  154.7717 C   0  0  0  0  0  0  0  0  0  0  0  0
  150.4070  140.3772  154.3338 O   0  0  0  0  0  0  0  0  0  0  0  0
  150.0964  139.1210  154.9187 C   0  0  2  0  0  0  0  0  0  0  0  0
  150.8710  138.0007  154.2058 C   0  0  0  0  0  0  0  0  0  0  0  0
  145.1309  133.8192  150.6668 N   0  0  0  0  0  0  0  0  0  0  0  0
  146.5482  130.9781  149.4106 H   0  0  0  0  0  0  0  0  0  0  0  0
  146.0639  132.3533  148.4254 H   0  0  0  0  0  0  0  0  0  0  0  0
  144.8473  131.4059  149.2765 H   0  0  0  0  0  0  0  0  0  0  0  0
  147.6393  131.8503  151.7137 H   0  0  0  0  0  0  0  0  0  0  0  0
  143.6673  135.7304  151.5774 H   0  0  0  0  0  0  0  0  0  0  0  0
  143.6314  134.9041  153.8826 H   0  0  0  0  0  0  0  0  0  0  0  0
  143.6113  136.6636  153.8564 H   0  0  0  0  0  0  0  0  0  0  0  0
  145.0951  135.8076  154.2628 H   0  0  0  0  0  0  0  0  0  0  0  0
  145.5020  137.0666  150.6272 H   0  0  0  0  0  0  0  0  0  0  0  0
  144.6839  137.9253  151.9081 H   0  0  0  0  0  0  0  0  0  0  0  0
  147.3728  136.7367  152.1246 H   0  0  0  0  0  0  0  0  0  0  0  0
  148.6759  137.5459  153.4110 H   0  0  0  0  0  0  0  0  0  0  0  0
  148.1924  138.7251  155.8702 H   0  0  0  0  0  0  0  0  0  0  0  0
  147.7153  140.6272  153.6515 H   0  0  0  0  0  0  0  0  0  0  0  0
  147.3694  140.8371  155.3641 H   0  0  0  0  0  0  0  0  0  0  0  0
  149.4155  142.2014  154.1661 H   0  0  0  0  0  0  0  0  0  0  0  0
  149.6155  141.5734  155.8087 H   0  0  0  0  0  0  0  0  0  0  0  0
  150.4216  139.1598  155.9600 H   0  0  0  0  0  0  0  0  0  0  0  0
  150.6326  137.0257  154.6314 H   0  0  0  0  0  0  0  0  0  0  0  0
  151.9458  138.1503  154.3072 H   0  0  0  0  0  0  0  0  0  0  0  0
  150.6449  137.9703  153.1397 H   0  0  0  0  0  0  0  0  0  0  0  0
  1  2  1  0  0  0  0
  1 20  1  0  0  0  0
  1 21  1  0  0  0  0
  1 22  1  0  0  0  0
  2 19  1  0  0  0  0
  2  3  2  0  0  0  0
  3  4  1  0  0  0  0
  3 23  1  0  0  0  0
  4  5  1  0  0  0  0
  5  6  1  0  0  0  0
  5 19  2  0  0  0  0
  6  7  1  0  0  0  0
  6  8  1  0  0  0  0
  6 24  1  0  0  0  0
  7 25  1  0  0  0  0
  7 26  1  0  0  0  0
  7 27  1  0  0  0  0
  8  9  1  0  0  0  0
  8 28  1  0  0  0  0
  8 29  1  0  0  0  0
  9 10  1  0  0  0  0
  9 30  1  0  0  0  0
 10 11  2  0  0  0  0
 10 12  1  0  0  0  0
 12 13  1  0  0  0  0
 12 31  1  0  0  0  0
 13 17  1  0  0  0  0
 13 14  1  0  0  0  0
 13 32  1  0  0  0  0
 14 15  1  0  0  0  0
 14 33  1  0  0  0  0
 14 34  1  0  0  0  0
 15 16  1  0  0  0  0
 15 35  1  0  0  0  0
 15 36  1  0  0  0  0
 16 17  1  0  0  0  0
 17 18  1  0  0  0  0
 17 37  1  0  0  0  0
 18 38  1  0  0  0  0
 18 39  1  0  0  0  0
 18 40  1  0  0  0  0
M  END
> <s_m_source_file>
AV-unprocessed.smi

> <i_m_source_file_index>
2340

> <i_lp_mmshare_version>
43012

> <i_f3d_flags>
0

> <s_epik_input>
W0NIM11jMVtjSF1zYyhuMSlbQ0BIXShbQ0gzXSlbQ0gyXVtOSF1DKD1PKVtOSF1bQ0BASF0yW0NIMl1bQ0gyXU9bQ0BIXTJbQ0gzXQ==

> <s_epik_cmdline>
J2VwaWtfcHl0aG9uJywgJy1waCcsICc3LjAnLCAnLXRuJywgJzgnLCAnLW1hJywgJzIwMCcsICctbWV0YWxfYmluZGluZycsICctaW1hZScsICc8aW5maWxlLm1hZT4nLCAnLW9tYWUnLCAnPG91dGZpbGUubWFlPic=

> <r_epik_Ionization_Penalty>
0.00156622

> <r_epik_Ionization_Penalty_Charging>
0

> <r_epik_Ionization_Penalty_Neutral>
0.00156622

> <r_epik_State_Penalty>
0.00101902

> <r_epik_Charging_Adjusted_Penalty>
0.00101902

> <i_epik_Tot_Q>
0

> <i_epik_Tot_abs_Q>
0

> <r_epik_Metal_State_Penalty>
-0

> <b_epik_Metal_Only>
0

> <s_lp_Force_Field>
OPLS_2005

> <r_lp_Energy>
5.61614

> <b_lp_Chiralities_Consistent>
1

> <s_lp_Variant>
AV-unprocessed.smi:2340-6

> <Gold.Version>
5.8.1

> <Gold.Id.Protein>
6NUR|6NUR_protein|mol2

> <Gold.PLP.Fitness>
38.8388

> <Gold.PLP.PLP>
-28.7846

> <Gold.PLP.part.hbond>
-2.9143

> <Gold.PLP.part.metal>
0.0000

> <Gold.PLP.part.buried>
-1.2259

> <Gold.PLP.part.nonpolar>
-27.2672

> <Gold.PLP.part.repulsive>
1.4662

> <Gold.PLP.ligand.clash>
0.0000

> <Gold.PLP.ligand.torsion>
0.8024

> <Gold.PLP.Chemscore.Hbond>
2.8640

> <Gold.PLP.Chemscore.CHOScore>
0.9910

> <Gold.PLP.Chemscore.Metal>
0.0000

> <Gold.Chemscore.Hbonds>
donor molecule, donor type, donor heavy atom, donor atom, acceptor molecule, acceptor atom, score
      L1  H     9    30       P1  7948  1.00
      L1  H    12    31       P1  7948  0.90
      P1  H  7989  7998       L1    16  1.00
      L1  C     3    23       P1 10747  1.00

> <Gold.PLP.Chemscore.Internal.Correction>
0.0940

> <Gold.Rescore>
     Score         DG    S(hbond)    S(metal)    S(lipo)     H(rot)  DE(clash)    DE(int)     intcor
     17.14     -20.62       2.77        0.00      83.79       1.53       1.33       2.15       ----

> <Gold.Chemscore.Fitness>
17.1426

> <Gold.Chemscore.DG>
-20.6165

> <Gold.Chemscore.ZeroCoef>
-5.4800

> <Gold.Chemscore.Hbond>
2.7715

> <Gold.Chemscore.Metal>
0.0000

> <Gold.Chemscore.Lipo>
83.7859

> <Gold.Chemscore.Internal_Hbond>
0.0000

> <Gold.Chemscore.DEClash>
1.3259

> <Gold.Chemscore.DEInternal>
2.1480

> <Gold.Chemscore.Rot>
1.5325

> <Gold.Chemscore.Internal.Correction>
   9.000000E+99

> <Gold.Chemscore.Hbonds>
donor molecule, donor type, donor heavy atom, donor atom, acceptor molecule, acceptor atom, score
      L1  H     9    30       P1  7948  1.00
      L1  H    12    31       P1  7948  0.81
      P1  H  7989  7998       L1    16  0.90

> <Gold.Chemscore.Hbond.Weighted>
-9.2569

> <Gold.Chemscore.Metal.Weighted>
-0.0000

> <Gold.Chemscore.Lipo.Weighted>
-9.8030

> <Gold.Chemscore.Internal_Hbond.Weighted>
0.0000

> <Gold.Chemscore.DEClash.Weighted>
1.3259

> <Gold.Chemscore.DEInternal.Weighted>
2.1480

> <Gold.Chemscore.Rot.Weighted>
3.9233

> <Gold.Chemscore.Internal.Correction.Weighted>
   9.000000E+99

> <Gold.Protein.RotatedTorsions>
[ 6907 6896 6895 6894 ] final -112.04 input  -60.11 | X-H torsion
[ 7974 7965 7964 7962 ] final -160.56 input  175.53 | X-H torsion
[ 8008 7997 7996 7995 ] final  -96.80 input   59.86 | X-H torsion
[ 10167 10162 10161 10158 ] final  -66.72 input  -65.29 | X-H torsion
[ 10718 10713 10712 10709 ] final  173.74 input   66.30 | X-H torsion
[ 10763 10752 10751 10750 ] final  -26.07 input  -60.55 | X-H torsion
[ 11005 11000 10999 10996 ] final   88.10 input  -57.11 | X-H torsion

> <Gold.Protein.ActiveResidues>
 VAL166  LYS551  ARG553  GLY616  TRP617  ASP618  TYR619  PRO620  LYS621  CYS622 
 ASP623  PHE694  ASN695  SER759  ASP760  ASP761  ALA762  ILE779  LEU786  VAL792 
 PHE793  MET794  SER795  GLU796  ALA797  LYS798  CYS799  TRP800  GLU811  SER814 

> <Gold.Protein.RotatedAtoms>
  150.7731  133.9147  159.3379 H   0  0  0  0  0  0  0  0  0  0  0  0  # atno 6907 bound_to 6896
  151.7028  135.0925  160.0263 H   0  0  0  0  0  0  0  0  0  0  0  0  # atno 6908 bound_to 6896
  152.3757  133.6440  159.6157 H   0  0  0  0  0  0  0  0  0  0  0  0  # atno 6909 bound_to 6896
  144.7422  140.3524  143.6113 H   0  0  0  0  0  0  0  0  0  0  0  0  # atno 7974 bound_to 7965
  154.7792  140.0468  157.1113 H   0  0  0  0  0  0  0  0  0  0  0  0  # atno 8008 bound_to 7997
  154.9725  140.3091  155.4962 H   0  0  0  0  0  0  0  0  0  0  0  0  # atno 8009 bound_to 7997
  156.2934  140.2250  156.4819 H   0  0  0  0  0  0  0  0  0  0  0  0  # atno 8010 bound_to 7997
  140.5636  143.2314  151.6679 H   0  0  0  0  0  0  0  0  0  0  0  0  # atno 10167 bound_to 10162
  156.9598  131.0057  151.2930 H   0  0  0  0  0  0  0  0  0  0  0  0  # atno 10718 bound_to 10713
  153.7101  135.6951  153.5040 H   0  0  0  0  0  0  0  0  0  0  0  0  # atno 10763 bound_to 10752
  153.2279  135.4347  155.0562 H   0  0  0  0  0  0  0  0  0  0  0  0  # atno 10764 bound_to 10752
  154.8317  135.3477  154.6638 H   0  0  0  0  0  0  0  0  0  0  0  0  # atno 10765 bound_to 10752
  139.8904  134.8466  156.2953 H   0  0  0  0  0  0  0  0  0  0  0  0  # atno 11005 bound_to 11000
  145.7262  139.1723  143.2456 LP  0  0  0  0  0  0  0  0  0  0  0  0  # atno 17320 bound_to 7965
  146.1240  140.7272  142.9444 LP  0  0  0  0  0  0  0  0  0  0  0  0  # atno 17321 bound_to 7965
  139.5082  144.3620  152.0553 LP  0  0  0  0  0  0  0  0  0  0  0  0  # atno 17342 bound_to 10162
  140.2749  144.3924  150.6138 LP  0  0  0  0  0  0  0  0  0  0  0  0  # atno 17343 bound_to 10162
  157.5665  130.8281  149.8335 LP  0  0  0  0  0  0  0  0  0  0  0  0  # atno 17370 bound_to 10713
  156.0327  130.3760  150.1644 LP  0  0  0  0  0  0  0  0  0  0  0  0  # atno 17371 bound_to 10713
  140.9949  133.7186  156.0871 LP  0  0  0  0  0  0  0  0  0  0  0  0  # atno 17394 bound_to 11000
  140.7575  134.3976  157.5531 LP  0  0  0  0  0  0  0  0  0  0  0  0  # atno 17395 bound_to 11000

$$$$
