AV-unprocessed.smi:496|AV-procd|sdf|2720|dock10
  -GOLD-   2262023163D 1   1.00000     0.00000
 Structure written by MMmdl.
 41 43  0  0  0  0  0  0  0  0  2 V2000
  153.0006  137.5213  161.1634 C   0  0  0  0  0  0  0  0  0  0  0  0
  152.3149  137.0844  160.0041 O   0  0  0  0  0  0  0  0  0  0  0  0
  151.7510  138.1584  159.2683 C   0  0  0  0  0  0  0  0  0  0  0  0
  152.8451  139.1787  158.9188 C   0  0  0  0  0  0  0  0  0  0  0  0
  152.2956  140.4157  158.3565 N   0  0  0  0  0  0  0  0  0  0  0  0
  151.6414  140.6411  157.1748 C   0  0  0  0  0  0  0  0  0  0  0  0
  151.3339  139.5685  156.1430 C   0  0  2  0  0  0  0  0  0  0  0  0
  152.6105  138.8589  155.6682 C   0  0  0  0  0  0  0  0  0  0  0  0
  150.6152  140.1025  154.9840 N   0  5  0  0  0  0  0  0  0  0  0  0
  149.5117  139.5185  154.4365 C   0  0  0  0  0  0  0  0  0  0  0  0
  149.2842  138.3271  154.1989 O   0  0  0  0  0  0  0  0  0  0  0  0
  148.4854  140.5168  154.0594 C   0  0  0  0  0  0  0  0  0  0  0  0
  147.2886  140.3969  153.3994 C   0  0  0  0  0  0  0  0  0  0  0  0
  146.7418  141.7057  153.2975 C   0  0  0  0  0  0  0  0  0  0  0  0
  147.6468  142.5364  153.8924 C   0  0  0  0  0  0  0  0  0  0  0  0
  148.7151  141.8309  154.3533 O   0  0  0  0  0  0  0  0  0  0  0  0
  151.2531  141.9055  156.9762 N   0  0  0  0  0  0  0  0  0  0  0  0
  151.7023  142.5578  158.1048 C   0  0  0  0  0  0  0  0  0  0  0  0
  151.6041  143.9176  158.4777 C   0  0  0  0  0  0  0  0  0  0  0  0
  152.1520  144.3647  159.6975 C   0  0  0  0  0  0  0  0  0  0  0  0
  152.8046  143.4599  160.5591 C   0  0  0  0  0  0  0  0  0  0  0  0
  152.9111  142.1008  160.2057 C   0  0  0  0  0  0  0  0  0  0  0  0
  152.3612  141.6581  158.9865 C   0  0  0  0  0  0  0  0  0  0  0  0
  153.4141  136.6612  161.6897 H   0  0  0  0  0  0  0  0  0  0  0  0
  152.3278  138.0417  161.8462 H   0  0  0  0  0  0  0  0  0  0  0  0
  153.8246  138.1880  160.9064 H   0  0  0  0  0  0  0  0  0  0  0  0
  151.2851  137.7808  158.3572 H   0  0  0  0  0  0  0  0  0  0  0  0
  150.9690  138.6421  159.8550 H   0  0  0  0  0  0  0  0  0  0  0  0
  153.4601  139.4059  159.7899 H   0  0  0  0  0  0  0  0  0  0  0  0
  153.5292  138.7415  158.1917 H   0  0  0  0  0  0  0  0  0  0  0  0
  150.7363  138.7985  156.6304 H   0  0  0  0  0  0  0  0  0  0  0  0
  153.1424  138.4143  156.5098 H   0  0  0  0  0  0  0  0  0  0  0  0
  153.2934  139.5492  155.1715 H   0  0  0  0  0  0  0  0  0  0  0  0
  152.3788  138.0575  154.9658 H   0  0  0  0  0  0  0  0  0  0  0  0
  146.8585  139.4755  153.0344 H   0  0  0  0  0  0  0  0  0  0  0  0
  145.8076  142.0013  152.8436 H   0  0  0  0  0  0  0  0  0  0  0  0
  147.6891  143.6019  154.0635 H   0  0  0  0  0  0  0  0  0  0  0  0
  151.1067  144.6165  157.8219 H   0  0  0  0  0  0  0  0  0  0  0  0
  152.0722  145.4061  159.9723 H   0  0  0  0  0  0  0  0  0  0  0  0
  153.2236  143.8091  161.4913 H   0  0  0  0  0  0  0  0  0  0  0  0
  153.4134  141.4079  160.8637 H   0  0  0  0  0  0  0  0  0  0  0  0
  1  2  1  0  0  0  0
  1 24  1  0  0  0  0
  1 25  1  0  0  0  0
  1 26  1  0  0  0  0
  2  3  1  0  0  0  0
  3  4  1  0  0  0  0
  3 27  1  0  0  0  0
  3 28  1  0  0  0  0
  4  5  1  0  0  0  0
  4 29  1  0  0  0  0
  4 30  1  0  0  0  0
  5 23  1  0  0  0  0
  5  6  1  0  0  0  0
  6  7  1  0  0  0  0
  6 17  2  0  0  0  0
  7  8  1  0  0  0  0
  7  9  1  0  0  0  0
  7 31  1  0  0  0  0
  8 32  1  0  0  0  0
  8 33  1  0  0  0  0
  8 34  1  0  0  0  0
  9 10  1  0  0  0  0
 10 11  2  0  0  0  0
 10 12  1  0  0  0  0
 12 16  1  0  0  0  0
 12 13  2  0  0  0  0
 13 14  1  0  0  0  0
 13 35  1  0  0  0  0
 14 15  2  0  0  0  0
 14 36  1  0  0  0  0
 15 16  1  0  0  0  0
 15 37  1  0  0  0  0
 17 18  1  0  0  0  0
 18 23  2  0  0  0  0
 18 19  1  0  0  0  0
 19 20  2  0  0  0  0
 19 38  1  0  0  0  0
 20 21  1  0  0  0  0
 20 39  1  0  0  0  0
 21 22  2  0  0  0  0
 21 40  1  0  0  0  0
 22 23  1  0  0  0  0
 22 41  1  0  0  0  0
M  CHG  1   9  -1
M  END
> <s_m_source_file>
AV-unprocessed.smi

> <i_m_source_file_index>
496

> <i_lp_mmshare_version>
43012

> <i_f3d_flags>
0

> <s_epik_input>
W2NIXTFbY0hdW2NIXVtjSF1jKGMxMiluKFtDSDJdW0NIMl1PW0NIM10pYyhuMilbQ0BIXShbQ0gzXSlbTkhdQyg9TyljM1tjSF1bY0hdW2NIXW8z

> <s_epik_cmdline>
J2VwaWtfcHl0aG9uJywgJy1waCcsICc3LjAnLCAnLXRuJywgJzgnLCAnLW1hJywgJzIwMCcsICctbWV0YWxfYmluZGluZycsICctaW1hZScsICc8aW5maWxlLm1hZT4nLCAnLW9tYWUnLCAnPG91dGZpbGUubWFlPic=

> <r_epik_Ionization_Penalty>
7.3423

> <r_epik_Ionization_Penalty_Charging>
6.43826

> <r_epik_Ionization_Penalty_Neutral>
0.90404

> <r_epik_State_Penalty>
6.54438

> <r_epik_Charging_Adjusted_Penalty>
12.9826

> <i_epik_Tot_Q>
-1

> <i_epik_Tot_abs_Q>
1

> <r_epik_Metal_State_Penalty>
2.56942

> <b_epik_Metal_Only>
1

> <s_lp_Force_Field>
OPLS_2005

> <r_lp_Energy>
15.948

> <b_lp_Chiralities_Consistent>
1

> <s_lp_Variant>
AV-unprocessed.smi:496-5

> <Gold.Version>
5.8.1

> <Gold.Id.Protein>
6NUR|6NUR_protein|mol2

> <Gold.PLP.Fitness>
54.4917

> <Gold.PLP.PLP>
-46.5844

> <Gold.PLP.part.hbond>
-2.4760

> <Gold.PLP.part.metal>
0.0000

> <Gold.PLP.part.buried>
-3.7410

> <Gold.PLP.part.nonpolar>
-40.8634

> <Gold.PLP.part.repulsive>
1.0310

> <Gold.PLP.ligand.clash>
0.0000

> <Gold.PLP.ligand.torsion>
0.6240

> <Gold.PLP.Chemscore.Hbond>
2.0000

> <Gold.PLP.Chemscore.CHOScore>
1.0000

> <Gold.PLP.Chemscore.Metal>
0.0000

> <Gold.Chemscore.Hbonds>
donor molecule, donor type, donor heavy atom, donor atom, acceptor molecule, acceptor atom, score
      P1  H  6896  6907       L1     2  0.86
      P1  H  7989  7998       L1     9  1.00
      P1  H  8011  8017       L1    16  0.02
      L1  C    15    37       P1  8028  0.99

> <Gold.PLP.Chemscore.Internal.Correction>
0.1554

> <Gold.Rescore>
     Score         DG    S(hbond)    S(metal)    S(lipo)     H(rot)  DE(clash)    DE(int)     intcor
     19.57     -20.40       1.52        0.00     123.23       1.78       0.11       0.72       ----

> <Gold.Chemscore.Fitness>
19.5723

> <Gold.Chemscore.DG>
-20.4000

> <Gold.Chemscore.ZeroCoef>
-5.4800

> <Gold.Chemscore.Hbond>
1.5159

> <Gold.Chemscore.Metal>
0.0000

> <Gold.Chemscore.Lipo>
123.2348

> <Gold.Chemscore.Internal_Hbond>
0.0000

> <Gold.Chemscore.DEClash>
0.1102

> <Gold.Chemscore.DEInternal>
0.7175

> <Gold.Chemscore.Rot>
1.7819

> <Gold.Chemscore.Internal.Correction>
   9.000000E+99

> <Gold.Chemscore.Hbonds>
donor molecule, donor type, donor heavy atom, donor atom, acceptor molecule, acceptor atom, score
      P1  H  6896  6907       L1     2  0.60
      P1  H  7989  7998       L1     9  0.53

> <Gold.Chemscore.Hbond.Weighted>
-5.0632

> <Gold.Chemscore.Metal.Weighted>
-0.0000

> <Gold.Chemscore.Lipo.Weighted>
-14.4185

> <Gold.Chemscore.Internal_Hbond.Weighted>
0.0000

> <Gold.Chemscore.DEClash.Weighted>
0.1102

> <Gold.Chemscore.DEInternal.Weighted>
0.7175

> <Gold.Chemscore.Rot.Weighted>
4.5617

> <Gold.Chemscore.Internal.Correction.Weighted>
   9.000000E+99

> <Gold.Protein.RotatedTorsions>
[ 6907 6896 6895 6894 ] final   33.96 input  -60.11 | X-H torsion
[ 7974 7965 7964 7962 ] final -167.21 input  175.53 | X-H torsion
[ 8008 7997 7996 7995 ] final  154.81 input   59.86 | X-H torsion
[ 10167 10162 10161 10158 ] final  125.55 input  -65.29 | X-H torsion
[ 10718 10713 10712 10709 ] final -149.94 input   66.30 | X-H torsion
[ 10763 10752 10751 10750 ] final  -76.53 input  -60.55 | X-H torsion
[ 11005 11000 10999 10996 ] final    9.01 input  -57.11 | X-H torsion

> <Gold.Protein.ActiveResidues>
 VAL166  LYS551  ARG553  GLY616  TRP617  ASP618  TYR619  PRO620  LYS621  CYS622 
 ASP623  PHE694  ASN695  SER759  ASP760  ASP761  ALA762  ILE779  LEU786  VAL792 
 PHE793  MET794  SER795  GLU796  ALA797  LYS798  CYS799  TRP800  GLU811  SER814 

> <Gold.Protein.RotatedAtoms>
  152.0957  134.9376  160.0570 H   0  0  0  0  0  0  0  0  0  0  0  0  # atno 6907 bound_to 6896
  152.0610  133.4057  159.4426 H   0  0  0  0  0  0  0  0  0  0  0  0  # atno 6908 bound_to 6896
  150.6838  134.3120  159.4794 H   0  0  0  0  0  0  0  0  0  0  0  0  # atno 6909 bound_to 6896
  144.7228  140.2552  143.6273 H   0  0  0  0  0  0  0  0  0  0  0  0  # atno 7974 bound_to 7965
  156.2512  140.1956  156.6704 H   0  0  0  0  0  0  0  0  0  0  0  0  # atno 8008 bound_to 7997
  154.6397  140.0585  156.9857 H   0  0  0  0  0  0  0  0  0  0  0  0  # atno 8009 bound_to 7997
  155.1582  140.3257  155.4419 H   0  0  0  0  0  0  0  0  0  0  0  0  # atno 8010 bound_to 7997
  139.5679  144.6922  151.3858 H   0  0  0  0  0  0  0  0  0  0  0  0  # atno 10167 bound_to 10162
  156.4396  130.8115  151.2345 H   0  0  0  0  0  0  0  0  0  0  0  0  # atno 10718 bound_to 10713
  154.5011  135.5794  153.6532 H   0  0  0  0  0  0  0  0  0  0  0  0  # atno 10763 bound_to 10752
  152.9879  135.6136  154.3001 H   0  0  0  0  0  0  0  0  0  0  0  0  # atno 10764 bound_to 10752
  154.2909  135.2848  155.2635 H   0  0  0  0  0  0  0  0  0  0  0  0  # atno 10765 bound_to 10752
  140.5305  134.0471  155.7872 H   0  0  0  0  0  0  0  0  0  0  0  0  # atno 11005 bound_to 11000
  145.8190  139.2035  143.1949 LP  0  0  0  0  0  0  0  0  0  0  0  0  # atno 17320 bound_to 7965
  146.0531  140.8049  142.9772 LP  0  0  0  0  0  0  0  0  0  0  0  0  # atno 17321 bound_to 7965
  140.6963  143.7740  150.7332 LP  0  0  0  0  0  0  0  0  0  0  0  0  # atno 17342 bound_to 10162
  140.1238  143.4588  152.2297 LP  0  0  0  0  0  0  0  0  0  0  0  0  # atno 17343 bound_to 10162
  157.7506  131.0172  150.3577 LP  0  0  0  0  0  0  0  0  0  0  0  0  # atno 17370 bound_to 10713
  156.3932  130.3902  149.7014 LP  0  0  0  0  0  0  0  0  0  0  0  0  # atno 17371 bound_to 10713
  141.1284  133.9344  157.2587 LP  0  0  0  0  0  0  0  0  0  0  0  0  # atno 17394 bound_to 11000
  139.9557  135.0166  156.9120 LP  0  0  0  0  0  0  0  0  0  0  0  0  # atno 17395 bound_to 11000

$$$$
