AV-unprocessed.smi:1019|AV-procd|sdf|4450|dock10
  -GOLD-   22720 2413D 1   1.00000     0.00000
 Structure written by MMmdl.
 45 47  0  0  0  0  0  0  0  0  3 V2000
  148.2870  138.8958  153.8423 C   0  0  0  0  0  0  0  0  0  0  0  0
  148.9703  137.6311  154.2043 N   0  3  2  0  0  0  0  0  0  0  0  0
  148.1089  136.7232  155.0060 C   0  0  0  0  0  0  0  0  0  0  0  0
  148.6514  135.3054  155.0401 C   0  0  0  0  0  0  0  0  0  0  0  0
  149.8115  135.0021  155.7848 C   0  0  0  0  0  0  0  0  0  0  0  0
  150.3069  133.6842  155.8169 C   0  0  0  0  0  0  0  0  0  0  0  0
  149.6466  132.6654  155.1033 C   0  0  0  0  0  0  0  0  0  0  0  0
  148.4910  132.9650  154.3564 C   0  0  0  0  0  0  0  0  0  0  0  0
  147.9946  134.2827  154.3237 C   0  0  0  0  0  0  0  0  0  0  0  0
  150.2958  137.8782  154.8287 C   0  0  0  0  0  0  0  0  0  0  0  0
  150.1862  138.6116  156.1809 C   0  0  1  0  0  0  0  0  0  0  0  0
  149.9444  137.6593  157.1992 O   0  0  0  0  0  0  0  0  0  0  0  0
  151.4748  139.3912  156.5106 C   0  0  0  0  0  0  0  0  0  0  0  0
  151.2479  140.8328  156.6800 N   0  0  0  0  0  0  0  0  0  0  0  0
  150.6223  141.7226  155.8615 C   0  0  0  0  0  0  0  0  0  0  0  0
  150.6680  142.9415  156.4673 N   0  3  0  0  0  0  0  0  0  0  0  0
  151.3307  142.8296  157.6913 C   0  0  0  0  0  0  0  0  0  0  0  0
  151.6225  143.7842  158.6607 C   0  0  0  0  0  0  0  0  0  0  0  0
  152.3157  143.3338  159.8035 C   0  0  0  0  0  0  0  0  0  0  0  0
  152.6922  141.9826  159.9497 C   0  0  0  0  0  0  0  0  0  0  0  0
  152.3922  141.0232  158.9600 C   0  0  0  0  0  0  0  0  0  0  0  0
  151.7058  141.4768  157.8343 C   0  0  0  0  0  0  0  0  0  0  0  0
  148.0533  139.4814  154.7323 H   0  0  0  0  0  0  0  0  0  0  0  0
  147.3588  138.7082  153.3031 H   0  0  0  0  0  0  0  0  0  0  0  0
  148.9172  139.5021  153.1907 H   0  0  0  0  0  0  0  0  0  0  0  0
  148.0387  137.0705  156.0364 H   0  0  0  0  0  0  0  0  0  0  0  0
  147.0909  136.7314  154.6130 H   0  0  0  0  0  0  0  0  0  0  0  0
  150.3228  135.7771  156.3368 H   0  0  0  0  0  0  0  0  0  0  0  0
  151.1937  133.4543  156.3893 H   0  0  0  0  0  0  0  0  0  0  0  0
  150.0270  131.6549  155.1284 H   0  0  0  0  0  0  0  0  0  0  0  0
  147.9856  132.1833  153.8081 H   0  0  0  0  0  0  0  0  0  0  0  0
  147.1071  134.5053  153.7492 H   0  0  0  0  0  0  0  0  0  0  0  0
  150.8123  136.9312  154.9937 H   0  0  0  0  0  0  0  0  0  0  0  0
  150.9188  138.4431  154.1334 H   0  0  0  0  0  0  0  0  0  0  0  0
  149.3485  139.3080  156.1693 H   0  0  0  0  0  0  0  0  0  0  0  0
  150.6358  137.0148  157.1834 H   0  0  0  0  0  0  0  0  0  0  0  0
  151.9162  139.0204  157.4370 H   0  0  0  0  0  0  0  0  0  0  0  0
  152.2269  139.2500  155.7333 H   0  0  0  0  0  0  0  0  0  0  0  0
  150.1714  141.5030  154.9044 H   0  0  0  0  0  0  0  0  0  0  0  0
  151.3346  144.8198  158.5519 H   0  0  0  0  0  0  0  0  0  0  0  0
  152.5628  144.0389  160.5841 H   0  0  0  0  0  0  0  0  0  0  0  0
  153.2214  141.6758  160.8404 H   0  0  0  0  0  0  0  0  0  0  0  0
  152.6843  139.9910  159.0820 H   0  0  0  0  0  0  0  0  0  0  0  0
  149.1606  137.1559  153.3331 H   0  0  0  0  0  0  0  0  0  0  0  0
  150.2733  143.7859  156.0729 H   0  0  0  0  0  0  0  0  0  0  0  0
  1  2  1  0  0  0  0
  1 23  1  0  0  0  0
  1 24  1  0  0  0  0
  1 25  1  0  0  0  0
  2  3  1  0  0  0  0
  2 10  1  0  0  0  0
  2 44  1  0  0  0  0
  3  4  1  0  0  0  0
  3 26  1  0  0  0  0
  3 27  1  0  0  0  0
  4  9  1  0  0  0  0
  4  5  2  0  0  0  0
  5  6  1  0  0  0  0
  5 28  1  0  0  0  0
  6  7  2  0  0  0  0
  6 29  1  0  0  0  0
  7  8  1  0  0  0  0
  7 30  1  0  0  0  0
  8  9  2  0  0  0  0
  8 31  1  0  0  0  0
  9 32  1  0  0  0  0
 10 11  1  0  0  0  0
 10 33  1  0  0  0  0
 10 34  1  0  0  0  0
 11 12  1  0  0  0  0
 11 13  1  0  0  0  0
 11 35  1  0  0  0  0
 12 36  1  0  0  0  0
 13 14  1  0  0  0  0
 13 37  1  0  0  0  0
 13 38  1  0  0  0  0
 14 22  1  0  0  0  0
 14 15  1  0  0  0  0
 15 16  2  0  0  0  0
 15 39  1  0  0  0  0
 16 17  1  0  0  0  0
 16 45  1  0  0  0  0
 17 22  2  0  0  0  0
 17 18  1  0  0  0  0
 18 19  2  0  0  0  0
 18 40  1  0  0  0  0
 19 20  1  0  0  0  0
 19 41  1  0  0  0  0
 20 21  2  0  0  0  0
 20 42  1  0  0  0  0
 21 22  1  0  0  0  0
 21 43  1  0  0  0  0
M  CHG  1   2   1
M  CHG  1  16   1
M  END
> <s_m_source_file>
AV-unprocessed.smi

> <i_m_source_file_index>
1019

> <i_lp_mmshare_version>
43012

> <i_f3d_flags>
0

> <s_epik_input>
W2NIXTFbY0hdW2NIXVtjSF1bY0hdYzFbQ0gyXU4oW0NIM10pW0NIMl1bQ0BIXShbT0hdKVtDSDJdbihbY0hdbjIpYyhjMjMpW2NIXVtjSF1bY0hdW2NIXTM=

> <s_epik_cmdline>
J2VwaWtfcHl0aG9uJywgJy1waCcsICc3LjAnLCAnLXRuJywgJzgnLCAnLW1hJywgJzIwMCcsICctbWV0YWxfYmluZGluZycsICctaW1hZScsICc8aW5maWxlLm1hZT4nLCAnLW9tYWUnLCAnPG91dGZpbGUubWFlPic=

> <r_epik_Ionization_Penalty>
1.5198

> <r_epik_Ionization_Penalty_Charging>
1.5198

> <r_epik_Ionization_Penalty_Neutral>
3.13312e-06

> <r_epik_State_Penalty>
1.624

> <r_epik_Charging_Adjusted_Penalty>
3.1438

> <i_epik_Tot_Q>
2

> <i_epik_Tot_abs_Q>
2

> <r_epik_Metal_State_Penalty>
5.67392

> <b_epik_Metal_Only>
0

> <s_lp_Force_Field>
OPLS_2005

> <r_lp_Energy>
24.6792

> <b_lp_Chiralities_Consistent>
1

> <s_lp_Variant>
AV-unprocessed.smi:1019-8

> <Gold.Version>
5.8.1

> <Gold.Id.Protein>
6NUR|6NUR_protein|mol2

> <Gold.PLP.Fitness>
50.9171

> <Gold.PLP.PLP>
-41.3106

> <Gold.PLP.part.hbond>
-2.0000

> <Gold.PLP.part.metal>
0.0000

> <Gold.PLP.part.buried>
-4.6431

> <Gold.PLP.part.nonpolar>
-33.5878

> <Gold.PLP.part.repulsive>
0.0680

> <Gold.PLP.ligand.clash>
0.0000

> <Gold.PLP.ligand.torsion>
1.2946

> <Gold.PLP.Chemscore.Hbond>
4.0000

> <Gold.PLP.Chemscore.CHOScore>
0.0000

> <Gold.PLP.Chemscore.Metal>
0.0000

> <Gold.Chemscore.Hbonds>
donor molecule, donor type, donor heavy atom, donor atom, acceptor molecule, acceptor atom, score
      L1  H     2    44       P1  7948  2.00
      L1  H    16    45       P1  8028  2.00

> <Gold.PLP.Chemscore.Internal.Correction>
0.1956

> <Gold.Rescore>
     Score         DG    S(hbond)    S(metal)    S(lipo)     H(rot)  DE(clash)    DE(int)     intcor
     17.08     -18.85       1.99        0.00     111.13       2.46       0.17       1.60       ----

> <Gold.Chemscore.Fitness>
17.0785

> <Gold.Chemscore.DG>
-18.8502

> <Gold.Chemscore.ZeroCoef>
-5.4800

> <Gold.Chemscore.Hbond>
1.9920

> <Gold.Chemscore.Metal>
0.0000

> <Gold.Chemscore.Lipo>
111.1299

> <Gold.Chemscore.Internal_Hbond>
0.0000

> <Gold.Chemscore.DEClash>
0.1739

> <Gold.Chemscore.DEInternal>
1.5979

> <Gold.Chemscore.Rot>
2.4552

> <Gold.Chemscore.Internal.Correction>
   9.000000E+99

> <Gold.Chemscore.Hbonds>
donor molecule, donor type, donor heavy atom, donor atom, acceptor molecule, acceptor atom, score
      L1  H     2    44       P1  7948  0.99
      L1  H    16    45       P1  8028  0.95

> <Gold.Chemscore.Hbond.Weighted>
-6.6534

> <Gold.Chemscore.Metal.Weighted>
-0.0000

> <Gold.Chemscore.Lipo.Weighted>
-13.0022

> <Gold.Chemscore.Internal_Hbond.Weighted>
0.0000

> <Gold.Chemscore.DEClash.Weighted>
0.1739

> <Gold.Chemscore.DEInternal.Weighted>
1.5979

> <Gold.Chemscore.Rot.Weighted>
6.2854

> <Gold.Chemscore.Internal.Correction.Weighted>
   9.000000E+99

> <Gold.Protein.RotatedTorsions>
[ 6907 6896 6895 6894 ] final  -90.49 input  -60.11 | X-H torsion
[ 7974 7965 7964 7962 ] final  140.91 input  175.53 | X-H torsion
[ 8008 7997 7996 7995 ] final  132.57 input   59.86 | X-H torsion
[ 10167 10162 10161 10158 ] final   54.81 input  -65.29 | X-H torsion
[ 10718 10713 10712 10709 ] final  -90.23 input   66.30 | X-H torsion
[ 10763 10752 10751 10750 ] final  153.67 input  -60.55 | X-H torsion
[ 11005 11000 10999 10996 ] final -137.73 input  -57.11 | X-H torsion

> <Gold.Protein.ActiveResidues>
 VAL166  LYS551  ARG553  GLY616  TRP617  ASP618  TYR619  PRO620  LYS621  CYS622 
 ASP623  PHE694  ASN695  SER759  ASP760  ASP761  ALA762  ILE779  LEU786  VAL792 
 PHE793  MET794  SER795  GLU796  ALA797  LYS798  CYS799  TRP800  GLU811  SER814 

> <Gold.Protein.RotatedAtoms>
  150.6882  134.2424  159.4477 H   0  0  0  0  0  0  0  0  0  0  0  0  # atno 6907 bound_to 6896
  152.0367  134.9733  160.0582 H   0  0  0  0  0  0  0  0  0  0  0  0  # atno 6908 bound_to 6896
  152.1251  133.4340  159.4731 H   0  0  0  0  0  0  0  0  0  0  0  0  # atno 6909 bound_to 6896
  144.9144  139.5250  143.5693 H   0  0  0  0  0  0  0  0  0  0  0  0  # atno 7974 bound_to 7965
  156.2984  140.2543  156.3110 H   0  0  0  0  0  0  0  0  0  0  0  0  # atno 8008 bound_to 7997
  154.9326  140.0398  157.2075 H   0  0  0  0  0  0  0  0  0  0  0  0  # atno 8009 bound_to 7997
  154.8203  140.2859  155.5795 H   0  0  0  0  0  0  0  0  0  0  0  0  # atno 8010 bound_to 7997
  140.2262  144.3736  150.6432 H   0  0  0  0  0  0  0  0  0  0  0  0  # atno 10167 bound_to 10162
  155.9987  130.4902  150.5291 H   0  0  0  0  0  0  0  0  0  0  0  0  # atno 10718 bound_to 10713
  154.1400  135.2821  155.3163 H   0  0  0  0  0  0  0  0  0  0  0  0  # atno 10763 bound_to 10752
  154.6294  135.5440  153.7666 H   0  0  0  0  0  0  0  0  0  0  0  0  # atno 10764 bound_to 10752
  153.0253  135.6459  154.1547 H   0  0  0  0  0  0  0  0  0  0  0  0  # atno 10765 bound_to 10752
  140.8684  134.2082  157.4666 H   0  0  0  0  0  0  0  0  0  0  0  0  # atno 11005 bound_to 11000
  146.3174  139.7975  142.8972 LP  0  0  0  0  0  0  0  0  0  0  0  0  # atno 17320 bound_to 7965
  145.3400  141.0285  143.3397 LP  0  0  0  0  0  0  0  0  0  0  0  0  # atno 17321 bound_to 7965
  140.6219  143.2177  151.6676 LP  0  0  0  0  0  0  0  0  0  0  0  0  # atno 17342 bound_to 10162
  139.5126  144.3469  152.0688 LP  0  0  0  0  0  0  0  0  0  0  0  0  # atno 17343 bound_to 10162
  157.3243  131.0687  151.1909 LP  0  0  0  0  0  0  0  0  0  0  0  0  # atno 17370 bound_to 10713
  157.2811  130.6750  149.6066 LP  0  0  0  0  0  0  0  0  0  0  0  0  # atno 17371 bound_to 10713
  139.8710  134.9762  156.4914 LP  0  0  0  0  0  0  0  0  0  0  0  0  # atno 17394 bound_to 11000
  140.8602  133.8065  155.9257 LP  0  0  0  0  0  0  0  0  0  0  0  0  # atno 17395 bound_to 11000

$$$$
