AV-unprocessed.smi:1859|AV-procd|sdf|7545|dock2
  -GOLD-   22720 9263D 1   1.00000     0.00000
 Structure written by MMmdl.
 46 48  0  0  0  0  0  0  0  0  2 V2000
  153.6192  138.8812  158.0958 O   0  0  0  0  0  0  0  0  0  0  0  0
  152.6095  139.5626  158.2765 C   0  0  0  0  0  0  0  0  0  0  0  0
  152.4873  140.4377  159.2871 N   0  0  0  0  0  0  0  0  0  0  0  0
  153.5171  140.7093  160.2834 C   0  0  0  0  0  0  0  0  0  0  0  0
  154.1836  142.0774  160.0578 C   0  0  0  0  0  0  0  0  0  0  0  0
  153.1724  143.1623  159.7441 C   0  0  0  0  0  0  0  0  0  0  0  0
  152.9269  143.5965  158.4233 C   0  0  0  0  0  0  0  0  0  0  0  0
  151.9667  144.6043  158.1963 C   0  0  0  0  0  0  0  0  0  0  0  0
  151.2725  145.1554  159.2934 C   0  0  0  0  0  0  0  0  0  0  0  0
  151.5550  144.6824  160.5912 C   0  0  0  0  0  0  0  0  0  0  0  0
  152.4814  143.7146  160.7677 N   0  3  0  0  0  0  0  0  0  0  0  0
  151.4123  139.4396  157.3251 C   0  0  2  0  0  0  0  0  0  0  0  0
  151.7260  138.4735  156.1583 C   0  0  0  0  0  0  0  0  0  0  0  0
  150.5901  138.4461  155.1170 C   0  0  0  0  0  0  0  0  0  0  0  0
  150.2133  139.8733  154.6821 C   0  0  0  0  0  0  0  0  0  0  0  0
  149.8469  140.6479  155.8765 N   0  0  0  0  0  0  0  0  0  0  0  0
  148.6014  141.0783  156.1991 C   0  0  0  0  0  0  0  0  0  0  0  0
  148.3795  141.7411  157.2136 O   0  0  0  0  0  0  0  0  0  0  0  0
  147.4841  140.6939  155.2773 C   0  0  0  0  0  0  0  0  0  0  0  0
  146.7456  141.8227  154.5895 C   0  0  0  0  0  0  0  0  0  0  0  0
  146.0628  141.0426  155.6819 C   0  0  0  0  0  0  0  0  0  0  0  0
  150.9988  140.8227  156.7711 C   0  0  0  0  0  0  0  0  0  0  0  0
  151.6257  140.9593  159.3619 H   0  0  0  0  0  0  0  0  0  0  0  0
  153.0829  140.6568  161.2833 H   0  0  0  0  0  0  0  0  0  0  0  0
  154.2627  139.9159  160.2270 H   0  0  0  0  0  0  0  0  0  0  0  0
  154.7541  142.3664  160.9417 H   0  0  0  0  0  0  0  0  0  0  0  0
  154.8992  142.0215  159.2364 H   0  0  0  0  0  0  0  0  0  0  0  0
  153.4649  143.1618  157.5930 H   0  0  0  0  0  0  0  0  0  0  0  0
  151.7651  144.9497  157.1928 H   0  0  0  0  0  0  0  0  0  0  0  0
  150.5335  145.9286  159.1410 H   0  0  0  0  0  0  0  0  0  0  0  0
  151.0722  145.0461  161.4864 H   0  0  0  0  0  0  0  0  0  0  0  0
  150.5671  139.0344  157.8851 H   0  0  0  0  0  0  0  0  0  0  0  0
  152.6478  138.7803  155.6615 H   0  0  0  0  0  0  0  0  0  0  0  0
  151.9027  137.4662  156.5374 H   0  0  0  0  0  0  0  0  0  0  0  0
  150.8923  137.8563  154.2512 H   0  0  0  0  0  0  0  0  0  0  0  0
  149.7154  137.9509  155.5405 H   0  0  0  0  0  0  0  0  0  0  0  0
  151.0680  140.3483  154.1982 H   0  0  0  0  0  0  0  0  0  0  0  0
  149.4377  139.8450  153.9182 H   0  0  0  0  0  0  0  0  0  0  0  0
  147.6003  139.7578  154.7340 H   0  0  0  0  0  0  0  0  0  0  0  0
  147.0439  142.8450  154.8161 H   0  0  0  0  0  0  0  0  0  0  0  0
  146.4303  141.6516  153.5625 H   0  0  0  0  0  0  0  0  0  0  0  0
  145.2823  140.3410  155.3951 H   0  0  0  0  0  0  0  0  0  0  0  0
  145.8886  141.5598  156.6235 H   0  0  0  0  0  0  0  0  0  0  0  0
  150.7928  141.5099  157.5933 H   0  0  0  0  0  0  0  0  0  0  0  0
  151.8186  141.2754  156.2101 H   0  0  0  0  0  0  0  0  0  0  0  0
  152.6695  143.3875  161.7157 H   0  0  0  0  0  0  0  0  0  0  0  0
  1  2  2  0  0  0  0
  2  3  1  0  0  0  0
  2 12  1  0  0  0  0
  3  4  1  0  0  0  0
  3 23  1  0  0  0  0
  4  5  1  0  0  0  0
  4 24  1  0  0  0  0
  4 25  1  0  0  0  0
  5  6  1  0  0  0  0
  5 26  1  0  0  0  0
  5 27  1  0  0  0  0
  6 11  1  0  0  0  0
  6  7  2  0  0  0  0
  7  8  1  0  0  0  0
  7 28  1  0  0  0  0
  8  9  2  0  0  0  0
  8 29  1  0  0  0  0
  9 10  1  0  0  0  0
  9 30  1  0  0  0  0
 10 11  2  0  0  0  0
 10 31  1  0  0  0  0
 11 46  1  0  0  0  0
 12 22  1  0  0  0  0
 12 13  1  0  0  0  0
 12 32  1  0  0  0  0
 13 14  1  0  0  0  0
 13 33  1  0  0  0  0
 13 34  1  0  0  0  0
 14 15  1  0  0  0  0
 14 35  1  0  0  0  0
 14 36  1  0  0  0  0
 15 16  1  0  0  0  0
 15 37  1  0  0  0  0
 15 38  1  0  0  0  0
 16 17  1  0  0  0  0
 16 22  1  0  0  0  0
 17 18  2  0  0  0  0
 17 19  1  0  0  0  0
 19 21  1  0  0  0  0
 19 20  1  0  0  0  0
 19 39  1  0  0  0  0
 20 21  1  0  0  0  0
 20 40  1  0  0  0  0
 20 41  1  0  0  0  0
 21 42  1  0  0  0  0
 21 43  1  0  0  0  0
 22 44  1  0  0  0  0
 22 45  1  0  0  0  0
M  CHG  1  11   1
M  END
> <s_m_source_file>
AV-unprocessed.smi

> <i_m_source_file_index>
1859

> <i_lp_mmshare_version>
43012

> <i_f3d_flags>
0

> <s_epik_input>
W0NIMl0xW0NIMl1bQ0hdMUMoPU8pTihbQ0gyXTIpW0NIMl1bQ0gyXVtDSDJdW0NASF0yQyg9TylbTkhdW0NIMl1bQ0gyXWMzW2NIXVtjSF1bY0hdW2NIXW4z

> <s_epik_cmdline>
J2VwaWtfcHl0aG9uJywgJy1waCcsICc3LjAnLCAnLXRuJywgJzgnLCAnLW1hJywgJzIwMCcsICctbWV0YWxfYmluZGluZycsICctaW1hZScsICc8aW5maWxlLm1hZT4nLCAnLW9tYWUnLCAnPG91dGZpbGUubWFlPic=

> <r_epik_Ionization_Penalty>
1.84754

> <r_epik_Ionization_Penalty_Charging>
1.84754

> <r_epik_Ionization_Penalty_Neutral>
7.35743e-08

> <r_epik_State_Penalty>
1.96477

> <r_epik_Charging_Adjusted_Penalty>
3.81231

> <i_epik_Tot_Q>
1

> <i_epik_Tot_abs_Q>
1

> <r_epik_Metal_State_Penalty>
1.99062

> <b_epik_Metal_Only>
0

> <s_lp_Force_Field>
OPLS_2005

> <r_lp_Energy>
35.3834

> <b_lp_Chiralities_Consistent>
1

> <s_lp_Variant>
AV-unprocessed.smi:1859-3

> <Gold.Version>
5.8.1

> <Gold.Id.Protein>
6NUR|6NUR_protein|mol2

> <Gold.PLP.Fitness>
49.9828

> <Gold.PLP.PLP>
-47.9128

> <Gold.PLP.part.hbond>
-1.0000

> <Gold.PLP.part.metal>
0.0000

> <Gold.PLP.part.buried>
-3.5289

> <Gold.PLP.part.nonpolar>
-44.8231

> <Gold.PLP.part.repulsive>
1.1958

> <Gold.PLP.ligand.clash>
0.0000

> <Gold.PLP.ligand.torsion>
0.5250

> <Gold.PLP.Chemscore.Hbond>
1.0000

> <Gold.PLP.Chemscore.CHOScore>
0.0000

> <Gold.PLP.Chemscore.Metal>
0.0000

> <Gold.Chemscore.Hbonds>
donor molecule, donor type, donor heavy atom, donor atom, acceptor molecule, acceptor atom, score
      P1  H  7997  8009       L1     1  1.00

> <Gold.PLP.Chemscore.Internal.Correction>
0.1200

> <Gold.Rescore>
     Score         DG    S(hbond)    S(metal)    S(lipo)     H(rot)  DE(clash)    DE(int)     intcor
     17.06     -19.07       0.87        0.00     128.55       1.70       1.41       0.60       ----

> <Gold.Chemscore.Fitness>
17.0604

> <Gold.Chemscore.DG>
-19.0721

> <Gold.Chemscore.ZeroCoef>
-5.4800

> <Gold.Chemscore.Hbond>
0.8678

> <Gold.Chemscore.Metal>
0.0000

> <Gold.Chemscore.Lipo>
128.5532

> <Gold.Chemscore.Internal_Hbond>
0.0000

> <Gold.Chemscore.DEClash>
1.4125

> <Gold.Chemscore.DEInternal>
0.5992

> <Gold.Chemscore.Rot>
1.6980

> <Gold.Chemscore.Internal.Correction>
   9.000000E+99

> <Gold.Chemscore.Hbonds>
donor molecule, donor type, donor heavy atom, donor atom, acceptor molecule, acceptor atom, score
      P1  H  7997  8009       L1     1  0.40

> <Gold.Chemscore.Hbond.Weighted>
-2.8983

> <Gold.Chemscore.Metal.Weighted>
-0.0000

> <Gold.Chemscore.Lipo.Weighted>
-15.0407

> <Gold.Chemscore.Internal_Hbond.Weighted>
0.0000

> <Gold.Chemscore.DEClash.Weighted>
1.4125

> <Gold.Chemscore.DEInternal.Weighted>
0.5992

> <Gold.Chemscore.Rot.Weighted>
4.3469

> <Gold.Chemscore.Internal.Correction.Weighted>
   9.000000E+99

> <Gold.Protein.RotatedTorsions>
[ 6907 6896 6895 6894 ] final   23.19 input  -60.11 | X-H torsion
[ 7974 7965 7964 7962 ] final   93.51 input  175.53 | X-H torsion
[ 8008 7997 7996 7995 ] final  144.19 input   59.86 | X-H torsion
[ 10167 10162 10161 10158 ] final  -68.98 input  -65.29 | X-H torsion
[ 10718 10713 10712 10709 ] final  173.59 input   66.30 | X-H torsion
[ 10763 10752 10751 10750 ] final  -63.12 input  -60.55 | X-H torsion
[ 11005 11000 10999 10996 ] final  -73.95 input  -57.11 | X-H torsion

> <Gold.Protein.ActiveResidues>
 VAL166  LYS551  ARG553  GLY616  TRP617  ASP618  TYR619  PRO620  LYS621  CYS622 
 ASP623  PHE694  ASN695  SER759  ASP760  ASP761  ALA762  ILE779  LEU786  VAL792 
 PHE793  MET794  SER795  GLU796  ALA797  LYS798  CYS799  TRP800  GLU811  SER814 

> <Gold.Protein.RotatedAtoms>
  151.9386  135.0223  160.0534 H   0  0  0  0  0  0  0  0  0  0  0  0  # atno 6907 bound_to 6896
  152.2056  133.4868  159.5090 H   0  0  0  0  0  0  0  0  0  0  0  0  # atno 6908 bound_to 6896
  150.6964  134.1451  159.4162 H   0  0  0  0  0  0  0  0  0  0  0  0  # atno 6909 bound_to 6896
  145.4780  139.2279  143.2898 H   0  0  0  0  0  0  0  0  0  0  0  0  # atno 7974 bound_to 7965
  156.2914  140.2242  156.5012 H   0  0  0  0  0  0  0  0  0  0  0  0  # atno 8008 bound_to 7997
  154.7688  140.0468  157.1055 H   0  0  0  0  0  0  0  0  0  0  0  0  # atno 8009 bound_to 7997
  154.9900  140.3089  155.4913 H   0  0  0  0  0  0  0  0  0  0  0  0  # atno 8010 bound_to 7997
  140.5466  143.2313  151.6990 H   0  0  0  0  0  0  0  0  0  0  0  0  # atno 10167 bound_to 10162
  156.9621  131.0064  151.2925 H   0  0  0  0  0  0  0  0  0  0  0  0  # atno 10718 bound_to 10713
  154.3102  135.6217  153.5462 H   0  0  0  0  0  0  0  0  0  0  0  0  # atno 10763 bound_to 10752
  152.9830  135.5699  154.5185 H   0  0  0  0  0  0  0  0  0  0  0  0  # atno 10764 bound_to 10752
  154.4833  135.2864  155.1530 H   0  0  0  0  0  0  0  0  0  0  0  0  # atno 10765 bound_to 10752
  141.1629  133.6895  156.7289 H   0  0  0  0  0  0  0  0  0  0  0  0  # atno 11005 bound_to 11000
  146.2358  140.5564  142.8955 LP  0  0  0  0  0  0  0  0  0  0  0  0  # atno 17320 bound_to 7965
  144.7906  140.6023  143.6544 LP  0  0  0  0  0  0  0  0  0  0  0  0  # atno 17321 bound_to 7965
  139.5010  144.3885  152.0304 LP  0  0  0  0  0  0  0  0  0  0  0  0  # atno 17342 bound_to 10162
  140.2998  144.3659  150.6063 LP  0  0  0  0  0  0  0  0  0  0  0  0  # atno 17343 bound_to 10162
  157.5650  130.8272  149.8316 LP  0  0  0  0  0  0  0  0  0  0  0  0  # atno 17370 bound_to 10713
  156.0318  130.3762  150.1668 LP  0  0  0  0  0  0  0  0  0  0  0  0  # atno 17371 bound_to 10713
  140.2760  134.8355  157.3890 LP  0  0  0  0  0  0  0  0  0  0  0  0  # atno 17394 bound_to 11000
  140.1477  134.4889  155.7984 LP  0  0  0  0  0  0  0  0  0  0  0  0  # atno 17395 bound_to 11000

$$$$
