AV-unprocessed.smi:34|AV-procd|sdf|227|dock5
  -GOLD-   2262015553D 1   1.00000     0.00000
 Structure written by MMmdl.
 55 59  0  0  0  0  0  0  0  0  1 V2000
  141.6108  135.3736  154.2937 O   0  0  0  0  0  0  0  0  0  0  0  0
  141.4833  136.5945  154.1945 C   0  0  0  0  0  0  0  0  0  0  0  0
  142.6248  137.4920  154.1886 N   0  0  0  0  0  0  0  0  0  0  0  0
  143.9392  137.1691  154.1834 C   0  0  0  0  0  0  0  0  0  0  0  0
  144.4013  136.0076  153.6494 N   0  0  0  0  0  0  0  0  0  0  0  0
  145.7094  135.7349  153.6597 C   0  0  0  0  0  0  0  0  0  0  0  0
  146.7120  136.4735  154.1407 N   0  0  0  0  0  0  0  0  0  0  0  0
  146.2547  137.6441  154.6723 C   0  0  0  0  0  0  0  0  0  0  0  0
  144.8967  138.0620  154.7310 C   0  0  0  0  0  0  0  0  0  0  0  0
  144.8156  139.3068  155.3417 N   0  0  0  0  0  0  0  0  0  0  0  0
  146.0562  139.6017  155.6254 C   0  0  0  0  0  0  0  0  0  0  0  0
  146.9891  138.6577  155.2486 N   0  0  0  0  0  0  0  0  0  0  0  0
  148.4794  138.6685  155.4175 C   0  0  2  0  0  0  0  0  0  0  0  0
  148.7980  139.6520  156.3590 O   0  0  0  0  0  0  0  0  0  0  0  0
  149.4021  140.7897  155.7357 C   0  0  1  0  0  0  0  0  0  0  0  0
  150.8683  140.8458  156.1890 C   0  0  0  0  0  0  0  0  0  0  0  0
  150.9382  141.4139  157.4869 O   0  0  0  0  0  0  0  0  0  0  0  0
  152.0129  141.1899  158.2679 C   0  0  0  0  0  0  0  0  0  0  0  0
  152.8411  140.3029  158.0517 O   0  0  0  0  0  0  0  0  0  0  0  0
  152.0994  142.1348  159.4186 C   0  0  0  0  0  0  0  0  0  0  0  0
  151.3696  143.3458  159.3775 C   0  0  0  0  0  0  0  0  0  0  0  0
  151.4291  144.2562  160.4505 C   0  0  0  0  0  0  0  0  0  0  0  0
  152.2199  143.9670  161.5777 C   0  0  0  0  0  0  0  0  0  0  0  0
  152.9510  142.7662  161.6308 C   0  0  0  0  0  0  0  0  0  0  0  0
  152.8922  141.8540  160.5590 C   0  0  0  0  0  0  0  0  0  0  0  0
  149.2476  140.5748  154.2250 C   0  0  2  0  0  0  0  0  0  0  0  0
  148.0976  141.1272  153.8324 F   0  0  0  0  0  0  0  0  0  0  0  0
  149.2024  139.0608  154.1199 C   0  0  2  0  0  0  0  0  0  0  0  0
  148.5997  138.6172  152.9183 O   0  0  0  0  0  0  0  0  0  0  0  0
  140.1317  137.2468  154.1705 C   0  0  0  0  0  0  0  0  0  0  0  0
  139.0234  136.5988  154.7612 C   0  0  0  0  0  0  0  0  0  0  0  0
  137.7477  137.1951  154.7278 C   0  0  0  0  0  0  0  0  0  0  0  0
  137.5679  138.4402  154.0964 C   0  0  0  0  0  0  0  0  0  0  0  0
  138.6639  139.0871  153.4948 C   0  0  0  0  0  0  0  0  0  0  0  0
  139.9405  138.4921  153.5282 C   0  0  0  0  0  0  0  0  0  0  0  0
  142.4115  138.4786  154.1786 H   0  0  0  0  0  0  0  0  0  0  0  0
  145.9924  134.7906  153.2183 H   0  0  0  0  0  0  0  0  0  0  0  0
  146.3226  140.5251  156.1189 H   0  0  0  0  0  0  0  0  0  0  0  0
  148.7230  137.6694  155.7807 H   0  0  0  0  0  0  0  0  0  0  0  0
  148.8891  141.6962  156.0598 H   0  0  0  0  0  0  0  0  0  0  0  0
  151.2903  139.8406  156.2198 H   0  0  0  0  0  0  0  0  0  0  0  0
  151.4599  141.4266  155.4800 H   0  0  0  0  0  0  0  0  0  0  0  0
  150.7544  143.5889  158.5230 H   0  0  0  0  0  0  0  0  0  0  0  0
  150.8670  145.1774  160.4084 H   0  0  0  0  0  0  0  0  0  0  0  0
  152.2658  144.6653  162.4004 H   0  0  0  0  0  0  0  0  0  0  0  0
  153.5586  142.5432  162.4953 H   0  0  0  0  0  0  0  0  0  0  0  0
  153.4664  140.9422  160.6324 H   0  0  0  0  0  0  0  0  0  0  0  0
  150.0413  141.0264  153.6291 H   0  0  0  0  0  0  0  0  0  0  0  0
  150.2159  138.6615  154.1747 H   0  0  0  0  0  0  0  0  0  0  0  0
  148.9658  137.7758  152.6913 H   0  0  0  0  0  0  0  0  0  0  0  0
  139.1448  135.6420  155.2484 H   0  0  0  0  0  0  0  0  0  0  0  0
  136.9068  136.6958  155.1860 H   0  0  0  0  0  0  0  0  0  0  0  0
  136.5895  138.8968  154.0700 H   0  0  0  0  0  0  0  0  0  0  0  0
  138.5250  140.0395  153.0044 H   0  0  0  0  0  0  0  0  0  0  0  0
  140.7661  139.0011  153.0523 H   0  0  0  0  0  0  0  0  0  0  0  0
  1  2  2  0  0  0  0
  2  3  1  0  0  0  0
  2 30  1  0  0  0  0
  3  4  1  0  0  0  0
  3 36  1  0  0  0  0
  4  9  1  0  0  0  0
  4  5  2  0  0  0  0
  5  6  1  0  0  0  0
  6  7  2  0  0  0  0
  6 37  1  0  0  0  0
  7  8  1  0  0  0  0
  8 12  1  0  0  0  0
  8  9  2  0  0  0  0
  9 10  1  0  0  0  0
 10 11  2  0  0  0  0
 11 12  1  0  0  0  0
 11 38  1  0  0  0  0
 12 13  1  0  0  0  0
 13 28  1  0  0  0  0
 13 14  1  0  0  0  0
 13 39  1  0  0  0  0
 14 15  1  0  0  0  0
 15 16  1  0  0  0  0
 15 26  1  0  0  0  0
 15 40  1  0  0  0  0
 16 17  1  0  0  0  0
 16 41  1  0  0  0  0
 16 42  1  0  0  0  0
 17 18  1  0  0  0  0
 18 19  2  0  0  0  0
 18 20  1  0  0  0  0
 20 25  1  0  0  0  0
 20 21  2  0  0  0  0
 21 22  1  0  0  0  0
 21 43  1  0  0  0  0
 22 23  2  0  0  0  0
 22 44  1  0  0  0  0
 23 24  1  0  0  0  0
 23 45  1  0  0  0  0
 24 25  2  0  0  0  0
 24 46  1  0  0  0  0
 25 47  1  0  0  0  0
 26 27  1  0  0  0  0
 26 28  1  0  0  0  0
 26 48  1  0  0  0  0
 28 29  1  0  0  0  0
 28 49  1  0  0  0  0
 29 50  1  0  0  0  0
 30 35  1  0  0  0  0
 30 31  2  0  0  0  0
 31 32  1  0  0  0  0
 31 51  1  0  0  0  0
 32 33  2  0  0  0  0
 32 52  1  0  0  0  0
 33 34  1  0  0  0  0
 33 53  1  0  0  0  0
 34 35  2  0  0  0  0
 34 54  1  0  0  0  0
 35 55  1  0  0  0  0
M  END
> <s_m_source_file>
AV-unprocessed.smi

> <i_m_source_file_index>
34

> <i_lp_mmshare_version>
43012

> <i_f3d_flags>
0

> <s_epik_input>
W2NIXTFbY0hdW2NIXVtjSF1bY0hdYzFDKD1PKVtOSF1jKG5bY0hdbjIpYyhjMjMpbltjSF1uM1tDQEBIXTRPW0NASF0oW0NAQEhdKEYpW0NASF00W09IXSlbQ0gyXU9DKD1PKWM1W2NIXVtjSF1bY0hdW2NIXVtjSF01

> <s_epik_cmdline>
J2VwaWtfcHl0aG9uJywgJy1waCcsICc3LjAnLCAnLXRuJywgJzgnLCAnLW1hJywgJzIwMCcsICctbWV0YWxfYmluZGluZycsICctaW1hZScsICc8aW5maWxlLm1hZT4nLCAnLW9tYWUnLCAnPG91dGZpbGUubWFlPic=

> <r_lp_tautomer_probability>
1

> <r_epik_Ionization_Penalty>
0.00257489

> <r_epik_Ionization_Penalty_Charging>
0

> <r_epik_Ionization_Penalty_Neutral>
0.00257489

> <r_epik_State_Penalty>
0.00519398

> <r_epik_Charging_Adjusted_Penalty>
0.00519398

> <i_epik_Tot_Q>
0

> <i_epik_Tot_abs_Q>
0

> <r_epik_Metal_State_Penalty>
0.335891

> <b_epik_Metal_Only>
0

> <s_epik_Chemistry_Notes>
This compound has an ester and may undergo hydrolysis at high or low pH. This compound contains an acetal/aminal-like group ( X-CH(R)-Y where X, Y are N, S, or O) that may be acid/base labile, releasing an aldehyde.

> <s_lp_Force_Field>
OPLS_2005

> <r_lp_Energy>
52.3338

> <b_lp_Chiralities_Consistent>
1

> <s_lp_Variant>
AV-unprocessed.smi:34-13

> <Gold.Version>
5.8.1

> <Gold.Id.Protein>
6NUR|6NUR_protein|mol2

> <Gold.PLP.Fitness>
61.3437

> <Gold.PLP.PLP>
-56.4783

> <Gold.PLP.part.hbond>
-3.6460

> <Gold.PLP.part.metal>
0.0000

> <Gold.PLP.part.buried>
-6.1578

> <Gold.PLP.part.nonpolar>
-46.9253

> <Gold.PLP.part.repulsive>
0.3835

> <Gold.PLP.ligand.clash>
0.0000

> <Gold.PLP.ligand.torsion>
1.5806

> <Gold.PLP.Chemscore.Hbond>
2.2511

> <Gold.PLP.Chemscore.CHOScore>
0.0000

> <Gold.PLP.Chemscore.Metal>
0.0000

> <Gold.Chemscore.Hbonds>
donor molecule, donor type, donor heavy atom, donor atom, acceptor molecule, acceptor atom, score
      L1  H    29    50       P1  7948  1.00
      P1  H  7997  8009       L1    19  0.86
      P1  H 11000 11005       L1     1  0.46

> <Gold.PLP.Chemscore.Internal.Correction>
1.2733

> <Gold.Rescore>
     Score         DG    S(hbond)    S(metal)    S(lipo)     H(rot)  DE(clash)    DE(int)     intcor
     18.50     -22.19       2.43        0.00     132.88       2.72       0.10       3.59       ----

> <Gold.Chemscore.Fitness>
18.5016

> <Gold.Chemscore.DG>
-22.1894

> <Gold.Chemscore.ZeroCoef>
-5.4800

> <Gold.Chemscore.Hbond>
2.4339

> <Gold.Chemscore.Metal>
0.0000

> <Gold.Chemscore.Lipo>
132.8815

> <Gold.Chemscore.Internal_Hbond>
0.0000

> <Gold.Chemscore.DEClash>
0.1022

> <Gold.Chemscore.DEInternal>
3.5855

> <Gold.Chemscore.Rot>
2.7215

> <Gold.Chemscore.Internal.Correction>
   9.000000E+99

> <Gold.Chemscore.Hbonds>
donor molecule, donor type, donor heavy atom, donor atom, acceptor molecule, acceptor atom, score
      L1  H    29    50       P1  7948  0.97
      P1  H  7997  8009       L1    19  0.79
      P1  H 11000 11005       L1     1  0.44

> <Gold.Chemscore.Hbond.Weighted>
-8.1293

> <Gold.Chemscore.Metal.Weighted>
-0.0000

> <Gold.Chemscore.Lipo.Weighted>
-15.5471

> <Gold.Chemscore.Internal_Hbond.Weighted>
0.0000

> <Gold.Chemscore.DEClash.Weighted>
0.1022

> <Gold.Chemscore.DEInternal.Weighted>
3.5855

> <Gold.Chemscore.Rot.Weighted>
6.9670

> <Gold.Chemscore.Internal.Correction.Weighted>
   9.000000E+99

> <Gold.Protein.RotatedTorsions>
[ 6907 6896 6895 6894 ] final  -59.48 input  -60.11 | X-H torsion
[ 7974 7965 7964 7962 ] final    3.32 input  175.53 | X-H torsion
[ 8008 7997 7996 7995 ] final  153.28 input   59.86 | X-H torsion
[ 10167 10162 10161 10158 ] final   71.23 input  -65.29 | X-H torsion
[ 10718 10713 10712 10709 ] final -117.36 input   66.30 | X-H torsion
[ 10763 10752 10751 10750 ] final  106.51 input  -60.55 | X-H torsion
[ 11005 11000 10999 10996 ] final   25.02 input  -57.11 | X-H torsion

> <Gold.Protein.ActiveResidues>
 VAL166  LYS551  ARG553  GLY616  TRP617  ASP618  TYR619  PRO620  LYS621  CYS622 
 ASP623  PHE694  ASN695  SER759  ASP760  ASP761  ALA762  ILE779  LEU786  VAL792 
 PHE793  MET794  SER795  GLU796  ALA797  LYS798  CYS799  TRP800  GLU811  SER814 

> <Gold.Protein.RotatedAtoms>
  150.7927  134.6963  159.6524 H   0  0  0  0  0  0  0  0  0  0  0  0  # atno 6907 bound_to 6896
  152.4035  134.6243  160.0069 H   0  0  0  0  0  0  0  0  0  0  0  0  # atno 6908 bound_to 6896
  151.6508  133.3284  159.3187 H   0  0  0  0  0  0  0  0  0  0  0  0  # atno 6909 bound_to 6896
  146.2445  140.0704  142.8363 H   0  0  0  0  0  0  0  0  0  0  0  0  # atno 7974 bound_to 7965
  156.2589  140.1998  156.6465 H   0  0  0  0  0  0  0  0  0  0  0  0  # atno 8008 bound_to 7997
  154.6569  140.0565  157.0044 H   0  0  0  0  0  0  0  0  0  0  0  0  # atno 8009 bound_to 7997
  155.1334  140.3236  155.4471 H   0  0  0  0  0  0  0  0  0  0  0  0  # atno 8010 bound_to 7997
  140.0484  144.5332  150.7382 H   0  0  0  0  0  0  0  0  0  0  0  0  # atno 10167 bound_to 10162
  156.1028  130.6186  150.9153 H   0  0  0  0  0  0  0  0  0  0  0  0  # atno 10718 bound_to 10713
  153.3940  135.3874  155.1942 H   0  0  0  0  0  0  0  0  0  0  0  0  # atno 10763 bound_to 10752
  154.8722  135.3755  154.4702 H   0  0  0  0  0  0  0  0  0  0  0  0  # atno 10764 bound_to 10752
  153.5191  135.7087  153.5802 H   0  0  0  0  0  0  0  0  0  0  0  0  # atno 10765 bound_to 10752
  140.3524  134.2214  155.7679 H   0  0  0  0  0  0  0  0  0  0  0  0  # atno 11005 bound_to 11000
  145.0821  140.9228  143.4819 LP  0  0  0  0  0  0  0  0  0  0  0  0  # atno 17320 bound_to 7965
  145.0859  139.2925  143.5760 LP  0  0  0  0  0  0  0  0  0  0  0  0  # atno 17321 bound_to 7965
  140.7228  143.2606  151.4221 LP  0  0  0  0  0  0  0  0  0  0  0  0  # atno 17342 bound_to 10162
  139.5969  144.1379  152.2154 LP  0  0  0  0  0  0  0  0  0  0  0  0  # atno 17343 bound_to 10162
  157.6201  131.0930  150.8639 LP  0  0  0  0  0  0  0  0  0  0  0  0  # atno 17370 bound_to 10713
  156.8763  130.5164  149.5293 LP  0  0  0  0  0  0  0  0  0  0  0  0  # atno 17371 bound_to 10713
  141.2008  133.7978  157.0470 LP  0  0  0  0  0  0  0  0  0  0  0  0  # atno 17394 bound_to 11000
  140.0692  134.9711  157.1439 LP  0  0  0  0  0  0  0  0  0  0  0  0  # atno 17395 bound_to 11000

$$$$
