AV-unprocessed.smi:2350|AV-procd|sdf|9373|dock2
  -GOLD-   2272013 03D 1   1.00000     0.00000
 Structure written by MMmdl.
 30 31  0  0  0  0  0  0  0  0  1 V2000
  153.1126  144.7056  157.9036 C   0  0  0  0  0  0  0  0  0  0  0  0
  151.8004  144.2363  158.5412 C   0  0  0  0  0  0  0  0  0  0  0  0
  150.9375  143.6284  157.5252 N   0  0  0  0  0  0  0  0  0  0  0  0
  150.8880  142.3276  157.1960 C   0  0  0  0  0  0  0  0  0  0  0  0
  151.5761  141.4620  157.7369 O   0  0  0  0  0  0  0  0  0  0  0  0
  149.9859  142.1098  156.2238 N   0  0  0  0  0  0  0  0  0  0  0  0
  149.6477  140.8895  155.5769 C   0  0  0  0  0  0  0  0  0  0  0  0
  150.4595  139.7291  155.5922 C   0  0  0  0  0  0  0  0  0  0  0  0
  150.0187  138.5880  154.8919 C   0  0  0  0  0  0  0  0  0  0  0  0
  148.8622  138.5413  154.1975 N   0  0  0  0  0  0  0  0  0  0  0  0
  148.0972  139.6531  154.1746 C   0  0  0  0  0  0  0  0  0  0  0  0
  148.4456  140.8463  154.8389 C   0  0  0  0  0  0  0  0  0  0  0  0
  147.6342  141.9295  154.7690 F   0  0  0  0  0  0  0  0  0  0  0  0
  151.8911  143.3211  159.7770 C   0  0  0  0  0  0  0  0  0  0  0  0
  151.7354  144.5700  160.6496 C   0  0  0  0  0  0  0  0  0  0  0  0
  151.0289  145.2137  159.4541 C   0  0  0  0  0  0  0  0  0  0  0  0
  153.8102  145.0801  158.6530 H   0  0  0  0  0  0  0  0  0  0  0  0
  152.9483  145.5125  157.1892 H   0  0  0  0  0  0  0  0  0  0  0  0
  153.6120  143.8932  157.3750 H   0  0  0  0  0  0  0  0  0  0  0  0
  150.3280  144.2589  157.0251 H   0  0  0  0  0  0  0  0  0  0  0  0
  149.4382  142.9093  155.9410 H   0  0  0  0  0  0  0  0  0  0  0  0
  151.4061  139.6930  156.1089 H   0  0  0  0  0  0  0  0  0  0  0  0
  150.6166  137.6888  154.8848 H   0  0  0  0  0  0  0  0  0  0  0  0
  147.1802  139.5910  153.6074 H   0  0  0  0  0  0  0  0  0  0  0  0
  151.0483  142.6343  159.8810 H   0  0  0  0  0  0  0  0  0  0  0  0
  152.8434  142.8032  159.8958 H   0  0  0  0  0  0  0  0  0  0  0  0
  151.1104  144.4373  161.5329 H   0  0  0  0  0  0  0  0  0  0  0  0
  152.6870  145.0461  160.8911 H   0  0  0  0  0  0  0  0  0  0  0  0
  151.2669  146.2668  159.3007 H   0  0  0  0  0  0  0  0  0  0  0  0
  149.9497  145.0468  159.4704 H   0  0  0  0  0  0  0  0  0  0  0  0
  1  2  1  0  0  0  0
  1 17  1  0  0  0  0
  1 18  1  0  0  0  0
  1 19  1  0  0  0  0
  2 16  1  0  0  0  0
  2  3  1  0  0  0  0
  2 14  1  0  0  0  0
  3  4  1  0  0  0  0
  3 20  1  0  0  0  0
  4  5  2  0  0  0  0
  4  6  1  0  0  0  0
  6  7  1  0  0  0  0
  6 21  1  0  0  0  0
  7 12  1  0  0  0  0
  7  8  2  0  0  0  0
  8  9  1  0  0  0  0
  8 22  1  0  0  0  0
  9 10  2  0  0  0  0
  9 23  1  0  0  0  0
 10 11  1  0  0  0  0
 11 12  2  0  0  0  0
 11 24  1  0  0  0  0
 12 13  1  0  0  0  0
 14 15  1  0  0  0  0
 14 25  1  0  0  0  0
 14 26  1  0  0  0  0
 15 16  1  0  0  0  0
 15 27  1  0  0  0  0
 15 28  1  0  0  0  0
 16 29  1  0  0  0  0
 16 30  1  0  0  0  0
M  END
> <s_m_source_file>
AV-unprocessed.smi

> <i_m_source_file_index>
2350

> <i_lp_mmshare_version>
43012

> <i_f3d_flags>
0

> <s_epik_input>
W0NIMl0xW0NIMl1bQ0gyXUMxKFtDSDNdKVtOSF1DKD1PKVtOSF1jMltjSF1bY0hdbltjSF1jMkY=

> <s_epik_cmdline>
J2VwaWtfcHl0aG9uJywgJy1waCcsICc3LjAnLCAnLXRuJywgJzgnLCAnLW1hJywgJzIwMCcsICctbWV0YWxfYmluZGluZycsICctaW1hZScsICc8aW5maWxlLm1hZT4nLCAnLW9tYWUnLCAnPG91dGZpbGUubWFlPic=

> <r_epik_Ionization_Penalty>
0.00347391

> <r_epik_Ionization_Penalty_Charging>
0

> <r_epik_Ionization_Penalty_Neutral>
0.00347391

> <r_epik_State_Penalty>
0.00243273

> <r_epik_Charging_Adjusted_Penalty>
0.00243273

> <i_epik_Tot_Q>
0

> <i_epik_Tot_abs_Q>
0

> <r_epik_Metal_State_Penalty>
-0

> <b_epik_Metal_Only>
0

> <s_lp_Force_Field>
OPLS_2005

> <r_lp_Energy>
20.3652

> <b_lp_Chiralities_Consistent>
1

> <s_lp_Variant>
AV-unprocessed.smi:2350-1

> <Gold.Version>
5.8.1

> <Gold.Id.Protein>
6NUR|6NUR_protein|mol2

> <Gold.PLP.Fitness>
43.3740

> <Gold.PLP.PLP>
-38.0267

> <Gold.PLP.part.hbond>
-2.0000

> <Gold.PLP.part.metal>
0.0000

> <Gold.PLP.part.buried>
-3.1276

> <Gold.PLP.part.nonpolar>
-33.6641

> <Gold.PLP.part.repulsive>
1.3272

> <Gold.PLP.ligand.clash>
0.0000

> <Gold.PLP.ligand.torsion>
0.4749

> <Gold.PLP.Chemscore.Hbond>
2.0000

> <Gold.PLP.Chemscore.CHOScore>
0.0000

> <Gold.PLP.Chemscore.Metal>
0.0000

> <Gold.Chemscore.Hbonds>
donor molecule, donor type, donor heavy atom, donor atom, acceptor molecule, acceptor atom, score
      L1  H     3    20       P1  8028  1.00
      L1  H     6    21       P1  8028  1.00

> <Gold.PLP.Chemscore.Internal.Correction>
0.2971

> <Gold.Rescore>
     Score         DG    S(hbond)    S(metal)    S(lipo)     H(rot)  DE(clash)    DE(int)     intcor
     17.64     -20.27       1.92        0.00      93.63       1.00       0.52       2.11       ----

> <Gold.Chemscore.Fitness>
17.6387

> <Gold.Chemscore.DG>
-20.2723

> <Gold.Chemscore.ZeroCoef>
-5.4800

> <Gold.Chemscore.Hbond>
1.9156

> <Gold.Chemscore.Metal>
0.0000

> <Gold.Chemscore.Lipo>
93.6266

> <Gold.Chemscore.Internal_Hbond>
0.0000

> <Gold.Chemscore.DEClash>
0.5196

> <Gold.Chemscore.DEInternal>
2.1141

> <Gold.Chemscore.Rot>
1.0000

> <Gold.Chemscore.Internal.Correction>
   9.000000E+99

> <Gold.Chemscore.Hbonds>
donor molecule, donor type, donor heavy atom, donor atom, acceptor molecule, acceptor atom, score
      L1  H     3    20       P1  8028  0.85
      L1  H     6    21       P1  8028  0.99

> <Gold.Chemscore.Hbond.Weighted>
-6.3980

> <Gold.Chemscore.Metal.Weighted>
-0.0000

> <Gold.Chemscore.Lipo.Weighted>
-10.9543

> <Gold.Chemscore.Internal_Hbond.Weighted>
0.0000

> <Gold.Chemscore.DEClash.Weighted>
0.5196

> <Gold.Chemscore.DEInternal.Weighted>
2.1141

> <Gold.Chemscore.Rot.Weighted>
2.5600

> <Gold.Chemscore.Internal.Correction.Weighted>
   9.000000E+99

> <Gold.Protein.RotatedTorsions>
[ 6907 6896 6895 6894 ] final -154.03 input  -60.11 | X-H torsion
[ 7974 7965 7964 7962 ] final   -9.96 input  175.53 | X-H torsion
[ 8008 7997 7996 7995 ] final  -98.88 input   59.86 | X-H torsion
[ 10167 10162 10161 10158 ] final  -76.87 input  -65.29 | X-H torsion
[ 10718 10713 10712 10709 ] final   64.94 input   66.30 | X-H torsion
[ 10763 10752 10751 10750 ] final -146.87 input  -60.55 | X-H torsion
[ 11005 11000 10999 10996 ] final   66.86 input  -57.11 | X-H torsion

> <Gold.Protein.ActiveResidues>
 VAL166  LYS551  ARG553  GLY616  TRP617  ASP618  TYR619  PRO620  LYS621  CYS622 
 ASP623  PHE694  ASN695  SER759  ASP760  ASP761  ALA762  ILE779  LEU786  VAL792 
 PHE793  MET794  SER795  GLU796  ALA797  LYS798  CYS799  TRP800  GLU811  SER814 

> <Gold.Protein.RotatedAtoms>
  151.2514  133.4348  159.2611 H   0  0  0  0  0  0  0  0  0  0  0  0  # atno 6907 bound_to 6896
  151.0614  134.9739  159.8272 H   0  0  0  0  0  0  0  0  0  0  0  0  # atno 6908 bound_to 6896
  152.5399  134.2464  159.8934 H   0  0  0  0  0  0  0  0  0  0  0  0  # atno 6909 bound_to 6896
  146.2235  140.2694  142.8356 H   0  0  0  0  0  0  0  0  0  0  0  0  # atno 7974 bound_to 7965
  154.8072  140.0452  157.1316 H   0  0  0  0  0  0  0  0  0  0  0  0  # atno 8008 bound_to 7997
  154.9410  140.3052  155.5101 H   0  0  0  0  0  0  0  0  0  0  0  0  # atno 8009 bound_to 7997
  156.2968  140.2305  156.4479 H   0  0  0  0  0  0  0  0  0  0  0  0  # atno 8010 bound_to 7997
  140.4819  143.2400  151.8044 H   0  0  0  0  0  0  0  0  0  0  0  0  # atno 10167 bound_to 10162
  157.6073  130.9187  149.9911 H   0  0  0  0  0  0  0  0  0  0  0  0  # atno 10718 bound_to 10713
  154.8314  135.3375  154.6730 H   0  0  0  0  0  0  0  0  0  0  0  0  # atno 10763 bound_to 10752
  153.7349  135.6949  153.4985 H   0  0  0  0  0  0  0  0  0  0  0  0  # atno 10764 bound_to 10752
  153.2285  135.4424  155.0521 H   0  0  0  0  0  0  0  0  0  0  0  0  # atno 10765 bound_to 10752
  139.9805  134.6751  156.0271 H   0  0  0  0  0  0  0  0  0  0  0  0  # atno 11005 bound_to 11000
  144.9279  140.7942  143.5707 LP  0  0  0  0  0  0  0  0  0  0  0  0  # atno 17320 bound_to 7965
  145.2635  139.1982  143.4879 LP  0  0  0  0  0  0  0  0  0  0  0  0  # atno 17321 bound_to 7965
  139.4835  144.4761  151.9365 LP  0  0  0  0  0  0  0  0  0  0  0  0  # atno 17342 bound_to 10162
  140.3847  144.2692  150.5905 LP  0  0  0  0  0  0  0  0  0  0  0  0  # atno 17343 bound_to 10162
  156.1163  130.3647  149.9962 LP  0  0  0  0  0  0  0  0  0  0  0  0  # atno 17370 bound_to 10713
  156.8051  130.9304  151.3645 LP  0  0  0  0  0  0  0  0  0  0  0  0  # atno 17371 bound_to 10713
  141.1478  133.6553  156.3920 LP  0  0  0  0  0  0  0  0  0  0  0  0  # atno 17394 bound_to 11000
  140.5105  134.6399  157.5282 LP  0  0  0  0  0  0  0  0  0  0  0  0  # atno 17395 bound_to 11000

$$$$
