AV-unprocessed.smi:1543|AV-procd|sdf|6208|dock10
  -GOLD-   22720 6383D 1   1.00000     0.00000
 Structure written by MMmdl.
 49 50  0  0  0  0  0  0  0  0  2 V2000
  151.9991  138.1395  154.2868 C   0  0  0  0  0  0  0  0  0  0  0  0
  150.8124  138.9003  154.8889 C   0  0  2  0  0  0  0  0  0  0  0  0
  149.4890  138.5549  154.1828 C   0  0  0  0  0  0  0  0  0  0  0  0
  148.3724  139.3671  154.7400 N   0  3  2  0  0  0  0  0  0  0  0  0
  146.9852  138.9663  154.3064 C   0  0  0  0  0  0  0  0  0  0  0  0
  145.9357  139.8824  154.9849 C   0  0  0  0  0  0  0  0  0  0  0  0
  146.8358  139.2024  152.7821 C   0  0  0  0  0  0  0  0  0  0  0  0
  146.6904  137.4780  154.6623 C   0  0  0  0  0  0  0  0  0  0  0  0
  146.9176  136.5548  153.5508 N   0  0  0  0  0  0  0  0  0  0  0  0
  145.9882  135.7694  152.9875 C   0  0  0  0  0  0  0  0  0  0  0  0
  144.8154  135.7334  153.3586 O   0  0  0  0  0  0  0  0  0  0  0  0
  146.5068  135.0536  151.9752 N   0  0  0  0  0  0  0  0  0  0  0  0
  145.8628  134.0952  151.1468 C   0  0  0  0  0  0  0  0  0  0  0  0
  144.4696  134.0656  150.8943 C   0  0  0  0  0  0  0  0  0  0  0  0
  143.9502  133.0497  150.0690 C   0  0  0  0  0  0  0  0  0  0  0  0
  144.8388  132.0978  149.5329 C   0  0  0  0  0  0  0  0  0  0  0  0
  146.1664  132.1061  149.7757 N   0  0  0  0  0  0  0  0  0  0  0  0
  146.6573  133.0826  150.5680 C   0  0  0  0  0  0  0  0  0  0  0  0
  148.7026  140.8142  154.6030 C   0  0  0  0  0  0  0  0  0  0  0  0
  150.0521  141.1436  155.2697 C   0  0  1  0  0  0  0  0  0  0  0  0
  149.9973  141.1327  156.8080 C   0  0  0  0  0  0  0  0  0  0  0  0
  151.0755  140.2932  154.7565 O   0  0  0  0  0  0  0  0  0  0  0  0
  151.8589  137.0616  154.3712 H   0  0  0  0  0  0  0  0  0  0  0  0
  152.9262  138.3940  154.8009 H   0  0  0  0  0  0  0  0  0  0  0  0
  152.1278  138.3788  153.2307 H   0  0  0  0  0  0  0  0  0  0  0  0
  150.7445  138.6357  155.9443 H   0  0  0  0  0  0  0  0  0  0  0  0
  149.5854  138.7356  153.1116 H   0  0  0  0  0  0  0  0  0  0  0  0
  149.3140  137.4889  154.3138 H   0  0  0  0  0  0  0  0  0  0  0  0
  144.9475  139.7641  154.5386 H   0  0  0  0  0  0  0  0  0  0  0  0
  146.2048  140.9348  154.8883 H   0  0  0  0  0  0  0  0  0  0  0  0
  145.8135  139.6609  156.0448 H   0  0  0  0  0  0  0  0  0  0  0  0
  145.7956  139.1371  152.4617 H   0  0  0  0  0  0  0  0  0  0  0  0
  147.3788  138.4648  152.1919 H   0  0  0  0  0  0  0  0  0  0  0  0
  147.1938  140.1922  152.4960 H   0  0  0  0  0  0  0  0  0  0  0  0
  147.2731  137.1585  155.5267 H   0  0  0  0  0  0  0  0  0  0  0  0
  145.6464  137.3572  154.9491 H   0  0  0  0  0  0  0  0  0  0  0  0
  147.8546  136.5201  153.1761 H   0  0  0  0  0  0  0  0  0  0  0  0
  147.4670  135.2536  151.7355 H   0  0  0  0  0  0  0  0  0  0  0  0
  143.7913  134.7861  151.3238 H   0  0  0  0  0  0  0  0  0  0  0  0
  142.8929  132.9989  149.8553 H   0  0  0  0  0  0  0  0  0  0  0  0
  144.4729  131.3056  148.8968 H   0  0  0  0  0  0  0  0  0  0  0  0
  147.7231  133.0559  150.7428 H   0  0  0  0  0  0  0  0  0  0  0  0
  148.7600  141.0786  153.5470 H   0  0  0  0  0  0  0  0  0  0  0  0
  147.9414  141.4531  155.0461 H   0  0  0  0  0  0  0  0  0  0  0  0
  150.3281  142.1560  154.9733 H   0  0  0  0  0  0  0  0  0  0  0  0
  149.3036  141.8896  157.1748 H   0  0  0  0  0  0  0  0  0  0  0  0
  150.9770  141.3514  157.2336 H   0  0  0  0  0  0  0  0  0  0  0  0
  149.6668  140.1731  157.2045 H   0  0  0  0  0  0  0  0  0  0  0  0
  148.3875  139.1871  155.7338 H   0  0  0  0  0  0  0  0  0  0  0  0
  1  2  1  0  0  0  0
  1 23  1  0  0  0  0
  1 24  1  0  0  0  0
  1 25  1  0  0  0  0
  2 22  1  0  0  0  0
  2  3  1  0  0  0  0
  2 26  1  0  0  0  0
  3  4  1  0  0  0  0
  3 27  1  0  0  0  0
  3 28  1  0  0  0  0
  4  5  1  0  0  0  0
  4 19  1  0  0  0  0
  4 49  1  0  0  0  0
  5  6  1  0  0  0  0
  5  7  1  0  0  0  0
  5  8  1  0  0  0  0
  6 29  1  0  0  0  0
  6 30  1  0  0  0  0
  6 31  1  0  0  0  0
  7 32  1  0  0  0  0
  7 33  1  0  0  0  0
  7 34  1  0  0  0  0
  8  9  1  0  0  0  0
  8 35  1  0  0  0  0
  8 36  1  0  0  0  0
  9 10  1  0  0  0  0
  9 37  1  0  0  0  0
 10 11  2  0  0  0  0
 10 12  1  0  0  0  0
 12 13  1  0  0  0  0
 12 38  1  0  0  0  0
 13 18  1  0  0  0  0
 13 14  2  0  0  0  0
 14 15  1  0  0  0  0
 14 39  1  0  0  0  0
 15 16  2  0  0  0  0
 15 40  1  0  0  0  0
 16 17  1  0  0  0  0
 16 41  1  0  0  0  0
 17 18  2  0  0  0  0
 18 42  1  0  0  0  0
 19 20  1  0  0  0  0
 19 43  1  0  0  0  0
 19 44  1  0  0  0  0
 20 21  1  0  0  0  0
 20 22  1  0  0  0  0
 20 45  1  0  0  0  0
 21 46  1  0  0  0  0
 21 47  1  0  0  0  0
 21 48  1  0  0  0  0
M  CHG  1   4   1
M  END
> <s_m_source_file>
AV-unprocessed.smi

> <i_m_source_file_index>
1543

> <i_lp_mmshare_version>
43012

> <i_f3d_flags>
0

> <s_epik_input>
W0NIM11bQ0BASF0xW0NIMl1OKFtDSDJdW0NASF0oTzEpW0NIM10pQyhbQ0gzXSkoW0NIM10pW0NIMl1bTkhdQyg9TylbTkhdYzJbY0hdW2NIXVtjSF1uW2NIXTI=

> <s_epik_cmdline>
J2VwaWtfcHl0aG9uJywgJy1waCcsICc3LjAnLCAnLXRuJywgJzgnLCAnLW1hJywgJzIwMCcsICctbWV0YWxfYmluZGluZycsICctaW1hZScsICc8aW5maWxlLm1hZT4nLCAnLW9tYWUnLCAnPG91dGZpbGUubWFlPic=

> <r_epik_Ionization_Penalty>
0.60676

> <r_epik_Ionization_Penalty_Charging>
0.602531

> <r_epik_Ionization_Penalty_Neutral>
0.00422967

> <r_epik_State_Penalty>
0.607492

> <r_epik_Charging_Adjusted_Penalty>
1.21002

> <i_epik_Tot_Q>
1

> <i_epik_Tot_abs_Q>
1

> <r_epik_Metal_State_Penalty>
0.604589

> <b_epik_Metal_Only>
0

> <s_lp_Force_Field>
OPLS_2005

> <r_lp_Energy>
30.3839

> <b_lp_Chiralities_Consistent>
1

> <s_lp_Variant>
AV-unprocessed.smi:1543-4

> <Gold.Version>
5.8.1

> <Gold.Id.Protein>
6NUR|6NUR_protein|mol2

> <Gold.PLP.Fitness>
45.7071

> <Gold.PLP.PLP>
-36.3191

> <Gold.PLP.part.hbond>
-2.9861

> <Gold.PLP.part.metal>
0.0000

> <Gold.PLP.part.buried>
-4.4193

> <Gold.PLP.part.nonpolar>
-30.3814

> <Gold.PLP.part.repulsive>
0.7386

> <Gold.PLP.ligand.clash>
0.0000

> <Gold.PLP.ligand.torsion>
0.9459

> <Gold.PLP.Chemscore.Hbond>
2.9920

> <Gold.PLP.Chemscore.CHOScore>
0.7310

> <Gold.PLP.Chemscore.Metal>
0.0000

> <Gold.Chemscore.Hbonds>
donor molecule, donor type, donor heavy atom, donor atom, acceptor molecule, acceptor atom, score
      L1  H     9    37       P1  7948  1.00
      L1  H    12    38       P1  7948  1.00
      P1  H  7989  7998       L1    22  0.89
      L1  C    18    42       P1 10747  0.72

> <Gold.PLP.Chemscore.Internal.Correction>
0.1109

> <Gold.Rescore>
     Score         DG    S(hbond)    S(metal)    S(lipo)     H(rot)  DE(clash)    DE(int)     intcor
     20.08     -22.16       2.81        0.00      94.41       1.46       0.02       2.07       ----

> <Gold.Chemscore.Fitness>
20.0788

> <Gold.Chemscore.DG>
-22.1631

> <Gold.Chemscore.ZeroCoef>
-5.4800

> <Gold.Chemscore.Hbond>
2.8091

> <Gold.Chemscore.Metal>
0.0000

> <Gold.Chemscore.Lipo>
94.4145

> <Gold.Chemscore.Internal_Hbond>
0.0000

> <Gold.Chemscore.DEClash>
0.0178

> <Gold.Chemscore.DEInternal>
2.0665

> <Gold.Chemscore.Rot>
1.4632

> <Gold.Chemscore.Internal.Correction>
   9.000000E+99

> <Gold.Chemscore.Hbonds>
donor molecule, donor type, donor heavy atom, donor atom, acceptor molecule, acceptor atom, score
      L1  H     9    37       P1  7948  0.95
      L1  H    12    38       P1  7948  0.90
      P1  H  7989  7998       L1    22  0.64

> <Gold.Chemscore.Hbond.Weighted>
-9.3825

> <Gold.Chemscore.Metal.Weighted>
-0.0000

> <Gold.Chemscore.Lipo.Weighted>
-11.0465

> <Gold.Chemscore.Internal_Hbond.Weighted>
0.0000

> <Gold.Chemscore.DEClash.Weighted>
0.0178

> <Gold.Chemscore.DEInternal.Weighted>
2.0665

> <Gold.Chemscore.Rot.Weighted>
3.7459

> <Gold.Chemscore.Internal.Correction.Weighted>
   9.000000E+99

> <Gold.Protein.RotatedTorsions>
[ 6907 6896 6895 6894 ] final -173.28 input  -60.11 | X-H torsion
[ 7974 7965 7964 7962 ] final  131.68 input  175.53 | X-H torsion
[ 8008 7997 7996 7995 ] final   26.65 input   59.86 | X-H torsion
[ 10167 10162 10161 10158 ] final  -61.50 input  -65.29 | X-H torsion
[ 10718 10713 10712 10709 ] final  -48.71 input   66.30 | X-H torsion
[ 10763 10752 10751 10750 ] final -143.98 input  -60.55 | X-H torsion
[ 11005 11000 10999 10996 ] final  -13.90 input  -57.11 | X-H torsion

> <Gold.Protein.ActiveResidues>
 VAL166  LYS551  ARG553  GLY616  TRP617  ASP618  TYR619  PRO620  LYS621  CYS622 
 ASP623  PHE694  ASN695  SER759  ASP760  ASP761  ALA762  ILE779  LEU786  VAL792 
 PHE793  MET794  SER795  GLU796  ALA797  LYS798  CYS799  TRP800  GLU811  SER814 

> <Gold.Protein.RotatedAtoms>
  151.5536  133.3413  159.2957 H   0  0  0  0  0  0  0  0  0  0  0  0  # atno 6907 bound_to 6896
  150.8464  134.7777  159.6985 H   0  0  0  0  0  0  0  0  0  0  0  0  # atno 6908 bound_to 6896
  152.4520  134.5380  159.9882 H   0  0  0  0  0  0  0  0  0  0  0  0  # atno 6909 bound_to 6896
  145.0048  139.4277  143.5274 H   0  0  0  0  0  0  0  0  0  0  0  0  # atno 7974 bound_to 7965
  155.0306  140.3158  155.4760 H   0  0  0  0  0  0  0  0  0  0  0  0  # atno 8008 bound_to 7997
  156.2875  140.2181  156.5369 H   0  0  0  0  0  0  0  0  0  0  0  0  # atno 8009 bound_to 7997
  154.7374  140.0476  157.0768 H   0  0  0  0  0  0  0  0  0  0  0  0  # atno 8010 bound_to 7997
  140.6001  143.2359  151.5947 H   0  0  0  0  0  0  0  0  0  0  0  0  # atno 10167 bound_to 10162
  156.1962  130.4154  149.9303 H   0  0  0  0  0  0  0  0  0  0  0  0  # atno 10718 bound_to 10713
  154.8447  135.3453  154.6273 H   0  0  0  0  0  0  0  0  0  0  0  0  # atno 10763 bound_to 10752
  153.6883  135.6976  153.5102 H   0  0  0  0  0  0  0  0  0  0  0  0  # atno 10764 bound_to 10752
  153.2615  135.4321  155.0854 H   0  0  0  0  0  0  0  0  0  0  0  0  # atno 10765 bound_to 10752
  140.7808  133.8364  155.9290 H   0  0  0  0  0  0  0  0  0  0  0  0  # atno 11005 bound_to 11000
  146.3459  139.9458  142.8735 LP  0  0  0  0  0  0  0  0  0  0  0  0  # atno 17320 bound_to 7965
  145.2103  140.9893  143.4104 LP  0  0  0  0  0  0  0  0  0  0  0  0  # atno 17321 bound_to 7965
  139.5285  144.2986  152.1093 LP  0  0  0  0  0  0  0  0  0  0  0  0  # atno 17342 bound_to 10162
  140.2165  144.4510  150.6361 LP  0  0  0  0  0  0  0  0  0  0  0  0  # atno 17343 bound_to 10162
  156.7027  130.8939  151.3601 LP  0  0  0  0  0  0  0  0  0  0  0  0  # atno 17370 bound_to 10713
  157.6959  130.9281  150.0643 LP  0  0  0  0  0  0  0  0  0  0  0  0  # atno 17371 bound_to 10713
  140.9484  134.1810  157.4746 LP  0  0  0  0  0  0  0  0  0  0  0  0  # atno 17394 bound_to 11000
  139.8743  134.9899  156.5480 LP  0  0  0  0  0  0  0  0  0  0  0  0  # atno 17395 bound_to 11000

$$$$
