AV-unprocessed.smi:1740|AV-procd|sdf|7007|dock5
  -GOLD-   22720 8223D 1   1.00000     0.00000
 Structure written by MMmdl.
 52 54  0  0  0  0  0  0  0  0  2 V2000
  142.3682  132.2657  147.8931 N   0  0  0  0  0  0  0  0  0  0  0  0
  143.6140  132.7079  148.0775 C   0  0  0  0  0  0  0  0  0  0  0  0
  144.1404  133.5202  147.3191 O   0  0  0  0  0  0  0  0  0  0  0  0
  144.3656  132.1721  149.3004 C   0  0  0  0  0  0  0  0  0  0  0  0
  145.1231  133.2280  150.0198 N   0  3  2  0  0  0  0  0  0  0  0  0
  145.8528  132.7154  151.2102 C   0  0  0  0  0  0  0  0  0  0  0  0
  146.7378  133.8095  151.8290 C   0  0  0  0  0  0  0  0  0  0  0  0
  145.9107  135.0513  152.1989 C   0  0  1  0  0  0  0  0  0  0  0  0
  146.7949  136.1007  152.6952 N   0  0  0  0  0  0  0  0  0  0  0  0
  146.4123  137.3408  153.0309 C   0  0  0  0  0  0  0  0  0  0  0  0
  145.2497  137.7375  152.9542 O   0  0  0  0  0  0  0  0  0  0  0  0
  147.4559  138.0647  153.4678 N   0  0  0  0  0  0  0  0  0  0  0  0
  147.4650  139.3980  153.9676 C   0  0  0  0  0  0  0  0  0  0  0  0
  146.4551  140.3316  153.6278 C   0  0  0  0  0  0  0  0  0  0  0  0
  146.5532  141.6539  154.0940 C   0  0  0  0  0  0  0  0  0  0  0  0
  147.6687  142.0033  154.8728 C   0  0  0  0  0  0  0  0  0  0  0  0
  148.6446  141.1310  155.1945 N   0  0  0  0  0  0  0  0  0  0  0  0
  148.5566  139.8483  154.7644 C   0  0  0  0  0  0  0  0  0  0  0  0
  149.5980  138.9720  155.1466 N   0  0  0  0  0  0  0  0  0  0  0  0
  150.4785  139.3973  156.2309 C   0  0  0  0  0  0  0  0  0  0  0  0
  151.8821  138.8985  155.8712 C   0  0  0  0  0  0  0  0  0  0  0  0
  151.6214  137.7716  154.8765 C   0  0  0  0  0  0  0  0  0  0  0  0
  150.3834  138.2702  154.1368 C   0  0  0  0  0  0  0  0  0  0  0  0
  145.1247  135.5347  150.9660 C   0  0  0  0  0  0  0  0  0  0  0  0
  144.2790  134.4008  150.3625 C   0  0  0  0  0  0  0  0  0  0  0  0
  141.8338  132.5941  147.1012 H   0  0  0  0  0  0  0  0  0  0  0  0
  141.9591  131.6084  148.5417 H   0  0  0  0  0  0  0  0  0  0  0  0
  143.6132  131.7434  149.9636 H   0  0  0  0  0  0  0  0  0  0  0  0
  145.0347  131.3578  149.0166 H   0  0  0  0  0  0  0  0  0  0  0  0
  145.1371  132.3496  151.9484 H   0  0  0  0  0  0  0  0  0  0  0  0
  146.4788  131.8670  150.9322 H   0  0  0  0  0  0  0  0  0  0  0  0
  147.2424  133.4185  152.7134 H   0  0  0  0  0  0  0  0  0  0  0  0
  147.5219  134.0817  151.1205 H   0  0  0  0  0  0  0  0  0  0  0  0
  145.2070  134.7733  152.9863 H   0  0  0  0  0  0  0  0  0  0  0  0
  147.7711  135.8639  152.7970 H   0  0  0  0  0  0  0  0  0  0  0  0
  148.3330  137.5720  153.5509 H   0  0  0  0  0  0  0  0  0  0  0  0
  145.6200  140.0648  152.9989 H   0  0  0  0  0  0  0  0  0  0  0  0
  145.7979  142.3857  153.8490 H   0  0  0  0  0  0  0  0  0  0  0  0
  147.7844  143.0113  155.2428 H   0  0  0  0  0  0  0  0  0  0  0  0
  150.4646  140.4790  156.3724 H   0  0  0  0  0  0  0  0  0  0  0  0
  150.1450  138.9304  157.1578 H   0  0  0  0  0  0  0  0  0  0  0  0
  152.4401  139.6970  155.3802 H   0  0  0  0  0  0  0  0  0  0  0  0
  152.4531  138.5759  156.7421 H   0  0  0  0  0  0  0  0  0  0  0  0
  152.4655  137.5814  154.2132 H   0  0  0  0  0  0  0  0  0  0  0  0
  151.3922  136.8483  155.4106 H   0  0  0  0  0  0  0  0  0  0  0  0
  149.8182  137.4500  153.6932 H   0  0  0  0  0  0  0  0  0  0  0  0
  150.6879  138.9488  153.3391 H   0  0  0  0  0  0  0  0  0  0  0  0
  144.4772  136.3705  151.2343 H   0  0  0  0  0  0  0  0  0  0  0  0
  145.8163  135.9109  150.2103 H   0  0  0  0  0  0  0  0  0  0  0  0
  143.7774  134.7688  149.4666 H   0  0  0  0  0  0  0  0  0  0  0  0
  143.4984  134.0980  151.0622 H   0  0  0  0  0  0  0  0  0  0  0  0
  145.8200  133.5610  149.3683 H   0  0  0  0  0  0  0  0  0  0  0  0
  1  2  1  0  0  0  0
  1 26  1  0  0  0  0
  1 27  1  0  0  0  0
  2  3  2  0  0  0  0
  2  4  1  0  0  0  0
  4  5  1  0  0  0  0
  4 28  1  0  0  0  0
  4 29  1  0  0  0  0
  5 25  1  0  0  0  0
  5  6  1  0  0  0  0
  5 52  1  0  0  0  0
  6  7  1  0  0  0  0
  6 30  1  0  0  0  0
  6 31  1  0  0  0  0
  7  8  1  0  0  0  0
  7 32  1  0  0  0  0
  7 33  1  0  0  0  0
  8  9  1  0  0  0  0
  8 24  1  0  0  0  0
  8 34  1  0  0  0  0
  9 10  1  0  0  0  0
  9 35  1  0  0  0  0
 10 11  2  0  0  0  0
 10 12  1  0  0  0  0
 12 13  1  0  0  0  0
 12 36  1  0  0  0  0
 13 18  1  0  0  0  0
 13 14  2  0  0  0  0
 14 15  1  0  0  0  0
 14 37  1  0  0  0  0
 15 16  2  0  0  0  0
 15 38  1  0  0  0  0
 16 17  1  0  0  0  0
 16 39  1  0  0  0  0
 17 18  2  0  0  0  0
 18 19  1  0  0  0  0
 19 23  1  0  0  0  0
 19 20  1  0  0  0  0
 20 21  1  0  0  0  0
 20 40  1  0  0  0  0
 20 41  1  0  0  0  0
 21 22  1  0  0  0  0
 21 42  1  0  0  0  0
 21 43  1  0  0  0  0
 22 23  1  0  0  0  0
 22 44  1  0  0  0  0
 22 45  1  0  0  0  0
 23 46  1  0  0  0  0
 23 47  1  0  0  0  0
 24 25  1  0  0  0  0
 24 48  1  0  0  0  0
 24 49  1  0  0  0  0
 25 50  1  0  0  0  0
 25 51  1  0  0  0  0
M  CHG  1   5   1
M  END
> <s_m_source_file>
AV-unprocessed.smi

> <i_m_source_file_index>
1740

> <i_lp_mmshare_version>
43012

> <i_f3d_flags>
0

> <s_epik_input>
W05IMl1DKD1PKVtDSDJdTjFbQ0gyXVtDSDJdW0NIXShbQ0gyXVtDSDJdMSlbTkhdQyg9TylbTkhdYzJbY0hdW2NIXVtjSF1uYzJOM1tDSDJdW0NIMl1bQ0gyXVtDSDJdMw==

> <s_epik_cmdline>
J2VwaWtfcHl0aG9uJywgJy1waCcsICc3LjAnLCAnLXRuJywgJzgnLCAnLW1hJywgJzIwMCcsICctbWV0YWxfYmluZGluZycsICctaW1hZScsICc8aW5maWxlLm1hZT4nLCAnLW9tYWUnLCAnPG91dGZpbGUubWFlPic=

> <r_lp_tautomer_probability>
1

> <r_epik_Ionization_Penalty>
0.91661

> <r_epik_Ionization_Penalty_Charging>
0.838844

> <r_epik_Ionization_Penalty_Neutral>
0.0777664

> <r_epik_State_Penalty>
0.927046

> <r_epik_Charging_Adjusted_Penalty>
1.76589

> <i_epik_Tot_Q>
1

> <i_epik_Tot_abs_Q>
1

> <r_epik_Metal_State_Penalty>
0.950555

> <b_epik_Metal_Only>
0

> <s_lp_Force_Field>
OPLS_2005

> <r_lp_Energy>
39.0638

> <b_lp_Chiralities_Consistent>
1

> <s_lp_Variant>
AV-unprocessed.smi:1740-2

> <Gold.Version>
5.8.1

> <Gold.Id.Protein>
6NUR|6NUR_protein|mol2

> <Gold.PLP.Fitness>
53.1425

> <Gold.PLP.PLP>
-35.9647

> <Gold.PLP.part.hbond>
-6.7035

> <Gold.PLP.part.metal>
0.0000

> <Gold.PLP.part.buried>
0.2809

> <Gold.PLP.part.nonpolar>
-36.9096

> <Gold.PLP.part.repulsive>
6.6718

> <Gold.PLP.ligand.clash>
0.0000

> <Gold.PLP.ligand.torsion>
0.5836

> <Gold.PLP.Chemscore.Hbond>
5.0052

> <Gold.PLP.Chemscore.CHOScore>
1.0000

> <Gold.PLP.Chemscore.Metal>
0.0000

> <Gold.Chemscore.Hbonds>
donor molecule, donor type, donor heavy atom, donor atom, acceptor molecule, acceptor atom, score
      L1  H     1    26       P1 10195  1.00
      L1  H     1    27       P1 10952  1.00
      L1  H     5    52       P1  7921  0.50
      L1  H     9    35       P1  7948  0.58
      L1  H    12    36       P1  7948  0.18
      P1  H  7918  7932       L1     3  0.82
      L1  C    16    39       P1  8028  1.00

> <Gold.PLP.Chemscore.Internal.Correction>
0.3294

> <Gold.Rescore>
     Score         DG    S(hbond)    S(metal)    S(lipo)     H(rot)  DE(clash)    DE(int)     intcor
     18.57     -22.94       3.81        0.00      88.56       2.19       2.55       1.83       ----

> <Gold.Chemscore.Fitness>
18.5653

> <Gold.Chemscore.DG>
-22.9445

> <Gold.Chemscore.ZeroCoef>
-5.4800

> <Gold.Chemscore.Hbond>
3.8082

> <Gold.Chemscore.Metal>
0.0000

> <Gold.Chemscore.Lipo>
88.5586

> <Gold.Chemscore.Internal_Hbond>
0.0000

> <Gold.Chemscore.DEClash>
2.5513

> <Gold.Chemscore.DEInternal>
1.8279

> <Gold.Chemscore.Rot>
2.1939

> <Gold.Chemscore.Internal.Correction>
   9.000000E+99

> <Gold.Chemscore.Hbonds>
donor molecule, donor type, donor heavy atom, donor atom, acceptor molecule, acceptor atom, score
      L1  H     1    26       P1 10195  0.93
      L1  H     1    27       P1 10952  0.98
      L1  H     5    52       P1  7921  0.07
      L1  H     9    35       P1  7948  0.53
      L1  H    12    36       P1  7948  0.17
      P1  H  7918  7932       L1     3  0.81

> <Gold.Chemscore.Hbond.Weighted>
-12.7195

> <Gold.Chemscore.Metal.Weighted>
-0.0000

> <Gold.Chemscore.Lipo.Weighted>
-10.3614

> <Gold.Chemscore.Internal_Hbond.Weighted>
0.0000

> <Gold.Chemscore.DEClash.Weighted>
2.5513

> <Gold.Chemscore.DEInternal.Weighted>
1.8279

> <Gold.Chemscore.Rot.Weighted>
5.6163

> <Gold.Chemscore.Internal.Correction.Weighted>
   9.000000E+99

> <Gold.Protein.RotatedTorsions>
[ 6907 6896 6895 6894 ] final -114.99 input  -60.11 | X-H torsion
[ 7974 7965 7964 7962 ] final  161.46 input  175.53 | X-H torsion
[ 8008 7997 7996 7995 ] final   91.39 input   59.86 | X-H torsion
[ 10167 10162 10161 10158 ] final  -57.78 input  -65.29 | X-H torsion
[ 10718 10713 10712 10709 ] final   78.24 input   66.30 | X-H torsion
[ 10763 10752 10751 10750 ] final  105.85 input  -60.55 | X-H torsion
[ 11005 11000 10999 10996 ] final  152.87 input  -57.11 | X-H torsion

> <Gold.Protein.ActiveResidues>
 VAL166  LYS551  ARG553  GLY616  TRP617  ASP618  TYR619  PRO620  LYS621  CYS622 
 ASP623  PHE694  ASN695  SER759  ASP760  ASP761  ALA762  ILE779  LEU786  VAL792 
 PHE793  MET794  SER795  GLU796  ALA797  LYS798  CYS799  TRP800  GLU811  SER814 

> <Gold.Protein.RotatedAtoms>
  150.7944  133.8722  159.3261 H   0  0  0  0  0  0  0  0  0  0  0  0  # atno 6907 bound_to 6896
  151.6551  135.0995  160.0178 H   0  0  0  0  0  0  0  0  0  0  0  0  # atno 6908 bound_to 6896
  152.4023  133.6797  159.6362 H   0  0  0  0  0  0  0  0  0  0  0  0  # atno 6909 bound_to 6896
  144.7685  139.7901  143.6306 H   0  0  0  0  0  0  0  0  0  0  0  0  # atno 7974 bound_to 7965
  156.0232  140.3338  155.7061 H   0  0  0  0  0  0  0  0  0  0  0  0  # atno 8008 bound_to 7997
  155.5992  140.0654  157.2755 H   0  0  0  0  0  0  0  0  0  0  0  0  # atno 8009 bound_to 7997
  154.4324  140.1813  156.1143 H   0  0  0  0  0  0  0  0  0  0  0  0  # atno 8010 bound_to 7997
  140.6237  143.2429  151.5417 H   0  0  0  0  0  0  0  0  0  0  0  0  # atno 10167 bound_to 10162
  157.6738  130.9859  150.1757 H   0  0  0  0  0  0  0  0  0  0  0  0  # atno 10718 bound_to 10713
  153.3850  135.3896  155.1883 H   0  0  0  0  0  0  0  0  0  0  0  0  # atno 10763 bound_to 10752
  154.8712  135.3734  154.4809 H   0  0  0  0  0  0  0  0  0  0  0  0  # atno 10764 bound_to 10752
  153.5290  135.7086  153.5754 H   0  0  0  0  0  0  0  0  0  0  0  0  # atno 10765 bound_to 10752
  140.1346  134.8779  157.2250 H   0  0  0  0  0  0  0  0  0  0  0  0  # atno 11005 bound_to 11000
  146.1812  139.5005  142.9865 LP  0  0  0  0  0  0  0  0  0  0  0  0  # atno 17320 bound_to 7965
  145.6397  141.0287  143.1818 LP  0  0  0  0  0  0  0  0  0  0  0  0  # atno 17321 bound_to 7965
  139.5461  144.2518  152.1444 LP  0  0  0  0  0  0  0  0  0  0  0  0  # atno 17342 bound_to 10162
  140.1744  144.4905  150.6562 LP  0  0  0  0  0  0  0  0  0  0  0  0  # atno 17343 bound_to 10162
  156.2501  130.3699  149.8242 LP  0  0  0  0  0  0  0  0  0  0  0  0  # atno 17370 bound_to 10713
  156.6017  130.8549  151.3433 LP  0  0  0  0  0  0  0  0  0  0  0  0  # atno 17371 bound_to 10713
  140.2798  134.3363  155.7346 LP  0  0  0  0  0  0  0  0  0  0  0  0  # atno 17394 bound_to 11000
  141.2176  133.7472  156.9347 LP  0  0  0  0  0  0  0  0  0  0  0  0  # atno 17395 bound_to 11000

$$$$
