AV-unprocessed.smi:1976|AV-procd|sdf|7986|dock6
  -GOLD-   2272010163D 1   1.00000     0.00000
 Structure written by MMmdl.
 45 47  0  0  0  0  0  0  0  0  2 V2000
  151.7330  140.3992  155.4090 O   0  0  0  0  0  0  0  0  0  0  0  0
  150.9928  140.3892  156.3936 C   0  0  0  0  0  0  0  0  0  0  0  0
  151.4916  139.8901  157.7575 C   0  0  0  0  0  0  0  0  0  0  0  0
  152.1590  140.9327  158.5552 N   0  0  0  0  0  0  0  0  0  0  0  0
  151.4806  142.1586  158.7021 C   0  0  0  0  0  0  0  0  0  0  0  0
  151.9785  143.1919  159.4081 C   0  0  0  0  0  0  0  0  0  0  0  0
  151.2512  144.5244  159.4964 C   0  0  0  0  0  0  0  0  0  0  0  0
  151.0628  145.0190  158.2737 F   0  0  0  0  0  0  0  0  0  0  0  0
  150.0588  144.3831  160.0758 F   0  0  0  0  0  0  0  0  0  0  0  0
  151.9557  145.4124  160.1991 F   0  0  0  0  0  0  0  0  0  0  0  0
  153.2884  142.9979  159.9986 C   0  0  0  0  0  0  0  0  0  0  0  0
  153.9563  141.8363  159.8568 C   0  0  0  0  0  0  0  0  0  0  0  0
  153.3927  140.7151  159.1018 C   0  0  0  0  0  0  0  0  0  0  0  0
  153.9925  139.6485  158.9653 O   0  0  0  0  0  0  0  0  0  0  0  0
  149.7246  140.8245  156.3556 N   0  0  0  0  0  0  0  0  0  0  0  0
  149.0566  141.3318  155.1602 C   0  0  1  0  0  0  0  0  0  0  0  0
  148.3929  140.2425  154.3279 C   0  0  0  0  0  0  0  0  0  0  0  0
  147.4127  141.0292  153.4516 C   0  0  0  0  0  0  0  0  0  0  0  0
  147.0629  142.2631  154.1981 N   0  3  1  0  0  0  0  0  0  0  0  0
  145.6022  142.4472  154.4116 C   0  0  0  0  0  0  0  0  0  0  0  0
  145.3335  143.4963  155.5006 C   0  0  0  0  0  0  0  0  0  0  0  0
  145.9188  143.0644  156.8588 C   0  0  0  0  0  0  0  0  0  0  0  0
  147.0725  142.0539  156.7093 C   0  0  0  0  0  0  0  0  0  0  0  0
  147.9025  142.3175  155.4288 C   0  0  1  0  0  0  0  0  0  0  0  0
  150.6402  139.4812  158.3037 H   0  0  0  0  0  0  0  0  0  0  0  0
  152.1637  139.0435  157.6047 H   0  0  0  0  0  0  0  0  0  0  0  0
  150.5296  142.2095  158.1919 H   0  0  0  0  0  0  0  0  0  0  0  0
  153.7414  143.7970  160.5667 H   0  0  0  0  0  0  0  0  0  0  0  0
  154.9308  141.7275  160.3099 H   0  0  0  0  0  0  0  0  0  0  0  0
  149.1826  140.7892  157.2071 H   0  0  0  0  0  0  0  0  0  0  0  0
  149.7985  141.8248  154.5280 H   0  0  0  0  0  0  0  0  0  0  0  0
  149.1055  139.6593  153.7437 H   0  0  0  0  0  0  0  0  0  0  0  0
  147.8434  139.5553  154.9729 H   0  0  0  0  0  0  0  0  0  0  0  0
  147.9000  141.3287  152.5231 H   0  0  0  0  0  0  0  0  0  0  0  0
  146.5435  140.4274  153.1822 H   0  0  0  0  0  0  0  0  0  0  0  0
  145.1403  142.7440  153.4693 H   0  0  0  0  0  0  0  0  0  0  0  0
  145.1419  141.5019  154.7047 H   0  0  0  0  0  0  0  0  0  0  0  0
  145.7798  144.4441  155.1960 H   0  0  0  0  0  0  0  0  0  0  0  0
  144.2634  143.6820  155.5981 H   0  0  0  0  0  0  0  0  0  0  0  0
  146.2654  143.9503  157.3923 H   0  0  0  0  0  0  0  0  0  0  0  0
  145.1397  142.6220  157.4807 H   0  0  0  0  0  0  0  0  0  0  0  0
  147.6965  142.0963  157.6019 H   0  0  0  0  0  0  0  0  0  0  0  0
  146.6647  141.0424  156.6732 H   0  0  0  0  0  0  0  0  0  0  0  0
  148.3146  143.3246  155.5087 H   0  0  0  0  0  0  0  0  0  0  0  0
  147.3694  143.0360  153.6244 H   0  0  0  0  0  0  0  0  0  0  0  0
  1  2  2  0  0  0  0
  2  3  1  0  0  0  0
  2 15  1  0  0  0  0
  3  4  1  0  0  0  0
  3 25  1  0  0  0  0
  3 26  1  0  0  0  0
  4 13  1  0  0  0  0
  4  5  1  0  0  0  0
  5  6  2  0  0  0  0
  5 27  1  0  0  0  0
  6  7  1  0  0  0  0
  6 11  1  0  0  0  0
  7  8  1  0  0  0  0
  7  9  1  0  0  0  0
  7 10  1  0  0  0  0
 11 12  2  0  0  0  0
 11 28  1  0  0  0  0
 12 13  1  0  0  0  0
 12 29  1  0  0  0  0
 13 14  2  0  0  0  0
 15 16  1  0  0  0  0
 15 30  1  0  0  0  0
 16 24  1  0  0  0  0
 16 17  1  0  0  0  0
 16 31  1  0  0  0  0
 17 18  1  0  0  0  0
 17 32  1  0  0  0  0
 17 33  1  0  0  0  0
 18 19  1  0  0  0  0
 18 34  1  0  0  0  0
 18 35  1  0  0  0  0
 19 24  1  0  0  0  0
 19 20  1  0  0  0  0
 19 45  1  0  0  0  0
 20 21  1  0  0  0  0
 20 36  1  0  0  0  0
 20 37  1  0  0  0  0
 21 22  1  0  0  0  0
 21 38  1  0  0  0  0
 21 39  1  0  0  0  0
 22 23  1  0  0  0  0
 22 40  1  0  0  0  0
 22 41  1  0  0  0  0
 23 24  1  0  0  0  0
 23 42  1  0  0  0  0
 23 43  1  0  0  0  0
 24 44  1  0  0  0  0
M  CHG  1  19   1
M  END
> <s_m_source_file>
AV-unprocessed.smi

> <i_m_source_file_index>
1976

> <i_lp_mmshare_version>
43012

> <i_f3d_flags>
0

> <s_epik_input>
W0NIMl0xW0NIMl1bQ0gyXVtDSDJdW0NASF0oTjEyKVtDQEBIXShbQ0gyXVtDSDJdMilbTkhdQyg9TylbQ0gyXW4zW2NIXWMoQyhGKShGKUYpW2NIXVtjSF1jMz1P

> <s_epik_cmdline>
J2VwaWtfcHl0aG9uJywgJy1waCcsICc3LjAnLCAnLXRuJywgJzgnLCAnLW1hJywgJzIwMCcsICctbWV0YWxfYmluZGluZycsICctaW1hZScsICc8aW5maWxlLm1hZT4nLCAnLW9tYWUnLCAnPG91dGZpbGUubWFlPic=

> <r_lp_tautomer_probability>
1

> <r_epik_Ionization_Penalty>
0.00171506

> <r_epik_Ionization_Penalty_Charging>
0.00171498

> <r_epik_Ionization_Penalty_Neutral>
7.81737e-08

> <r_epik_State_Penalty>
0.00115937

> <r_epik_Charging_Adjusted_Penalty>
0.00287436

> <i_epik_Tot_Q>
1

> <i_epik_Tot_abs_Q>
1

> <r_epik_Metal_State_Penalty>
-0

> <b_epik_Metal_Only>
0

> <s_lp_Force_Field>
OPLS_2005

> <r_lp_Energy>
52.608

> <b_lp_Chiralities_Consistent>
1

> <s_lp_Variant>
AV-unprocessed.smi:1976-4

> <Gold.Version>
5.8.1

> <Gold.Id.Protein>
6NUR|6NUR_protein|mol2

> <Gold.PLP.Fitness>
50.4360

> <Gold.PLP.PLP>
-46.7079

> <Gold.PLP.part.hbond>
-2.0000

> <Gold.PLP.part.metal>
0.0000

> <Gold.PLP.part.buried>
-3.4933

> <Gold.PLP.part.nonpolar>
-42.1322

> <Gold.PLP.part.repulsive>
0.1777

> <Gold.PLP.ligand.clash>
0.0000

> <Gold.PLP.ligand.torsion>
0.8320

> <Gold.PLP.Chemscore.Hbond>
1.7840

> <Gold.PLP.Chemscore.CHOScore>
0.0000

> <Gold.PLP.Chemscore.Metal>
0.0000

> <Gold.Chemscore.Hbonds>
donor molecule, donor type, donor heavy atom, donor atom, acceptor molecule, acceptor atom, score
      P1  H  7989  7998       L1     1  0.80
      P1  H  7997  8008       L1    14  0.95

> <Gold.PLP.Chemscore.Internal.Correction>
0.0401

> <Gold.Rescore>
     Score         DG    S(hbond)    S(metal)    S(lipo)     H(rot)  DE(clash)    DE(int)     intcor
     15.53     -17.93       1.65        0.00      94.04       1.58       1.58       0.82       ----

> <Gold.Chemscore.Fitness>
15.5334

> <Gold.Chemscore.DG>
-17.9268

> <Gold.Chemscore.ZeroCoef>
-5.4800

> <Gold.Chemscore.Hbond>
1.6455

> <Gold.Chemscore.Metal>
0.0000

> <Gold.Chemscore.Lipo>
94.0446

> <Gold.Chemscore.Internal_Hbond>
0.0000

> <Gold.Chemscore.DEClash>
1.5753

> <Gold.Chemscore.DEInternal>
0.8180

> <Gold.Chemscore.Rot>
1.5830

> <Gold.Chemscore.Internal.Correction>
   9.000000E+99

> <Gold.Chemscore.Hbonds>
donor molecule, donor type, donor heavy atom, donor atom, acceptor molecule, acceptor atom, score
      P1  H  7989  7998       L1     1  0.78
      P1  H  7997  8008       L1    14  0.21

> <Gold.Chemscore.Hbond.Weighted>
-5.4959

> <Gold.Chemscore.Metal.Weighted>
-0.0000

> <Gold.Chemscore.Lipo.Weighted>
-11.0032

> <Gold.Chemscore.Internal_Hbond.Weighted>
0.0000

> <Gold.Chemscore.DEClash.Weighted>
1.5753

> <Gold.Chemscore.DEInternal.Weighted>
0.8180

> <Gold.Chemscore.Rot.Weighted>
4.0524

> <Gold.Chemscore.Internal.Correction.Weighted>
   9.000000E+99

> <Gold.Protein.RotatedTorsions>
[ 6907 6896 6895 6894 ] final  146.19 input  -60.11 | X-H torsion
[ 7974 7965 7964 7962 ] final -115.61 input  175.53 | X-H torsion
[ 8008 7997 7996 7995 ] final -107.25 input   59.86 | X-H torsion
[ 10167 10162 10161 10158 ] final  -45.48 input  -65.29 | X-H torsion
[ 10718 10713 10712 10709 ] final   62.82 input   66.30 | X-H torsion
[ 10763 10752 10751 10750 ] final  -82.48 input  -60.55 | X-H torsion
[ 11005 11000 10999 10996 ] final  138.44 input  -57.11 | X-H torsion

> <Gold.Protein.ActiveResidues>
 VAL166  LYS551  ARG553  GLY616  TRP617  ASP618  TYR619  PRO620  LYS621  CYS622 
 ASP623  PHE694  ASN695  SER759  ASP760  ASP761  ALA762  ILE779  LEU786  VAL792 
 PHE793  MET794  SER795  GLU796  ALA797  LYS798  CYS799  TRP800  GLU811  SER814 

> <Gold.Protein.RotatedAtoms>
  152.1712  133.4644  159.4909 H   0  0  0  0  0  0  0  0  0  0  0  0  # atno 6907 bound_to 6896
  150.6920  134.1951  159.4309 H   0  0  0  0  0  0  0  0  0  0  0  0  # atno 6908 bound_to 6896
  151.9858  135.0005  160.0610 H   0  0  0  0  0  0  0  0  0  0  0  0  # atno 6909 bound_to 6896
  145.1064  140.8584  143.3895 H   0  0  0  0  0  0  0  0  0  0  0  0  # atno 7974 bound_to 7965
  154.9266  140.0406  157.2026 H   0  0  0  0  0  0  0  0  0  0  0  0  # atno 8008 bound_to 7997
  154.8201  140.2882  155.5771 H   0  0  0  0  0  0  0  0  0  0  0  0  # atno 8009 bound_to 7997
  156.2979  140.2520  156.3107 H   0  0  0  0  0  0  0  0  0  0  0  0  # atno 8010 bound_to 7997
  140.6856  143.2877  151.3645 H   0  0  0  0  0  0  0  0  0  0  0  0  # atno 10167 bound_to 10162
  157.5928  130.9071  149.9636 H   0  0  0  0  0  0  0  0  0  0  0  0  # atno 10718 bound_to 10713
  154.5763  135.5590  153.7142 H   0  0  0  0  0  0  0  0  0  0  0  0  # atno 10763 bound_to 10752
  153.0065  135.6309  154.2045 H   0  0  0  0  0  0  0  0  0  0  0  0  # atno 10764 bound_to 10752
  154.1985  135.2879  155.2978 H   0  0  0  0  0  0  0  0  0  0  0  0  # atno 10765 bound_to 10752
  140.0184  134.9408  157.0424 H   0  0  0  0  0  0  0  0  0  0  0  0  # atno 11005 bound_to 11000
  145.0896  139.2900  143.5741 LP  0  0  0  0  0  0  0  0  0  0  0  0  # atno 17320 bound_to 7965
  146.3528  140.0429  142.8641 LP  0  0  0  0  0  0  0  0  0  0  0  0  # atno 17321 bound_to 7965
  139.6212  144.0903  152.2393 LP  0  0  0  0  0  0  0  0  0  0  0  0  # atno 17342 bound_to 10162
  140.0348  144.6053  150.7458 LP  0  0  0  0  0  0  0  0  0  0  0  0  # atno 17343 bound_to 10162
  156.0985  130.3657  150.0262 LP  0  0  0  0  0  0  0  0  0  0  0  0  # atno 17370 bound_to 10713
  156.8381  130.9416  151.3633 LP  0  0  0  0  0  0  0  0  0  0  0  0  # atno 17371 bound_to 10713
  140.4430  134.1661  155.7175 LP  0  0  0  0  0  0  0  0  0  0  0  0  # atno 17394 bound_to 11000
  141.1758  133.8517  157.1426 LP  0  0  0  0  0  0  0  0  0  0  0  0  # atno 17395 bound_to 11000

$$$$
