AV-unprocessed.smi:415|AV-procd|sdf|2523|dock9
  -GOLD-   2262022473D 1   1.00000     0.00000
 Structure written by MMmdl.
 53 54  0  0  0  0  0  0  0  0  1 V2000
  148.3880  132.7273  153.5574 C   0  0  0  0  0  0  0  0  0  0  0  0
  149.3940  132.7701  154.5535 O   0  0  0  0  0  0  0  0  0  0  0  0
  150.0224  134.0386  154.6354 C   0  0  0  0  0  0  0  0  0  0  0  0
  149.0627  135.0454  155.2911 C   0  0  0  0  0  0  0  0  0  0  0  0
  149.4263  136.4278  155.0408 N   0  0  0  0  0  0  0  0  0  0  0  0
  148.5713  137.3530  154.4475 C   0  0  0  0  0  0  0  0  0  0  0  0
  147.3083  136.9595  154.0438 N   0  0  0  0  0  0  0  0  0  0  0  0
  148.9525  138.6336  154.2432 C   0  0  0  0  0  0  0  0  0  0  0  0
  150.2739  139.1140  154.6229 C   0  0  0  0  0  0  0  0  0  0  0  0
  150.6311  140.2816  154.4642 O   0  0  0  0  0  0  0  0  0  0  0  0
  151.1351  138.1511  155.1970 N   0  0  0  0  0  0  0  0  0  0  0  0
  152.4914  138.5630  155.6207 C   0  0  0  0  0  0  0  0  0  0  0  0
  152.5420  139.0311  157.0822 C   0  0  0  0  0  0  0  0  0  0  0  0
  152.8843  138.2592  157.9790 O   0  0  0  0  0  0  0  0  0  0  0  0
  152.1858  140.3054  157.3045 N   0  0  0  0  0  0  0  0  0  0  0  0
  152.1719  140.9664  158.6084 C   0  0  1  0  0  0  0  0  0  0  0  0
  153.4338  140.5632  159.3970 C   0  0  0  0  0  0  0  0  0  0  0  0
  153.4875  141.2616  160.7584 C   0  0  0  0  0  0  0  0  0  0  0  0
  153.4232  142.7826  160.5865 C   0  0  0  0  0  0  0  0  0  0  0  0
  152.1591  143.2211  159.8204 C   0  0  1  0  0  0  0  0  0  0  0  0
  152.1318  144.7570  159.7120 C   0  0  0  0  0  0  0  0  0  0  0  0
  152.0642  142.5069  158.4415 C   0  0  2  0  0  0  0  0  0  0  0  0
  150.7794  142.8933  157.6762 C   0  0  0  0  0  0  0  0  0  0  0  0
  150.7402  136.8110  155.4128 C   0  0  0  0  0  0  0  0  0  0  0  0
  151.5272  136.0040  155.9164 O   0  0  0  0  0  0  0  0  0  0  0  0
  147.9441  131.7324  153.5278 H   0  0  0  0  0  0  0  0  0  0  0  0
  148.7993  132.9427  152.5705 H   0  0  0  0  0  0  0  0  0  0  0  0
  147.5937  133.4438  153.7700 H   0  0  0  0  0  0  0  0  0  0  0  0
  150.9281  133.9559  155.2379 H   0  0  0  0  0  0  0  0  0  0  0  0
  150.3248  134.3802  153.6444 H   0  0  0  0  0  0  0  0  0  0  0  0
  148.0399  134.9045  154.9438 H   0  0  0  0  0  0  0  0  0  0  0  0
  149.0128  134.9108  156.3731 H   0  0  0  0  0  0  0  0  0  0  0  0
  146.9840  136.0110  154.1676 H   0  0  0  0  0  0  0  0  0  0  0  0
  146.6112  137.6344  153.7631 H   0  0  0  0  0  0  0  0  0  0  0  0
  148.2641  139.3291  153.7843 H   0  0  0  0  0  0  0  0  0  0  0  0
  153.1984  137.7439  155.4754 H   0  0  0  0  0  0  0  0  0  0  0  0
  152.8861  139.3650  154.9958 H   0  0  0  0  0  0  0  0  0  0  0  0
  151.9137  140.8649  156.5093 H   0  0  0  0  0  0  0  0  0  0  0  0
  151.2950  140.6284  159.1644 H   0  0  0  0  0  0  0  0  0  0  0  0
  153.4591  139.4828  159.5445 H   0  0  0  0  0  0  0  0  0  0  0  0
  154.3267  140.8165  158.8235 H   0  0  0  0  0  0  0  0  0  0  0  0
  152.6578  140.9235  161.3807 H   0  0  0  0  0  0  0  0  0  0  0  0
  154.4026  140.9846  161.2824 H   0  0  0  0  0  0  0  0  0  0  0  0
  153.4475  143.2554  161.5689 H   0  0  0  0  0  0  0  0  0  0  0  0
  154.3137  143.1266  160.0580 H   0  0  0  0  0  0  0  0  0  0  0  0
  151.2948  142.9211  160.4150 H   0  0  0  0  0  0  0  0  0  0  0  0
  152.9188  145.1224  159.0516 H   0  0  0  0  0  0  0  0  0  0  0  0
  152.2788  145.2199  160.6882 H   0  0  0  0  0  0  0  0  0  0  0  0
  151.1775  145.1224  159.3347 H   0  0  0  0  0  0  0  0  0  0  0  0
  152.9135  142.8352  157.8399 H   0  0  0  0  0  0  0  0  0  0  0  0
  149.8876  142.6295  158.2451 H   0  0  0  0  0  0  0  0  0  0  0  0
  150.7141  142.3918  156.7109 H   0  0  0  0  0  0  0  0  0  0  0  0
  150.7383  143.9608  157.4643 H   0  0  0  0  0  0  0  0  0  0  0  0
  1  2  1  0  0  0  0
  1 26  1  0  0  0  0
  1 27  1  0  0  0  0
  1 28  1  0  0  0  0
  2  3  1  0  0  0  0
  3  4  1  0  0  0  0
  3 29  1  0  0  0  0
  3 30  1  0  0  0  0
  4  5  1  0  0  0  0
  4 31  1  0  0  0  0
  4 32  1  0  0  0  0
  5 24  1  0  0  0  0
  5  6  1  0  0  0  0
  6  7  1  0  0  0  0
  6  8  2  0  0  0  0
  7 33  1  0  0  0  0
  7 34  1  0  0  0  0
  8  9  1  0  0  0  0
  8 35  1  0  0  0  0
  9 10  2  0  0  0  0
  9 11  1  0  0  0  0
 11 12  1  0  0  0  0
 11 24  1  0  0  0  0
 12 13  1  0  0  0  0
 12 36  1  0  0  0  0
 12 37  1  0  0  0  0
 13 14  2  0  0  0  0
 13 15  1  0  0  0  0
 15 16  1  0  0  0  0
 15 38  1  0  0  0  0
 16 22  1  0  0  0  0
 16 17  1  0  0  0  0
 16 39  1  0  0  0  0
 17 18  1  0  0  0  0
 17 40  1  0  0  0  0
 17 41  1  0  0  0  0
 18 19  1  0  0  0  0
 18 42  1  0  0  0  0
 18 43  1  0  0  0  0
 19 20  1  0  0  0  0
 19 44  1  0  0  0  0
 19 45  1  0  0  0  0
 20 21  1  0  0  0  0
 20 22  1  0  0  0  0
 20 46  1  0  0  0  0
 21 47  1  0  0  0  0
 21 48  1  0  0  0  0
 21 49  1  0  0  0  0
 22 23  1  0  0  0  0
 22 50  1  0  0  0  0
 23 51  1  0  0  0  0
 23 52  1  0  0  0  0
 23 53  1  0  0  0  0
 24 25  2  0  0  0  0
M  END
> <s_m_source_file>
AV-unprocessed.smi

> <i_m_source_file_index>
415

> <i_lp_mmshare_version>
43012

> <i_f3d_flags>
0

> <s_epik_input>
W0NIM11PW0NIMl1bQ0gyXW4xYyhbTkgyXSlbY0hdYyg9TyluKGMxPU8pW0NIMl1DKD1PKVtOSF1bQ0BASF0yW0NIMl1bQ0gyXVtDSDJdW0NAQEhdKFtDSDNdKVtDQEhdMltDSDNd

> <s_epik_cmdline>
J2VwaWtfcHl0aG9uJywgJy1waCcsICc3LjAnLCAnLXRuJywgJzgnLCAnLW1hJywgJzIwMCcsICctbWV0YWxfYmluZGluZycsICctaW1hZScsICc8aW5maWxlLm1hZT4nLCAnLW9tYWUnLCAnPG91dGZpbGUubWFlPic=

> <r_lp_tautomer_probability>
1

> <r_epik_Ionization_Penalty>
8.6647e-06

> <r_epik_Ionization_Penalty_Charging>
1.81162e-08

> <r_epik_Ionization_Penalty_Neutral>
8.64658e-06

> <r_epik_State_Penalty>
-0

> <r_epik_Charging_Adjusted_Penalty>
1.81162e-08

> <i_epik_Tot_Q>
0

> <i_epik_Tot_abs_Q>
0

> <r_epik_Metal_State_Penalty>
-0

> <b_epik_Metal_Only>
0

> <s_lp_Force_Field>
OPLS_2005

> <r_lp_Energy>
22.0049

> <b_lp_Chiralities_Consistent>
1

> <s_lp_Variant>
AV-unprocessed.smi:415-6

> <Gold.Version>
5.8.1

> <Gold.Id.Protein>
6NUR|6NUR_protein|mol2

> <Gold.PLP.Fitness>
47.2024

> <Gold.PLP.PLP>
-43.2927

> <Gold.PLP.part.hbond>
-2.9608

> <Gold.PLP.part.metal>
0.0000

> <Gold.PLP.part.buried>
-2.8100

> <Gold.PLP.part.nonpolar>
-37.2383

> <Gold.PLP.part.repulsive>
0.3081

> <Gold.PLP.ligand.clash>
0.0000

> <Gold.PLP.ligand.torsion>
1.0557

> <Gold.PLP.Chemscore.Hbond>
2.0000

> <Gold.PLP.Chemscore.CHOScore>
0.0000

> <Gold.PLP.Chemscore.Metal>
0.0000

> <Gold.Chemscore.Hbonds>
donor molecule, donor type, donor heavy atom, donor atom, acceptor molecule, acceptor atom, score
      P1  H  7989  7998       L1    10  0.94
      P1  H 10752 10764       L1    25  1.00

> <Gold.PLP.Chemscore.Internal.Correction>
0.0212

> <Gold.Rescore>
     Score         DG    S(hbond)    S(metal)    S(lipo)     H(rot)  DE(clash)    DE(int)     intcor
     14.78     -18.40       1.99        0.00     103.31       2.26       0.09       3.54       ----

> <Gold.Chemscore.Fitness>
14.7760

> <Gold.Chemscore.DG>
-18.4004

> <Gold.Chemscore.ZeroCoef>
-5.4800

> <Gold.Chemscore.Hbond>
1.9852

> <Gold.Chemscore.Metal>
0.0000

> <Gold.Chemscore.Lipo>
103.3073

> <Gold.Chemscore.Internal_Hbond>
0.0000

> <Gold.Chemscore.DEClash>
0.0862

> <Gold.Chemscore.DEInternal>
3.5383

> <Gold.Chemscore.Rot>
2.2645

> <Gold.Chemscore.Internal.Correction>
   9.000000E+99

> <Gold.Chemscore.Hbonds>
donor molecule, donor type, donor heavy atom, donor atom, acceptor molecule, acceptor atom, score
      P1  H  7989  7998       L1    10  0.89
      P1  H 10752 10764       L1    25  0.96

> <Gold.Chemscore.Hbond.Weighted>
-6.6307

> <Gold.Chemscore.Metal.Weighted>
-0.0000

> <Gold.Chemscore.Lipo.Weighted>
-12.0869

> <Gold.Chemscore.Internal_Hbond.Weighted>
0.0000

> <Gold.Chemscore.DEClash.Weighted>
0.0862

> <Gold.Chemscore.DEInternal.Weighted>
3.5383

> <Gold.Chemscore.Rot.Weighted>
5.7972

> <Gold.Chemscore.Internal.Correction.Weighted>
   9.000000E+99

> <Gold.Protein.RotatedTorsions>
[ 6907 6896 6895 6894 ] final   33.84 input  -60.11 | X-H torsion
[ 7974 7965 7964 7962 ] final  138.35 input  175.53 | X-H torsion
[ 8008 7997 7996 7995 ] final  -55.11 input   59.86 | X-H torsion
[ 10167 10162 10161 10158 ] final   55.23 input  -65.29 | X-H torsion
[ 10718 10713 10712 10709 ] final   53.10 input   66.30 | X-H torsion
[ 10763 10752 10751 10750 ] final  -40.42 input  -60.55 | X-H torsion
[ 11005 11000 10999 10996 ] final   93.77 input  -57.11 | X-H torsion

> <Gold.Protein.ActiveResidues>
 VAL166  LYS551  ARG553  GLY616  TRP617  ASP618  TYR619  PRO620  LYS621  CYS622 
 ASP623  PHE694  ASN695  SER759  ASP760  ASP761  ALA762  ILE779  LEU786  VAL792 
 PHE793  MET794  SER795  GLU796  ALA797  LYS798  CYS799  TRP800  GLU811  SER814 

> <Gold.Protein.RotatedAtoms>
  152.0941  134.9387  160.0570 H   0  0  0  0  0  0  0  0  0  0  0  0  # atno 6907 bound_to 6896
  152.0627  133.4065  159.4433 H   0  0  0  0  0  0  0  0  0  0  0  0  # atno 6908 bound_to 6896
  150.6837  134.3102  159.4786 H   0  0  0  0  0  0  0  0  0  0  0  0  # atno 6909 bound_to 6896
  144.9381  139.4964  143.5585 H   0  0  0  0  0  0  0  0  0  0  0  0  # atno 7974 bound_to 7965
  154.4184  140.1160  156.5424 H   0  0  0  0  0  0  0  0  0  0  0  0  # atno 8008 bound_to 7997
  155.6495  140.3496  155.4724 H   0  0  0  0  0  0  0  0  0  0  0  0  # atno 8009 bound_to 7997
  155.9804  140.1159  157.0721 H   0  0  0  0  0  0  0  0  0  0  0  0  # atno 8010 bound_to 7997
  140.2217  144.3781  150.6448 H   0  0  0  0  0  0  0  0  0  0  0  0  # atno 10167 bound_to 10162
  157.5136  130.8517  149.8466 H   0  0  0  0  0  0  0  0  0  0  0  0  # atno 10718 bound_to 10713
  153.9457  135.6756  153.4744 H   0  0  0  0  0  0  0  0  0  0  0  0  # atno 10763 bound_to 10752
  153.0909  135.4875  154.8685 H   0  0  0  0  0  0  0  0  0  0  0  0  # atno 10764 bound_to 10752
  154.7353  135.3147  154.8781 H   0  0  0  0  0  0  0  0  0  0  0  0  # atno 10765 bound_to 10752
  139.8806  134.8809  156.3767 H   0  0  0  0  0  0  0  0  0  0  0  0  # atno 11005 bound_to 11000
  146.3275  139.8380  142.8896 LP  0  0  0  0  0  0  0  0  0  0  0  0  # atno 17320 bound_to 7965
  145.3035  141.0200  143.3595 LP  0  0  0  0  0  0  0  0  0  0  0  0  # atno 17321 bound_to 7965
  140.6250  143.2180  151.6615 LP  0  0  0  0  0  0  0  0  0  0  0  0  # atno 17342 bound_to 10162
  139.5142  144.3419  152.0732 LP  0  0  0  0  0  0  0  0  0  0  0  0  # atno 17343 bound_to 10162
  156.0305  130.3766  150.1700 LP  0  0  0  0  0  0  0  0  0  0  0  0  # atno 17370 bound_to 10713
  156.9890  130.9887  151.3419 LP  0  0  0  0  0  0  0  0  0  0  0  0  # atno 17371 bound_to 10713
  140.9427  133.7504  156.0167 LP  0  0  0  0  0  0  0  0  0  0  0  0  # atno 17394 bound_to 11000
  140.8200  134.3300  157.5384 LP  0  0  0  0  0  0  0  0  0  0  0  0  # atno 17395 bound_to 11000

$$$$
