AV-unprocessed.smi:2698|AV-procd|sdf|10417|dock2
  -GOLD-   2272014453D 1   1.00000     0.00000
 Structure written by MMmdl.
 34 34  0  0  0  0  0  0  0  0  3 V2000
  152.3906  142.5149  159.8917 C   0  0  0  0  0  0  0  0  0  0  0  0
  152.0545  142.6256  158.3927 C   0  0  0  0  0  0  0  0  0  0  0  0
  151.8854  144.0977  157.9883 C   0  0  0  0  0  0  0  0  0  0  0  0
  150.8099  141.8052  157.9819 C   0  0  0  0  0  0  0  0  0  0  0  0
  150.8466  141.3383  156.5248 C   0  0  0  0  0  0  0  0  0  0  0  0
  151.0294  142.1532  155.6207 O   0  0  0  0  0  0  0  0  0  0  0  0
  150.6690  140.0244  156.3188 N   0  0  0  0  0  0  0  0  0  0  0  0
  150.6330  139.3475  155.0227 C   0  0  2  0  0  0  0  0  0  0  0  0
  149.4158  138.4000  154.9633 C   0  0  0  0  0  0  0  0  0  0  0  0
  148.2669  138.8594  154.0949 C   0  0  0  0  0  0  0  0  0  0  0  0
  147.2544  139.7768  154.3171 C   0  0  0  0  0  0  0  0  0  0  0  0
  146.4722  139.8199  153.1751 N   0  0  0  0  0  0  0  0  0  0  0  0
  147.0162  138.9717  152.3054 C   0  0  0  0  0  0  0  0  0  0  0  0
  148.0976  138.3773  152.8060 N   0  3  0  0  0  0  0  0  0  0  0  0
  151.9402  138.5734  154.8226 C   0  0  0  0  0  0  0  0  0  0  0  0
  153.0064  139.2281  154.8451 O   0  0  0  0  0  0  0  0  0  0  0  0
  151.8510  137.3375  154.6586 O   0  5  0  0  0  0  0  0  0  0  0  0
  145.6523  140.3917  153.0290 H   0  0  0  0  0  0  0  0  0  0  0  0
  151.5508  142.8343  160.5095 H   0  0  0  0  0  0  0  0  0  0  0  0
  153.2470  143.1393  160.1477 H   0  0  0  0  0  0  0  0  0  0  0  0
  152.6456  141.4942  160.1762 H   0  0  0  0  0  0  0  0  0  0  0  0
  152.9108  142.2392  157.8372 H   0  0  0  0  0  0  0  0  0  0  0  0
  151.0400  144.5553  158.5030 H   0  0  0  0  0  0  0  0  0  0  0  0
  151.7143  144.1941  156.9158 H   0  0  0  0  0  0  0  0  0  0  0  0
  152.7761  144.6785  158.2299 H   0  0  0  0  0  0  0  0  0  0  0  0
  150.7077  140.9318  158.6274 H   0  0  0  0  0  0  0  0  0  0  0  0
  149.9069  142.3989  158.1338 H   0  0  0  0  0  0  0  0  0  0  0  0
  150.5617  139.4325  157.1303 H   0  0  0  0  0  0  0  0  0  0  0  0
  150.5518  140.0718  154.2098 H   0  0  0  0  0  0  0  0  0  0  0  0
  149.7260  137.4211  154.5945 H   0  0  0  0  0  0  0  0  0  0  0  0
  149.0310  138.2361  155.9713 H   0  0  0  0  0  0  0  0  0  0  0  0
  147.0194  140.3949  155.1706 H   0  0  0  0  0  0  0  0  0  0  0  0
  146.6295  138.7897  151.3132 H   0  0  0  0  0  0  0  0  0  0  0  0
  148.6810  137.6973  152.3394 H   0  0  0  0  0  0  0  0  0  0  0  0
  1  2  1  0  0  0  0
  1 19  1  0  0  0  0
  1 20  1  0  0  0  0
  1 21  1  0  0  0  0
  2  3  1  0  0  0  0
  2  4  1  0  0  0  0
  2 22  1  0  0  0  0
  3 23  1  0  0  0  0
  3 24  1  0  0  0  0
  3 25  1  0  0  0  0
  4  5  1  0  0  0  0
  4 26  1  0  0  0  0
  4 27  1  0  0  0  0
  5  6  2  0  0  0  0
  5  7  1  0  0  0  0
  7  8  1  0  0  0  0
  7 28  1  0  0  0  0
  8  9  1  0  0  0  0
  8 15  1  0  0  0  0
  8 29  1  0  0  0  0
  9 10  1  0  0  0  0
  9 30  1  0  0  0  0
  9 31  1  0  0  0  0
 10 14  1  0  0  0  0
 10 11  2  0  0  0  0
 11 12  1  0  0  0  0
 11 32  1  0  0  0  0
 12 18  1  0  0  0  0
 12 13  1  0  0  0  0
 13 14  2  0  0  0  0
 13 33  1  0  0  0  0
 14 34  1  0  0  0  0
 15 16  2  0  0  0  0
 15 17  1  0  0  0  0
M  CHG  1  14   1
M  CHG  1  17  -1
M  END
> <s_m_source_file>
AV-unprocessed.smi

> <i_m_source_file_index>
2698

> <i_lp_mmshare_version>
43012

> <i_f3d_flags>
0

> <s_epik_input>
W0NIM11bQ0hdKFtDSDNdKVtDSDJdQyg9TylbTkhdW0NAQEhdKEMoPU8pW09IXSlbQ0gyXWMxW2NIXVtuSF1bY0hdbjE=

> <s_epik_cmdline>
J2VwaWtfcHl0aG9uJywgJy1waCcsICc3LjAnLCAnLXRuJywgJzgnLCAnLW1hJywgJzIwMCcsICctbWV0YWxfYmluZGluZycsICctaW1hZScsICc8aW5maWxlLm1hZT4nLCAnLW9tYWUnLCAnPG91dGZpbGUubWFlPic=

> <r_lp_tautomer_probability>
1

> <r_epik_Ionization_Penalty>
0.478676

> <r_epik_Ionization_Penalty_Charging>
5.56794e-05

> <r_epik_Ionization_Penalty_Neutral>
0.478621

> <r_epik_State_Penalty>
0.385221

> <r_epik_Charging_Adjusted_Penalty>
0.385276

> <i_epik_Tot_Q>
0

> <i_epik_Tot_abs_Q>
2

> <r_epik_Metal_State_Penalty>
0.800557

> <b_epik_Metal_Only>
0

> <s_lp_Force_Field>
OPLS_2005

> <r_lp_Energy>
0.68782

> <b_lp_Chiralities_Consistent>
1

> <s_lp_Variant>
AV-unprocessed.smi:2698-1

> <Gold.Version>
5.8.1

> <Gold.Id.Protein>
6NUR|6NUR_protein|mol2

> <Gold.PLP.Fitness>
52.8289

> <Gold.PLP.PLP>
-32.1841

> <Gold.PLP.part.hbond>
-6.6544

> <Gold.PLP.part.metal>
0.0000

> <Gold.PLP.part.buried>
-0.6814

> <Gold.PLP.part.nonpolar>
-26.6342

> <Gold.PLP.part.repulsive>
0.4021

> <Gold.PLP.ligand.clash>
0.0000

> <Gold.PLP.ligand.torsion>
1.4443

> <Gold.PLP.Chemscore.Hbond>
7.8243

> <Gold.PLP.Chemscore.CHOScore>
0.0000

> <Gold.PLP.Chemscore.Metal>
0.0000

> <Gold.Chemscore.Hbonds>
donor molecule, donor type, donor heavy atom, donor atom, acceptor molecule, acceptor atom, score
      L1  H    12    18       P1 10175  1.84
      L1  H    14    34       P1  7948  2.00
      P1  H  7997  8010       L1    16  1.92
      P1  H 10752 10765       L1    17  1.95

> <Gold.PLP.Chemscore.Internal.Correction>
0.0604

> <Gold.Rescore>
     Score         DG    S(hbond)    S(metal)    S(lipo)     H(rot)  DE(clash)    DE(int)     intcor
     13.60     -16.62       3.58        0.00      60.55       3.09       1.55       1.47       ----

> <Gold.Chemscore.Fitness>
13.6031

> <Gold.Chemscore.DG>
-16.6241

> <Gold.Chemscore.ZeroCoef>
-5.4800

> <Gold.Chemscore.Hbond>
3.5829

> <Gold.Chemscore.Metal>
0.0000

> <Gold.Chemscore.Lipo>
60.5504

> <Gold.Chemscore.Internal_Hbond>
0.0000

> <Gold.Chemscore.DEClash>
1.5500

> <Gold.Chemscore.DEInternal>
1.4710

> <Gold.Chemscore.Rot>
3.0887

> <Gold.Chemscore.Internal.Correction>
   9.000000E+99

> <Gold.Chemscore.Hbonds>
donor molecule, donor type, donor heavy atom, donor atom, acceptor molecule, acceptor atom, score
      L1  H    12    18       P1 10175  0.78
      L1  H    14    34       P1  7948  0.91
      P1  H  7997  8010       L1    16  0.91
      P1  H 10752 10765       L1    17  0.88

> <Gold.Chemscore.Hbond.Weighted>
-11.9667

> <Gold.Chemscore.Metal.Weighted>
-0.0000

> <Gold.Chemscore.Lipo.Weighted>
-7.0844

> <Gold.Chemscore.Internal_Hbond.Weighted>
0.0000

> <Gold.Chemscore.DEClash.Weighted>
1.5500

> <Gold.Chemscore.DEInternal.Weighted>
1.4710

> <Gold.Chemscore.Rot.Weighted>
7.9070

> <Gold.Chemscore.Internal.Correction.Weighted>
   9.000000E+99

> <Gold.Protein.RotatedTorsions>
[ 6907 6896 6895 6894 ] final  168.39 input  -60.11 | X-H torsion
[ 7974 7965 7964 7962 ] final  -13.05 input  175.53 | X-H torsion
[ 8008 7997 7996 7995 ] final   95.48 input   59.86 | X-H torsion
[ 10167 10162 10161 10158 ] final  108.59 input  -65.29 | X-H torsion
[ 10718 10713 10712 10709 ] final  -72.31 input   66.30 | X-H torsion
[ 10763 10752 10751 10750 ] final  167.33 input  -60.55 | X-H torsion
[ 11005 11000 10999 10996 ] final  134.50 input  -57.11 | X-H torsion

> <Gold.Protein.ActiveResidues>
 VAL166  LYS551  ARG553  GLY616  TRP617  ASP618  TYR619  PRO620  LYS621  CYS622 
 ASP623  PHE694  ASN695  SER759  ASP760  ASP761  ALA762  ILE779  LEU786  VAL792 
 PHE793  MET794  SER795  GLU796  ALA797  LYS798  CYS799  TRP800  GLU811  SER814 

> <Gold.Protein.RotatedAtoms>
  151.8484  133.3435  159.3665 H   0  0  0  0  0  0  0  0  0  0  0  0  # atno 6907 bound_to 6896
  150.7214  134.5323  159.5716 H   0  0  0  0  0  0  0  0  0  0  0  0  # atno 6908 bound_to 6896
  152.2811  134.7827  160.0447 H   0  0  0  0  0  0  0  0  0  0  0  0  # atno 6909 bound_to 6896
  146.2129  140.3147  142.8385 H   0  0  0  0  0  0  0  0  0  0  0  0  # atno 7974 bound_to 7965
  156.0694  140.3286  155.7557 H   0  0  0  0  0  0  0  0  0  0  0  0  # atno 8008 bound_to 7997
  155.5330  140.0595  157.2902 H   0  0  0  0  0  0  0  0  0  0  0  0  # atno 8009 bound_to 7997
  154.4522  140.1924  156.0503 H   0  0  0  0  0  0  0  0  0  0  0  0  # atno 8010 bound_to 7997
  139.6834  144.7116  151.1475 H   0  0  0  0  0  0  0  0  0  0  0  0  # atno 10167 bound_to 10162
  156.0326  130.4369  150.2573 H   0  0  0  0  0  0  0  0  0  0  0  0  # atno 10718 bound_to 10713
  154.3522  135.2753  155.2365 H   0  0  0  0  0  0  0  0  0  0  0  0  # atno 10763 bound_to 10752
  154.4590  135.5912  153.6246 H   0  0  0  0  0  0  0  0  0  0  0  0  # atno 10764 bound_to 10752
  152.9849  135.6060  154.3734 H   0  0  0  0  0  0  0  0  0  0  0  0  # atno 10765 bound_to 10752
  139.9919  134.9512  156.9875 H   0  0  0  0  0  0  0  0  0  0  0  0  # atno 11005 bound_to 11000
  144.8963  140.7587  143.5895 LP  0  0  0  0  0  0  0  0  0  0  0  0  # atno 17320 bound_to 7965
  145.3071  139.1831  143.4658 LP  0  0  0  0  0  0  0  0  0  0  0  0  # atno 17321 bound_to 7965
  140.7660  143.5665  150.9042 LP  0  0  0  0  0  0  0  0  0  0  0  0  # atno 17342 bound_to 10162
  139.9339  143.6461  152.3070 LP  0  0  0  0  0  0  0  0  0  0  0  0  # atno 17343 bound_to 10162
  157.0675  131.0107  151.3202 LP  0  0  0  0  0  0  0  0  0  0  0  0  # atno 17370 bound_to 10713
  157.5024  130.7888  149.7619 LP  0  0  0  0  0  0  0  0  0  0  0  0  # atno 17371 bound_to 10713
  140.4892  134.1210  155.7230 LP  0  0  0  0  0  0  0  0  0  0  0  0  # atno 17394 bound_to 11000
  141.1573  133.8859  157.1944 LP  0  0  0  0  0  0  0  0  0  0  0  0  # atno 17395 bound_to 11000

$$$$
