AV-unprocessed.smi:1039|AV-procd|sdf|4523|dock6
  -GOLD-   22720 2543D 1   1.00000     0.00000
 Structure written by MMmdl.
 41 42  0  0  0  0  0  0  0  0  2 V2000
  144.3728  139.5660  155.8138 C   0  0  0  0  0  0  0  0  0  0  0  0
  145.3483  140.3280  154.9065 C   0  0  0  0  0  0  0  0  0  0  0  0
  146.3469  139.3748  154.2148 C   0  0  0  0  0  0  0  0  0  0  0  0
  147.3850  140.1593  153.3926 C   0  0  0  0  0  0  0  0  0  0  0  0
  148.0736  141.1093  154.2830 N   0  0  0  0  0  0  0  0  0  0  0  0
  149.3446  141.0014  154.7465 C   0  0  0  0  0  0  0  0  0  0  0  0
  150.0807  140.0487  154.4881 O   0  0  0  0  0  0  0  0  0  0  0  0
  149.7374  142.0059  155.5476 N   0  0  0  0  0  0  0  0  0  0  0  0
  151.0402  142.1129  156.1978 C   0  0  0  0  0  0  0  0  0  0  0  0
  150.9819  141.9087  157.7265 C   0  0  0  0  0  0  0  0  0  0  0  0
  151.1226  143.1654  158.5352 C   0  0  0  0  0  0  0  0  0  0  0  0
  150.5929  144.3499  158.2060 N   0  3  0  0  0  0  0  0  0  0  0  0
  150.9160  145.2955  159.1393 C   0  0  0  0  0  0  0  0  0  0  0  0
  151.6764  144.6598  160.0848 C   0  0  0  0  0  0  0  0  0  0  0  0
  151.7883  143.3511  159.6893 N   0  0  0  0  0  0  0  0  0  0  0  0
  152.5094  142.2948  160.4073 C   0  0  0  0  0  0  0  0  0  0  0  0
  153.5764  141.9034  159.7111 F   0  0  0  0  0  0  0  0  0  0  0  0
  152.8711  142.7135  161.6190 F   0  0  0  0  0  0  0  0  0  0  0  0
  147.1452  142.1284  154.7879 C   0  0  0  0  0  0  0  0  0  0  0  0
  146.0896  141.4434  155.6753 C   0  0  0  0  0  0  0  0  0  0  0  0
  144.8975  139.0658  156.6283 H   0  0  0  0  0  0  0  0  0  0  0  0
  143.8272  138.8065  155.2534 H   0  0  0  0  0  0  0  0  0  0  0  0
  143.6387  140.2408  156.2549 H   0  0  0  0  0  0  0  0  0  0  0  0
  144.7599  140.8077  154.1230 H   0  0  0  0  0  0  0  0  0  0  0  0
  146.8604  138.7689  154.9628 H   0  0  0  0  0  0  0  0  0  0  0  0
  145.8117  138.6792  153.5679 H   0  0  0  0  0  0  0  0  0  0  0  0
  148.0515  139.4650  152.8813 H   0  0  0  0  0  0  0  0  0  0  0  0
  146.8854  140.7136  152.5967 H   0  0  0  0  0  0  0  0  0  0  0  0
  149.0824  142.7561  155.7141 H   0  0  0  0  0  0  0  0  0  0  0  0
  151.7449  141.4119  155.7482 H   0  0  0  0  0  0  0  0  0  0  0  0
  151.4223  143.1082  155.9753 H   0  0  0  0  0  0  0  0  0  0  0  0
  150.0253  141.4682  158.0102 H   0  0  0  0  0  0  0  0  0  0  0  0
  151.7524  141.2107  158.0521 H   0  0  0  0  0  0  0  0  0  0  0  0
  150.5879  146.3219  159.0629 H   0  0  0  0  0  0  0  0  0  0  0  0
  152.1344  145.0335  160.9893 H   0  0  0  0  0  0  0  0  0  0  0  0
  151.8567  141.4304  160.5338 H   0  0  0  0  0  0  0  0  0  0  0  0
  147.6473  142.9171  155.3499 H   0  0  0  0  0  0  0  0  0  0  0  0
  146.6621  142.6282  153.9470 H   0  0  0  0  0  0  0  0  0  0  0  0
  145.3764  142.1834  156.0396 H   0  0  0  0  0  0  0  0  0  0  0  0
  146.5771  141.0247  156.5570 H   0  0  0  0  0  0  0  0  0  0  0  0
  150.0332  144.5181  157.3791 H   0  0  0  0  0  0  0  0  0  0  0  0
  1  2  1  0  0  0  0
  1 21  1  0  0  0  0
  1 22  1  0  0  0  0
  1 23  1  0  0  0  0
  2 20  1  0  0  0  0
  2  3  1  0  0  0  0
  2 24  1  0  0  0  0
  3  4  1  0  0  0  0
  3 25  1  0  0  0  0
  3 26  1  0  0  0  0
  4  5  1  0  0  0  0
  4 27  1  0  0  0  0
  4 28  1  0  0  0  0
  5  6  1  0  0  0  0
  5 19  1  0  0  0  0
  6  7  2  0  0  0  0
  6  8  1  0  0  0  0
  8  9  1  0  0  0  0
  8 29  1  0  0  0  0
  9 10  1  0  0  0  0
  9 30  1  0  0  0  0
  9 31  1  0  0  0  0
 10 11  1  0  0  0  0
 10 32  1  0  0  0  0
 10 33  1  0  0  0  0
 11 15  1  0  0  0  0
 11 12  2  0  0  0  0
 12 13  1  0  0  0  0
 12 41  1  0  0  0  0
 13 14  2  0  0  0  0
 13 34  1  0  0  0  0
 14 15  1  0  0  0  0
 14 35  1  0  0  0  0
 15 16  1  0  0  0  0
 16 17  1  0  0  0  0
 16 18  1  0  0  0  0
 16 36  1  0  0  0  0
 19 20  1  0  0  0  0
 19 37  1  0  0  0  0
 19 38  1  0  0  0  0
 20 39  1  0  0  0  0
 20 40  1  0  0  0  0
M  CHG  1  12   1
M  END
> <s_m_source_file>
AV-unprocessed.smi

> <i_m_source_file_index>
1039

> <i_lp_mmshare_version>
43012

> <i_f3d_flags>
0

> <s_epik_input>
W0NIM11bQ0hdMVtDSDJdW0NIMl1OKFtDSDJdW0NIMl0xKUMoPU8pW05IXVtDSDJdW0NIMl1jMm5bY0hdW2NIXW4yW0NIXShGKUY=

> <s_epik_cmdline>
J2VwaWtfcHl0aG9uJywgJy1waCcsICc3LjAnLCAnLXRuJywgJzgnLCAnLW1hJywgJzIwMCcsICctbWV0YWxfYmluZGluZycsICctaW1hZScsICc8aW5maWxlLm1hZT4nLCAnLW9tYWUnLCAnPG91dGZpbGUubWFlPic=

> <r_lp_tautomer_probability>
1

> <r_epik_Ionization_Penalty>
1.09425

> <r_epik_Ionization_Penalty_Charging>
0

> <r_epik_Ionization_Penalty_Neutral>
1.09425

> <r_epik_State_Penalty>
1.15074

> <r_epik_Charging_Adjusted_Penalty>
1.15074

> <i_epik_Tot_Q>
1

> <i_epik_Tot_abs_Q>
1

> <r_epik_Metal_State_Penalty>
1.2388

> <b_epik_Metal_Only>
0

> <s_lp_Force_Field>
OPLS_2005

> <r_lp_Energy>
37.2769

> <b_lp_Chiralities_Consistent>
1

> <s_lp_Variant>
AV-unprocessed.smi:1039-2

> <Gold.Version>
5.8.1

> <Gold.Id.Protein>
6NUR|6NUR_protein|mol2

> <Gold.PLP.Fitness>
51.0301

> <Gold.PLP.PLP>
-42.7619

> <Gold.PLP.part.hbond>
-3.2564

> <Gold.PLP.part.metal>
0.0000

> <Gold.PLP.part.buried>
-4.4224

> <Gold.PLP.part.nonpolar>
-36.1574

> <Gold.PLP.part.repulsive>
0.3485

> <Gold.PLP.ligand.clash>
1.6592

> <Gold.PLP.ligand.torsion>
0.8552

> <Gold.PLP.Chemscore.Hbond>
3.8640

> <Gold.PLP.Chemscore.CHOScore>
0.0000

> <Gold.PLP.Chemscore.Metal>
0.0000

> <Gold.Chemscore.Hbonds>
donor molecule, donor type, donor heavy atom, donor atom, acceptor molecule, acceptor atom, score
      L1  H     8    29       P1  8028  0.86
      L1  H    12    41       P1  8028  1.95
      P1  H  7989  7998       L1     7  1.00

> <Gold.PLP.Chemscore.Internal.Correction>
0.0457

> <Gold.Rescore>
     Score         DG    S(hbond)    S(metal)    S(lipo)     H(rot)  DE(clash)    DE(int)     intcor
     14.18     -15.52       1.75        0.00      70.89       1.61       0.51       0.83       ----

> <Gold.Chemscore.Fitness>
14.1763

> <Gold.Chemscore.DG>
-15.5170

> <Gold.Chemscore.ZeroCoef>
-5.4800

> <Gold.Chemscore.Hbond>
1.7522

> <Gold.Chemscore.Metal>
0.0000

> <Gold.Chemscore.Lipo>
70.8869

> <Gold.Chemscore.Internal_Hbond>
0.0000

> <Gold.Chemscore.DEClash>
0.5074

> <Gold.Chemscore.DEInternal>
0.8332

> <Gold.Chemscore.Rot>
1.6051

> <Gold.Chemscore.Internal.Correction>
   9.000000E+99

> <Gold.Chemscore.Hbonds>
donor molecule, donor type, donor heavy atom, donor atom, acceptor molecule, acceptor atom, score
      L1  H     8    29       P1  8028  0.83
      L1  H    12    41       P1  8028  0.27
      P1  H  7989  7998       L1     7  0.42

> <Gold.Chemscore.Hbond.Weighted>
-5.8524

> <Gold.Chemscore.Metal.Weighted>
-0.0000

> <Gold.Chemscore.Lipo.Weighted>
-8.2938

> <Gold.Chemscore.Internal_Hbond.Weighted>
0.0000

> <Gold.Chemscore.DEClash.Weighted>
0.5074

> <Gold.Chemscore.DEInternal.Weighted>
0.8332

> <Gold.Chemscore.Rot.Weighted>
4.1092

> <Gold.Chemscore.Internal.Correction.Weighted>
   9.000000E+99

> <Gold.Protein.RotatedTorsions>
[ 6907 6896 6895 6894 ] final -152.37 input  -60.11 | X-H torsion
[ 7974 7965 7964 7962 ] final   96.86 input  175.53 | X-H torsion
[ 8008 7997 7996 7995 ] final  143.00 input   59.86 | X-H torsion
[ 10167 10162 10161 10158 ] final -169.98 input  -65.29 | X-H torsion
[ 10718 10713 10712 10709 ] final  -23.26 input   66.30 | X-H torsion
[ 10763 10752 10751 10750 ] final -152.85 input  -60.55 | X-H torsion
[ 11005 11000 10999 10996 ] final  155.43 input  -57.11 | X-H torsion

> <Gold.Protein.ActiveResidues>
 VAL166  LYS551  ARG553  GLY616  TRP617  ASP618  TYR619  PRO620  LYS621  CYS622 
 ASP623  PHE694  ASN695  SER759  ASP760  ASP761  ALA762  ILE779  LEU786  VAL792 
 PHE793  MET794  SER795  GLU796  ALA797  LYS798  CYS799  TRP800  GLU811  SER814 

> <Gold.Protein.RotatedAtoms>
  151.2267  133.4472  159.2602 H   0  0  0  0  0  0  0  0  0  0  0  0  # atno 6907 bound_to 6896
  151.0833  134.9871  159.8377 H   0  0  0  0  0  0  0  0  0  0  0  0  # atno 6908 bound_to 6896
  152.5426  134.2206  159.8839 H   0  0  0  0  0  0  0  0  0  0  0  0  # atno 6909 bound_to 6896
  145.4332  139.2308  143.3132 H   0  0  0  0  0  0  0  0  0  0  0  0  # atno 7974 bound_to 7965
  156.2939  140.2274  156.4820 H   0  0  0  0  0  0  0  0  0  0  0  0  # atno 8008 bound_to 7997
  154.7845  140.0458  157.1174 H   0  0  0  0  0  0  0  0  0  0  0  0  # atno 8009 bound_to 7997
  154.9719  140.3067  155.4987 H   0  0  0  0  0  0  0  0  0  0  0  0  # atno 8010 bound_to 7997
  139.5889  144.1256  152.1610 H   0  0  0  0  0  0  0  0  0  0  0  0  # atno 10167 bound_to 10162
  156.4935  130.4572  149.6742 H   0  0  0  0  0  0  0  0  0  0  0  0  # atno 10718 bound_to 10713
  154.7967  135.3226  154.7650 H   0  0  0  0  0  0  0  0  0  0  0  0  # atno 10763 bound_to 10752
  153.8327  135.6878  153.4817 H   0  0  0  0  0  0  0  0  0  0  0  0  # atno 10764 bound_to 10752
  153.1662  135.4641  154.9782 H   0  0  0  0  0  0  0  0  0  0  0  0  # atno 10765 bound_to 10752
  140.1581  134.8628  157.2539 H   0  0  0  0  0  0  0  0  0  0  0  0  # atno 11005 bound_to 11000
  146.2596  140.5071  142.8859 LP  0  0  0  0  0  0  0  0  0  0  0  0  # atno 17320 bound_to 7965
  144.8169  140.6483  143.6378 LP  0  0  0  0  0  0  0  0  0  0  0  0  # atno 17321 bound_to 7965
  140.0826  144.5688  150.7111 LP  0  0  0  0  0  0  0  0  0  0  0  0  # atno 17342 bound_to 10162
  140.7156  143.2542  151.4445 LP  0  0  0  0  0  0  0  0  0  0  0  0  # atno 17343 bound_to 10162
  156.3403  130.7378  151.2322 LP  0  0  0  0  0  0  0  0  0  0  0  0  # atno 17370 bound_to 10713
  157.7471  131.0405  150.4603 LP  0  0  0  0  0  0  0  0  0  0  0  0  # atno 17371 bound_to 10713
  140.2523  134.3668  155.7437 LP  0  0  0  0  0  0  0  0  0  0  0  0  # atno 17394 bound_to 11000
  141.2206  133.7323  156.8954 LP  0  0  0  0  0  0  0  0  0  0  0  0  # atno 17395 bound_to 11000

$$$$
