AV-unprocessed.smi:2463|AV-procd|sdf|9720|dock8
  -GOLD-   2272013363D 1   1.00000     0.00000
 Structure written by MMmdl.
 47 48  0  0  0  0  0  0  0  0  1 V2000
  149.4877  141.1255  156.7618 C   0  0  0  0  0  0  0  0  0  0  0  0
  149.8289  141.4219  155.2976 C   0  0  0  0  0  0  0  0  0  0  0  0
  148.5797  141.7061  154.4504 C   0  0  0  0  0  0  0  0  0  0  0  0
  147.9881  140.4851  153.9386 N   0  0  0  0  0  0  0  0  0  0  0  0
  146.7645  140.3251  153.3193 C   0  0  0  0  0  0  0  0  0  0  0  0
  146.6693  138.9935  153.0289 C   0  0  0  0  0  0  0  0  0  0  0  0
  145.6209  138.2851  152.3894 N   0  0  0  0  0  0  0  0  0  0  0  0
  145.5316  136.9589  152.1986 C   0  0  0  0  0  0  0  0  0  0  0  0
  146.3779  136.1352  152.5464 O   0  0  0  0  0  0  0  0  0  0  0  0
  144.3943  136.6343  151.5689 N   0  0  0  0  0  0  0  0  0  0  0  0
  144.0006  135.2790  151.1891 C   0  0  1  0  0  0  0  0  0  0  0  0
  145.1719  134.4907  150.6373 C   0  0  0  0  0  0  0  0  0  0  0  0
  144.7502  133.0344  150.8688 C   0  0  0  0  0  0  0  0  0  0  0  0
  143.9687  132.4650  149.6722 C   0  0  0  0  0  0  0  0  0  0  0  0
  145.9412  132.1325  151.2272 C   0  0  0  0  0  0  0  0  0  0  0  0
  143.8568  133.0697  151.9810 O   0  0  0  0  0  0  0  0  0  0  0  0
  143.5418  134.4044  152.3760 C   0  0  0  0  0  0  0  0  0  0  0  0
  144.3071  134.6641  153.6907 C   0  0  0  0  0  0  0  0  0  0  0  0
  142.0246  134.4829  152.6067 C   0  0  0  0  0  0  0  0  0  0  0  0
  147.8718  138.4070  153.5013 C   0  0  0  0  0  0  0  0  0  0  0  0
  148.6637  139.3148  154.0516 N   0  0  0  0  0  0  0  0  0  0  0  0
  150.3913  140.9262  157.3386 H   0  0  0  0  0  0  0  0  0  0  0  0
  148.8392  140.2528  156.8467 H   0  0  0  0  0  0  0  0  0  0  0  0
  148.9770  141.9702  157.2252 H   0  0  0  0  0  0  0  0  0  0  0  0
  150.5062  142.2759  155.2531 H   0  0  0  0  0  0  0  0  0  0  0  0
  150.3721  140.5749  154.8764 H   0  0  0  0  0  0  0  0  0  0  0  0
  147.8299  142.2303  155.0447 H   0  0  0  0  0  0  0  0  0  0  0  0
  148.8274  142.3552  153.6091 H   0  0  0  0  0  0  0  0  0  0  0  0
  146.0955  141.1553  153.1484 H   0  0  0  0  0  0  0  0  0  0  0  0
  144.8580  138.8477  152.0425 H   0  0  0  0  0  0  0  0  0  0  0  0
  143.7583  137.3778  151.3208 H   0  0  0  0  0  0  0  0  0  0  0  0
  143.2238  135.3092  150.4224 H   0  0  0  0  0  0  0  0  0  0  0  0
  145.3792  134.7167  149.5906 H   0  0  0  0  0  0  0  0  0  0  0  0
  146.0752  134.7186  151.2054 H   0  0  0  0  0  0  0  0  0  0  0  0
  144.5906  132.4257  148.7774 H   0  0  0  0  0  0  0  0  0  0  0  0
  143.0928  133.0714  149.4400 H   0  0  0  0  0  0  0  0  0  0  0  0
  143.6196  131.4526  149.8769 H   0  0  0  0  0  0  0  0  0  0  0  0
  146.6647  132.0923  150.4125 H   0  0  0  0  0  0  0  0  0  0  0  0
  145.6145  131.1128  151.4331 H   0  0  0  0  0  0  0  0  0  0  0  0
  146.4595  132.4954  152.1152 H   0  0  0  0  0  0  0  0  0  0  0  0
  144.0904  135.6540  154.0932 H   0  0  0  0  0  0  0  0  0  0  0  0
  145.3857  134.5896  153.5509 H   0  0  0  0  0  0  0  0  0  0  0  0
  144.0277  133.9365  154.4532 H   0  0  0  0  0  0  0  0  0  0  0  0
  141.7222  135.4836  152.9153 H   0  0  0  0  0  0  0  0  0  0  0  0
  141.7087  133.7871  153.3845 H   0  0  0  0  0  0  0  0  0  0  0  0
  141.4729  134.2329  151.7000 H   0  0  0  0  0  0  0  0  0  0  0  0
  148.1903  137.3756  153.4648 H   0  0  0  0  0  0  0  0  0  0  0  0
  1  2  1  0  0  0  0
  1 22  1  0  0  0  0
  1 23  1  0  0  0  0
  1 24  1  0  0  0  0
  2  3  1  0  0  0  0
  2 25  1  0  0  0  0
  2 26  1  0  0  0  0
  3  4  1  0  0  0  0
  3 27  1  0  0  0  0
  3 28  1  0  0  0  0
  4 21  1  0  0  0  0
  4  5  1  0  0  0  0
  5  6  2  0  0  0  0
  5 29  1  0  0  0  0
  6  7  1  0  0  0  0
  6 20  1  0  0  0  0
  7  8  1  0  0  0  0
  7 30  1  0  0  0  0
  8  9  2  0  0  0  0
  8 10  1  0  0  0  0
 10 11  1  0  0  0  0
 10 31  1  0  0  0  0
 11 17  1  0  0  0  0
 11 12  1  0  0  0  0
 11 32  1  0  0  0  0
 12 13  1  0  0  0  0
 12 33  1  0  0  0  0
 12 34  1  0  0  0  0
 13 14  1  0  0  0  0
 13 15  1  0  0  0  0
 13 16  1  0  0  0  0
 14 35  1  0  0  0  0
 14 36  1  0  0  0  0
 14 37  1  0  0  0  0
 15 38  1  0  0  0  0
 15 39  1  0  0  0  0
 15 40  1  0  0  0  0
 16 17  1  0  0  0  0
 17 18  1  0  0  0  0
 17 19  1  0  0  0  0
 18 41  1  0  0  0  0
 18 42  1  0  0  0  0
 18 43  1  0  0  0  0
 19 44  1  0  0  0  0
 19 45  1  0  0  0  0
 19 46  1  0  0  0  0
 20 21  2  0  0  0  0
 20 47  1  0  0  0  0
M  END
> <s_m_source_file>
AV-unprocessed.smi

> <i_m_source_file_index>
2463

> <i_lp_mmshare_version>
43012

> <i_f3d_flags>
0

> <s_epik_input>
W0NIM11bQ0gyXVtDSDJdbjFbY0hdYyhbY0hdbjEpW05IXUMoPU8pW05IXVtDQEBIXShDKE8yKShbQ0gzXSlbQ0gzXSlbQ0gyXUMyKFtDSDNdKVtDSDNd

> <s_epik_cmdline>
J2VwaWtfcHl0aG9uJywgJy1waCcsICc3LjAnLCAnLXRuJywgJzgnLCAnLW1hJywgJzIwMCcsICctbWV0YWxfYmluZGluZycsICctaW1hZScsICc8aW5maWxlLm1hZT4nLCAnLW9tYWUnLCAnPG91dGZpbGUubWFlPic=

> <r_lp_tautomer_probability>
1

> <r_epik_Ionization_Penalty>
3.69628e-05

> <r_epik_Ionization_Penalty_Charging>
0

> <r_epik_Ionization_Penalty_Neutral>
3.69628e-05

> <r_epik_State_Penalty>
-0

> <r_epik_Charging_Adjusted_Penalty>
0

> <i_epik_Tot_Q>
0

> <i_epik_Tot_abs_Q>
0

> <r_epik_Metal_State_Penalty>
-0

> <b_epik_Metal_Only>
0

> <s_lp_Force_Field>
OPLS_2005

> <r_lp_Energy>
21.7925

> <b_lp_Chiralities_Consistent>
1

> <s_lp_Variant>
AV-unprocessed.smi:2463-2

> <Gold.Version>
5.8.1

> <Gold.Id.Protein>
6NUR|6NUR_protein|mol2

> <Gold.PLP.Fitness>
40.6278

> <Gold.PLP.PLP>
-32.3533

> <Gold.PLP.part.hbond>
-2.7005

> <Gold.PLP.part.metal>
0.0000

> <Gold.PLP.part.buried>
-1.6972

> <Gold.PLP.part.nonpolar>
-31.6854

> <Gold.PLP.part.repulsive>
3.6300

> <Gold.PLP.ligand.clash>
0.0468

> <Gold.PLP.ligand.torsion>
0.4696

> <Gold.PLP.Chemscore.Hbond>
1.4802

> <Gold.PLP.Chemscore.CHOScore>
1.6000

> <Gold.PLP.Chemscore.Metal>
0.0000

> <Gold.Chemscore.Hbonds>
donor molecule, donor type, donor heavy atom, donor atom, acceptor molecule, acceptor atom, score
      L1  H     7    30       P1 10175  0.89
      L1  H    10    31       P1 10171  0.58
      L1  C     5    29       P1 10175  0.62
      L1  C    20    47       P1  7948  1.00

> <Gold.PLP.Chemscore.Internal.Correction>
0.0200

> <Gold.Rescore>
     Score         DG    S(hbond)    S(metal)    S(lipo)     H(rot)  DE(clash)    DE(int)     intcor
     10.46     -17.64       1.44        0.00      90.95       1.29       1.43       5.75       ----

> <Gold.Chemscore.Fitness>
10.4603

> <Gold.Chemscore.DG>
-17.6422

> <Gold.Chemscore.ZeroCoef>
-5.4800

> <Gold.Chemscore.Hbond>
1.4409

> <Gold.Chemscore.Metal>
0.0000

> <Gold.Chemscore.Lipo>
90.9531

> <Gold.Chemscore.Internal_Hbond>
0.0000

> <Gold.Chemscore.DEClash>
1.4291

> <Gold.Chemscore.DEInternal>
5.7529

> <Gold.Chemscore.Rot>
1.2859

> <Gold.Chemscore.Internal.Correction>
   9.000000E+99

> <Gold.Chemscore.Hbonds>
donor molecule, donor type, donor heavy atom, donor atom, acceptor molecule, acceptor atom, score
      L1  H     7    30       P1 10175  0.81
      L1  H    10    31       P1 10171  0.58

> <Gold.Chemscore.Hbond.Weighted>
-4.8127

> <Gold.Chemscore.Metal.Weighted>
-0.0000

> <Gold.Chemscore.Lipo.Weighted>
-10.6415

> <Gold.Chemscore.Internal_Hbond.Weighted>
0.0000

> <Gold.Chemscore.DEClash.Weighted>
1.4291

> <Gold.Chemscore.DEInternal.Weighted>
5.7529

> <Gold.Chemscore.Rot.Weighted>
3.2919

> <Gold.Chemscore.Internal.Correction.Weighted>
   9.000000E+99

> <Gold.Protein.RotatedTorsions>
[ 6907 6896 6895 6894 ] final -160.87 input  -60.11 | X-H torsion
[ 7974 7965 7964 7962 ] final  -92.29 input  175.53 | X-H torsion
[ 8008 7997 7996 7995 ] final   84.54 input   59.86 | X-H torsion
[ 10167 10162 10161 10158 ] final -123.63 input  -65.29 | X-H torsion
[ 10718 10713 10712 10709 ] final  133.41 input   66.30 | X-H torsion
[ 10763 10752 10751 10750 ] final  111.50 input  -60.55 | X-H torsion
[ 11005 11000 10999 10996 ] final   52.41 input  -57.11 | X-H torsion

> <Gold.Protein.ActiveResidues>
 VAL166  LYS551  ARG553  GLY616  TRP617  ASP618  TYR619  PRO620  LYS621  CYS622 
 ASP623  PHE694  ASN695  SER759  ASP760  ASP761  ALA762  ILE779  LEU786  VAL792 
 PHE793  MET794  SER795  GLU796  ALA797  LYS798  CYS799  TRP800  GLU811  SER814 

> <Gold.Protein.RotatedAtoms>
  151.3558  133.3908  159.2684 H   0  0  0  0  0  0  0  0  0  0  0  0  # atno 6907 bound_to 6896
  150.9765  134.9129  159.7829 H   0  0  0  0  0  0  0  0  0  0  0  0  # atno 6908 bound_to 6896
  152.5202  134.3521  159.9307 H   0  0  0  0  0  0  0  0  0  0  0  0  # atno 6909 bound_to 6896
  145.4018  140.9538  143.2283 H   0  0  0  0  0  0  0  0  0  0  0  0  # atno 7974 bound_to 7965
  155.9384  140.3410  155.6307 H   0  0  0  0  0  0  0  0  0  0  0  0  # atno 8008 bound_to 7997
  155.7070  140.0767  157.2405 H   0  0  0  0  0  0  0  0  0  0  0  0  # atno 8009 bound_to 7997
  154.4098  140.1629  156.2242 H   0  0  0  0  0  0  0  0  0  0  0  0  # atno 8010 bound_to 7997
  140.0015  143.5536  152.2301 H   0  0  0  0  0  0  0  0  0  0  0  0  # atno 10167 bound_to 10162
  157.4775  131.1084  150.9724 H   0  0  0  0  0  0  0  0  0  0  0  0  # atno 10718 bound_to 10713
  153.4643  135.3715  155.2355 H   0  0  0  0  0  0  0  0  0  0  0  0  # atno 10763 bound_to 10752
  154.8757  135.3916  154.3888 H   0  0  0  0  0  0  0  0  0  0  0  0  # atno 10764 bound_to 10752
  153.4466  135.7085  153.6199 H   0  0  0  0  0  0  0  0  0  0  0  0  # atno 10765 bound_to 10752
  140.0852  134.5284  155.8907 H   0  0  0  0  0  0  0  0  0  0  0  0  # atno 11005 bound_to 11000
  144.8368  139.5536  143.6918 LP  0  0  0  0  0  0  0  0  0  0  0  0  # atno 17320 bound_to 7965
  146.2748  139.6725  142.9271 LP  0  0  0  0  0  0  0  0  0  0  0  0  # atno 17321 bound_to 7965
  139.6269  144.7638  151.2620 LP  0  0  0  0  0  0  0  0  0  0  0  0  # atno 17342 bound_to 10162
  140.7417  143.6549  150.8216 LP  0  0  0  0  0  0  0  0  0  0  0  0  # atno 17343 bound_to 10162
  157.0468  130.5771  149.5364 LP  0  0  0  0  0  0  0  0  0  0  0  0  # atno 17370 bound_to 10713
  156.0104  130.5195  150.7970 LP  0  0  0  0  0  0  0  0  0  0  0  0  # atno 17371 bound_to 10713
  141.2060  133.6651  156.6215 LP  0  0  0  0  0  0  0  0  0  0  0  0  # atno 17394 bound_to 11000
  140.3431  134.7832  157.4412 LP  0  0  0  0  0  0  0  0  0  0  0  0  # atno 17395 bound_to 11000

$$$$
