AV-unprocessed.smi:1856|AV-procd|sdf|7539|dock2
  -GOLD-   22720 9253D 1   1.00000     0.00000
 Structure written by MMmdl.
 45 46  0  0  0  0  0  0  0  0  2 V2000
  144.5994  133.3984  150.7332 C   0  0  0  0  0  0  0  0  0  0  0  0
  144.4928  134.8461  151.2249 C   0  0  0  0  0  0  0  0  0  0  0  0
  145.5426  135.1798  152.2997 C   0  0  0  0  0  0  0  0  0  0  0  0
  145.5269  136.6554  152.7099 C   0  0  0  0  0  0  0  0  0  0  0  0
  144.4728  137.2040  153.0325 O   0  0  0  0  0  0  0  0  0  0  0  0
  146.7093  137.2907  152.6920 N   0  0  0  0  0  0  0  0  0  0  0  0
  146.9148  138.6927  153.0432 C   0  0  2  0  0  0  0  0  0  0  0  0
  146.6151  139.5787  151.8259 C   0  0  0  0  0  0  0  0  0  0  0  0
  148.3043  138.9416  153.5556 C   0  0  0  0  0  0  0  0  0  0  0  0
  149.4272  138.2884  153.1404 N   0  3  0  0  0  0  0  0  0  0  0  0
  150.5341  138.7454  153.8530 C   0  0  0  0  0  0  0  0  0  0  0  0
  151.8745  138.3794  153.7812 C   0  0  0  0  0  0  0  0  0  0  0  0
  152.7587  139.0395  154.6587 C   0  0  0  0  0  0  0  0  0  0  0  0
  152.2993  140.0192  155.5621 C   0  0  0  0  0  0  0  0  0  0  0  0
  150.9375  140.3802  155.6261 C   0  0  0  0  0  0  0  0  0  0  0  0
  150.0679  139.7257  154.7525 C   0  0  0  0  0  0  0  0  0  0  0  0
  148.6870  139.8212  154.5298 N   0  0  0  0  0  0  0  0  0  0  0  0
  147.8887  140.7691  155.3313 C   0  0  0  0  0  0  0  0  0  0  0  0
  147.3545  141.9814  154.5346 C   0  0  1  0  0  0  0  0  0  0  0  0
  146.2759  142.7970  155.2632 C   0  0  0  0  0  0  0  0  0  0  0  0
  148.4157  142.8543  154.2088 O   0  0  0  0  0  0  0  0  0  0  0  0
  143.8444  133.1892  149.9750 H   0  0  0  0  0  0  0  0  0  0  0  0
  144.4543  132.6915  151.5507 H   0  0  0  0  0  0  0  0  0  0  0  0
  145.5769  133.2046  150.2911 H   0  0  0  0  0  0  0  0  0  0  0  0
  144.6047  135.5169  150.3719 H   0  0  0  0  0  0  0  0  0  0  0  0
  143.4910  135.0152  151.6218 H   0  0  0  0  0  0  0  0  0  0  0  0
  145.3718  134.5579  153.1800 H   0  0  0  0  0  0  0  0  0  0  0  0
  146.5408  134.9352  151.9343 H   0  0  0  0  0  0  0  0  0  0  0  0
  147.5243  136.7667  152.4078 H   0  0  0  0  0  0  0  0  0  0  0  0
  146.1961  138.9476  153.8220 H   0  0  0  0  0  0  0  0  0  0  0  0
  146.7262  140.6347  152.0747 H   0  0  0  0  0  0  0  0  0  0  0  0
  145.5934  139.4305  151.4748 H   0  0  0  0  0  0  0  0  0  0  0  0
  147.2865  139.3610  150.9945 H   0  0  0  0  0  0  0  0  0  0  0  0
  152.2275  137.6273  153.0911 H   0  0  0  0  0  0  0  0  0  0  0  0
  153.8096  138.7888  154.6395 H   0  0  0  0  0  0  0  0  0  0  0  0
  153.0057  140.5045  156.2202 H   0  0  0  0  0  0  0  0  0  0  0  0
  150.6018  141.1333  156.3230 H   0  0  0  0  0  0  0  0  0  0  0  0
  147.0594  140.2138  155.7702 H   0  0  0  0  0  0  0  0  0  0  0  0
  148.4857  141.1062  156.1781 H   0  0  0  0  0  0  0  0  0  0  0  0
  146.9370  141.6180  153.5952 H   0  0  0  0  0  0  0  0  0  0  0  0
  145.4204  142.1727  155.5203 H   0  0  0  0  0  0  0  0  0  0  0  0
  145.9093  143.6082  154.6333 H   0  0  0  0  0  0  0  0  0  0  0  0
  146.6562  143.2428  156.1827 H   0  0  0  0  0  0  0  0  0  0  0  0
  148.8914  143.0563  155.0001 H   0  0  0  0  0  0  0  0  0  0  0  0
  149.4294  137.5742  152.4237 H   0  0  0  0  0  0  0  0  0  0  0  0
  1  2  1  0  0  0  0
  1 22  1  0  0  0  0
  1 23  1  0  0  0  0
  1 24  1  0  0  0  0
  2  3  1  0  0  0  0
  2 25  1  0  0  0  0
  2 26  1  0  0  0  0
  3  4  1  0  0  0  0
  3 27  1  0  0  0  0
  3 28  1  0  0  0  0
  4  5  2  0  0  0  0
  4  6  1  0  0  0  0
  6  7  1  0  0  0  0
  6 29  1  0  0  0  0
  7  8  1  0  0  0  0
  7  9  1  0  0  0  0
  7 30  1  0  0  0  0
  8 31  1  0  0  0  0
  8 32  1  0  0  0  0
  8 33  1  0  0  0  0
  9 17  1  0  0  0  0
  9 10  2  0  0  0  0
 10 11  1  0  0  0  0
 10 45  1  0  0  0  0
 11 16  2  0  0  0  0
 11 12  1  0  0  0  0
 12 13  2  0  0  0  0
 12 34  1  0  0  0  0
 13 14  1  0  0  0  0
 13 35  1  0  0  0  0
 14 15  2  0  0  0  0
 14 36  1  0  0  0  0
 15 16  1  0  0  0  0
 15 37  1  0  0  0  0
 16 17  1  0  0  0  0
 17 18  1  0  0  0  0
 18 19  1  0  0  0  0
 18 38  1  0  0  0  0
 18 39  1  0  0  0  0
 19 20  1  0  0  0  0
 19 21  1  0  0  0  0
 19 40  1  0  0  0  0
 20 41  1  0  0  0  0
 20 42  1  0  0  0  0
 20 43  1  0  0  0  0
 21 44  1  0  0  0  0
M  CHG  1  10   1
M  END
> <s_m_source_file>
AV-unprocessed.smi

> <i_m_source_file_index>
1856

> <i_lp_mmshare_version>
43012

> <i_f3d_flags>
0

> <s_epik_input>
W0NIM11bQ0gyXVtDSDJdQyg9TylbTkhdW0NASF0oW0NIM10pYyhuMSluKFtDSDJdW0NASF0oW0NIM10pW09IXSljKGMxMilbY0hdW2NIXVtjSF1bY0hdMg==

> <s_epik_cmdline>
J2VwaWtfcHl0aG9uJywgJy1waCcsICc3LjAnLCAnLXRuJywgJzgnLCAnLW1hJywgJzIwMCcsICctbWV0YWxfYmluZGluZycsICctaW1hZScsICc8aW5maWxlLm1hZT4nLCAnLW9tYWUnLCAnPG91dGZpbGUubWFlPic=

> <r_epik_Ionization_Penalty>
0.945588

> <r_epik_Ionization_Penalty_Charging>
0.945588

> <r_epik_Ionization_Penalty_Neutral>
8.64698e-08

> <r_epik_State_Penalty>
0.989378

> <r_epik_Charging_Adjusted_Penalty>
1.93497

> <i_epik_Tot_Q>
1

> <i_epik_Tot_abs_Q>
1

> <r_epik_Metal_State_Penalty>
1.10045

> <b_epik_Metal_Only>
0

> <s_lp_Force_Field>
OPLS_2005

> <r_lp_Energy>
7.08732

> <b_lp_Chiralities_Consistent>
1

> <s_lp_Variant>
AV-unprocessed.smi:1856-7

> <Gold.Version>
5.8.1

> <Gold.Id.Protein>
6NUR|6NUR_protein|mol2

> <Gold.PLP.Fitness>
53.7658

> <Gold.PLP.PLP>
-44.5627

> <Gold.PLP.part.hbond>
-5.6021

> <Gold.PLP.part.metal>
0.0000

> <Gold.PLP.part.buried>
-1.6677

> <Gold.PLP.part.nonpolar>
-38.5806

> <Gold.PLP.part.repulsive>
0.5471

> <Gold.PLP.ligand.clash>
0.0000

> <Gold.PLP.ligand.torsion>
1.3406

> <Gold.PLP.Chemscore.Hbond>
3.9280

> <Gold.PLP.Chemscore.CHOScore>
0.0000

> <Gold.PLP.Chemscore.Metal>
0.0000

> <Gold.Chemscore.Hbonds>
donor molecule, donor type, donor heavy atom, donor atom, acceptor molecule, acceptor atom, score
      L1  H     6    29       P1  7948  1.00
      L1  H    10    45       P1  7948  1.76
      L1  H    21    44       P1  8028  0.38
      P1  H  8022  8030       L1    21  0.50

> <Gold.PLP.Chemscore.Internal.Correction>
0.1002

> <Gold.Rescore>
     Score         DG    S(hbond)    S(metal)    S(lipo)     H(rot)  DE(clash)    DE(int)     intcor
     16.45     -18.88       2.66        0.00      93.71       2.52       1.09       1.34       ----

> <Gold.Chemscore.Fitness>
16.4466

> <Gold.Chemscore.DG>
-18.8774

> <Gold.Chemscore.ZeroCoef>
-5.4800

> <Gold.Chemscore.Hbond>
2.6570

> <Gold.Chemscore.Metal>
0.0000

> <Gold.Chemscore.Lipo>
93.7104

> <Gold.Chemscore.Internal_Hbond>
0.0000

> <Gold.Chemscore.DEClash>
1.0885

> <Gold.Chemscore.DEInternal>
1.3422

> <Gold.Chemscore.Rot>
2.5161

> <Gold.Chemscore.Internal.Correction>
   9.000000E+99

> <Gold.Chemscore.Hbonds>
donor molecule, donor type, donor heavy atom, donor atom, acceptor molecule, acceptor atom, score
      L1  H     6    29       P1  7948  0.99
      L1  H    10    45       P1  7948  0.54
      L1  H    21    44       P1  8028  0.38
      P1  H  8011  8017       L1    21  0.01
      P1  H  8022  8030       L1    21  0.02

> <Gold.Chemscore.Hbond.Weighted>
-8.8744

> <Gold.Chemscore.Metal.Weighted>
-0.0000

> <Gold.Chemscore.Lipo.Weighted>
-10.9641

> <Gold.Chemscore.Internal_Hbond.Weighted>
0.0000

> <Gold.Chemscore.DEClash.Weighted>
1.0885

> <Gold.Chemscore.DEInternal.Weighted>
1.3422

> <Gold.Chemscore.Rot.Weighted>
6.4412

> <Gold.Chemscore.Internal.Correction.Weighted>
   9.000000E+99

> <Gold.Protein.RotatedTorsions>
[ 6907 6896 6895 6894 ] final  -17.59 input  -60.11 | X-H torsion
[ 7974 7965 7964 7962 ] final   71.11 input  175.53 | X-H torsion
[ 8008 7997 7996 7995 ] final   76.26 input   59.86 | X-H torsion
[ 10167 10162 10161 10158 ] final  179.11 input  -65.29 | X-H torsion
[ 10718 10713 10712 10709 ] final   -4.30 input   66.30 | X-H torsion
[ 10763 10752 10751 10750 ] final  -20.76 input  -60.55 | X-H torsion
[ 11005 11000 10999 10996 ] final   75.40 input  -57.11 | X-H torsion

> <Gold.Protein.ActiveResidues>
 VAL166  LYS551  ARG553  GLY616  TRP617  ASP618  TYR619  PRO620  LYS621  CYS622 
 ASP623  PHE694  ASN695  SER759  ASP760  ASP761  ALA762  ILE779  LEU786  VAL792 
 PHE793  MET794  SER795  GLU796  ALA797  LYS798  CYS799  TRP800  GLU811  SER814 

> <Gold.Protein.RotatedAtoms>
  151.2910  135.0742  159.9203 H   0  0  0  0  0  0  0  0  0  0  0  0  # atno 6907 bound_to 6896
  152.5316  133.9932  159.7871 H   0  0  0  0  0  0  0  0  0  0  0  0  # atno 6908 bound_to 6896
  151.0202  133.5833  159.2703 H   0  0  0  0  0  0  0  0  0  0  0  0  # atno 6909 bound_to 6896
  145.7699  139.2838  143.1327 H   0  0  0  0  0  0  0  0  0  0  0  0  # atno 7974 bound_to 7965
  155.8247  140.3468  155.5535 H   0  0  0  0  0  0  0  0  0  0  0  0  # atno 8008 bound_to 7997
  155.8305  140.0926  157.1815 H   0  0  0  0  0  0  0  0  0  0  0  0  # atno 8009 bound_to 7997
  154.4004  140.1413  156.3595 H   0  0  0  0  0  0  0  0  0  0  0  0  # atno 8010 bound_to 7997
  139.5322  144.2601  152.0714 H   0  0  0  0  0  0  0  0  0  0  0  0  # atno 10167 bound_to 10162
  156.7634  130.5276  149.5781 H   0  0  0  0  0  0  0  0  0  0  0  0  # atno 10718 bound_to 10713
  153.6254  135.6991  153.5295 H   0  0  0  0  0  0  0  0  0  0  0  0  # atno 10763 bound_to 10752
  153.2903  135.4159  155.1160 H   0  0  0  0  0  0  0  0  0  0  0  0  # atno 10764 bound_to 10752
  154.8534  135.3623  154.5796 H   0  0  0  0  0  0  0  0  0  0  0  0  # atno 10765 bound_to 10752
  139.9345  134.7514  156.1266 H   0  0  0  0  0  0  0  0  0  0  0  0  # atno 11005 bound_to 11000
  146.0180  140.8374  142.9937 LP  0  0  0  0  0  0  0  0  0  0  0  0  # atno 17320 bound_to 7965
  144.6814  140.2587  143.7322 LP  0  0  0  0  0  0  0  0  0  0  0  0  # atno 17321 bound_to 7965
  140.2066  144.4605  150.6406 LP  0  0  0  0  0  0  0  0  0  0  0  0  # atno 17342 bound_to 10162
  140.6507  143.2224  151.6083 LP  0  0  0  0  0  0  0  0  0  0  0  0  # atno 17343 bound_to 10162
  156.1325  130.6188  151.0353 LP  0  0  0  0  0  0  0  0  0  0  0  0  # atno 17370 bound_to 10713
  157.6724  131.0858  150.7578 LP  0  0  0  0  0  0  0  0  0  0  0  0  # atno 17371 bound_to 10713
  141.0952  133.6698  156.2630 LP  0  0  0  0  0  0  0  0  0  0  0  0  # atno 17394 bound_to 11000
  140.6111  134.5457  157.5533 LP  0  0  0  0  0  0  0  0  0  0  0  0  # atno 17395 bound_to 11000

$$$$
