AV-unprocessed.smi:2353|AV-procd|sdf|9382|dock8
  -GOLD-   2272013 13D 1   1.00000     0.00000
 Structure written by MMmdl.
 46 48  0  0  0  0  0  0  0  0  2 V2000
  147.7419  132.5416  159.9645 C   0  0  0  0  0  0  0  0  0  0  0  0
  147.6215  133.7995  160.7998 C   0  0  0  0  0  0  0  0  0  0  0  0
  147.3384  133.7145  162.1766 C   0  0  0  0  0  0  0  0  0  0  0  0
  147.2338  134.8874  162.9454 C   0  0  0  0  0  0  0  0  0  0  0  0
  147.4098  136.1508  162.3440 C   0  0  0  0  0  0  0  0  0  0  0  0
  147.2910  137.4057  163.1886 C   0  0  0  0  0  0  0  0  0  0  0  0
  147.6921  136.2509  160.9619 C   0  0  0  0  0  0  0  0  0  0  0  0
  147.8506  137.5169  160.4366 O   0  0  0  0  0  0  0  0  0  0  0  0
  147.7036  137.6954  159.0343 C   0  0  0  0  0  0  0  0  0  0  0  0
  149.0960  137.9010  158.4147 C   0  0  2  0  0  0  0  0  0  0  0  0
  149.1637  137.0891  157.2577 O   0  0  0  0  0  0  0  0  0  0  0  0
  150.2235  137.4540  159.3716 C   0  0  0  0  0  0  0  0  0  0  0  0
  151.3670  138.3738  159.3396 N   0  0  0  0  0  0  0  0  0  0  0  0
  151.0558  139.6410  158.8798 N   0  0  0  0  0  0  0  0  0  0  0  0
  151.9602  140.5646  158.8141 C   0  0  0  0  0  0  0  0  0  0  0  0
  151.6838  141.9134  158.3489 N   0  0  0  0  0  0  0  0  0  0  0  0
  152.3459  143.0909  158.6021 C   0  0  0  0  0  0  0  0  0  0  0  0
  151.6663  144.0666  157.9182 C   0  0  0  0  0  0  0  0  0  0  0  0
  150.6244  143.4465  157.2804 N   0  3  0  0  0  0  0  0  0  0  0  0
  150.6333  142.1348  157.5423 C   0  0  0  0  0  0  0  0  0  0  0  0
  153.3262  140.2693  159.2185 C   0  0  0  0  0  0  0  0  0  0  0  0
  153.6201  139.0294  159.6659 C   0  0  0  0  0  0  0  0  0  0  0  0
  152.6067  137.9795  159.7557 C   0  0  0  0  0  0  0  0  0  0  0  0
  152.8449  136.8463  160.1721 O   0  0  0  0  0  0  0  0  0  0  0  0
  147.7978  135.0612  160.1968 C   0  0  0  0  0  0  0  0  0  0  0  0
  147.4079  131.6632  160.5179 H   0  0  0  0  0  0  0  0  0  0  0  0
  148.7792  132.3846  159.6684 H   0  0  0  0  0  0  0  0  0  0  0  0
  147.1355  132.6244  159.0622 H   0  0  0  0  0  0  0  0  0  0  0  0
  147.2015  132.7522  162.6481 H   0  0  0  0  0  0  0  0  0  0  0  0
  147.0171  134.8127  164.0011 H   0  0  0  0  0  0  0  0  0  0  0  0
  146.4597  138.0183  162.8381 H   0  0  0  0  0  0  0  0  0  0  0  0
  148.2053  137.9961  163.1220 H   0  0  0  0  0  0  0  0  0  0  0  0
  147.1180  137.1667  164.2383 H   0  0  0  0  0  0  0  0  0  0  0  0
  147.2536  136.7909  158.6221 H   0  0  0  0  0  0  0  0  0  0  0  0
  147.0456  138.5342  158.7993 H   0  0  0  0  0  0  0  0  0  0  0  0
  149.2203  138.9500  158.1425 H   0  0  0  0  0  0  0  0  0  0  0  0
  148.4310  136.4925  157.2664 H   0  0  0  0  0  0  0  0  0  0  0  0
  149.8457  137.4056  160.3946 H   0  0  0  0  0  0  0  0  0  0  0  0
  150.5383  136.4334  159.1449 H   0  0  0  0  0  0  0  0  0  0  0  0
  153.2236  143.1641  159.2264 H   0  0  0  0  0  0  0  0  0  0  0  0
  151.8424  145.1296  157.8398 H   0  0  0  0  0  0  0  0  0  0  0  0
  149.9269  141.4133  157.1701 H   0  0  0  0  0  0  0  0  0  0  0  0
  154.1039  141.0150  159.1696 H   0  0  0  0  0  0  0  0  0  0  0  0
  154.6325  138.8046  159.9681 H   0  0  0  0  0  0  0  0  0  0  0  0
  148.0161  135.0910  159.1400 H   0  0  0  0  0  0  0  0  0  0  0  0
  149.9426  143.9124  156.6946 H   0  0  0  0  0  0  0  0  0  0  0  0
  1  2  1  0  0  0  0
  1 26  1  0  0  0  0
  1 27  1  0  0  0  0
  1 28  1  0  0  0  0
  2 25  1  0  0  0  0
  2  3  2  0  0  0  0
  3  4  1  0  0  0  0
  3 29  1  0  0  0  0
  4  5  2  0  0  0  0
  4 30  1  0  0  0  0
  5  6  1  0  0  0  0
  5  7  1  0  0  0  0
  6 31  1  0  0  0  0
  6 32  1  0  0  0  0
  6 33  1  0  0  0  0
  7  8  1  0  0  0  0
  7 25  2  0  0  0  0
  8  9  1  0  0  0  0
  9 10  1  0  0  0  0
  9 34  1  0  0  0  0
  9 35  1  0  0  0  0
 10 11  1  0  0  0  0
 10 12  1  0  0  0  0
 10 36  1  0  0  0  0
 11 37  1  0  0  0  0
 12 13  1  0  0  0  0
 12 38  1  0  0  0  0
 12 39  1  0  0  0  0
 13 23  1  0  0  0  0
 13 14  1  0  0  0  0
 14 15  2  0  0  0  0
 15 16  1  0  0  0  0
 15 21  1  0  0  0  0
 16 20  1  0  0  0  0
 16 17  1  0  0  0  0
 17 18  2  0  0  0  0
 17 40  1  0  0  0  0
 18 19  1  0  0  0  0
 18 41  1  0  0  0  0
 19 20  2  0  0  0  0
 19 46  1  0  0  0  0
 20 42  1  0  0  0  0
 21 22  2  0  0  0  0
 21 43  1  0  0  0  0
 22 23  1  0  0  0  0
 22 44  1  0  0  0  0
 23 24  2  0  0  0  0
 25 45  1  0  0  0  0
M  CHG  1  19   1
M  END
> <s_m_source_file>
AV-unprocessed.smi

> <i_m_source_file_index>
2353

> <i_lp_mmshare_version>
43012

> <i_f3d_flags>
0

> <s_epik_input>
W0NIM11jMVtjSF1bY0hdYyhbQ0gzXSljKFtjSF0xKU9bQ0gyXVtDQEhdKFtPSF0pW0NIMl1uMm5jKFtjSF1bY0hdYzI9TyktbjNbY0hdW2NIXW5bY0hdMw==

> <s_epik_cmdline>
J2VwaWtfcHl0aG9uJywgJy1waCcsICc3LjAnLCAnLXRuJywgJzgnLCAnLW1hJywgJzIwMCcsICctbWV0YWxfYmluZGluZycsICctaW1hZScsICc8aW5maWxlLm1hZT4nLCAnLW9tYWUnLCAnPG91dGZpbGUubWFlPic=

> <r_lp_tautomer_probability>
1

> <r_epik_Ionization_Penalty>
1.66053

> <r_epik_Ionization_Penalty_Charging>
2.43903e-09

> <r_epik_Ionization_Penalty_Neutral>
1.66053

> <r_epik_State_Penalty>
1.76336

> <r_epik_Charging_Adjusted_Penalty>
1.76336

> <i_epik_Tot_Q>
1

> <i_epik_Tot_abs_Q>
1

> <r_epik_Metal_State_Penalty>
1.79856

> <b_epik_Metal_Only>
0

> <s_lp_Force_Field>
OPLS_2005

> <r_lp_Energy>
37.6947

> <b_lp_Chiralities_Consistent>
1

> <s_lp_Variant>
AV-unprocessed.smi:2353-3

> <Gold.Version>
5.8.1

> <Gold.Id.Protein>
6NUR|6NUR_protein|mol2

> <Gold.PLP.Fitness>
56.3891

> <Gold.PLP.PLP>
-48.4701

> <Gold.PLP.part.hbond>
-4.0000

> <Gold.PLP.part.metal>
0.0000

> <Gold.PLP.part.buried>
-4.2400

> <Gold.PLP.part.nonpolar>
-40.5799

> <Gold.PLP.part.repulsive>
0.0000

> <Gold.PLP.ligand.clash>
0.0000

> <Gold.PLP.ligand.torsion>
2.3644

> <Gold.PLP.Chemscore.Hbond>
4.2067

> <Gold.PLP.Chemscore.CHOScore>
0.0000

> <Gold.PLP.Chemscore.Metal>
0.0000

> <Gold.Chemscore.Hbonds>
donor molecule, donor type, donor heavy atom, donor atom, acceptor molecule, acceptor atom, score
      L1  H    19    46       P1  8028  2.00
      P1  H  6896  6909       L1    24  1.00
      P1  H  6931  6943       L1     8  0.53
      P1  H  6934  6947       L1     8  0.65

> <Gold.PLP.Chemscore.Internal.Correction>
0.0276

> <Gold.Rescore>
     Score         DG    S(hbond)    S(metal)    S(lipo)     H(rot)  DE(clash)    DE(int)     intcor
     17.65     -19.89       2.62        0.00     106.54       2.65       0.05       2.19       ----

> <Gold.Chemscore.Fitness>
17.6464

> <Gold.Chemscore.DG>
-19.8867

> <Gold.Chemscore.ZeroCoef>
-5.4800

> <Gold.Chemscore.Hbond>
2.6153

> <Gold.Chemscore.Metal>
0.0000

> <Gold.Chemscore.Lipo>
106.5376

> <Gold.Chemscore.Internal_Hbond>
0.0000

> <Gold.Chemscore.DEClash>
0.0466

> <Gold.Chemscore.DEInternal>
2.1937

> <Gold.Chemscore.Rot>
2.6537

> <Gold.Chemscore.Internal.Correction>
   9.000000E+99

> <Gold.Chemscore.Hbonds>
donor molecule, donor type, donor heavy atom, donor atom, acceptor molecule, acceptor atom, score
      L1  H    19    46       P1  8028  0.99
      P1  H  6896  6909       L1    24  0.98
      P1  H  6931  6943       L1     8  0.10
      P1  H  6934  6947       L1     8  0.11

> <Gold.Chemscore.Hbond.Weighted>
-8.7353

> <Gold.Chemscore.Metal.Weighted>
-0.0000

> <Gold.Chemscore.Lipo.Weighted>
-12.4649

> <Gold.Chemscore.Internal_Hbond.Weighted>
0.0000

> <Gold.Chemscore.DEClash.Weighted>
0.0466

> <Gold.Chemscore.DEInternal.Weighted>
2.1937

> <Gold.Chemscore.Rot.Weighted>
6.7935

> <Gold.Chemscore.Internal.Correction.Weighted>
   9.000000E+99

> <Gold.Protein.RotatedTorsions>
[ 6907 6896 6895 6894 ] final  145.93 input  -60.11 | X-H torsion
[ 7974 7965 7964 7962 ] final   40.32 input  175.53 | X-H torsion
[ 8008 7997 7996 7995 ] final  -14.08 input   59.86 | X-H torsion
[ 10167 10162 10161 10158 ] final   45.54 input  -65.29 | X-H torsion
[ 10718 10713 10712 10709 ] final  -84.57 input   66.30 | X-H torsion
[ 10763 10752 10751 10750 ] final   84.88 input  -60.55 | X-H torsion
[ 11005 11000 10999 10996 ] final  173.85 input  -57.11 | X-H torsion

> <Gold.Protein.ActiveResidues>
 VAL166  LYS551  ARG553  GLY616  TRP617  ASP618  TYR619  PRO620  LYS621  CYS622 
 ASP623  PHE694  ASN695  SER759  ASP760  ASP761  ALA762  ILE779  LEU786  VAL792 
 PHE793  MET794  SER795  GLU796  ALA797  LYS798  CYS799  TRP800  GLU811  SER814 

> <Gold.Protein.RotatedAtoms>
  152.1745  133.4665  159.4925 H   0  0  0  0  0  0  0  0  0  0  0  0  # atno 6907 bound_to 6896
  150.6924  134.1912  159.4295 H   0  0  0  0  0  0  0  0  0  0  0  0  # atno 6908 bound_to 6896
  151.9820  135.0023  160.0608 H   0  0  0  0  0  0  0  0  0  0  0  0  # atno 6909 bound_to 6896
  146.0914  139.5547  142.9473 H   0  0  0  0  0  0  0  0  0  0  0  0  # atno 7974 bound_to 7965
  154.5239  140.2232  155.8925 H   0  0  0  0  0  0  0  0  0  0  0  0  # atno 8008 bound_to 7997
  156.1692  140.3125  155.8908 H   0  0  0  0  0  0  0  0  0  0  0  0  # atno 8009 bound_to 7997
  155.3593  140.0460  157.3037 H   0  0  0  0  0  0  0  0  0  0  0  0  # atno 8010 bound_to 7997
  140.3231  144.2681  150.6179 H   0  0  0  0  0  0  0  0  0  0  0  0  # atno 10167 bound_to 10162
  156.0005  130.4702  150.4430 H   0  0  0  0  0  0  0  0  0  0  0  0  # atno 10718 bound_to 10713
  153.1423  135.4638  154.9513 H   0  0  0  0  0  0  0  0  0  0  0  0  # atno 10763 bound_to 10752
  154.7757  135.3172  154.8099 H   0  0  0  0  0  0  0  0  0  0  0  0  # atno 10764 bound_to 10752
  153.8620  135.6911  153.4836 H   0  0  0  0  0  0  0  0  0  0  0  0  # atno 10765 bound_to 10752
  140.3450  134.7244  157.4228 H   0  0  0  0  0  0  0  0  0  0  0  0  # atno 11005 bound_to 11000
  145.6031  141.0352  143.2007 LP  0  0  0  0  0  0  0  0  0  0  0  0  # atno 17320 bound_to 7965
  144.7363  139.7576  143.7328 LP  0  0  0  0  0  0  0  0  0  0  0  0  # atno 17321 bound_to 7965
  140.5465  143.2214  151.7998 LP  0  0  0  0  0  0  0  0  0  0  0  0  # atno 17342 bound_to 10162
  139.4870  144.4532  151.9629 LP  0  0  0  0  0  0  0  0  0  0  0  0  # atno 17343 bound_to 10162
  157.2470  131.0538  151.2402 LP  0  0  0  0  0  0  0  0  0  0  0  0  # atno 17370 bound_to 10713
  157.3565  130.7109  149.6474 LP  0  0  0  0  0  0  0  0  0  0  0  0  # atno 17371 bound_to 10713
  140.0750  134.5810  155.8601 LP  0  0  0  0  0  0  0  0  0  0  0  0  # atno 17394 bound_to 11000
  141.2028  133.6627  156.6027 LP  0  0  0  0  0  0  0  0  0  0  0  0  # atno 17395 bound_to 11000

$$$$
