AV-unprocessed.smi:3304|AV-procd|sdf|12697|dock3
  -GOLD-   2272019 33D 1   1.00000     0.00000
 Structure written by MMmdl.
 46 47  0  0  0  0  0  0  0  0  2 V2000
  155.3222  135.4467  160.8164 C   0  0  0  0  0  0  0  0  0  0  0  0
  154.9974  135.4462  162.2753 C   0  0  0  0  0  0  0  0  0  0  0  0
  154.4856  136.4299  163.0786 C   0  0  0  0  0  0  0  0  0  0  0  0
  154.0908  137.8368  162.7216 C   0  0  0  0  0  0  0  0  0  0  0  0
  155.3114  138.6833  162.3370 C   0  0  0  0  0  0  0  0  0  0  0  0
  154.9300  140.0898  162.1072 N   0  3  0  0  0  0  0  0  0  0  0  0
  154.0980  140.2986  160.9052 C   0  0  0  0  0  0  0  0  0  0  0  0
  153.7572  141.7864  160.7021 C   0  0  2  0  0  0  0  0  0  0  0  0
  152.9629  142.3384  161.9024 C   0  0  0  0  0  0  0  0  0  0  0  0
  152.6146  143.8248  161.7200 C   0  0  0  0  0  0  0  0  0  0  0  0
  151.8331  144.0678  160.4156 C   0  0  1  0  0  0  0  0  0  0  0  0
  151.4955  145.5541  160.2310 C   0  0  0  0  0  0  0  0  0  0  0  0
  152.6184  143.5141  159.2123 C   0  0  0  0  0  0  0  0  0  0  0  0
  152.9667  142.0282  159.3983 C   0  0  0  0  0  0  0  0  0  0  0  0
  154.4103  135.8132  164.3594 C   0  0  0  0  0  0  0  0  0  0  0  0
  154.8386  134.5637  164.3538 N   0  0  0  0  0  0  0  0  0  0  0  0
  155.1995  134.3364  163.0740 N   0  0  0  0  0  0  0  0  0  0  0  0
  155.7267  133.0374  162.7035 C   0  0  0  0  0  0  0  0  0  0  0  0
  155.0808  136.4052  160.3570 H   0  0  0  0  0  0  0  0  0  0  0  0
  154.7576  134.6745  160.2935 H   0  0  0  0  0  0  0  0  0  0  0  0
  156.3837  135.2576  160.6558 H   0  0  0  0  0  0  0  0  0  0  0  0
  153.3752  137.8360  161.8986 H   0  0  0  0  0  0  0  0  0  0  0  0
  153.5760  138.3099  163.5587 H   0  0  0  0  0  0  0  0  0  0  0  0
  156.0595  138.6398  163.1297 H   0  0  0  0  0  0  0  0  0  0  0  0
  155.7747  138.2857  161.4329 H   0  0  0  0  0  0  0  0  0  0  0  0
  154.4196  140.4220  162.9131 H   0  0  0  0  0  0  0  0  0  0  0  0
  154.6140  139.9055  160.0279 H   0  0  0  0  0  0  0  0  0  0  0  0
  153.1799  139.7204  161.0202 H   0  0  0  0  0  0  0  0  0  0  0  0
  154.6946  142.3429  160.6437 H   0  0  0  0  0  0  0  0  0  0  0  0
  152.0447  141.7645  162.0344 H   0  0  0  0  0  0  0  0  0  0  0  0
  153.5379  142.2130  162.8204 H   0  0  0  0  0  0  0  0  0  0  0  0
  152.0306  144.1696  162.5740 H   0  0  0  0  0  0  0  0  0  0  0  0
  153.5320  144.4151  161.7164 H   0  0  0  0  0  0  0  0  0  0  0  0
  150.8901  143.5228  160.4814 H   0  0  0  0  0  0  0  0  0  0  0  0
  152.3987  146.1605  160.1576 H   0  0  0  0  0  0  0  0  0  0  0  0
  150.9090  145.9304  161.0696 H   0  0  0  0  0  0  0  0  0  0  0  0
  150.9125  145.7146  159.3237 H   0  0  0  0  0  0  0  0  0  0  0  0
  152.0367  143.6404  158.2985 H   0  0  0  0  0  0  0  0  0  0  0  0
  153.5361  144.0878  159.0744 H   0  0  0  0  0  0  0  0  0  0  0  0
  153.5405  141.6859  158.5367 H   0  0  0  0  0  0  0  0  0  0  0  0
  152.0480  141.4398  159.4087 H   0  0  0  0  0  0  0  0  0  0  0  0
  154.0607  136.2365  165.2896 H   0  0  0  0  0  0  0  0  0  0  0  0
  155.0944  132.5905  161.9363 H   0  0  0  0  0  0  0  0  0  0  0  0
  155.7564  132.3714  163.5669 H   0  0  0  0  0  0  0  0  0  0  0  0
  156.7375  133.1508  162.3114 H   0  0  0  0  0  0  0  0  0  0  0  0
  155.7728  140.6381  162.0103 H   0  0  0  0  0  0  0  0  0  0  0  0
  1  2  1  0  0  0  0
  1 19  1  0  0  0  0
  1 20  1  0  0  0  0
  1 21  1  0  0  0  0
  2 17  1  0  0  0  0
  2  3  2  0  0  0  0
  3  4  1  0  0  0  0
  3 15  1  0  0  0  0
  4  5  1  0  0  0  0
  4 22  1  0  0  0  0
  4 23  1  0  0  0  0
  5  6  1  0  0  0  0
  5 24  1  0  0  0  0
  5 25  1  0  0  0  0
  6  7  1  0  0  0  0
  6 26  1  0  0  0  0
  6 46  1  0  0  0  0
  7  8  1  0  0  0  0
  7 27  1  0  0  0  0
  7 28  1  0  0  0  0
  8 14  1  0  0  0  0
  8  9  1  0  0  0  0
  8 29  1  0  0  0  0
  9 10  1  0  0  0  0
  9 30  1  0  0  0  0
  9 31  1  0  0  0  0
 10 11  1  0  0  0  0
 10 32  1  0  0  0  0
 10 33  1  0  0  0  0
 11 12  1  0  0  0  0
 11 13  1  0  0  0  0
 11 34  1  0  0  0  0
 12 35  1  0  0  0  0
 12 36  1  0  0  0  0
 12 37  1  0  0  0  0
 13 14  1  0  0  0  0
 13 38  1  0  0  0  0
 13 39  1  0  0  0  0
 14 40  1  0  0  0  0
 14 41  1  0  0  0  0
 15 16  2  0  0  0  0
 15 42  1  0  0  0  0
 16 17  1  0  0  0  0
 17 18  1  0  0  0  0
 18 43  1  0  0  0  0
 18 44  1  0  0  0  0
 18 45  1  0  0  0  0
M  CHG  1   6   1
M  END
> <s_m_source_file>
AV-unprocessed.smi

> <i_m_source_file_index>
3304

> <i_lp_mmshare_version>
43012

> <i_f3d_flags>
0

> <s_epik_input>
W0NIM11uMW5bY0hdYyhjMVtDSDNdKVtDSDJdW0NIMl1bTkhdW0NIMl1bQ0BASF0yW0NIMl1bQ0gyXVtDQEBIXShbQ0gzXSlbQ0gyXVtDSDJdMg==

> <s_epik_cmdline>
J2VwaWtfcHl0aG9uJywgJy1waCcsICc3LjAnLCAnLXRuJywgJzgnLCAnLW1hJywgJzIwMCcsICctbWV0YWxfYmluZGluZycsICctaW1hZScsICc8aW5maWxlLm1hZT4nLCAnLW9tYWUnLCAnPG91dGZpbGUubWFlPic=

> <r_lp_tautomer_probability>
1

> <r_epik_Ionization_Penalty>
0.000505313

> <r_epik_Ionization_Penalty_Charging>
0.000421171

> <r_epik_Ionization_Penalty_Neutral>
8.41424e-05

> <r_epik_State_Penalty>
-0

> <r_epik_Charging_Adjusted_Penalty>
0.000421171

> <i_epik_Tot_Q>
1

> <i_epik_Tot_abs_Q>
1

> <r_epik_Metal_State_Penalty>
-0

> <b_epik_Metal_Only>
0

> <s_lp_Force_Field>
OPLS_2005

> <r_lp_Energy>
10.3881

> <b_lp_Chiralities_Consistent>
1

> <s_lp_Variant>
AV-unprocessed.smi:3304-1

> <Gold.Version>
5.8.1

> <Gold.Id.Protein>
6NUR|6NUR_protein|mol2

> <Gold.PLP.Fitness>
45.8186

> <Gold.PLP.PLP>
-45.9532

> <Gold.PLP.part.hbond>
0.0000

> <Gold.PLP.part.metal>
0.0000

> <Gold.PLP.part.buried>
-5.3122

> <Gold.PLP.part.nonpolar>
-40.4312

> <Gold.PLP.part.repulsive>
0.0735

> <Gold.PLP.ligand.clash>
0.0000

> <Gold.PLP.ligand.torsion>
0.0801

> <Gold.PLP.Chemscore.Hbond>
0.0000

> <Gold.PLP.Chemscore.CHOScore>
0.0000

> <Gold.PLP.Chemscore.Metal>
0.0000

> <Gold.PLP.Chemscore.Internal.Correction>
0.0255

> <Gold.Rescore>
     Score         DG    S(hbond)    S(metal)    S(lipo)     H(rot)  DE(clash)    DE(int)     intcor
     17.48     -17.70       0.00        0.00     135.76       1.43       0.13       0.08       ----

> <Gold.Chemscore.Fitness>
17.4849

> <Gold.Chemscore.DG>
-17.6950

> <Gold.Chemscore.ZeroCoef>
-5.4800

> <Gold.Chemscore.Hbond>
0.0000

> <Gold.Chemscore.Metal>
0.0000

> <Gold.Chemscore.Lipo>
135.7590

> <Gold.Chemscore.Internal_Hbond>
0.0000

> <Gold.Chemscore.DEClash>
0.1317

> <Gold.Chemscore.DEInternal>
0.0785

> <Gold.Chemscore.Rot>
1.4331

> <Gold.Chemscore.Internal.Correction>
   9.000000E+99

> <Gold.Chemscore.Hbond.Weighted>
-0.0000

> <Gold.Chemscore.Metal.Weighted>
-0.0000

> <Gold.Chemscore.Lipo.Weighted>
-15.8838

> <Gold.Chemscore.Internal_Hbond.Weighted>
0.0000

> <Gold.Chemscore.DEClash.Weighted>
0.1317

> <Gold.Chemscore.DEInternal.Weighted>
0.0785

> <Gold.Chemscore.Rot.Weighted>
3.6688

> <Gold.Chemscore.Internal.Correction.Weighted>
   9.000000E+99

> <Gold.Protein.RotatedTorsions>
[ 6907 6896 6895 6894 ] final   53.76 input  -60.11 | X-H torsion
[ 7974 7965 7964 7962 ] final  155.83 input  175.53 | X-H torsion
[ 8008 7997 7996 7995 ] final -111.41 input   59.86 | X-H torsion
[ 10167 10162 10161 10158 ] final  -67.18 input  -65.29 | X-H torsion
[ 10718 10713 10712 10709 ] final  139.10 input   66.30 | X-H torsion
[ 10763 10752 10751 10750 ] final  101.52 input  -60.55 | X-H torsion
[ 11005 11000 10999 10996 ] final   15.16 input  -57.11 | X-H torsion

> <Gold.Protein.ActiveResidues>
 VAL166  LYS551  ARG553  GLY616  TRP617  ASP618  TYR619  PRO620  LYS621  CYS622 
 ASP623  PHE694  ASN695  SER759  ASP760  ASP761  ALA762  ILE779  LEU786  VAL792 
 PHE793  MET794  SER795  GLU796  ALA797  LYS798  CYS799  TRP800  GLU811  SER814 

> <Gold.Protein.RotatedAtoms>
  152.3370  134.7185  160.0273 H   0  0  0  0  0  0  0  0  0  0  0  0  # atno 6907 bound_to 6896
  151.7582  133.3326  159.3418 H   0  0  0  0  0  0  0  0  0  0  0  0  # atno 6908 bound_to 6896
  150.7456  134.6062  159.6107 H   0  0  0  0  0  0  0  0  0  0  0  0  # atno 6909 bound_to 6896
  144.8000  139.7121  143.6185 H   0  0  0  0  0  0  0  0  0  0  0  0  # atno 7974 bound_to 7965
  154.9894  140.0395  157.2313 H   0  0  0  0  0  0  0  0  0  0  0  0  # atno 8008 bound_to 7997
  154.7642  140.2790  155.6167 H   0  0  0  0  0  0  0  0  0  0  0  0  # atno 8009 bound_to 7997
  156.2909  140.2622  156.2428 H   0  0  0  0  0  0  0  0  0  0  0  0  # atno 8010 bound_to 7997
  140.5602  143.2312  151.6743 H   0  0  0  0  0  0  0  0  0  0  0  0  # atno 10167 bound_to 10162
  157.4181  131.1035  151.0383 H   0  0  0  0  0  0  0  0  0  0  0  0  # atno 10718 bound_to 10713
  153.3278  135.4041  155.1470 H   0  0  0  0  0  0  0  0  0  0  0  0  # atno 10763 bound_to 10752
  154.8616  135.3603  154.5511 H   0  0  0  0  0  0  0  0  0  0  0  0  # atno 10764 bound_to 10752
  153.5948  135.7073  153.5467 H   0  0  0  0  0  0  0  0  0  0  0  0  # atno 10765 bound_to 10752
  140.4614  134.1123  155.7717 H   0  0  0  0  0  0  0  0  0  0  0  0  # atno 11005 bound_to 11000
  146.2279  139.5758  142.9574 LP  0  0  0  0  0  0  0  0  0  0  0  0  # atno 17320 bound_to 7965
  145.5576  141.0407  143.2244 LP  0  0  0  0  0  0  0  0  0  0  0  0  # atno 17321 bound_to 7965
  139.5066  144.3675  152.0503 LP  0  0  0  0  0  0  0  0  0  0  0  0  # atno 17342 bound_to 10162
  140.2800  144.3870  150.6122 LP  0  0  0  0  0  0  0  0  0  0  0  0  # atno 17343 bound_to 10162
  157.1323  130.6107  149.5532 LP  0  0  0  0  0  0  0  0  0  0  0  0  # atno 17370 bound_to 10713
  155.9872  130.4910  150.7113 LP  0  0  0  0  0  0  0  0  0  0  0  0  # atno 17371 bound_to 10713
  141.1619  133.8776  157.1823 LP  0  0  0  0  0  0  0  0  0  0  0  0  # atno 17394 bound_to 11000
  139.9943  135.0053  157.0046 LP  0  0  0  0  0  0  0  0  0  0  0  0  # atno 17395 bound_to 11000

$$$$
