AV-unprocessed.smi:2510|AV-procd|sdf|9882|dock7
  -GOLD-   2272013513D 1   1.00000     0.00000
 Structure written by MMmdl.
 48 49  0  0  0  0  0  0  0  0  1 V2000
  149.2580  132.9482  153.2987 C   0  0  0  0  0  0  0  0  0  0  0  0
  148.2477  134.1094  153.3184 C   0  0  0  0  0  0  0  0  0  0  0  0
  146.7667  133.7708  152.9855 C   0  0  0  0  0  0  0  0  0  0  0  0
  146.3397  132.6583  153.9742 C   0  0  0  0  0  0  0  0  0  0  0  0
  146.3330  133.0736  155.4563 C   0  0  0  0  0  0  0  0  0  0  0  0
  145.7403  134.9393  152.8854 C   0  0  1  0  0  0  0  0  0  0  0  0
  146.3300  136.2165  152.4899 N   0  0  0  0  0  0  0  0  0  0  0  0
  145.6944  137.3982  152.4745 C   0  0  0  0  0  0  0  0  0  0  0  0
  144.5247  137.5391  152.8298 O   0  0  0  0  0  0  0  0  0  0  0  0
  146.5019  138.6153  152.0089 C   0  0  0  0  0  0  0  0  0  0  0  0
  147.5884  138.9775  152.9749 C   0  0  0  0  0  0  0  0  0  0  0  0
  147.8228  140.1213  153.6862 C   0  0  0  0  0  0  0  0  0  0  0  0
  149.0285  139.8535  154.3983 C   0  0  0  0  0  0  0  0  0  0  0  0
  149.7702  140.7585  155.3373 C   0  0  0  0  0  0  0  0  0  0  0  0
  149.5011  138.6403  154.1541 N   0  0  0  0  0  0  0  0  0  0  0  0
  148.6147  138.1149  153.2886 N   0  0  0  0  0  0  0  0  0  0  0  0
  145.0681  134.2343  151.6929 C   0  0  1  0  0  0  0  0  0  0  0  0
  144.4729  135.0522  150.5473 C   0  0  0  0  0  0  0  0  0  0  0  0
  146.4010  133.4958  151.4984 C   0  0  2  0  0  0  0  0  0  0  0  0
  146.2886  132.1098  151.2095 O   0  0  0  0  0  0  0  0  0  0  0  0
  145.7520  131.8475  149.9248 C   0  0  0  0  0  0  0  0  0  0  0  0
  148.7228  137.1793  152.9227 H   0  0  0  0  0  0  0  0  0  0  0  0
  150.2629  133.3183  153.5026 H   0  0  0  0  0  0  0  0  0  0  0  0
  149.2925  132.4392  152.3365 H   0  0  0  0  0  0  0  0  0  0  0  0
  149.0278  132.2094  154.0667 H   0  0  0  0  0  0  0  0  0  0  0  0
  148.3213  134.5572  154.3101 H   0  0  0  0  0  0  0  0  0  0  0  0
  148.6042  134.8811  152.6355 H   0  0  0  0  0  0  0  0  0  0  0  0
  145.3395  132.2992  153.7309 H   0  0  0  0  0  0  0  0  0  0  0  0
  146.9825  131.7848  153.8578 H   0  0  0  0  0  0  0  0  0  0  0  0
  145.9829  132.2511  156.0804 H   0  0  0  0  0  0  0  0  0  0  0  0
  145.6739  133.9220  155.6372 H   0  0  0  0  0  0  0  0  0  0  0  0
  147.3285  133.3434  155.8081 H   0  0  0  0  0  0  0  0  0  0  0  0
  145.0644  135.0175  153.7380 H   0  0  0  0  0  0  0  0  0  0  0  0
  147.2926  136.1957  152.1852 H   0  0  0  0  0  0  0  0  0  0  0  0
  146.9361  138.4060  151.0305 H   0  0  0  0  0  0  0  0  0  0  0  0
  145.8183  139.4545  151.8744 H   0  0  0  0  0  0  0  0  0  0  0  0
  147.2261  141.0215  153.6896 H   0  0  0  0  0  0  0  0  0  0  0  0
  149.3130  141.7474  155.3745 H   0  0  0  0  0  0  0  0  0  0  0  0
  150.8073  140.8848  155.0253 H   0  0  0  0  0  0  0  0  0  0  0  0
  149.7722  140.3556  156.3503 H   0  0  0  0  0  0  0  0  0  0  0  0
  144.3214  133.5397  152.0812 H   0  0  0  0  0  0  0  0  0  0  0  0
  145.2356  135.6251  150.0189 H   0  0  0  0  0  0  0  0  0  0  0  0
  143.7273  135.7579  150.9144 H   0  0  0  0  0  0  0  0  0  0  0  0
  143.9825  134.4111  149.8154 H   0  0  0  0  0  0  0  0  0  0  0  0
  147.0357  134.0193  150.7825 H   0  0  0  0  0  0  0  0  0  0  0  0
  145.7337  130.7717  149.7510 H   0  0  0  0  0  0  0  0  0  0  0  0
  146.3587  132.3038  149.1416 H   0  0  0  0  0  0  0  0  0  0  0  0
  144.7300  132.2157  149.8375 H   0  0  0  0  0  0  0  0  0  0  0  0
  1  2  1  0  0  0  0
  1 23  1  0  0  0  0
  1 24  1  0  0  0  0
  1 25  1  0  0  0  0
  2  3  1  0  0  0  0
  2 26  1  0  0  0  0
  2 27  1  0  0  0  0
  3 19  1  0  0  0  0
  3  4  1  0  0  0  0
  3  6  1  0  0  0  0
  4  5  1  0  0  0  0
  4 28  1  0  0  0  0
  4 29  1  0  0  0  0
  5 30  1  0  0  0  0
  5 31  1  0  0  0  0
  5 32  1  0  0  0  0
  6  7  1  0  0  0  0
  6 17  1  0  0  0  0
  6 33  1  0  0  0  0
  7  8  1  0  0  0  0
  7 34  1  0  0  0  0
  8  9  2  0  0  0  0
  8 10  1  0  0  0  0
 10 35  1  0  0  0  0
 10 36  1  0  0  0  0
 10 11  1  0  0  0  0
 11 16  1  0  0  0  0
 11 12  2  0  0  0  0
 12 13  1  0  0  0  0
 12 37  1  0  0  0  0
 13 14  1  0  0  0  0
 13 15  2  0  0  0  0
 14 38  1  0  0  0  0
 14 39  1  0  0  0  0
 14 40  1  0  0  0  0
 15 16  1  0  0  0  0
 16 22  1  0  0  0  0
 17 18  1  0  0  0  0
 17 19  1  0  0  0  0
 17 41  1  0  0  0  0
 18 42  1  0  0  0  0
 18 43  1  0  0  0  0
 18 44  1  0  0  0  0
 19 20  1  0  0  0  0
 19 45  1  0  0  0  0
 20 21  1  0  0  0  0
 21 46  1  0  0  0  0
 21 47  1  0  0  0  0
 21 48  1  0  0  0  0
M  END
> <s_m_source_file>
AV-unprocessed.smi

> <i_m_source_file_index>
2510

> <i_lp_mmshare_version>
43012

> <i_f3d_flags>
0

> <s_epik_input>
W0NIM11PW0NAQEhdMVtDQEhdKFtDSDNdKVtDQEBIXShDMShbQ0gyXVtDSDNdKVtDSDJdW0NIM10pW05IXUMoPU8pW0NIMl1jMltjSF1jKFtDSDNdKVtuSF1uMg==

> <s_epik_cmdline>
J2VwaWtfcHl0aG9uJywgJy1waCcsICc3LjAnLCAnLXRuJywgJzgnLCAnLW1hJywgJzIwMCcsICctbWV0YWxfYmluZGluZycsICctaW1hZScsICc8aW5maWxlLm1hZT4nLCAnLW9tYWUnLCAnPG91dGZpbGUubWFlPic=

> <r_lp_tautomer_probability>
0.5

> <r_epik_Ionization_Penalty>
0.000134763

> <r_epik_Ionization_Penalty_Charging>
0

> <r_epik_Ionization_Penalty_Neutral>
0.000134763

> <r_epik_State_Penalty>
0.41068

> <r_epik_Charging_Adjusted_Penalty>
0.41068

> <i_epik_Tot_Q>
0

> <i_epik_Tot_abs_Q>
0

> <r_epik_Metal_State_Penalty>
0.410661

> <b_epik_Metal_Only>
0

> <s_lp_Force_Field>
OPLS_2005

> <r_lp_Energy>
26.4004

> <b_lp_Chiralities_Consistent>
1

> <s_lp_Variant>
AV-unprocessed.smi:2510-13

> <Gold.Version>
5.8.1

> <Gold.Id.Protein>
6NUR|6NUR_protein|mol2

> <Gold.PLP.Fitness>
36.8134

> <Gold.PLP.PLP>
-31.2412

> <Gold.PLP.part.hbond>
-2.6947

> <Gold.PLP.part.metal>
0.0000

> <Gold.PLP.part.buried>
-0.1927

> <Gold.PLP.part.nonpolar>
-30.7063

> <Gold.PLP.part.repulsive>
1.5438

> <Gold.PLP.ligand.clash>
0.0000

> <Gold.PLP.ligand.torsion>
0.4792

> <Gold.PLP.Chemscore.Hbond>
1.9920

> <Gold.PLP.Chemscore.CHOScore>
0.0000

> <Gold.PLP.Chemscore.Metal>
0.0000

> <Gold.Chemscore.Hbonds>
donor molecule, donor type, donor heavy atom, donor atom, acceptor molecule, acceptor atom, score
      L1  H     7    34       P1  7948  1.00
      L1  H    16    22       P1  7948  0.75

> <Gold.PLP.Chemscore.Internal.Correction>
0.5546

> <Gold.Rescore>
     Score         DG    S(hbond)    S(metal)    S(lipo)     H(rot)  DE(clash)    DE(int)     intcor
     14.77     -16.88       1.98        0.00      80.49       1.81       1.61       0.50       ----

> <Gold.Chemscore.Fitness>
14.7675

> <Gold.Chemscore.DG>
-16.8844

> <Gold.Chemscore.ZeroCoef>
-5.4800

> <Gold.Chemscore.Hbond>
1.9824

> <Gold.Chemscore.Metal>
0.0000

> <Gold.Chemscore.Lipo>
80.4895

> <Gold.Chemscore.Internal_Hbond>
0.0000

> <Gold.Chemscore.DEClash>
1.6136

> <Gold.Chemscore.DEInternal>
0.5033

> <Gold.Chemscore.Rot>
1.8102

> <Gold.Chemscore.Internal.Correction>
   9.000000E+99

> <Gold.Chemscore.Hbonds>
donor molecule, donor type, donor heavy atom, donor atom, acceptor molecule, acceptor atom, score
      L1  H     7    34       P1  7948  1.00
      L1  H    16    22       P1  7948  0.72

> <Gold.Chemscore.Hbond.Weighted>
-6.6212

> <Gold.Chemscore.Metal.Weighted>
-0.0000

> <Gold.Chemscore.Lipo.Weighted>
-9.4173

> <Gold.Chemscore.Internal_Hbond.Weighted>
0.0000

> <Gold.Chemscore.DEClash.Weighted>
1.6136

> <Gold.Chemscore.DEInternal.Weighted>
0.5033

> <Gold.Chemscore.Rot.Weighted>
4.6341

> <Gold.Chemscore.Internal.Correction.Weighted>
   9.000000E+99

> <Gold.Protein.RotatedTorsions>
[ 6907 6896 6895 6894 ] final -162.64 input  -60.11 | X-H torsion
[ 7974 7965 7964 7962 ] final   15.44 input  175.53 | X-H torsion
[ 8008 7997 7996 7995 ] final  164.13 input   59.86 | X-H torsion
[ 10167 10162 10161 10158 ] final -175.90 input  -65.29 | X-H torsion
[ 10718 10713 10712 10709 ] final  -70.57 input   66.30 | X-H torsion
[ 10763 10752 10751 10750 ] final  -29.37 input  -60.55 | X-H torsion
[ 11005 11000 10999 10996 ] final  -36.17 input  -57.11 | X-H torsion

> <Gold.Protein.ActiveResidues>
 VAL166  LYS551  ARG553  GLY616  TRP617  ASP618  TYR619  PRO620  LYS621  CYS622 
 ASP623  PHE694  ASN695  SER759  ASP760  ASP761  ALA762  ILE779  LEU786  VAL792 
 PHE793  MET794  SER795  GLU796  ALA797  LYS798  CYS799  TRP800  GLU811  SER814 

> <Gold.Protein.RotatedAtoms>
  151.3835  133.3813  159.2712 H   0  0  0  0  0  0  0  0  0  0  0  0  # atno 6907 bound_to 6896
  150.9559  134.8955  159.7711 H   0  0  0  0  0  0  0  0  0  0  0  0  # atno 6908 bound_to 6896
  152.5130  134.3792  159.9397 H   0  0  0  0  0  0  0  0  0  0  0  0  # atno 6909 bound_to 6896
  146.2278  139.8894  142.8557 H   0  0  0  0  0  0  0  0  0  0  0  0  # atno 7974 bound_to 7965
  156.1904  140.1705  156.8104 H   0  0  0  0  0  0  0  0  0  0  0  0  # atno 8008 bound_to 7997
  154.5464  140.0726  156.8628 H   0  0  0  0  0  0  0  0  0  0  0  0  # atno 8009 bound_to 7997
  155.3114  140.3368  155.4246 H   0  0  0  0  0  0  0  0  0  0  0  0  # atno 8010 bound_to 7997
  139.5557  144.1995  152.1155 H   0  0  0  0  0  0  0  0  0  0  0  0  # atno 10167 bound_to 10162
  156.0402  130.4334  150.2316 H   0  0  0  0  0  0  0  0  0  0  0  0  # atno 10718 bound_to 10713
  153.7635  135.6917  153.4920 H   0  0  0  0  0  0  0  0  0  0  0  0  # atno 10763 bound_to 10752
  153.1922  135.4467  155.0162 H   0  0  0  0  0  0  0  0  0  0  0  0  # atno 10764 bound_to 10752
  154.8144  135.3392  154.7149 H   0  0  0  0  0  0  0  0  0  0  0  0  # atno 10765 bound_to 10752
  140.9854  133.7033  156.1756 H   0  0  0  0  0  0  0  0  0  0  0  0  # atno 11005 bound_to 11000
  145.2433  141.0017  143.3923 LP  0  0  0  0  0  0  0  0  0  0  0  0  # atno 17320 bound_to 7965
  144.9434  139.4163  143.6437 LP  0  0  0  0  0  0  0  0  0  0  0  0  # atno 17321 bound_to 7965
  140.1499  144.5124  150.6693 LP  0  0  0  0  0  0  0  0  0  0  0  0  # atno 17342 bound_to 10162
  140.6829  143.2335  151.5336 LP  0  0  0  0  0  0  0  0  0  0  0  0  # atno 17343 bound_to 10162
  157.0411  131.0035  151.3283 LP  0  0  0  0  0  0  0  0  0  0  0  0  # atno 17370 bound_to 10713
  157.5208  130.7997  149.7807 LP  0  0  0  0  0  0  0  0  0  0  0  0  # atno 17371 bound_to 10713
  140.7123  134.4448  157.5581 LP  0  0  0  0  0  0  0  0  0  0  0  0  # atno 17394 bound_to 11000
  139.8968  134.8651  156.2071 LP  0  0  0  0  0  0  0  0  0  0  0  0  # atno 17395 bound_to 11000

$$$$
