AV-unprocessed.smi:2784|AV-procd|sdf|10731|dock8
  -GOLD-   2272015173D 1   1.00000     0.00000
 Structure written by MMmdl.
 32 33  0  0  0  0  0  0  0  0  2 V2000
  148.8611  138.2003  156.4278 C   0  0  0  0  0  0  0  0  0  0  0  0
  148.9121  139.5393  155.9619 O   0  0  0  0  0  0  0  0  0  0  0  0
  149.1129  139.6550  154.5553 C   0  0  1  0  0  0  0  0  0  0  0  0
  147.9258  139.0217  153.8202 C   0  0  0  0  0  0  0  0  0  0  0  0
  146.8563  140.1099  153.8308 C   0  0  0  0  0  0  0  0  0  0  0  0
  147.6318  141.4166  153.6498 C   0  0  0  0  0  0  0  0  0  0  0  0
  149.0689  141.1435  154.1363 C   0  0  1  0  0  0  0  0  0  0  0  0
  149.4408  142.0533  155.2182 N   0  0  0  0  0  0  0  0  0  0  0  0
  150.4604  141.8561  156.0661 C   0  0  0  0  0  0  0  0  0  0  0  0
  151.2167  140.8858  156.0111 O   0  0  0  0  0  0  0  0  0  0  0  0
  150.5425  142.8379  156.9764 N   0  0  0  0  0  0  0  0  0  0  0  0
  151.5150  142.9364  157.9978 C   0  0  0  0  0  0  0  0  0  0  0  0
  151.8131  144.0666  158.6370 N   0  3  0  0  0  0  0  0  0  0  0  0
  152.7974  143.8053  159.5578 C   0  0  0  0  0  0  0  0  0  0  0  0
  153.0748  142.4646  159.4378 C   0  0  0  0  0  0  0  0  0  0  0  0
  152.2759  141.9043  158.4613 O   0  0  0  0  0  0  0  0  0  0  0  0
  148.7075  138.1973  157.5067 H   0  0  0  0  0  0  0  0  0  0  0  0
  149.7962  137.6778  156.2227 H   0  0  0  0  0  0  0  0  0  0  0  0
  148.0429  137.6426  155.9729 H   0  0  0  0  0  0  0  0  0  0  0  0
  150.0645  139.2052  154.2654 H   0  0  0  0  0  0  0  0  0  0  0  0
  148.2106  138.8053  152.7897 H   0  0  0  0  0  0  0  0  0  0  0  0
  147.5780  138.0892  154.2644 H   0  0  0  0  0  0  0  0  0  0  0  0
  146.0996  139.9621  153.0599 H   0  0  0  0  0  0  0  0  0  0  0  0
  146.3496  140.1135  154.7967 H   0  0  0  0  0  0  0  0  0  0  0  0
  147.6517  141.6892  152.5938 H   0  0  0  0  0  0  0  0  0  0  0  0
  147.1475  142.2372  154.1810 H   0  0  0  0  0  0  0  0  0  0  0  0
  149.7424  141.2964  153.2905 H   0  0  0  0  0  0  0  0  0  0  0  0
  148.8637  142.8728  155.3384 H   0  0  0  0  0  0  0  0  0  0  0  0
  151.4070  144.9835  158.4980 H   0  0  0  0  0  0  0  0  0  0  0  0
  153.1955  144.5836  160.1932 H   0  0  0  0  0  0  0  0  0  0  0  0
  153.7636  141.7972  159.9352 H   0  0  0  0  0  0  0  0  0  0  0  0
  149.8570  143.5771  156.9313 H   0  0  0  0  0  0  0  0  0  0  0  0
  1  2  1  0  0  0  0
  1 17  1  0  0  0  0
  1 18  1  0  0  0  0
  1 19  1  0  0  0  0
  2  3  1  0  0  0  0
  3  7  1  0  0  0  0
  3  4  1  0  0  0  0
  3 20  1  0  0  0  0
  4  5  1  0  0  0  0
  4 21  1  0  0  0  0
  4 22  1  0  0  0  0
  5  6  1  0  0  0  0
  5 23  1  0  0  0  0
  5 24  1  0  0  0  0
  6  7  1  0  0  0  0
  6 25  1  0  0  0  0
  6 26  1  0  0  0  0
  7  8  1  0  0  0  0
  7 27  1  0  0  0  0
  8 28  1  0  0  0  0
  8  9  1  0  0  0  0
  9 11  1  0  0  0  0
  9 10  2  0  0  0  0
 11 12  1  0  0  0  0
 11 32  1  0  0  0  0
 12 16  1  0  0  0  0
 12 13  2  0  0  0  0
 13 29  1  0  0  0  0
 13 14  1  0  0  0  0
 14 30  1  0  0  0  0
 14 15  2  0  0  0  0
 15 31  1  0  0  0  0
 15 16  1  0  0  0  0
M  CHG  1  13   1
M  END
> <s_m_source_file>
AV-unprocessed.smi

> <i_m_source_file_index>
2784

> <i_lp_mmshare_version>
43012

> <i_f3d_flags>
0

> <s_epik_input>
W0NIM11PW0NAQEhdMVtDSDJdW0NIMl1bQ0gyXVtDQEhdMVtOSF1DKD1PKVtOSF1jMm5bY0hdW2NIXW8y

> <s_epik_cmdline>
J2VwaWtfcHl0aG9uJywgJy1waCcsICc3LjAnLCAnLXRuJywgJzgnLCAnLW1hJywgJzIwMCcsICctbWV0YWxfYmluZGluZycsICctaW1hZScsICc8aW5maWxlLm1hZT4nLCAnLW9tYWUnLCAnPG91dGZpbGUubWFlPic=

> <r_epik_Ionization_Penalty>
6.73843

> <r_epik_Ionization_Penalty_Charging>
6.66704

> <r_epik_Ionization_Penalty_Neutral>
0.0713889

> <r_epik_State_Penalty>
1.94951

> <r_epik_Charging_Adjusted_Penalty>
8.61656

> <i_epik_Tot_Q>
1

> <i_epik_Tot_abs_Q>
1

> <r_epik_Metal_State_Penalty>
1.97013

> <b_epik_Metal_Only>
0

> <s_lp_Force_Field>
OPLS_2005

> <r_lp_Energy>
28.3285

> <b_lp_Chiralities_Consistent>
1

> <s_lp_Variant>
AV-unprocessed.smi:2784-6

> <Gold.Version>
5.8.1

> <Gold.Id.Protein>
6NUR|6NUR_protein|mol2

> <Gold.PLP.Fitness>
33.4028

> <Gold.PLP.PLP>
-28.1480

> <Gold.PLP.part.hbond>
-2.0000

> <Gold.PLP.part.metal>
0.0000

> <Gold.PLP.part.buried>
-3.9323

> <Gold.PLP.part.nonpolar>
-21.8431

> <Gold.PLP.part.repulsive>
0.2803

> <Gold.PLP.ligand.clash>
0.0000

> <Gold.PLP.ligand.torsion>
0.3299

> <Gold.PLP.Chemscore.Hbond>
1.9680

> <Gold.PLP.Chemscore.CHOScore>
0.0000

> <Gold.PLP.Chemscore.Metal>
0.0000

> <Gold.Chemscore.Hbonds>
donor molecule, donor type, donor heavy atom, donor atom, acceptor molecule, acceptor atom, score
      L1  H     8    28       P1  8028  0.90
      L1  H    11    32       P1  8028  0.86

> <Gold.PLP.Chemscore.Internal.Correction>
0.0107

> <Gold.Rescore>
     Score         DG    S(hbond)    S(metal)    S(lipo)     H(rot)  DE(clash)    DE(int)     intcor
      9.76     -15.17       1.84        0.00      59.57       1.34       0.07       5.33       ----

> <Gold.Chemscore.Fitness>
9.7646

> <Gold.Chemscore.DG>
-15.1707

> <Gold.Chemscore.ZeroCoef>
-5.4800

> <Gold.Chemscore.Hbond>
1.8378

> <Gold.Chemscore.Metal>
0.0000

> <Gold.Chemscore.Lipo>
59.5745

> <Gold.Chemscore.Internal_Hbond>
0.0000

> <Gold.Chemscore.DEClash>
0.0732

> <Gold.Chemscore.DEInternal>
5.3328

> <Gold.Chemscore.Rot>
1.3351

> <Gold.Chemscore.Internal.Correction>
   9.000000E+99

> <Gold.Chemscore.Hbonds>
donor molecule, donor type, donor heavy atom, donor atom, acceptor molecule, acceptor atom, score
      L1  H     8    28       P1  8028  0.88
      L1  H    11    32       P1  8028  0.83

> <Gold.Chemscore.Hbond.Weighted>
-6.1382

> <Gold.Chemscore.Metal.Weighted>
-0.0000

> <Gold.Chemscore.Lipo.Weighted>
-6.9702

> <Gold.Chemscore.Internal_Hbond.Weighted>
0.0000

> <Gold.Chemscore.DEClash.Weighted>
0.0732

> <Gold.Chemscore.DEInternal.Weighted>
5.3328

> <Gold.Chemscore.Rot.Weighted>
3.4177

> <Gold.Chemscore.Internal.Correction.Weighted>
   9.000000E+99

> <Gold.Protein.RotatedTorsions>
[ 6907 6896 6895 6894 ] final  -60.82 input  -60.11 | X-H torsion
[ 7974 7965 7964 7962 ] final -103.90 input  175.53 | X-H torsion
[ 8008 7997 7996 7995 ] final  -49.40 input   59.86 | X-H torsion
[ 10167 10162 10161 10158 ] final   35.20 input  -65.29 | X-H torsion
[ 10718 10713 10712 10709 ] final -119.39 input   66.30 | X-H torsion
[ 10763 10752 10751 10750 ] final  -23.27 input  -60.55 | X-H torsion
[ 11005 11000 10999 10996 ] final -161.42 input  -57.11 | X-H torsion

> <Gold.Protein.ActiveResidues>
 VAL166  LYS551  ARG553  GLY616  TRP617  ASP618  TYR619  PRO620  LYS621  CYS622 
 ASP623  PHE694  ASN695  SER759  ASP760  ASP761  ALA762  ILE779  LEU786  VAL792 
 PHE793  MET794  SER795  GLU796  ALA797  LYS798  CYS799  TRP800  GLU811  SER814 

> <Gold.Protein.RotatedAtoms>
  150.7829  134.6787  159.6431 H   0  0  0  0  0  0  0  0  0  0  0  0  # atno 6907 bound_to 6896
  152.3917  134.6427  160.0113 H   0  0  0  0  0  0  0  0  0  0  0  0  # atno 6908 bound_to 6896
  151.6725  133.3277  159.3236 H   0  0  0  0  0  0  0  0  0  0  0  0  # atno 6909 bound_to 6896
  145.2500  140.9235  143.3100 H   0  0  0  0  0  0  0  0  0  0  0  0  # atno 7974 bound_to 7965
  154.4043  140.1297  156.4497 H   0  0  0  0  0  0  0  0  0  0  0  0  # atno 8008 bound_to 7997
  155.7378  140.3490  155.5070 H   0  0  0  0  0  0  0  0  0  0  0  0  # atno 8009 bound_to 7997
  155.9067  140.1028  157.1300 H   0  0  0  0  0  0  0  0  0  0  0  0  # atno 8010 bound_to 7997
  140.4244  144.1414  150.6151 H   0  0  0  0  0  0  0  0  0  0  0  0  # atno 10167 bound_to 10162
  156.1178  130.6299  150.9411 H   0  0  0  0  0  0  0  0  0  0  0  0  # atno 10718 bound_to 10713
  153.6652  135.6974  153.5164 H   0  0  0  0  0  0  0  0  0  0  0  0  # atno 10763 bound_to 10752
  153.2601  135.4247  155.0884 H   0  0  0  0  0  0  0  0  0  0  0  0  # atno 10764 bound_to 10752
  154.8441  135.3552  154.6196 H   0  0  0  0  0  0  0  0  0  0  0  0  # atno 10765 bound_to 10752
  140.6206  134.4755  157.5223 H   0  0  0  0  0  0  0  0  0  0  0  0  # atno 11005 bound_to 11000
  144.9511  139.4081  143.6402 LP  0  0  0  0  0  0  0  0  0  0  0  0  # atno 17320 bound_to 7965
  146.3305  139.8519  142.8871 LP  0  0  0  0  0  0  0  0  0  0  0  0  # atno 17321 bound_to 7965
  140.4498  143.2491  151.9363 LP  0  0  0  0  0  0  0  0  0  0  0  0  # atno 17342 bound_to 10162
  139.4783  144.5574  151.8293 LP  0  0  0  0  0  0  0  0  0  0  0  0  # atno 17343 bound_to 10162
  157.6361  131.0916  150.8345 LP  0  0  0  0  0  0  0  0  0  0  0  0  # atno 17370 bound_to 10713
  156.8446  130.5059  149.5317 LP  0  0  0  0  0  0  0  0  0  0  0  0  # atno 17371 bound_to 10713
  139.9155  134.8255  156.1381 LP  0  0  0  0  0  0  0  0  0  0  0  0  # atno 17394 bound_to 11000
  141.0745  133.6782  156.2208 LP  0  0  0  0  0  0  0  0  0  0  0  0  # atno 17395 bound_to 11000

$$$$
