AV-unprocessed.smi:39|AV-procd|sdf|362|dock6
  -GOLD-   2262016203D 1   1.00000     0.00000
 Structure written by MMmdl.
 31 32  0  0  0  0  0  0  0  0  4 V2000
  152.5110  143.7955  162.0835 C   0  0  0  0  0  0  0  0  0  0  0  0
  152.8638  142.6638  161.1343 C   0  0  0  0  0  0  0  0  0  0  0  0
  152.2419  142.4996  159.9455 C   0  0  0  0  0  0  0  0  0  0  0  0
  152.5666  141.4657  159.0821 N   0  0  0  0  0  0  0  0  0  0  0  0
  151.8573  141.2785  157.7543 C   0  0  2  0  0  0  0  0  0  0  0  0
  150.9138  142.4622  157.4654 C   0  0  0  0  0  0  0  0  0  0  0  0
  149.5955  141.7768  157.1334 C   0  0  1  0  0  0  0  0  0  0  0  0
  149.5047  141.4599  155.7009 N   0  0  0  0  0  0  0  0  0  0  0  0
  150.3083  140.6247  155.2663 N   0  3  0  0  0  0  0  0  0  0  0  0
  151.0969  139.9506  154.7987 N   0  5  0  0  0  0  0  0  0  0  0  0
  149.7026  140.5154  157.9983 C   0  0  1  0  0  0  0  0  0  0  0  0
  148.7425  139.3750  157.6185 C   0  0  0  0  0  0  0  0  0  0  0  0
  147.4238  139.7028  158.0021 O   0  0  0  0  0  0  0  0  0  0  0  0
  151.0577  140.1312  157.7957 O   0  0  0  0  0  0  0  0  0  0  0  0
  153.5688  140.5323  159.4568 C   0  0  0  0  0  0  0  0  0  0  0  0
  153.8233  139.6142  158.6764 O   0  0  0  0  0  0  0  0  0  0  0  0
  154.2032  140.6914  160.6531 N   0  5  0  0  0  0  0  0  0  0  0  0
  153.9104  141.7074  161.5143 C   0  0  0  0  0  0  0  0  0  0  0  0
  154.4933  141.8415  162.5901 O   0  0  0  0  0  0  0  0  0  0  0  0
  152.6480  141.1442  157.0142 H   0  0  0  0  0  0  0  0  0  0  0  0
  148.7439  142.3814  157.4515 H   0  0  0  0  0  0  0  0  0  0  0  0
  149.5520  140.7993  159.0420 H   0  0  0  0  0  0  0  0  0  0  0  0
  151.7315  144.4343  161.6671 H   0  0  0  0  0  0  0  0  0  0  0  0
  153.3863  144.4157  162.2796 H   0  0  0  0  0  0  0  0  0  0  0  0
  152.1506  143.3967  163.0322 H   0  0  0  0  0  0  0  0  0  0  0  0
  151.4692  143.2032  159.6770 H   0  0  0  0  0  0  0  0  0  0  0  0
  150.8013  143.0761  158.3606 H   0  0  0  0  0  0  0  0  0  0  0  0
  151.3069  143.0893  156.6643 H   0  0  0  0  0  0  0  0  0  0  0  0
  148.7420  139.2302  156.5378 H   0  0  0  0  0  0  0  0  0  0  0  0
  149.0446  138.4313  158.0741 H   0  0  0  0  0  0  0  0  0  0  0  0
  147.1596  139.1197  158.6972 H   0  0  0  0  0  0  0  0  0  0  0  0
  1  2  1  0  0  0  0
  1 23  1  0  0  0  0
  1 24  1  0  0  0  0
  1 25  1  0  0  0  0
  2 18  1  0  0  0  0
  2  3  2  0  0  0  0
  3  4  1  0  0  0  0
  3 26  1  0  0  0  0
  4  5  1  0  0  0  0
  4 15  1  0  0  0  0
  5 20  1  0  0  0  0
  5 14  1  0  0  0  0
  5  6  1  0  0  0  0
  6  7  1  0  0  0  0
  6 27  1  0  0  0  0
  6 28  1  0  0  0  0
  7 21  1  0  0  0  0
  7  8  1  0  0  0  0
  7 11  1  0  0  0  0
  8  9  2  0  0  0  0
  9 10  2  0  0  0  0
 11 22  1  0  0  0  0
 11 12  1  0  0  0  0
 11 14  1  0  0  0  0
 12 13  1  0  0  0  0
 12 29  1  0  0  0  0
 12 30  1  0  0  0  0
 13 31  1  0  0  0  0
 15 16  2  0  0  0  0
 15 17  1  0  0  0  0
 17 18  1  0  0  0  0
 18 19  2  0  0  0  0
M  CHG  1   9   1
M  CHG  1  10  -1
M  CHG  1  17  -1
M  END
> <s_m_source_file>
AV-unprocessed.smi

> <i_m_source_file_index>
39

> <i_lp_mmshare_version>
43012

> <i_f3d_flags>
0

> <s_epik_input>
Tz1jMVtuSF1jKD1PKW4oW2NIXWMxW0NIM10pW0NASF0yW0NIMl1bQ0BIXShOPVtOK109W04tXSlbQ0BIXShPMilbQ0gyXVtPSF0=

> <s_epik_cmdline>
J2VwaWtfcHl0aG9uJywgJy1waCcsICc3LjAnLCAnLXRuJywgJzgnLCAnLW1hJywgJzIwMCcsICctbWV0YWxfYmluZGluZycsICctaW1hZScsICc8aW5maWxlLm1hZT4nLCAnLW9tYWUnLCAnPG91dGZpbGUubWFlPic=

> <r_lp_tautomer_probability>
0.999537

> <r_epik_Ionization_Penalty>
3.6393

> <r_epik_Ionization_Penalty_Charging>
9.76484e-08

> <r_epik_Ionization_Penalty_Neutral>
3.6393

> <r_epik_State_Penalty>
3.63887

> <r_epik_Charging_Adjusted_Penalty>
3.63887

> <i_epik_Tot_Q>
-1

> <i_epik_Tot_abs_Q>
3

> <r_epik_Metal_State_Penalty>
0.225911

> <b_epik_Metal_Only>
1

> <s_epik_Chemistry_Notes>
This compound contains an acetal/aminal-like group ( X-CH(R)-Y where X, Y are N, S, or O) that may be acid/base labile, releasing an aldehyde.

> <s_lp_Force_Field>
OPLS_2005

> <r_lp_Energy>
37.741

> <b_lp_Chiralities_Consistent>
1

> <s_lp_Variant>
AV-unprocessed.smi:39-12

> <Gold.Version>
5.8.1

> <Gold.Id.Protein>
6NUR|6NUR_protein|mol2

> <Gold.PLP.Fitness>
39.7430

> <Gold.PLP.PLP>
-34.2398

> <Gold.PLP.part.hbond>
-4.5563

> <Gold.PLP.part.metal>
0.0000

> <Gold.PLP.part.buried>
-5.9718

> <Gold.PLP.part.nonpolar>
-23.2613

> <Gold.PLP.part.repulsive>
0.2629

> <Gold.PLP.ligand.clash>
0.0000

> <Gold.PLP.ligand.torsion>
0.2716

> <Gold.PLP.Chemscore.Hbond>
2.0000

> <Gold.PLP.Chemscore.CHOScore>
0.0000

> <Gold.PLP.Chemscore.Metal>
0.0000

> <Gold.Chemscore.Hbonds>
donor molecule, donor type, donor heavy atom, donor atom, acceptor molecule, acceptor atom, score
      P1  H  7989  7998       L1    10  1.00
      P1  H  7997  8010       L1    16  1.00

> <Gold.PLP.Chemscore.Internal.Correction>
0.0464

> <Gold.Rescore>
     Score         DG    S(hbond)    S(metal)    S(lipo)     H(rot)  DE(clash)    DE(int)     intcor
      4.17     -10.77       1.90        0.00      50.41       2.72       1.65       4.94       ----

> <Gold.Chemscore.Fitness>
4.1738

> <Gold.Chemscore.DG>
-10.7655

> <Gold.Chemscore.ZeroCoef>
-5.4800

> <Gold.Chemscore.Hbond>
1.8979

> <Gold.Chemscore.Metal>
0.0000

> <Gold.Chemscore.Lipo>
50.4087

> <Gold.Chemscore.Internal_Hbond>
0.0000

> <Gold.Chemscore.DEClash>
1.6500

> <Gold.Chemscore.DEInternal>
4.9417

> <Gold.Chemscore.Rot>
2.7153

> <Gold.Chemscore.Internal.Correction>
   9.000000E+99

> <Gold.Chemscore.Hbonds>
donor molecule, donor type, donor heavy atom, donor atom, acceptor molecule, acceptor atom, score
      P1  H  7989  7998       L1    10  0.40
      P1  H  7997  8010       L1    16  0.94

> <Gold.Chemscore.Hbond.Weighted>
-6.3389

> <Gold.Chemscore.Metal.Weighted>
-0.0000

> <Gold.Chemscore.Lipo.Weighted>
-5.8978

> <Gold.Chemscore.Internal_Hbond.Weighted>
0.0000

> <Gold.Chemscore.DEClash.Weighted>
1.6500

> <Gold.Chemscore.DEInternal.Weighted>
4.9417

> <Gold.Chemscore.Rot.Weighted>
6.9512

> <Gold.Chemscore.Internal.Correction.Weighted>
   9.000000E+99

> <Gold.Protein.RotatedTorsions>
[ 6907 6896 6895 6894 ] final   63.78 input  -60.11 | X-H torsion
[ 7974 7965 7964 7962 ] final   76.45 input  175.53 | X-H torsion
[ 8008 7997 7996 7995 ] final   17.71 input   59.86 | X-H torsion
[ 10167 10162 10161 10158 ] final   -0.61 input  -65.29 | X-H torsion
[ 10718 10713 10712 10709 ] final   72.02 input   66.30 | X-H torsion
[ 10763 10752 10751 10750 ] final  177.84 input  -60.55 | X-H torsion
[ 11005 11000 10999 10996 ] final -106.89 input  -57.11 | X-H torsion

> <Gold.Protein.ActiveResidues>
 VAL166  LYS551  ARG553  GLY616  TRP617  ASP618  TYR619  PRO620  LYS621  CYS622 
 ASP623  PHE694  ASN695  SER759  ASP760  ASP761  ALA762  ILE779  LEU786  VAL792 
 PHE793  MET794  SER795  GLU796  ALA797  LYS798  CYS799  TRP800  GLU811  SER814 

> <Gold.Protein.RotatedAtoms>
  152.4280  134.5832  159.9953 H   0  0  0  0  0  0  0  0  0  0  0  0  # atno 6907 bound_to 6896
  151.5963  133.3355  159.3046 H   0  0  0  0  0  0  0  0  0  0  0  0  # atno 6908 bound_to 6896
  150.8171  134.7395  159.6804 H   0  0  0  0  0  0  0  0  0  0  0  0  # atno 6909 bound_to 6896
  145.7027  139.2588  143.1696 H   0  0  0  0  0  0  0  0  0  0  0  0  # atno 7974 bound_to 7965
  154.8954  140.2993  155.5347 H   0  0  0  0  0  0  0  0  0  0  0  0  # atno 8008 bound_to 7997
  156.3020  140.2417  156.3910 H   0  0  0  0  0  0  0  0  0  0  0  0  # atno 8009 bound_to 7997
  154.8575  140.0406  157.1633 H   0  0  0  0  0  0  0  0  0  0  0  0  # atno 8010 bound_to 7997
  140.6775  143.6873  150.8056 H   0  0  0  0  0  0  0  0  0  0  0  0  # atno 10167 bound_to 10162
  157.6480  130.9557  150.0870 H   0  0  0  0  0  0  0  0  0  0  0  0  # atno 10718 bound_to 10713
  154.4998  135.2783  155.1430 H   0  0  0  0  0  0  0  0  0  0  0  0  # atno 10763 bound_to 10752
  154.3068  135.6237  153.5452 H   0  0  0  0  0  0  0  0  0  0  0  0  # atno 10764 bound_to 10752
  152.9900  135.5710  154.5438 H   0  0  0  0  0  0  0  0  0  0  0  0  # atno 10765 bound_to 10752
  141.0982  133.8933  157.1910 H   0  0  0  0  0  0  0  0  0  0  0  0  # atno 11005 bound_to 11000
  146.0783  140.7792  142.9654 LP  0  0  0  0  0  0  0  0  0  0  0  0  # atno 17320 bound_to 7965
  144.6964  140.3449  143.7192 LP  0  0  0  0  0  0  0  0  0  0  0  0  # atno 17321 bound_to 7965
  140.0568  143.5194  152.2647 LP  0  0  0  0  0  0  0  0  0  0  0  0  # atno 17342 bound_to 10162
  139.6076  144.7600  151.3026 LP  0  0  0  0  0  0  0  0  0  0  0  0  # atno 17343 bound_to 10162
  156.1830  130.3651  149.9010 LP  0  0  0  0  0  0  0  0  0  0  0  0  # atno 17370 bound_to 10713
  156.6958  130.8913  151.3593 LP  0  0  0  0  0  0  0  0  0  0  0  0  # atno 17371 bound_to 10713
  139.9825  135.0093  156.9783 LP  0  0  0  0  0  0  0  0  0  0  0  0  # atno 17394 bound_to 11000
  140.5088  134.1023  155.7266 LP  0  0  0  0  0  0  0  0  0  0  0  0  # atno 17395 bound_to 11000

$$$$
