AV-unprocessed.smi:1986|AV-procd|sdf|8046|dock8
  -GOLD-   2272010243D 1   1.00000     0.00000
 Structure written by MMmdl.
 46 47  0  0  0  0  0  0  0  0  2 V2000
  151.6657  139.1399  154.9269 C   0  0  0  0  0  0  0  0  0  0  0  0
  151.7035  140.3363  155.8942 C   0  0  0  0  0  0  0  0  0  0  0  0
  150.6733  140.2833  157.0693 C   0  0  1  0  0  0  0  0  0  0  0  0
  149.2681  140.4541  156.4332 C   0  0  0  0  0  0  0  0  0  0  0  0
  150.7440  138.8635  157.7291 C   0  0  0  0  0  0  0  0  0  0  0  0
  149.4438  138.2610  158.0252 N   0  0  0  0  0  0  0  0  0  0  0  0
  149.1999  137.3284  158.9586 C   0  0  0  0  0  0  0  0  0  0  0  0
  150.0786  136.8310  159.6642 O   0  0  0  0  0  0  0  0  0  0  0  0
  147.7346  136.8933  159.1071 C   0  0  0  0  0  0  0  0  0  0  0  0
  147.4280  136.3287  160.4294 N   0  0  0  0  0  0  0  0  0  0  0  0
  147.8197  137.1857  161.5451 N   0  5  0  0  0  0  0  0  0  0  0  0
  147.5486  136.7845  162.8154 C   0  0  0  0  0  0  0  0  0  0  0  0
  147.8241  137.4632  163.8020 O   0  0  0  0  0  0  0  0  0  0  0  0
  146.9101  135.4921  163.0033 C   0  0  0  0  0  0  0  0  0  0  0  0
  146.5919  134.7057  161.9562 C   0  0  0  0  0  0  0  0  0  0  0  0
  146.8560  135.0990  160.5775 C   0  0  0  0  0  0  0  0  0  0  0  0
  146.5791  134.3798  159.6168 O   0  0  0  0  0  0  0  0  0  0  0  0
  150.9585  141.3406  158.0867 N   0  0  0  0  0  0  0  0  0  0  0  0
  150.7203  142.7190  157.6369 C   0  0  0  0  0  0  0  0  0  0  0  0
  150.9115  143.7440  158.7682 C   0  0  0  0  0  0  0  0  0  0  0  0
  152.2163  143.6180  159.3182 O   0  0  0  0  0  0  0  0  0  0  0  0
  152.4624  142.3136  159.8269 C   0  0  0  0  0  0  0  0  0  0  0  0
  152.2917  141.2787  158.7024 C   0  0  0  0  0  0  0  0  0  0  0  0
  152.4316  139.2473  154.1589 H   0  0  0  0  0  0  0  0  0  0  0  0
  150.7057  139.0605  154.4176 H   0  0  0  0  0  0  0  0  0  0  0  0
  151.8515  138.1982  155.4430 H   0  0  0  0  0  0  0  0  0  0  0  0
  152.7166  140.4412  156.2809 H   0  0  0  0  0  0  0  0  0  0  0  0
  151.5672  141.2472  155.3107 H   0  0  0  0  0  0  0  0  0  0  0  0
  149.0924  139.7224  155.6447 H   0  0  0  0  0  0  0  0  0  0  0  0
  149.1393  141.4310  155.9687 H   0  0  0  0  0  0  0  0  0  0  0  0
  148.4692  140.3258  157.1632 H   0  0  0  0  0  0  0  0  0  0  0  0
  151.2742  138.1746  157.0710 H   0  0  0  0  0  0  0  0  0  0  0  0
  151.3251  138.8881  158.6508 H   0  0  0  0  0  0  0  0  0  0  0  0
  148.6575  138.6039  157.4930 H   0  0  0  0  0  0  0  0  0  0  0  0
  147.0745  137.7424  158.9192 H   0  0  0  0  0  0  0  0  0  0  0  0
  147.5175  136.1714  158.3176 H   0  0  0  0  0  0  0  0  0  0  0  0
  146.6888  135.1538  164.0048 H   0  0  0  0  0  0  0  0  0  0  0  0
  146.1204  133.7525  162.1428 H   0  0  0  0  0  0  0  0  0  0  0  0
  151.3944  142.9698  156.8176 H   0  0  0  0  0  0  0  0  0  0  0  0
  149.7065  142.8423  157.2628 H   0  0  0  0  0  0  0  0  0  0  0  0
  150.7835  144.7568  158.3858 H   0  0  0  0  0  0  0  0  0  0  0  0
  150.1631  143.6003  159.5492 H   0  0  0  0  0  0  0  0  0  0  0  0
  153.4756  142.2736  160.2271 H   0  0  0  0  0  0  0  0  0  0  0  0
  151.7829  142.1017  160.6539 H   0  0  0  0  0  0  0  0  0  0  0  0
  152.4801  140.2990  159.1357 H   0  0  0  0  0  0  0  0  0  0  0  0
  153.0643  141.4492  157.9529 H   0  0  0  0  0  0  0  0  0  0  0  0
  1  2  1  0  0  0  0
  1 24  1  0  0  0  0
  1 25  1  0  0  0  0
  1 26  1  0  0  0  0
  2  3  1  0  0  0  0
  2 27  1  0  0  0  0
  2 28  1  0  0  0  0
  3  4  1  0  0  0  0
  3  5  1  0  0  0  0
  3 18  1  0  0  0  0
  4 29  1  0  0  0  0
  4 30  1  0  0  0  0
  4 31  1  0  0  0  0
  5  6  1  0  0  0  0
  5 32  1  0  0  0  0
  5 33  1  0  0  0  0
  6  7  1  0  0  0  0
  6 34  1  0  0  0  0
  7  8  2  0  0  0  0
  7  9  1  0  0  0  0
  9 35  1  0  0  0  0
  9 36  1  0  0  0  0
  9 10  1  0  0  0  0
 10 11  1  0  0  0  0
 10 16  1  0  0  0  0
 11 12  1  0  0  0  0
 12 13  2  0  0  0  0
 12 14  1  0  0  0  0
 14 37  1  0  0  0  0
 14 15  2  0  0  0  0
 15 38  1  0  0  0  0
 15 16  1  0  0  0  0
 16 17  2  0  0  0  0
 18 23  1  0  0  0  0
 18 19  1  0  0  0  0
 19 20  1  0  0  0  0
 19 39  1  0  0  0  0
 19 40  1  0  0  0  0
 20 21  1  0  0  0  0
 20 41  1  0  0  0  0
 20 42  1  0  0  0  0
 21 22  1  0  0  0  0
 22 23  1  0  0  0  0
 22 43  1  0  0  0  0
 22 44  1  0  0  0  0
 23 45  1  0  0  0  0
 23 46  1  0  0  0  0
M  CHG  1  11  -1
M  END
> <s_m_source_file>
AV-unprocessed.smi

> <i_m_source_file_index>
1986

> <i_lp_mmshare_version>
43012

> <i_f3d_flags>
0

> <s_epik_input>
W0NIMl0xW0NIMl1PW0NIMl1bQ0gyXU4xW0NAQF0oW0NIM10pKFtDSDJdW0NIM10pW0NIMl1bTkhdQyg9TylbQ0gyXW4yW25IXWMoPU8pW2NIXVtjSF1jMj1P

> <s_epik_cmdline>
J2VwaWtfcHl0aG9uJywgJy1waCcsICc3LjAnLCAnLXRuJywgJzgnLCAnLW1hJywgJzIwMCcsICctbWV0YWxfYmluZGluZycsICctaW1hZScsICc8aW5maWxlLm1hZT4nLCAnLW9tYWUnLCAnPG91dGZpbGUubWFlPic=

> <r_lp_tautomer_probability>
1

> <r_epik_Ionization_Penalty>
0.416475

> <r_epik_Ionization_Penalty_Charging>
0.0978085

> <r_epik_Ionization_Penalty_Neutral>
0.318667

> <r_epik_State_Penalty>
0.355037

> <r_epik_Charging_Adjusted_Penalty>
0.452845

> <i_epik_Tot_Q>
-1

> <i_epik_Tot_abs_Q>
1

> <r_epik_Metal_State_Penalty>
0.355037

> <b_epik_Metal_Only>
0

> <s_lp_Force_Field>
OPLS_2005

> <r_lp_Energy>
59.1101

> <b_lp_Chiralities_Consistent>
1

> <s_lp_Variant>
AV-unprocessed.smi:1986-1

> <Gold.Version>
5.8.1

> <Gold.Id.Protein>
6NUR|6NUR_protein|mol2

> <Gold.PLP.Fitness>
49.2000

> <Gold.PLP.PLP>
-41.4663

> <Gold.PLP.part.hbond>
-3.9412

> <Gold.PLP.part.metal>
0.0000

> <Gold.PLP.part.buried>
-4.3310

> <Gold.PLP.part.nonpolar>
-33.6791

> <Gold.PLP.part.repulsive>
0.1780

> <Gold.PLP.ligand.clash>
1.2382

> <Gold.PLP.ligand.torsion>
1.5798

> <Gold.PLP.Chemscore.Hbond>
4.0024

> <Gold.PLP.Chemscore.CHOScore>
0.0000

> <Gold.PLP.Chemscore.Metal>
0.0000

> <Gold.Chemscore.Hbonds>
donor molecule, donor type, donor heavy atom, donor atom, acceptor molecule, acceptor atom, score
      P1  H  6896  6909       L1     8  0.99
      P1  H  6931  6943       L1    11  1.70
      P1  H  6934  6947       L1    11  1.40

> <Gold.PLP.Chemscore.Internal.Correction>
0.1244

> <Gold.Rescore>
     Score         DG    S(hbond)    S(metal)    S(lipo)     H(rot)  DE(clash)    DE(int)     intcor
     13.19     -14.93       1.77        0.00      83.24       2.42       0.08       1.66       ----

> <Gold.Chemscore.Fitness>
13.1923

> <Gold.Chemscore.DG>
-14.9322

> <Gold.Chemscore.ZeroCoef>
-5.4800

> <Gold.Chemscore.Hbond>
1.7686

> <Gold.Chemscore.Metal>
0.0000

> <Gold.Chemscore.Lipo>
83.2424

> <Gold.Chemscore.Internal_Hbond>
0.0000

> <Gold.Chemscore.DEClash>
0.0823

> <Gold.Chemscore.DEInternal>
1.6577

> <Gold.Chemscore.Rot>
2.4197

> <Gold.Chemscore.Internal.Correction>
   9.000000E+99

> <Gold.Chemscore.Hbonds>
donor molecule, donor type, donor heavy atom, donor atom, acceptor molecule, acceptor atom, score
      P1  H  6896  6909       L1     8  0.92
      P1  H  6931  6943       L1    11  0.14
      P1  H  6934  6947       L1    11  0.25

> <Gold.Chemscore.Hbond.Weighted>
-5.9072

> <Gold.Chemscore.Metal.Weighted>
-0.0000

> <Gold.Chemscore.Lipo.Weighted>
-9.7394

> <Gold.Chemscore.Internal_Hbond.Weighted>
0.0000

> <Gold.Chemscore.DEClash.Weighted>
0.0823

> <Gold.Chemscore.DEInternal.Weighted>
1.6577

> <Gold.Chemscore.Rot.Weighted>
6.1943

> <Gold.Chemscore.Internal.Correction.Weighted>
   9.000000E+99

> <Gold.Protein.RotatedTorsions>
[ 6907 6896 6895 6894 ] final   87.08 input  -60.11 | X-H torsion
[ 7974 7965 7964 7962 ] final  116.44 input  175.53 | X-H torsion
[ 8008 7997 7996 7995 ] final   97.61 input   59.86 | X-H torsion
[ 10167 10162 10161 10158 ] final   53.96 input  -65.29 | X-H torsion
[ 10718 10713 10712 10709 ] final  101.56 input   66.30 | X-H torsion
[ 10763 10752 10751 10750 ] final  -25.69 input  -60.55 | X-H torsion
[ 11005 11000 10999 10996 ] final   41.00 input  -57.11 | X-H torsion

> <Gold.Protein.ActiveResidues>
 VAL166  LYS551  ARG553  GLY616  TRP617  ASP618  TYR619  PRO620  LYS621  CYS622 
 ASP623  PHE694  ASN695  SER759  ASP760  ASP761  ALA762  ILE779  LEU786  VAL792 
 PHE793  MET794  SER795  GLU796  ALA797  LYS798  CYS799  TRP800  GLU811  SER814 

> <Gold.Protein.RotatedAtoms>
  152.5405  134.2331  159.8832 H   0  0  0  0  0  0  0  0  0  0  0  0  # atno 6907 bound_to 6896
  151.2302  133.4447  159.2611 H   0  0  0  0  0  0  0  0  0  0  0  0  # atno 6908 bound_to 6896
  151.0722  134.9819  159.8370 H   0  0  0  0  0  0  0  0  0  0  0  0  # atno 6909 bound_to 6896
  145.1795  139.3057  143.4425 H   0  0  0  0  0  0  0  0  0  0  0  0  # atno 7974 bound_to 7965
  156.0919  140.3256  155.7827 H   0  0  0  0  0  0  0  0  0  0  0  0  # atno 8008 bound_to 7997
  155.4982  140.0567  157.2960 H   0  0  0  0  0  0  0  0  0  0  0  0  # atno 8009 bound_to 7997
  154.4643  140.1981  156.0176 H   0  0  0  0  0  0  0  0  0  0  0  0  # atno 8010 bound_to 7997
  140.2352  144.3643  150.6400 H   0  0  0  0  0  0  0  0  0  0  0  0  # atno 10167 bound_to 10162
  157.6826  131.0729  150.5270 H   0  0  0  0  0  0  0  0  0  0  0  0  # atno 10718 bound_to 10713
  153.7039  135.6954  153.5055 H   0  0  0  0  0  0  0  0  0  0  0  0  # atno 10763 bound_to 10752
  153.2322  135.4334  155.0607 H   0  0  0  0  0  0  0  0  0  0  0  0  # atno 10764 bound_to 10752
  154.8336  135.3487  154.6577 H   0  0  0  0  0  0  0  0  0  0  0  0  # atno 10765 bound_to 10752
  140.1876  134.4026  155.8164 H   0  0  0  0  0  0  0  0  0  0  0  0  # atno 11005 bound_to 11000
  146.3455  140.1970  142.8589 LP  0  0  0  0  0  0  0  0  0  0  0  0  # atno 17320 bound_to 7965
  145.0150  140.8746  143.5201 LP  0  0  0  0  0  0  0  0  0  0  0  0  # atno 17321 bound_to 7965
  140.6155  143.2172  151.6801 LP  0  0  0  0  0  0  0  0  0  0  0  0  # atno 17342 bound_to 10162
  139.5096  144.3571  152.0597 LP  0  0  0  0  0  0  0  0  0  0  0  0  # atno 17343 bound_to 10162
  156.5581  130.4248  149.6075 LP  0  0  0  0  0  0  0  0  0  0  0  0  # atno 17370 bound_to 10713
  156.2844  130.7089  151.1922 LP  0  0  0  0  0  0  0  0  0  0  0  0  # atno 17371 bound_to 10713
  141.2225  133.7031  156.8040 LP  0  0  0  0  0  0  0  0  0  0  0  0  # atno 17394 bound_to 11000
  140.2196  134.8767  157.3362 LP  0  0  0  0  0  0  0  0  0  0  0  0  # atno 17395 bound_to 11000

$$$$
