AV-unprocessed.smi:2143|AV-procd|sdf|8726|dock5
  -GOLD-   2272011493D 1   1.00000     0.00000
 Structure written by MMmdl.
 44 45  0  0  0  0  0  0  0  0  1 V2000
  152.3952  142.3836  159.0930 C   0  0  0  0  0  0  0  0  0  0  0  0
  151.9236  143.5934  158.2599 C   0  0  2  0  0  0  0  0  0  0  0  0
  152.5500  144.9091  158.7650 C   0  0  0  0  0  0  0  0  0  0  0  0
  151.9421  145.3657  160.1006 C   0  0  0  0  0  0  0  0  0  0  0  0
  150.4169  145.5024  159.9961 C   0  0  0  0  0  0  0  0  0  0  0  0
  149.7539  144.2045  159.4952 C   0  0  1  0  0  0  0  0  0  0  0  0
  148.3196  144.4437  159.3386 N   0  0  0  0  0  0  0  0  0  0  0  0
  147.3938  144.3568  160.3062 C   0  0  0  0  0  0  0  0  0  0  0  0
  147.6512  144.0338  161.4667 O   0  0  0  0  0  0  0  0  0  0  0  0
  145.9517  144.6632  159.8791 C   0  0  0  0  0  0  0  0  0  0  0  0
  145.7270  146.0834  159.5795 N   0  0  0  0  0  0  0  0  0  0  0  0
  146.1474  147.0476  160.4772 C   0  0  0  0  0  0  0  0  0  0  0  0
  145.9981  148.3741  160.2697 C   0  0  0  0  0  0  0  0  0  0  0  0
  145.3650  148.8755  159.0560 C   0  0  0  0  0  0  0  0  0  0  0  0
  145.2297  150.0758  158.8151 O   0  0  0  0  0  0  0  0  0  0  0  0
  144.9278  147.8681  158.1630 N   0  0  0  0  0  0  0  0  0  0  0  0
  144.3055  148.2794  156.9214 C   0  0  0  0  0  0  0  0  0  0  0  0
  145.1038  146.4823  158.3771 C   0  0  0  0  0  0  0  0  0  0  0  0
  144.7399  145.6413  157.5514 O   0  0  0  0  0  0  0  0  0  0  0  0
  150.3807  143.7319  158.1568 C   0  0  2  0  0  0  0  0  0  0  0  0
  149.7142  142.4606  157.5946 C   0  0  0  0  0  0  0  0  0  0  0  0
  152.0172  142.4127  160.1143 H   0  0  0  0  0  0  0  0  0  0  0  0
  153.4835  142.3516  159.1484 H   0  0  0  0  0  0  0  0  0  0  0  0
  152.0746  141.4418  158.6487 H   0  0  0  0  0  0  0  0  0  0  0  0
  152.3034  143.4329  157.2499 H   0  0  0  0  0  0  0  0  0  0  0  0
  153.6305  144.8004  158.8647 H   0  0  0  0  0  0  0  0  0  0  0  0
  152.3944  145.6899  158.0192 H   0  0  0  0  0  0  0  0  0  0  0  0
  152.1953  144.6574  160.8900 H   0  0  0  0  0  0  0  0  0  0  0  0
  152.3779  146.3202  160.3971 H   0  0  0  0  0  0  0  0  0  0  0  0
  150.0075  145.7785  160.9686 H   0  0  0  0  0  0  0  0  0  0  0  0
  150.1785  146.3234  159.3184 H   0  0  0  0  0  0  0  0  0  0  0  0
  149.9217  143.4310  160.2458 H   0  0  0  0  0  0  0  0  0  0  0  0
  148.0068  144.7066  158.4152 H   0  0  0  0  0  0  0  0  0  0  0  0
  145.6855  144.0534  159.0136 H   0  0  0  0  0  0  0  0  0  0  0  0
  145.2855  144.3424  160.6812 H   0  0  0  0  0  0  0  0  0  0  0  0
  146.6277  146.7269  161.3902 H   0  0  0  0  0  0  0  0  0  0  0  0
  146.3560  149.0746  161.0100 H   0  0  0  0  0  0  0  0  0  0  0  0
  143.5316  147.5587  156.6530 H   0  0  0  0  0  0  0  0  0  0  0  0
  145.0950  148.3176  156.1695 H   0  0  0  0  0  0  0  0  0  0  0  0
  143.8286  149.2522  157.0473 H   0  0  0  0  0  0  0  0  0  0  0  0
  150.1941  144.5191  157.4241 H   0  0  0  0  0  0  0  0  0  0  0  0
  149.7349  141.6438  158.3164 H   0  0  0  0  0  0  0  0  0  0  0  0
  150.2169  142.1215  156.6886 H   0  0  0  0  0  0  0  0  0  0  0  0
  148.6706  142.6385  157.3346 H   0  0  0  0  0  0  0  0  0  0  0  0
  1  2  1  0  0  0  0
  1 22  1  0  0  0  0
  1 23  1  0  0  0  0
  1 24  1  0  0  0  0
  2 20  1  0  0  0  0
  2  3  1  0  0  0  0
  2 25  1  0  0  0  0
  3  4  1  0  0  0  0
  3 26  1  0  0  0  0
  3 27  1  0  0  0  0
  4  5  1  0  0  0  0
  4 28  1  0  0  0  0
  4 29  1  0  0  0  0
  5  6  1  0  0  0  0
  5 30  1  0  0  0  0
  5 31  1  0  0  0  0
  6  7  1  0  0  0  0
  6 20  1  0  0  0  0
  6 32  1  0  0  0  0
  7  8  1  0  0  0  0
  7 33  1  0  0  0  0
  8  9  2  0  0  0  0
  8 10  1  0  0  0  0
 10 11  1  0  0  0  0
 10 34  1  0  0  0  0
 10 35  1  0  0  0  0
 11 18  1  0  0  0  0
 11 12  1  0  0  0  0
 12 13  2  0  0  0  0
 12 36  1  0  0  0  0
 13 14  1  0  0  0  0
 13 37  1  0  0  0  0
 14 15  2  0  0  0  0
 14 16  1  0  0  0  0
 16 17  1  0  0  0  0
 16 18  1  0  0  0  0
 17 38  1  0  0  0  0
 17 39  1  0  0  0  0
 17 40  1  0  0  0  0
 18 19  2  0  0  0  0
 20 21  1  0  0  0  0
 20 41  1  0  0  0  0
 21 42  1  0  0  0  0
 21 43  1  0  0  0  0
 21 44  1  0  0  0  0
M  END
> <s_m_source_file>
AV-unprocessed.smi

> <i_m_source_file_index>
2143

> <i_lp_mmshare_version>
43012

> <i_f3d_flags>
0

> <s_epik_input>
W0NIM11bQ0BASF0xW0NIMl1bQ0gyXVtDSDJdW0NASF0oW0NASF0xW0NIM10pW05IXUMoPU8pW0NIMl1uMltjSF1bY0hdYyg9TyluKFtDSDNdKWMyPU8=

> <s_epik_cmdline>
J2VwaWtfcHl0aG9uJywgJy1waCcsICc3LjAnLCAnLXRuJywgJzgnLCAnLW1hJywgJzIwMCcsICctbWV0YWxfYmluZGluZycsICctaW1hZScsICc8aW5maWxlLm1hZT4nLCAnLW9tYWUnLCAnPG91dGZpbGUubWFlPic=

> <r_lp_tautomer_probability>
1

> <r_epik_Ionization_Penalty>
3.18445e-08

> <r_epik_Ionization_Penalty_Charging>
1.27977e-08

> <r_epik_Ionization_Penalty_Neutral>
1.90469e-08

> <r_epik_State_Penalty>
-0

> <r_epik_Charging_Adjusted_Penalty>
1.27977e-08

> <i_epik_Tot_Q>
0

> <i_epik_Tot_abs_Q>
0

> <r_epik_Metal_State_Penalty>
-0

> <b_epik_Metal_Only>
0

> <s_lp_Force_Field>
OPLS_2005

> <r_lp_Energy>
21.4841

> <b_lp_Chiralities_Consistent>
1

> <s_lp_Variant>
AV-unprocessed.smi:2143-5

> <Gold.Version>
5.8.1

> <Gold.Id.Protein>
6NUR|6NUR_protein|mol2

> <Gold.PLP.Fitness>
44.9855

> <Gold.PLP.PLP>
-41.2345

> <Gold.PLP.part.hbond>
-2.0475

> <Gold.PLP.part.metal>
0.0000

> <Gold.PLP.part.buried>
-3.5519

> <Gold.PLP.part.nonpolar>
-37.0046

> <Gold.PLP.part.repulsive>
0.4724

> <Gold.PLP.ligand.clash>
0.0000

> <Gold.PLP.ligand.torsion>
0.5509

> <Gold.PLP.Chemscore.Hbond>
1.6153

> <Gold.PLP.Chemscore.CHOScore>
0.0000

> <Gold.PLP.Chemscore.Metal>
0.0000

> <Gold.Chemscore.Hbonds>
donor molecule, donor type, donor heavy atom, donor atom, acceptor molecule, acceptor atom, score
      L1  H     7    33       P1  8029  0.93
      P1  H  6933  6944       L1     9  1.00

> <Gold.PLP.Chemscore.Internal.Correction>
0.0071

> <Gold.Rescore>
     Score         DG    S(hbond)    S(metal)    S(lipo)     H(rot)  DE(clash)    DE(int)     intcor
     13.70     -14.77       0.47        0.00      99.22       1.51       0.36       0.71       ----

> <Gold.Chemscore.Fitness>
13.7020

> <Gold.Chemscore.DG>
-14.7732

> <Gold.Chemscore.ZeroCoef>
-5.4800

> <Gold.Chemscore.Hbond>
0.4665

> <Gold.Chemscore.Metal>
0.0000

> <Gold.Chemscore.Lipo>
99.2189

> <Gold.Chemscore.Internal_Hbond>
0.0000

> <Gold.Chemscore.DEClash>
0.3600

> <Gold.Chemscore.DEInternal>
0.7112

> <Gold.Chemscore.Rot>
1.5131

> <Gold.Chemscore.Internal.Correction>
   9.000000E+99

> <Gold.Chemscore.Hbonds>
donor molecule, donor type, donor heavy atom, donor atom, acceptor molecule, acceptor atom, score
      L1  H     7    33       P1  8029  0.86
      P1  H  6933  6944       L1     9  0.70

> <Gold.Chemscore.Hbond.Weighted>
-1.5580

> <Gold.Chemscore.Metal.Weighted>
-0.0000

> <Gold.Chemscore.Lipo.Weighted>
-11.6086

> <Gold.Chemscore.Internal_Hbond.Weighted>
0.0000

> <Gold.Chemscore.DEClash.Weighted>
0.3600

> <Gold.Chemscore.DEInternal.Weighted>
0.7112

> <Gold.Chemscore.Rot.Weighted>
3.8734

> <Gold.Chemscore.Internal.Correction.Weighted>
   9.000000E+99

> <Gold.Protein.RotatedTorsions>
[ 6907 6896 6895 6894 ] final   55.32 input  -60.11 | X-H torsion
[ 7974 7965 7964 7962 ] final  -39.78 input  175.53 | X-H torsion
[ 8008 7997 7996 7995 ] final  -21.44 input   59.86 | X-H torsion
[ 10167 10162 10161 10158 ] final -157.79 input  -65.29 | X-H torsion
[ 10718 10713 10712 10709 ] final  -82.31 input   66.30 | X-H torsion
[ 10763 10752 10751 10750 ] final   73.95 input  -60.55 | X-H torsion
[ 11005 11000 10999 10996 ] final   86.23 input  -57.11 | X-H torsion

> <Gold.Protein.ActiveResidues>
 VAL166  LYS551  ARG553  GLY616  TRP617  ASP618  TYR619  PRO620  LYS621  CYS622 
 ASP623  PHE694  ASN695  SER759  ASP760  ASP761  ALA762  ILE779  LEU786  VAL792 
 PHE793  MET794  SER795  GLU796  ALA797  LYS798  CYS799  TRP800  GLU811  SER814 

> <Gold.Protein.RotatedAtoms>
  152.3527  134.6983  160.0231 H   0  0  0  0  0  0  0  0  0  0  0  0  # atno 6907 bound_to 6896
  151.7332  133.3313  159.3354 H   0  0  0  0  0  0  0  0  0  0  0  0  # atno 6908 bound_to 6896
  150.7551  134.6278  159.6215 H   0  0  0  0  0  0  0  0  0  0  0  0  # atno 6909 bound_to 6896
  146.0365  140.6664  142.9107 H   0  0  0  0  0  0  0  0  0  0  0  0  # atno 7974 bound_to 7965
  154.4705  140.2034  156.0007 H   0  0  0  0  0  0  0  0  0  0  0  0  # atno 8008 bound_to 7997
  156.1003  140.3245  155.7903 H   0  0  0  0  0  0  0  0  0  0  0  0  # atno 8009 bound_to 7997
  155.4809  140.0538  157.2958 H   0  0  0  0  0  0  0  0  0  0  0  0  # atno 8010 bound_to 7997
  139.6743  143.9691  152.2301 H   0  0  0  0  0  0  0  0  0  0  0  0  # atno 10167 bound_to 10162
  156.0035  130.4630  150.4085 H   0  0  0  0  0  0  0  0  0  0  0  0  # atno 10718 bound_to 10713
  153.0555  135.5044  154.7970 H   0  0  0  0  0  0  0  0  0  0  0  0  # atno 10763 bound_to 10752
  154.6799  135.2966  154.9629 H   0  0  0  0  0  0  0  0  0  0  0  0  # atno 10764 bound_to 10752
  154.0419  135.6716  153.4843 H   0  0  0  0  0  0  0  0  0  0  0  0  # atno 10765 bound_to 10752
  139.8950  134.8341  156.2692 H   0  0  0  0  0  0  0  0  0  0  0  0  # atno 11005 bound_to 11000
  144.7054  140.3830  143.7122 LP  0  0  0  0  0  0  0  0  0  0  0  0  # atno 17320 bound_to 7965
  145.6955  139.1649  143.2622 LP  0  0  0  0  0  0  0  0  0  0  0  0  # atno 17321 bound_to 7965
  139.9463  144.6649  150.8216 LP  0  0  0  0  0  0  0  0  0  0  0  0  # atno 17342 bound_to 10162
  140.7629  143.3211  151.2620 LP  0  0  0  0  0  0  0  0  0  0  0  0  # atno 17343 bound_to 10162
  157.2150  131.0469  151.2578 LP  0  0  0  0  0  0  0  0  0  0  0  0  # atno 17370 bound_to 10713
  157.3854  130.7253  149.6659 LP  0  0  0  0  0  0  0  0  0  0  0  0  # atno 17371 bound_to 10713
  141.0112  133.7095  156.1114 LP  0  0  0  0  0  0  0  0  0  0  0  0  # atno 17394 bound_to 11000
  140.7365  134.4197  157.5560 LP  0  0  0  0  0  0  0  0  0  0  0  0  # atno 17395 bound_to 11000

$$$$
