AV-unprocessed.smi:1871|AV-procd|sdf|7599|dock3
  -GOLD-   22720 9313D 1   1.00000     0.00000
 Structure written by MMmdl.
 40 42  0  0  0  0  0  0  0  0  1 V2000
  153.3606  140.1954  155.9929 O   0  0  0  0  0  0  0  0  0  0  0  0
  152.6419  139.8813  157.1660 C   0  0  0  0  0  0  0  0  0  0  0  0
  152.2507  141.0998  157.9445 C   0  0  0  0  0  0  0  0  0  0  0  0
  152.7325  141.3406  159.1644 N   0  0  0  0  0  0  0  0  0  0  0  0
  152.1307  142.5379  159.4990 C   0  0  0  0  0  0  0  0  0  0  0  0
  152.2320  143.3217  160.6706 C   0  0  0  0  0  0  0  0  0  0  0  0
  151.5112  144.5286  160.7865 C   0  0  0  0  0  0  0  0  0  0  0  0
  150.6810  144.9681  159.7351 C   0  0  0  0  0  0  0  0  0  0  0  0
  150.5655  144.2018  158.5594 C   0  0  0  0  0  0  0  0  0  0  0  0
  151.2865  142.9978  158.4492 C   0  0  0  0  0  0  0  0  0  0  0  0
  151.3911  142.0300  157.4557 N   0  0  0  0  0  0  0  0  0  0  0  0
  150.7032  142.0490  156.1716 C   0  0  0  0  0  0  0  0  0  0  0  0
  149.7696  140.8361  155.9849 C   0  0  2  0  0  0  0  0  0  0  0  0
  150.3721  139.8881  155.1252 O   0  0  0  0  0  0  0  0  0  0  0  0
  148.3962  141.2651  155.4932 C   0  0  0  0  0  0  0  0  0  0  0  0
  147.2929  141.2898  156.3729 C   0  0  0  0  0  0  0  0  0  0  0  0
  146.0234  141.6835  155.9082 C   0  0  0  0  0  0  0  0  0  0  0  0
  145.8332  142.0475  154.5601 C   0  0  0  0  0  0  0  0  0  0  0  0
  144.5708  142.4354  154.1715 O   0  0  0  0  0  0  0  0  0  0  0  0
  144.2902  143.7592  154.0391 C   0  0  0  0  0  0  0  0  0  0  0  0
  144.5306  144.1532  152.7653 F   0  0  0  0  0  0  0  0  0  0  0  0
  142.9809  143.9942  154.2994 F   0  0  0  0  0  0  0  0  0  0  0  0
  146.9428  142.0296  153.6811 C   0  0  0  0  0  0  0  0  0  0  0  0
  148.2131  141.6361  154.1449 C   0  0  0  0  0  0  0  0  0  0  0  0
  153.3421  139.4437  155.4210 H   0  0  0  0  0  0  0  0  0  0  0  0
  151.7563  139.3011  156.9074 H   0  0  0  0  0  0  0  0  0  0  0  0
  153.2627  139.2392  157.7919 H   0  0  0  0  0  0  0  0  0  0  0  0
  152.8651  142.9935  161.4816 H   0  0  0  0  0  0  0  0  0  0  0  0
  151.5959  145.1202  161.6863 H   0  0  0  0  0  0  0  0  0  0  0  0
  150.1322  145.8935  159.8323 H   0  0  0  0  0  0  0  0  0  0  0  0
  149.9301  144.5348  157.7523 H   0  0  0  0  0  0  0  0  0  0  0  0
  150.1245  142.9720  156.1169 H   0  0  0  0  0  0  0  0  0  0  0  0
  151.4321  142.1040  155.3632 H   0  0  0  0  0  0  0  0  0  0  0  0
  149.6446  140.3403  156.9485 H   0  0  0  0  0  0  0  0  0  0  0  0
  151.0672  140.3158  154.6486 H   0  0  0  0  0  0  0  0  0  0  0  0
  147.4163  141.0061  157.4080 H   0  0  0  0  0  0  0  0  0  0  0  0
  145.1871  141.7018  156.5918 H   0  0  0  0  0  0  0  0  0  0  0  0
  144.9074  144.3702  154.6982 H   0  0  0  0  0  0  0  0  0  0  0  0
  146.8353  142.3214  152.6470 H   0  0  0  0  0  0  0  0  0  0  0  0
  149.0477  141.6232  153.4594 H   0  0  0  0  0  0  0  0  0  0  0  0
  1  2  1  0  0  0  0
  1 25  1  0  0  0  0
  2  3  1  0  0  0  0
  2 26  1  0  0  0  0
  2 27  1  0  0  0  0
  3 11  1  0  0  0  0
  3  4  2  0  0  0  0
  4  5  1  0  0  0  0
  5 10  2  0  0  0  0
  5  6  1  0  0  0  0
  6  7  2  0  0  0  0
  6 28  1  0  0  0  0
  7  8  1  0  0  0  0
  7 29  1  0  0  0  0
  8  9  2  0  0  0  0
  8 30  1  0  0  0  0
  9 10  1  0  0  0  0
  9 31  1  0  0  0  0
 10 11  1  0  0  0  0
 11 12  1  0  0  0  0
 12 13  1  0  0  0  0
 12 32  1  0  0  0  0
 12 33  1  0  0  0  0
 13 14  1  0  0  0  0
 13 15  1  0  0  0  0
 13 34  1  0  0  0  0
 14 35  1  0  0  0  0
 15 24  1  0  0  0  0
 15 16  2  0  0  0  0
 16 17  1  0  0  0  0
 16 36  1  0  0  0  0
 17 18  2  0  0  0  0
 17 37  1  0  0  0  0
 18 19  1  0  0  0  0
 18 23  1  0  0  0  0
 19 20  1  0  0  0  0
 20 21  1  0  0  0  0
 20 22  1  0  0  0  0
 20 38  1  0  0  0  0
 23 24  2  0  0  0  0
 23 39  1  0  0  0  0
 24 40  1  0  0  0  0
M  END
> <s_m_source_file>
AV-unprocessed.smi

> <i_m_source_file_index>
1871

> <i_lp_mmshare_version>
43012

> <i_f3d_flags>
0

> <s_epik_input>
W2NIXTFbY0hdW2NIXVtjSF1jKGMxMiluKGMobjIpW0NIMl1bT0hdKVtDSDJdW0NASF0oW09IXSljM1tjSF1bY0hdYyhPW0NIXShGKUYpW2NIXVtjSF0z

> <s_epik_cmdline>
J2VwaWtfcHl0aG9uJywgJy1waCcsICc3LjAnLCAnLXRuJywgJzgnLCAnLW1hJywgJzIwMCcsICctbWV0YWxfYmluZGluZycsICctaW1hZScsICc8aW5maWxlLm1hZT4nLCAnLW9tYWUnLCAnPG91dGZpbGUubWFlPic=

> <r_lp_tautomer_probability>
1

> <r_epik_Ionization_Penalty>
0.0634717

> <r_epik_Ionization_Penalty_Charging>
0

> <r_epik_Ionization_Penalty_Neutral>
0.0634717

> <r_epik_State_Penalty>
0.0551572

> <r_epik_Charging_Adjusted_Penalty>
0.0551572

> <i_epik_Tot_Q>
0

> <i_epik_Tot_abs_Q>
0

> <r_epik_Metal_State_Penalty>
5.78034e-05

> <b_epik_Metal_Only>
0

> <s_lp_Force_Field>
OPLS_2005

> <r_lp_Energy>
12.8946

> <b_lp_Chiralities_Consistent>
1

> <s_lp_Variant>
AV-unprocessed.smi:1871-1

> <Gold.Version>
5.8.1

> <Gold.Id.Protein>
6NUR|6NUR_protein|mol2

> <Gold.PLP.Fitness>
53.0292

> <Gold.PLP.PLP>
-53.1737

> <Gold.PLP.part.hbond>
-1.0000

> <Gold.PLP.part.metal>
0.0000

> <Gold.PLP.part.buried>
-6.8332

> <Gold.PLP.part.nonpolar>
-46.0144

> <Gold.PLP.part.repulsive>
0.4989

> <Gold.PLP.ligand.clash>
0.0000

> <Gold.PLP.ligand.torsion>
1.6390

> <Gold.PLP.Chemscore.Hbond>
1.0000

> <Gold.PLP.Chemscore.CHOScore>
0.0000

> <Gold.PLP.Chemscore.Metal>
0.0000

> <Gold.PLP.Chemscore.Internal.Correction>
0.1334

> <Gold.Rescore>
     Score         DG    S(hbond)    S(metal)    S(lipo)     H(rot)  DE(clash)    DE(int)     intcor
     12.72     -14.81       0.97        0.00     124.00       3.29       0.33       1.76       ----

> <Gold.Chemscore.Fitness>
12.7221

> <Gold.Chemscore.DG>
-14.8115

> <Gold.Chemscore.ZeroCoef>
-5.4800

> <Gold.Chemscore.Hbond>
0.9695

> <Gold.Chemscore.Metal>
0.0000

> <Gold.Chemscore.Lipo>
123.9979

> <Gold.Chemscore.Internal_Hbond>
0.0000

> <Gold.Chemscore.DEClash>
0.3343

> <Gold.Chemscore.DEInternal>
1.7551

> <Gold.Chemscore.Rot>
3.2868

> <Gold.Chemscore.Internal.Correction>
   9.000000E+99

> <Gold.Chemscore.Hbond.Weighted>
-3.2381

> <Gold.Chemscore.Metal.Weighted>
-0.0000

> <Gold.Chemscore.Lipo.Weighted>
-14.5078

> <Gold.Chemscore.Internal_Hbond.Weighted>
0.0000

> <Gold.Chemscore.DEClash.Weighted>
0.3343

> <Gold.Chemscore.DEInternal.Weighted>
1.7551

> <Gold.Chemscore.Rot.Weighted>
8.4143

> <Gold.Chemscore.Internal.Correction.Weighted>
   9.000000E+99

> <Gold.Protein.RotatedTorsions>
[ 6907 6896 6895 6894 ] final    8.91 input  -60.11 | X-H torsion
[ 7974 7965 7964 7962 ] final   34.94 input  175.53 | X-H torsion
[ 8008 7997 7996 7995 ] final  -25.21 input   59.86 | X-H torsion
[ 10167 10162 10161 10158 ] final  -42.76 input  -65.29 | X-H torsion
[ 10718 10713 10712 10709 ] final   80.68 input   66.30 | X-H torsion
[ 10763 10752 10751 10750 ] final -120.59 input  -60.55 | X-H torsion
[ 11005 11000 10999 10996 ] final   93.82 input  -57.11 | X-H torsion

> <Gold.Protein.ActiveResidues>
 VAL166  LYS551  ARG553  GLY616  TRP617  ASP618  TYR619  PRO620  LYS621  CYS622 
 ASP623  PHE694  ASN695  SER759  ASP760  ASP761  ALA762  ILE779  LEU786  VAL792 
 PHE793  MET794  SER795  GLU796  ALA797  LYS798  CYS799  TRP800  GLU811  SER814 

> <Gold.Protein.RotatedAtoms>
  151.7137  135.0908  160.0271 H   0  0  0  0  0  0  0  0  0  0  0  0  # atno 6907 bound_to 6896
  152.3645  133.6335  159.6049 H   0  0  0  0  0  0  0  0  0  0  0  0  # atno 6908 bound_to 6896
  150.7628  133.9286  159.3461 H   0  0  0  0  0  0  0  0  0  0  0  0  # atno 6909 bound_to 6896
  146.1317  139.6205  142.9222 H   0  0  0  0  0  0  0  0  0  0  0  0  # atno 7974 bound_to 7965
  154.4487  140.1932  156.0585 H   0  0  0  0  0  0  0  0  0  0  0  0  # atno 8008 bound_to 7997
  156.0601  140.3298  155.7424 H   0  0  0  0  0  0  0  0  0  0  0  0  # atno 8009 bound_to 7997
  155.5425  140.0587  157.2858 H   0  0  0  0  0  0  0  0  0  0  0  0  # atno 8010 bound_to 7997
  140.6958  143.3020  151.3255 H   0  0  0  0  0  0  0  0  0  0  0  0  # atno 10167 bound_to 10162
  157.6813  130.9970  150.2115 H   0  0  0  0  0  0  0  0  0  0  0  0  # atno 10718 bound_to 10713
  154.8648  135.4197  154.2484 H   0  0  0  0  0  0  0  0  0  0  0  0  # atno 10763 bound_to 10752
  153.3435  135.6995  153.6853 H   0  0  0  0  0  0  0  0  0  0  0  0  # atno 10764 bound_to 10752
  153.5821  135.3571  155.2852 H   0  0  0  0  0  0  0  0  0  0  0  0  # atno 10765 bound_to 10752
  139.8805  134.8811  156.3774 H   0  0  0  0  0  0  0  0  0  0  0  0  # atno 11005 bound_to 11000
  145.5245  141.0430  143.2417 LP  0  0  0  0  0  0  0  0  0  0  0  0  # atno 17320 bound_to 7965
  144.7698  139.6761  143.7199 LP  0  0  0  0  0  0  0  0  0  0  0  0  # atno 17321 bound_to 7965
  139.6411  144.0537  152.2555 LP  0  0  0  0  0  0  0  0  0  0  0  0  # atno 17342 bound_to 10162
  140.0043  144.6271  150.7702 LP  0  0  0  0  0  0  0  0  0  0  0  0  # atno 17343 bound_to 10162
  156.2785  130.3730  149.7959 LP  0  0  0  0  0  0  0  0  0  0  0  0  # atno 17370 bound_to 10713
  156.5654  130.8402  151.3341 LP  0  0  0  0  0  0  0  0  0  0  0  0  # atno 17371 bound_to 10713
  140.9422  133.7507  156.0162 LP  0  0  0  0  0  0  0  0  0  0  0  0  # atno 17394 bound_to 11000
  140.8205  134.3294  157.5383 LP  0  0  0  0  0  0  0  0  0  0  0  0  # atno 17395 bound_to 11000

$$$$
