AV-unprocessed.smi:1449|AV-procd|sdf|5896|dock1
  -GOLD-   22720 5583D 1   1.00000     0.00000
 Structure written by MMmdl.
 34 35  0  0  0  0  0  0  0  0  1 V2000
  146.4279  133.1037  150.3892 C   0  0  0  0  0  0  0  0  0  0  0  0
  145.2168  132.9929  151.1285 O   0  0  0  0  0  0  0  0  0  0  0  0
  144.6140  134.1504  151.5766 C   0  0  0  0  0  0  0  0  0  0  0  0
  143.4031  134.0472  152.2891 C   0  0  0  0  0  0  0  0  0  0  0  0
  142.7799  135.2231  152.7490 C   0  0  0  0  0  0  0  0  0  0  0  0
  143.3956  136.4706  152.4879 C   0  0  0  0  0  0  0  0  0  0  0  0
  142.8628  137.7287  152.8790 N   0  0  0  0  0  0  0  0  0  0  0  0
  141.7584  137.9932  153.6047 C   0  0  0  0  0  0  0  0  0  0  0  0
  141.0264  137.1419  154.1043 O   0  0  0  0  0  0  0  0  0  0  0  0
  141.5150  139.3044  153.7808 N   0  0  0  0  0  0  0  0  0  0  0  0
  140.4129  139.9344  154.5096 C   0  0  1  0  0  0  0  0  0  0  0  0
  140.4722  141.4678  154.3783 C   0  0  0  0  0  0  0  0  0  0  0  0
  139.1315  142.0548  154.8367 C   0  0  0  0  0  0  0  0  0  0  0  0
  137.8621  140.7937  154.4390 S   0  0  0  0  0  0  0  0  0  0  0  0
  137.1618  140.4173  155.6764 O   0  0  0  0  0  0  0  0  0  0  0  0
  137.1153  141.2047  153.2407 O   0  0  0  0  0  0  0  0  0  0  0  0
  139.0449  139.4709  153.9836 C   0  0  0  0  0  0  0  0  0  0  0  0
  144.6013  136.4658  151.7565 C   0  0  0  0  0  0  0  0  0  0  0  0
  145.2036  135.3426  151.3124 N   0  0  0  0  0  0  0  0  0  0  0  0
  146.7718  132.1078  150.1106 H   0  0  0  0  0  0  0  0  0  0  0  0
  147.2154  133.5716  150.9818 H   0  0  0  0  0  0  0  0  0  0  0  0
  146.2845  133.6728  149.4696 H   0  0  0  0  0  0  0  0  0  0  0  0
  142.9559  133.0820  152.4758 H   0  0  0  0  0  0  0  0  0  0  0  0
  141.8424  135.1408  153.2760 H   0  0  0  0  0  0  0  0  0  0  0  0
  143.4113  138.5309  152.6056 H   0  0  0  0  0  0  0  0  0  0  0  0
  142.1901  139.9390  153.3789 H   0  0  0  0  0  0  0  0  0  0  0  0
  140.4817  139.6974  155.5728 H   0  0  0  0  0  0  0  0  0  0  0  0
  141.3063  141.8914  154.9386 H   0  0  0  0  0  0  0  0  0  0  0  0
  140.6263  141.7326  153.3311 H   0  0  0  0  0  0  0  0  0  0  0  0
  139.1251  142.2090  155.9160 H   0  0  0  0  0  0  0  0  0  0  0  0
  138.8918  142.9995  154.3486 H   0  0  0  0  0  0  0  0  0  0  0  0
  139.0475  139.3891  152.8960 H   0  0  0  0  0  0  0  0  0  0  0  0
  138.7212  138.5179  154.4028 H   0  0  0  0  0  0  0  0  0  0  0  0
  145.1025  137.3934  151.5208 H   0  0  0  0  0  0  0  0  0  0  0  0
  1  2  1  0  0  0  0
  1 20  1  0  0  0  0
  1 21  1  0  0  0  0
  1 22  1  0  0  0  0
  2  3  1  0  0  0  0
  3 19  1  0  0  0  0
  3  4  2  0  0  0  0
  4  5  1  0  0  0  0
  4 23  1  0  0  0  0
  5  6  2  0  0  0  0
  5 24  1  0  0  0  0
  6  7  1  0  0  0  0
  6 18  1  0  0  0  0
  7  8  1  0  0  0  0
  7 25  1  0  0  0  0
  8  9  2  0  0  0  0
  8 10  1  0  0  0  0
 10 11  1  0  0  0  0
 10 26  1  0  0  0  0
 11 17  1  0  0  0  0
 11 12  1  0  0  0  0
 11 27  1  0  0  0  0
 12 13  1  0  0  0  0
 12 28  1  0  0  0  0
 12 29  1  0  0  0  0
 13 14  1  0  0  0  0
 13 30  1  0  0  0  0
 13 31  1  0  0  0  0
 14 15  2  0  0  0  0
 14 16  2  0  0  0  0
 14 17  1  0  0  0  0
 17 32  1  0  0  0  0
 17 33  1  0  0  0  0
 18 19  2  0  0  0  0
 18 34  1  0  0  0  0
M  END
> <s_m_source_file>
AV-unprocessed.smi

> <i_m_source_file_index>
1449

> <i_lp_mmshare_version>
43012

> <i_f3d_flags>
0

> <s_epik_input>
W0NIM11PYzFbY0hdW2NIXWMoW2NIXW4xKVtOSF1DKD1PKVtOSF1bQ0BASF0oW0NIMl0yKVtDSDJdW0NIMl1TMig9Tyk9Tw==

> <s_epik_cmdline>
J2VwaWtfcHl0aG9uJywgJy1waCcsICc3LjAnLCAnLXRuJywgJzgnLCAnLW1hJywgJzIwMCcsICctbWV0YWxfYmluZGluZycsICctaW1hZScsICc8aW5maWxlLm1hZT4nLCAnLW9tYWUnLCAnPG91dGZpbGUubWFlPic=

> <r_lp_tautomer_probability>
1

> <r_epik_Ionization_Penalty>
7.6506e-05

> <r_epik_Ionization_Penalty_Charging>
0

> <r_epik_Ionization_Penalty_Neutral>
7.6506e-05

> <r_epik_State_Penalty>
-0

> <r_epik_Charging_Adjusted_Penalty>
0

> <i_epik_Tot_Q>
0

> <i_epik_Tot_abs_Q>
0

> <r_epik_Metal_State_Penalty>
-0

> <b_epik_Metal_Only>
0

> <s_lp_Force_Field>
OPLS_2005

> <r_lp_Energy>
18.5668

> <b_lp_Chiralities_Consistent>
1

> <s_lp_Variant>
AV-unprocessed.smi:1449-2

> <Gold.Version>
5.8.1

> <Gold.Id.Protein>
6NUR|6NUR_protein|mol2

> <Gold.PLP.Fitness>
33.7038

> <Gold.PLP.PLP>
-26.0503

> <Gold.PLP.part.hbond>
-2.6791

> <Gold.PLP.part.metal>
0.0000

> <Gold.PLP.part.buried>
-3.6017

> <Gold.PLP.part.nonpolar>
-20.7971

> <Gold.PLP.part.repulsive>
0.4846

> <Gold.PLP.ligand.clash>
0.0000

> <Gold.PLP.ligand.torsion>
0.0177

> <Gold.PLP.Chemscore.Hbond>
2.0000

> <Gold.PLP.Chemscore.CHOScore>
0.5610

> <Gold.PLP.Chemscore.Metal>
0.0000

> <Gold.Chemscore.Hbonds>
donor molecule, donor type, donor heavy atom, donor atom, acceptor molecule, acceptor atom, score
      L1  H     7    25       P1 10175  1.00
      L1  H    10    26       P1 10175  1.00
      L1  C    18    34       P1 10171  0.60

> <Gold.PLP.Chemscore.Internal.Correction>
0.0060

> <Gold.Rescore>
     Score         DG    S(hbond)    S(metal)    S(lipo)     H(rot)  DE(clash)    DE(int)     intcor
     11.93     -13.16       1.83        0.00      42.07       1.31       0.02       1.21       ----

> <Gold.Chemscore.Fitness>
11.9251

> <Gold.Chemscore.DG>
-13.1580

> <Gold.Chemscore.ZeroCoef>
-5.4800

> <Gold.Chemscore.Hbond>
1.8299

> <Gold.Chemscore.Metal>
0.0000

> <Gold.Chemscore.Lipo>
42.0698

> <Gold.Chemscore.Internal_Hbond>
0.0000

> <Gold.Chemscore.DEClash>
0.0203

> <Gold.Chemscore.DEInternal>
1.2127

> <Gold.Chemscore.Rot>
1.3109

> <Gold.Chemscore.Internal.Correction>
   9.000000E+99

> <Gold.Chemscore.Hbonds>
donor molecule, donor type, donor heavy atom, donor atom, acceptor molecule, acceptor atom, score
      L1  H     7    25       P1 10175  0.94
      L1  H    10    26       P1 10175  0.78

> <Gold.Chemscore.Hbond.Weighted>
-6.1118

> <Gold.Chemscore.Metal.Weighted>
-0.0000

> <Gold.Chemscore.Lipo.Weighted>
-4.9222

> <Gold.Chemscore.Internal_Hbond.Weighted>
0.0000

> <Gold.Chemscore.DEClash.Weighted>
0.0203

> <Gold.Chemscore.DEInternal.Weighted>
1.2127

> <Gold.Chemscore.Rot.Weighted>
3.3559

> <Gold.Chemscore.Internal.Correction.Weighted>
   9.000000E+99

> <Gold.Protein.RotatedTorsions>
[ 6907 6896 6895 6894 ] final -156.55 input  -60.11 | X-H torsion
[ 7974 7965 7964 7962 ] final -168.72 input  175.53 | X-H torsion
[ 8008 7997 7996 7995 ] final   57.17 input   59.86 | X-H torsion
[ 10167 10162 10161 10158 ] final  -20.56 input  -65.29 | X-H torsion
[ 10718 10713 10712 10709 ] final  143.83 input   66.30 | X-H torsion
[ 10763 10752 10751 10750 ] final  138.13 input  -60.55 | X-H torsion
[ 11005 11000 10999 10996 ] final   23.92 input  -57.11 | X-H torsion

> <Gold.Protein.ActiveResidues>
 VAL166  LYS551  ARG553  GLY616  TRP617  ASP618  TYR619  PRO620  LYS621  CYS622 
 ASP623  PHE694  ASN695  SER759  ASP760  ASP761  ALA762  ILE779  LEU786  VAL792 
 PHE793  MET794  SER795  GLU796  ALA797  LYS798  CYS799  TRP800  GLU811  SER814 

> <Gold.Protein.RotatedAtoms>
  151.2893  133.4173  159.2631 H   0  0  0  0  0  0  0  0  0  0  0  0  # atno 6907 bound_to 6896
  151.0291  134.9527  159.8112 H   0  0  0  0  0  0  0  0  0  0  0  0  # atno 6908 bound_to 6896
  152.5342  134.2854  159.9076 H   0  0  0  0  0  0  0  0  0  0  0  0  # atno 6909 bound_to 6896
  144.7198  140.2327  143.6302 H   0  0  0  0  0  0  0  0  0  0  0  0  # atno 7974 bound_to 7965
  155.5294  140.3481  155.4423 H   0  0  0  0  0  0  0  0  0  0  0  0  # atno 8008 bound_to 7997
  156.0729  140.1367  156.9833 H   0  0  0  0  0  0  0  0  0  0  0  0  # atno 8009 bound_to 7997
  154.4538  140.0962  156.6671 H   0  0  0  0  0  0  0  0  0  0  0  0  # atno 8010 bound_to 7997
  140.7277  143.4711  151.0246 H   0  0  0  0  0  0  0  0  0  0  0  0  # atno 10167 bound_to 10162
  157.3644  131.0970  151.0886 H   0  0  0  0  0  0  0  0  0  0  0  0  # atno 10718 bound_to 10713
  153.8846  135.3040  155.3446 H   0  0  0  0  0  0  0  0  0  0  0  0  # atno 10763 bound_to 10752
  154.7745  135.4868  153.9720 H   0  0  0  0  0  0  0  0  0  0  0  0  # atno 10764 bound_to 10752
  153.1332  135.6808  153.9242 H   0  0  0  0  0  0  0  0  0  0  0  0  # atno 10765 bound_to 10752
  140.3644  134.2091  155.7670 H   0  0  0  0  0  0  0  0  0  0  0  0  # atno 11005 bound_to 11000
  145.8395  139.2123  143.1836 LP  0  0  0  0  0  0  0  0  0  0  0  0  # atno 17320 bound_to 7965
  146.0359  140.8212  142.9852 LP  0  0  0  0  0  0  0  0  0  0  0  0  # atno 17321 bound_to 7965
  139.8403  143.7573  152.3180 LP  0  0  0  0  0  0  0  0  0  0  0  0  # atno 17342 bound_to 10162
  139.7719  144.7474  151.0212 LP  0  0  0  0  0  0  0  0  0  0  0  0  # atno 17343 bound_to 10162
  157.2014  130.6396  149.5740 LP  0  0  0  0  0  0  0  0  0  0  0  0  # atno 17370 bound_to 10713
  155.9743  130.4690  150.6378 LP  0  0  0  0  0  0  0  0  0  0  0  0  # atno 17371 bound_to 10713
  141.1974  133.8059  157.0628 LP  0  0  0  0  0  0  0  0  0  0  0  0  # atno 17394 bound_to 11000
  140.0601  134.9759  157.1290 LP  0  0  0  0  0  0  0  0  0  0  0  0  # atno 17395 bound_to 11000

$$$$
