AV-unprocessed.smi:2880|AV-procd|sdf|11053|dock5
  -GOLD-   2272015523D 1   1.00000     0.00000
 Structure written by MMmdl.
 47 48  0  0  0  0  0  0  0  0  1 V2000
  147.5117  132.2833  153.1558 C   0  0  0  0  0  0  0  0  0  0  0  0
  147.9918  131.9708  154.5863 C   0  0  0  0  0  0  0  0  0  0  0  0
  146.7508  131.7477  155.4832 C   0  0  0  0  0  0  0  0  0  0  0  0
  148.8310  130.6781  154.5835 C   0  0  0  0  0  0  0  0  0  0  0  0
  148.8279  133.0818  155.0607 N   0  0  0  0  0  0  0  0  0  0  0  0
  150.1024  133.0157  155.5987 C   0  0  0  0  0  0  0  0  0  0  0  0
  150.5036  134.2863  155.8978 C   0  0  0  0  0  0  0  0  0  0  0  0
  149.3932  135.0783  155.5021 C   0  0  0  0  0  0  0  0  0  0  0  0
  149.4173  136.4878  155.6559 N   0  0  0  0  0  0  0  0  0  0  0  0
  150.4205  137.3291  155.3521 C   0  0  0  0  0  0  0  0  0  0  0  0
  151.5136  136.9928  154.8959 O   0  0  0  0  0  0  0  0  0  0  0  0
  150.0754  138.6001  155.6057 N   0  0  0  0  0  0  0  0  0  0  0  0
  150.9046  139.7853  155.3734 C   0  0  2  0  0  0  0  0  0  0  0  0
  152.1108  139.7809  156.3343 C   0  0  0  0  0  0  0  0  0  0  0  0
  151.6943  140.0342  157.7931 C   0  0  0  0  0  0  0  0  0  0  0  0
  150.8869  141.3339  157.9217 C   0  0  0  0  0  0  0  0  0  0  0  0
  149.6705  141.3329  156.9822 C   0  0  0  0  0  0  0  0  0  0  0  0
  150.0815  141.0949  155.5132 C   0  0  2  0  0  0  0  0  0  0  0  0
  148.8552  141.1615  154.5781 C   0  0  0  0  0  0  0  0  0  0  0  0
  149.2541  141.1613  153.2236 O   0  0  0  0  0  0  0  0  0  0  0  0
  148.3955  134.3647  155.0028 N   0  0  0  0  0  0  0  0  0  0  0  0
  146.8783  131.4854  152.7670 H   0  0  0  0  0  0  0  0  0  0  0  0
  148.3471  132.3991  152.4645 H   0  0  0  0  0  0  0  0  0  0  0  0
  146.9317  133.2064  153.1270 H   0  0  0  0  0  0  0  0  0  0  0  0
  146.1088  132.6292  155.5098 H   0  0  0  0  0  0  0  0  0  0  0  0
  147.0334  131.5091  156.5095 H   0  0  0  0  0  0  0  0  0  0  0  0
  146.1435  130.9195  155.1165 H   0  0  0  0  0  0  0  0  0  0  0  0
  148.2418  129.8241  154.2477 H   0  0  0  0  0  0  0  0  0  0  0  0
  149.2032  130.4473  155.5825 H   0  0  0  0  0  0  0  0  0  0  0  0
  149.6939  130.7560  153.9214 H   0  0  0  0  0  0  0  0  0  0  0  0
  150.6163  132.0740  155.7238 H   0  0  0  0  0  0  0  0  0  0  0  0
  151.4427  134.5968  156.3309 H   0  0  0  0  0  0  0  0  0  0  0  0
  148.5741  136.9021  156.0241 H   0  0  0  0  0  0  0  0  0  0  0  0
  149.1544  138.7686  155.9824 H   0  0  0  0  0  0  0  0  0  0  0  0
  151.3081  139.7502  154.3602 H   0  0  0  0  0  0  0  0  0  0  0  0
  152.6507  138.8361  156.2584 H   0  0  0  0  0  0  0  0  0  0  0  0
  152.8143  140.5557  156.0267 H   0  0  0  0  0  0  0  0  0  0  0  0
  151.1013  139.1958  158.1603 H   0  0  0  0  0  0  0  0  0  0  0  0
  152.5799  140.0842  158.4272 H   0  0  0  0  0  0  0  0  0  0  0  0
  150.5601  141.4678  158.9533 H   0  0  0  0  0  0  0  0  0  0  0  0
  151.5269  142.1857  157.6882 H   0  0  0  0  0  0  0  0  0  0  0  0
  148.9628  140.5663  157.3006 H   0  0  0  0  0  0  0  0  0  0  0  0
  149.1481  142.2860  157.0713 H   0  0  0  0  0  0  0  0  0  0  0  0
  150.7391  141.9201  155.2339 H   0  0  0  0  0  0  0  0  0  0  0  0
  148.1719  140.3304  154.7541 H   0  0  0  0  0  0  0  0  0  0  0  0
  148.2913  142.0765  154.7613 H   0  0  0  0  0  0  0  0  0  0  0  0
  149.0322  140.3247  152.8441 H   0  0  0  0  0  0  0  0  0  0  0  0
  1  2  1  0  0  0  0
  1 22  1  0  0  0  0
  1 23  1  0  0  0  0
  1 24  1  0  0  0  0
  2  3  1  0  0  0  0
  2  4  1  0  0  0  0
  2  5  1  0  0  0  0
  3 25  1  0  0  0  0
  3 26  1  0  0  0  0
  3 27  1  0  0  0  0
  4 28  1  0  0  0  0
  4 29  1  0  0  0  0
  4 30  1  0  0  0  0
  5 21  1  0  0  0  0
  5  6  1  0  0  0  0
  6  7  2  0  0  0  0
  6 31  1  0  0  0  0
  7  8  1  0  0  0  0
  7 32  1  0  0  0  0
  8  9  1  0  0  0  0
  8 21  2  0  0  0  0
  9 10  1  0  0  0  0
  9 33  1  0  0  0  0
 10 11  2  0  0  0  0
 10 12  1  0  0  0  0
 12 13  1  0  0  0  0
 12 34  1  0  0  0  0
 13 18  1  0  0  0  0
 13 14  1  0  0  0  0
 13 35  1  0  0  0  0
 14 15  1  0  0  0  0
 14 36  1  0  0  0  0
 14 37  1  0  0  0  0
 15 16  1  0  0  0  0
 15 38  1  0  0  0  0
 15 39  1  0  0  0  0
 16 17  1  0  0  0  0
 16 40  1  0  0  0  0
 16 41  1  0  0  0  0
 17 18  1  0  0  0  0
 17 42  1  0  0  0  0
 17 43  1  0  0  0  0
 18 19  1  0  0  0  0
 18 44  1  0  0  0  0
 19 20  1  0  0  0  0
 19 45  1  0  0  0  0
 19 46  1  0  0  0  0
 20 47  1  0  0  0  0
M  END
> <s_m_source_file>
AV-unprocessed.smi

> <i_m_source_file_index>
2880

> <i_lp_mmshare_version>
43012

> <i_f3d_flags>
0

> <s_epik_input>
W0NIM11DKFtDSDNdKShbQ0gzXSluMVtjSF1bY0hdYyhuMSlbTkhdQyg9TylbTkhdW0NAQEhdMltDSDJdW0NIMl1bQ0gyXVtDSDJdW0NASF0yW0NIMl1bT0hd

> <s_epik_cmdline>
J2VwaWtfcHl0aG9uJywgJy1waCcsICc3LjAnLCAnLXRuJywgJzgnLCAnLW1hJywgJzIwMCcsICctbWV0YWxfYmluZGluZycsICctaW1hZScsICc8aW5maWxlLm1hZT4nLCAnLW9tYWUnLCAnPG91dGZpbGUubWFlPic=

> <r_lp_tautomer_probability>
1

> <r_epik_Ionization_Penalty>
3.89283e-05

> <r_epik_Ionization_Penalty_Charging>
0

> <r_epik_Ionization_Penalty_Neutral>
3.89283e-05

> <r_epik_State_Penalty>
-0

> <r_epik_Charging_Adjusted_Penalty>
0

> <i_epik_Tot_Q>
0

> <i_epik_Tot_abs_Q>
0

> <r_epik_Metal_State_Penalty>
-0

> <b_epik_Metal_Only>
0

> <s_lp_Force_Field>
OPLS_2005

> <r_lp_Energy>
20.6401

> <b_lp_Chiralities_Consistent>
1

> <s_lp_Variant>
AV-unprocessed.smi:2880-3

> <Gold.Version>
5.8.1

> <Gold.Id.Protein>
6NUR|6NUR_protein|mol2

> <Gold.PLP.Fitness>
42.3154

> <Gold.PLP.PLP>
-36.2090

> <Gold.PLP.part.hbond>
-3.7944

> <Gold.PLP.part.metal>
0.0000

> <Gold.PLP.part.buried>
-2.2913

> <Gold.PLP.part.nonpolar>
-28.9895

> <Gold.PLP.part.repulsive>
0.3339

> <Gold.PLP.ligand.clash>
0.0000

> <Gold.PLP.ligand.torsion>
0.6801

> <Gold.PLP.Chemscore.Hbond>
2.4793

> <Gold.PLP.Chemscore.CHOScore>
0.0000

> <Gold.PLP.Chemscore.Metal>
0.0000

> <Gold.Chemscore.Hbonds>
donor molecule, donor type, donor heavy atom, donor atom, acceptor molecule, acceptor atom, score
      L1  H    20    47       P1  7957  0.32
      P1  H  7989  7998       L1    20  0.02
      P1  H  8011  8017       L1    20  1.00
      P1  H 10752 10763       L1    11  0.94

> <Gold.PLP.Chemscore.Internal.Correction>
0.0287

> <Gold.Rescore>
     Score         DG    S(hbond)    S(metal)    S(lipo)     H(rot)  DE(clash)    DE(int)     intcor
     15.75     -16.50       2.24        0.00      73.41       1.97       0.12       0.63       ----

> <Gold.Chemscore.Fitness>
15.7471

> <Gold.Chemscore.DG>
-16.4992

> <Gold.Chemscore.ZeroCoef>
-5.4800

> <Gold.Chemscore.Hbond>
2.2353

> <Gold.Chemscore.Metal>
0.0000

> <Gold.Chemscore.Lipo>
73.4140

> <Gold.Chemscore.Internal_Hbond>
0.0000

> <Gold.Chemscore.DEClash>
0.1238

> <Gold.Chemscore.DEInternal>
0.6283

> <Gold.Chemscore.Rot>
1.9672

> <Gold.Chemscore.Internal.Correction>
   9.000000E+99

> <Gold.Chemscore.Hbonds>
donor molecule, donor type, donor heavy atom, donor atom, acceptor molecule, acceptor atom, score
      L1  H    20    47       P1  7957  0.32
      P1  H  8011  8017       L1    20  0.97
      P1  H 10752 10763       L1    11  0.87

> <Gold.Chemscore.Hbond.Weighted>
-7.4658

> <Gold.Chemscore.Metal.Weighted>
-0.0000

> <Gold.Chemscore.Lipo.Weighted>
-8.5894

> <Gold.Chemscore.Internal_Hbond.Weighted>
0.0000

> <Gold.Chemscore.DEClash.Weighted>
0.1238

> <Gold.Chemscore.DEInternal.Weighted>
0.6283

> <Gold.Chemscore.Rot.Weighted>
5.0360

> <Gold.Chemscore.Internal.Correction.Weighted>
   9.000000E+99

> <Gold.Protein.RotatedTorsions>
[ 6907 6896 6895 6894 ] final  -97.14 input  -60.11 | X-H torsion
[ 7974 7965 7964 7962 ] final   61.44 input  175.53 | X-H torsion
[ 8008 7997 7996 7995 ] final  127.38 input   59.86 | X-H torsion
[ 10167 10162 10161 10158 ] final -111.03 input  -65.29 | X-H torsion
[ 10718 10713 10712 10709 ] final  130.55 input   66.30 | X-H torsion
[ 10763 10752 10751 10750 ] final   39.30 input  -60.55 | X-H torsion
[ 11005 11000 10999 10996 ] final   53.61 input  -57.11 | X-H torsion

> <Gold.Protein.ActiveResidues>
 VAL166  LYS551  ARG553  GLY616  TRP617  ASP618  TYR619  PRO620  LYS621  CYS622 
 ASP623  PHE694  ASN695  SER759  ASP760  ASP761  ALA762  ILE779  LEU786  VAL792 
 PHE793  MET794  SER795  GLU796  ALA797  LYS798  CYS799  TRP800  GLU811  SER814 

> <Gold.Protein.RotatedAtoms>
  150.7008  134.1395  159.4099 H   0  0  0  0  0  0  0  0  0  0  0  0  # atno 6907 bound_to 6896
  151.9380  135.0224  160.0543 H   0  0  0  0  0  0  0  0  0  0  0  0  # atno 6908 bound_to 6896
  152.2118  133.4882  159.5151 H   0  0  0  0  0  0  0  0  0  0  0  0  # atno 6909 bound_to 6896
  145.8847  139.3468  143.0685 H   0  0  0  0  0  0  0  0  0  0  0  0  # atno 7974 bound_to 7965
  156.2889  140.2670  156.2264 H   0  0  0  0  0  0  0  0  0  0  0  0  # atno 8008 bound_to 7997
  155.0116  140.0387  157.2420 H   0  0  0  0  0  0  0  0  0  0  0  0  # atno 8009 bound_to 7997
  154.7513  140.2743  155.6295 H   0  0  0  0  0  0  0  0  0  0  0  0  # atno 8010 bound_to 7997
  140.1380  143.4303  152.1582 H   0  0  0  0  0  0  0  0  0  0  0  0  # atno 10167 bound_to 10162
  157.5051  131.1095  150.9372 H   0  0  0  0  0  0  0  0  0  0  0  0  # atno 10718 bound_to 10713
  152.9971  135.6224  154.2444 H   0  0  0  0  0  0  0  0  0  0  0  0  # atno 10763 bound_to 10752
  154.2184  135.2797  155.2935 H   0  0  0  0  0  0  0  0  0  0  0  0  # atno 10764 bound_to 10752
  154.5549  135.5722  153.7013 H   0  0  0  0  0  0  0  0  0  0  0  0  # atno 10765 bound_to 10752
  140.0753  134.5413  155.9003 H   0  0  0  0  0  0  0  0  0  0  0  0  # atno 11005 bound_to 11000
  145.8981  140.9261  143.0517 LP  0  0  0  0  0  0  0  0  0  0  0  0  # atno 17320 bound_to 7965
  144.6728  140.0995  143.7461 LP  0  0  0  0  0  0  0  0  0  0  0  0  # atno 17321 bound_to 7965
  139.5486  144.7319  151.4505 LP  0  0  0  0  0  0  0  0  0  0  0  0  # atno 17342 bound_to 10162
  140.6777  143.8151  150.7080 LP  0  0  0  0  0  0  0  0  0  0  0  0  # atno 17343 bound_to 10162
  157.0030  130.5607  149.5313 LP  0  0  0  0  0  0  0  0  0  0  0  0  # atno 17370 bound_to 10713
  156.0253  130.5347  150.8390 LP  0  0  0  0  0  0  0  0  0  0  0  0  # atno 17371 bound_to 10713
  141.2027  133.6627  156.6022 LP  0  0  0  0  0  0  0  0  0  0  0  0  # atno 17394 bound_to 11000
  140.3567  134.7723  157.4505 LP  0  0  0  0  0  0  0  0  0  0  0  0  # atno 17395 bound_to 11000

$$$$
