AV-unprocessed.smi:3032|AV-procd|sdf|11564|dock2
  -GOLD-   2272016533D 1   1.00000     0.00000
 Structure written by MMmdl.
 37 38  0  0  0  0  0  0  0  0  1 V2000
  153.7134  141.3407  161.2659 C   0  0  0  0  0  0  0  0  0  0  0  0
  152.7154  142.3259  160.6413 C   0  0  1  0  0  0  0  0  0  0  0  0
  152.4495  143.5223  161.5732 C   0  0  0  0  0  0  0  0  0  0  0  0
  151.4444  144.5059  160.9559 C   0  0  0  0  0  0  0  0  0  0  0  0
  151.9130  144.9950  159.5730 C   0  0  0  0  0  0  0  0  0  0  0  0
  152.2602  143.8481  158.5944 C   0  0  2  0  0  0  0  0  0  0  0  0
  151.0137  143.1902  157.9721 C   0  0  0  0  0  0  0  0  0  0  0  0
  149.8968  143.3574  158.4617 O   0  0  0  0  0  0  0  0  0  0  0  0
  151.2229  142.4354  156.8821 N   0  0  0  0  0  0  0  0  0  0  0  0
  150.1895  141.7128  156.1493 C   0  0  0  0  0  0  0  0  0  0  0  0
  150.0775  140.2529  156.6187 C   0  0  0  0  0  0  0  0  0  0  0  0
  150.2388  139.2860  155.4925 C   0  0  0  0  0  0  0  0  0  0  0  0
  149.2272  138.5107  155.0984 N   0  0  0  0  0  0  0  0  0  0  0  0
  149.7730  137.8388  154.0620 N   0  0  0  0  0  0  0  0  0  0  0  0
  151.0289  138.2510  153.8977 C   0  0  0  0  0  0  0  0  0  0  0  0
  151.3959  139.1809  154.7695 N   0  0  0  0  0  0  0  0  0  0  0  0
  153.2026  142.8183  159.2613 C   0  0  0  0  0  0  0  0  0  0  0  0
  154.6833  141.8096  161.4340 H   0  0  0  0  0  0  0  0  0  0  0  0
  153.8686  140.4770  160.6187 H   0  0  0  0  0  0  0  0  0  0  0  0
  153.3512  140.9711  162.2256 H   0  0  0  0  0  0  0  0  0  0  0  0
  151.7777  141.7861  160.5092 H   0  0  0  0  0  0  0  0  0  0  0  0
  152.0718  143.1708  162.5341 H   0  0  0  0  0  0  0  0  0  0  0  0
  153.3855  144.0427  161.7814 H   0  0  0  0  0  0  0  0  0  0  0  0
  150.4660  144.0319  160.8796 H   0  0  0  0  0  0  0  0  0  0  0  0
  151.3121  145.3603  161.6203 H   0  0  0  0  0  0  0  0  0  0  0  0
  151.1531  145.6460  159.1386 H   0  0  0  0  0  0  0  0  0  0  0  0
  152.7969  145.6202  159.7044 H   0  0  0  0  0  0  0  0  0  0  0  0
  152.8150  144.2979  157.7691 H   0  0  0  0  0  0  0  0  0  0  0  0
  152.1690  142.3495  156.5399 H   0  0  0  0  0  0  0  0  0  0  0  0
  149.2302  142.2232  156.2513 H   0  0  0  0  0  0  0  0  0  0  0  0
  150.4458  141.7426  155.0900 H   0  0  0  0  0  0  0  0  0  0  0  0
  150.8363  140.0443  157.3739 H   0  0  0  0  0  0  0  0  0  0  0  0
  149.1121  140.0812  157.0969 H   0  0  0  0  0  0  0  0  0  0  0  0
  151.6830  137.8689  153.1277 H   0  0  0  0  0  0  0  0  0  0  0  0
  154.1878  143.2730  159.3746 H   0  0  0  0  0  0  0  0  0  0  0  0
  153.3480  141.9647  158.5974 H   0  0  0  0  0  0  0  0  0  0  0  0
  149.2713  137.1485  153.5218 H   0  0  0  0  0  0  0  0  0  0  0  0
  1  2  1  0  0  0  0
  1 18  1  0  0  0  0
  1 19  1  0  0  0  0
  1 20  1  0  0  0  0
  2 17  1  0  0  0  0
  2  3  1  0  0  0  0
  2 21  1  0  0  0  0
  3  4  1  0  0  0  0
  3 22  1  0  0  0  0
  3 23  1  0  0  0  0
  4  5  1  0  0  0  0
  4 24  1  0  0  0  0
  4 25  1  0  0  0  0
  5  6  1  0  0  0  0
  5 26  1  0  0  0  0
  5 27  1  0  0  0  0
  6  7  1  0  0  0  0
  6 17  1  0  0  0  0
  6 28  1  0  0  0  0
  7  8  2  0  0  0  0
  7  9  1  0  0  0  0
  9 10  1  0  0  0  0
  9 29  1  0  0  0  0
 10 11  1  0  0  0  0
 10 30  1  0  0  0  0
 10 31  1  0  0  0  0
 11 32  1  0  0  0  0
 11 33  1  0  0  0  0
 11 12  1  0  0  0  0
 12 16  1  0  0  0  0
 12 13  2  0  0  0  0
 13 14  1  0  0  0  0
 14 15  1  0  0  0  0
 14 37  1  0  0  0  0
 15 16  2  0  0  0  0
 15 34  1  0  0  0  0
 17 35  1  0  0  0  0
 17 36  1  0  0  0  0
M  END
> <s_m_source_file>
AV-unprocessed.smi

> <i_m_source_file_index>
3032

> <i_lp_mmshare_version>
43012

> <i_f3d_flags>
0

> <s_epik_input>
W0NIM11bQ0BASF0xW0NIMl1bQ0gyXVtDSDJdW0NASF0oW0NIMl0xKUMoPU8pW05IXVtDSDJdW0NIMl1jMm5uW2NIXVtuSF0y

> <s_epik_cmdline>
J2VwaWtfcHl0aG9uJywgJy1waCcsICc3LjAnLCAnLXRuJywgJzgnLCAnLW1hJywgJzIwMCcsICctbWV0YWxfYmluZGluZycsICctaW1hZScsICc8aW5maWxlLm1hZT4nLCAnLW9tYWUnLCAnPG91dGZpbGUubWFlPic=

> <r_epik_Ionization_Penalty>
0.000752022

> <r_epik_Ionization_Penalty_Charging>
0

> <r_epik_Ionization_Penalty_Neutral>
0.000752022

> <r_epik_State_Penalty>
0.639926

> <r_epik_Charging_Adjusted_Penalty>
0.639926

> <i_epik_Tot_Q>
0

> <i_epik_Tot_abs_Q>
0

> <r_epik_Metal_State_Penalty>
0.76532

> <b_epik_Metal_Only>
0

> <s_lp_Force_Field>
OPLS_2005

> <r_lp_Energy>
6.51098

> <b_lp_Chiralities_Consistent>
1

> <s_lp_Variant>
AV-unprocessed.smi:3032-8

> <Gold.Version>
5.8.1

> <Gold.Id.Protein>
6NUR|6NUR_protein|mol2

> <Gold.PLP.Fitness>
45.2352

> <Gold.PLP.PLP>
-38.1038

> <Gold.PLP.part.hbond>
-2.0000

> <Gold.PLP.part.metal>
0.0000

> <Gold.PLP.part.buried>
-4.7363

> <Gold.PLP.part.nonpolar>
-32.4352

> <Gold.PLP.part.repulsive>
0.4453

> <Gold.PLP.ligand.clash>
0.0000

> <Gold.PLP.ligand.torsion>
0.8674

> <Gold.PLP.Chemscore.Hbond>
1.9920

> <Gold.PLP.Chemscore.CHOScore>
0.9442

> <Gold.PLP.Chemscore.Metal>
0.0000

> <Gold.Chemscore.Hbonds>
donor molecule, donor type, donor heavy atom, donor atom, acceptor molecule, acceptor atom, score
      L1  H    14    37       P1  7948  0.98
      P1  H  7989  7998       L1    16  0.78
      L1  C    15    34       P1  7949  0.92

> <Gold.PLP.Chemscore.Internal.Correction>
0.0576

> <Gold.Rescore>
     Score         DG    S(hbond)    S(metal)    S(lipo)     H(rot)  DE(clash)    DE(int)     intcor
     14.57     -15.68       1.51        0.00      93.27       2.25       0.12       0.99       ----

> <Gold.Chemscore.Fitness>
14.5714

> <Gold.Chemscore.DG>
-15.6835

> <Gold.Chemscore.ZeroCoef>
-5.4800

> <Gold.Chemscore.Hbond>
1.5124

> <Gold.Chemscore.Metal>
0.0000

> <Gold.Chemscore.Lipo>
93.2680

> <Gold.Chemscore.Internal_Hbond>
0.0000

> <Gold.Chemscore.DEClash>
0.1192

> <Gold.Chemscore.DEInternal>
0.9928

> <Gold.Chemscore.Rot>
2.2501

> <Gold.Chemscore.Internal.Correction>
   9.000000E+99

> <Gold.Chemscore.Hbonds>
donor molecule, donor type, donor heavy atom, donor atom, acceptor molecule, acceptor atom, score
      L1  H    14    37       P1  7948  0.92
      P1  H  7989  7998       L1    16  0.18

> <Gold.Chemscore.Hbond.Weighted>
-5.0515

> <Gold.Chemscore.Metal.Weighted>
-0.0000

> <Gold.Chemscore.Lipo.Weighted>
-10.9124

> <Gold.Chemscore.Internal_Hbond.Weighted>
0.0000

> <Gold.Chemscore.DEClash.Weighted>
0.1192

> <Gold.Chemscore.DEInternal.Weighted>
0.9928

> <Gold.Chemscore.Rot.Weighted>
5.7603

> <Gold.Chemscore.Internal.Correction.Weighted>
   9.000000E+99

> <Gold.Protein.RotatedTorsions>
[ 6907 6896 6895 6894 ] final -166.07 input  -60.11 | X-H torsion
[ 7974 7965 7964 7962 ] final   36.08 input  175.53 | X-H torsion
[ 8008 7997 7996 7995 ] final   19.05 input   59.86 | X-H torsion
[ 10167 10162 10161 10158 ] final  -87.10 input  -65.29 | X-H torsion
[ 10718 10713 10712 10709 ] final -172.82 input   66.30 | X-H torsion
[ 10763 10752 10751 10750 ] final   38.51 input  -60.55 | X-H torsion
[ 11005 11000 10999 10996 ] final -175.17 input  -57.11 | X-H torsion

> <Gold.Protein.ActiveResidues>
 VAL166  LYS551  ARG553  GLY616  TRP617  ASP618  TYR619  PRO620  LYS621  CYS622 
 ASP623  PHE694  ASN695  SER759  ASP760  ASP761  ALA762  ILE779  LEU786  VAL792 
 PHE793  MET794  SER795  GLU796  ALA797  LYS798  CYS799  TRP800  GLU811  SER814 

> <Gold.Protein.RotatedAtoms>
  151.4377  133.3652  159.2777 H   0  0  0  0  0  0  0  0  0  0  0  0  # atno 6907 bound_to 6896
  150.9180  134.8599  159.7480 H   0  0  0  0  0  0  0  0  0  0  0  0  # atno 6908 bound_to 6896
  152.4967  134.4312  159.9565 H   0  0  0  0  0  0  0  0  0  0  0  0  # atno 6909 bound_to 6896
  146.1237  139.6062  142.9273 H   0  0  0  0  0  0  0  0  0  0  0  0  # atno 7974 bound_to 7965
  154.9150  140.3019  155.5246 H   0  0  0  0  0  0  0  0  0  0  0  0  # atno 8008 bound_to 7997
  156.3013  140.2382  156.4129 H   0  0  0  0  0  0  0  0  0  0  0  0  # atno 8009 bound_to 7997
  154.8388  140.0415  157.1516 H   0  0  0  0  0  0  0  0  0  0  0  0  # atno 8010 bound_to 7997
  140.3877  143.2719  151.9304 H   0  0  0  0  0  0  0  0  0  0  0  0  # atno 10167 bound_to 10162
  156.7612  130.9414  151.3118 H   0  0  0  0  0  0  0  0  0  0  0  0  # atno 10718 bound_to 10713
  152.9998  135.6247  154.2317 H   0  0  0  0  0  0  0  0  0  0  0  0  # atno 10763 bound_to 10752
  154.2058  135.2802  155.2977 H   0  0  0  0  0  0  0  0  0  0  0  0  # atno 10764 bound_to 10752
  154.5646  135.5695  153.7098 H   0  0  0  0  0  0  0  0  0  0  0  0  # atno 10765 bound_to 10752
  140.4663  134.6207  157.4864 H   0  0  0  0  0  0  0  0  0  0  0  0  # atno 11005 bound_to 11000
  145.5412  141.0420  143.2330 LP  0  0  0  0  0  0  0  0  0  0  0  0  # atno 17320 bound_to 7965
  144.7621  139.6931  143.7230 LP  0  0  0  0  0  0  0  0  0  0  0  0  # atno 17321 bound_to 7965
  139.4791  144.5757  151.8015 LP  0  0  0  0  0  0  0  0  0  0  0  0  # atno 17342 bound_to 10162
  140.4872  144.1364  150.5943 LP  0  0  0  0  0  0  0  0  0  0  0  0  # atno 17343 bound_to 10162
  157.6733  130.9071  150.0092 LP  0  0  0  0  0  0  0  0  0  0  0  0  # atno 17370 bound_to 10713
  156.1338  130.3643  149.9690 LP  0  0  0  0  0  0  0  0  0  0  0  0  # atno 17371 bound_to 10713
  139.9913  134.6981  155.9685 LP  0  0  0  0  0  0  0  0  0  0  0  0  # atno 17394 bound_to 11000
  141.1598  133.6540  156.4280 LP  0  0  0  0  0  0  0  0  0  0  0  0  # atno 17395 bound_to 11000

$$$$
