AV-unprocessed.smi:978|AV-procd|sdf|4308|dock9
  -GOLD-   22720 2213D 1   1.00000     0.00000
 Structure written by MMmdl.
 39 40  0  0  0  0  0  0  0  0  2 V2000
  149.5716  131.8849  155.9006 C   0  0  0  0  0  0  0  0  0  0  0  0
  150.0292  133.3046  156.0895 C   0  0  0  0  0  0  0  0  0  0  0  0
  150.7897  133.6006  157.1335 N   0  0  0  0  0  0  0  0  0  0  0  0
  151.0042  134.9870  157.0970 O   0  0  0  0  0  0  0  0  0  0  0  0
  150.3612  135.5025  156.0172 C   0  0  0  0  0  0  0  0  0  0  0  0
  150.4546  136.9768  155.8124 C   0  0  0  0  0  0  0  0  0  0  0  0
  149.7587  134.4856  155.3369 C   0  0  0  0  0  0  0  0  0  0  0  0
  148.9728  134.6537  154.1690 N   0  0  0  0  0  0  0  0  0  0  0  0
  147.9282  133.9040  153.7860 C   0  0  0  0  0  0  0  0  0  0  0  0
  147.4995  132.9266  154.3984 O   0  0  0  0  0  0  0  0  0  0  0  0
  147.4114  134.3378  152.6274 N   0  0  0  0  0  0  0  0  0  0  0  0
  146.2838  133.7244  151.9314 C   0  0  2  0  0  0  0  0  0  0  0  0
  146.7975  132.7698  150.8409 C   0  0  0  0  0  0  0  0  0  0  0  0
  145.6334  132.1676  150.0352 C   0  0  0  0  0  0  0  0  0  0  0  0
  144.7841  133.2329  149.4459 N   0  3  1  0  0  0  0  0  0  0  0  0
  143.7245  132.6884  148.5698 C   0  0  0  0  0  0  0  0  0  0  0  0
  144.2449  134.1504  150.4802 C   0  0  0  0  0  0  0  0  0  0  0  0
  145.3789  134.7959  151.2937 C   0  0  0  0  0  0  0  0  0  0  0  0
  148.5713  131.8463  155.4697 H   0  0  0  0  0  0  0  0  0  0  0  0
  149.5365  131.3472  156.8487 H   0  0  0  0  0  0  0  0  0  0  0  0
  150.2456  131.3411  155.2388 H   0  0  0  0  0  0  0  0  0  0  0  0
  149.7696  137.3089  155.0322 H   0  0  0  0  0  0  0  0  0  0  0  0
  151.4650  137.2619  155.5191 H   0  0  0  0  0  0  0  0  0  0  0  0
  150.2046  137.5108  156.7294 H   0  0  0  0  0  0  0  0  0  0  0  0
  149.2977  135.3504  153.5146 H   0  0  0  0  0  0  0  0  0  0  0  0
  147.8329  135.1459  152.1926 H   0  0  0  0  0  0  0  0  0  0  0  0
  145.6987  133.1433  152.6473 H   0  0  0  0  0  0  0  0  0  0  0  0
  147.4670  133.3035  150.1644 H   0  0  0  0  0  0  0  0  0  0  0  0
  147.3860  131.9691  151.2909 H   0  0  0  0  0  0  0  0  0  0  0  0
  146.0312  131.5360  149.2400 H   0  0  0  0  0  0  0  0  0  0  0  0
  145.0252  131.5265  150.6754 H   0  0  0  0  0  0  0  0  0  0  0  0
  143.0208  132.0786  149.1381 H   0  0  0  0  0  0  0  0  0  0  0  0
  144.1552  132.0700  147.7817 H   0  0  0  0  0  0  0  0  0  0  0  0
  143.1688  133.4954  148.0914 H   0  0  0  0  0  0  0  0  0  0  0  0
  143.6506  134.9306  150.0028 H   0  0  0  0  0  0  0  0  0  0  0  0
  143.5738  133.6013  151.1428 H   0  0  0  0  0  0  0  0  0  0  0  0
  144.9533  135.4403  152.0640 H   0  0  0  0  0  0  0  0  0  0  0  0
  145.9704  135.4421  150.6429 H   0  0  0  0  0  0  0  0  0  0  0  0
  145.3865  133.7872  148.8541 H   0  0  0  0  0  0  0  0  0  0  0  0
  1  2  1  0  0  0  0
  1 19  1  0  0  0  0
  1 20  1  0  0  0  0
  1 21  1  0  0  0  0
  2  7  1  0  0  0  0
  2  3  2  0  0  0  0
  3  4  1  0  0  0  0
  4  5  1  0  0  0  0
  5  6  1  0  0  0  0
  5  7  2  0  0  0  0
  6 22  1  0  0  0  0
  6 23  1  0  0  0  0
  6 24  1  0  0  0  0
  7  8  1  0  0  0  0
  8  9  1  0  0  0  0
  8 25  1  0  0  0  0
  9 10  2  0  0  0  0
  9 11  1  0  0  0  0
 11 12  1  0  0  0  0
 11 26  1  0  0  0  0
 12 18  1  0  0  0  0
 12 13  1  0  0  0  0
 12 27  1  0  0  0  0
 13 14  1  0  0  0  0
 13 28  1  0  0  0  0
 13 29  1  0  0  0  0
 14 15  1  0  0  0  0
 14 30  1  0  0  0  0
 14 31  1  0  0  0  0
 15 16  1  0  0  0  0
 15 17  1  0  0  0  0
 15 39  1  0  0  0  0
 16 32  1  0  0  0  0
 16 33  1  0  0  0  0
 16 34  1  0  0  0  0
 17 18  1  0  0  0  0
 17 35  1  0  0  0  0
 17 36  1  0  0  0  0
 18 37  1  0  0  0  0
 18 38  1  0  0  0  0
M  CHG  1  15   1
M  END
> <s_m_source_file>
AV-unprocessed.smi

> <i_m_source_file_index>
978

> <i_lp_mmshare_version>
43012

> <i_f3d_flags>
0

> <s_epik_input>
W0NIM11jMW5vYyhbQ0gzXSljMVtOSF1DKD1PKVtOSF1bQ0hdMltDSDJdW0NIMl1OKFtDSDNdKVtDSDJdW0NIMl0y

> <s_epik_cmdline>
J2VwaWtfcHl0aG9uJywgJy1waCcsICc3LjAnLCAnLXRuJywgJzgnLCAnLW1hJywgJzIwMCcsICctbWV0YWxfYmluZGluZycsICctaW1hZScsICc8aW5maWxlLm1hZT4nLCAnLW9tYWUnLCAnPG91dGZpbGUubWFlPic=

> <r_epik_Ionization_Penalty>
0.00369783

> <r_epik_Ionization_Penalty_Charging>
0.00366825

> <r_epik_Ionization_Penalty_Neutral>
2.95799e-05

> <r_epik_State_Penalty>
0.00261101

> <r_epik_Charging_Adjusted_Penalty>
0.00627926

> <i_epik_Tot_Q>
1

> <i_epik_Tot_abs_Q>
1

> <r_epik_Metal_State_Penalty>
-0

> <b_epik_Metal_Only>
0

> <s_lp_Force_Field>
OPLS_2005

> <r_lp_Energy>
17.6402

> <b_lp_Chiralities_Consistent>
1

> <s_lp_Variant>
AV-unprocessed.smi:978-1

> <Gold.Version>
5.8.1

> <Gold.Id.Protein>
6NUR|6NUR_protein|mol2

> <Gold.PLP.Fitness>
39.1687

> <Gold.PLP.PLP>
-29.9937

> <Gold.PLP.part.hbond>
-4.9641

> <Gold.PLP.part.metal>
0.0000

> <Gold.PLP.part.buried>
-2.0175

> <Gold.PLP.part.nonpolar>
-23.4649

> <Gold.PLP.part.repulsive>
0.1931

> <Gold.PLP.ligand.clash>
0.0000

> <Gold.PLP.ligand.torsion>
0.5023

> <Gold.PLP.Chemscore.Hbond>
3.3082

> <Gold.PLP.Chemscore.CHOScore>
0.0000

> <Gold.PLP.Chemscore.Metal>
0.0000

> <Gold.Chemscore.Hbonds>
donor molecule, donor type, donor heavy atom, donor atom, acceptor molecule, acceptor atom, score
      L1  H     8    25       P1  7948  0.93
      L1  H    11    26       P1  7948  1.00
      L1  H    15    39       P1  7921  1.00
      P1  H  6896  6907       L1     3  0.40

> <Gold.PLP.Chemscore.Internal.Correction>
0.2549

> <Gold.Rescore>
     Score         DG    S(hbond)    S(metal)    S(lipo)     H(rot)  DE(clash)    DE(int)     intcor
     16.95     -19.69       2.56        0.00      70.25       1.00       0.18       2.57       ----

> <Gold.Chemscore.Fitness>
16.9459

> <Gold.Chemscore.DG>
-19.6922

> <Gold.Chemscore.ZeroCoef>
-5.4800

> <Gold.Chemscore.Hbond>
2.5607

> <Gold.Chemscore.Metal>
0.0000

> <Gold.Chemscore.Lipo>
70.2524

> <Gold.Chemscore.Internal_Hbond>
0.0000

> <Gold.Chemscore.DEClash>
0.1803

> <Gold.Chemscore.DEInternal>
2.5660

> <Gold.Chemscore.Rot>
1.0000

> <Gold.Chemscore.Internal.Correction>
   9.000000E+99

> <Gold.Chemscore.Hbonds>
donor molecule, donor type, donor heavy atom, donor atom, acceptor molecule, acceptor atom, score
      L1  H     8    25       P1  7948  0.23
      L1  H    11    26       P1  7948  0.88
      L1  H    15    39       P1  7921  0.65
      P1  H  6896  6907       L1     3  0.03

> <Gold.Chemscore.Hbond.Weighted>
-8.5526

> <Gold.Chemscore.Metal.Weighted>
-0.0000

> <Gold.Chemscore.Lipo.Weighted>
-8.2195

> <Gold.Chemscore.Internal_Hbond.Weighted>
0.0000

> <Gold.Chemscore.DEClash.Weighted>
0.1803

> <Gold.Chemscore.DEInternal.Weighted>
2.5660

> <Gold.Chemscore.Rot.Weighted>
2.5600

> <Gold.Chemscore.Internal.Correction.Weighted>
   9.000000E+99

> <Gold.Protein.RotatedTorsions>
[ 6907 6896 6895 6894 ] final -149.15 input  -60.11 | X-H torsion
[ 7974 7965 7964 7962 ] final   54.48 input  175.53 | X-H torsion
[ 8008 7997 7996 7995 ] final  -69.08 input   59.86 | X-H torsion
[ 10167 10162 10161 10158 ] final  -18.80 input  -65.29 | X-H torsion
[ 10718 10713 10712 10709 ] final -102.62 input   66.30 | X-H torsion
[ 10763 10752 10751 10750 ] final   -0.19 input  -60.55 | X-H torsion
[ 11005 11000 10999 10996 ] final   90.43 input  -57.11 | X-H torsion

> <Gold.Protein.ActiveResidues>
 VAL166  LYS551  ARG553  GLY616  TRP617  ASP618  TYR619  PRO620  LYS621  CYS622 
 ASP623  PHE694  ASN695  SER759  ASP760  ASP761  ALA762  ILE779  LEU786  VAL792 
 PHE793  MET794  SER795  GLU796  ALA797  LYS798  CYS799  TRP800  GLU811  SER814 

> <Gold.Protein.RotatedAtoms>
  151.1800  133.4731  159.2593 H   0  0  0  0  0  0  0  0  0  0  0  0  # atno 6907 bound_to 6896
  151.1269  135.0109  159.8574 H   0  0  0  0  0  0  0  0  0  0  0  0  # atno 6908 bound_to 6896
  152.5458  134.1706  159.8648 H   0  0  0  0  0  0  0  0  0  0  0  0  # atno 6909 bound_to 6896
  145.9604  139.4053  143.0252 H   0  0  0  0  0  0  0  0  0  0  0  0  # atno 7974 bound_to 7965
  154.4913  140.0860  156.7600 H   0  0  0  0  0  0  0  0  0  0  0  0  # atno 8008 bound_to 7997
  155.4224  140.3446  155.4254 H   0  0  0  0  0  0  0  0  0  0  0  0  # atno 8009 bound_to 7997
  156.1333  140.1508  156.9020 H   0  0  0  0  0  0  0  0  0  0  0  0  # atno 8010 bound_to 7997
  140.7262  143.4881  151.0028 H   0  0  0  0  0  0  0  0  0  0  0  0  # atno 10167 bound_to 10162
  156.0235  130.5429  150.7135 H   0  0  0  0  0  0  0  0  0  0  0  0  # atno 10718 bound_to 10713
  153.3287  135.6974  153.6966 H   0  0  0  0  0  0  0  0  0  0  0  0  # atno 10763 bound_to 10752
  153.5778  135.3504  155.2863 H   0  0  0  0  0  0  0  0  0  0  0  0  # atno 10764 bound_to 10752
  154.8613  135.4287  154.2470 H   0  0  0  0  0  0  0  0  0  0  0  0  # atno 10765 bound_to 10752
  139.8856  134.8613  156.3284 H   0  0  0  0  0  0  0  0  0  0  0  0  # atno 11005 bound_to 11000
  145.8048  140.9754  143.0980 LP  0  0  0  0  0  0  0  0  0  0  0  0  # atno 17320 bound_to 7965
  144.6814  139.9847  143.7484 LP  0  0  0  0  0  0  0  0  0  0  0  0  # atno 17321 bound_to 7965
  139.8584  143.7347  152.3175 LP  0  0  0  0  0  0  0  0  0  0  0  0  # atno 17342 bound_to 10162
  139.7554  144.7522  151.0444 LP  0  0  0  0  0  0  0  0  0  0  0  0  # atno 17343 bound_to 10162
  157.4768  131.0898  151.0581 LP  0  0  0  0  0  0  0  0  0  0  0  0  # atno 17370 bound_to 10713
  157.1026  130.5988  149.5463 LP  0  0  0  0  0  0  0  0  0  0  0  0  # atno 17371 bound_to 10713
  140.9739  133.7309  156.0575 LP  0  0  0  0  0  0  0  0  0  0  0  0  # atno 17394 bound_to 11000
  140.7835  134.3698  157.5482 LP  0  0  0  0  0  0  0  0  0  0  0  0  # atno 17395 bound_to 11000

$$$$
