AV-unprocessed.smi:1152|AV-procd|sdf|4898|dock3
  -GOLD-   22720 3473D 1   1.00000     0.00000
 Structure written by MMmdl.
 31 32  0  0  0  0  0  0  0  0  2 V2000
  147.0324  139.1011  152.5986 C   0  0  0  0  0  0  0  0  0  0  0  0
  148.2624  138.7790  153.3075 N   0  0  0  0  0  0  0  0  0  0  0  0
  148.8932  139.5931  154.1645 C   0  0  0  0  0  0  0  0  0  0  0  0
  148.4226  140.7092  154.3932 O   0  0  0  0  0  0  0  0  0  0  0  0
  150.0205  139.0469  154.6884 N   0  5  0  0  0  0  0  0  0  0  0  0
  150.7875  139.6026  155.6535 C   0  0  0  0  0  0  0  0  0  0  0  0
  151.8518  139.0365  156.2520 N   0  0  0  0  0  0  0  0  0  0  0  0
  152.4464  139.8439  157.2084 N   0  0  0  0  0  0  0  0  0  0  0  0
  151.8274  141.0203  157.3290 C   0  0  0  0  0  0  0  0  0  0  0  0
  152.2643  142.0815  158.2900 C   0  0  0  0  0  0  0  0  0  0  0  0
  152.2570  141.5944  159.7521 C   0  0  0  0  0  0  0  0  0  0  0  0
  152.7503  142.6907  160.7107 C   0  0  0  0  0  0  0  0  0  0  0  0
  151.9419  143.9873  160.5411 C   0  0  0  0  0  0  0  0  0  0  0  0
  151.9794  144.4800  159.0854 C   0  0  0  0  0  0  0  0  0  0  0  0
  151.4805  143.3968  158.1150 C   0  0  0  0  0  0  0  0  0  0  0  0
  150.4497  141.2232  156.2611 S   0  0  0  0  0  0  0  0  0  0  0  0
  146.7379  138.2631  151.9671 H   0  0  0  0  0  0  0  0  0  0  0  0
  147.1694  139.9766  151.9626 H   0  0  0  0  0  0  0  0  0  0  0  0
  146.2218  139.3018  153.3001 H   0  0  0  0  0  0  0  0  0  0  0  0
  148.6691  137.8707  153.1380 H   0  0  0  0  0  0  0  0  0  0  0  0
  153.3033  142.3035  158.0417 H   0  0  0  0  0  0  0  0  0  0  0  0
  151.2477  141.2934  160.0362 H   0  0  0  0  0  0  0  0  0  0  0  0
  152.8846  140.7084  159.8542 H   0  0  0  0  0  0  0  0  0  0  0  0
  152.6810  142.3410  161.7410 H   0  0  0  0  0  0  0  0  0  0  0  0
  153.8059  142.8920  160.5234 H   0  0  0  0  0  0  0  0  0  0  0  0
  150.9078  143.8156  160.8426 H   0  0  0  0  0  0  0  0  0  0  0  0
  152.3338  144.7587  161.2046 H   0  0  0  0  0  0  0  0  0  0  0  0
  151.3720  145.3794  158.9812 H   0  0  0  0  0  0  0  0  0  0  0  0
  152.9993  144.7642  158.8227 H   0  0  0  0  0  0  0  0  0  0  0  0
  151.5728  143.7533  157.0885 H   0  0  0  0  0  0  0  0  0  0  0  0
  150.4179  143.2193  158.2869 H   0  0  0  0  0  0  0  0  0  0  0  0
  1  2  1  0  0  0  0
  1 17  1  0  0  0  0
  1 18  1  0  0  0  0
  1 19  1  0  0  0  0
  2  3  1  0  0  0  0
  2 20  1  0  0  0  0
  3  4  2  0  0  0  0
  3  5  1  0  0  0  0
  5  6  1  0  0  0  0
  6 16  1  0  0  0  0
  6  7  2  0  0  0  0
  7  8  1  0  0  0  0
  8  9  2  0  0  0  0
  9 10  1  0  0  0  0
  9 16  1  0  0  0  0
 10 15  1  0  0  0  0
 10 11  1  0  0  0  0
 10 21  1  0  0  0  0
 11 12  1  0  0  0  0
 11 22  1  0  0  0  0
 11 23  1  0  0  0  0
 12 13  1  0  0  0  0
 12 24  1  0  0  0  0
 12 25  1  0  0  0  0
 13 14  1  0  0  0  0
 13 26  1  0  0  0  0
 13 27  1  0  0  0  0
 14 15  1  0  0  0  0
 14 28  1  0  0  0  0
 14 29  1  0  0  0  0
 15 30  1  0  0  0  0
 15 31  1  0  0  0  0
M  CHG  1   5  -1
M  END
> <s_m_source_file>
AV-unprocessed.smi

> <i_m_source_file_index>
1152

> <i_lp_mmshare_version>
43012

> <i_f3d_flags>
0

> <s_epik_input>
W0NIM11bTkhdQyg9TylbTkhdYzFubmMoczEpW0NIXTJbQ0gyXVtDSDJdW0NIMl1bQ0gyXVtDSDJdMg==

> <s_epik_cmdline>
J2VwaWtfcHl0aG9uJywgJy1waCcsICc3LjAnLCAnLXRuJywgJzgnLCAnLW1hJywgJzIwMCcsICctbWV0YWxfYmluZGluZycsICctaW1hZScsICc8aW5maWxlLm1hZT4nLCAnLW9tYWUnLCAnPG91dGZpbGUubWFlPic=

> <r_lp_tautomer_probability>
1

> <r_epik_Ionization_Penalty>
4.62071

> <r_epik_Ionization_Penalty_Charging>
4.36597

> <r_epik_Ionization_Penalty_Neutral>
0.254736

> <r_epik_State_Penalty>
4.3656

> <r_epik_Charging_Adjusted_Penalty>
8.73157

> <i_epik_Tot_Q>
-1

> <i_epik_Tot_abs_Q>
1

> <r_epik_Metal_State_Penalty>
0.756176

> <b_epik_Metal_Only>
1

> <s_lp_Force_Field>
OPLS_2005

> <r_lp_Energy>
5.71757

> <b_lp_Chiralities_Consistent>
1

> <s_lp_Variant>
AV-unprocessed.smi:1152-2

> <Gold.Version>
5.8.1

> <Gold.Id.Protein>
6NUR|6NUR_protein|mol2

> <Gold.PLP.Fitness>
38.8498

> <Gold.PLP.PLP>
-32.9266

> <Gold.PLP.part.hbond>
-3.0000

> <Gold.PLP.part.metal>
0.0000

> <Gold.PLP.part.buried>
-3.5540

> <Gold.PLP.part.nonpolar>
-26.3794

> <Gold.PLP.part.repulsive>
0.3118

> <Gold.PLP.ligand.clash>
0.0000

> <Gold.PLP.ligand.torsion>
0.0572

> <Gold.PLP.Chemscore.Hbond>
1.9920

> <Gold.PLP.Chemscore.CHOScore>
0.0000

> <Gold.PLP.Chemscore.Metal>
0.0000

> <Gold.Chemscore.Hbonds>
donor molecule, donor type, donor heavy atom, donor atom, acceptor molecule, acceptor atom, score
      L1  H     2    20       P1  7948  0.86
      P1  H  7997  8010       L1     8  0.96

> <Gold.PLP.Chemscore.Internal.Correction>
0.0617

> <Gold.Rescore>
     Score         DG    S(hbond)    S(metal)    S(lipo)     H(rot)  DE(clash)    DE(int)     intcor
     17.17     -18.65       1.71        0.00      85.52       1.00       0.06       1.42       ----

> <Gold.Chemscore.Fitness>
17.1722

> <Gold.Chemscore.DG>
-18.6476

> <Gold.Chemscore.ZeroCoef>
-5.4800

> <Gold.Chemscore.Hbond>
1.7133

> <Gold.Chemscore.Metal>
0.0000

> <Gold.Chemscore.Lipo>
85.5158

> <Gold.Chemscore.Internal_Hbond>
0.0000

> <Gold.Chemscore.DEClash>
0.0557

> <Gold.Chemscore.DEInternal>
1.4198

> <Gold.Chemscore.Rot>
1.0000

> <Gold.Chemscore.Internal.Correction>
   9.000000E+99

> <Gold.Chemscore.Hbonds>
donor molecule, donor type, donor heavy atom, donor atom, acceptor molecule, acceptor atom, score
      L1  H     2    20       P1  7948  0.80
      P1  H  7997  8010       L1     8  0.27

> <Gold.Chemscore.Hbond.Weighted>
-5.7223

> <Gold.Chemscore.Metal.Weighted>
-0.0000

> <Gold.Chemscore.Lipo.Weighted>
-10.0054

> <Gold.Chemscore.Internal_Hbond.Weighted>
0.0000

> <Gold.Chemscore.DEClash.Weighted>
0.0557

> <Gold.Chemscore.DEInternal.Weighted>
1.4198

> <Gold.Chemscore.Rot.Weighted>
2.5600

> <Gold.Chemscore.Internal.Correction.Weighted>
   9.000000E+99

> <Gold.Protein.RotatedTorsions>
[ 6907 6896 6895 6894 ] final  -30.30 input  -60.11 | X-H torsion
[ 7974 7965 7964 7962 ] final   29.68 input  175.53 | X-H torsion
[ 8008 7997 7996 7995 ] final   70.03 input   59.86 | X-H torsion
[ 10167 10162 10161 10158 ] final -133.94 input  -65.29 | X-H torsion
[ 10718 10713 10712 10709 ] final  143.14 input   66.30 | X-H torsion
[ 10763 10752 10751 10750 ] final   20.60 input  -60.55 | X-H torsion
[ 11005 11000 10999 10996 ] final  145.42 input  -57.11 | X-H torsion

> <Gold.Protein.ActiveResidues>
 VAL166  LYS551  ARG553  GLY616  TRP617  ASP618  TYR619  PRO620  LYS621  CYS622 
 ASP623  PHE694  ASN695  SER759  ASP760  ASP761  ALA762  ILE779  LEU786  VAL792 
 PHE793  MET794  SER795  GLU796  ALA797  LYS798  CYS799  TRP800  GLU811  SER814 

> <Gold.Protein.RotatedAtoms>
  151.1074  135.0007  159.8477 H   0  0  0  0  0  0  0  0  0  0  0  0  # atno 6907 bound_to 6896
  152.5441  134.1877  159.8671 H   0  0  0  0  0  0  0  0  0  0  0  0  # atno 6908 bound_to 6896
  151.1924  133.4615  159.2628 H   0  0  0  0  0  0  0  0  0  0  0  0  # atno 6909 bound_to 6896
  146.1657  139.6889  142.9003 H   0  0  0  0  0  0  0  0  0  0  0  0  # atno 7974 bound_to 7965
  155.7327  140.3491  155.5067 H   0  0  0  0  0  0  0  0  0  0  0  0  # atno 8008 bound_to 7997
  155.9168  140.1060  157.1259 H   0  0  0  0  0  0  0  0  0  0  0  0  # atno 8009 bound_to 7997
  154.4064  140.1257  156.4614 H   0  0  0  0  0  0  0  0  0  0  0  0  # atno 8010 bound_to 7997
  139.8931  143.6698  152.2609 H   0  0  0  0  0  0  0  0  0  0  0  0  # atno 10167 bound_to 10162
  157.3725  131.0981  151.0815 H   0  0  0  0  0  0  0  0  0  0  0  0  # atno 10718 bound_to 10713
  153.1064  135.6685  153.9579 H   0  0  0  0  0  0  0  0  0  0  0  0  # atno 10763 bound_to 10752
  153.9136  135.3022  155.3450 H   0  0  0  0  0  0  0  0  0  0  0  0  # atno 10764 bound_to 10752
  154.7485  135.5046  153.9322 H   0  0  0  0  0  0  0  0  0  0  0  0  # atno 10765 bound_to 10752
  140.0711  134.9151  157.1346 H   0  0  0  0  0  0  0  0  0  0  0  0  # atno 11005 bound_to 11000
  145.4473  141.0426  143.2824 LP  0  0  0  0  0  0  0  0  0  0  0  0  # atno 17320 bound_to 7965
  144.8089  139.5999  143.7038 LP  0  0  0  0  0  0  0  0  0  0  0  0  # atno 17321 bound_to 7965
  139.7092  144.7623  151.1141 LP  0  0  0  0  0  0  0  0  0  0  0  0  # atno 17342 bound_to 10162
  140.7722  143.5353  150.9375 LP  0  0  0  0  0  0  0  0  0  0  0  0  # atno 17343 bound_to 10162
  157.1914  130.6353  149.5706 LP  0  0  0  0  0  0  0  0  0  0  0  0  # atno 17370 bound_to 10713
  155.9758  130.4721  150.6487 LP  0  0  0  0  0  0  0  0  0  0  0  0  # atno 17371 bound_to 10713
  140.3626  134.2478  155.7185 LP  0  0  0  0  0  0  0  0  0  0  0  0  # atno 17394 bound_to 11000
  141.2012  133.7968  157.0452 LP  0  0  0  0  0  0  0  0  0  0  0  0  # atno 17395 bound_to 11000

$$$$
