AV-unprocessed.smi:39|AV-procd|sdf|366|dock4
  -GOLD-   2262016203D 1   1.00000     0.00000
 Structure written by MMmdl.
 31 32  0  0  0  0  0  0  0  0  4 V2000
  152.2938  143.1531  160.0241 C   0  0  0  0  0  0  0  0  0  0  0  0
  152.3148  141.6425  159.8680 C   0  0  0  0  0  0  0  0  0  0  0  0
  151.8164  141.0237  158.7745 C   0  0  0  0  0  0  0  0  0  0  0  0
  151.8401  139.6456  158.6337 N   0  0  0  0  0  0  0  0  0  0  0  0
  151.2702  138.9597  157.4076 C   0  0  2  0  0  0  0  0  0  0  0  0
  152.0932  139.2862  156.1526 C   0  0  0  0  0  0  0  0  0  0  0  0
  151.0210  139.4607  155.0897 C   0  0  1  0  0  0  0  0  0  0  0  0
  150.6215  138.1744  154.5062 N   0  0  0  0  0  0  0  0  0  0  0  0
  151.1317  137.1595  154.9989 N   0  3  0  0  0  0  0  0  0  0  0  0
  151.4844  136.1919  155.4828 N   0  5  0  0  0  0  0  0  0  0  0  0
  149.8714  140.0700  155.9013 C   0  0  2  0  0  0  0  0  0  0  0  0
  150.0052  141.5957  156.0810 C   0  0  0  0  0  0  0  0  0  0  0  0
  149.6257  142.2607  154.8952 O   0  0  0  0  0  0  0  0  0  0  0  0
  149.9676  139.4151  157.1670 O   0  0  0  0  0  0  0  0  0  0  0  0
  152.3639  138.8462  159.6840 C   0  0  0  0  0  0  0  0  0  0  0  0
  152.3319  137.6227  159.5506 O   0  0  0  0  0  0  0  0  0  0  0  0
  152.8750  139.4620  160.7879 N   0  5  0  0  0  0  0  0  0  0  0  0
  152.8890  140.8174  160.9373 C   0  0  0  0  0  0  0  0  0  0  0  0
  153.3636  141.3609  161.9342 O   0  0  0  0  0  0  0  0  0  0  0  0
  151.2409  137.8964  157.6516 H   0  0  0  0  0  0  0  0  0  0  0  0
  151.3513  140.1445  154.3054 H   0  0  0  0  0  0  0  0  0  0  0  0
  148.9116  139.8454  155.4329 H   0  0  0  0  0  0  0  0  0  0  0  0
  151.8385  143.6352  159.1587 H   0  0  0  0  0  0  0  0  0  0  0  0
  153.3079  143.5392  160.1309 H   0  0  0  0  0  0  0  0  0  0  0  0
  151.7218  143.4360  160.9083 H   0  0  0  0  0  0  0  0  0  0  0  0
  151.3888  141.6370  157.9964 H   0  0  0  0  0  0  0  0  0  0  0  0
  152.6314  140.2239  156.2993 H   0  0  0  0  0  0  0  0  0  0  0  0
  152.8180  138.5001  155.9379 H   0  0  0  0  0  0  0  0  0  0  0  0
  149.4227  141.9640  156.9250 H   0  0  0  0  0  0  0  0  0  0  0  0
  151.0448  141.8593  156.2754 H   0  0  0  0  0  0  0  0  0  0  0  0
  149.3540  143.1381  155.1171 H   0  0  0  0  0  0  0  0  0  0  0  0
  1  2  1  0  0  0  0
  1 23  1  0  0  0  0
  1 24  1  0  0  0  0
  1 25  1  0  0  0  0
  2 18  1  0  0  0  0
  2  3  2  0  0  0  0
  3  4  1  0  0  0  0
  3 26  1  0  0  0  0
  4  5  1  0  0  0  0
  4 15  1  0  0  0  0
  5 20  1  0  0  0  0
  5 14  1  0  0  0  0
  5  6  1  0  0  0  0
  6  7  1  0  0  0  0
  6 27  1  0  0  0  0
  6 28  1  0  0  0  0
  7 21  1  0  0  0  0
  7  8  1  0  0  0  0
  7 11  1  0  0  0  0
  8  9  2  0  0  0  0
  9 10  2  0  0  0  0
 11 22  1  0  0  0  0
 11 12  1  0  0  0  0
 11 14  1  0  0  0  0
 12 13  1  0  0  0  0
 12 29  1  0  0  0  0
 12 30  1  0  0  0  0
 13 31  1  0  0  0  0
 15 16  2  0  0  0  0
 15 17  1  0  0  0  0
 17 18  1  0  0  0  0
 18 19  2  0  0  0  0
M  CHG  1   9   1
M  CHG  1  10  -1
M  CHG  1  17  -1
M  END
> <s_m_source_file>
AV-unprocessed.smi

> <i_m_source_file_index>
39

> <i_lp_mmshare_version>
43012

> <i_f3d_flags>
0

> <s_epik_input>
Tz1jMVtuSF1jKD1PKW4oW2NIXWMxW0NIM10pW0NASF0yW0NIMl1bQ0BIXShOPVtOK109W04tXSlbQ0BIXShPMilbQ0gyXVtPSF0=

> <s_epik_cmdline>
J2VwaWtfcHl0aG9uJywgJy1waCcsICc3LjAnLCAnLXRuJywgJzgnLCAnLW1hJywgJzIwMCcsICctbWV0YWxfYmluZGluZycsICctaW1hZScsICc8aW5maWxlLm1hZT4nLCAnLW9tYWUnLCAnPG91dGZpbGUubWFlPic=

> <r_lp_tautomer_probability>
0.999537

> <r_epik_Ionization_Penalty>
3.6393

> <r_epik_Ionization_Penalty_Charging>
9.76484e-08

> <r_epik_Ionization_Penalty_Neutral>
3.6393

> <r_epik_State_Penalty>
3.63887

> <r_epik_Charging_Adjusted_Penalty>
3.63887

> <i_epik_Tot_Q>
-1

> <i_epik_Tot_abs_Q>
3

> <r_epik_Metal_State_Penalty>
0.225911

> <b_epik_Metal_Only>
1

> <s_epik_Chemistry_Notes>
This compound contains an acetal/aminal-like group ( X-CH(R)-Y where X, Y are N, S, or O) that may be acid/base labile, releasing an aldehyde.

> <s_lp_Force_Field>
OPLS_2005

> <r_lp_Energy>
37.4001

> <b_lp_Chiralities_Consistent>
1

> <s_lp_Variant>
AV-unprocessed.smi:39-16

> <Gold.Version>
5.8.1

> <Gold.Id.Protein>
6NUR|6NUR_protein|mol2

> <Gold.PLP.Fitness>
36.3982

> <Gold.PLP.PLP>
-30.8963

> <Gold.PLP.part.hbond>
-3.8070

> <Gold.PLP.part.metal>
0.0000

> <Gold.PLP.part.buried>
-2.9931

> <Gold.PLP.part.nonpolar>
-24.0851

> <Gold.PLP.part.repulsive>
0.4019

> <Gold.PLP.ligand.clash>
0.0000

> <Gold.PLP.ligand.torsion>
0.2705

> <Gold.PLP.Chemscore.Hbond>
2.0000

> <Gold.PLP.Chemscore.CHOScore>
0.0000

> <Gold.PLP.Chemscore.Metal>
0.0000

> <Gold.Chemscore.Hbonds>
donor molecule, donor type, donor heavy atom, donor atom, acceptor molecule, acceptor atom, score
      L1  H    13    31       P1  8028  1.00
      P1  H 10752 10765       L1    10  1.00

> <Gold.PLP.Chemscore.Internal.Correction>
0.0428

> <Gold.Rescore>
     Score         DG    S(hbond)    S(metal)    S(lipo)     H(rot)  DE(clash)    DE(int)     intcor
     10.06     -11.53       1.96        0.00      55.29       2.72       0.04       1.43       ----

> <Gold.Chemscore.Fitness>
10.0612

> <Gold.Chemscore.DG>
-11.5329

> <Gold.Chemscore.ZeroCoef>
-5.4800

> <Gold.Chemscore.Hbond>
1.9566

> <Gold.Chemscore.Metal>
0.0000

> <Gold.Chemscore.Lipo>
55.2899

> <Gold.Chemscore.Internal_Hbond>
0.0000

> <Gold.Chemscore.DEClash>
0.0370

> <Gold.Chemscore.DEInternal>
1.4347

> <Gold.Chemscore.Rot>
2.7153

> <Gold.Chemscore.Internal.Correction>
   9.000000E+99

> <Gold.Chemscore.Hbonds>
donor molecule, donor type, donor heavy atom, donor atom, acceptor molecule, acceptor atom, score
      L1  H    13    31       P1  8028  1.00
      P1  H 10752 10765       L1    10  0.53

> <Gold.Chemscore.Hbond.Weighted>
-6.5352

> <Gold.Chemscore.Metal.Weighted>
-0.0000

> <Gold.Chemscore.Lipo.Weighted>
-6.4689

> <Gold.Chemscore.Internal_Hbond.Weighted>
0.0000

> <Gold.Chemscore.DEClash.Weighted>
0.0370

> <Gold.Chemscore.DEInternal.Weighted>
1.4347

> <Gold.Chemscore.Rot.Weighted>
6.9512

> <Gold.Chemscore.Internal.Correction.Weighted>
   9.000000E+99

> <Gold.Protein.RotatedTorsions>
[ 6907 6896 6895 6894 ] final   86.23 input  -60.11 | X-H torsion
[ 7974 7965 7964 7962 ] final  -44.35 input  175.53 | X-H torsion
[ 8008 7997 7996 7995 ] final  141.22 input   59.86 | X-H torsion
[ 10167 10162 10161 10158 ] final -149.41 input  -65.29 | X-H torsion
[ 10718 10713 10712 10709 ] final -113.06 input   66.30 | X-H torsion
[ 10763 10752 10751 10750 ] final  170.46 input  -60.55 | X-H torsion
[ 11005 11000 10999 10996 ] final  151.73 input  -57.11 | X-H torsion

> <Gold.Protein.ActiveResidues>
 VAL166  LYS551  ARG553  GLY616  TRP617  ASP618  TYR619  PRO620  LYS621  CYS622 
 ASP623  PHE694  ASN695  SER759  ASP760  ASP761  ALA762  ILE779  LEU786  VAL792 
 PHE793  MET794  SER795  GLU796  ALA797  LYS798  CYS799  TRP800  GLU811  SER814 

> <Gold.Protein.RotatedAtoms>
  152.5390  134.2464  159.8881 H   0  0  0  0  0  0  0  0  0  0  0  0  # atno 6907 bound_to 6896
  151.2429  133.4383  159.2615 H   0  0  0  0  0  0  0  0  0  0  0  0  # atno 6908 bound_to 6896
  151.0610  134.9750  159.8316 H   0  0  0  0  0  0  0  0  0  0  0  0  # atno 6909 bound_to 6896
  145.9929  140.7160  142.9308 H   0  0  0  0  0  0  0  0  0  0  0  0  # atno 7974 bound_to 7965
  156.2969  140.2321  156.4529 H   0  0  0  0  0  0  0  0  0  0  0  0  # atno 8008 bound_to 7997
  154.8086  140.0444  157.1346 H   0  0  0  0  0  0  0  0  0  0  0  0  # atno 8009 bound_to 7997
  154.9450  140.3034  155.5106 H   0  0  0  0  0  0  0  0  0  0  0  0  # atno 8010 bound_to 7997
  139.7445  143.8612  152.2571 H   0  0  0  0  0  0  0  0  0  0  0  0  # atno 10167 bound_to 10162
  156.0743  130.5953  150.8592 H   0  0  0  0  0  0  0  0  0  0  0  0  # atno 10718 bound_to 10713
  154.3979  135.2754  155.2114 H   0  0  0  0  0  0  0  0  0  0  0  0  # atno 10763 bound_to 10752
  154.4153  135.6013  153.5980 H   0  0  0  0  0  0  0  0  0  0  0  0  # atno 10764 bound_to 10752
  152.9831  135.5959  154.4243 H   0  0  0  0  0  0  0  0  0  0  0  0  # atno 10765 bound_to 10752
  140.1245  134.8842  157.2118 H   0  0  0  0  0  0  0  0  0  0  0  0  # atno 11005 bound_to 11000
  144.6894  140.3101  143.7249 LP  0  0  0  0  0  0  0  0  0  0  0  0  # atno 17320 bound_to 7965
  145.7603  139.1822  143.2271 LP  0  0  0  0  0  0  0  0  0  0  0  0  # atno 17321 bound_to 7965
  139.8572  144.7135  150.9143 LP  0  0  0  0  0  0  0  0  0  0  0  0  # atno 17342 bound_to 10162
  140.7790  143.3849  151.1412 LP  0  0  0  0  0  0  0  0  0  0  0  0  # atno 17343 bound_to 10162
  157.5831  131.0946  150.9240 LP  0  0  0  0  0  0  0  0  0  0  0  0  # atno 17370 bound_to 10713
  156.9431  130.5392  149.5280 LP  0  0  0  0  0  0  0  0  0  0  0  0  # atno 17371 bound_to 10713
  140.2922  134.3227  155.7312 LP  0  0  0  0  0  0  0  0  0  0  0  0  # atno 17394 bound_to 11000
  141.2158  133.7541  156.9520 LP  0  0  0  0  0  0  0  0  0  0  0  0  # atno 17395 bound_to 11000

$$$$
