AV-unprocessed.smi:1350|AV-procd|sdf|5523|dock4
  -GOLD-   22720 5113D 1   1.00000     0.00000
 Structure written by MMmdl.
 44 46  0  0  0  0  0  0  0  0  2 V2000
  147.9962  132.6140  158.3357 C   0  0  0  0  0  0  0  0  0  0  0  0
  148.1185  134.0016  158.6127 O   0  0  0  0  0  0  0  0  0  0  0  0
  147.8009  134.4499  159.8792 C   0  0  0  0  0  0  0  0  0  0  0  0
  147.3630  133.5925  160.9218 C   0  0  0  0  0  0  0  0  0  0  0  0
  147.0652  134.1072  162.1973 C   0  0  0  0  0  0  0  0  0  0  0  0
  147.2045  135.4821  162.4521 C   0  0  0  0  0  0  0  0  0  0  0  0
  147.6353  136.3429  161.4272 C   0  0  0  0  0  0  0  0  0  0  0  0
  147.9239  135.8374  160.1404 C   0  0  0  0  0  0  0  0  0  0  0  0
  148.4044  136.7888  159.0541 C   0  0  0  0  0  0  0  0  0  0  0  0
  149.6410  137.4033  159.3834 O   0  0  0  0  0  0  0  0  0  0  0  0
  149.9395  138.5219  158.5646 C   0  0  0  0  0  0  0  0  0  0  0  0
  151.3763  138.9851  158.8540 C   0  0  1  0  0  0  0  0  0  0  0  0
  152.1752  137.8466  159.1106 O   0  0  0  0  0  0  0  0  0  0  0  0
  151.9767  139.7709  157.6717 C   0  0  0  0  0  0  0  0  0  0  0  0
  151.4278  141.1300  157.5557 N   0  0  0  0  0  0  0  0  0  0  0  0
  150.5788  141.6419  156.6236 C   0  0  0  0  0  0  0  0  0  0  0  0
  150.3603  142.9485  156.9380 N   0  3  0  0  0  0  0  0  0  0  0  0
  151.0783  143.2772  158.0895 C   0  0  0  0  0  0  0  0  0  0  0  0
  151.1741  144.4753  158.7904 C   0  0  0  0  0  0  0  0  0  0  0  0
  151.9962  144.4742  159.9362 C   0  0  0  0  0  0  0  0  0  0  0  0
  152.6828  143.3130  160.3461 C   0  0  0  0  0  0  0  0  0  0  0  0
  152.5792  142.1038  159.6272 C   0  0  0  0  0  0  0  0  0  0  0  0
  151.7660  142.1129  158.4939 C   0  0  0  0  0  0  0  0  0  0  0  0
  148.2690  132.4300  157.2968 H   0  0  0  0  0  0  0  0  0  0  0  0
  146.9704  132.2691  158.4718 H   0  0  0  0  0  0  0  0  0  0  0  0
  148.6645  132.0215  158.9618 H   0  0  0  0  0  0  0  0  0  0  0  0
  147.2494  132.5301  160.7704 H   0  0  0  0  0  0  0  0  0  0  0  0
  146.7334  133.4441  162.9826 H   0  0  0  0  0  0  0  0  0  0  0  0
  146.9826  135.8770  163.4326 H   0  0  0  0  0  0  0  0  0  0  0  0
  147.7435  137.3970  161.6369 H   0  0  0  0  0  0  0  0  0  0  0  0
  148.5033  136.2248  158.1257 H   0  0  0  0  0  0  0  0  0  0  0  0
  147.6605  137.5683  158.8855 H   0  0  0  0  0  0  0  0  0  0  0  0
  149.8028  138.2899  157.5070 H   0  0  0  0  0  0  0  0  0  0  0  0
  149.2407  139.3227  158.8120 H   0  0  0  0  0  0  0  0  0  0  0  0
  151.3816  139.6247  159.7376 H   0  0  0  0  0  0  0  0  0  0  0  0
  152.9747  138.1283  159.5277 H   0  0  0  0  0  0  0  0  0  0  0  0
  153.0639  139.8192  157.7355 H   0  0  0  0  0  0  0  0  0  0  0  0
  151.7494  139.2593  156.7356 H   0  0  0  0  0  0  0  0  0  0  0  0
  150.1544  141.1073  155.7859 H   0  0  0  0  0  0  0  0  0  0  0  0
  150.6477  145.3658  158.4793 H   0  0  0  0  0  0  0  0  0  0  0  0
  152.1009  145.3817  160.5131 H   0  0  0  0  0  0  0  0  0  0  0  0
  153.3014  143.3499  161.2311 H   0  0  0  0  0  0  0  0  0  0  0  0
  153.1073  141.2209  159.9545 H   0  0  0  0  0  0  0  0  0  0  0  0
  149.7629  143.5673  156.4046 H   0  0  0  0  0  0  0  0  0  0  0  0
  1  2  1  0  0  0  0
  1 24  1  0  0  0  0
  1 25  1  0  0  0  0
  1 26  1  0  0  0  0
  2  3  1  0  0  0  0
  3  8  1  0  0  0  0
  3  4  2  0  0  0  0
  4  5  1  0  0  0  0
  4 27  1  0  0  0  0
  5  6  2  0  0  0  0
  5 28  1  0  0  0  0
  6  7  1  0  0  0  0
  6 29  1  0  0  0  0
  7  8  2  0  0  0  0
  7 30  1  0  0  0  0
  8  9  1  0  0  0  0
  9 10  1  0  0  0  0
  9 31  1  0  0  0  0
  9 32  1  0  0  0  0
 10 11  1  0  0  0  0
 11 12  1  0  0  0  0
 11 33  1  0  0  0  0
 11 34  1  0  0  0  0
 12 13  1  0  0  0  0
 12 14  1  0  0  0  0
 12 35  1  0  0  0  0
 13 36  1  0  0  0  0
 14 15  1  0  0  0  0
 14 37  1  0  0  0  0
 14 38  1  0  0  0  0
 15 23  1  0  0  0  0
 15 16  1  0  0  0  0
 16 17  2  0  0  0  0
 16 39  1  0  0  0  0
 17 18  1  0  0  0  0
 17 44  1  0  0  0  0
 18 23  2  0  0  0  0
 18 19  1  0  0  0  0
 19 20  2  0  0  0  0
 19 40  1  0  0  0  0
 20 21  1  0  0  0  0
 20 41  1  0  0  0  0
 21 22  2  0  0  0  0
 21 42  1  0  0  0  0
 22 23  1  0  0  0  0
 22 43  1  0  0  0  0
M  CHG  1  17   1
M  END
> <s_m_source_file>
AV-unprocessed.smi

> <i_m_source_file_index>
1350

> <i_lp_mmshare_version>
43012

> <i_f3d_flags>
0

> <s_epik_input>
W0NIM11PYzFbY0hdW2NIXVtjSF1bY0hdYzFbQ0gyXU9bQ0gyXVtDQEhdKFtPSF0pW0NIMl1uKFtjSF1uMiljKGMyMylbY0hdW2NIXVtjSF1bY0hdMw==

> <s_epik_cmdline>
J2VwaWtfcHl0aG9uJywgJy1waCcsICc3LjAnLCAnLXRuJywgJzgnLCAnLW1hJywgJzIwMCcsICctbWV0YWxfYmluZGluZycsICctaW1hZScsICc8aW5maWxlLm1hZT4nLCAnLW9tYWUnLCAnPG91dGZpbGUubWFlPic=

> <r_lp_tautomer_probability>
1

> <r_epik_Ionization_Penalty>
1.28975

> <r_epik_Ionization_Penalty_Charging>
1.28975

> <r_epik_Ionization_Penalty_Neutral>
1.07667e-06

> <r_epik_State_Penalty>
1.36276

> <r_epik_Charging_Adjusted_Penalty>
2.65251

> <i_epik_Tot_Q>
1

> <i_epik_Tot_abs_Q>
1

> <r_epik_Metal_State_Penalty>
5.39298

> <b_epik_Metal_Only>
0

> <s_lp_Force_Field>
OPLS_2005

> <r_lp_Energy>
25.8807

> <b_lp_Chiralities_Consistent>
1

> <s_lp_Variant>
AV-unprocessed.smi:1350-4

> <Gold.Version>
5.8.1

> <Gold.Id.Protein>
6NUR|6NUR_protein|mol2

> <Gold.PLP.Fitness>
57.6297

> <Gold.PLP.PLP>
-52.6719

> <Gold.PLP.part.hbond>
-2.4136

> <Gold.PLP.part.metal>
0.0000

> <Gold.PLP.part.buried>
-5.9292

> <Gold.PLP.part.nonpolar>
-44.4416

> <Gold.PLP.part.repulsive>
0.0587

> <Gold.PLP.ligand.clash>
0.0000

> <Gold.PLP.ligand.torsion>
0.5544

> <Gold.PLP.Chemscore.Hbond>
2.0000

> <Gold.PLP.Chemscore.CHOScore>
0.0000

> <Gold.PLP.Chemscore.Metal>
0.0000

> <Gold.Chemscore.Hbonds>
donor molecule, donor type, donor heavy atom, donor atom, acceptor molecule, acceptor atom, score
      L1  H    17    44       P1  8028  2.00

> <Gold.PLP.Chemscore.Internal.Correction>
0.0667

> <Gold.Rescore>
     Score         DG    S(hbond)    S(metal)    S(lipo)     H(rot)  DE(clash)    DE(int)     intcor
     16.78     -17.77       1.00        0.00     136.43       2.74       0.51       0.48       ----

> <Gold.Chemscore.Fitness>
16.7825

> <Gold.Chemscore.DG>
-17.7683

> <Gold.Chemscore.ZeroCoef>
-5.4800

> <Gold.Chemscore.Hbond>
0.9993

> <Gold.Chemscore.Metal>
0.0000

> <Gold.Chemscore.Lipo>
136.4299

> <Gold.Chemscore.Internal_Hbond>
0.0000

> <Gold.Chemscore.DEClash>
0.5052

> <Gold.Chemscore.DEInternal>
0.4805

> <Gold.Chemscore.Rot>
2.7390

> <Gold.Chemscore.Internal.Correction>
   9.000000E+99

> <Gold.Chemscore.Hbonds>
donor molecule, donor type, donor heavy atom, donor atom, acceptor molecule, acceptor atom, score
      L1  H    17    44       P1  8028  0.99

> <Gold.Chemscore.Hbond.Weighted>
-3.3378

> <Gold.Chemscore.Metal.Weighted>
-0.0000

> <Gold.Chemscore.Lipo.Weighted>
-15.9623

> <Gold.Chemscore.Internal_Hbond.Weighted>
0.0000

> <Gold.Chemscore.DEClash.Weighted>
0.5052

> <Gold.Chemscore.DEInternal.Weighted>
0.4805

> <Gold.Chemscore.Rot.Weighted>
7.0118

> <Gold.Chemscore.Internal.Correction.Weighted>
   9.000000E+99

> <Gold.Protein.RotatedTorsions>
[ 6907 6896 6895 6894 ] final   75.39 input  -60.11 | X-H torsion
[ 7974 7965 7964 7962 ] final  -21.15 input  175.53 | X-H torsion
[ 8008 7997 7996 7995 ] final   83.70 input   59.86 | X-H torsion
[ 10167 10162 10161 10158 ] final  172.92 input  -65.29 | X-H torsion
[ 10718 10713 10712 10709 ] final   -1.23 input   66.30 | X-H torsion
[ 10763 10752 10751 10750 ] final   16.68 input  -60.55 | X-H torsion
[ 11005 11000 10999 10996 ] final   84.34 input  -57.11 | X-H torsion

> <Gold.Protein.ActiveResidues>
 VAL166  LYS551  ARG553  GLY616  TRP617  ASP618  TYR619  PRO620  LYS621  CYS622 
 ASP623  PHE694  ASN695  SER759  ASP760  ASP761  ALA762  ILE779  LEU786  VAL792 
 PHE793  MET794  SER795  GLU796  ALA797  LYS798  CYS799  TRP800  GLU811  SER814 

> <Gold.Protein.RotatedAtoms>
  152.5023  134.4127  159.9453 H   0  0  0  0  0  0  0  0  0  0  0  0  # atno 6907 bound_to 6896
  151.4096  133.3725  159.2750 H   0  0  0  0  0  0  0  0  0  0  0  0  # atno 6908 bound_to 6896
  150.9301  134.8738  159.7605 H   0  0  0  0  0  0  0  0  0  0  0  0  # atno 6909 bound_to 6896
  146.1749  140.4301  142.8517 H   0  0  0  0  0  0  0  0  0  0  0  0  # atno 7974 bound_to 7965
  155.9274  140.3417  155.6221 H   0  0  0  0  0  0  0  0  0  0  0  0  # atno 8008 bound_to 7997
  155.7200  140.0782  157.2353 H   0  0  0  0  0  0  0  0  0  0  0  0  # atno 8009 bound_to 7997
  154.4079  140.1607  156.2379 H   0  0  0  0  0  0  0  0  0  0  0  0  # atno 8010 bound_to 7997
  139.5091  144.3320  152.0102 H   0  0  0  0  0  0  0  0  0  0  0  0  # atno 10167 bound_to 10162
  156.8087  130.5417  149.5712 H   0  0  0  0  0  0  0  0  0  0  0  0  # atno 10718 bound_to 10713
  153.1408  135.6759  153.9030 H   0  0  0  0  0  0  0  0  0  0  0  0  # atno 10763 bound_to 10752
  153.8487  135.3096  155.3432 H   0  0  0  0  0  0  0  0  0  0  0  0  # atno 10764 bound_to 10752
  154.7786  135.4901  153.9880 H   0  0  0  0  0  0  0  0  0  0  0  0  # atno 10765 bound_to 10752
  139.9003  134.8209  156.2431 H   0  0  0  0  0  0  0  0  0  0  0  0  # atno 11005 bound_to 11000
  144.8220  140.6566  143.6347 LP  0  0  0  0  0  0  0  0  0  0  0  0  # atno 17320 bound_to 7965
  145.4240  139.1559  143.4059 LP  0  0  0  0  0  0  0  0  0  0  0  0  # atno 17321 bound_to 7965
  140.2759  144.3913  150.6135 LP  0  0  0  0  0  0  0  0  0  0  0  0  # atno 17342 bound_to 10162
  140.6054  143.2167  151.6991 LP  0  0  0  0  0  0  0  0  0  0  0  0  # atno 17343 bound_to 10162
  156.1057  130.6003  150.9967 LP  0  0  0  0  0  0  0  0  0  0  0  0  # atno 17370 bound_to 10713
  157.6517  131.0896  150.8036 LP  0  0  0  0  0  0  0  0  0  0  0  0  # atno 17371 bound_to 10713
  141.0272  133.7008  156.1368 LP  0  0  0  0  0  0  0  0  0  0  0  0  # atno 17394 bound_to 11000
  140.7149  134.4421  157.5579 LP  0  0  0  0  0  0  0  0  0  0  0  0  # atno 17395 bound_to 11000

$$$$
