AV-unprocessed.smi:1613|AV-procd|sdf|6479|dock8
  -GOLD-   22720 7143D 1   1.00000     0.00000
 Structure written by MMmdl.
 53 55  0  0  0  0  0  0  0  0  2 V2000
  152.3248  140.0086  156.3329 O   0  0  0  0  0  0  0  0  0  0  0  0
  151.1515  140.1759  156.6618 C   0  0  0  0  0  0  0  0  0  0  0  0
  150.8269  140.7800  158.0397 C   0  0  0  0  0  0  0  0  0  0  0  0
  151.4137  142.1136  158.2757 N   0  0  0  0  0  0  0  0  0  0  0  0
  151.0204  143.1561  157.4193 C   0  0  0  0  0  0  0  0  0  0  0  0
  151.5312  144.3884  157.5556 C   0  0  0  0  0  0  0  0  0  0  0  0
  152.5088  144.5747  158.6357 C   0  0  0  0  0  0  0  0  0  0  0  0
  152.8683  143.6272  159.4182 N   0  0  0  0  0  0  0  0  0  0  0  0
  152.3290  142.3352  159.2760 C   0  0  0  0  0  0  0  0  0  0  0  0
  152.6778  141.4183  160.0197 O   0  0  0  0  0  0  0  0  0  0  0  0
  150.1181  139.8792  155.8577 N   0  0  0  0  0  0  0  0  0  0  0  0
  150.1915  139.4191  154.4745 C   0  0  2  0  0  0  0  0  0  0  0  0
  148.7884  139.1213  153.9086 C   0  0  0  0  0  0  0  0  0  0  0  0
  148.1223  137.9419  154.6402 C   0  0  0  0  0  0  0  0  0  0  0  0
  148.9785  136.7286  154.5939 N   0  3  2  0  0  0  0  0  0  0  0  0
  148.3314  135.5001  155.1281 C   0  0  0  0  0  0  0  0  0  0  0  0
  149.0604  134.1710  154.7907 C   0  0  0  0  0  0  0  0  0  0  0  0
  148.1428  133.2265  153.9865 C   0  0  0  0  0  0  0  0  0  0  0  0
  148.8483  131.9067  153.6352 C   0  0  0  0  0  0  0  0  0  0  0  0
  149.3590  131.1962  154.8969 C   0  0  0  0  0  0  0  0  0  0  0  0
  150.2691  132.1193  155.7197 C   0  0  0  0  0  0  0  0  0  0  0  0
  149.5624  133.4420  156.0588 C   0  0  0  0  0  0  0  0  0  0  0  0
  150.3479  136.9610  155.1265 C   0  0  0  0  0  0  0  0  0  0  0  0
  151.0366  138.1353  154.4037 C   0  0  0  0  0  0  0  0  0  0  0  0
  149.7416  140.8188  158.1435 H   0  0  0  0  0  0  0  0  0  0  0  0
  151.1614  140.0850  158.8121 H   0  0  0  0  0  0  0  0  0  0  0  0
  150.2984  142.8909  156.6607 H   0  0  0  0  0  0  0  0  0  0  0  0
  151.2745  145.2319  156.9321 H   0  0  0  0  0  0  0  0  0  0  0  0
  152.9155  145.5848  158.7300 H   0  0  0  0  0  0  0  0  0  0  0  0
  149.1928  140.0386  156.2293 H   0  0  0  0  0  0  0  0  0  0  0  0
  150.6712  140.1941  153.8743 H   0  0  0  0  0  0  0  0  0  0  0  0
  148.1523  140.0049  153.9719 H   0  0  0  0  0  0  0  0  0  0  0  0
  148.8706  138.8861  152.8467 H   0  0  0  0  0  0  0  0  0  0  0  0
  147.9233  138.2201  155.6750 H   0  0  0  0  0  0  0  0  0  0  0  0
  147.1591  137.7244  154.1778 H   0  0  0  0  0  0  0  0  0  0  0  0
  148.2191  135.6040  156.2080 H   0  0  0  0  0  0  0  0  0  0  0  0
  147.3120  135.4790  154.7402 H   0  0  0  0  0  0  0  0  0  0  0  0
  149.9237  134.3771  154.1595 H   0  0  0  0  0  0  0  0  0  0  0  0
  147.2380  133.0148  154.5578 H   0  0  0  0  0  0  0  0  0  0  0  0
  147.8198  133.7153  153.0666 H   0  0  0  0  0  0  0  0  0  0  0  0
  148.1650  131.2529  153.0923 H   0  0  0  0  0  0  0  0  0  0  0  0
  149.6838  132.1053  152.9632 H   0  0  0  0  0  0  0  0  0  0  0  0
  148.5119  130.8796  155.5067 H   0  0  0  0  0  0  0  0  0  0  0  0
  149.8983  130.2895  154.6217 H   0  0  0  0  0  0  0  0  0  0  0  0
  150.5745  131.6160  156.6375 H   0  0  0  0  0  0  0  0  0  0  0  0
  151.1836  132.3224  155.1628 H   0  0  0  0  0  0  0  0  0  0  0  0
  150.2468  134.0733  156.6236 H   0  0  0  0  0  0  0  0  0  0  0  0
  148.7214  133.2368  156.7226 H   0  0  0  0  0  0  0  0  0  0  0  0
  150.3115  137.1570  156.1982 H   0  0  0  0  0  0  0  0  0  0  0  0
  150.9468  136.0590  154.9960 H   0  0  0  0  0  0  0  0  0  0  0  0
  151.2021  137.8689  153.3590 H   0  0  0  0  0  0  0  0  0  0  0  0
  152.0245  138.3091  154.8322 H   0  0  0  0  0  0  0  0  0  0  0  0
  149.1122  136.5404  153.6105 H   0  0  0  0  0  0  0  0  0  0  0  0
  1  2  2  0  0  0  0
  2  3  1  0  0  0  0
  2 11  1  0  0  0  0
  3  4  1  0  0  0  0
  3 25  1  0  0  0  0
  3 26  1  0  0  0  0
  4  9  1  0  0  0  0
  4  5  1  0  0  0  0
  5  6  2  0  0  0  0
  5 27  1  0  0  0  0
  6  7  1  0  0  0  0
  6 28  1  0  0  0  0
  7  8  2  0  0  0  0
  7 29  1  0  0  0  0
  8  9  1  0  0  0  0
  9 10  2  0  0  0  0
 11 12  1  0  0  0  0
 11 30  1  0  0  0  0
 12 24  1  0  0  0  0
 12 13  1  0  0  0  0
 12 31  1  0  0  0  0
 13 14  1  0  0  0  0
 13 32  1  0  0  0  0
 13 33  1  0  0  0  0
 14 15  1  0  0  0  0
 14 34  1  0  0  0  0
 14 35  1  0  0  0  0
 15 16  1  0  0  0  0
 15 23  1  0  0  0  0
 15 53  1  0  0  0  0
 16 17  1  0  0  0  0
 16 36  1  0  0  0  0
 16 37  1  0  0  0  0
 17 22  1  0  0  0  0
 17 18  1  0  0  0  0
 17 38  1  0  0  0  0
 18 19  1  0  0  0  0
 18 39  1  0  0  0  0
 18 40  1  0  0  0  0
 19 20  1  0  0  0  0
 19 41  1  0  0  0  0
 19 42  1  0  0  0  0
 20 21  1  0  0  0  0
 20 43  1  0  0  0  0
 20 44  1  0  0  0  0
 21 22  1  0  0  0  0
 21 45  1  0  0  0  0
 21 46  1  0  0  0  0
 22 47  1  0  0  0  0
 22 48  1  0  0  0  0
 23 24  1  0  0  0  0
 23 49  1  0  0  0  0
 23 50  1  0  0  0  0
 24 51  1  0  0  0  0
 24 52  1  0  0  0  0
M  CHG  1  15   1
M  END
> <s_m_source_file>
AV-unprocessed.smi

> <i_m_source_file_index>
1613

> <i_lp_mmshare_version>
43012

> <i_f3d_flags>
0

> <s_epik_input>
Tz1jMW5bY0hdW2NIXVtjSF1uMVtDSDJdQyg9TylbTkhdW0NIXTJbQ0gyXVtDSDJdTihbQ0gyXVtDSDJdMilbQ0gyXVtDSF0zW0NIMl1bQ0gyXVtDSDJdW0NIMl1bQ0gyXTM=

> <s_epik_cmdline>
J2VwaWtfcHl0aG9uJywgJy1waCcsICc3LjAnLCAnLXRuJywgJzgnLCAnLW1hJywgJzIwMCcsICctbWV0YWxfYmluZGluZycsICctaW1hZScsICc8aW5maWxlLm1hZT4nLCAnLW9tYWUnLCAnPG91dGZpbGUubWFlPic=

> <r_lp_tautomer_probability>
1

> <r_epik_Ionization_Penalty>
0.00530026

> <r_epik_Ionization_Penalty_Charging>
0.00529416

> <r_epik_Ionization_Penalty_Neutral>
6.10215e-06

> <r_epik_State_Penalty>
0.00386377

> <r_epik_Charging_Adjusted_Penalty>
0.00915793

> <i_epik_Tot_Q>
1

> <i_epik_Tot_abs_Q>
1

> <r_epik_Metal_State_Penalty>
-0

> <b_epik_Metal_Only>
0

> <s_lp_Force_Field>
OPLS_2005

> <r_lp_Energy>
26.8521

> <b_lp_Chiralities_Consistent>
1

> <s_lp_Variant>
AV-unprocessed.smi:1613-2

> <Gold.Version>
5.8.1

> <Gold.Id.Protein>
6NUR|6NUR_protein|mol2

> <Gold.PLP.Fitness>
56.4988

> <Gold.PLP.PLP>
-47.7033

> <Gold.PLP.part.hbond>
-2.0000

> <Gold.PLP.part.metal>
0.0000

> <Gold.PLP.part.buried>
-4.8977

> <Gold.PLP.part.nonpolar>
-41.0873

> <Gold.PLP.part.repulsive>
0.0584

> <Gold.PLP.ligand.clash>
0.0000

> <Gold.PLP.ligand.torsion>
0.8103

> <Gold.PLP.Chemscore.Hbond>
3.0000

> <Gold.PLP.Chemscore.CHOScore>
0.4506

> <Gold.PLP.Chemscore.Metal>
0.0000

> <Gold.Chemscore.Hbonds>
donor molecule, donor type, donor heavy atom, donor atom, acceptor molecule, acceptor atom, score
      L1  H    15    53       P1  7948  2.00
      P1  H  7997  8010       L1     1  1.00
      L1  C     5    27       P1  8028  0.76

> <Gold.PLP.Chemscore.Internal.Correction>
0.0644

> <Gold.Rescore>
     Score         DG    S(hbond)    S(metal)    S(lipo)     H(rot)  DE(clash)    DE(int)     intcor
     18.37     -20.04       1.98        0.00     108.25       1.84       0.10       1.57       ----

> <Gold.Chemscore.Fitness>
18.3677

> <Gold.Chemscore.DG>
-20.0432

> <Gold.Chemscore.ZeroCoef>
-5.4800

> <Gold.Chemscore.Hbond>
1.9798

> <Gold.Chemscore.Metal>
0.0000

> <Gold.Chemscore.Lipo>
108.2511

> <Gold.Chemscore.Internal_Hbond>
0.0000

> <Gold.Chemscore.DEClash>
0.1019

> <Gold.Chemscore.DEInternal>
1.5737

> <Gold.Chemscore.Rot>
1.8417

> <Gold.Chemscore.Internal.Correction>
   9.000000E+99

> <Gold.Chemscore.Hbonds>
donor molecule, donor type, donor heavy atom, donor atom, acceptor molecule, acceptor atom, score
      L1  H    15    53       P1  7948  0.99
      P1  H  7997  8010       L1     1  0.92

> <Gold.Chemscore.Hbond.Weighted>
-6.6125

> <Gold.Chemscore.Metal.Weighted>
-0.0000

> <Gold.Chemscore.Lipo.Weighted>
-12.6654

> <Gold.Chemscore.Internal_Hbond.Weighted>
0.0000

> <Gold.Chemscore.DEClash.Weighted>
0.1019

> <Gold.Chemscore.DEInternal.Weighted>
1.5737

> <Gold.Chemscore.Rot.Weighted>
4.7147

> <Gold.Chemscore.Internal.Correction.Weighted>
   9.000000E+99

> <Gold.Protein.RotatedTorsions>
[ 6907 6896 6895 6894 ] final -124.79 input  -60.11 | X-H torsion
[ 7974 7965 7964 7962 ] final  -33.01 input  175.53 | X-H torsion
[ 8008 7997 7996 7995 ] final   67.53 input   59.86 | X-H torsion
[ 10167 10162 10161 10158 ] final   75.42 input  -65.29 | X-H torsion
[ 10718 10713 10712 10709 ] final  169.23 input   66.30 | X-H torsion
[ 10763 10752 10751 10750 ] final -170.94 input  -60.55 | X-H torsion
[ 11005 11000 10999 10996 ] final   35.09 input  -57.11 | X-H torsion

> <Gold.Protein.ActiveResidues>
 VAL166  LYS551  ARG553  GLY616  TRP617  ASP618  TYR619  PRO620  LYS621  CYS622 
 ASP623  PHE694  ASN695  SER759  ASP760  ASP761  ALA762  ILE779  LEU786  VAL792 
 PHE793  MET794  SER795  GLU796  ALA797  LYS798  CYS799  TRP800  GLU811  SER814 

> <Gold.Protein.RotatedAtoms>
  150.8803  133.7382  159.2934 H   0  0  0  0  0  0  0  0  0  0  0  0  # atno 6907 bound_to 6896
  151.4965  135.1058  159.9827 H   0  0  0  0  0  0  0  0  0  0  0  0  # atno 6908 bound_to 6896
  152.4755  133.8082  159.7045 H   0  0  0  0  0  0  0  0  0  0  0  0  # atno 6909 bound_to 6896
  146.0945  140.5863  142.8849 H   0  0  0  0  0  0  0  0  0  0  0  0  # atno 7974 bound_to 7965
  155.6942  140.3496  155.4906 H   0  0  0  0  0  0  0  0  0  0  0  0  # atno 8008 bound_to 7997
  155.9497  140.1117  157.1009 H   0  0  0  0  0  0  0  0  0  0  0  0  # atno 8009 bound_to 7997
  154.4119  140.1196  156.5022 H   0  0  0  0  0  0  0  0  0  0  0  0  # atno 8010 bound_to 7997
  140.0031  144.5671  150.7720 H   0  0  0  0  0  0  0  0  0  0  0  0  # atno 10167 bound_to 10162
  157.0257  131.0245  151.2760 H   0  0  0  0  0  0  0  0  0  0  0  0  # atno 10718 bound_to 10713
  154.6360  135.2892  155.0160 H   0  0  0  0  0  0  0  0  0  0  0  0  # atno 10763 bound_to 10752
  154.1304  135.6534  153.4925 H   0  0  0  0  0  0  0  0  0  0  0  0  # atno 10764 bound_to 10752
  153.0302  135.5309  154.7207 H   0  0  0  0  0  0  0  0  0  0  0  0  # atno 10765 bound_to 10752
  140.2462  134.3356  155.7907 H   0  0  0  0  0  0  0  0  0  0  0  0  # atno 11005 bound_to 11000
  144.7384  140.4875  143.6886 LP  0  0  0  0  0  0  0  0  0  0  0  0  # atno 17320 bound_to 7965
  145.5976  139.1501  143.3147 LP  0  0  0  0  0  0  0  0  0  0  0  0  # atno 17321 bound_to 7965
  140.7411  143.2813  151.3590 LP  0  0  0  0  0  0  0  0  0  0  0  0  # atno 17342 bound_to 10162
  139.6257  144.0818  152.2432 LP  0  0  0  0  0  0  0  0  0  0  0  0  # atno 17343 bound_to 10162
  157.5216  130.8001  149.7815 LP  0  0  0  0  0  0  0  0  0  0  0  0  # atno 17370 bound_to 10713
  156.0087  130.3843  150.2341 LP  0  0  0  0  0  0  0  0  0  0  0  0  # atno 17371 bound_to 10713
  141.2206  133.7327  156.8965 LP  0  0  0  0  0  0  0  0  0  0  0  0  # atno 17394 bound_to 11000
  140.1603  134.9170  157.2706 LP  0  0  0  0  0  0  0  0  0  0  0  0  # atno 17395 bound_to 11000

$$$$
