AV-unprocessed.smi:861|AV-procd|sdf|3967|dock8
  -GOLD-   22720 1443D 1   1.00000     0.00000
 Structure written by MMmdl.
 44 45  0  0  0  0  0  0  0  0  2 V2000
  146.1201  132.3437  149.9333 C   0  0  0  0  0  0  0  0  0  0  0  0
  145.9186  133.1244  151.2409 C   0  0  0  0  0  0  0  0  0  0  0  0
  145.2725  134.4904  150.9538 C   0  0  0  0  0  0  0  0  0  0  0  0
  147.2494  133.2532  152.0105 C   0  0  0  0  0  0  0  0  0  0  0  0
  147.0841  133.7454  153.4613 C   0  0  0  0  0  0  0  0  0  0  0  0
  148.2833  134.4754  153.9527 N   0  3  2  0  0  0  0  0  0  0  0  0
  149.4609  133.6001  154.1691 C   0  0  0  0  0  0  0  0  0  0  0  0
  149.3320  132.8119  155.4847 C   0  0  0  0  0  0  0  0  0  0  0  0
  149.1575  133.7211  156.5640 O   0  0  0  0  0  0  0  0  0  0  0  0
  147.9667  134.4938  156.4428 C   0  0  1  0  0  0  0  0  0  0  0  0
  147.8517  135.3902  157.6833 C   0  0  0  0  0  0  0  0  0  0  0  0
  147.9065  134.6153  158.9152 N   0  0  0  0  0  0  0  0  0  0  0  0
  147.6299  135.2177  160.1497 C   0  0  0  0  0  0  0  0  0  0  0  0
  147.3514  134.3987  161.2620 C   0  0  0  0  0  0  0  0  0  0  0  0
  147.0763  135.0327  162.4861 C   0  0  0  0  0  0  0  0  0  0  0  0
  147.1010  136.4392  162.5044 C   0  0  0  0  0  0  0  0  0  0  0  0
  147.3744  137.1767  161.4046 N   0  0  0  0  0  0  0  0  0  0  0  0
  147.6351  136.5716  160.2404 N   0  0  0  0  0  0  0  0  0  0  0  0
  148.0500  135.3297  155.1462 C   0  0  0  0  0  0  0  0  0  0  0  0
  146.8076  132.8616  149.2639 H   0  0  0  0  0  0  0  0  0  0  0  0
  145.1759  132.2127  149.4036 H   0  0  0  0  0  0  0  0  0  0  0  0
  146.5267  131.3505  150.1252 H   0  0  0  0  0  0  0  0  0  0  0  0
  145.2248  132.5485  151.8548 H   0  0  0  0  0  0  0  0  0  0  0  0
  145.9376  135.1290  150.3717 H   0  0  0  0  0  0  0  0  0  0  0  0
  145.0193  135.0197  151.8718 H   0  0  0  0  0  0  0  0  0  0  0  0
  144.3479  134.3742  150.3875 H   0  0  0  0  0  0  0  0  0  0  0  0
  147.7371  132.2778  152.0347 H   0  0  0  0  0  0  0  0  0  0  0  0
  147.9173  133.9108  151.4545 H   0  0  0  0  0  0  0  0  0  0  0  0
  146.1941  134.3640  153.5666 H   0  0  0  0  0  0  0  0  0  0  0  0
  146.9232  132.8712  154.0934 H   0  0  0  0  0  0  0  0  0  0  0  0
  149.6043  132.9260  153.3239 H   0  0  0  0  0  0  0  0  0  0  0  0
  150.3519  134.2280  154.2126 H   0  0  0  0  0  0  0  0  0  0  0  0
  148.5018  132.1050  155.4461 H   0  0  0  0  0  0  0  0  0  0  0  0
  150.2359  132.2288  155.6607 H   0  0  0  0  0  0  0  0  0  0  0  0
  147.0993  133.8329  156.4065 H   0  0  0  0  0  0  0  0  0  0  0  0
  148.6443  136.1397  157.6816 H   0  0  0  0  0  0  0  0  0  0  0  0
  146.9017  135.9259  157.6574 H   0  0  0  0  0  0  0  0  0  0  0  0
  148.2418  133.6633  158.8837 H   0  0  0  0  0  0  0  0  0  0  0  0
  147.3477  133.3213  161.1832 H   0  0  0  0  0  0  0  0  0  0  0  0
  146.8548  134.4639  163.3768 H   0  0  0  0  0  0  0  0  0  0  0  0
  146.8982  136.9829  163.4151 H   0  0  0  0  0  0  0  0  0  0  0  0
  148.8823  136.0307  155.2234 H   0  0  0  0  0  0  0  0  0  0  0  0
  147.1559  135.9394  155.0232 H   0  0  0  0  0  0  0  0  0  0  0  0
  148.5384  135.0975  153.1987 H   0  0  0  0  0  0  0  0  0  0  0  0
  1  2  1  0  0  0  0
  1 20  1  0  0  0  0
  1 21  1  0  0  0  0
  1 22  1  0  0  0  0
  2  3  1  0  0  0  0
  2  4  1  0  0  0  0
  2 23  1  0  0  0  0
  3 24  1  0  0  0  0
  3 25  1  0  0  0  0
  3 26  1  0  0  0  0
  4  5  1  0  0  0  0
  4 27  1  0  0  0  0
  4 28  1  0  0  0  0
  5  6  1  0  0  0  0
  5 29  1  0  0  0  0
  5 30  1  0  0  0  0
  6 19  1  0  0  0  0
  6  7  1  0  0  0  0
  6 44  1  0  0  0  0
  7  8  1  0  0  0  0
  7 31  1  0  0  0  0
  7 32  1  0  0  0  0
  8  9  1  0  0  0  0
  8 33  1  0  0  0  0
  8 34  1  0  0  0  0
  9 10  1  0  0  0  0
 10 11  1  0  0  0  0
 10 19  1  0  0  0  0
 10 35  1  0  0  0  0
 11 12  1  0  0  0  0
 11 36  1  0  0  0  0
 11 37  1  0  0  0  0
 12 13  1  0  0  0  0
 12 38  1  0  0  0  0
 13 18  1  0  0  0  0
 13 14  2  0  0  0  0
 14 15  1  0  0  0  0
 14 39  1  0  0  0  0
 15 16  2  0  0  0  0
 15 40  1  0  0  0  0
 16 17  1  0  0  0  0
 16 41  1  0  0  0  0
 17 18  2  0  0  0  0
 19 42  1  0  0  0  0
 19 43  1  0  0  0  0
M  CHG  1   6   1
M  END
> <s_m_source_file>
AV-unprocessed.smi

> <i_m_source_file_index>
861

> <i_lp_mmshare_version>
43012

> <i_f3d_flags>
0

> <s_epik_input>
W0NIM11bQ0hdKFtDSDNdKVtDSDJdW0NIMl1OMVtDSDJdW0NIMl1PW0NASF0oW0NIMl0xKVtDSDJdW05IXWMyW2NIXVtjSF1bY0hdbm4y

> <s_epik_cmdline>
J2VwaWtfcHl0aG9uJywgJy1waCcsICc3LjAnLCAnLXRuJywgJzgnLCAnLW1hJywgJzIwMCcsICctbWV0YWxfYmluZGluZycsICctaW1hZScsICc8aW5maWxlLm1hZT4nLCAnLW9tYWUnLCAnPG91dGZpbGUubWFlPic=

> <r_lp_tautomer_probability>
0.999978

> <r_epik_Ionization_Penalty>
0.114704

> <r_epik_Ionization_Penalty_Charging>
0.0953451

> <r_epik_Ionization_Penalty_Neutral>
0.0193593

> <r_epik_State_Penalty>
0.104983

> <r_epik_Charging_Adjusted_Penalty>
0.200328

> <i_epik_Tot_Q>
1

> <i_epik_Tot_abs_Q>
1

> <r_epik_Metal_State_Penalty>
0.100113

> <b_epik_Metal_Only>
0

> <s_lp_Force_Field>
OPLS_2005

> <r_lp_Energy>
26.6721

> <b_lp_Chiralities_Consistent>
1

> <s_lp_Variant>
AV-unprocessed.smi:861-2

> <Gold.Version>
5.8.1

> <Gold.Id.Protein>
6NUR|6NUR_protein|mol2

> <Gold.PLP.Fitness>
44.4858

> <Gold.PLP.PLP>
-33.8079

> <Gold.PLP.part.hbond>
-3.0000

> <Gold.PLP.part.metal>
0.0000

> <Gold.PLP.part.buried>
-4.8967

> <Gold.PLP.part.nonpolar>
-25.6773

> <Gold.PLP.part.repulsive>
0.0772

> <Gold.PLP.ligand.clash>
0.0000

> <Gold.PLP.ligand.torsion>
0.4431

> <Gold.PLP.Chemscore.Hbond>
3.8160

> <Gold.PLP.Chemscore.CHOScore>
0.0000

> <Gold.PLP.Chemscore.Metal>
0.0000

> <Gold.Chemscore.Hbonds>
donor molecule, donor type, donor heavy atom, donor atom, acceptor molecule, acceptor atom, score
      L1  H     6    44       P1  7948  2.00
      P1  H  6931  6943       L1    17  0.89
      P1  H  6934  6947       L1    17  0.94

> <Gold.PLP.Chemscore.Internal.Correction>
0.1160

> <Gold.Rescore>
     Score         DG    S(hbond)    S(metal)    S(lipo)     H(rot)  DE(clash)    DE(int)     intcor
     15.77     -16.11       1.87        0.00      75.07       1.71       0.00       0.34       ----

> <Gold.Chemscore.Fitness>
15.7724

> <Gold.Chemscore.DG>
-16.1113

> <Gold.Chemscore.ZeroCoef>
-5.4800

> <Gold.Chemscore.Hbond>
1.8660

> <Gold.Chemscore.Metal>
0.0000

> <Gold.Chemscore.Lipo>
75.0704

> <Gold.Chemscore.Internal_Hbond>
0.0000

> <Gold.Chemscore.DEClash>
0.0015

> <Gold.Chemscore.DEInternal>
0.3374

> <Gold.Chemscore.Rot>
1.7127

> <Gold.Chemscore.Internal.Correction>
   9.000000E+99

> <Gold.Chemscore.Hbonds>
donor molecule, donor type, donor heavy atom, donor atom, acceptor molecule, acceptor atom, score
      L1  H     6    44       P1  7948  0.78
      P1  H  6931  6943       L1    17  0.25
      P1  H  6934  6947       L1    17  0.41

> <Gold.Chemscore.Hbond.Weighted>
-6.2325

> <Gold.Chemscore.Metal.Weighted>
-0.0000

> <Gold.Chemscore.Lipo.Weighted>
-8.7832

> <Gold.Chemscore.Internal_Hbond.Weighted>
0.0000

> <Gold.Chemscore.DEClash.Weighted>
0.0015

> <Gold.Chemscore.DEInternal.Weighted>
0.3374

> <Gold.Chemscore.Rot.Weighted>
4.3844

> <Gold.Chemscore.Internal.Correction.Weighted>
   9.000000E+99

> <Gold.Protein.RotatedTorsions>
[ 6907 6896 6895 6894 ] final  159.07 input  -60.11 | X-H torsion
[ 7974 7965 7964 7962 ] final   38.09 input  175.53 | X-H torsion
[ 8008 7997 7996 7995 ] final  -71.47 input   59.86 | X-H torsion
[ 10167 10162 10161 10158 ] final   27.51 input  -65.29 | X-H torsion
[ 10718 10713 10712 10709 ] final -145.25 input   66.30 | X-H torsion
[ 10763 10752 10751 10750 ] final  154.36 input  -60.55 | X-H torsion
[ 11005 11000 10999 10996 ] final  -54.19 input  -57.11 | X-H torsion

> <Gold.Protein.ActiveResidues>
 VAL166  LYS551  ARG553  GLY616  TRP617  ASP618  TYR619  PRO620  LYS621  CYS622 
 ASP623  PHE694  ASN695  SER759  ASP760  ASP761  ALA762  ILE779  LEU786  VAL792 
 PHE793  MET794  SER795  GLU796  ALA797  LYS798  CYS799  TRP800  GLU811  SER814 

> <Gold.Protein.RotatedAtoms>
  151.9910  133.3791  159.4144 H   0  0  0  0  0  0  0  0  0  0  0  0  # atno 6907 bound_to 6896
  150.6922  134.3937  159.5097 H   0  0  0  0  0  0  0  0  0  0  0  0  # atno 6908 bound_to 6896
  152.1670  134.8865  160.0588 H   0  0  0  0  0  0  0  0  0  0  0  0  # atno 6909 bound_to 6896
  146.1088  139.5815  142.9365 H   0  0  0  0  0  0  0  0  0  0  0  0  # atno 7974 bound_to 7965
  154.5090  140.0815  156.7952 H   0  0  0  0  0  0  0  0  0  0  0  0  # atno 8008 bound_to 7997
  155.3828  140.3428  155.4229 H   0  0  0  0  0  0  0  0  0  0  0  0  # atno 8009 bound_to 7997
  156.1551  140.1570  156.8694 H   0  0  0  0  0  0  0  0  0  0  0  0  # atno 8010 bound_to 7997
  140.4932  144.0433  150.6305 H   0  0  0  0  0  0  0  0  0  0  0  0  # atno 10167 bound_to 10162
  156.3801  130.7832  151.2024 H   0  0  0  0  0  0  0  0  0  0  0  0  # atno 10718 bound_to 10713
  154.1511  135.2815  155.3135 H   0  0  0  0  0  0  0  0  0  0  0  0  # atno 10763 bound_to 10752
  154.6217  135.5465  153.7585 H   0  0  0  0  0  0  0  0  0  0  0  0  # atno 10764 bound_to 10752
  153.0221  135.6440  154.1655 H   0  0  0  0  0  0  0  0  0  0  0  0  # atno 10765 bound_to 10752
  141.1013  133.6618  156.4283 H   0  0  0  0  0  0  0  0  0  0  0  0  # atno 11005 bound_to 11000
  145.5705  141.0394  143.2176 LP  0  0  0  0  0  0  0  0  0  0  0  0  # atno 17320 bound_to 7965
  144.7494  139.7234  143.7279 LP  0  0  0  0  0  0  0  0  0  0  0  0  # atno 17321 bound_to 7965
  140.3708  143.2855  152.0280 LP  0  0  0  0  0  0  0  0  0  0  0  0  # atno 17342 bound_to 10162
  139.4855  144.6231  151.7217 LP  0  0  0  0  0  0  0  0  0  0  0  0  # atno 17343 bound_to 10162
  157.7491  131.0346  150.4327 LP  0  0  0  0  0  0  0  0  0  0  0  0  # atno 17370 bound_to 10713
  156.4569  130.4023  149.6600 LP  0  0  0  0  0  0  0  0  0  0  0  0  # atno 17371 bound_to 10713
  140.5014  134.6482  157.5250 LP  0  0  0  0  0  0  0  0  0  0  0  0  # atno 17394 bound_to 11000
  139.9866  134.7052  155.9763 LP  0  0  0  0  0  0  0  0  0  0  0  0  # atno 17395 bound_to 11000

$$$$
