AV-unprocessed.smi:203|AV-procd|sdf|1592|dock8
  -GOLD-   2262019493D 1   1.00000     0.00000
 Structure written by MMmdl.
 57 61  0  0  0  0  0  0  0  0  1 V2000
  153.8587  136.2750  160.0506 O   0  0  0  0  0  0  0  0  0  0  0  0
  153.8094  137.5027  160.0506 C   0  0  0  0  0  0  0  0  0  0  0  0
  152.9248  138.3065  159.1111 C   0  0  0  0  0  0  0  0  0  0  0  0
  153.4494  139.7416  159.3019 C   0  0  1  0  0  0  0  0  0  0  0  0
  152.4131  140.8945  159.1202 C   0  0  1  0  0  0  0  0  0  0  0  0
  152.8071  142.1939  159.8721 C   0  0  0  0  0  0  0  0  0  0  0  0
  151.7690  143.3057  159.6704 C   0  0  0  0  0  0  0  0  0  0  0  0
  151.5663  143.5645  158.1744 C   0  0  0  0  0  0  0  0  0  0  0  0
  151.1658  142.2668  157.4622 C   0  0  0  0  0  0  0  0  0  0  0  0
  152.1405  141.2030  157.7037 N   0  0  0  0  0  0  0  0  0  0  0  0
  151.8874  140.1559  156.8861 C   0  0  0  0  0  0  0  0  0  0  0  0
  152.6525  140.0429  155.7726 N   0  0  0  0  0  0  0  0  0  0  0  0
  152.4506  139.0300  154.9245 C   0  0  0  0  0  0  0  0  0  0  0  0
  151.5521  138.0455  154.9977 N   0  0  0  0  0  0  0  0  0  0  0  0
  150.7752  138.1645  156.1127 C   0  0  0  0  0  0  0  0  0  0  0  0
  150.8714  139.1825  157.1019 C   0  0  0  0  0  0  0  0  0  0  0  0
  149.9088  138.9822  158.0843 N   0  0  0  0  0  0  0  0  0  0  0  0
  149.2758  137.9093  157.6952 C   0  0  0  0  0  0  0  0  0  0  0  0
  149.7276  137.3570  156.5186 N   0  0  0  0  0  0  0  0  0  0  0  0
  149.1943  136.1836  155.8517 C   0  0  0  0  0  0  0  0  0  0  0  0
  150.2741  135.1241  155.5460 C   0  0  2  0  0  0  0  0  0  0  0  0
  151.0117  135.5865  154.4324 O   0  0  0  0  0  0  0  0  0  0  0  0
  149.7142  133.7178  155.2351 C   0  0  1  0  0  0  0  0  0  0  0  0
  149.1100  133.5621  153.8388 C   0  0  0  0  0  0  0  0  0  0  0  0
  149.1750  132.0635  153.5916 C   0  0  0  0  0  0  0  0  0  0  0  0
  150.2222  131.5708  154.5936 C   0  0  0  0  0  0  0  0  0  0  0  0
  150.7518  132.7494  155.1831 O   0  0  0  0  0  0  0  0  0  0  0  0
  154.2132  139.7137  160.6414 C   0  0  0  0  0  0  0  0  0  0  0  0
  154.5041  138.3093  160.8525 N   0  0  0  0  0  0  0  0  0  0  0  0
  153.0233  137.9668  158.0796 H   0  0  0  0  0  0  0  0  0  0  0  0
  151.8895  138.1748  159.4177 H   0  0  0  0  0  0  0  0  0  0  0  0
  154.2062  139.8471  158.5233 H   0  0  0  0  0  0  0  0  0  0  0  0
  151.4744  140.5544  159.5586 H   0  0  0  0  0  0  0  0  0  0  0  0
  152.9102  142.0146  160.9406 H   0  0  0  0  0  0  0  0  0  0  0  0
  153.7741  142.5586  159.5275 H   0  0  0  0  0  0  0  0  0  0  0  0
  150.8227  143.0162  160.1290 H   0  0  0  0  0  0  0  0  0  0  0  0
  152.0936  144.2192  160.1699 H   0  0  0  0  0  0  0  0  0  0  0  0
  150.8010  144.3262  158.0239 H   0  0  0  0  0  0  0  0  0  0  0  0
  152.4866  143.9552  157.7380 H   0  0  0  0  0  0  0  0  0  0  0  0
  150.1845  141.9430  157.8125 H   0  0  0  0  0  0  0  0  0  0  0  0
  151.0735  142.4550  156.3911 H   0  0  0  0  0  0  0  0  0  0  0  0
  153.1016  139.0054  154.0632 H   0  0  0  0  0  0  0  0  0  0  0  0
  148.4502  137.4935  158.2542 H   0  0  0  0  0  0  0  0  0  0  0  0
  148.4086  135.7562  156.4763 H   0  0  0  0  0  0  0  0  0  0  0  0
  148.7131  136.5098  154.9287 H   0  0  0  0  0  0  0  0  0  0  0  0
  150.9633  135.0559  156.3887 H   0  0  0  0  0  0  0  0  0  0  0  0
  150.4041  135.8600  153.7624 H   0  0  0  0  0  0  0  0  0  0  0  0
  148.9828  133.4231  155.9902 H   0  0  0  0  0  0  0  0  0  0  0  0
  148.0967  133.9586  153.7683 H   0  0  0  0  0  0  0  0  0  0  0  0
  149.7271  134.0813  153.1038 H   0  0  0  0  0  0  0  0  0  0  0  0
  148.2119  131.5905  153.7868 H   0  0  0  0  0  0  0  0  0  0  0  0
  149.4568  131.8437  152.5614 H   0  0  0  0  0  0  0  0  0  0  0  0
  149.7579  130.9578  155.3674 H   0  0  0  0  0  0  0  0  0  0  0  0
  151.0118  130.9857  154.1218 H   0  0  0  0  0  0  0  0  0  0  0  0
  155.1301  140.3025  160.5998 H   0  0  0  0  0  0  0  0  0  0  0  0
  153.6180  140.0749  161.4784 H   0  0  0  0  0  0  0  0  0  0  0  0
  155.1522  137.9875  161.5570 H   0  0  0  0  0  0  0  0  0  0  0  0
  1  2  2  0  0  0  0
  2 29  1  0  0  0  0
  2  3  1  0  0  0  0
  3  4  1  0  0  0  0
  3 30  1  0  0  0  0
  3 31  1  0  0  0  0
  4  5  1  0  0  0  0
  4 28  1  0  0  0  0
  4 32  1  0  0  0  0
  5 10  1  0  0  0  0
  5  6  1  0  0  0  0
  5 33  1  0  0  0  0
  6  7  1  0  0  0  0
  6 34  1  0  0  0  0
  6 35  1  0  0  0  0
  7  8  1  0  0  0  0
  7 36  1  0  0  0  0
  7 37  1  0  0  0  0
  8  9  1  0  0  0  0
  8 38  1  0  0  0  0
  8 39  1  0  0  0  0
  9 10  1  0  0  0  0
  9 40  1  0  0  0  0
  9 41  1  0  0  0  0
 10 11  1  0  0  0  0
 11 16  1  0  0  0  0
 11 12  2  0  0  0  0
 12 13  1  0  0  0  0
 13 14  2  0  0  0  0
 13 42  1  0  0  0  0
 14 15  1  0  0  0  0
 15 19  1  0  0  0  0
 15 16  2  0  0  0  0
 16 17  1  0  0  0  0
 17 18  2  0  0  0  0
 18 19  1  0  0  0  0
 18 43  1  0  0  0  0
 19 20  1  0  0  0  0
 20 21  1  0  0  0  0
 20 44  1  0  0  0  0
 20 45  1  0  0  0  0
 21 22  1  0  0  0  0
 21 23  1  0  0  0  0
 21 46  1  0  0  0  0
 22 47  1  0  0  0  0
 23 27  1  0  0  0  0
 23 24  1  0  0  0  0
 23 48  1  0  0  0  0
 24 25  1  0  0  0  0
 24 49  1  0  0  0  0
 24 50  1  0  0  0  0
 25 26  1  0  0  0  0
 25 51  1  0  0  0  0
 25 52  1  0  0  0  0
 26 27  1  0  0  0  0
 26 53  1  0  0  0  0
 26 54  1  0  0  0  0
 28 29  1  0  0  0  0
 28 55  1  0  0  0  0
 28 56  1  0  0  0  0
 29 57  1  0  0  0  0
M  END
> <s_m_source_file>
AV-unprocessed.smi

> <i_m_source_file_index>
203

> <i_lp_mmshare_version>
43012

> <i_f3d_flags>
0

> <s_epik_input>
Tz1DMVtDSDJdW0NASF0oW0NIMl1bTkhdMSlbQ0BASF0yW0NIMl1bQ0gyXVtDSDJdW0NIMl1OMmMobltjSF1uMyljKGMzNCluW2NIXW40W0NIMl1bQ0BIXShbT0hdKVtDQEBIXTVbQ0gyXVtDSDJdW0NIMl1PNQ==

> <s_epik_cmdline>
J2VwaWtfcHl0aG9uJywgJy1waCcsICc3LjAnLCAnLXRuJywgJzgnLCAnLW1hJywgJzIwMCcsICctbWV0YWxfYmluZGluZycsICctaW1hZScsICc8aW5maWxlLm1hZT4nLCAnLW9tYWUnLCAnPG91dGZpbGUubWFlPic=

> <r_lp_tautomer_probability>
1

> <r_epik_Ionization_Penalty>
0.00175146

> <r_epik_Ionization_Penalty_Charging>
0

> <r_epik_Ionization_Penalty_Neutral>
0.00175146

> <r_epik_State_Penalty>
0.00109045

> <r_epik_Charging_Adjusted_Penalty>
0.00109045

> <i_epik_Tot_Q>
0

> <i_epik_Tot_abs_Q>
0

> <r_epik_Metal_State_Penalty>
-0

> <b_epik_Metal_Only>
0

> <s_lp_Force_Field>
OPLS_2005

> <r_lp_Energy>
55.4973

> <b_lp_Chiralities_Consistent>
1

> <s_lp_Variant>
AV-unprocessed.smi:203-11

> <Gold.Version>
5.8.1

> <Gold.Id.Protein>
6NUR|6NUR_protein|mol2

> <Gold.PLP.Fitness>
50.5277

> <Gold.PLP.PLP>
-43.5487

> <Gold.PLP.part.hbond>
-4.6199

> <Gold.PLP.part.metal>
0.0000

> <Gold.PLP.part.buried>
-2.1949

> <Gold.PLP.part.nonpolar>
-35.4317

> <Gold.PLP.part.repulsive>
0.1066

> <Gold.PLP.ligand.clash>
0.0000

> <Gold.PLP.ligand.torsion>
1.1585

> <Gold.PLP.Chemscore.Hbond>
2.9969

> <Gold.PLP.Chemscore.CHOScore>
0.0000

> <Gold.PLP.Chemscore.Metal>
0.0000

> <Gold.Chemscore.Hbonds>
donor molecule, donor type, donor heavy atom, donor atom, acceptor molecule, acceptor atom, score
      L1  H    22    47       P1  7948  0.04
      P1  H  6896  6908       L1     1  0.81
      P1  H  7997  8009       L1    12  1.00
      P1  H 10752 10765       L1    22  1.00

> <Gold.PLP.Chemscore.Internal.Correction>
0.3051

> <Gold.Rescore>
     Score         DG    S(hbond)    S(metal)    S(lipo)     H(rot)  DE(clash)    DE(int)     intcor
     16.55     -18.47       2.52        0.00      98.40       2.72       0.74       1.18       ----

> <Gold.Chemscore.Fitness>
16.5463

> <Gold.Chemscore.DG>
-18.4684

> <Gold.Chemscore.ZeroCoef>
-5.4800

> <Gold.Chemscore.Hbond>
2.5243

> <Gold.Chemscore.Metal>
0.0000

> <Gold.Chemscore.Lipo>
98.4003

> <Gold.Chemscore.Internal_Hbond>
0.0000

> <Gold.Chemscore.DEClash>
0.7444

> <Gold.Chemscore.DEInternal>
1.1777

> <Gold.Chemscore.Rot>
2.7171

> <Gold.Chemscore.Internal.Correction>
   9.000000E+99

> <Gold.Chemscore.Hbonds>
donor molecule, donor type, donor heavy atom, donor atom, acceptor molecule, acceptor atom, score
      P1  H  6896  6908       L1     1  0.80
      P1  H  7997  8009       L1    12  0.42
      P1  H 10752 10765       L1    22  0.96

> <Gold.Chemscore.Hbond.Weighted>
-8.4312

> <Gold.Chemscore.Metal.Weighted>
-0.0000

> <Gold.Chemscore.Lipo.Weighted>
-11.5128

> <Gold.Chemscore.Internal_Hbond.Weighted>
0.0000

> <Gold.Chemscore.DEClash.Weighted>
0.7444

> <Gold.Chemscore.DEInternal.Weighted>
1.1777

> <Gold.Chemscore.Rot.Weighted>
6.9557

> <Gold.Chemscore.Internal.Correction.Weighted>
   9.000000E+99

> <Gold.Protein.RotatedTorsions>
[ 6907 6896 6895 6894 ] final  -71.87 input  -60.11 | X-H torsion
[ 7974 7965 7964 7962 ] final -104.11 input  175.53 | X-H torsion
[ 8008 7997 7996 7995 ] final -165.39 input   59.86 | X-H torsion
[ 10167 10162 10161 10158 ] final  -87.83 input  -65.29 | X-H torsion
[ 10718 10713 10712 10709 ] final  -82.17 input   66.30 | X-H torsion
[ 10763 10752 10751 10750 ] final  171.91 input  -60.55 | X-H torsion
[ 11005 11000 10999 10996 ] final  -29.95 input  -57.11 | X-H torsion

> <Gold.Protein.ActiveResidues>
 VAL166  LYS551  ARG553  GLY616  TRP617  ASP618  TYR619  PRO620  LYS621  CYS622 
 ASP623  PHE694  ASN695  SER759  ASP760  ASP761  ALA762  ILE779  LEU786  VAL792 
 PHE793  MET794  SER795  GLU796  ALA797  LYS798  CYS799  TRP800  GLU811  SER814 

> <Gold.Protein.RotatedAtoms>
  150.7194  134.5246  159.5669 H   0  0  0  0  0  0  0  0  0  0  0  0  # atno 6907 bound_to 6896
  152.2793  134.7843  160.0408 H   0  0  0  0  0  0  0  0  0  0  0  0  # atno 6908 bound_to 6896
  151.8496  133.3402  159.3705 H   0  0  0  0  0  0  0  0  0  0  0  0  # atno 6909 bound_to 6896
  145.2473  140.9226  143.3115 H   0  0  0  0  0  0  0  0  0  0  0  0  # atno 7974 bound_to 7965
  155.8491  140.0960  157.1686 H   0  0  0  0  0  0  0  0  0  0  0  0  # atno 8008 bound_to 7997
  154.3984  140.1386  156.3884 H   0  0  0  0  0  0  0  0  0  0  0  0  # atno 8009 bound_to 7997
  155.7980  140.3453  155.5389 H   0  0  0  0  0  0  0  0  0  0  0  0  # atno 8010 bound_to 7997
  140.3806  143.2750  151.9388 H   0  0  0  0  0  0  0  0  0  0  0  0  # atno 10167 bound_to 10162
  156.0037  130.4626  150.4064 H   0  0  0  0  0  0  0  0  0  0  0  0  # atno 10718 bound_to 10713
  154.4186  135.2757  155.1990 H   0  0  0  0  0  0  0  0  0  0  0  0  # atno 10763 bound_to 10752
  154.3945  135.6058  153.5866 H   0  0  0  0  0  0  0  0  0  0  0  0  # atno 10764 bound_to 10752
  152.9832  135.5911  154.4479 H   0  0  0  0  0  0  0  0  0  0  0  0  # atno 10765 bound_to 10752
  140.9340  133.7320  156.0978 H   0  0  0  0  0  0  0  0  0  0  0  0  # atno 11005 bound_to 11000
  144.9535  139.4057  143.6391 LP  0  0  0  0  0  0  0  0  0  0  0  0  # atno 17320 bound_to 7965
  146.3312  139.8553  142.8866 LP  0  0  0  0  0  0  0  0  0  0  0  0  # atno 17321 bound_to 7965
  139.4795  144.5821  151.7914 LP  0  0  0  0  0  0  0  0  0  0  0  0  # atno 17342 bound_to 10162
  140.4941  144.1267  150.5956 LP  0  0  0  0  0  0  0  0  0  0  0  0  # atno 17343 bound_to 10162
  157.2130  131.0465  151.2589 LP  0  0  0  0  0  0  0  0  0  0  0  0  # atno 17370 bound_to 10713
  157.3871  130.7262  149.6671 LP  0  0  0  0  0  0  0  0  0  0  0  0  # atno 17371 bound_to 10713
  140.7824  134.3710  157.5484 LP  0  0  0  0  0  0  0  0  0  0  0  0  # atno 17394 bound_to 11000
  139.8803  134.9090  156.2980 LP  0  0  0  0  0  0  0  0  0  0  0  0  # atno 17395 bound_to 11000

$$$$
