AV-unprocessed.smi:2349|AV-procd|sdf|9371|dock4
  -GOLD-   2272012593D 1   1.00000     0.00000
 Structure written by MMmdl.
 52 53  0  0  0  0  0  0  0  0  1 V2000
  143.2568  132.9398  151.3135 C   0  0  0  0  0  0  0  0  0  0  0  0
  144.0210  134.2306  151.5209 C   0  0  0  0  0  0  0  0  0  0  0  0
  144.8645  134.7426  150.5125 C   0  0  0  0  0  0  0  0  0  0  0  0
  145.5511  135.9468  150.7602 C   0  0  0  0  0  0  0  0  0  0  0  0
  145.3706  136.5896  152.0018 C   0  0  0  0  0  0  0  0  0  0  0  0
  146.0778  137.8984  152.3101 C   0  0  0  0  0  0  0  0  0  0  0  0
  146.4715  138.0429  153.7900 C   0  0  0  0  0  0  0  0  0  0  0  0
  147.6003  138.9501  153.9508 N   0  0  0  0  0  0  0  0  0  0  0  0
  148.8165  138.6039  154.3992 C   0  0  0  0  0  0  0  0  0  0  0  0
  149.0818  137.4510  154.7425 O   0  0  0  0  0  0  0  0  0  0  0  0
  149.7158  139.6201  154.4341 N   0  0  0  0  0  0  0  0  0  0  0  0
  149.4074  141.0591  154.4879 C   0  0  0  0  0  0  0  0  0  0  0  0
  149.7269  141.5784  155.9005 C   0  0  0  0  0  0  0  0  0  0  0  0
  151.2014  141.3111  156.2790 C   0  0  0  0  0  0  0  0  0  0  0  0
  151.4837  141.7545  157.7345 C   0  0  0  0  0  0  0  0  0  0  0  0
  151.5384  143.2800  157.9559 C   0  0  0  0  0  0  0  0  0  0  0  0
  151.2162  144.0341  157.0359 O   0  0  0  0  0  0  0  0  0  0  0  0
  151.9339  143.7507  159.1620 N   0  0  0  0  0  0  0  0  0  0  0  0
  152.2563  142.8326  160.2569 C   0  0  0  0  0  0  0  0  0  0  0  0
  152.1007  145.1763  159.4561 C   0  0  0  0  0  0  0  0  0  0  0  0
  151.5664  139.8275  156.0199 C   0  0  0  0  0  0  0  0  0  0  0  0
  151.1539  139.3838  154.6044 C   0  0  0  0  0  0  0  0  0  0  0  0
  144.5074  135.9906  152.9444 C   0  0  0  0  0  0  0  0  0  0  0  0
  143.8422  134.8386  152.7145 N   0  0  0  0  0  0  0  0  0  0  0  0
  143.3364  132.5949  150.2822 H   0  0  0  0  0  0  0  0  0  0  0  0
  142.2001  133.0797  151.5431 H   0  0  0  0  0  0  0  0  0  0  0  0
  143.6505  132.1598  151.9655 H   0  0  0  0  0  0  0  0  0  0  0  0
  144.9835  134.2278  149.5704 H   0  0  0  0  0  0  0  0  0  0  0  0
  146.2012  136.3704  150.0087 H   0  0  0  0  0  0  0  0  0  0  0  0
  146.9693  137.9731  151.6859 H   0  0  0  0  0  0  0  0  0  0  0  0
  145.4330  138.7280  152.0174 H   0  0  0  0  0  0  0  0  0  0  0  0
  145.6168  138.3951  154.3695 H   0  0  0  0  0  0  0  0  0  0  0  0
  146.7526  137.0693  154.1941 H   0  0  0  0  0  0  0  0  0  0  0  0
  147.4523  139.9124  153.6835 H   0  0  0  0  0  0  0  0  0  0  0  0
  150.0192  141.5838  153.7525 H   0  0  0  0  0  0  0  0  0  0  0  0
  148.3780  141.3044  154.2268 H   0  0  0  0  0  0  0  0  0  0  0  0
  149.5161  142.6471  155.9539 H   0  0  0  0  0  0  0  0  0  0  0  0
  149.0643  141.0962  156.6210 H   0  0  0  0  0  0  0  0  0  0  0  0
  151.8083  141.9222  155.6087 H   0  0  0  0  0  0  0  0  0  0  0  0
  150.7048  141.3617  158.3888 H   0  0  0  0  0  0  0  0  0  0  0  0
  152.4199  141.2972  158.0558 H   0  0  0  0  0  0  0  0  0  0  0  0
  151.5192  142.0318  160.3345 H   0  0  0  0  0  0  0  0  0  0  0  0
  152.2767  143.3347  161.2247 H   0  0  0  0  0  0  0  0  0  0  0  0
  153.2348  142.3796  160.0925 H   0  0  0  0  0  0  0  0  0  0  0  0
  152.6410  145.6878  158.6585 H   0  0  0  0  0  0  0  0  0  0  0  0
  152.6685  145.3437  160.3718 H   0  0  0  0  0  0  0  0  0  0  0  0
  151.1284  145.6550  159.5778 H   0  0  0  0  0  0  0  0  0  0  0  0
  152.6365  139.6653  156.1482 H   0  0  0  0  0  0  0  0  0  0  0  0
  151.0701  139.1922  156.7550 H   0  0  0  0  0  0  0  0  0  0  0  0
  151.4321  138.3407  154.4473 H   0  0  0  0  0  0  0  0  0  0  0  0
  151.7077  139.9522  153.8559 H   0  0  0  0  0  0  0  0  0  0  0  0
  144.3358  136.4532  153.9053 H   0  0  0  0  0  0  0  0  0  0  0  0
  1  2  1  0  0  0  0
  1 25  1  0  0  0  0
  1 26  1  0  0  0  0
  1 27  1  0  0  0  0
  2 24  1  0  0  0  0
  2  3  2  0  0  0  0
  3  4  1  0  0  0  0
  3 28  1  0  0  0  0
  4  5  2  0  0  0  0
  4 29  1  0  0  0  0
  5  6  1  0  0  0  0
  5 23  1  0  0  0  0
  6  7  1  0  0  0  0
  6 30  1  0  0  0  0
  6 31  1  0  0  0  0
  7  8  1  0  0  0  0
  7 32  1  0  0  0  0
  7 33  1  0  0  0  0
  8  9  1  0  0  0  0
  8 34  1  0  0  0  0
  9 10  2  0  0  0  0
  9 11  1  0  0  0  0
 11 22  1  0  0  0  0
 11 12  1  0  0  0  0
 12 13  1  0  0  0  0
 12 35  1  0  0  0  0
 12 36  1  0  0  0  0
 13 14  1  0  0  0  0
 13 37  1  0  0  0  0
 13 38  1  0  0  0  0
 14 15  1  0  0  0  0
 14 21  1  0  0  0  0
 14 39  1  0  0  0  0
 15 16  1  0  0  0  0
 15 40  1  0  0  0  0
 15 41  1  0  0  0  0
 16 17  2  0  0  0  0
 16 18  1  0  0  0  0
 18 19  1  0  0  0  0
 18 20  1  0  0  0  0
 19 42  1  0  0  0  0
 19 43  1  0  0  0  0
 19 44  1  0  0  0  0
 20 45  1  0  0  0  0
 20 46  1  0  0  0  0
 20 47  1  0  0  0  0
 21 22  1  0  0  0  0
 21 48  1  0  0  0  0
 21 49  1  0  0  0  0
 22 50  1  0  0  0  0
 22 51  1  0  0  0  0
 23 24  2  0  0  0  0
 23 52  1  0  0  0  0
M  END
> <s_m_source_file>
AV-unprocessed.smi

> <i_m_source_file_index>
2349

> <i_lp_mmshare_version>
43012

> <i_f3d_flags>
0

> <s_epik_input>
W0NIM11jMVtjSF1bY0hdYyhbY0hdbjEpW0NIMl1bQ0gyXVtOSF1DKD1PKU4yW0NIMl1bQ0gyXVtDSF0oW0NIMl1bQ0gyXTIpW0NIMl1DKD1PKU4oW0NIM10pW0NIM10=

> <s_epik_cmdline>
J2VwaWtfcHl0aG9uJywgJy1waCcsICc3LjAnLCAnLXRuJywgJzgnLCAnLW1hJywgJzIwMCcsICctbWV0YWxfYmluZGluZycsICctaW1hZScsICc8aW5maWxlLm1hZT4nLCAnLW9tYWUnLCAnPG91dGZpbGUubWFlPic=

> <r_epik_Ionization_Penalty>
0.0570544

> <r_epik_Ionization_Penalty_Charging>
0

> <r_epik_Ionization_Penalty_Neutral>
0.0570544

> <r_epik_State_Penalty>
0.0491874

> <r_epik_Charging_Adjusted_Penalty>
0.0491874

> <i_epik_Tot_Q>
0

> <i_epik_Tot_abs_Q>
0

> <r_epik_Metal_State_Penalty>
0.0448474

> <b_epik_Metal_Only>
0

> <s_lp_Force_Field>
OPLS_2005

> <r_lp_Energy>
37.0132

> <b_lp_Chiralities_Consistent>
1

> <s_lp_Variant>
AV-unprocessed.smi:2349-1

> <Gold.Version>
5.8.1

> <Gold.Id.Protein>
6NUR|6NUR_protein|mol2

> <Gold.PLP.Fitness>
47.3006

> <Gold.PLP.PLP>
-48.8208

> <Gold.PLP.part.hbond>
0.0000

> <Gold.PLP.part.metal>
0.0000

> <Gold.PLP.part.buried>
-3.5811

> <Gold.PLP.part.nonpolar>
-47.3562

> <Gold.PLP.part.repulsive>
2.1637

> <Gold.PLP.ligand.clash>
0.0000

> <Gold.PLP.ligand.torsion>
0.8338

> <Gold.PLP.Chemscore.Hbond>
0.0000

> <Gold.PLP.Chemscore.CHOScore>
0.0000

> <Gold.PLP.Chemscore.Metal>
0.0000

> <Gold.PLP.Chemscore.Internal.Correction>
0.1474

> <Gold.Rescore>
     Score         DG    S(hbond)    S(metal)    S(lipo)     H(rot)  DE(clash)    DE(int)     intcor
     12.53     -13.29       0.00        0.00     103.10       1.66       0.19       0.57       ----

> <Gold.Chemscore.Fitness>
12.5257

> <Gold.Chemscore.DG>
-13.2902

> <Gold.Chemscore.ZeroCoef>
-5.4800

> <Gold.Chemscore.Hbond>
0.0000

> <Gold.Chemscore.Metal>
0.0000

> <Gold.Chemscore.Lipo>
103.1025

> <Gold.Chemscore.Internal_Hbond>
0.0000

> <Gold.Chemscore.DEClash>
0.1932

> <Gold.Chemscore.DEInternal>
0.5714

> <Gold.Chemscore.Rot>
1.6612

> <Gold.Chemscore.Internal.Correction>
   9.000000E+99

> <Gold.Chemscore.Hbond.Weighted>
-0.0000

> <Gold.Chemscore.Metal.Weighted>
-0.0000

> <Gold.Chemscore.Lipo.Weighted>
-12.0630

> <Gold.Chemscore.Internal_Hbond.Weighted>
0.0000

> <Gold.Chemscore.DEClash.Weighted>
0.1932

> <Gold.Chemscore.DEInternal.Weighted>
0.5714

> <Gold.Chemscore.Rot.Weighted>
4.2528

> <Gold.Chemscore.Internal.Correction.Weighted>
   9.000000E+99

> <Gold.Protein.RotatedTorsions>
[ 6907 6896 6895 6894 ] final   89.65 input  -60.11 | X-H torsion
[ 7974 7965 7964 7962 ] final   27.76 input  175.53 | X-H torsion
[ 8008 7997 7996 7995 ] final   49.38 input   59.86 | X-H torsion
[ 10167 10162 10161 10158 ] final  134.10 input  -65.29 | X-H torsion
[ 10718 10713 10712 10709 ] final   53.82 input   66.30 | X-H torsion
[ 10763 10752 10751 10750 ] final -126.08 input  -60.55 | X-H torsion
[ 11005 11000 10999 10996 ] final -112.78 input  -57.11 | X-H torsion

> <Gold.Protein.ActiveResidues>
 VAL166  LYS551  ARG553  GLY616  TRP617  ASP618  TYR619  PRO620  LYS621  CYS622 
 ASP623  PHE694  ASN695  SER759  ASP760  ASP761  ALA762  ILE779  LEU786  VAL792 
 PHE793  MET794  SER795  GLU796  ALA797  LYS798  CYS799  TRP800  GLU811  SER814 

> <Gold.Protein.RotatedAtoms>
  152.5438  134.1933  159.8682 H   0  0  0  0  0  0  0  0  0  0  0  0  # atno 6907 bound_to 6896
  151.1927  133.4651  159.2602 H   0  0  0  0  0  0  0  0  0  0  0  0  # atno 6908 bound_to 6896
  151.1067  135.0016  159.8530 H   0  0  0  0  0  0  0  0  0  0  0  0  # atno 6909 bound_to 6896
  146.1767  139.7148  142.8929 H   0  0  0  0  0  0  0  0  0  0  0  0  # atno 7974 bound_to 7965
  155.4012  140.3438  155.4257 H   0  0  0  0  0  0  0  0  0  0  0  0  # atno 8008 bound_to 7997
  156.1502  140.1568  156.8814 H   0  0  0  0  0  0  0  0  0  0  0  0  # atno 8009 bound_to 7997
  154.5046  140.0805  156.7849 H   0  0  0  0  0  0  0  0  0  0  0  0  # atno 8010 bound_to 7997
  139.5270  144.6584  151.5091 H   0  0  0  0  0  0  0  0  0  0  0  0  # atno 10167 bound_to 10162
  157.5201  130.8559  149.8548 H   0  0  0  0  0  0  0  0  0  0  0  0  # atno 10718 bound_to 10713
  154.8742  135.4008  154.3372 H   0  0  0  0  0  0  0  0  0  0  0  0  # atno 10763 bound_to 10752
  153.4177  135.7022  153.6321 H   0  0  0  0  0  0  0  0  0  0  0  0  # atno 10764 bound_to 10752
  153.4997  135.3730  155.2504 H   0  0  0  0  0  0  0  0  0  0  0  0  # atno 10765 bound_to 10752
  141.0654  133.9467  157.2588 H   0  0  0  0  0  0  0  0  0  0  0  0  # atno 11005 bound_to 11000
  145.4192  141.0405  143.2973 LP  0  0  0  0  0  0  0  0  0  0  0  0  # atno 17320 bound_to 7965
  144.8247  139.5730  143.6971 LP  0  0  0  0  0  0  0  0  0  0  0  0  # atno 17321 bound_to 7965
  140.6420  143.8870  150.6701 LP  0  0  0  0  0  0  0  0  0  0  0  0  # atno 17342 bound_to 10162
  140.2207  143.3811  152.1645 LP  0  0  0  0  0  0  0  0  0  0  0  0  # atno 17343 bound_to 10162
  156.0348  130.3754  150.1591 LP  0  0  0  0  0  0  0  0  0  0  0  0  # atno 17370 bound_to 10713
  156.9779  130.9855  151.3444 LP  0  0  0  0  0  0  0  0  0  0  0  0  # atno 17371 bound_to 10713
  139.9471  135.0182  156.8886 LP  0  0  0  0  0  0  0  0  0  0  0  0  # atno 17394 bound_to 11000
  140.5784  134.0376  155.7455 LP  0  0  0  0  0  0  0  0  0  0  0  0  # atno 17395 bound_to 11000

$$$$
