AV-unprocessed.smi:3029|AV-procd|sdf|11526|dock8
  -GOLD-   2272016473D 1   1.00000     0.00000
 Structure written by MMmdl.
 42 43  0  0  0  0  0  0  0  0  4 V2000
  151.2357  144.6109  160.9596 O   0  0  0  0  0  0  0  0  0  0  0  0
  151.9261  143.6085  160.7753 C   0  0  0  0  0  0  0  0  0  0  0  0
  152.9765  143.2009  161.7139 C   0  0  0  0  0  0  0  0  0  0  0  0
  153.7118  142.0891  161.5145 C   0  0  0  0  0  0  0  0  0  0  0  0
  153.4807  141.2533  160.3521 C   0  0  0  0  0  0  0  0  0  0  0  0
  154.2527  140.0496  160.1357 N   0  3  0  0  0  0  0  0  0  0  0  0
  154.8657  139.5586  161.0789 O   0  0  0  0  0  0  0  0  0  0  0  0
  154.2712  139.5566  159.0127 O   0  5  0  0  0  0  0  0  0  0  0  0
  152.5215  141.6358  159.4862 C   0  0  0  0  0  0  0  0  0  0  0  0
  151.7582  142.8023  159.6837 N   0  0  0  0  0  0  0  0  0  0  0  0
  150.7436  143.1157  158.6687 C   0  0  0  0  0  0  0  0  0  0  0  0
  151.0179  142.3735  157.3509 C   0  0  0  0  0  0  0  0  0  0  0  0
  149.7606  142.1392  156.6116 N   0  3  0  0  0  0  0  0  0  0  0  0
  149.8848  141.3206  155.3812 C   0  0  1  0  0  0  0  0  0  0  0  0
  151.1285  140.4048  155.4353 C   0  0  0  0  0  0  0  0  0  0  0  0
  150.9817  139.2922  156.4875 C   0  0  0  0  0  0  0  0  0  0  0  0
  149.7088  138.4664  156.2499 C   0  0  0  0  0  0  0  0  0  0  0  0
  148.4598  139.3603  156.1908 C   0  0  0  0  0  0  0  0  0  0  0  0
  148.6078  140.4742  155.1303 C   0  0  1  0  0  0  0  0  0  0  0  0
  147.3211  141.3165  154.9688 C   0  0  0  0  0  0  0  0  0  0  0  0
  147.4355  142.2004  153.9771 F   0  0  0  0  0  0  0  0  0  0  0  0
  146.2833  140.5189  154.7170 F   0  0  0  0  0  0  0  0  0  0  0  0
  147.0721  141.9777  156.0987 F   0  0  0  0  0  0  0  0  0  0  0  0
  153.1654  143.8092  162.5865 H   0  0  0  0  0  0  0  0  0  0  0  0
  154.4751  141.8295  162.2335 H   0  0  0  0  0  0  0  0  0  0  0  0
  152.2700  141.0807  158.5938 H   0  0  0  0  0  0  0  0  0  0  0  0
  149.7469  142.8674  159.0384 H   0  0  0  0  0  0  0  0  0  0  0  0
  150.7162  144.1913  158.4858 H   0  0  0  0  0  0  0  0  0  0  0  0
  151.6973  142.9596  156.7303 H   0  0  0  0  0  0  0  0  0  0  0  0
  151.5072  141.4214  157.5554 H   0  0  0  0  0  0  0  0  0  0  0  0
  149.0874  141.7034  157.2259 H   0  0  0  0  0  0  0  0  0  0  0  0
  150.0017  142.0056  154.5403 H   0  0  0  0  0  0  0  0  0  0  0  0
  151.2727  139.9450  154.4566 H   0  0  0  0  0  0  0  0  0  0  0  0
  152.0351  140.9792  155.6236 H   0  0  0  0  0  0  0  0  0  0  0  0
  151.8552  138.6401  156.4602 H   0  0  0  0  0  0  0  0  0  0  0  0
  150.9564  139.7275  157.4872 H   0  0  0  0  0  0  0  0  0  0  0  0
  149.8041  137.9127  155.3151 H   0  0  0  0  0  0  0  0  0  0  0  0
  149.5959  137.7212  157.0379 H   0  0  0  0  0  0  0  0  0  0  0  0
  147.5897  138.7428  155.9664 H   0  0  0  0  0  0  0  0  0  0  0  0
  148.2756  139.7987  157.1721 H   0  0  0  0  0  0  0  0  0  0  0  0
  148.7562  139.9725  154.1723 H   0  0  0  0  0  0  0  0  0  0  0  0
  149.4028  143.0438  156.3389 H   0  0  0  0  0  0  0  0  0  0  0  0
  1  2  2  0  0  0  0
  2 10  1  0  0  0  0
  2  3  1  0  0  0  0
  3  4  2  0  0  0  0
  3 24  1  0  0  0  0
  4  5  1  0  0  0  0
  4 25  1  0  0  0  0
  5  6  1  0  0  0  0
  5  9  2  0  0  0  0
  6  7  2  0  0  0  0
  6  8  1  0  0  0  0
  9 10  1  0  0  0  0
  9 26  1  0  0  0  0
 10 11  1  0  0  0  0
 11 12  1  0  0  0  0
 11 27  1  0  0  0  0
 11 28  1  0  0  0  0
 12 13  1  0  0  0  0
 12 29  1  0  0  0  0
 12 30  1  0  0  0  0
 13 14  1  0  0  0  0
 13 31  1  0  0  0  0
 13 42  1  0  0  0  0
 14 19  1  0  0  0  0
 14 15  1  0  0  0  0
 14 32  1  0  0  0  0
 15 16  1  0  0  0  0
 15 33  1  0  0  0  0
 15 34  1  0  0  0  0
 16 17  1  0  0  0  0
 16 35  1  0  0  0  0
 16 36  1  0  0  0  0
 17 18  1  0  0  0  0
 17 37  1  0  0  0  0
 17 38  1  0  0  0  0
 18 19  1  0  0  0  0
 18 39  1  0  0  0  0
 18 40  1  0  0  0  0
 19 20  1  0  0  0  0
 19 41  1  0  0  0  0
 20 21  1  0  0  0  0
 20 22  1  0  0  0  0
 20 23  1  0  0  0  0
M  CHG  1   6   1
M  CHG  1   8  -1
M  CHG  1  13   1
M  END
> <s_m_source_file>
AV-unprocessed.smi

> <i_m_source_file_index>
3029

> <i_lp_mmshare_version>
43012

> <i_f3d_flags>
0

> <s_epik_input>
Tz1jMVtjSF1bY0hdYyhbTitdKD1PKVtPLV0pW2NIXW4xW0NIMl1bQ0gyXVtOSF1bQ0BASF0yW0NIMl1bQ0gyXVtDSDJdW0NIMl1bQ0BIXTJDKEYpKEYpRg==

> <s_epik_cmdline>
J2VwaWtfcHl0aG9uJywgJy1waCcsICc3LjAnLCAnLXRuJywgJzgnLCAnLW1hJywgJzIwMCcsICctbWV0YWxfYmluZGluZycsICctaW1hZScsICc8aW5maWxlLm1hZT4nLCAnLW9tYWUnLCAnPG91dGZpbGUubWFlPic=

> <r_lp_tautomer_probability>
1

> <r_epik_Ionization_Penalty>
0.037386

> <r_epik_Ionization_Penalty_Charging>
0.037386

> <r_epik_Ionization_Penalty_Neutral>
0

> <r_epik_State_Penalty>
0.0312892

> <r_epik_Charging_Adjusted_Penalty>
0.0686752

> <i_epik_Tot_Q>
1

> <i_epik_Tot_abs_Q>
3

> <r_epik_Metal_State_Penalty>
0.0312892

> <b_epik_Metal_Only>
0

> <s_lp_Force_Field>
OPLS_2005

> <r_lp_Energy>
34.3569

> <b_lp_Chiralities_Consistent>
1

> <s_lp_Variant>
AV-unprocessed.smi:3029-2

> <Gold.Version>
5.8.1

> <Gold.Id.Protein>
6NUR|6NUR_protein|mol2

> <Gold.PLP.Fitness>
46.9979

> <Gold.PLP.PLP>
-41.3239

> <Gold.PLP.part.hbond>
-2.0000

> <Gold.PLP.part.metal>
0.0000

> <Gold.PLP.part.buried>
-4.0734

> <Gold.PLP.part.nonpolar>
-35.3675

> <Gold.PLP.part.repulsive>
0.4571

> <Gold.PLP.ligand.clash>
1.3394

> <Gold.PLP.ligand.torsion>
1.0499

> <Gold.PLP.Chemscore.Hbond>
3.0000

> <Gold.PLP.Chemscore.CHOScore>
0.0000

> <Gold.PLP.Chemscore.Metal>
0.0000

> <Gold.Chemscore.Hbonds>
donor molecule, donor type, donor heavy atom, donor atom, acceptor molecule, acceptor atom, score
      L1  H    13    42       P1  8028  2.00
      P1  H  7997  8008       L1     8  1.00

> <Gold.PLP.Chemscore.Internal.Correction>
0.1133

> <Gold.Rescore>
     Score         DG    S(hbond)    S(metal)    S(lipo)     H(rot)  DE(clash)    DE(int)     intcor
     14.42     -17.44       2.00        0.00      86.77       1.90       0.10       2.92       ----

> <Gold.Chemscore.Fitness>
14.4201

> <Gold.Chemscore.DG>
-17.4358

> <Gold.Chemscore.ZeroCoef>
-5.4800

> <Gold.Chemscore.Hbond>
1.9993

> <Gold.Chemscore.Metal>
0.0000

> <Gold.Chemscore.Lipo>
86.7663

> <Gold.Chemscore.Internal_Hbond>
0.0000

> <Gold.Chemscore.DEClash>
0.0985

> <Gold.Chemscore.DEInternal>
2.9172

> <Gold.Chemscore.Rot>
1.9037

> <Gold.Chemscore.Internal.Correction>
   9.000000E+99

> <Gold.Chemscore.Hbonds>
donor molecule, donor type, donor heavy atom, donor atom, acceptor molecule, acceptor atom, score
      L1  H    13    42       P1  8028  1.00
      P1  H  7997  8008       L1     8  0.97

> <Gold.Chemscore.Hbond.Weighted>
-6.6777

> <Gold.Chemscore.Metal.Weighted>
-0.0000

> <Gold.Chemscore.Lipo.Weighted>
-10.1517

> <Gold.Chemscore.Internal_Hbond.Weighted>
0.0000

> <Gold.Chemscore.DEClash.Weighted>
0.0985

> <Gold.Chemscore.DEInternal.Weighted>
2.9172

> <Gold.Chemscore.Rot.Weighted>
4.8736

> <Gold.Chemscore.Internal.Correction.Weighted>
   9.000000E+99

> <Gold.Protein.RotatedTorsions>
[ 6907 6896 6895 6894 ] final  141.30 input  -60.11 | X-H torsion
[ 7974 7965 7964 7962 ] final  -40.62 input  175.53 | X-H torsion
[ 8008 7997 7996 7995 ] final -125.54 input   59.86 | X-H torsion
[ 10167 10162 10161 10158 ] final  118.46 input  -65.29 | X-H torsion
[ 10718 10713 10712 10709 ] final  -56.08 input   66.30 | X-H torsion
[ 10763 10752 10751 10750 ] final   13.34 input  -60.55 | X-H torsion
[ 11005 11000 10999 10996 ] final  -36.53 input  -57.11 | X-H torsion

> <Gold.Protein.ActiveResidues>
 VAL166  LYS551  ARG553  GLY616  TRP617  ASP618  TYR619  PRO620  LYS621  CYS622 
 ASP623  PHE694  ASN695  SER759  ASP760  ASP761  ALA762  ILE779  LEU786  VAL792 
 PHE793  MET794  SER795  GLU796  ALA797  LYS798  CYS799  TRP800  GLU811  SER814 

> <Gold.Protein.RotatedAtoms>
  152.2327  133.5071  159.5224 H   0  0  0  0  0  0  0  0  0  0  0  0  # atno 6907 bound_to 6896
  150.7042  134.1195  159.4038 H   0  0  0  0  0  0  0  0  0  0  0  0  # atno 6908 bound_to 6896
  151.9116  135.0336  160.0565 H   0  0  0  0  0  0  0  0  0  0  0  0  # atno 6909 bound_to 6896
  146.0287  140.6759  142.9143 H   0  0  0  0  0  0  0  0  0  0  0  0  # atno 7974 bound_to 7965
  155.2149  140.0420  157.2939 H   0  0  0  0  0  0  0  0  0  0  0  0  # atno 8008 bound_to 7997
  154.5987  140.2446  155.7793 H   0  0  0  0  0  0  0  0  0  0  0  0  # atno 8009 bound_to 7997
  156.2307  140.2939  156.0190 H   0  0  0  0  0  0  0  0  0  0  0  0  # atno 8010 bound_to 7997
  139.6110  144.7082  151.2844 H   0  0  0  0  0  0  0  0  0  0  0  0  # atno 10167 bound_to 10162
  156.1317  130.4159  150.0258 H   0  0  0  0  0  0  0  0  0  0  0  0  # atno 10718 bound_to 10713
  153.1731  135.6815  153.8580 H   0  0  0  0  0  0  0  0  0  0  0  0  # atno 10763 bound_to 10752
  153.7938  135.3165  155.3383 H   0  0  0  0  0  0  0  0  0  0  0  0  # atno 10764 bound_to 10752
  154.8011  135.4777  154.0371 H   0  0  0  0  0  0  0  0  0  0  0  0  # atno 10765 bound_to 10752
  140.9882  133.7019  156.1802 H   0  0  0  0  0  0  0  0  0  0  0  0  # atno 11005 bound_to 11000
  144.7021  140.3697  143.7148 LP  0  0  0  0  0  0  0  0  0  0  0  0  # atno 17320 bound_to 7965
  145.7076  139.1676  143.2557 LP  0  0  0  0  0  0  0  0  0  0  0  0  # atno 17321 bound_to 7965
  140.7319  143.6839  150.7978 LP  0  0  0  0  0  0  0  0  0  0  0  0  # atno 17342 bound_to 10162
  140.0433  143.5323  152.2707 LP  0  0  0  0  0  0  0  0  0  0  0  0  # atno 17343 bound_to 10162
  156.8168  130.9344  151.3642 LP  0  0  0  0  0  0  0  0  0  0  0  0  # atno 17370 bound_to 10713
  157.6494  130.8871  149.9602 LP  0  0  0  0  0  0  0  0  0  0  0  0  # atno 17371 bound_to 10713
  140.7082  134.4490  157.5583 LP  0  0  0  0  0  0  0  0  0  0  0  0  # atno 17394 bound_to 11000
  139.8980  134.8624  156.2020 LP  0  0  0  0  0  0  0  0  0  0  0  0  # atno 17395 bound_to 11000

$$$$
