AV-unprocessed.smi:2176|AV-procd|sdf|8846|dock1
  -GOLD-   2272012 33D 1   1.00000     0.00000
 Structure written by MMmdl.
 29 30  0  0  0  0  0  0  0  0  1 V2000
  148.9514  141.1886  158.6676 O   0  0  0  0  0  0  0  0  0  0  0  0
  148.9345  141.9658  157.7120 C   0  0  0  0  0  0  0  0  0  0  0  0
  148.3968  141.5172  156.3450 C   0  0  0  0  0  0  0  0  0  0  0  0
  149.0932  140.3387  155.8078 N   0  0  0  0  0  0  0  0  0  0  0  0
  150.3607  140.0056  156.2645 C   0  0  0  0  0  0  0  0  0  0  0  0
  151.0543  138.9306  155.8210 C   0  0  0  0  0  0  0  0  0  0  0  0
  150.4814  138.0470  154.8112 C   0  0  0  0  0  0  0  0  0  0  0  0
  151.0318  137.0524  154.3442 O   0  0  0  0  0  0  0  0  0  0  0  0
  149.2038  138.4133  154.3797 N   0  0  0  0  0  0  0  0  0  0  0  0
  148.4826  139.5185  154.8340 C   0  0  0  0  0  0  0  0  0  0  0  0
  147.3588  139.7490  154.3891 O   0  0  0  0  0  0  0  0  0  0  0  0
  149.3897  143.2265  157.7764 N   0  0  0  0  0  0  0  0  0  0  0  0
  149.9620  143.8698  158.9532 C   0  0  0  0  0  0  0  0  0  0  0  0
  151.2047  144.6849  158.6617 C   0  0  0  0  0  0  0  0  0  0  0  0
  152.5765  144.1026  158.9086 C   0  0  0  0  0  0  0  0  0  0  0  0
  152.0654  145.2241  159.7806 C   0  0  0  0  0  0  0  0  0  0  0  0
  148.7655  137.8290  153.6826 H   0  0  0  0  0  0  0  0  0  0  0  0
  147.3248  141.3206  156.4157 H   0  0  0  0  0  0  0  0  0  0  0  0
  148.4891  142.3564  155.6540 H   0  0  0  0  0  0  0  0  0  0  0  0
  150.8232  140.6296  157.0161 H   0  0  0  0  0  0  0  0  0  0  0  0
  152.0381  138.7225  156.2162 H   0  0  0  0  0  0  0  0  0  0  0  0
  149.3389  143.7866  156.9379 H   0  0  0  0  0  0  0  0  0  0  0  0
  149.2015  144.5164  159.3923 H   0  0  0  0  0  0  0  0  0  0  0  0
  150.2172  143.1364  159.7194 H   0  0  0  0  0  0  0  0  0  0  0  0
  151.1179  145.3120  157.7761 H   0  0  0  0  0  0  0  0  0  0  0  0
  152.6347  143.1102  159.3515 H   0  0  0  0  0  0  0  0  0  0  0  0
  153.3602  144.3399  158.1920 H   0  0  0  0  0  0  0  0  0  0  0  0
  152.5064  146.2095  159.6438 H   0  0  0  0  0  0  0  0  0  0  0  0
  151.7843  144.9770  160.8024 H   0  0  0  0  0  0  0  0  0  0  0  0
  1  2  2  0  0  0  0
  2  3  1  0  0  0  0
  2 12  1  0  0  0  0
  3  4  1  0  0  0  0
  3 18  1  0  0  0  0
  3 19  1  0  0  0  0
  4 10  1  0  0  0  0
  4  5  1  0  0  0  0
  5  6  2  0  0  0  0
  5 20  1  0  0  0  0
  6  7  1  0  0  0  0
  6 21  1  0  0  0  0
  7  8  2  0  0  0  0
  7  9  1  0  0  0  0
  9 17  1  0  0  0  0
  9 10  1  0  0  0  0
 10 11  2  0  0  0  0
 12 13  1  0  0  0  0
 12 22  1  0  0  0  0
 13 14  1  0  0  0  0
 13 23  1  0  0  0  0
 13 24  1  0  0  0  0
 14 16  1  0  0  0  0
 14 15  1  0  0  0  0
 14 25  1  0  0  0  0
 15 16  1  0  0  0  0
 15 26  1  0  0  0  0
 15 27  1  0  0  0  0
 16 28  1  0  0  0  0
 16 29  1  0  0  0  0
M  END
> <s_m_source_file>
AV-unprocessed.smi

> <i_m_source_file_index>
2176

> <i_lp_mmshare_version>
43012

> <i_f3d_flags>
0

> <s_epik_input>
W0NIMl0xW0NIMl1bQ0hdMVtDSDJdW05IXUMoPU8pW0NIMl1uMltjSF1bY0hdYyg9TylbbkhdYzI9Tw==

> <s_epik_cmdline>
J2VwaWtfcHl0aG9uJywgJy1waCcsICc3LjAnLCAnLXRuJywgJzgnLCAnLW1hJywgJzIwMCcsICctbWV0YWxfYmluZGluZycsICctaW1hZScsICc8aW5maWxlLm1hZT4nLCAnLW9tYWUnLCAnPG91dGZpbGUubWFlPic=

> <r_lp_tautomer_probability>
0.999537

> <r_epik_Ionization_Penalty>
0.00328917

> <r_epik_Ionization_Penalty_Charging>
0.00328916

> <r_epik_Ionization_Penalty_Neutral>
1.93017e-08

> <r_epik_State_Penalty>
0.00232387

> <r_epik_Charging_Adjusted_Penalty>
0.00561303

> <i_epik_Tot_Q>
0

> <i_epik_Tot_abs_Q>
0

> <r_epik_Metal_State_Penalty>
0.365274

> <b_epik_Metal_Only>
0

> <s_lp_Force_Field>
OPLS_2005

> <r_lp_Energy>
12.7002

> <b_lp_Chiralities_Consistent>
1

> <s_lp_Variant>
AV-unprocessed.smi:2176-1

> <Gold.Version>
5.8.1

> <Gold.Id.Protein>
6NUR|6NUR_protein|mol2

> <Gold.PLP.Fitness>
38.2117

> <Gold.PLP.PLP>
-33.9806

> <Gold.PLP.part.hbond>
-2.2224

> <Gold.PLP.part.metal>
0.0000

> <Gold.PLP.part.buried>
-6.0850

> <Gold.PLP.part.nonpolar>
-27.7197

> <Gold.PLP.part.repulsive>
0.4098

> <Gold.PLP.ligand.clash>
0.0000

> <Gold.PLP.ligand.torsion>
0.7143

> <Gold.PLP.Chemscore.Hbond>
1.7040

> <Gold.PLP.Chemscore.CHOScore>
0.0000

> <Gold.PLP.Chemscore.Metal>
0.0000

> <Gold.Chemscore.Hbonds>
donor molecule, donor type, donor heavy atom, donor atom, acceptor molecule, acceptor atom, score
      L1  H     9    17       P1  7948  0.05
      L1  H    12    22       P1  8028  1.00
      P1  H 10752 10763       L1     8  0.06

> <Gold.PLP.Chemscore.Internal.Correction>
0.5478

> <Gold.Rescore>
     Score         DG    S(hbond)    S(metal)    S(lipo)     H(rot)  DE(clash)    DE(int)     intcor
     13.41     -14.12       1.79        0.00      67.39       2.04       0.11       0.61       ----

> <Gold.Chemscore.Fitness>
13.4057

> <Gold.Chemscore.DG>
-14.1248

> <Gold.Chemscore.ZeroCoef>
-5.4800

> <Gold.Chemscore.Hbond>
1.7875

> <Gold.Chemscore.Metal>
0.0000

> <Gold.Chemscore.Lipo>
67.3883

> <Gold.Chemscore.Internal_Hbond>
0.0000

> <Gold.Chemscore.DEClash>
0.1123

> <Gold.Chemscore.DEInternal>
0.6068

> <Gold.Chemscore.Rot>
2.0351

> <Gold.Chemscore.Internal.Correction>
   9.000000E+99

> <Gold.Chemscore.Hbonds>
donor molecule, donor type, donor heavy atom, donor atom, acceptor molecule, acceptor atom, score
      L1  H     9    17       P1  7948  0.09
      L1  H    12    22       P1  8028  0.78
      P1  H 10752 10763       L1     8  0.11

> <Gold.Chemscore.Hbond.Weighted>
-5.9701

> <Gold.Chemscore.Metal.Weighted>
-0.0000

> <Gold.Chemscore.Lipo.Weighted>
-7.8844

> <Gold.Chemscore.Internal_Hbond.Weighted>
0.0000

> <Gold.Chemscore.DEClash.Weighted>
0.1123

> <Gold.Chemscore.DEInternal.Weighted>
0.6068

> <Gold.Chemscore.Rot.Weighted>
5.2098

> <Gold.Chemscore.Internal.Correction.Weighted>
   9.000000E+99

> <Gold.Protein.RotatedTorsions>
[ 6907 6896 6895 6894 ] final   28.27 input  -60.11 | X-H torsion
[ 7974 7965 7964 7962 ] final -154.66 input  175.53 | X-H torsion
[ 8008 7997 7996 7995 ] final -122.42 input   59.86 | X-H torsion
[ 10167 10162 10161 10158 ] final  -36.14 input  -65.29 | X-H torsion
[ 10718 10713 10712 10709 ] final  119.46 input   66.30 | X-H torsion
[ 10763 10752 10751 10750 ] final   27.95 input  -60.55 | X-H torsion
[ 11005 11000 10999 10996 ] final  -37.06 input  -57.11 | X-H torsion

> <Gold.Protein.ActiveResidues>
 VAL166  LYS551  ARG553  GLY616  TRP617  ASP618  TYR619  PRO620  LYS621  CYS622 
 ASP623  PHE694  ASN695  SER759  ASP760  ASP761  ALA762  ILE779  LEU786  VAL792 
 PHE793  MET794  SER795  GLU796  ALA797  LYS798  CYS799  TRP800  GLU811  SER814 

> <Gold.Protein.RotatedAtoms>
  152.0145  134.9858  160.0568 H   0  0  0  0  0  0  0  0  0  0  0  0  # atno 6907 bound_to 6896
  152.1397  133.4452  159.4769 H   0  0  0  0  0  0  0  0  0  0  0  0  # atno 6908 bound_to 6896
  150.6864  134.2239  159.4450 H   0  0  0  0  0  0  0  0  0  0  0  0  # atno 6909 bound_to 6896
  144.7678  140.4358  143.5929 H   0  0  0  0  0  0  0  0  0  0  0  0  # atno 7974 bound_to 7965
  155.1639  140.0406  157.2848 H   0  0  0  0  0  0  0  0  0  0  0  0  # atno 8008 bound_to 7997
  154.6316  140.2525  155.7399 H   0  0  0  0  0  0  0  0  0  0  0  0  # atno 8009 bound_to 7997
  156.2488  140.2874  156.0671 H   0  0  0  0  0  0  0  0  0  0  0  0  # atno 8010 bound_to 7997
  140.7149  143.3429  151.2319 H   0  0  0  0  0  0  0  0  0  0  0  0  # atno 10167 bound_to 10162
  157.5960  131.1058  150.7899 H   0  0  0  0  0  0  0  0  0  0  0  0  # atno 10718 bound_to 10713
  153.0522  135.6525  154.0664 H   0  0  0  0  0  0  0  0  0  0  0  0  # atno 10763 bound_to 10752
  154.0350  135.2908  155.3365 H   0  0  0  0  0  0  0  0  0  0  0  0  # atno 10764 bound_to 10752
  154.6818  135.5317  153.8340 H   0  0  0  0  0  0  0  0  0  0  0  0  # atno 10765 bound_to 10752
  140.9923  133.6998  156.1872 H   0  0  0  0  0  0  0  0  0  0  0  0  # atno 11005 bound_to 11000
  145.6415  139.1551  143.2913 LP  0  0  0  0  0  0  0  0  0  0  0  0  # atno 17320 bound_to 7965
  146.1801  140.6511  142.9193 LP  0  0  0  0  0  0  0  0  0  0  0  0  # atno 17321 bound_to 7965
  139.6941  143.9643  152.2874 LP  0  0  0  0  0  0  0  0  0  0  0  0  # atno 17342 bound_to 10162
  139.9314  144.6739  150.8359 LP  0  0  0  0  0  0  0  0  0  0  0  0  # atno 17343 bound_to 10162
  156.8310  130.5016  149.5331 LP  0  0  0  0  0  0  0  0  0  0  0  0  # atno 17370 bound_to 10713
  156.1023  130.5978  150.9914 LP  0  0  0  0  0  0  0  0  0  0  0  0  # atno 17371 bound_to 10713
  140.7021  134.4553  157.5585 LP  0  0  0  0  0  0  0  0  0  0  0  0  # atno 17394 bound_to 11000
  139.8998  134.8583  156.1945 LP  0  0  0  0  0  0  0  0  0  0  0  0  # atno 17395 bound_to 11000

$$$$
