AV-unprocessed.smi:348|AV-procd|sdf|2395|dock5
  -GOLD-   2262022323D 1   1.00000     0.00000
 Structure written by MMmdl.
 39 40  0  0  0  0  0  0  0  0  1 V2000
  149.5923  136.4658  159.3727 C   0  0  0  0  0  0  0  0  0  0  0  0
  150.5008  135.7195  158.5788 O   0  0  0  0  0  0  0  0  0  0  0  0
  150.3824  135.9575  157.1836 C   0  0  0  0  0  0  0  0  0  0  0  0
  151.4421  135.1784  156.3824 C   0  0  0  0  0  0  0  0  0  0  0  0
  150.8677  134.0909  155.6150 N   0  0  0  0  0  0  0  0  0  0  0  0
  149.9885  134.2776  154.5446 C   0  0  0  0  0  0  0  0  0  0  0  0
  149.6665  135.5793  154.1877 N   0  0  0  0  0  0  0  0  0  0  0  0
  149.4597  133.2323  153.8424 C   0  0  0  0  0  0  0  0  0  0  0  0
  148.5855  133.4622  152.7789 N   0  0  0  0  0  0  0  0  0  0  0  0
  147.9015  132.5330  151.8917 C   0  0  0  0  0  0  0  0  0  0  0  0
  146.5432  133.0330  151.4376 C   0  0  0  0  0  0  0  0  0  0  0  0
  146.1243  134.3416  151.7608 C   0  0  0  0  0  0  0  0  0  0  0  0
  144.8640  134.8072  151.3379 C   0  0  0  0  0  0  0  0  0  0  0  0
  144.0176  133.9675  150.5885 C   0  0  0  0  0  0  0  0  0  0  0  0
  144.4327  132.6622  150.2613 C   0  0  0  0  0  0  0  0  0  0  0  0
  145.6931  132.1961  150.6835 C   0  0  0  0  0  0  0  0  0  0  0  0
  149.8214  131.8496  154.2035 C   0  0  0  0  0  0  0  0  0  0  0  0
  149.4160  130.8188  153.6686 O   0  0  0  0  0  0  0  0  0  0  0  0
  150.7228  131.7333  155.2588 N   0  0  0  0  0  0  0  0  0  0  0  0
  151.2760  132.7863  155.9756 C   0  0  0  0  0  0  0  0  0  0  0  0
  152.0824  132.5477  156.8752 O   0  0  0  0  0  0  0  0  0  0  0  0
  151.0038  130.8002  155.5226 H   0  0  0  0  0  0  0  0  0  0  0  0
  149.7757  136.2554  160.4262 H   0  0  0  0  0  0  0  0  0  0  0  0
  148.5558  136.2048  159.1602 H   0  0  0  0  0  0  0  0  0  0  0  0
  149.7224  137.5376  159.2188 H   0  0  0  0  0  0  0  0  0  0  0  0
  149.3741  135.7276  156.8352 H   0  0  0  0  0  0  0  0  0  0  0  0
  150.5256  137.0268  157.0269 H   0  0  0  0  0  0  0  0  0  0  0  0
  151.9910  135.8270  155.6976 H   0  0  0  0  0  0  0  0  0  0  0  0
  152.2047  134.7391  157.0238 H   0  0  0  0  0  0  0  0  0  0  0  0
  150.0478  136.3761  154.6768 H   0  0  0  0  0  0  0  0  0  0  0  0
  149.0556  135.7827  153.4098 H   0  0  0  0  0  0  0  0  0  0  0  0
  148.3543  134.4291  152.6051 H   0  0  0  0  0  0  0  0  0  0  0  0
  148.5131  132.3631  151.0050 H   0  0  0  0  0  0  0  0  0  0  0  0
  147.7883  131.5736  152.3985 H   0  0  0  0  0  0  0  0  0  0  0  0
  146.7699  134.9920  152.3330 H   0  0  0  0  0  0  0  0  0  0  0  0
  144.5472  135.8089  151.5880 H   0  0  0  0  0  0  0  0  0  0  0  0
  143.0514  134.3247  150.2640 H   0  0  0  0  0  0  0  0  0  0  0  0
  143.7842  132.0181  149.6861 H   0  0  0  0  0  0  0  0  0  0  0  0
  146.0025  131.1933  150.4273 H   0  0  0  0  0  0  0  0  0  0  0  0
  1  2  1  0  0  0  0
  1 23  1  0  0  0  0
  1 24  1  0  0  0  0
  1 25  1  0  0  0  0
  2  3  1  0  0  0  0
  3  4  1  0  0  0  0
  3 26  1  0  0  0  0
  3 27  1  0  0  0  0
  4  5  1  0  0  0  0
  4 28  1  0  0  0  0
  4 29  1  0  0  0  0
  5 20  1  0  0  0  0
  5  6  1  0  0  0  0
  6  7  1  0  0  0  0
  6  8  2  0  0  0  0
  7 30  1  0  0  0  0
  7 31  1  0  0  0  0
  8  9  1  0  0  0  0
  8 17  1  0  0  0  0
  9 10  1  0  0  0  0
  9 32  1  0  0  0  0
 10 11  1  0  0  0  0
 10 33  1  0  0  0  0
 10 34  1  0  0  0  0
 11 16  1  0  0  0  0
 11 12  2  0  0  0  0
 12 13  1  0  0  0  0
 12 35  1  0  0  0  0
 13 14  2  0  0  0  0
 13 36  1  0  0  0  0
 14 15  1  0  0  0  0
 14 37  1  0  0  0  0
 15 16  2  0  0  0  0
 15 38  1  0  0  0  0
 16 39  1  0  0  0  0
 17 18  2  0  0  0  0
 17 19  1  0  0  0  0
 19 22  1  0  0  0  0
 19 20  1  0  0  0  0
 20 21  2  0  0  0  0
M  END
> <s_m_source_file>
AV-unprocessed.smi

> <i_m_source_file_index>
348

> <i_lp_mmshare_version>
43012

> <i_f3d_flags>
0

> <s_epik_input>
W0NIM11PW0NIMl1bQ0gyXW4xYyhbTkgyXSljKGMoPU8pW25IXWMxPU8pW05IXVtDSDJdYzJbY0hdW2NIXVtjSF1bY0hdW2NIXTI=

> <s_epik_cmdline>
J2VwaWtfcHl0aG9uJywgJy1waCcsICc3LjAnLCAnLXRuJywgJzgnLCAnLW1hJywgJzIwMCcsICctbWV0YWxfYmluZGluZycsICctaW1hZScsICc8aW5maWxlLm1hZT4nLCAnLW9tYWUnLCAnPG91dGZpbGUubWFlPic=

> <r_lp_tautomer_probability>
1

> <r_epik_Ionization_Penalty>
5.85579e-06

> <r_epik_Ionization_Penalty_Charging>
2.30036e-06

> <r_epik_Ionization_Penalty_Neutral>
3.55543e-06

> <r_epik_State_Penalty>
-0

> <r_epik_Charging_Adjusted_Penalty>
2.30036e-06

> <i_epik_Tot_Q>
0

> <i_epik_Tot_abs_Q>
0

> <r_epik_Metal_State_Penalty>
-0

> <b_epik_Metal_Only>
0

> <s_epik_Chemistry_Notes>
This compound has an imine and may undergo hydrolysis.

> <s_lp_Force_Field>
OPLS_2005

> <r_lp_Energy>
18.6076

> <b_lp_Chiralities_Consistent>
1

> <s_lp_Variant>
AV-unprocessed.smi:348-1

> <Gold.Version>
5.8.1

> <Gold.Id.Protein>
6NUR|6NUR_protein|mol2

> <Gold.PLP.Fitness>
45.4479

> <Gold.PLP.PLP>
-34.7712

> <Gold.PLP.part.hbond>
-4.0000

> <Gold.PLP.part.metal>
0.0000

> <Gold.PLP.part.buried>
-0.5112

> <Gold.PLP.part.nonpolar>
-29.4499

> <Gold.PLP.part.repulsive>
0.1001

> <Gold.PLP.ligand.clash>
0.0000

> <Gold.PLP.ligand.torsion>
0.6015

> <Gold.PLP.Chemscore.Hbond>
3.9520

> <Gold.PLP.Chemscore.CHOScore>
0.0000

> <Gold.PLP.Chemscore.Metal>
0.0000

> <Gold.Chemscore.Hbonds>
donor molecule, donor type, donor heavy atom, donor atom, acceptor molecule, acceptor atom, score
      L1  H     7    31       P1  7948  0.90
      L1  H     9    32       P1  7948  0.78
      P1  H  6896  6908       L1     2  0.37

> <Gold.PLP.Chemscore.Internal.Correction>
0.0238

> <Gold.Rescore>
     Score         DG    S(hbond)    S(metal)    S(lipo)     H(rot)  DE(clash)    DE(int)     intcor
     16.30     -18.75       3.36        0.00      63.44       2.10       0.52       1.92       ----

> <Gold.Chemscore.Fitness>
16.2998

> <Gold.Chemscore.DG>
-18.7470

> <Gold.Chemscore.ZeroCoef>
-5.4800

> <Gold.Chemscore.Hbond>
3.3568

> <Gold.Chemscore.Metal>
0.0000

> <Gold.Chemscore.Lipo>
63.4429

> <Gold.Chemscore.Internal_Hbond>
0.0000

> <Gold.Chemscore.DEClash>
0.5222

> <Gold.Chemscore.DEInternal>
1.9250

> <Gold.Chemscore.Rot>
2.0968

> <Gold.Chemscore.Internal.Correction>
   9.000000E+99

> <Gold.Chemscore.Hbonds>
donor molecule, donor type, donor heavy atom, donor atom, acceptor molecule, acceptor atom, score
      L1  H     7    31       P1  7948  0.71
      L1  H     9    32       P1  7948  0.13
      P1  H  6896  6908       L1     2  0.03

> <Gold.Chemscore.Hbond.Weighted>
-11.2118

> <Gold.Chemscore.Metal.Weighted>
-0.0000

> <Gold.Chemscore.Lipo.Weighted>
-7.4228

> <Gold.Chemscore.Internal_Hbond.Weighted>
0.0000

> <Gold.Chemscore.DEClash.Weighted>
0.5222

> <Gold.Chemscore.DEInternal.Weighted>
1.9250

> <Gold.Chemscore.Rot.Weighted>
5.3677

> <Gold.Chemscore.Internal.Correction.Weighted>
   9.000000E+99

> <Gold.Protein.RotatedTorsions>
[ 6907 6896 6895 6894 ] final -156.78 input  -60.11 | X-H torsion
[ 7974 7965 7964 7962 ] final  -22.05 input  175.53 | X-H torsion
[ 8008 7997 7996 7995 ] final -102.14 input   59.86 | X-H torsion
[ 10167 10162 10161 10158 ] final  148.13 input  -65.29 | X-H torsion
[ 10718 10713 10712 10709 ] final  -39.10 input   66.30 | X-H torsion
[ 10763 10752 10751 10750 ] final  -38.43 input  -60.55 | X-H torsion
[ 11005 11000 10999 10996 ] final  -65.70 input  -57.11 | X-H torsion

> <Gold.Protein.ActiveResidues>
 VAL166  LYS551  ARG553  GLY616  TRP617  ASP618  TYR619  PRO620  LYS621  CYS622 
 ASP623  PHE694  ASN695  SER759  ASP760  ASP761  ALA762  ILE779  LEU786  VAL792 
 PHE793  MET794  SER795  GLU796  ALA797  LYS798  CYS799  TRP800  GLU811  SER814 

> <Gold.Protein.RotatedAtoms>
  151.2928  133.4157  159.2634 H   0  0  0  0  0  0  0  0  0  0  0  0  # atno 6907 bound_to 6896
  151.0262  134.9506  159.8097 H   0  0  0  0  0  0  0  0  0  0  0  0  # atno 6908 bound_to 6896
  152.5335  134.2890  159.9088 H   0  0  0  0  0  0  0  0  0  0  0  0  # atno 6909 bound_to 6896
  146.1698  140.4425  142.8537 H   0  0  0  0  0  0  0  0  0  0  0  0  # atno 7974 bound_to 7965
  154.8524  140.0430  157.1613 H   0  0  0  0  0  0  0  0  0  0  0  0  # atno 8008 bound_to 7997
  154.8928  140.2989  155.5341 H   0  0  0  0  0  0  0  0  0  0  0  0  # atno 8009 bound_to 7997
  156.2996  140.2390  156.3946 H   0  0  0  0  0  0  0  0  0  0  0  0  # atno 8010 bound_to 7997
  139.4879  144.5703  151.7068 H   0  0  0  0  0  0  0  0  0  0  0  0  # atno 10167 bound_to 10162
  156.2962  130.4234  149.8188 H   0  0  0  0  0  0  0  0  0  0  0  0  # atno 10718 bound_to 10713
  153.9127  135.6790  153.4750 H   0  0  0  0  0  0  0  0  0  0  0  0  # atno 10763 bound_to 10752
  153.1070  135.4801  154.8965 H   0  0  0  0  0  0  0  0  0  0  0  0  # atno 10764 bound_to 10752
  154.7518  135.3187  154.8498 H   0  0  0  0  0  0  0  0  0  0  0  0  # atno 10765 bound_to 10752
  141.1462  133.6686  156.6027 H   0  0  0  0  0  0  0  0  0  0  0  0  # atno 11005 bound_to 11000
  144.8146  140.6445  143.6393 LP  0  0  0  0  0  0  0  0  0  0  0  0  # atno 17320 bound_to 7965
  145.4371  139.1541  143.3991 LP  0  0  0  0  0  0  0  0  0  0  0  0  # atno 17321 bound_to 7965
  140.5288  144.0762  150.6047 LP  0  0  0  0  0  0  0  0  0  0  0  0  # atno 17342 bound_to 10162
  140.3746  143.2836  152.0240 LP  0  0  0  0  0  0  0  0  0  0  0  0  # atno 17343 bound_to 10162
  156.5583  130.8372  151.3321 LP  0  0  0  0  0  0  0  0  0  0  0  0  # atno 17370 bound_to 10713
  157.7356  130.9765  150.2090 LP  0  0  0  0  0  0  0  0  0  0  0  0  # atno 17371 bound_to 10713
  140.3676  134.7633  157.4577 LP  0  0  0  0  0  0  0  0  0  0  0  0  # atno 17394 bound_to 11000
  140.0736  134.5829  155.8615 LP  0  0  0  0  0  0  0  0  0  0  0  0  # atno 17395 bound_to 11000

$$$$
