AV-unprocessed.smi:1184|AV-procd|sdf|4969|dock4
  -GOLD-   22720 3563D 1   1.00000     0.00000
 Structure written by MMmdl.
 43 44  0  0  0  0  0  0  0  0  2 V2000
  145.1545  135.5169  150.6585 C   0  0  0  0  0  0  0  0  0  0  0  0
  145.0937  136.1185  152.0701 C   0  0  0  0  0  0  0  0  0  0  0  0
  146.2846  136.9452  152.3759 N   0  3  1  0  0  0  0  0  0  0  0  0
  146.3749  138.2099  151.6076 C   0  0  0  0  0  0  0  0  0  0  0  0
  146.8464  139.2961  152.5868 C   0  0  0  0  0  0  0  0  0  0  0  0
  147.3564  138.5227  153.8017 C   0  0  1  0  0  0  0  0  0  0  0  0
  147.3560  139.3227  155.1213 C   0  0  0  0  0  0  0  0  0  0  0  0
  148.5916  140.0793  155.2840 N   0  0  0  0  0  0  0  0  0  0  0  0
  148.9057  140.8290  156.3514 C   0  0  0  0  0  0  0  0  0  0  0  0
  148.2616  140.8246  157.4000 O   0  0  0  0  0  0  0  0  0  0  0  0
  150.0909  141.7782  156.1801 C   0  0  0  0  0  0  0  0  0  0  0  0
  151.3077  141.1494  156.8139 C   0  0  0  0  0  0  0  0  0  0  0  0
  152.0849  140.0582  156.3280 C   0  0  0  0  0  0  0  0  0  0  0  0
  151.9029  139.2720  155.0617 C   0  0  0  0  0  0  0  0  0  0  0  0
  153.0565  139.7324  157.1639 N   0  0  0  0  0  0  0  0  0  0  0  0
  152.9532  140.6229  158.2368 O   0  0  0  0  0  0  0  0  0  0  0  0
  151.9067  141.4556  158.0049 C   0  0  0  0  0  0  0  0  0  0  0  0
  151.6155  142.4744  159.0539 C   0  0  0  0  0  0  0  0  0  0  0  0
  146.4569  137.2863  153.8013 C   0  0  0  0  0  0  0  0  0  0  0  0
  144.2402  134.9671  150.4344 H   0  0  0  0  0  0  0  0  0  0  0  0
  145.9874  134.8214  150.5508 H   0  0  0  0  0  0  0  0  0  0  0  0
  145.2671  136.2944  149.9021 H   0  0  0  0  0  0  0  0  0  0  0  0
  144.2056  136.7471  152.1458 H   0  0  0  0  0  0  0  0  0  0  0  0
  144.9859  135.3291  152.8152 H   0  0  0  0  0  0  0  0  0  0  0  0
  147.0883  138.0760  150.7938 H   0  0  0  0  0  0  0  0  0  0  0  0
  145.4167  138.4873  151.1652 H   0  0  0  0  0  0  0  0  0  0  0  0
  147.6079  139.9470  152.1562 H   0  0  0  0  0  0  0  0  0  0  0  0
  145.9982  139.9215  152.8692 H   0  0  0  0  0  0  0  0  0  0  0  0
  148.3750  138.1954  153.5855 H   0  0  0  0  0  0  0  0  0  0  0  0
  146.4957  139.9925  155.1650 H   0  0  0  0  0  0  0  0  0  0  0  0
  147.2686  138.6456  155.9714 H   0  0  0  0  0  0  0  0  0  0  0  0
  149.1978  140.1355  154.4782 H   0  0  0  0  0  0  0  0  0  0  0  0
  150.2498  141.9726  155.1187 H   0  0  0  0  0  0  0  0  0  0  0  0
  149.8474  142.7390  156.6348 H   0  0  0  0  0  0  0  0  0  0  0  0
  151.1300  138.5131  155.1845 H   0  0  0  0  0  0  0  0  0  0  0  0
  152.8229  138.7670  154.7652 H   0  0  0  0  0  0  0  0  0  0  0  0
  151.6032  139.9195  154.2375 H   0  0  0  0  0  0  0  0  0  0  0  0
  151.4756  143.4594  158.6082 H   0  0  0  0  0  0  0  0  0  0  0  0
  152.4321  142.5436  159.7732 H   0  0  0  0  0  0  0  0  0  0  0  0
  150.7064  142.2164  159.5976 H   0  0  0  0  0  0  0  0  0  0  0  0
  145.4899  137.5252  154.2476 H   0  0  0  0  0  0  0  0  0  0  0  0
  146.8913  136.4555  154.3571 H   0  0  0  0  0  0  0  0  0  0  0  0
  147.0979  136.4064  152.1138 H   0  0  0  0  0  0  0  0  0  0  0  0
  1  2  1  0  0  0  0
  1 20  1  0  0  0  0
  1 21  1  0  0  0  0
  1 22  1  0  0  0  0
  2  3  1  0  0  0  0
  2 23  1  0  0  0  0
  2 24  1  0  0  0  0
  3 19  1  0  0  0  0
  3  4  1  0  0  0  0
  3 43  1  0  0  0  0
  4  5  1  0  0  0  0
  4 25  1  0  0  0  0
  4 26  1  0  0  0  0
  5  6  1  0  0  0  0
  5 27  1  0  0  0  0
  5 28  1  0  0  0  0
  6  7  1  0  0  0  0
  6 19  1  0  0  0  0
  6 29  1  0  0  0  0
  7  8  1  0  0  0  0
  7 30  1  0  0  0  0
  7 31  1  0  0  0  0
  8  9  1  0  0  0  0
  8 32  1  0  0  0  0
  9 10  2  0  0  0  0
  9 11  1  0  0  0  0
 11 12  1  0  0  0  0
 11 33  1  0  0  0  0
 11 34  1  0  0  0  0
 12 17  2  0  0  0  0
 12 13  1  0  0  0  0
 13 14  1  0  0  0  0
 13 15  2  0  0  0  0
 14 35  1  0  0  0  0
 14 36  1  0  0  0  0
 14 37  1  0  0  0  0
 15 16  1  0  0  0  0
 16 17  1  0  0  0  0
 17 18  1  0  0  0  0
 18 38  1  0  0  0  0
 18 39  1  0  0  0  0
 18 40  1  0  0  0  0
 19 41  1  0  0  0  0
 19 42  1  0  0  0  0
M  CHG  1   3   1
M  END
> <s_m_source_file>
AV-unprocessed.smi

> <i_m_source_file_index>
1184

> <i_lp_mmshare_version>
43012

> <i_f3d_flags>
0

> <s_epik_input>
W0NIM11bQ0gyXU4xW0NIMl1bQ0gyXVtDQEhdKFtDSDJdMSlbQ0gyXVtOSF1DKD1PKVtDSDJdYzJjKFtDSDNdKW5vYzJbQ0gzXQ==

> <s_epik_cmdline>
J2VwaWtfcHl0aG9uJywgJy1waCcsICc3LjAnLCAnLXRuJywgJzgnLCAnLW1hJywgJzIwMCcsICctbWV0YWxfYmluZGluZycsICctaW1hZScsICc8aW5maWxlLm1hZT4nLCAnLW9tYWUnLCAnPG91dGZpbGUubWFlPic=

> <r_epik_Ionization_Penalty>
0.000590726

> <r_epik_Ionization_Penalty_Charging>
0.000590692

> <r_epik_Ionization_Penalty_Neutral>
3.44741e-08

> <r_epik_State_Penalty>
0.000371644

> <r_epik_Charging_Adjusted_Penalty>
0.000962336

> <i_epik_Tot_Q>
1

> <i_epik_Tot_abs_Q>
1

> <r_epik_Metal_State_Penalty>
-0

> <b_epik_Metal_Only>
0

> <s_lp_Force_Field>
OPLS_2005

> <r_lp_Energy>
20.0287

> <b_lp_Chiralities_Consistent>
1

> <s_lp_Variant>
AV-unprocessed.smi:1184-1

> <Gold.Version>
5.8.1

> <Gold.Id.Protein>
6NUR|6NUR_protein|mol2

> <Gold.PLP.Fitness>
36.6219

> <Gold.PLP.PLP>
-29.3110

> <Gold.PLP.part.hbond>
-2.8757

> <Gold.PLP.part.metal>
0.0000

> <Gold.PLP.part.buried>
0.5258

> <Gold.PLP.part.nonpolar>
-27.3409

> <Gold.PLP.part.repulsive>
0.1249

> <Gold.PLP.ligand.clash>
0.0000

> <Gold.PLP.ligand.torsion>
0.8559

> <Gold.PLP.Chemscore.Hbond>
3.0000

> <Gold.PLP.Chemscore.CHOScore>
0.0000

> <Gold.PLP.Chemscore.Metal>
0.0000

> <Gold.Chemscore.Hbonds>
donor molecule, donor type, donor heavy atom, donor atom, acceptor molecule, acceptor atom, score
      L1  H     3    43       P1  7948  2.00
      P1  H  7997  8010       L1    15  0.83

> <Gold.PLP.Chemscore.Internal.Correction>
0.0227

> <Gold.Rescore>
     Score         DG    S(hbond)    S(metal)    S(lipo)     H(rot)  DE(clash)    DE(int)     intcor
     14.86     -15.97       1.44        0.00      84.95       1.67       0.26       0.85       ----

> <Gold.Chemscore.Fitness>
14.8567

> <Gold.Chemscore.DG>
-15.9714

> <Gold.Chemscore.ZeroCoef>
-5.4800

> <Gold.Chemscore.Hbond>
1.4442

> <Gold.Chemscore.Metal>
0.0000

> <Gold.Chemscore.Lipo>
84.9492

> <Gold.Chemscore.Internal_Hbond>
0.0000

> <Gold.Chemscore.DEClash>
0.2600

> <Gold.Chemscore.DEInternal>
0.8547

> <Gold.Chemscore.Rot>
1.6684

> <Gold.Chemscore.Internal.Correction>
   9.000000E+99

> <Gold.Chemscore.Hbonds>
donor molecule, donor type, donor heavy atom, donor atom, acceptor molecule, acceptor atom, score
      L1  H     3    43       P1  7948  0.96
      P1  H  7997  8010       L1    15  0.20

> <Gold.Chemscore.Hbond.Weighted>
-4.8236

> <Gold.Chemscore.Metal.Weighted>
-0.0000

> <Gold.Chemscore.Lipo.Weighted>
-9.9391

> <Gold.Chemscore.Internal_Hbond.Weighted>
0.0000

> <Gold.Chemscore.DEClash.Weighted>
0.2600

> <Gold.Chemscore.DEInternal.Weighted>
0.8547

> <Gold.Chemscore.Rot.Weighted>
4.2712

> <Gold.Chemscore.Internal.Correction.Weighted>
   9.000000E+99

> <Gold.Protein.RotatedTorsions>
[ 6907 6896 6895 6894 ] final   96.41 input  -60.11 | X-H torsion
[ 7974 7965 7964 7962 ] final  116.57 input  175.53 | X-H torsion
[ 8008 7997 7996 7995 ] final   60.90 input   59.86 | X-H torsion
[ 10167 10162 10161 10158 ] final -117.14 input  -65.29 | X-H torsion
[ 10718 10713 10712 10709 ] final  106.27 input   66.30 | X-H torsion
[ 10763 10752 10751 10750 ] final    5.79 input  -60.55 | X-H torsion
[ 11005 11000 10999 10996 ] final   86.18 input  -57.11 | X-H torsion

> <Gold.Protein.ActiveResidues>
 VAL166  LYS551  ARG553  GLY616  TRP617  ASP618  TYR619  PRO620  LYS621  CYS622 
 ASP623  PHE694  ASN695  SER759  ASP760  ASP761  ALA762  ILE779  LEU786  VAL792 
 PHE793  MET794  SER795  GLU796  ALA797  LYS798  CYS799  TRP800  GLU811  SER814 

> <Gold.Protein.RotatedAtoms>
  152.5435  134.0891  159.8268 H   0  0  0  0  0  0  0  0  0  0  0  0  # atno 6907 bound_to 6896
  151.0983  133.5256  159.2618 H   0  0  0  0  0  0  0  0  0  0  0  0  # atno 6908 bound_to 6896
  151.2021  135.0455  159.8930 H   0  0  0  0  0  0  0  0  0  0  0  0  # atno 6909 bound_to 6896
  145.1780  139.3065  143.4433 H   0  0  0  0  0  0  0  0  0  0  0  0  # atno 7974 bound_to 7965
  155.5898  140.3492  155.4563 H   0  0  0  0  0  0  0  0  0  0  0  0  # atno 8008 bound_to 7997
  156.0310  140.1274  157.0283 H   0  0  0  0  0  0  0  0  0  0  0  0  # atno 8009 bound_to 7997
  154.4352  140.1043  156.6085 H   0  0  0  0  0  0  0  0  0  0  0  0  # atno 8010 bound_to 7997
  140.0716  143.4871  152.1976 H   0  0  0  0  0  0  0  0  0  0  0  0  # atno 10167 bound_to 10162
  157.6674  131.0847  150.5982 H   0  0  0  0  0  0  0  0  0  0  0  0  # atno 10718 bound_to 10713
  153.2552  135.6918  153.7636 H   0  0  0  0  0  0  0  0  0  0  0  0  # atno 10763 bound_to 10752
  153.6716  135.3343  155.3155 H   0  0  0  0  0  0  0  0  0  0  0  0  # atno 10764 bound_to 10752
  154.8410  135.4501  154.1524 H   0  0  0  0  0  0  0  0  0  0  0  0  # atno 10765 bound_to 10752
  139.8951  134.8338  156.2685 H   0  0  0  0  0  0  0  0  0  0  0  0  # atno 11005 bound_to 11000
  146.3458  140.1949  142.8589 LP  0  0  0  0  0  0  0  0  0  0  0  0  # atno 17320 bound_to 7965
  145.0165  140.8758  143.5192 LP  0  0  0  0  0  0  0  0  0  0  0  0  # atno 17321 bound_to 7965
  139.5832  144.7520  151.3586 LP  0  0  0  0  0  0  0  0  0  0  0  0  # atno 17342 bound_to 10162
  140.7122  143.7359  150.7589 LP  0  0  0  0  0  0  0  0  0  0  0  0  # atno 17343 bound_to 10162
  156.6283  130.4425  149.5796 LP  0  0  0  0  0  0  0  0  0  0  0  0  # atno 17370 bound_to 10713
  156.2302  130.6790  151.1456 LP  0  0  0  0  0  0  0  0  0  0  0  0  # atno 17371 bound_to 10713
  141.0116  133.7092  156.1121 LP  0  0  0  0  0  0  0  0  0  0  0  0  # atno 17394 bound_to 11000
  140.7359  134.4203  157.5560 LP  0  0  0  0  0  0  0  0  0  0  0  0  # atno 17395 bound_to 11000

$$$$
