AV-unprocessed.smi:2451|AV-procd|sdf|9684|dock8
  -GOLD-   2272013323D 1   1.00000     0.00000
 Structure written by MMmdl.
 37 38  0  0  0  0  0  0  0  0  2 V2000
  153.2121  142.9648  162.7837 C   0  0  0  0  0  0  0  0  0  0  0  0
  152.5197  143.0782  161.4130 C   0  0  1  0  0  0  0  0  0  0  0  0
  152.2632  144.5736  161.0972 C   0  0  0  0  0  0  0  0  0  0  0  0
  151.5846  144.7308  159.7229 C   0  0  0  0  0  0  0  0  0  0  0  0
  152.3721  144.0321  158.5877 C   0  0  0  0  0  0  0  0  0  0  0  0
  152.6601  142.5356  158.8557 C   0  0  2  0  0  0  0  0  0  0  0  0
  151.4178  141.7757  158.7655 N   0  5  0  0  0  0  0  0  0  0  0  0
  151.4186  140.3134  158.0667 S   0  0  0  0  0  0  0  0  0  0  0  0
  152.7427  139.6710  158.1006 O   0  0  0  0  0  0  0  0  0  0  0  0
  150.2675  139.4904  158.4735 O   0  0  0  0  0  0  0  0  0  0  0  0
  151.1183  140.7811  156.3091 C   0  0  0  0  0  0  0  0  0  0  0  0
  151.0717  139.5513  155.4469 C   0  0  0  0  0  0  0  0  0  0  0  0
  149.9781  139.0416  154.6931 C   0  0  0  0  0  0  0  0  0  0  0  0
  150.4906  137.9220  154.1043 C   0  0  0  0  0  0  0  0  0  0  0  0
  151.7910  137.7543  154.4531 O   0  0  0  0  0  0  0  0  0  0  0  0
  152.1544  138.8017  155.3073 N   0  0  0  0  0  0  0  0  0  0  0  0
  153.3178  142.3664  160.2651 C   0  0  2  0  0  0  0  0  0  0  0  0
  153.6653  140.8902  160.5844 C   0  0  0  0  0  0  0  0  0  0  0  0
  154.2314  143.3501  162.7463 H   0  0  0  0  0  0  0  0  0  0  0  0
  153.2525  141.9333  163.1325 H   0  0  0  0  0  0  0  0  0  0  0  0
  152.6718  143.5309  163.5429 H   0  0  0  0  0  0  0  0  0  0  0  0
  151.5472  142.5920  161.5171 H   0  0  0  0  0  0  0  0  0  0  0  0
  151.6401  145.0258  161.8695 H   0  0  0  0  0  0  0  0  0  0  0  0
  153.2081  145.1187  161.0989 H   0  0  0  0  0  0  0  0  0  0  0  0
  150.5665  144.3401  159.7739 H   0  0  0  0  0  0  0  0  0  0  0  0
  151.4812  145.7910  159.4908 H   0  0  0  0  0  0  0  0  0  0  0  0
  151.8415  144.1490  157.6417 H   0  0  0  0  0  0  0  0  0  0  0  0
  153.3228  144.5508  158.4588 H   0  0  0  0  0  0  0  0  0  0  0  0
  153.3803  142.2010  158.1077 H   0  0  0  0  0  0  0  0  0  0  0  0
  150.1757  141.3256  156.2588 H   0  0  0  0  0  0  0  0  0  0  0  0
  151.9115  141.4604  155.9962 H   0  0  0  0  0  0  0  0  0  0  0  0
  148.9758  139.4335  154.6061 H   0  0  0  0  0  0  0  0  0  0  0  0
  150.0771  137.1771  153.4406 H   0  0  0  0  0  0  0  0  0  0  0  0
  154.2772  142.8824  160.2021 H   0  0  0  0  0  0  0  0  0  0  0  0
  152.7733  140.2954  160.7886 H   0  0  0  0  0  0  0  0  0  0  0  0
  154.3100  140.8158  161.4592 H   0  0  0  0  0  0  0  0  0  0  0  0
  154.2098  140.4039  159.7722 H   0  0  0  0  0  0  0  0  0  0  0  0
  1  2  1  0  0  0  0
  1 19  1  0  0  0  0
  1 20  1  0  0  0  0
  1 21  1  0  0  0  0
  2 17  1  0  0  0  0
  2  3  1  0  0  0  0
  2 22  1  0  0  0  0
  3  4  1  0  0  0  0
  3 23  1  0  0  0  0
  3 24  1  0  0  0  0
  4  5  1  0  0  0  0
  4 25  1  0  0  0  0
  4 26  1  0  0  0  0
  5  6  1  0  0  0  0
  5 27  1  0  0  0  0
  5 28  1  0  0  0  0
  6  7  1  0  0  0  0
  6 17  1  0  0  0  0
  6 29  1  0  0  0  0
  7  8  1  0  0  0  0
  8  9  2  0  0  0  0
  8 10  2  0  0  0  0
  8 11  1  0  0  0  0
 11 12  1  0  0  0  0
 11 30  1  0  0  0  0
 11 31  1  0  0  0  0
 12 16  2  0  0  0  0
 12 13  1  0  0  0  0
 13 14  2  0  0  0  0
 13 32  1  0  0  0  0
 14 15  1  0  0  0  0
 14 33  1  0  0  0  0
 15 16  1  0  0  0  0
 17 18  1  0  0  0  0
 17 34  1  0  0  0  0
 18 35  1  0  0  0  0
 18 36  1  0  0  0  0
 18 37  1  0  0  0  0
M  CHG  1   7  -1
M  END
> <s_m_source_file>
AV-unprocessed.smi

> <i_m_source_file_index>
2451

> <i_lp_mmshare_version>
43012

> <i_f3d_flags>
0

> <s_epik_input>
W0NIM11bQ0BASF0xW0NIMl1bQ0gyXVtDSDJdW0NASF0oW0NASF0xW0NIM10pW05IXVMoPU8pKD1PKVtDSDJdYzJbY0hdW2NIXW9uMg==

> <s_epik_cmdline>
J2VwaWtfcHl0aG9uJywgJy1waCcsICc3LjAnLCAnLXRuJywgJzgnLCAnLW1hJywgJzIwMCcsICctbWV0YWxfYmluZGluZycsICctaW1hZScsICc8aW5maWxlLm1hZT4nLCAnLW9tYWUnLCAnPG91dGZpbGUubWFlPic=

> <r_lp_tautomer_probability>
1

> <r_epik_Ionization_Penalty>
5.22693

> <r_epik_Ionization_Penalty_Charging>
5.22693

> <r_epik_Ionization_Penalty_Neutral>
2.67702e-10

> <r_epik_State_Penalty>
5.22685

> <r_epik_Charging_Adjusted_Penalty>
10.4538

> <i_epik_Tot_Q>
-1

> <i_epik_Tot_abs_Q>
1

> <r_epik_Metal_State_Penalty>
1.28716

> <b_epik_Metal_Only>
1

> <s_lp_Force_Field>
OPLS_2005

> <r_lp_Energy>
15.3657

> <b_lp_Chiralities_Consistent>
1

> <s_lp_Variant>
AV-unprocessed.smi:2451-16

> <Gold.Version>
5.8.1

> <Gold.Id.Protein>
6NUR|6NUR_protein|mol2

> <Gold.PLP.Fitness>
55.0794

> <Gold.PLP.PLP>
-47.9757

> <Gold.PLP.part.hbond>
-2.4378

> <Gold.PLP.part.metal>
0.0000

> <Gold.PLP.part.buried>
-6.1213

> <Gold.PLP.part.nonpolar>
-39.5371

> <Gold.PLP.part.repulsive>
0.0826

> <Gold.PLP.ligand.clash>
0.0000

> <Gold.PLP.ligand.torsion>
0.8120

> <Gold.PLP.Chemscore.Hbond>
1.5460

> <Gold.PLP.Chemscore.CHOScore>
1.0343

> <Gold.PLP.Chemscore.Metal>
0.0000

> <Gold.Chemscore.Hbonds>
donor molecule, donor type, donor heavy atom, donor atom, acceptor molecule, acceptor atom, score
      P1  H  7997  8008       L1     9  0.68
      P1  H 10752 10763       L1    15  0.09
      L1  C    14    33       P1  7948  0.97
      L1  C    14    33       P1  7949  0.02

> <Gold.PLP.Chemscore.Internal.Correction>
0.9868

> <Gold.Rescore>
     Score         DG    S(hbond)    S(metal)    S(lipo)     H(rot)  DE(clash)    DE(int)     intcor
     21.57     -22.47       1.87        0.00     122.43       1.40       0.03       0.87       ----

> <Gold.Chemscore.Fitness>
21.5690

> <Gold.Chemscore.DG>
-22.4682

> <Gold.Chemscore.ZeroCoef>
-5.4800

> <Gold.Chemscore.Hbond>
1.8695

> <Gold.Chemscore.Metal>
0.0000

> <Gold.Chemscore.Lipo>
122.4320

> <Gold.Chemscore.Internal_Hbond>
0.0000

> <Gold.Chemscore.DEClash>
0.0315

> <Gold.Chemscore.DEInternal>
0.8678

> <Gold.Chemscore.Rot>
1.3986

> <Gold.Chemscore.Internal.Correction>
   9.000000E+99

> <Gold.Chemscore.Hbonds>
donor molecule, donor type, donor heavy atom, donor atom, acceptor molecule, acceptor atom, score
      P1  H  7997  8008       L1     9  0.69
      P1  H 10752 10763       L1    15  0.11

> <Gold.Chemscore.Hbond.Weighted>
-6.2441

> <Gold.Chemscore.Metal.Weighted>
-0.0000

> <Gold.Chemscore.Lipo.Weighted>
-14.3245

> <Gold.Chemscore.Internal_Hbond.Weighted>
0.0000

> <Gold.Chemscore.DEClash.Weighted>
0.0315

> <Gold.Chemscore.DEInternal.Weighted>
0.8678

> <Gold.Chemscore.Rot.Weighted>
3.5804

> <Gold.Chemscore.Internal.Correction.Weighted>
   9.000000E+99

> <Gold.Protein.RotatedTorsions>
[ 6907 6896 6895 6894 ] final  103.17 input  -60.11 | X-H torsion
[ 7974 7965 7964 7962 ] final -174.95 input  175.53 | X-H torsion
[ 8008 7997 7996 7995 ] final  -81.22 input   59.86 | X-H torsion
[ 10167 10162 10161 10158 ] final -161.79 input  -65.29 | X-H torsion
[ 10718 10713 10712 10709 ] final -169.22 input   66.30 | X-H torsion
[ 10763 10752 10751 10750 ] final   40.73 input  -60.55 | X-H torsion
[ 11005 11000 10999 10996 ] final  105.55 input  -57.11 | X-H torsion

> <Gold.Protein.ActiveResidues>
 VAL166  LYS551  ARG553  GLY616  TRP617  ASP618  TYR619  PRO620  LYS621  CYS622 
 ASP623  PHE694  ASN695  SER759  ASP760  ASP761  ALA762  ILE779  LEU786  VAL792 
 PHE793  MET794  SER795  GLU796  ALA797  LYS798  CYS799  TRP800  GLU811  SER814 

> <Gold.Protein.RotatedAtoms>
  152.5303  133.9866  159.7830 H   0  0  0  0  0  0  0  0  0  0  0  0  # atno 6907 bound_to 6896
  151.0110  133.5958  159.2690 H   0  0  0  0  0  0  0  0  0  0  0  0  # atno 6908 bound_to 6896
  151.3032  135.0781  159.9299 H   0  0  0  0  0  0  0  0  0  0  0  0  # atno 6909 bound_to 6896
  144.7130  140.1394  143.6393 H   0  0  0  0  0  0  0  0  0  0  0  0  # atno 7974 bound_to 7965
  154.5961  140.0651  156.9305 H   0  0  0  0  0  0  0  0  0  0  0  0  # atno 8008 bound_to 7997
  155.2212  140.3330  155.4297 H   0  0  0  0  0  0  0  0  0  0  0  0  # atno 8009 bound_to 7997
  156.2288  140.1831  156.7280 H   0  0  0  0  0  0  0  0  0  0  0  0  # atno 8010 bound_to 7997
  139.6439  144.0208  152.2113 H   0  0  0  0  0  0  0  0  0  0  0  0  # atno 10167 bound_to 10162
  156.7083  130.9223  151.3087 H   0  0  0  0  0  0  0  0  0  0  0  0  # atno 10718 bound_to 10713
  152.9928  135.6183  154.2673 H   0  0  0  0  0  0  0  0  0  0  0  0  # atno 10763 bound_to 10752
  154.2407  135.2788  155.2856 H   0  0  0  0  0  0  0  0  0  0  0  0  # atno 10764 bound_to 10752
  154.5372  135.5771  153.6866 H   0  0  0  0  0  0  0  0  0  0  0  0  # atno 10765 bound_to 10752
  139.8803  134.9339  156.5531 H   0  0  0  0  0  0  0  0  0  0  0  0  # atno 11005 bound_to 11000
  145.9216  139.2549  143.1378 LP  0  0  0  0  0  0  0  0  0  0  0  0  # atno 17320 bound_to 7965
  145.9615  140.8832  143.0208 LP  0  0  0  0  0  0  0  0  0  0  0  0  # atno 17321 bound_to 7965
  139.9905  144.6365  150.7819 LP  0  0  0  0  0  0  0  0  0  0  0  0  # atno 17342 bound_to 10162
  140.7505  143.2956  151.3214 LP  0  0  0  0  0  0  0  0  0  0  0  0  # atno 17343 bound_to 10162
  157.6946  130.9268  150.0608 LP  0  0  0  0  0  0  0  0  0  0  0  0  # atno 17370 bound_to 10713
  156.1679  130.3645  149.9206 LP  0  0  0  0  0  0  0  0  0  0  0  0  # atno 17371 bound_to 10713
  140.8225  133.8342  155.8909 LP  0  0  0  0  0  0  0  0  0  0  0  0  # atno 17394 bound_to 11000
  140.9405  134.1907  157.4801 LP  0  0  0  0  0  0  0  0  0  0  0  0  # atno 17395 bound_to 11000

$$$$
