AV-unprocessed.smi:1399|AV-procd|sdf|5684|dock8
  -GOLD-   22720 5313D 1   1.00000     0.00000
 Structure written by MMmdl.
 37 38  0  0  0  0  0  0  0  0  3 V2000
  149.0299  142.2993  154.3789 N   0  5  0  0  0  0  0  0  0  0  0  0
  148.2434  141.3721  154.9578 C   0  0  0  0  0  0  0  0  0  0  0  0
  148.5813  140.4478  155.6945 O   0  0  0  0  0  0  0  0  0  0  0  0
  146.7603  141.5740  154.6294 C   0  0  0  0  0  0  0  0  0  0  0  0
  146.2762  140.4772  153.7546 N   0  3  2  0  0  0  0  0  0  0  0  0
  146.0817  139.2065  154.4981 C   0  0  0  0  0  0  0  0  0  0  0  0
  145.4449  138.1297  153.6030 C   0  0  0  0  0  0  0  0  0  0  0  0
  146.2858  137.8898  152.3391 C   0  0  1  0  0  0  0  0  0  0  0  0
  145.6167  136.9263  151.4698 N   0  0  0  0  0  0  0  0  0  0  0  0
  145.5936  135.5997  151.6646 C   0  0  0  0  0  0  0  0  0  0  0  0
  146.1377  135.0431  152.6182 O   0  0  0  0  0  0  0  0  0  0  0  0
  144.9138  134.9739  150.6902 N   0  0  0  0  0  0  0  0  0  0  0  0
  144.6804  133.5811  150.5673 C   0  0  0  0  0  0  0  0  0  0  0  0
  143.7269  132.8932  149.7603 C   0  0  0  0  0  0  0  0  0  0  0  0
  143.8212  131.5807  149.9204 N   0  0  0  0  0  0  0  0  0  0  0  0
  144.8212  131.4244  150.8168 N   0  0  0  0  0  0  0  0  0  0  0  0
  145.3725  132.6154  151.2351 C   0  0  0  0  0  0  0  0  0  0  0  0
  146.5049  139.2259  151.6067 C   0  0  0  0  0  0  0  0  0  0  0  0
  147.1179  140.2795  152.5436 C   0  0  0  0  0  0  0  0  0  0  0  0
  145.1116  130.5089  151.1297 H   0  0  0  0  0  0  0  0  0  0  0  0
  149.2683  143.1450  154.9109 H   0  0  0  0  0  0  0  0  0  0  0  0
  146.1358  141.6565  155.5218 H   0  0  0  0  0  0  0  0  0  0  0  0
  146.6817  142.5291  154.1084 H   0  0  0  0  0  0  0  0  0  0  0  0
  147.0418  138.8591  154.8830 H   0  0  0  0  0  0  0  0  0  0  0  0
  145.4371  139.3797  155.3606 H   0  0  0  0  0  0  0  0  0  0  0  0
  145.3396  137.2006  154.1643 H   0  0  0  0  0  0  0  0  0  0  0  0
  144.4362  138.4407  153.3263 H   0  0  0  0  0  0  0  0  0  0  0  0
  147.2539  137.4873  152.6443 H   0  0  0  0  0  0  0  0  0  0  0  0
  145.1422  137.2958  150.6589 H   0  0  0  0  0  0  0  0  0  0  0  0
  144.5285  135.5512  149.9572 H   0  0  0  0  0  0  0  0  0  0  0  0
  142.9861  133.2820  149.0778 H   0  0  0  0  0  0  0  0  0  0  0  0
  146.1811  132.6677  151.9490 H   0  0  0  0  0  0  0  0  0  0  0  0
  147.1567  139.0814  150.7443 H   0  0  0  0  0  0  0  0  0  0  0  0
  145.5555  139.5970  151.2175 H   0  0  0  0  0  0  0  0  0  0  0  0
  147.2234  141.2183  151.9995 H   0  0  0  0  0  0  0  0  0  0  0  0
  148.1221  139.9755  152.8429 H   0  0  0  0  0  0  0  0  0  0  0  0
  145.3622  140.7653  153.4353 H   0  0  0  0  0  0  0  0  0  0  0  0
  1  2  1  0  0  0  0
  1 21  1  0  0  0  0
  2  3  2  0  0  0  0
  2  4  1  0  0  0  0
  4  5  1  0  0  0  0
  4 22  1  0  0  0  0
  4 23  1  0  0  0  0
  5 19  1  0  0  0  0
  5  6  1  0  0  0  0
  5 37  1  0  0  0  0
  6  7  1  0  0  0  0
  6 24  1  0  0  0  0
  6 25  1  0  0  0  0
  7  8  1  0  0  0  0
  7 26  1  0  0  0  0
  7 27  1  0  0  0  0
  8  9  1  0  0  0  0
  8 18  1  0  0  0  0
  8 28  1  0  0  0  0
  9 10  1  0  0  0  0
  9 29  1  0  0  0  0
 10 11  2  0  0  0  0
 10 12  1  0  0  0  0
 12 13  1  0  0  0  0
 12 30  1  0  0  0  0
 13 17  2  0  0  0  0
 13 14  1  0  0  0  0
 14 15  2  0  0  0  0
 14 31  1  0  0  0  0
 15 16  1  0  0  0  0
 16 20  1  0  0  0  0
 16 17  1  0  0  0  0
 17 32  1  0  0  0  0
 18 19  1  0  0  0  0
 18 33  1  0  0  0  0
 18 34  1  0  0  0  0
 19 35  1  0  0  0  0
 19 36  1  0  0  0  0
M  CHG  1   1  -1
M  CHG  1   5   1
M  END
> <s_m_source_file>
AV-unprocessed.smi

> <i_m_source_file_index>
1399

> <i_lp_mmshare_version>
43012

> <i_f3d_flags>
0

> <s_epik_input>
W05IMl1DKD1PKVtDSDJdTjFbQ0gyXVtDSDJdW0NIXShbQ0gyXVtDSDJdMSlbTkhdQyg9TylbTkhdYzJbY0hdbltuSF1bY0hdMg==

> <s_epik_cmdline>
J2VwaWtfcHl0aG9uJywgJy1waCcsICc3LjAnLCAnLXRuJywgJzgnLCAnLW1hJywgJzIwMCcsICctbWV0YWxfYmluZGluZycsICctaW1hZScsICc8aW5maWxlLm1hZT4nLCAnLW9tYWUnLCAnPG91dGZpbGUubWFlPic=

> <r_lp_tautomer_probability>
0.5

> <r_epik_Ionization_Penalty>
5.72885

> <r_epik_Ionization_Penalty_Charging>
5.7288

> <r_epik_Ionization_Penalty_Neutral>
4.21226e-05

> <r_epik_State_Penalty>
6.54882

> <r_epik_Charging_Adjusted_Penalty>
12.2776

> <i_epik_Tot_Q>
0

> <i_epik_Tot_abs_Q>
2

> <r_epik_Metal_State_Penalty>
2.51297

> <b_epik_Metal_Only>
1

> <s_lp_Force_Field>
OPLS_2005

> <r_lp_Energy>
11.0753

> <b_lp_Chiralities_Consistent>
1

> <s_lp_Variant>
AV-unprocessed.smi:1399-4

> <Gold.Version>
5.8.1

> <Gold.Id.Protein>
6NUR|6NUR_protein|mol2

> <Gold.PLP.Fitness>
45.6250

> <Gold.PLP.PLP>
-28.6818

> <Gold.PLP.part.hbond>
-5.1607

> <Gold.PLP.part.metal>
0.0000

> <Gold.PLP.part.buried>
0.2770

> <Gold.PLP.part.nonpolar>
-24.9479

> <Gold.PLP.part.repulsive>
0.6292

> <Gold.PLP.ligand.clash>
0.0000

> <Gold.PLP.ligand.torsion>
0.4553

> <Gold.PLP.Chemscore.Hbond>
4.9456

> <Gold.PLP.Chemscore.CHOScore>
0.9998

> <Gold.PLP.Chemscore.Metal>
0.0000

> <Gold.Chemscore.Hbonds>
donor molecule, donor type, donor heavy atom, donor atom, acceptor molecule, acceptor atom, score
      L1  H     1    21       P1  8028  1.00
      L1  H     5    37       P1 10175  2.00
      L1  H     9    29       P1 10171  1.00
      P1  H  8011  8017       L1     1  0.15
      P1  H 10785 10796       L1    15  0.80
      L1  C    14    31       P1 10186  0.99

> <Gold.PLP.Chemscore.Internal.Correction>
0.0177

> <Gold.Rescore>
     Score         DG    S(hbond)    S(metal)    S(lipo)     H(rot)  DE(clash)    DE(int)     intcor
     17.20     -20.17       3.76        0.00      63.41       2.06       1.14       1.84       ----

> <Gold.Chemscore.Fitness>
17.1997

> <Gold.Chemscore.DG>
-20.1719

> <Gold.Chemscore.ZeroCoef>
-5.4800

> <Gold.Chemscore.Hbond>
3.7551

> <Gold.Chemscore.Metal>
0.0000

> <Gold.Chemscore.Lipo>
63.4120

> <Gold.Chemscore.Internal_Hbond>
0.0000

> <Gold.Chemscore.DEClash>
1.1372

> <Gold.Chemscore.DEInternal>
1.8351

> <Gold.Chemscore.Rot>
2.0584

> <Gold.Chemscore.Internal.Correction>
   9.000000E+99

> <Gold.Chemscore.Hbonds>
donor molecule, donor type, donor heavy atom, donor atom, acceptor molecule, acceptor atom, score
      L1  H     1    21       P1  8028  0.97
      L1  H     5    37       P1 10175  0.82
      L1  H     9    29       P1 10171  0.93
      P1  H  8011  8017       L1     1  0.11
      P1  H 10785 10796       L1    15  0.78

> <Gold.Chemscore.Hbond.Weighted>
-12.5422

> <Gold.Chemscore.Metal.Weighted>
-0.0000

> <Gold.Chemscore.Lipo.Weighted>
-7.4192

> <Gold.Chemscore.Internal_Hbond.Weighted>
0.0000

> <Gold.Chemscore.DEClash.Weighted>
1.1372

> <Gold.Chemscore.DEInternal.Weighted>
1.8351

> <Gold.Chemscore.Rot.Weighted>
5.2695

> <Gold.Chemscore.Internal.Correction.Weighted>
   9.000000E+99

> <Gold.Protein.RotatedTorsions>
[ 6907 6896 6895 6894 ] final   56.18 input  -60.11 | X-H torsion
[ 7974 7965 7964 7962 ] final   37.50 input  175.53 | X-H torsion
[ 8008 7997 7996 7995 ] final  -92.20 input   59.86 | X-H torsion
[ 10167 10162 10161 10158 ] final -120.76 input  -65.29 | X-H torsion
[ 10718 10713 10712 10709 ] final   22.44 input   66.30 | X-H torsion
[ 10763 10752 10751 10750 ] final -109.96 input  -60.55 | X-H torsion
[ 11005 11000 10999 10996 ] final  167.61 input  -57.11 | X-H torsion

> <Gold.Protein.ActiveResidues>
 VAL166  LYS551  ARG553  GLY616  TRP617  ASP618  TYR619  PRO620  LYS621  CYS622 
 ASP623  PHE694  ASN695  SER759  ASP760  ASP761  ALA762  ILE779  LEU786  VAL792 
 PHE793  MET794  SER795  GLU796  ALA797  LYS798  CYS799  TRP800  GLU811  SER814 

> <Gold.Protein.RotatedAtoms>
  152.3611  134.6870  160.0206 H   0  0  0  0  0  0  0  0  0  0  0  0  # atno 6907 bound_to 6896
  151.7193  133.3308  159.3319 H   0  0  0  0  0  0  0  0  0  0  0  0  # atno 6908 bound_to 6896
  150.7606  134.6397  159.6275 H   0  0  0  0  0  0  0  0  0  0  0  0  # atno 6909 bound_to 6896
  146.1133  139.5887  142.9338 H   0  0  0  0  0  0  0  0  0  0  0  0  # atno 7974 bound_to 7965
  154.7201  140.0511  157.0631 H   0  0  0  0  0  0  0  0  0  0  0  0  # atno 8008 bound_to 7997
  155.0438  140.3171  155.4696 H   0  0  0  0  0  0  0  0  0  0  0  0  # atno 8009 bound_to 7997
  156.2814  140.2128  156.5563 H   0  0  0  0  0  0  0  0  0  0  0  0  # atno 8010 bound_to 7997
  140.0324  143.5235  152.2170 H   0  0  0  0  0  0  0  0  0  0  0  0  # atno 10167 bound_to 10162
  157.1524  130.6680  149.6016 H   0  0  0  0  0  0  0  0  0  0  0  0  # atno 10718 bound_to 10713
  154.8222  135.4581  154.0813 H   0  0  0  0  0  0  0  0  0  0  0  0  # atno 10763 bound_to 10752
  153.2157  135.6887  153.8067 H   0  0  0  0  0  0  0  0  0  0  0  0  # atno 10764 bound_to 10752
  153.7502  135.3299  155.3296 H   0  0  0  0  0  0  0  0  0  0  0  0  # atno 10765 bound_to 10752
  140.2785  134.7769  157.3738 H   0  0  0  0  0  0  0  0  0  0  0  0  # atno 11005 bound_to 11000
  145.5619  141.0403  143.2222 LP  0  0  0  0  0  0  0  0  0  0  0  0  # atno 17320 bound_to 7965
  144.7530  139.7144  143.7265 LP  0  0  0  0  0  0  0  0  0  0  0  0  # atno 17321 bound_to 7965
  139.6067  144.7598  151.3045 LP  0  0  0  0  0  0  0  0  0  0  0  0  # atno 17342 bound_to 10162
  140.7296  143.6902  150.7928 LP  0  0  0  0  0  0  0  0  0  0  0  0  # atno 17343 bound_to 10162
  155.9768  130.4740  150.6552 LP  0  0  0  0  0  0  0  0  0  0  0  0  # atno 17370 bound_to 10713
  157.4208  131.0836  151.1133 LP  0  0  0  0  0  0  0  0  0  0  0  0  # atno 17371 bound_to 10713
  140.1305  134.5101  155.8109 LP  0  0  0  0  0  0  0  0  0  0  0  0  # atno 17394 bound_to 11000
  141.2166  133.6788  156.7031 LP  0  0  0  0  0  0  0  0  0  0  0  0  # atno 17395 bound_to 11000

$$$$
