AV-unprocessed.smi:1655|AV-procd|sdf|6644|dock8
  -GOLD-   22720 7343D 1   1.00000     0.00000
 Structure written by MMmdl.
 34 35  0  0  0  0  0  0  0  0  1 V2000
  150.6779  142.1160  156.5907 C   0  0  0  0  0  0  0  0  0  0  0  0
  150.4558  141.0095  155.6173 C   0  0  0  0  0  0  0  0  0  0  0  0
  149.3489  140.5647  154.9506 C   0  0  0  0  0  0  0  0  0  0  0  0
  149.8498  139.4741  154.1905 C   0  0  0  0  0  0  0  0  0  0  0  0
  148.9947  138.7226  153.3445 N   0  0  0  0  0  0  0  0  0  0  0  0
  147.6655  138.8558  153.1952 C   0  0  0  0  0  0  0  0  0  0  0  0
  146.9629  139.6736  153.7901 O   0  0  0  0  0  0  0  0  0  0  0  0
  147.1856  137.9773  152.3029 N   0  0  0  0  0  0  0  0  0  0  0  0
  145.7859  137.8615  151.9092 C   0  0  0  0  0  0  0  0  0  0  0  0
  145.2100  136.4799  152.2621 C   0  0  0  0  0  0  0  0  0  0  0  0
  145.5949  135.4000  151.2400 C   0  0  2  0  0  0  0  0  0  0  0  0
  144.4012  134.6842  150.6119 C   0  0  0  0  0  0  0  0  0  0  0  0
  144.9785  133.3449  150.1811 C   0  0  0  0  0  0  0  0  0  0  0  0
  146.3005  133.2420  150.9483 C   0  0  0  0  0  0  0  0  0  0  0  0
  146.2906  134.3312  151.8610 O   0  0  0  0  0  0  0  0  0  0  0  0
  151.1458  139.2732  154.3750 N   0  0  0  0  0  0  0  0  0  0  0  0
  151.5408  140.2564  155.2898 O   0  0  0  0  0  0  0  0  0  0  0  0
  149.7311  142.5586  156.9007 H   0  0  0  0  0  0  0  0  0  0  0  0
  151.2902  142.9021  156.1488 H   0  0  0  0  0  0  0  0  0  0  0  0
  151.1876  141.7503  157.4820 H   0  0  0  0  0  0  0  0  0  0  0  0
  148.3444  140.9577  155.0024 H   0  0  0  0  0  0  0  0  0  0  0  0
  149.4441  138.0100  152.7892 H   0  0  0  0  0  0  0  0  0  0  0  0
  147.8351  137.3416  151.8633 H   0  0  0  0  0  0  0  0  0  0  0  0
  145.2258  138.6406  152.4267 H   0  0  0  0  0  0  0  0  0  0  0  0
  145.6787  138.0608  150.8414 H   0  0  0  0  0  0  0  0  0  0  0  0
  145.5475  136.1792  153.2550 H   0  0  0  0  0  0  0  0  0  0  0  0
  144.1227  136.5482  152.3142 H   0  0  0  0  0  0  0  0  0  0  0  0
  146.2238  135.8262  150.4560 H   0  0  0  0  0  0  0  0  0  0  0  0
  143.6239  134.5205  151.3597 H   0  0  0  0  0  0  0  0  0  0  0  0
  143.9610  135.2433  149.7859 H   0  0  0  0  0  0  0  0  0  0  0  0
  144.3002  132.5284  150.4306 H   0  0  0  0  0  0  0  0  0  0  0  0
  145.1578  133.3159  149.1059 H   0  0  0  0  0  0  0  0  0  0  0  0
  146.4077  132.2926  151.4733 H   0  0  0  0  0  0  0  0  0  0  0  0
  147.1465  133.3518  150.2684 H   0  0  0  0  0  0  0  0  0  0  0  0
  1  2  1  0  0  0  0
  1 18  1  0  0  0  0
  1 19  1  0  0  0  0
  1 20  1  0  0  0  0
  2 17  1  0  0  0  0
  2  3  2  0  0  0  0
  3  4  1  0  0  0  0
  3 21  1  0  0  0  0
  4  5  1  0  0  0  0
  4 16  2  0  0  0  0
  5  6  1  0  0  0  0
  5 22  1  0  0  0  0
  6  7  2  0  0  0  0
  6  8  1  0  0  0  0
  8  9  1  0  0  0  0
  8 23  1  0  0  0  0
  9 10  1  0  0  0  0
  9 24  1  0  0  0  0
  9 25  1  0  0  0  0
 10 11  1  0  0  0  0
 10 26  1  0  0  0  0
 10 27  1  0  0  0  0
 11 15  1  0  0  0  0
 11 12  1  0  0  0  0
 11 28  1  0  0  0  0
 12 13  1  0  0  0  0
 12 29  1  0  0  0  0
 12 30  1  0  0  0  0
 13 14  1  0  0  0  0
 13 31  1  0  0  0  0
 13 32  1  0  0  0  0
 14 15  1  0  0  0  0
 14 33  1  0  0  0  0
 14 34  1  0  0  0  0
 16 17  1  0  0  0  0
M  END
> <s_m_source_file>
AV-unprocessed.smi

> <i_m_source_file_index>
1655

> <i_lp_mmshare_version>
43012

> <i_f3d_flags>
0

> <s_epik_input>
W0NIM11jMVtjSF1jKG5vMSlbTkhdQyg9TylbTkhdW0NIMl1bQ0gyXVtDQEBIXTJbQ0gyXVtDSDJdW0NIMl1PMg==

> <s_epik_cmdline>
J2VwaWtfcHl0aG9uJywgJy1waCcsICc3LjAnLCAnLXRuJywgJzgnLCAnLW1hJywgJzIwMCcsICctbWV0YWxfYmluZGluZycsICctaW1hZScsICc8aW5maWxlLm1hZT4nLCAnLW9tYWUnLCAnPG91dGZpbGUubWFlPic=

> <r_lp_tautomer_probability>
1

> <r_epik_Ionization_Penalty>
2.23964e-05

> <r_epik_Ionization_Penalty_Charging>
0

> <r_epik_Ionization_Penalty_Neutral>
2.23964e-05

> <r_epik_State_Penalty>
-0

> <r_epik_Charging_Adjusted_Penalty>
0

> <i_epik_Tot_Q>
0

> <i_epik_Tot_abs_Q>
0

> <r_epik_Metal_State_Penalty>
-0

> <b_epik_Metal_Only>
0

> <s_lp_Force_Field>
OPLS_2005

> <r_lp_Energy>
15.5425

> <b_lp_Chiralities_Consistent>
1

> <s_lp_Variant>
AV-unprocessed.smi:1655-1

> <Gold.Version>
5.8.1

> <Gold.Id.Protein>
6NUR|6NUR_protein|mol2

> <Gold.PLP.Fitness>
34.0831

> <Gold.PLP.PLP>
-30.3163

> <Gold.PLP.part.hbond>
-4.8842

> <Gold.PLP.part.metal>
0.0000

> <Gold.PLP.part.buried>
1.0333

> <Gold.PLP.part.nonpolar>
-26.0129

> <Gold.PLP.part.repulsive>
0.6249

> <Gold.PLP.ligand.clash>
0.0000

> <Gold.PLP.ligand.torsion>
0.8472

> <Gold.PLP.Chemscore.Hbond>
1.8160

> <Gold.PLP.Chemscore.CHOScore>
0.0000

> <Gold.PLP.Chemscore.Metal>
0.0000

> <Gold.Chemscore.Hbonds>
donor molecule, donor type, donor heavy atom, donor atom, acceptor molecule, acceptor atom, score
      L1  H     5    22       P1  7948  0.80
      L1  H     8    23       P1  7948  1.00

> <Gold.PLP.Chemscore.Internal.Correction>
0.0132

> <Gold.Rescore>
     Score         DG    S(hbond)    S(metal)    S(lipo)     H(rot)  DE(clash)    DE(int)     intcor
     12.14     -14.45       1.94        0.00      55.06       1.55       0.06       2.24       ----

> <Gold.Chemscore.Fitness>
12.1390

> <Gold.Chemscore.DG>
-14.4456

> <Gold.Chemscore.ZeroCoef>
-5.4800

> <Gold.Chemscore.Hbond>
1.9438

> <Gold.Chemscore.Metal>
0.0000

> <Gold.Chemscore.Lipo>
55.0588

> <Gold.Chemscore.Internal_Hbond>
0.0000

> <Gold.Chemscore.DEClash>
0.0624

> <Gold.Chemscore.DEInternal>
2.2442

> <Gold.Chemscore.Rot>
1.5503

> <Gold.Chemscore.Internal.Correction>
   9.000000E+99

> <Gold.Chemscore.Hbonds>
donor molecule, donor type, donor heavy atom, donor atom, acceptor molecule, acceptor atom, score
      L1  H     5    22       P1  7948  0.63
      L1  H     8    23       P1  7948  0.94

> <Gold.Chemscore.Hbond.Weighted>
-6.4924

> <Gold.Chemscore.Metal.Weighted>
-0.0000

> <Gold.Chemscore.Lipo.Weighted>
-6.4419

> <Gold.Chemscore.Internal_Hbond.Weighted>
0.0000

> <Gold.Chemscore.DEClash.Weighted>
0.0624

> <Gold.Chemscore.DEInternal.Weighted>
2.2442

> <Gold.Chemscore.Rot.Weighted>
3.9687

> <Gold.Chemscore.Internal.Correction.Weighted>
   9.000000E+99

> <Gold.Protein.RotatedTorsions>
[ 6907 6896 6895 6894 ] final  115.03 input  -60.11 | X-H torsion
[ 7974 7965 7964 7962 ] final  -66.18 input  175.53 | X-H torsion
[ 8008 7997 7996 7995 ] final  -32.74 input   59.86 | X-H torsion
[ 10167 10162 10161 10158 ] final -160.75 input  -65.29 | X-H torsion
[ 10718 10713 10712 10709 ] final   33.98 input   66.30 | X-H torsion
[ 10763 10752 10751 10750 ] final -114.18 input  -60.55 | X-H torsion
[ 11005 11000 10999 10996 ] final  -94.10 input  -57.11 | X-H torsion

> <Gold.Protein.ActiveResidues>
 VAL166  LYS551  ARG553  GLY616  TRP617  ASP618  TYR619  PRO620  LYS621  CYS622 
 ASP623  PHE694  ASN695  SER759  ASP760  ASP761  ALA762  ILE779  LEU786  VAL792 
 PHE793  MET794  SER795  GLU796  ALA797  LYS798  CYS799  TRP800  GLU811  SER814 

> <Gold.Protein.RotatedAtoms>
  152.4766  133.8154  159.7025 H   0  0  0  0  0  0  0  0  0  0  0  0  # atno 6907 bound_to 6896
  150.8788  133.7392  159.2945 H   0  0  0  0  0  0  0  0  0  0  0  0  # atno 6908 bound_to 6896
  151.4903  135.1060  159.9854 H   0  0  0  0  0  0  0  0  0  0  0  0  # atno 6909 bound_to 6896
  145.7450  140.8935  143.0509 H   0  0  0  0  0  0  0  0  0  0  0  0  # atno 7974 bound_to 7965
  154.4170  140.1729  156.1775 H   0  0  0  0  0  0  0  0  0  0  0  0  # atno 8008 bound_to 7997
  155.9709  140.3386  155.6551 H   0  0  0  0  0  0  0  0  0  0  0  0  # atno 8009 bound_to 7997
  155.6626  140.0702  157.2539 H   0  0  0  0  0  0  0  0  0  0  0  0  # atno 8010 bound_to 7997
  139.6516  144.0073  152.2165 H   0  0  0  0  0  0  0  0  0  0  0  0  # atno 10167 bound_to 10162
  157.3047  130.7368  149.6688 H   0  0  0  0  0  0  0  0  0  0  0  0  # atno 10718 bound_to 10713
  154.8429  135.4427  154.1465 H   0  0  0  0  0  0  0  0  0  0  0  0  # atno 10763 bound_to 10752
  153.2637  135.6938  153.7558 H   0  0  0  0  0  0  0  0  0  0  0  0  # atno 10764 bound_to 10752
  153.6825  135.3400  155.3157 H   0  0  0  0  0  0  0  0  0  0  0  0  # atno 10765 bound_to 10752
  141.1479  133.7933  157.0251 H   0  0  0  0  0  0  0  0  0  0  0  0  # atno 11005 bound_to 11000
  144.6862  139.9513  143.7478 LP  0  0  0  0  0  0  0  0  0  0  0  0  # atno 17320 bound_to 7965
  146.0411  139.3422  143.0697 LP  0  0  0  0  0  0  0  0  0  0  0  0  # atno 17321 bound_to 7965
  139.9789  144.6442  150.7919 LP  0  0  0  0  0  0  0  0  0  0  0  0  # atno 17342 bound_to 10162
  140.7540  143.3019  151.3058 LP  0  0  0  0  0  0  0  0  0  0  0  0  # atno 17343 bound_to 10162
  155.9673  130.4269  150.4721 LP  0  0  0  0  0  0  0  0  0  0  0  0  # atno 17370 bound_to 10713
  157.2708  131.0587  151.2261 LP  0  0  0  0  0  0  0  0  0  0  0  0  # atno 17371 bound_to 10713
  140.0790  134.9659  157.1593 LP  0  0  0  0  0  0  0  0  0  0  0  0  # atno 17394 bound_to 11000
  140.3603  134.2501  155.7188 LP  0  0  0  0  0  0  0  0  0  0  0  0  # atno 17395 bound_to 11000

$$$$
