AV-unprocessed.smi:2760|AV-procd|sdf|10629|dock1
  -GOLD-   2272015 73D 1   1.00000     0.00000
 Structure written by MMmdl.
 32 33  0  0  0  0  0  0  0  0  1 V2000
  152.7675  139.7328  157.8365 O   0  0  0  0  0  0  0  0  0  0  0  0
  152.0512  140.6320  157.4014 C   0  0  0  0  0  0  0  0  0  0  0  0
  152.1040  141.9830  157.9741 C   0  0  0  0  0  0  0  0  0  0  0  0
  151.3092  142.9518  157.4774 C   0  0  0  0  0  0  0  0  0  0  0  0
  151.2934  144.3521  157.9937 C   0  0  0  0  0  0  0  0  0  0  0  0
  152.3288  144.8629  158.9725 C   0  0  0  0  0  0  0  0  0  0  0  0
  150.8962  144.6819  159.4165 C   0  0  0  0  0  0  0  0  0  0  0  0
  150.4463  142.6720  156.4313 N   0  0  0  0  0  0  0  0  0  0  0  0
  150.4099  141.3854  155.9039 C   0  0  0  0  0  0  0  0  0  0  0  0
  149.2072  141.2224  154.5374 S   0  0  0  0  0  0  0  0  0  0  0  0
  147.6514  141.8626  155.2308 C   0  0  0  0  0  0  0  0  0  0  0  0
  146.4958  141.7131  154.2378 C   0  0  0  0  0  0  0  0  0  0  0  0
  145.3554  142.3695  154.7645 O   0  0  0  0  0  0  0  0  0  0  0  0
  145.2338  143.7085  154.3110 C   0  0  0  0  0  0  0  0  0  0  0  0
  144.1970  144.4476  155.1659 C   0  0  0  0  0  0  0  0  0  0  0  0
  143.8503  145.5797  154.5548 F   0  0  0  0  0  0  0  0  0  0  0  0
  143.1080  143.6955  155.3229 F   0  0  0  0  0  0  0  0  0  0  0  0
  144.7121  144.7454  156.3584 F   0  0  0  0  0  0  0  0  0  0  0  0
  151.1543  140.4118  156.3431 N   0  0  0  0  0  0  0  0  0  0  0  0
  149.8673  143.4234  156.0860 H   0  0  0  0  0  0  0  0  0  0  0  0
  152.7798  142.1933  158.7904 H   0  0  0  0  0  0  0  0  0  0  0  0
  150.9699  145.0621  157.2345 H   0  0  0  0  0  0  0  0  0  0  0  0
  153.0655  144.1615  159.3595 H   0  0  0  0  0  0  0  0  0  0  0  0
  152.6864  145.8814  158.8364 H   0  0  0  0  0  0  0  0  0  0  0  0
  150.3023  145.5798  159.5740 H   0  0  0  0  0  0  0  0  0  0  0  0
  150.6840  143.8611  160.0987 H   0  0  0  0  0  0  0  0  0  0  0  0
  147.7777  142.9149  155.4887 H   0  0  0  0  0  0  0  0  0  0  0  0
  147.4159  141.3228  156.1487 H   0  0  0  0  0  0  0  0  0  0  0  0
  146.7690  142.1501  153.2760 H   0  0  0  0  0  0  0  0  0  0  0  0
  146.2774  140.6569  154.0728 H   0  0  0  0  0  0  0  0  0  0  0  0
  146.1983  144.2145  154.3782 H   0  0  0  0  0  0  0  0  0  0  0  0
  144.9293  143.7221  153.2633 H   0  0  0  0  0  0  0  0  0  0  0  0
  1  2  2  0  0  0  0
  2 19  1  0  0  0  0
  2  3  1  0  0  0  0
  3 21  1  0  0  0  0
  3  4  2  0  0  0  0
  4  5  1  0  0  0  0
  4  8  1  0  0  0  0
  5  7  1  0  0  0  0
  5  6  1  0  0  0  0
  5 22  1  0  0  0  0
  6  7  1  0  0  0  0
  6 23  1  0  0  0  0
  6 24  1  0  0  0  0
  7 25  1  0  0  0  0
  7 26  1  0  0  0  0
  8  9  1  0  0  0  0
  8 20  1  0  0  0  0
  9 10  1  0  0  0  0
  9 19  2  0  0  0  0
 10 11  1  0  0  0  0
 11 12  1  0  0  0  0
 11 27  1  0  0  0  0
 11 28  1  0  0  0  0
 12 13  1  0  0  0  0
 12 29  1  0  0  0  0
 12 30  1  0  0  0  0
 13 14  1  0  0  0  0
 14 15  1  0  0  0  0
 14 31  1  0  0  0  0
 14 32  1  0  0  0  0
 15 16  1  0  0  0  0
 15 17  1  0  0  0  0
 15 18  1  0  0  0  0
M  END
> <s_m_source_file>
AV-unprocessed.smi

> <i_m_source_file_index>
2760

> <i_lp_mmshare_version>
43012

> <i_f3d_flags>
0

> <s_epik_input>
W09IXWMxW2NIXWMoW0NIXTJbQ0gyXVtDSDJdMiluYyhuMSlTW0NIMl1bQ0gyXU9bQ0gyXUMoRikoRilG

> <s_epik_cmdline>
J2VwaWtfcHl0aG9uJywgJy1waCcsICc3LjAnLCAnLXRuJywgJzgnLCAnLW1hJywgJzIwMCcsICctbWV0YWxfYmluZGluZycsICctaW1hZScsICc8aW5maWxlLm1hZT4nLCAnLW9tYWUnLCAnPG91dGZpbGUubWFlPic=

> <r_lp_tautomer_probability>
0.273662

> <r_epik_Ionization_Penalty>
0.0792867

> <r_epik_Ionization_Penalty_Charging>
0.0792819

> <r_epik_Ionization_Penalty_Neutral>
4.79647e-06

> <r_epik_State_Penalty>
1.03359

> <r_epik_Charging_Adjusted_Penalty>
1.11287

> <i_epik_Tot_Q>
0

> <i_epik_Tot_abs_Q>
0

> <r_epik_Metal_State_Penalty>
1.68441

> <b_epik_Metal_Only>
0

> <s_lp_Force_Field>
OPLS_2005

> <r_lp_Energy>
16.1148

> <b_lp_Chiralities_Consistent>
1

> <s_lp_Variant>
AV-unprocessed.smi:2760-2

> <Gold.Version>
5.8.1

> <Gold.Id.Protein>
6NUR|6NUR_protein|mol2

> <Gold.PLP.Fitness>
44.6458

> <Gold.PLP.PLP>
-39.5113

> <Gold.PLP.part.hbond>
-2.0000

> <Gold.PLP.part.metal>
0.0000

> <Gold.PLP.part.buried>
-6.6637

> <Gold.PLP.part.nonpolar>
-31.4131

> <Gold.PLP.part.repulsive>
0.2716

> <Gold.PLP.ligand.clash>
0.0000

> <Gold.PLP.ligand.torsion>
0.5929

> <Gold.PLP.Chemscore.Hbond>
2.0000

> <Gold.PLP.Chemscore.CHOScore>
0.0000

> <Gold.PLP.Chemscore.Metal>
0.0000

> <Gold.Chemscore.Hbonds>
donor molecule, donor type, donor heavy atom, donor atom, acceptor molecule, acceptor atom, score
      L1  H     8    20       P1  8028  1.00
      P1  H  7997  8008       L1     1  1.00

> <Gold.PLP.Chemscore.Internal.Correction>
0.3203

> <Gold.Rescore>
     Score         DG    S(hbond)    S(metal)    S(lipo)     H(rot)  DE(clash)    DE(int)     intcor
     13.10     -14.34       1.82        0.00      79.93       2.57       0.78       0.46       ----

> <Gold.Chemscore.Fitness>
13.0982

> <Gold.Chemscore.DG>
-14.3448

> <Gold.Chemscore.ZeroCoef>
-5.4800

> <Gold.Chemscore.Hbond>
1.8224

> <Gold.Chemscore.Metal>
0.0000

> <Gold.Chemscore.Lipo>
79.9335

> <Gold.Chemscore.Internal_Hbond>
0.0000

> <Gold.Chemscore.DEClash>
0.7835

> <Gold.Chemscore.DEInternal>
0.4631

> <Gold.Chemscore.Rot>
2.5680

> <Gold.Chemscore.Internal.Correction>
   9.000000E+99

> <Gold.Chemscore.Hbonds>
donor molecule, donor type, donor heavy atom, donor atom, acceptor molecule, acceptor atom, score
      L1  H     8    20       P1  8028  1.00
      P1  H  7997  8008       L1     1  0.43

> <Gold.Chemscore.Hbond.Weighted>
-6.0867

> <Gold.Chemscore.Metal.Weighted>
-0.0000

> <Gold.Chemscore.Lipo.Weighted>
-9.3522

> <Gold.Chemscore.Internal_Hbond.Weighted>
0.0000

> <Gold.Chemscore.DEClash.Weighted>
0.7835

> <Gold.Chemscore.DEInternal.Weighted>
0.4631

> <Gold.Chemscore.Rot.Weighted>
6.5741

> <Gold.Chemscore.Internal.Correction.Weighted>
   9.000000E+99

> <Gold.Protein.RotatedTorsions>
[ 6907 6896 6895 6894 ] final    1.81 input  -60.11 | X-H torsion
[ 7974 7965 7964 7962 ] final  -72.77 input  175.53 | X-H torsion
[ 8008 7997 7996 7995 ] final  -79.97 input   59.86 | X-H torsion
[ 10167 10162 10161 10158 ] final -111.87 input  -65.29 | X-H torsion
[ 10718 10713 10712 10709 ] final  124.38 input   66.30 | X-H torsion
[ 10763 10752 10751 10750 ] final   93.26 input  -60.55 | X-H torsion
[ 11005 11000 10999 10996 ] final   76.61 input  -57.11 | X-H torsion

> <Gold.Protein.ActiveResidues>
 VAL166  LYS551  ARG553  GLY616  TRP617  ASP618  TYR619  PRO620  LYS621  CYS622 
 ASP623  PHE694  ASN695  SER759  ASP760  ASP761  ALA762  ILE779  LEU786  VAL792 
 PHE793  MET794  SER795  GLU796  ALA797  LYS798  CYS799  TRP800  GLU811  SER814 

> <Gold.Protein.RotatedAtoms>
  151.5986  135.1049  160.0054 H   0  0  0  0  0  0  0  0  0  0  0  0  # atno 6907 bound_to 6896
  152.4269  133.7207  159.6542 H   0  0  0  0  0  0  0  0  0  0  0  0  # atno 6908 bound_to 6896
  150.8159  133.8266  159.3183 H   0  0  0  0  0  0  0  0  0  0  0  0  # atno 6909 bound_to 6896
  145.6609  140.9253  143.0934 H   0  0  0  0  0  0  0  0  0  0  0  0  # atno 7974 bound_to 7965
  154.5837  140.0670  156.9141 H   0  0  0  0  0  0  0  0  0  0  0  0  # atno 8008 bound_to 7997
  155.2416  140.3345  155.4273 H   0  0  0  0  0  0  0  0  0  0  0  0  # atno 8009 bound_to 7997
  156.2208  140.1798  156.7466 H   0  0  0  0  0  0  0  0  0  0  0  0  # atno 8010 bound_to 7997
  140.1289  143.4378  152.1641 H   0  0  0  0  0  0  0  0  0  0  0  0  # atno 10167 bound_to 10162
  157.5589  131.1090  150.8573 H   0  0  0  0  0  0  0  0  0  0  0  0  # atno 10718 bound_to 10713
  153.2283  135.4332  155.0566 H   0  0  0  0  0  0  0  0  0  0  0  0  # atno 10763 bound_to 10752
  154.8284  135.3373  154.6825 H   0  0  0  0  0  0  0  0  0  0  0  0  # atno 10764 bound_to 10752
  153.7254  135.7014  153.5058 H   0  0  0  0  0  0  0  0  0  0  0  0  # atno 10765 bound_to 10752
  139.9291  134.7615  156.1417 H   0  0  0  0  0  0  0  0  0  0  0  0  # atno 11005 bound_to 11000
  144.7089  139.8447  143.7421 LP  0  0  0  0  0  0  0  0  0  0  0  0  # atno 17320 bound_to 7965
  146.1126  139.4133  143.0278 LP  0  0  0  0  0  0  0  0  0  0  0  0  # atno 17321 bound_to 7965
  139.5530  144.7352  151.4379 LP  0  0  0  0  0  0  0  0  0  0  0  0  # atno 17342 bound_to 10162
  140.6828  143.8042  150.7145 LP  0  0  0  0  0  0  0  0  0  0  0  0  # atno 17343 bound_to 10162
  156.9076  130.5269  149.5281 LP  0  0  0  0  0  0  0  0  0  0  0  0  # atno 17370 bound_to 10713
  156.0644  130.5690  150.9259 LP  0  0  0  0  0  0  0  0  0  0  0  0  # atno 17371 bound_to 10713
  141.0868  133.6731  156.2453 LP  0  0  0  0  0  0  0  0  0  0  0  0  # atno 17394 bound_to 11000
  140.6253  134.5320  157.5553 LP  0  0  0  0  0  0  0  0  0  0  0  0  # atno 17395 bound_to 11000

$$$$
