AV-unprocessed.smi:72|AV-procd|sdf|688|dock1
  -GOLD-   2262017 03D 1   1.00000     0.00000
 Structure written by MMmdl.
 29 30  0  0  0  0  0  0  0  0  1 V2000
  138.8433  138.1576  153.6654 N   0  0  0  0  0  0  0  0  0  0  0  0
  140.0159  137.6749  153.4593 C   0  0  0  0  0  0  0  0  0  0  0  0
  141.1025  138.3810  152.9229 N   0  0  0  0  0  0  0  0  0  0  0  0
  142.2303  137.7595  152.7660 C   0  0  0  0  0  0  0  0  0  0  0  0
  142.4055  136.3597  153.1243 N   0  0  0  0  0  0  0  0  0  0  0  0
  143.7298  135.6496  152.9168 C   0  0  1  0  0  0  0  0  0  0  0  0
  143.4947  134.4078  152.3212 O   0  0  0  0  0  0  0  0  0  0  0  0
  144.0368  134.3837  151.0069 C   0  0  2  0  0  0  0  0  0  0  0  0
  144.4356  132.9503  150.6113 C   0  0  0  0  0  0  0  0  0  0  0  0
  144.9646  132.8870  149.3029 O   0  0  0  0  0  0  0  0  0  0  0  0
  145.1458  135.4422  150.9879 C   0  0  1  0  0  0  0  0  0  0  0  0
  145.2385  136.0327  149.7068 O   0  0  0  0  0  0  0  0  0  0  0  0
  144.6745  136.4676  152.0161 C   0  0  2  0  0  0  0  0  0  0  0  0
  145.7851  136.9589  152.7388 O   0  0  0  0  0  0  0  0  0  0  0  0
  141.3195  135.6382  153.6821 C   0  0  0  0  0  0  0  0  0  0  0  0
  141.4093  134.4621  154.0329 O   0  0  0  0  0  0  0  0  0  0  0  0
  140.1682  136.3305  153.8198 N   0  0  0  0  0  0  0  0  0  0  0  0
  144.1501  135.4421  153.9012 H   0  0  0  0  0  0  0  0  0  0  0  0
  143.2373  134.6973  150.3360 H   0  0  0  0  0  0  0  0  0  0  0  0
  146.1063  135.0153  151.2795 H   0  0  0  0  0  0  0  0  0  0  0  0
  144.1281  137.2884  151.5485 H   0  0  0  0  0  0  0  0  0  0  0  0
  138.8120  139.1267  153.3820 H   0  0  0  0  0  0  0  0  0  0  0  0
  143.1132  138.2500  152.3617 H   0  0  0  0  0  0  0  0  0  0  0  0
  145.1606  132.5461  151.3180 H   0  0  0  0  0  0  0  0  0  0  0  0
  143.5591  132.3029  150.6488 H   0  0  0  0  0  0  0  0  0  0  0  0
  145.1673  133.7650  149.0177 H   0  0  0  0  0  0  0  0  0  0  0  0
  144.9723  136.9368  149.7773 H   0  0  0  0  0  0  0  0  0  0  0  0
  145.6512  137.8797  152.9056 H   0  0  0  0  0  0  0  0  0  0  0  0
  139.3745  135.8458  154.2125 H   0  0  0  0  0  0  0  0  0  0  0  0
  1  2  2  0  0  0  0
  1 22  1  0  0  0  0
  2 17  1  0  0  0  0
  2  3  1  0  0  0  0
  3  4  2  0  0  0  0
  4  5  1  0  0  0  0
  4 23  1  0  0  0  0
  5  6  1  0  0  0  0
  5 15  1  0  0  0  0
  6 18  1  0  0  0  0
  6 13  1  0  0  0  0
  6  7  1  0  0  0  0
  7  8  1  0  0  0  0
  8 19  1  0  0  0  0
  8  9  1  0  0  0  0
  8 11  1  0  0  0  0
  9 10  1  0  0  0  0
  9 24  1  0  0  0  0
  9 25  1  0  0  0  0
 10 26  1  0  0  0  0
 11 20  1  0  0  0  0
 11 12  1  0  0  0  0
 11 13  1  0  0  0  0
 12 27  1  0  0  0  0
 13 21  1  0  0  0  0
 13 14  1  0  0  0  0
 14 28  1  0  0  0  0
 15 16  2  0  0  0  0
 15 17  1  0  0  0  0
 17 29  1  0  0  0  0
M  END
> <s_m_source_file>
AV-unprocessed.smi

> <i_m_source_file_index>
72

> <i_lp_mmshare_version>
43012

> <i_f3d_flags>
0

> <s_epik_input>
W05IMl1jMW5bY0hdbihjKD1PKW4xKVtDQEBIXTJPW0NASF0oW0NIMl1bT0hdKVtDQEBIXShbT0hdKVtDQEhdMltPSF0=

> <s_epik_cmdline>
J2VwaWtfcHl0aG9uJywgJy1waCcsICc3LjAnLCAnLXRuJywgJzgnLCAnLW1hJywgJzIwMCcsICctbWV0YWxfYmluZGluZycsICctaW1hZScsICc8aW5maWxlLm1hZT4nLCAnLW9tYWUnLCAnPG91dGZpbGUubWFlPic=

> <r_lp_tautomer_probability>
7.17554e-07

> <r_epik_Ionization_Penalty>
0.0066451

> <r_epik_Ionization_Penalty_Charging>
0.00663793

> <r_epik_Ionization_Penalty_Neutral>
7.17052e-06

> <r_epik_State_Penalty>
0.419231

> <r_epik_Charging_Adjusted_Penalty>
0.425868

> <i_epik_Tot_Q>
0

> <i_epik_Tot_abs_Q>
0

> <r_epik_Metal_State_Penalty>
1.44144

> <b_epik_Metal_Only>
0

> <s_epik_Chemistry_Notes>
This compound contains an acetal/aminal-like group ( X-CH(R)-Y where X, Y are N, S, or O) that may be acid/base labile, releasing an aldehyde.

> <s_lp_Force_Field>
OPLS_2005

> <r_lp_Energy>
38.9387

> <b_lp_Chiralities_Consistent>
1

> <s_lp_Variant>
AV-unprocessed.smi:72-26

> <Gold.Version>
5.8.1

> <Gold.Id.Protein>
6NUR|6NUR_protein|mol2

> <Gold.PLP.Fitness>
38.6559

> <Gold.PLP.PLP>
-26.0714

> <Gold.PLP.part.hbond>
-4.1374

> <Gold.PLP.part.metal>
0.0000

> <Gold.PLP.part.buried>
-5.8857

> <Gold.PLP.part.nonpolar>
-16.9228

> <Gold.PLP.part.repulsive>
1.9428

> <Gold.PLP.ligand.clash>
0.0000

> <Gold.PLP.ligand.torsion>
0.3184

> <Gold.PLP.Chemscore.Hbond>
2.7760

> <Gold.PLP.Chemscore.CHOScore>
1.6308

> <Gold.PLP.Chemscore.Metal>
0.0000

> <Gold.Chemscore.Hbonds>
donor molecule, donor type, donor heavy atom, donor atom, acceptor molecule, acceptor atom, score
      L1  H    10    26       P1  7921  0.86
      L1  H    12    27       P1 10171  1.00
      P1  H 11000 11005       L1    16  0.91
      L1  C     4    23       P1 10171  0.68
      L1  C     4    23       P1 10175  0.95

> <Gold.PLP.Chemscore.Internal.Correction>
0.0009

> <Gold.Rescore>
     Score         DG    S(hbond)    S(metal)    S(lipo)     H(rot)  DE(clash)    DE(int)     intcor
      2.07      -5.36       2.29        0.00      22.28       4.06       1.21       2.07       ----

> <Gold.Chemscore.Fitness>
2.0696

> <Gold.Chemscore.DG>
-5.3551

> <Gold.Chemscore.ZeroCoef>
-5.4800

> <Gold.Chemscore.Hbond>
2.2938

> <Gold.Chemscore.Metal>
0.0000

> <Gold.Chemscore.Lipo>
22.2838

> <Gold.Chemscore.Internal_Hbond>
0.0000

> <Gold.Chemscore.DEClash>
1.2111

> <Gold.Chemscore.DEInternal>
2.0743

> <Gold.Chemscore.Rot>
4.0600

> <Gold.Chemscore.Internal.Correction>
   9.000000E+99

> <Gold.Chemscore.Hbonds>
donor molecule, donor type, donor heavy atom, donor atom, acceptor molecule, acceptor atom, score
      L1  H    10    26       P1  7921  0.71
      L1  H    12    27       P1 10171  0.98
      P1  H 11000 11005       L1    16  0.84

> <Gold.Chemscore.Hbond.Weighted>
-7.6614

> <Gold.Chemscore.Metal.Weighted>
-0.0000

> <Gold.Chemscore.Lipo.Weighted>
-2.6072

> <Gold.Chemscore.Internal_Hbond.Weighted>
0.0000

> <Gold.Chemscore.DEClash.Weighted>
1.2111

> <Gold.Chemscore.DEInternal.Weighted>
2.0743

> <Gold.Chemscore.Rot.Weighted>
10.3936

> <Gold.Chemscore.Internal.Correction.Weighted>
   9.000000E+99

> <Gold.Protein.RotatedTorsions>
[ 6907 6896 6895 6894 ] final  143.29 input  -60.11 | X-H torsion
[ 7974 7965 7964 7962 ] final -107.81 input  175.53 | X-H torsion
[ 8008 7997 7996 7995 ] final  -54.30 input   59.86 | X-H torsion
[ 10167 10162 10161 10158 ] final  108.68 input  -65.29 | X-H torsion
[ 10718 10713 10712 10709 ] final -145.79 input   66.30 | X-H torsion
[ 10763 10752 10751 10750 ] final  -74.81 input  -60.55 | X-H torsion
[ 11005 11000 10999 10996 ] final  -12.09 input  -57.11 | X-H torsion

> <Gold.Protein.ActiveResidues>
 VAL166  LYS551  ARG553  GLY616  TRP617  ASP618  TYR619  PRO620  LYS621  CYS622 
 ASP623  PHE694  ASN695  SER759  ASP760  ASP761  ALA762  ILE779  LEU786  VAL792 
 PHE793  MET794  SER795  GLU796  ALA797  LYS798  CYS799  TRP800  GLU811  SER814 

> <Gold.Protein.RotatedAtoms>
  152.2081  133.4891  159.5094 H   0  0  0  0  0  0  0  0  0  0  0  0  # atno 6907 bound_to 6896
  150.6984  134.1503  159.4147 H   0  0  0  0  0  0  0  0  0  0  0  0  # atno 6908 bound_to 6896
  151.9421  135.0208  160.0587 H   0  0  0  0  0  0  0  0  0  0  0  0  # atno 6909 bound_to 6896
  145.2007  140.9055  143.3371 H   0  0  0  0  0  0  0  0  0  0  0  0  # atno 7974 bound_to 7965
  154.4158  140.1179  156.5293 H   0  0  0  0  0  0  0  0  0  0  0  0  # atno 8008 bound_to 7997
  155.6622  140.3496  155.4768 H   0  0  0  0  0  0  0  0  0  0  0  0  # atno 8009 bound_to 7997
  155.9703  140.1140  157.0808 H   0  0  0  0  0  0  0  0  0  0  0  0  # atno 8010 bound_to 7997
  139.6827  144.7116  151.1488 H   0  0  0  0  0  0  0  0  0  0  0  0  # atno 10167 bound_to 10162
  156.3869  130.7866  151.2064 H   0  0  0  0  0  0  0  0  0  0  0  0  # atno 10718 bound_to 10713
  154.4781  135.5852  153.6370 H   0  0  0  0  0  0  0  0  0  0  0  0  # atno 10763 bound_to 10752
  152.9844  135.6083  154.3281 H   0  0  0  0  0  0  0  0  0  0  0  0  # atno 10764 bound_to 10752
  154.3169  135.2844  155.2518 H   0  0  0  0  0  0  0  0  0  0  0  0  # atno 10765 bound_to 10752
  140.7621  133.8506  155.9133 H   0  0  0  0  0  0  0  0  0  0  0  0  # atno 11005 bound_to 11000
  144.9951  139.3652  143.6195 LP  0  0  0  0  0  0  0  0  0  0  0  0  # atno 17320 bound_to 7965
  146.3418  139.9150  142.8775 LP  0  0  0  0  0  0  0  0  0  0  0  0  # atno 17321 bound_to 7965
  140.7657  143.5676  150.9031 LP  0  0  0  0  0  0  0  0  0  0  0  0  # atno 17342 bound_to 10162
  139.9349  143.6450  152.3068 LP  0  0  0  0  0  0  0  0  0  0  0  0  # atno 17343 bound_to 10162
  157.7496  131.0327  150.4240 LP  0  0  0  0  0  0  0  0  0  0  0  0  # atno 17370 bound_to 10713
  156.4494  130.4008  149.6646 LP  0  0  0  0  0  0  0  0  0  0  0  0  # atno 17371 bound_to 10713
  140.9653  134.1602  157.4621 LP  0  0  0  0  0  0  0  0  0  0  0  0  # atno 17394 bound_to 11000
  139.8769  134.9959  156.5769 LP  0  0  0  0  0  0  0  0  0  0  0  0  # atno 17395 bound_to 11000

$$$$
