AV-unprocessed.smi:2768|AV-procd|sdf|10649|dock5
  -GOLD-   2272015103D 1   1.00000     0.00000
 Structure written by MMmdl.
 35 36  0  0  0  0  0  0  0  0  1 V2000
  149.8164  142.2602  158.8451 O   0  0  0  0  0  0  0  0  0  0  0  0
  150.6469  142.7239  158.0626 C   0  0  0  0  0  0  0  0  0  0  0  0
  150.7494  142.3273  156.7832 N   0  0  0  0  0  0  0  0  0  0  0  0
  149.9567  141.2725  156.1562 C   0  0  1  0  0  0  0  0  0  0  0  0
  149.4220  141.7421  154.7894 C   0  0  0  0  0  0  0  0  0  0  0  0
  148.5895  140.6424  154.1105 C   0  0  0  0  0  0  0  0  0  0  0  0
  149.3945  139.3415  153.9654 C   0  0  0  0  0  0  0  0  0  0  0  0
  149.9438  138.8641  155.3222 C   0  0  0  0  0  0  0  0  0  0  0  0
  150.7639  139.9562  156.0360 C   0  0  1  0  0  0  0  0  0  0  0  0
  151.9708  140.1668  155.3254 O   0  0  0  0  0  0  0  0  0  0  0  0
  151.6509  143.7856  158.5344 C   0  0  0  0  0  0  0  0  0  0  0  0
  152.4967  144.0505  157.5357 F   0  0  0  0  0  0  0  0  0  0  0  0
  150.9971  144.9124  158.8271 F   0  0  0  0  0  0  0  0  0  0  0  0
  152.4042  143.2851  159.7645 C   0  0  0  0  0  0  0  0  0  0  0  0
  153.2367  142.1442  159.6976 C   0  0  0  0  0  0  0  0  0  0  0  0
  153.8925  141.7173  160.8683 C   0  0  0  0  0  0  0  0  0  0  0  0
  153.6935  142.4392  162.0602 C   0  0  0  0  0  0  0  0  0  0  0  0
  152.8428  143.5612  162.0285 C   0  0  0  0  0  0  0  0  0  0  0  0
  152.2089  143.9781  160.9118 N   0  0  0  0  0  0  0  0  0  0  0  0
  149.0886  141.0790  156.7897 H   0  0  0  0  0  0  0  0  0  0  0  0
  151.0337  139.5991  157.0305 H   0  0  0  0  0  0  0  0  0  0  0  0
  151.4556  142.7646  156.2090 H   0  0  0  0  0  0  0  0  0  0  0  0
  148.8107  142.6365  154.9153 H   0  0  0  0  0  0  0  0  0  0  0  0
  150.2512  142.0246  154.1392 H   0  0  0  0  0  0  0  0  0  0  0  0
  147.6894  140.4514  154.6963 H   0  0  0  0  0  0  0  0  0  0  0  0
  148.2534  140.9824  153.1304 H   0  0  0  0  0  0  0  0  0  0  0  0
  148.7673  138.5652  153.5265 H   0  0  0  0  0  0  0  0  0  0  0  0
  150.2190  139.4990  153.2691 H   0  0  0  0  0  0  0  0  0  0  0  0
  149.1082  138.5734  155.9600 H   0  0  0  0  0  0  0  0  0  0  0  0
  150.5479  137.9662  155.1870 H   0  0  0  0  0  0  0  0  0  0  0  0
  152.4168  139.3378  155.2435 H   0  0  0  0  0  0  0  0  0  0  0  0
  153.3707  141.6013  158.7736 H   0  0  0  0  0  0  0  0  0  0  0  0
  154.5355  140.8499  160.8527 H   0  0  0  0  0  0  0  0  0  0  0  0
  154.1801  142.1402  162.9768 H   0  0  0  0  0  0  0  0  0  0  0  0
  152.6657  144.1386  162.9238 H   0  0  0  0  0  0  0  0  0  0  0  0
  1  2  2  0  0  0  0
  2  3  1  0  0  0  0
  2 11  1  0  0  0  0
  3  4  1  0  0  0  0
  3 22  1  0  0  0  0
  4 20  1  0  0  0  0
  4  9  1  0  0  0  0
  4  5  1  0  0  0  0
  5  6  1  0  0  0  0
  5 23  1  0  0  0  0
  5 24  1  0  0  0  0
  6  7  1  0  0  0  0
  6 25  1  0  0  0  0
  6 26  1  0  0  0  0
  7  8  1  0  0  0  0
  7 27  1  0  0  0  0
  7 28  1  0  0  0  0
  8  9  1  0  0  0  0
  8 29  1  0  0  0  0
  8 30  1  0  0  0  0
  9 21  1  0  0  0  0
  9 10  1  0  0  0  0
 10 31  1  0  0  0  0
 11 12  1  0  0  0  0
 11 13  1  0  0  0  0
 11 14  1  0  0  0  0
 14 19  1  0  0  0  0
 14 15  2  0  0  0  0
 15 16  1  0  0  0  0
 15 32  1  0  0  0  0
 16 17  2  0  0  0  0
 16 33  1  0  0  0  0
 17 18  1  0  0  0  0
 17 34  1  0  0  0  0
 18 19  2  0  0  0  0
 18 35  1  0  0  0  0
M  END
> <s_m_source_file>
AV-unprocessed.smi

> <i_m_source_file_index>
2768

> <i_lp_mmshare_version>
43012

> <i_f3d_flags>
0

> <s_epik_input>
bjFbY0hdW2NIXVtjSF1bY0hdYzFDKEYpKEYpQyg9TylbTkhdW0NAQEhdMltDSDJdW0NIMl1bQ0gyXVtDSDJdW0NASF0yW09IXQ==

> <s_epik_cmdline>
J2VwaWtfcHl0aG9uJywgJy1waCcsICc3LjAnLCAnLXRuJywgJzgnLCAnLW1hJywgJzIwMCcsICctbWV0YWxfYmluZGluZycsICctaW1hZScsICc8aW5maWxlLm1hZT4nLCAnLW9tYWUnLCAnPG91dGZpbGUubWFlPic=

> <r_lp_tautomer_probability>
1

> <r_epik_Ionization_Penalty>
4.19456e-05

> <r_epik_Ionization_Penalty_Charging>
0

> <r_epik_Ionization_Penalty_Neutral>
4.19456e-05

> <r_epik_State_Penalty>
-0

> <r_epik_Charging_Adjusted_Penalty>
0

> <i_epik_Tot_Q>
0

> <i_epik_Tot_abs_Q>
0

> <r_epik_Metal_State_Penalty>
0.0354684

> <b_epik_Metal_Only>
0

> <s_lp_Force_Field>
OPLS_2005

> <r_lp_Energy>
19.7139

> <b_lp_Chiralities_Consistent>
1

> <s_lp_Variant>
AV-unprocessed.smi:2768-2

> <Gold.Version>
5.8.1

> <Gold.Id.Protein>
6NUR|6NUR_protein|mol2

> <Gold.PLP.Fitness>
47.0854

> <Gold.PLP.PLP>
-45.4680

> <Gold.PLP.part.hbond>
-2.8328

> <Gold.PLP.part.metal>
0.0000

> <Gold.PLP.part.buried>
-0.6948

> <Gold.PLP.part.nonpolar>
-41.7726

> <Gold.PLP.part.repulsive>
0.2555

> <Gold.PLP.ligand.clash>
0.0000

> <Gold.PLP.ligand.torsion>
0.3319

> <Gold.PLP.Chemscore.Hbond>
0.7520

> <Gold.PLP.Chemscore.CHOScore>
0.0000

> <Gold.PLP.Chemscore.Metal>
0.0000

> <Gold.Chemscore.Hbonds>
donor molecule, donor type, donor heavy atom, donor atom, acceptor molecule, acceptor atom, score
      P1  H  7989  7998       L1    10  0.78

> <Gold.PLP.Chemscore.Internal.Correction>
0.0251

> <Gold.Rescore>
     Score         DG    S(hbond)    S(metal)    S(lipo)     H(rot)  DE(clash)    DE(int)     intcor
     11.99     -12.41       0.04        0.00     101.68       2.00       0.01       0.40       ----

> <Gold.Chemscore.Fitness>
11.9928

> <Gold.Chemscore.DG>
-12.4072

> <Gold.Chemscore.ZeroCoef>
-5.4800

> <Gold.Chemscore.Hbond>
0.0427

> <Gold.Chemscore.Metal>
0.0000

> <Gold.Chemscore.Lipo>
101.6801

> <Gold.Chemscore.Internal_Hbond>
0.0000

> <Gold.Chemscore.DEClash>
0.0098

> <Gold.Chemscore.DEInternal>
0.4046

> <Gold.Chemscore.Rot>
1.9969

> <Gold.Chemscore.Internal.Correction>
   9.000000E+99

> <Gold.Chemscore.Hbonds>
donor molecule, donor type, donor heavy atom, donor atom, acceptor molecule, acceptor atom, score
      P1  H  7989  7998       L1    10  0.43

> <Gold.Chemscore.Hbond.Weighted>
-0.1427

> <Gold.Chemscore.Metal.Weighted>
-0.0000

> <Gold.Chemscore.Lipo.Weighted>
-11.8966

> <Gold.Chemscore.Internal_Hbond.Weighted>
0.0000

> <Gold.Chemscore.DEClash.Weighted>
0.0098

> <Gold.Chemscore.DEInternal.Weighted>
0.4046

> <Gold.Chemscore.Rot.Weighted>
5.1122

> <Gold.Chemscore.Internal.Correction.Weighted>
   9.000000E+99

> <Gold.Protein.RotatedTorsions>
[ 6907 6896 6895 6894 ] final -108.61 input  -60.11 | X-H torsion
[ 7974 7965 7964 7962 ] final   74.70 input  175.53 | X-H torsion
[ 8008 7997 7996 7995 ] final -167.01 input   59.86 | X-H torsion
[ 10167 10162 10161 10158 ] final   60.21 input  -65.29 | X-H torsion
[ 10718 10713 10712 10709 ] final  -82.63 input   66.30 | X-H torsion
[ 10763 10752 10751 10750 ] final  177.38 input  -60.55 | X-H torsion
[ 11005 11000 10999 10996 ] final -100.26 input  -57.11 | X-H torsion

> <Gold.Protein.ActiveResidues>
 VAL166  LYS551  ARG553  GLY616  TRP617  ASP618  TYR619  PRO620  LYS621  CYS622 
 ASP623  PHE694  ASN695  SER759  ASP760  ASP761  ALA762  ILE779  LEU786  VAL792 
 PHE793  MET794  SER795  GLU796  ALA797  LYS798  CYS799  TRP800  GLU811  SER814 

> <Gold.Protein.RotatedAtoms>
  150.7512  133.9652  159.3527 H   0  0  0  0  0  0  0  0  0  0  0  0  # atno 6907 bound_to 6896
  151.7581  135.0815  160.0350 H   0  0  0  0  0  0  0  0  0  0  0  0  # atno 6908 bound_to 6896
  152.3421  133.6042  159.5920 H   0  0  0  0  0  0  0  0  0  0  0  0  # atno 6909 bound_to 6896
  145.7250  139.2662  143.1574 H   0  0  0  0  0  0  0  0  0  0  0  0  # atno 7974 bound_to 7965
  155.8718  140.0994  157.1545 H   0  0  0  0  0  0  0  0  0  0  0  0  # atno 8008 bound_to 7997
  154.3997  140.1345  156.4150 H   0  0  0  0  0  0  0  0  0  0  0  0  # atno 8009 bound_to 7997
  155.7742  140.3460  155.5265 H   0  0  0  0  0  0  0  0  0  0  0  0  # atno 8010 bound_to 7997
  140.1680  144.4305  150.6675 H   0  0  0  0  0  0  0  0  0  0  0  0  # atno 10167 bound_to 10162
  156.0030  130.4640  150.4135 H   0  0  0  0  0  0  0  0  0  0  0  0  # atno 10718 bound_to 10713
  154.4937  135.2780  155.1476 H   0  0  0  0  0  0  0  0  0  0  0  0  # atno 10763 bound_to 10752
  154.3137  135.6223  153.5481 H   0  0  0  0  0  0  0  0  0  0  0  0  # atno 10764 bound_to 10752
  152.9892  135.5726  154.5364 H   0  0  0  0  0  0  0  0  0  0  0  0  # atno 10765 bound_to 10752
  141.1277  133.8385  157.1079 H   0  0  0  0  0  0  0  0  0  0  0  0  # atno 11005 bound_to 11000
  146.0591  140.7990  142.9744 LP  0  0  0  0  0  0  0  0  0  0  0  0  # atno 17320 bound_to 7965
  144.6907  140.3169  143.7239 LP  0  0  0  0  0  0  0  0  0  0  0  0  # atno 17321 bound_to 7965
  140.6600  143.2249  151.5878 LP  0  0  0  0  0  0  0  0  0  0  0  0  # atno 17342 bound_to 10162
  139.5351  144.2805  152.1233 LP  0  0  0  0  0  0  0  0  0  0  0  0  # atno 17343 bound_to 10162
  157.2196  131.0479  151.2554 LP  0  0  0  0  0  0  0  0  0  0  0  0  # atno 17370 bound_to 10713
  157.3813  130.7233  149.6632 LP  0  0  0  0  0  0  0  0  0  0  0  0  # atno 17371 bound_to 10713
  140.0293  134.9909  157.0748 LP  0  0  0  0  0  0  0  0  0  0  0  0  # atno 17394 bound_to 11000
  140.4311  134.1779  155.7168 LP  0  0  0  0  0  0  0  0  0  0  0  0  # atno 17395 bound_to 11000

$$$$
