AV-unprocessed.smi:970|AV-procd|sdf|4292|dock3
  -GOLD-   22720 2193D 1   1.00000     0.00000
 Structure written by MMmdl.
 31 31  0  0  0  0  0  0  0  0  1 V2000
  153.0170  142.5339  162.3028 C   0  0  0  0  0  0  0  0  0  0  0  0
  152.1703  143.2279  161.3450 N   0  0  0  0  0  0  0  0  0  0  0  0
  152.1404  142.9599  160.0319 C   0  0  0  0  0  0  0  0  0  0  0  0
  152.8451  142.0968  159.5051 O   0  0  0  0  0  0  0  0  0  0  0  0
  151.1771  143.8096  159.1862 C   0  0  1  0  0  0  0  0  0  0  0  0
  151.7604  145.2285  159.0817 C   0  0  0  0  0  0  0  0  0  0  0  0
  151.0726  143.2635  157.8347 N   0  0  0  0  0  0  0  0  0  0  0  0
  150.5773  142.0550  157.5215 C   0  0  0  0  0  0  0  0  0  0  0  0
  150.0983  141.2881  158.3578 O   0  0  0  0  0  0  0  0  0  0  0  0
  150.6498  141.6583  156.0390 C   0  0  2  0  0  0  0  0  0  0  0  0
  149.2829  141.2306  155.4664 C   0  0  0  0  0  0  0  0  0  0  0  0
  151.6745  140.6388  155.8474 N   0  0  0  0  0  0  0  0  0  0  0  0
  152.4035  139.9767  156.7486 C   0  0  0  0  0  0  0  0  0  0  0  0
  153.2139  139.0680  156.2247 N   0  0  0  0  0  0  0  0  0  0  0  0
  152.9026  139.2205  154.9037 C   0  0  0  0  0  0  0  0  0  0  0  0
  151.9800  140.1406  154.6232 N   0  0  0  0  0  0  0  0  0  0  0  0
  152.8517  142.9337  163.3034 H   0  0  0  0  0  0  0  0  0  0  0  0
  154.0713  142.6621  162.0536 H   0  0  0  0  0  0  0  0  0  0  0  0
  152.7898  141.4671  162.3202 H   0  0  0  0  0  0  0  0  0  0  0  0
  151.5642  143.9522  161.7023 H   0  0  0  0  0  0  0  0  0  0  0  0
  150.1917  143.8496  159.6551 H   0  0  0  0  0  0  0  0  0  0  0  0
  151.8629  145.6882  160.0655 H   0  0  0  0  0  0  0  0  0  0  0  0
  151.1096  145.8732  158.4904 H   0  0  0  0  0  0  0  0  0  0  0  0
  152.7439  145.2312  158.6087 H   0  0  0  0  0  0  0  0  0  0  0  0
  151.4505  143.8285  157.0883 H   0  0  0  0  0  0  0  0  0  0  0  0
  150.9696  142.5407  155.4822 H   0  0  0  0  0  0  0  0  0  0  0  0
  148.5481  142.0299  155.5668 H   0  0  0  0  0  0  0  0  0  0  0  0
  148.8831  140.3500  155.9708 H   0  0  0  0  0  0  0  0  0  0  0  0
  149.3637  140.9940  154.4051 H   0  0  0  0  0  0  0  0  0  0  0  0
  152.3360  140.1595  157.8111 H   0  0  0  0  0  0  0  0  0  0  0  0
  153.3663  138.6324  154.1255 H   0  0  0  0  0  0  0  0  0  0  0  0
  1  2  1  0  0  0  0
  1 17  1  0  0  0  0
  1 18  1  0  0  0  0
  1 19  1  0  0  0  0
  2  3  1  0  0  0  0
  2 20  1  0  0  0  0
  3  4  2  0  0  0  0
  3  5  1  0  0  0  0
  5  6  1  0  0  0  0
  5  7  1  0  0  0  0
  5 21  1  0  0  0  0
  6 22  1  0  0  0  0
  6 23  1  0  0  0  0
  6 24  1  0  0  0  0
  7  8  1  0  0  0  0
  7 25  1  0  0  0  0
  8  9  2  0  0  0  0
  8 10  1  0  0  0  0
 10 11  1  0  0  0  0
 10 12  1  0  0  0  0
 10 26  1  0  0  0  0
 11 27  1  0  0  0  0
 11 28  1  0  0  0  0
 11 29  1  0  0  0  0
 12 16  1  0  0  0  0
 12 13  1  0  0  0  0
 13 14  2  0  0  0  0
 13 30  1  0  0  0  0
 14 15  1  0  0  0  0
 15 16  2  0  0  0  0
 15 31  1  0  0  0  0
M  END
> <s_m_source_file>
AV-unprocessed.smi

> <i_m_source_file_index>
970

> <i_lp_mmshare_version>
43012

> <i_f3d_flags>
0

> <s_epik_input>
W0NIM11bTkhdQyg9TylbQ0BIXShbQ0gzXSlbTkhdQyg9TylbQ0BIXShbQ0gzXSluMVtjSF1uW2NIXW4x

> <s_epik_cmdline>
J2VwaWtfcHl0aG9uJywgJy1waCcsICc3LjAnLCAnLXRuJywgJzgnLCAnLW1hJywgJzIwMCcsICctbWV0YWxfYmluZGluZycsICctaW1hZScsICc8aW5maWxlLm1hZT4nLCAnLW9tYWUnLCAnPG91dGZpbGUubWFlPic=

> <r_lp_tautomer_probability>
1

> <r_epik_Ionization_Penalty>
1.07271e-05

> <r_epik_Ionization_Penalty_Charging>
0

> <r_epik_Ionization_Penalty_Neutral>
1.07271e-05

> <r_epik_State_Penalty>
-0

> <r_epik_Charging_Adjusted_Penalty>
0

> <i_epik_Tot_Q>
0

> <i_epik_Tot_abs_Q>
0

> <r_epik_Metal_State_Penalty>
-0

> <b_epik_Metal_Only>
0

> <s_lp_Force_Field>
OPLS_2005

> <r_lp_Energy>
8.21171

> <b_lp_Chiralities_Consistent>
1

> <s_lp_Variant>
AV-unprocessed.smi:970-2

> <Gold.Version>
5.8.1

> <Gold.Id.Protein>
6NUR|6NUR_protein|mol2

> <Gold.PLP.Fitness>
39.3699

> <Gold.PLP.PLP>
-37.1071

> <Gold.PLP.part.hbond>
-1.8151

> <Gold.PLP.part.metal>
0.0000

> <Gold.PLP.part.buried>
-5.6017

> <Gold.PLP.part.nonpolar>
-29.0163

> <Gold.PLP.part.repulsive>
0.1734

> <Gold.PLP.ligand.clash>
0.0000

> <Gold.PLP.ligand.torsion>
0.4553

> <Gold.PLP.Chemscore.Hbond>
1.0179

> <Gold.PLP.Chemscore.CHOScore>
0.0000

> <Gold.PLP.Chemscore.Metal>
0.0000

> <Gold.Chemscore.Hbonds>
donor molecule, donor type, donor heavy atom, donor atom, acceptor molecule, acceptor atom, score
      P1  H  7989  7998       L1    16  0.49
      P1  H  7997  8009       L1    14  0.08

> <Gold.PLP.Chemscore.Internal.Correction>
0.1196

> <Gold.Rescore>
     Score         DG    S(hbond)    S(metal)    S(lipo)     H(rot)  DE(clash)    DE(int)     intcor
      7.15      -7.98       0.97        0.00      50.30       2.59       0.00       0.83       ----

> <Gold.Chemscore.Fitness>
7.1530

> <Gold.Chemscore.DG>
-7.9815

> <Gold.Chemscore.ZeroCoef>
-5.4800

> <Gold.Chemscore.Hbond>
0.9686

> <Gold.Chemscore.Metal>
0.0000

> <Gold.Chemscore.Lipo>
50.2952

> <Gold.Chemscore.Internal_Hbond>
0.0000

> <Gold.Chemscore.DEClash>
0.0000

> <Gold.Chemscore.DEInternal>
0.8285

> <Gold.Chemscore.Rot>
2.5852

> <Gold.Chemscore.Internal.Correction>
   9.000000E+99

> <Gold.Chemscore.Hbonds>
donor molecule, donor type, donor heavy atom, donor atom, acceptor molecule, acceptor atom, score
      P1  H  7989  7998       L1    16  0.46

> <Gold.Chemscore.Hbond.Weighted>
-3.2351

> <Gold.Chemscore.Metal.Weighted>
-0.0000

> <Gold.Chemscore.Lipo.Weighted>
-5.8845

> <Gold.Chemscore.Internal_Hbond.Weighted>
0.0000

> <Gold.Chemscore.DEClash.Weighted>
0.0000

> <Gold.Chemscore.DEInternal.Weighted>
0.8285

> <Gold.Chemscore.Rot.Weighted>
6.6182

> <Gold.Chemscore.Internal.Correction.Weighted>
   9.000000E+99

> <Gold.Protein.RotatedTorsions>
[ 6907 6896 6895 6894 ] final   10.37 input  -60.11 | X-H torsion
[ 7974 7965 7964 7962 ] final -145.96 input  175.53 | X-H torsion
[ 8008 7997 7996 7995 ] final  143.48 input   59.86 | X-H torsion
[ 10167 10162 10161 10158 ] final -159.45 input  -65.29 | X-H torsion
[ 10718 10713 10712 10709 ] final  131.77 input   66.30 | X-H torsion
[ 10763 10752 10751 10750 ] final  -85.03 input  -60.55 | X-H torsion
[ 11005 11000 10999 10996 ] final  -74.56 input  -57.11 | X-H torsion

> <Gold.Protein.ActiveResidues>
 VAL166  LYS551  ARG553  GLY616  TRP617  ASP618  TYR619  PRO620  LYS621  CYS622 
 ASP623  PHE694  ASN695  SER759  ASP760  ASP761  ALA762  ILE779  LEU786  VAL792 
 PHE793  MET794  SER795  GLU796  ALA797  LYS798  CYS799  TRP800  GLU811  SER814 

> <Gold.Protein.RotatedAtoms>
  151.7372  135.0862  160.0309 H   0  0  0  0  0  0  0  0  0  0  0  0  # atno 6907 bound_to 6896
  152.3503  133.6167  159.5948 H   0  0  0  0  0  0  0  0  0  0  0  0  # atno 6908 bound_to 6896
  150.7535  133.9501  159.3524 H   0  0  0  0  0  0  0  0  0  0  0  0  # atno 6909 bound_to 6896
  144.8191  140.5516  143.5590 H   0  0  0  0  0  0  0  0  0  0  0  0  # atno 7974 bound_to 7965
  156.2929  140.2261  156.4898 H   0  0  0  0  0  0  0  0  0  0  0  0  # atno 8008 bound_to 7997
  154.7781  140.0462  157.1126 H   0  0  0  0  0  0  0  0  0  0  0  0  # atno 8009 bound_to 7997
  154.9792  140.3076  155.4957 H   0  0  0  0  0  0  0  0  0  0  0  0  # atno 8010 bound_to 7997
  139.6614  143.9906  152.2227 H   0  0  0  0  0  0  0  0  0  0  0  0  # atno 10167 bound_to 10162
  157.4936  131.1091  150.9523 H   0  0  0  0  0  0  0  0  0  0  0  0  # atno 10718 bound_to 10713
  154.6064  135.5499  153.7427 H   0  0  0  0  0  0  0  0  0  0  0  0  # atno 10763 bound_to 10752
  153.0176  135.6379  154.1641 H   0  0  0  0  0  0  0  0  0  0  0  0  # atno 10764 bound_to 10752
  154.1580  135.2899  155.3097 H   0  0  0  0  0  0  0  0  0  0  0  0  # atno 10765 bound_to 10752
  141.1636  133.6915  156.7382 H   0  0  0  0  0  0  0  0  0  0  0  0  # atno 11005 bound_to 11000
  145.5145  139.1478  143.3586 LP  0  0  0  0  0  0  0  0  0  0  0  0  # atno 17320 bound_to 7965
  146.2496  140.5286  142.8899 LP  0  0  0  0  0  0  0  0  0  0  0  0  # atno 17321 bound_to 7965
  139.9646  144.6535  150.8047 LP  0  0  0  0  0  0  0  0  0  0  0  0  # atno 17342 bound_to 10162
  140.7581  143.3101  151.2866 LP  0  0  0  0  0  0  0  0  0  0  0  0  # atno 17343 bound_to 10162
  157.0217  130.5676  149.5332 LP  0  0  0  0  0  0  0  0  0  0  0  0  # atno 17370 bound_to 10713
  156.0187  130.5282  150.8213 LP  0  0  0  0  0  0  0  0  0  0  0  0  # atno 17371 bound_to 10713
  140.2694  134.8404  157.3833 LP  0  0  0  0  0  0  0  0  0  0  0  0  # atno 17394 bound_to 11000
  140.1536  134.4818  155.7944 LP  0  0  0  0  0  0  0  0  0  0  0  0  # atno 17395 bound_to 11000

$$$$
