AV-unprocessed.smi:1813|AV-procd|sdf|7345|dock10
  -GOLD-   22720 9 03D 1   1.00000     0.00000
 Structure written by MMmdl.
 39 40  0  0  0  0  0  0  0  0  3 V2000
  140.8809  141.1210  155.2601 C   0  0  0  0  0  0  0  0  0  0  0  0
  142.0399  141.8592  154.7724 N   0  5  0  0  0  0  0  0  0  0  0  0
  142.6854  142.8087  155.5016 C   0  0  0  0  0  0  0  0  0  0  0  0
  142.4851  143.2177  156.6503 O   0  0  0  0  0  0  0  0  0  0  0  0
  143.8561  143.4089  154.7147 C   0  0  0  0  0  0  0  0  0  0  0  0
  144.9334  142.4011  154.5513 N   0  3  2  0  0  0  0  0  0  0  0  0
  145.3941  141.8555  155.8531 C   0  0  0  0  0  0  0  0  0  0  0  0
  146.4013  140.7098  155.6511 C   0  0  0  0  0  0  0  0  0  0  0  0
  147.6036  141.1426  154.7888 C   0  0  2  0  0  0  0  0  0  0  0  0
  148.4766  142.0767  155.4995 N   0  0  0  0  0  0  0  0  0  0  0  0
  149.4117  141.7331  156.3973 C   0  0  0  0  0  0  0  0  0  0  0  0
  149.6339  140.5694  156.7327 O   0  0  0  0  0  0  0  0  0  0  0  0
  150.0552  142.8154  156.8695 N   0  0  0  0  0  0  0  0  0  0  0  0
  151.0960  142.8658  157.8339 C   0  0  0  0  0  0  0  0  0  0  0  0
  151.5197  141.8129  158.5426 N   0  0  0  0  0  0  0  0  0  0  0  0
  152.5540  142.1523  159.4185 C   0  0  0  0  0  0  0  0  0  0  0  0
  152.9060  143.4781  159.3644 C   0  0  0  0  0  0  0  0  0  0  0  0
  151.9490  144.3576  158.2021 S   0  0  0  0  0  0  0  0  0  0  0  0
  147.0996  141.7681  153.4768 C   0  0  0  0  0  0  0  0  0  0  0  0
  146.0724  142.8873  153.7263 C   0  0  0  0  0  0  0  0  0  0  0  0
  140.4833  140.4449  154.5035 H   0  0  0  0  0  0  0  0  0  0  0  0
  140.0597  141.7768  155.5502 H   0  0  0  0  0  0  0  0  0  0  0  0
  141.1172  140.5067  156.1295 H   0  0  0  0  0  0  0  0  0  0  0  0
  143.5560  143.8095  153.7436 H   0  0  0  0  0  0  0  0  0  0  0  0
  144.2234  144.2562  155.2955 H   0  0  0  0  0  0  0  0  0  0  0  0
  145.8390  142.6548  156.4478 H   0  0  0  0  0  0  0  0  0  0  0  0
  144.5394  141.4804  156.4173 H   0  0  0  0  0  0  0  0  0  0  0  0
  146.7354  140.3307  156.6175 H   0  0  0  0  0  0  0  0  0  0  0  0
  145.8950  139.8762  155.1625 H   0  0  0  0  0  0  0  0  0  0  0  0
  148.1929  140.2587  154.5369 H   0  0  0  0  0  0  0  0  0  0  0  0
  148.3671  143.0567  155.2824 H   0  0  0  0  0  0  0  0  0  0  0  0
  149.7675  143.7083  156.4973 H   0  0  0  0  0  0  0  0  0  0  0  0
  152.9830  141.3854  160.0467 H   0  0  0  0  0  0  0  0  0  0  0  0
  153.6679  143.9880  159.9351 H   0  0  0  0  0  0  0  0  0  0  0  0
  147.9374  142.1514  152.8930 H   0  0  0  0  0  0  0  0  0  0  0  0
  146.6360  140.9923  152.8659 H   0  0  0  0  0  0  0  0  0  0  0  0
  145.7130  143.2530  152.7642 H   0  0  0  0  0  0  0  0  0  0  0  0
  146.5470  143.7343  154.2238 H   0  0  0  0  0  0  0  0  0  0  0  0
  144.5141  141.6303  154.0507 H   0  0  0  0  0  0  0  0  0  0  0  0
  1  2  1  0  0  0  0
  1 21  1  0  0  0  0
  1 22  1  0  0  0  0
  1 23  1  0  0  0  0
  2  3  1  0  0  0  0
  3  4  2  0  0  0  0
  3  5  1  0  0  0  0
  5  6  1  0  0  0  0
  5 24  1  0  0  0  0
  5 25  1  0  0  0  0
  6 20  1  0  0  0  0
  6  7  1  0  0  0  0
  6 39  1  0  0  0  0
  7  8  1  0  0  0  0
  7 26  1  0  0  0  0
  7 27  1  0  0  0  0
  8  9  1  0  0  0  0
  8 28  1  0  0  0  0
  8 29  1  0  0  0  0
  9 10  1  0  0  0  0
  9 19  1  0  0  0  0
  9 30  1  0  0  0  0
 10 11  1  0  0  0  0
 10 31  1  0  0  0  0
 11 12  2  0  0  0  0
 11 13  1  0  0  0  0
 13 14  1  0  0  0  0
 13 32  1  0  0  0  0
 14 18  1  0  0  0  0
 14 15  2  0  0  0  0
 15 16  1  0  0  0  0
 16 17  2  0  0  0  0
 16 33  1  0  0  0  0
 17 18  1  0  0  0  0
 17 34  1  0  0  0  0
 19 20  1  0  0  0  0
 19 35  1  0  0  0  0
 19 36  1  0  0  0  0
 20 37  1  0  0  0  0
 20 38  1  0  0  0  0
M  CHG  1   2  -1
M  CHG  1   6   1
M  END
> <s_m_source_file>
AV-unprocessed.smi

> <i_m_source_file_index>
1813

> <i_lp_mmshare_version>
43012

> <i_f3d_flags>
0

> <s_epik_input>
W0NIM11bTkhdQyg9TylbQ0gyXU4xW0NIMl1bQ0gyXVtDSF0oW0NIMl1bQ0gyXTEpW05IXUMoPU8pW05IXWMybltjSF1bY0hdczI=

> <s_epik_cmdline>
J2VwaWtfcHl0aG9uJywgJy1waCcsICc3LjAnLCAnLXRuJywgJzgnLCAnLW1hJywgJzIwMCcsICctbWV0YWxfYmluZGluZycsICctaW1hZScsICc8aW5maWxlLm1hZT4nLCAnLW9tYWUnLCAnPG91dGZpbGUubWFlPic=

> <r_lp_tautomer_probability>
0.999

> <r_epik_Ionization_Penalty>
6.14232

> <r_epik_Ionization_Penalty_Charging>
6.14218

> <r_epik_Ionization_Penalty_Neutral>
0.000139308

> <r_epik_State_Penalty>
6.98503

> <r_epik_Charging_Adjusted_Penalty>
13.1272

> <i_epik_Tot_Q>
0

> <i_epik_Tot_abs_Q>
2

> <r_epik_Metal_State_Penalty>
2.95036

> <b_epik_Metal_Only>
1

> <s_lp_Force_Field>
OPLS_2005

> <r_lp_Energy>
8.34863

> <b_lp_Chiralities_Consistent>
1

> <s_lp_Variant>
AV-unprocessed.smi:1813-6

> <Gold.Version>
5.8.1

> <Gold.Id.Protein>
6NUR|6NUR_protein|mol2

> <Gold.PLP.Fitness>
40.7303

> <Gold.PLP.PLP>
-29.8354

> <Gold.PLP.part.hbond>
-3.0000

> <Gold.PLP.part.metal>
0.0000

> <Gold.PLP.part.buried>
-4.1545

> <Gold.PLP.part.nonpolar>
-24.3529

> <Gold.PLP.part.repulsive>
1.3334

> <Gold.PLP.ligand.clash>
0.0000

> <Gold.PLP.ligand.torsion>
0.4189

> <Gold.PLP.Chemscore.Hbond>
3.8940

> <Gold.PLP.Chemscore.CHOScore>
0.0000

> <Gold.PLP.Chemscore.Metal>
0.0000

> <Gold.Chemscore.Hbonds>
donor molecule, donor type, donor heavy atom, donor atom, acceptor molecule, acceptor atom, score
      L1  H     6    39       P1 10175  1.46
      L1  H    10    31       P1  8028  0.94
      L1  H    13    32       P1  8028  1.00

> <Gold.PLP.Chemscore.Internal.Correction>
0.0507

> <Gold.Rescore>
     Score         DG    S(hbond)    S(metal)    S(lipo)     H(rot)  DE(clash)    DE(int)     intcor
     15.43     -16.91       2.57        0.00      62.27       1.73       0.03       1.45       ----

> <Gold.Chemscore.Fitness>
15.4265

> <Gold.Chemscore.DG>
-16.9112

> <Gold.Chemscore.ZeroCoef>
-5.4800

> <Gold.Chemscore.Hbond>
2.5682

> <Gold.Chemscore.Metal>
0.0000

> <Gold.Chemscore.Lipo>
62.2685

> <Gold.Chemscore.Internal_Hbond>
0.0000

> <Gold.Chemscore.DEClash>
0.0314

> <Gold.Chemscore.DEInternal>
1.4533

> <Gold.Chemscore.Rot>
1.7312

> <Gold.Chemscore.Internal.Correction>
   9.000000E+99

> <Gold.Chemscore.Hbonds>
donor molecule, donor type, donor heavy atom, donor atom, acceptor molecule, acceptor atom, score
      L1  H     6    39       P1 10175  0.12
      L1  H    10    31       P1  8028  0.90
      L1  H    13    32       P1  8028  0.97

> <Gold.Chemscore.Hbond.Weighted>
-8.5776

> <Gold.Chemscore.Metal.Weighted>
-0.0000

> <Gold.Chemscore.Lipo.Weighted>
-7.2854

> <Gold.Chemscore.Internal_Hbond.Weighted>
0.0000

> <Gold.Chemscore.DEClash.Weighted>
0.0314

> <Gold.Chemscore.DEInternal.Weighted>
1.4533

> <Gold.Chemscore.Rot.Weighted>
4.4319

> <Gold.Chemscore.Internal.Correction.Weighted>
   9.000000E+99

> <Gold.Protein.RotatedTorsions>
[ 6907 6896 6895 6894 ] final  -70.10 input  -60.11 | X-H torsion
[ 7974 7965 7964 7962 ] final  -64.58 input  175.53 | X-H torsion
[ 8008 7997 7996 7995 ] final   71.86 input   59.86 | X-H torsion
[ 10167 10162 10161 10158 ] final  -40.67 input  -65.29 | X-H torsion
[ 10718 10713 10712 10709 ] final -153.93 input   66.30 | X-H torsion
[ 10763 10752 10751 10750 ] final -148.62 input  -60.55 | X-H torsion
[ 11005 11000 10999 10996 ] final   10.78 input  -57.11 | X-H torsion

> <Gold.Protein.ActiveResidues>
 VAL166  LYS551  ARG553  GLY616  TRP617  ASP618  TYR619  PRO620  LYS621  CYS622 
 ASP623  PHE694  ASN695  SER759  ASP760  ASP761  ALA762  ILE779  LEU786  VAL792 
 PHE793  MET794  SER795  GLU796  ALA797  LYS798  CYS799  TRP800  GLU811  SER814 

> <Gold.Protein.RotatedAtoms>
  150.7273  134.5501  159.5789 H   0  0  0  0  0  0  0  0  0  0  0  0  # atno 6907 bound_to 6896
  152.2990  134.7630  160.0371 H   0  0  0  0  0  0  0  0  0  0  0  0  # atno 6908 bound_to 6896
  151.8217  133.3360  159.3623 H   0  0  0  0  0  0  0  0  0  0  0  0  # atno 6909 bound_to 6896
  145.7650  140.8842  143.0410 H   0  0  0  0  0  0  0  0  0  0  0  0  # atno 7974 bound_to 7965
  155.7602  140.3486  155.5194 H   0  0  0  0  0  0  0  0  0  0  0  0  # atno 8008 bound_to 7997
  155.8921  140.1019  157.1432 H   0  0  0  0  0  0  0  0  0  0  0  0  # atno 8009 bound_to 7997
  154.4034  140.1302  156.4316 H   0  0  0  0  0  0  0  0  0  0  0  0  # atno 8010 bound_to 7997
  140.7027  143.3140  151.2957 H   0  0  0  0  0  0  0  0  0  0  0  0  # atno 10167 bound_to 10162
  156.4925  130.8354  151.2576 H   0  0  0  0  0  0  0  0  0  0  0  0  # atno 10718 bound_to 10713
  154.8223  135.3330  154.7002 H   0  0  0  0  0  0  0  0  0  0  0  0  # atno 10763 bound_to 10752
  153.7633  135.6931  153.4925 H   0  0  0  0  0  0  0  0  0  0  0  0  # atno 10764 bound_to 10752
  153.2095  135.4487  155.0312 H   0  0  0  0  0  0  0  0  0  0  0  0  # atno 10765 bound_to 10752
  140.5106  134.0656  155.7817 H   0  0  0  0  0  0  0  0  0  0  0  0  # atno 11005 bound_to 11000
  144.6823  139.9776  143.7483 LP  0  0  0  0  0  0  0  0  0  0  0  0  # atno 17320 bound_to 7965
  146.0226  139.3265  143.0803 LP  0  0  0  0  0  0  0  0  0  0  0  0  # atno 17321 bound_to 7965
  139.6572  144.0255  152.2667 LP  0  0  0  0  0  0  0  0  0  0  0  0  # atno 17342 bound_to 10162
  139.9810  144.6428  150.7900 LP  0  0  0  0  0  0  0  0  0  0  0  0  # atno 17343 bound_to 10162
  157.7472  131.0009  150.2942 LP  0  0  0  0  0  0  0  0  0  0  0  0  # atno 17370 bound_to 10713
  156.3412  130.3816  149.7407 LP  0  0  0  0  0  0  0  0  0  0  0  0  # atno 17371 bound_to 10713
  141.1388  133.9175  157.2374 LP  0  0  0  0  0  0  0  0  0  0  0  0  # atno 17394 bound_to 11000
  139.9661  135.0141  156.9391 LP  0  0  0  0  0  0  0  0  0  0  0  0  # atno 17395 bound_to 11000

$$$$
