AV-unprocessed.smi:1684|AV-procd|sdf|6753|dock4
  -GOLD-   22720 7513D 1   1.00000     0.00000
 Structure written by MMmdl.
 42 43  0  0  0  0  0  0  0  0  1 V2000
  147.5013  132.7467  152.6267 C   0  0  0  0  0  0  0  0  0  0  0  0
  146.2988  132.9193  151.7130 C   0  0  0  0  0  0  0  0  0  0  0  0
  145.6731  131.7762  151.1716 C   0  0  0  0  0  0  0  0  0  0  0  0
  144.5606  131.9378  150.3283 C   0  0  0  0  0  0  0  0  0  0  0  0
  144.1187  133.2444  150.0594 C   0  0  0  0  0  0  0  0  0  0  0  0
  144.7116  134.3422  150.5710 N   0  0  0  0  0  0  0  0  0  0  0  0
  145.7866  134.2039  151.3874 C   0  0  0  0  0  0  0  0  0  0  0  0
  146.4605  135.3164  151.9660 N   0  0  0  0  0  0  0  0  0  0  0  0
  145.9302  136.4124  152.5365 C   0  0  0  0  0  0  0  0  0  0  0  0
  144.7264  136.6515  152.6359 O   0  0  0  0  0  0  0  0  0  0  0  0
  146.8911  137.2309  152.9911 N   0  0  0  0  0  0  0  0  0  0  0  0
  146.6771  138.5058  153.6739 C   0  0  2  0  0  0  0  0  0  0  0  0
  146.6344  139.6279  152.6278 C   0  0  0  0  0  0  0  0  0  0  0  0
  147.7950  138.7571  154.7096 C   0  0  0  0  0  0  0  0  0  0  0  0
  148.9736  137.8969  154.5967 N   0  0  0  0  0  0  0  0  0  0  0  0
  150.1898  138.6243  154.9415 C   0  0  0  0  0  0  0  0  0  0  0  0
  151.4429  137.7393  154.8226 C   0  0  0  0  0  0  0  0  0  0  0  0
  151.2929  136.5861  155.6439 O   0  0  0  0  0  0  0  0  0  0  0  0
  150.1384  135.8223  155.3105 C   0  0  0  0  0  0  0  0  0  0  0  0
  148.8837  136.7031  155.4355 C   0  0  0  0  0  0  0  0  0  0  0  0
  147.7445  131.6932  152.7688 H   0  0  0  0  0  0  0  0  0  0  0  0
  147.3008  133.1790  153.6075 H   0  0  0  0  0  0  0  0  0  0  0  0
  148.3768  133.2392  152.2023 H   0  0  0  0  0  0  0  0  0  0  0  0
  146.0389  130.7856  151.3986 H   0  0  0  0  0  0  0  0  0  0  0  0
  144.0594  131.0830  149.8990 H   0  0  0  0  0  0  0  0  0  0  0  0
  143.2671  133.4134  149.4172 H   0  0  0  0  0  0  0  0  0  0  0  0
  147.4681  135.2669  151.9468 H   0  0  0  0  0  0  0  0  0  0  0  0
  147.8510  136.9460  152.8640 H   0  0  0  0  0  0  0  0  0  0  0  0
  145.7061  138.5073  154.1698 H   0  0  0  0  0  0  0  0  0  0  0  0
  146.4461  140.5935  153.0980 H   0  0  0  0  0  0  0  0  0  0  0  0
  145.8404  139.4571  151.9001 H   0  0  0  0  0  0  0  0  0  0  0  0
  147.5761  139.7016  152.0826 H   0  0  0  0  0  0  0  0  0  0  0  0
  148.1077  139.7976  154.6123 H   0  0  0  0  0  0  0  0  0  0  0  0
  147.3812  138.6676  155.7151 H   0  0  0  0  0  0  0  0  0  0  0  0
  150.3005  139.4908  154.2885 H   0  0  0  0  0  0  0  0  0  0  0  0
  150.1149  139.0083  155.9601 H   0  0  0  0  0  0  0  0  0  0  0  0
  151.6063  137.4378  153.7869 H   0  0  0  0  0  0  0  0  0  0  0  0
  152.3279  138.2907  155.1398 H   0  0  0  0  0  0  0  0  0  0  0  0
  150.2329  135.4277  154.2976 H   0  0  0  0  0  0  0  0  0  0  0  0
  150.0702  134.9672  155.9829 H   0  0  0  0  0  0  0  0  0  0  0  0
  148.7478  136.9921  156.4786 H   0  0  0  0  0  0  0  0  0  0  0  0
  148.0144  136.1075  155.1618 H   0  0  0  0  0  0  0  0  0  0  0  0
  1  2  1  0  0  0  0
  1 21  1  0  0  0  0
  1 22  1  0  0  0  0
  1 23  1  0  0  0  0
  2  7  1  0  0  0  0
  2  3  2  0  0  0  0
  3  4  1  0  0  0  0
  3 24  1  0  0  0  0
  4  5  2  0  0  0  0
  4 25  1  0  0  0  0
  5  6  1  0  0  0  0
  5 26  1  0  0  0  0
  6  7  2  0  0  0  0
  7  8  1  0  0  0  0
  8  9  1  0  0  0  0
  8 27  1  0  0  0  0
  9 10  2  0  0  0  0
  9 11  1  0  0  0  0
 11 12  1  0  0  0  0
 11 28  1  0  0  0  0
 12 13  1  0  0  0  0
 12 14  1  0  0  0  0
 12 29  1  0  0  0  0
 13 30  1  0  0  0  0
 13 31  1  0  0  0  0
 13 32  1  0  0  0  0
 14 15  1  0  0  0  0
 14 33  1  0  0  0  0
 14 34  1  0  0  0  0
 15 20  1  0  0  0  0
 15 16  1  0  0  0  0
 16 17  1  0  0  0  0
 16 35  1  0  0  0  0
 16 36  1  0  0  0  0
 17 18  1  0  0  0  0
 17 37  1  0  0  0  0
 17 38  1  0  0  0  0
 18 19  1  0  0  0  0
 19 20  1  0  0  0  0
 19 39  1  0  0  0  0
 19 40  1  0  0  0  0
 20 41  1  0  0  0  0
 20 42  1  0  0  0  0
M  END
> <s_m_source_file>
AV-unprocessed.smi

> <i_m_source_file_index>
1684

> <i_lp_mmshare_version>
43012

> <i_f3d_flags>
0

> <s_epik_input>
W0NIM11jMVtjSF1bY0hdW2NIXW5jMVtOSF1DKD1PKVtOSF1bQ0BIXShbQ0gzXSlbQ0gyXU4yW0NIMl1bQ0gyXU9bQ0gyXVtDSDJdMg==

> <s_epik_cmdline>
J2VwaWtfcHl0aG9uJywgJy1waCcsICc3LjAnLCAnLXRuJywgJzgnLCAnLW1hJywgJzIwMCcsICctbWV0YWxfYmluZGluZycsICctaW1hZScsICc8aW5maWxlLm1hZT4nLCAnLW9tYWUnLCAnPG91dGZpbGUubWFlPic=

> <r_epik_Ionization_Penalty>
0.26605

> <r_epik_Ionization_Penalty_Charging>
0

> <r_epik_Ionization_Penalty_Neutral>
0.26605

> <r_epik_State_Penalty>
0.257924

> <r_epik_Charging_Adjusted_Penalty>
0.257924

> <i_epik_Tot_Q>
0

> <i_epik_Tot_abs_Q>
0

> <r_epik_Metal_State_Penalty>
0.257922

> <b_epik_Metal_Only>
0

> <s_lp_Force_Field>
OPLS_2005

> <r_lp_Energy>
27.9157

> <b_lp_Chiralities_Consistent>
1

> <s_lp_Variant>
AV-unprocessed.smi:1684-1

> <Gold.Version>
5.8.1

> <Gold.Id.Protein>
6NUR|6NUR_protein|mol2

> <Gold.PLP.Fitness>
38.4916

> <Gold.PLP.PLP>
-30.3473

> <Gold.PLP.part.hbond>
-2.8830

> <Gold.PLP.part.metal>
0.0000

> <Gold.PLP.part.buried>
-3.9850

> <Gold.PLP.part.nonpolar>
-25.8182

> <Gold.PLP.part.repulsive>
1.0742

> <Gold.PLP.ligand.clash>
0.0000

> <Gold.PLP.ligand.torsion>
1.8428

> <Gold.PLP.Chemscore.Hbond>
2.9360

> <Gold.PLP.Chemscore.CHOScore>
1.0000

> <Gold.PLP.Chemscore.Metal>
0.0000

> <Gold.Chemscore.Hbonds>
donor molecule, donor type, donor heavy atom, donor atom, acceptor molecule, acceptor atom, score
      L1  H     8    27       P1  7948  0.91
      L1  H    11    28       P1  7948  0.93
      P1  H 10752 10763       L1    18  0.39
      L1  C     5    26       P1 10186  1.00

> <Gold.PLP.Chemscore.Internal.Correction>
0.0218

> <Gold.Rescore>
     Score         DG    S(hbond)    S(metal)    S(lipo)     H(rot)  DE(clash)    DE(int)     intcor
     16.65     -18.92       2.43        0.00      77.38       1.46       0.47       1.81       ----

> <Gold.Chemscore.Fitness>
16.6466

> <Gold.Chemscore.DG>
-18.9182

> <Gold.Chemscore.ZeroCoef>
-5.4800

> <Gold.Chemscore.Hbond>
2.4302

> <Gold.Chemscore.Metal>
0.0000

> <Gold.Chemscore.Lipo>
77.3841

> <Gold.Chemscore.Internal_Hbond>
0.0000

> <Gold.Chemscore.DEClash>
0.4666

> <Gold.Chemscore.DEInternal>
1.8050

> <Gold.Chemscore.Rot>
1.4581

> <Gold.Chemscore.Internal.Correction>
   9.000000E+99

> <Gold.Chemscore.Hbonds>
donor molecule, donor type, donor heavy atom, donor atom, acceptor molecule, acceptor atom, score
      L1  H     8    27       P1  7948  0.86
      L1  H    11    28       P1  7948  0.89
      P1  H 10752 10763       L1    18  0.01

> <Gold.Chemscore.Hbond.Weighted>
-8.1169

> <Gold.Chemscore.Metal.Weighted>
-0.0000

> <Gold.Chemscore.Lipo.Weighted>
-9.0539

> <Gold.Chemscore.Internal_Hbond.Weighted>
0.0000

> <Gold.Chemscore.DEClash.Weighted>
0.4666

> <Gold.Chemscore.DEInternal.Weighted>
1.8050

> <Gold.Chemscore.Rot.Weighted>
3.7327

> <Gold.Chemscore.Internal.Correction.Weighted>
   9.000000E+99

> <Gold.Protein.RotatedTorsions>
[ 6907 6896 6895 6894 ] final  170.94 input  -60.11 | X-H torsion
[ 7974 7965 7964 7962 ] final -138.75 input  175.53 | X-H torsion
[ 8008 7997 7996 7995 ] final   25.44 input   59.86 | X-H torsion
[ 10167 10162 10161 10158 ] final  155.16 input  -65.29 | X-H torsion
[ 10718 10713 10712 10709 ] final    8.68 input   66.30 | X-H torsion
[ 10763 10752 10751 10750 ] final   63.77 input  -60.55 | X-H torsion
[ 11005 11000 10999 10996 ] final  -41.59 input  -57.11 | X-H torsion

> <Gold.Protein.ActiveResidues>
 VAL166  LYS551  ARG553  GLY616  TRP617  ASP618  TYR619  PRO620  LYS621  CYS622 
 ASP623  PHE694  ASN695  SER759  ASP760  ASP761  ALA762  ILE779  LEU786  VAL792 
 PHE793  MET794  SER795  GLU796  ALA797  LYS798  CYS799  TRP800  GLU811  SER814 

> <Gold.Protein.RotatedAtoms>
  151.8082  133.3378  159.3547 H   0  0  0  0  0  0  0  0  0  0  0  0  # atno 6907 bound_to 6896
  150.7335  134.5689  159.5889 H   0  0  0  0  0  0  0  0  0  0  0  0  # atno 6908 bound_to 6896
  152.3094  134.7517  160.0391 H   0  0  0  0  0  0  0  0  0  0  0  0  # atno 6909 bound_to 6896
  144.8733  140.6399  143.5253 H   0  0  0  0  0  0  0  0  0  0  0  0  # atno 7974 bound_to 7965
  155.0118  140.3137  155.4827 H   0  0  0  0  0  0  0  0  0  0  0  0  # atno 8008 bound_to 7997
  156.2908  140.2213  156.5174 H   0  0  0  0  0  0  0  0  0  0  0  0  # atno 8009 bound_to 7997
  154.7528  140.0465  157.0896 H   0  0  0  0  0  0  0  0  0  0  0  0  # atno 8010 bound_to 7997
  139.4822  144.5123  151.8006 H   0  0  0  0  0  0  0  0  0  0  0  0  # atno 10167 bound_to 10162
  156.9552  130.5912  149.5659 H   0  0  0  0  0  0  0  0  0  0  0  0  # atno 10718 bound_to 10713
  153.0030  135.5417  154.6404 H   0  0  0  0  0  0  0  0  0  0  0  0  # atno 10763 bound_to 10752
  154.5661  135.2838  155.0875 H   0  0  0  0  0  0  0  0  0  0  0  0  # atno 10764 bound_to 10752
  154.2059  135.6476  153.5153 H   0  0  0  0  0  0  0  0  0  0  0  0  # atno 10765 bound_to 10752
  141.0257  133.6842  156.2479 H   0  0  0  0  0  0  0  0  0  0  0  0  # atno 11005 bound_to 11000
  145.4090  139.1583  143.4136 LP  0  0  0  0  0  0  0  0  0  0  0  0  # atno 17320 bound_to 7965
  146.2945  140.4192  142.8727 LP  0  0  0  0  0  0  0  0  0  0  0  0  # atno 17321 bound_to 7965
  140.4627  144.1699  150.5908 LP  0  0  0  0  0  0  0  0  0  0  0  0  # atno 17342 bound_to 10162
  140.4467  143.2503  151.9402 LP  0  0  0  0  0  0  0  0  0  0  0  0  # atno 17343 bound_to 10162
  156.0346  130.5434  150.8620 LP  0  0  0  0  0  0  0  0  0  0  0  0  # atno 17370 bound_to 10713
  157.5695  131.0946  150.9439 LP  0  0  0  0  0  0  0  0  0  0  0  0  # atno 17371 bound_to 10713
  140.6496  134.5081  157.5576 LP  0  0  0  0  0  0  0  0  0  0  0  0  # atno 17394 bound_to 11000
  139.9174  134.8218  156.1321 LP  0  0  0  0  0  0  0  0  0  0  0  0  # atno 17395 bound_to 11000

$$$$
