AV-unprocessed.smi:2032|AV-procd|sdf|8255|dock1
  -GOLD-   2272010523D 1   1.00000     0.00000
 Structure written by MMmdl.
 42 43  0  0  0  0  0  0  0  0  3 V2000
  146.1387  132.2173  151.3778 C   0  0  0  0  0  0  0  0  0  0  0  0
  146.4499  133.6426  151.8472 C   0  0  2  0  0  0  0  0  0  0  0  0
  147.1510  133.6638  153.2175 C   0  0  0  0  0  0  0  0  0  0  0  0
  147.3973  135.0596  153.6715 N   0  3  2  0  0  0  0  0  0  0  0  0
  148.1811  135.1280  154.9492 C   0  0  2  0  0  0  0  0  0  0  0  0
  149.4435  134.2302  154.9399 C   0  0  0  0  0  0  0  0  0  0  0  0
  147.2656  134.7787  156.1521 C   0  0  0  0  0  0  0  0  0  0  0  0
  147.3057  135.7828  157.2127 N   0  0  0  0  0  0  0  0  0  0  0  0
  147.8926  135.6484  158.4110 C   0  0  0  0  0  0  0  0  0  0  0  0
  148.4876  134.6064  158.6944 O   0  0  0  0  0  0  0  0  0  0  0  0
  147.7571  136.7343  159.2044 N   0  5  0  0  0  0  0  0  0  0  0  0
  147.3001  136.5943  160.4595 C   0  0  0  0  0  0  0  0  0  0  0  0
  146.9614  137.6335  161.2311 N   0  0  0  0  0  0  0  0  0  0  0  0
  146.5133  137.2604  162.4996 C   0  0  0  0  0  0  0  0  0  0  0  0
  146.5181  135.9057  162.7011 C   0  0  0  0  0  0  0  0  0  0  0  0
  147.0911  135.0530  161.2959 S   0  0  0  0  0  0  0  0  0  0  0  0
  146.1136  135.8142  153.6601 C   0  0  0  0  0  0  0  0  0  0  0  0
  145.4236  135.7199  152.2854 C   0  0  2  0  0  0  0  0  0  0  0  0
  144.0587  136.4175  152.2754 C   0  0  0  0  0  0  0  0  0  0  0  0
  145.2239  134.3537  151.9480 O   0  0  0  0  0  0  0  0  0  0  0  0
  147.0515  131.6297  151.2751 H   0  0  0  0  0  0  0  0  0  0  0  0
  145.6407  132.2269  150.4080 H   0  0  0  0  0  0  0  0  0  0  0  0
  145.4857  131.7013  152.0824 H   0  0  0  0  0  0  0  0  0  0  0  0
  147.0863  134.1204  151.1001 H   0  0  0  0  0  0  0  0  0  0  0  0
  146.5406  133.1444  153.9582 H   0  0  0  0  0  0  0  0  0  0  0  0
  148.0816  133.1070  153.1313 H   0  0  0  0  0  0  0  0  0  0  0  0
  148.5307  136.1548  155.0690 H   0  0  0  0  0  0  0  0  0  0  0  0
  149.9898  134.2886  155.8806 H   0  0  0  0  0  0  0  0  0  0  0  0
  150.1589  134.5335  154.1759 H   0  0  0  0  0  0  0  0  0  0  0  0
  149.1867  133.1832  154.7759 H   0  0  0  0  0  0  0  0  0  0  0  0
  146.2218  134.7230  155.8505 H   0  0  0  0  0  0  0  0  0  0  0  0
  147.5165  133.7881  156.5345 H   0  0  0  0  0  0  0  0  0  0  0  0
  146.8348  136.6572  157.0302 H   0  0  0  0  0  0  0  0  0  0  0  0
  146.2102  138.0273  163.1968 H   0  0  0  0  0  0  0  0  0  0  0  0
  146.2235  135.3599  163.5846 H   0  0  0  0  0  0  0  0  0  0  0  0
  145.4579  135.4299  154.4434 H   0  0  0  0  0  0  0  0  0  0  0  0
  146.2846  136.8711  153.8627 H   0  0  0  0  0  0  0  0  0  0  0  0
  146.0544  136.1873  151.5267 H   0  0  0  0  0  0  0  0  0  0  0  0
  144.1559  137.4757  152.5198 H   0  0  0  0  0  0  0  0  0  0  0  0
  143.3792  135.9677  153.0001 H   0  0  0  0  0  0  0  0  0  0  0  0
  143.5915  136.3462  151.2927 H   0  0  0  0  0  0  0  0  0  0  0  0
  147.9770  135.4973  152.9695 H   0  0  0  0  0  0  0  0  0  0  0  0
  1  2  1  0  0  0  0
  1 21  1  0  0  0  0
  1 22  1  0  0  0  0
  1 23  1  0  0  0  0
  2 20  1  0  0  0  0
  2  3  1  0  0  0  0
  2 24  1  0  0  0  0
  3  4  1  0  0  0  0
  3 25  1  0  0  0  0
  3 26  1  0  0  0  0
  4  5  1  0  0  0  0
  4 17  1  0  0  0  0
  4 42  1  0  0  0  0
  5  6  1  0  0  0  0
  5  7  1  0  0  0  0
  5 27  1  0  0  0  0
  6 28  1  0  0  0  0
  6 29  1  0  0  0  0
  6 30  1  0  0  0  0
  7  8  1  0  0  0  0
  7 31  1  0  0  0  0
  7 32  1  0  0  0  0
  8  9  1  0  0  0  0
  8 33  1  0  0  0  0
  9 10  2  0  0  0  0
  9 11  1  0  0  0  0
 11 12  1  0  0  0  0
 12 16  1  0  0  0  0
 12 13  2  0  0  0  0
 13 14  1  0  0  0  0
 14 15  2  0  0  0  0
 14 34  1  0  0  0  0
 15 16  1  0  0  0  0
 15 35  1  0  0  0  0
 17 18  1  0  0  0  0
 17 36  1  0  0  0  0
 17 37  1  0  0  0  0
 18 19  1  0  0  0  0
 18 20  1  0  0  0  0
 18 38  1  0  0  0  0
 19 39  1  0  0  0  0
 19 40  1  0  0  0  0
 19 41  1  0  0  0  0
M  CHG  1   4   1
M  CHG  1  11  -1
M  END
> <s_m_source_file>
AV-unprocessed.smi

> <i_m_source_file_index>
2032

> <i_lp_mmshare_version>
43012

> <i_f3d_flags>
0

> <s_epik_input>
W0NIM11bQ0BASF0xW0NIMl1OKFtDSDJdW0NASF0oTzEpW0NIM10pW0NASF0oW0NIM10pW0NIMl1bTkhdQyg9TylbTkhdYzJuW2NIXVtjSF1zMg==

> <s_epik_cmdline>
J2VwaWtfcHl0aG9uJywgJy1waCcsICc3LjAnLCAnLXRuJywgJzgnLCAnLW1hJywgJzIwMCcsICctbWV0YWxfYmluZGluZycsICctaW1hZScsICc8aW5maWxlLm1hZT4nLCAnLW9tYWUnLCAnPG91dGZpbGUubWFlPic=

> <r_lp_tautomer_probability>
0.999

> <r_epik_Ionization_Penalty>
6.71699

> <r_epik_Ionization_Penalty_Charging>
5.88592

> <r_epik_Ionization_Penalty_Neutral>
0.831074

> <r_epik_State_Penalty>
6.08365

> <r_epik_Charging_Adjusted_Penalty>
11.9696

> <i_epik_Tot_Q>
0

> <i_epik_Tot_abs_Q>
2

> <r_epik_Metal_State_Penalty>
2.0947

> <b_epik_Metal_Only>
1

> <s_lp_Force_Field>
OPLS_2005

> <r_lp_Energy>
9.66165

> <b_lp_Chiralities_Consistent>
1

> <s_lp_Variant>
AV-unprocessed.smi:2032-25

> <Gold.Version>
5.8.1

> <Gold.Id.Protein>
6NUR|6NUR_protein|mol2

> <Gold.PLP.Fitness>
43.7176

> <Gold.PLP.PLP>
-31.8283

> <Gold.PLP.part.hbond>
-4.0000

> <Gold.PLP.part.metal>
0.0000

> <Gold.PLP.part.buried>
-4.5213

> <Gold.PLP.part.nonpolar>
-24.0230

> <Gold.PLP.part.repulsive>
0.0978

> <Gold.PLP.ligand.clash>
0.0000

> <Gold.PLP.ligand.torsion>
1.3634

> <Gold.PLP.Chemscore.Hbond>
4.8480

> <Gold.PLP.Chemscore.CHOScore>
0.0000

> <Gold.PLP.Chemscore.Metal>
0.0000

> <Gold.Chemscore.Hbonds>
donor molecule, donor type, donor heavy atom, donor atom, acceptor molecule, acceptor atom, score
      L1  H     4    42       P1  7948  2.00
      P1  H  6896  6909       L1    10  0.04
      P1  H  6931  6943       L1    13  0.21
      P1  H  6934  6947       L1    13  0.76

> <Gold.PLP.Chemscore.Internal.Correction>
0.0720

> <Gold.Rescore>
     Score         DG    S(hbond)    S(metal)    S(lipo)     H(rot)  DE(clash)    DE(int)     intcor
     16.41     -17.82       2.71        0.00      62.71       1.58       0.00       1.41       ----

> <Gold.Chemscore.Fitness>
16.4083

> <Gold.Chemscore.DG>
-17.8196

> <Gold.Chemscore.ZeroCoef>
-5.4800

> <Gold.Chemscore.Hbond>
2.7080

> <Gold.Chemscore.Metal>
0.0000

> <Gold.Chemscore.Lipo>
62.7126

> <Gold.Chemscore.Internal_Hbond>
0.0000

> <Gold.Chemscore.DEClash>
0.0000

> <Gold.Chemscore.DEInternal>
1.4112

> <Gold.Chemscore.Rot>
1.5791

> <Gold.Chemscore.Internal.Correction>
   9.000000E+99

> <Gold.Chemscore.Hbonds>
donor molecule, donor type, donor heavy atom, donor atom, acceptor molecule, acceptor atom, score
      L1  H     4    42       P1  7948  1.00
      P1  H  6896  6909       L1    10  0.07
      P1  H  6931  6943       L1    13  0.01
      P1  H  6934  6947       L1    13  0.72

> <Gold.Chemscore.Hbond.Weighted>
-9.0447

> <Gold.Chemscore.Metal.Weighted>
-0.0000

> <Gold.Chemscore.Lipo.Weighted>
-7.3374

> <Gold.Chemscore.Internal_Hbond.Weighted>
0.0000

> <Gold.Chemscore.DEClash.Weighted>
0.0000

> <Gold.Chemscore.DEInternal.Weighted>
1.4112

> <Gold.Chemscore.Rot.Weighted>
4.0425

> <Gold.Chemscore.Internal.Correction.Weighted>
   9.000000E+99

> <Gold.Protein.RotatedTorsions>
[ 6907 6896 6895 6894 ] final    6.58 input  -60.11 | X-H torsion
[ 7974 7965 7964 7962 ] final   77.65 input  175.53 | X-H torsion
[ 8008 7997 7996 7995 ] final  -85.11 input   59.86 | X-H torsion
[ 10167 10162 10161 10158 ] final  159.54 input  -65.29 | X-H torsion
[ 10718 10713 10712 10709 ] final  -46.62 input   66.30 | X-H torsion
[ 10763 10752 10751 10750 ] final    1.65 input  -60.55 | X-H torsion
[ 11005 11000 10999 10996 ] final  -23.98 input  -57.11 | X-H torsion

> <Gold.Protein.ActiveResidues>
 VAL166  LYS551  ARG553  GLY616  TRP617  ASP618  TYR619  PRO620  LYS621  CYS622 
 ASP623  PHE694  ASN695  SER759  ASP760  ASP761  ALA762  ILE779  LEU786  VAL792 
 PHE793  MET794  SER795  GLU796  ALA797  LYS798  CYS799  TRP800  GLU811  SER814 

> <Gold.Protein.RotatedAtoms>
  151.6760  135.0969  160.0206 H   0  0  0  0  0  0  0  0  0  0  0  0  # atno 6907 bound_to 6896
  152.3864  133.6612  159.6210 H   0  0  0  0  0  0  0  0  0  0  0  0  # atno 6908 bound_to 6896
  150.7788  133.8945  159.3364 H   0  0  0  0  0  0  0  0  0  0  0  0  # atno 6909 bound_to 6896
  145.6873  139.2542  143.1780 H   0  0  0  0  0  0  0  0  0  0  0  0  # atno 7974 bound_to 7965
  154.6371  140.0596  156.9802 H   0  0  0  0  0  0  0  0  0  0  0  0  # atno 8008 bound_to 7997
  155.1574  140.3279  155.4400 H   0  0  0  0  0  0  0  0  0  0  0  0  # atno 8009 bound_to 7997
  156.2512  140.1936  156.6683 H   0  0  0  0  0  0  0  0  0  0  0  0  # atno 8010 bound_to 7997
  139.4833  144.4720  151.8562 H   0  0  0  0  0  0  0  0  0  0  0  0  # atno 10167 bound_to 10162
  156.2165  130.4163  149.9048 H   0  0  0  0  0  0  0  0  0  0  0  0  # atno 10718 bound_to 10713
  153.3054  135.6959  153.7165 H   0  0  0  0  0  0  0  0  0  0  0  0  # atno 10763 bound_to 10752
  153.6063  135.3453  155.2964 H   0  0  0  0  0  0  0  0  0  0  0  0  # atno 10764 bound_to 10752
  154.8561  135.4352  154.2177 H   0  0  0  0  0  0  0  0  0  0  0  0  # atno 10765 bound_to 10752
  140.8802  133.7659  156.0293 H   0  0  0  0  0  0  0  0  0  0  0  0  # atno 11005 bound_to 11000
  146.0912  140.7653  142.9594 LP  0  0  0  0  0  0  0  0  0  0  0  0  # atno 17320 bound_to 7965
  144.7007  140.3640  143.7158 LP  0  0  0  0  0  0  0  0  0  0  0  0  # atno 17321 bound_to 7965
  140.4190  144.2268  150.5887 LP  0  0  0  0  0  0  0  0  0  0  0  0  # atno 17342 bound_to 10162
  140.4892  143.2353  151.8843 LP  0  0  0  0  0  0  0  0  0  0  0  0  # atno 17343 bound_to 10162
  156.6708  130.8819  151.3562 LP  0  0  0  0  0  0  0  0  0  0  0  0  # atno 17370 bound_to 10713
  157.7066  130.9391  150.0950 LP  0  0  0  0  0  0  0  0  0  0  0  0  # atno 17371 bound_to 10713
  140.8470  134.2999  157.5291 LP  0  0  0  0  0  0  0  0  0  0  0  0  # atno 17394 bound_to 11000
  139.8719  134.9447  156.3889 LP  0  0  0  0  0  0  0  0  0  0  0  0  # atno 17395 bound_to 11000

$$$$
