AV-unprocessed.smi:266|AV-procd|sdf|2032|dock2
  -GOLD-   2262021243D 1   1.00000     0.00000
 Structure written by MMmdl.
 52 55  0  0  0  0  0  0  0  0  1 V2000
  151.7865  145.2339  159.1617 C   0  0  0  0  0  0  0  0  0  0  0  0
  152.2846  143.9015  158.5787 C   0  0  1  0  0  0  0  0  0  0  0  0
  152.9794  143.1866  159.5959 O   0  0  0  0  0  0  0  0  0  0  0  0
  152.8552  141.8009  159.3338 C   0  0  0  0  0  0  0  0  0  0  0  0
  151.4017  141.6857  158.9052 C   0  0  0  0  0  0  0  0  0  0  0  0
  151.2021  142.9277  158.0343 C   0  0  1  0  0  0  0  0  0  0  0  0
  149.8851  143.4090  158.2422 O   0  0  0  0  0  0  0  0  0  0  0  0
  151.4022  142.6694  156.5171 C   0  0  0  0  0  0  0  0  0  0  0  0
  150.7612  141.4610  156.0180 N   0  0  0  0  0  0  0  0  0  0  0  0
  151.2206  140.1722  156.1530 C   0  0  0  0  0  0  0  0  0  0  0  0
  150.4695  139.2570  155.6073 N   0  0  0  0  0  0  0  0  0  0  0  0
  149.4139  139.9605  155.0334 C   0  0  0  0  0  0  0  0  0  0  0  0
  148.2511  139.5991  154.2806 C   0  0  0  0  0  0  0  0  0  0  0  0
  147.9006  138.3221  153.9430 N   0  0  0  0  0  0  0  0  0  0  0  0
  146.6745  138.0723  153.1942 C   0  0  0  0  0  0  0  0  0  0  0  0
  148.8130  137.1931  154.1497 C   0  0  0  0  0  0  0  0  0  0  0  0
  148.2182  136.0992  155.0591 C   0  0  2  0  0  0  0  0  0  0  0  0
  147.8460  136.6423  156.4519 C   0  0  0  0  0  0  0  0  0  0  0  0
  147.4988  135.4603  157.3633 C   0  0  0  0  0  0  0  0  0  0  0  0
  148.5691  134.0797  156.8120 S   0  0  0  0  0  0  0  0  0  0  0  0
  149.7034  133.9359  157.7370 O   0  0  0  0  0  0  0  0  0  0  0  0
  147.7213  132.9284  156.4674 O   0  0  0  0  0  0  0  0  0  0  0  0
  149.1483  134.8949  155.2766 C   0  0  0  0  0  0  0  0  0  0  0  0
  147.4514  140.6217  153.8738 N   0  0  0  0  0  0  0  0  0  0  0  0
  147.7419  141.8892  154.1752 C   0  0  0  0  0  0  0  0  0  0  0  0
  148.7770  142.3626  154.8668 N   0  0  0  0  0  0  0  0  0  0  0  0
  149.5942  141.3543  155.2806 C   0  0  0  0  0  0  0  0  0  0  0  0
  151.2600  145.8205  158.4084 H   0  0  0  0  0  0  0  0  0  0  0  0
  152.6220  145.8344  159.5222 H   0  0  0  0  0  0  0  0  0  0  0  0
  151.1098  145.0739  160.0016 H   0  0  0  0  0  0  0  0  0  0  0  0
  153.0108  144.1208  157.7943 H   0  0  0  0  0  0  0  0  0  0  0  0
  153.5296  141.5111  158.5267 H   0  0  0  0  0  0  0  0  0  0  0  0
  153.0861  141.2015  160.2145 H   0  0  0  0  0  0  0  0  0  0  0  0
  151.1797  140.7405  158.4131 H   0  0  0  0  0  0  0  0  0  0  0  0
  150.7757  141.7391  159.7977 H   0  0  0  0  0  0  0  0  0  0  0  0
  149.4685  143.5187  157.4013 H   0  0  0  0  0  0  0  0  0  0  0  0
  151.0235  143.5158  155.9424 H   0  0  0  0  0  0  0  0  0  0  0  0
  152.4663  142.6012  156.2868 H   0  0  0  0  0  0  0  0  0  0  0  0
  152.1341  139.9295  156.6763 H   0  0  0  0  0  0  0  0  0  0  0  0
  146.6526  138.6648  152.2791 H   0  0  0  0  0  0  0  0  0  0  0  0
  145.7991  138.3140  153.7973 H   0  0  0  0  0  0  0  0  0  0  0  0
  146.5956  137.0230  152.9083 H   0  0  0  0  0  0  0  0  0  0  0  0
  149.1610  136.7641  153.2100 H   0  0  0  0  0  0  0  0  0  0  0  0
  149.7114  137.5905  154.6233 H   0  0  0  0  0  0  0  0  0  0  0  0
  147.2959  135.7283  154.6096 H   0  0  0  0  0  0  0  0  0  0  0  0
  148.7029  137.1716  156.8709 H   0  0  0  0  0  0  0  0  0  0  0  0
  147.0244  137.3575  156.4003 H   0  0  0  0  0  0  0  0  0  0  0  0
  147.6661  135.6710  158.4196 H   0  0  0  0  0  0  0  0  0  0  0  0
  146.4604  135.1574  157.2264 H   0  0  0  0  0  0  0  0  0  0  0  0
  149.1376  134.1893  154.4460 H   0  0  0  0  0  0  0  0  0  0  0  0
  150.1752  135.2194  155.4456 H   0  0  0  0  0  0  0  0  0  0  0  0
  147.0447  142.6292  153.8105 H   0  0  0  0  0  0  0  0  0  0  0  0
  1  2  1  0  0  0  0
  1 28  1  0  0  0  0
  1 29  1  0  0  0  0
  1 30  1  0  0  0  0
  2  6  1  0  0  0  0
  2  3  1  0  0  0  0
  2 31  1  0  0  0  0
  3  4  1  0  0  0  0
  4  5  1  0  0  0  0
  4 32  1  0  0  0  0
  4 33  1  0  0  0  0
  5  6  1  0  0  0  0
  5 34  1  0  0  0  0
  5 35  1  0  0  0  0
  6  7  1  0  0  0  0
  6  8  1  0  0  0  0
  7 36  1  0  0  0  0
  8  9  1  0  0  0  0
  8 37  1  0  0  0  0
  8 38  1  0  0  0  0
  9 27  1  0  0  0  0
  9 10  1  0  0  0  0
 10 11  2  0  0  0  0
 10 39  1  0  0  0  0
 11 12  1  0  0  0  0
 12 27  2  0  0  0  0
 12 13  1  0  0  0  0
 13 14  1  0  0  0  0
 13 24  2  0  0  0  0
 14 15  1  0  0  0  0
 14 16  1  0  0  0  0
 15 40  1  0  0  0  0
 15 41  1  0  0  0  0
 15 42  1  0  0  0  0
 16 17  1  0  0  0  0
 16 43  1  0  0  0  0
 16 44  1  0  0  0  0
 17 23  1  0  0  0  0
 17 18  1  0  0  0  0
 17 45  1  0  0  0  0
 18 19  1  0  0  0  0
 18 46  1  0  0  0  0
 18 47  1  0  0  0  0
 19 20  1  0  0  0  0
 19 48  1  0  0  0  0
 19 49  1  0  0  0  0
 20 21  2  0  0  0  0
 20 22  2  0  0  0  0
 20 23  1  0  0  0  0
 23 50  1  0  0  0  0
 23 51  1  0  0  0  0
 24 25  1  0  0  0  0
 25 26  2  0  0  0  0
 25 52  1  0  0  0  0
 26 27  1  0  0  0  0
M  END
> <s_m_source_file>
AV-unprocessed.smi

> <i_m_source_file_index>
266

> <i_lp_mmshare_version>
43012

> <i_f3d_flags>
0

> <s_epik_input>
W0NIMl0xW0NIMl1PW0NAQEhdKFtDSDNdKVtDQEBdMShbT0hdKVtDSDJdbihbY0hdbjIpYyhjMjMpbltjSF1uYzNOKFtDSDNdKVtDSDJdW0NAQEhdKFtDSDJdNClbQ0gyXVtDSDJdUzQoPU8pPU8=

> <s_epik_cmdline>
J2VwaWtfcHl0aG9uJywgJy1waCcsICc3LjAnLCAnLXRuJywgJzgnLCAnLW1hJywgJzIwMCcsICctbWV0YWxfYmluZGluZycsICctaW1hZScsICc8aW5maWxlLm1hZT4nLCAnLW9tYWUnLCAnPG91dGZpbGUubWFlPic=

> <r_lp_tautomer_probability>
1

> <r_epik_Ionization_Penalty>
0.00155497

> <r_epik_Ionization_Penalty_Charging>
0

> <r_epik_Ionization_Penalty_Neutral>
0.00155497

> <r_epik_State_Penalty>
-0

> <r_epik_Charging_Adjusted_Penalty>
0

> <i_epik_Tot_Q>
0

> <i_epik_Tot_abs_Q>
0

> <r_epik_Metal_State_Penalty>
-0

> <b_epik_Metal_Only>
0

> <s_lp_Force_Field>
OPLS_2005

> <r_lp_Energy>
32.0182

> <b_lp_Chiralities_Consistent>
1

> <s_lp_Variant>
AV-unprocessed.smi:266-2

> <Gold.Version>
5.8.1

> <Gold.Id.Protein>
6NUR|6NUR_protein|mol2

> <Gold.PLP.Fitness>
37.1372

> <Gold.PLP.PLP>
-32.0089

> <Gold.PLP.part.hbond>
-3.2699

> <Gold.PLP.part.metal>
0.0000

> <Gold.PLP.part.buried>
-4.2255

> <Gold.PLP.part.nonpolar>
-30.7294

> <Gold.PLP.part.repulsive>
4.6353

> <Gold.PLP.ligand.clash>
0.0000

> <Gold.PLP.ligand.torsion>
0.4902

> <Gold.PLP.Chemscore.Hbond>
2.0000

> <Gold.PLP.Chemscore.CHOScore>
0.0000

> <Gold.PLP.Chemscore.Metal>
0.0000

> <Gold.Chemscore.Hbonds>
donor molecule, donor type, donor heavy atom, donor atom, acceptor molecule, acceptor atom, score
      L1  H     7    36       P1  8028  0.63
      P1  H  6896  6909       L1    21  1.00

> <Gold.PLP.Chemscore.Internal.Correction>
0.1086

> <Gold.Rescore>
     Score         DG    S(hbond)    S(metal)    S(lipo)     H(rot)  DE(clash)    DE(int)     intcor
     10.34     -15.12       1.85        0.00      83.19       2.45       3.35       1.43       ----

> <Gold.Chemscore.Fitness>
10.3400

> <Gold.Chemscore.DG>
-15.1231

> <Gold.Chemscore.ZeroCoef>
-5.4800

> <Gold.Chemscore.Hbond>
1.8487

> <Gold.Chemscore.Metal>
0.0000

> <Gold.Chemscore.Lipo>
83.1881

> <Gold.Chemscore.Internal_Hbond>
0.0000

> <Gold.Chemscore.DEClash>
3.3526

> <Gold.Chemscore.DEInternal>
1.4305

> <Gold.Chemscore.Rot>
2.4471

> <Gold.Chemscore.Internal.Correction>
   9.000000E+99

> <Gold.Chemscore.Hbonds>
donor molecule, donor type, donor heavy atom, donor atom, acceptor molecule, acceptor atom, score
      L1  H     7    36       P1  8028  0.42
      P1  H  6896  6909       L1    21  0.99

> <Gold.Chemscore.Hbond.Weighted>
-6.1746

> <Gold.Chemscore.Metal.Weighted>
-0.0000

> <Gold.Chemscore.Lipo.Weighted>
-9.7330

> <Gold.Chemscore.Internal_Hbond.Weighted>
0.0000

> <Gold.Chemscore.DEClash.Weighted>
3.3526

> <Gold.Chemscore.DEInternal.Weighted>
1.4305

> <Gold.Chemscore.Rot.Weighted>
6.2645

> <Gold.Chemscore.Internal.Correction.Weighted>
   9.000000E+99

> <Gold.Protein.RotatedTorsions>
[ 6907 6896 6895 6894 ] final   15.18 input  -60.11 | X-H torsion
[ 7974 7965 7964 7962 ] final  -25.37 input  175.53 | X-H torsion
[ 8008 7997 7996 7995 ] final  -60.92 input   59.86 | X-H torsion
[ 10167 10162 10161 10158 ] final   45.75 input  -65.29 | X-H torsion
[ 10718 10713 10712 10709 ] final -170.03 input   66.30 | X-H torsion
[ 10763 10752 10751 10750 ] final   69.35 input  -60.55 | X-H torsion
[ 11005 11000 10999 10996 ] final -112.20 input  -57.11 | X-H torsion

> <Gold.Protein.ActiveResidues>
 VAL166  LYS551  ARG553  GLY616  TRP617  ASP618  TYR619  PRO620  LYS621  CYS622 
 ASP623  PHE694  ASN695  SER759  ASP760  ASP761  ALA762  ILE779  LEU786  VAL792 
 PHE793  MET794  SER795  GLU796  ALA797  LYS798  CYS799  TRP800  GLU811  SER814 

> <Gold.Protein.RotatedAtoms>
  151.8141  135.0672  160.0416 H   0  0  0  0  0  0  0  0  0  0  0  0  # atno 6907 bound_to 6896
  152.2999  133.5641  159.5620 H   0  0  0  0  0  0  0  0  0  0  0  0  # atno 6908 bound_to 6896
  150.7269  134.0222  159.3747 H   0  0  0  0  0  0  0  0  0  0  0  0  # atno 6909 bound_to 6896
  146.1495  140.4878  142.8617 H   0  0  0  0  0  0  0  0  0  0  0  0  # atno 7974 bound_to 7965
  154.4422  140.1029  156.6350 H   0  0  0  0  0  0  0  0  0  0  0  0  # atno 8008 bound_to 7997
  155.5564  140.3486  155.4462 H   0  0  0  0  0  0  0  0  0  0  0  0  # atno 8009 bound_to 7997
  156.0492  140.1300  157.0059 H   0  0  0  0  0  0  0  0  0  0  0  0  # atno 8010 bound_to 7997
  140.3209  144.2706  150.6183 H   0  0  0  0  0  0  0  0  0  0  0  0  # atno 10167 bound_to 10162
  156.7202  130.9267  151.3097 H   0  0  0  0  0  0  0  0  0  0  0  0  # atno 10718 bound_to 10713
  153.0283  135.5214  154.7275 H   0  0  0  0  0  0  0  0  0  0  0  0  # atno 10763 bound_to 10752
  154.6312  135.2900  155.0216 H   0  0  0  0  0  0  0  0  0  0  0  0  # atno 10764 bound_to 10752
  154.1167  135.6614  153.4947 H   0  0  0  0  0  0  0  0  0  0  0  0  # atno 10765 bound_to 10752
  141.0689  133.9413  157.2524 H   0  0  0  0  0  0  0  0  0  0  0  0  # atno 11005 bound_to 11000
  144.7886  140.5987  143.6556 LP  0  0  0  0  0  0  0  0  0  0  0  0  # atno 17320 bound_to 7965
  145.4857  139.1492  143.3737 LP  0  0  0  0  0  0  0  0  0  0  0  0  # atno 17321 bound_to 7965
  140.5484  143.2210  151.7968 LP  0  0  0  0  0  0  0  0  0  0  0  0  # atno 17342 bound_to 10162
  139.4874  144.4509  151.9655 LP  0  0  0  0  0  0  0  0  0  0  0  0  # atno 17343 bound_to 10162
  157.6901  130.9224  150.0490 LP  0  0  0  0  0  0  0  0  0  0  0  0  # atno 17370 bound_to 10713
  156.1599  130.3643  149.9314 LP  0  0  0  0  0  0  0  0  0  0  0  0  # atno 17371 bound_to 10713
  139.9504  135.0176  156.8976 LP  0  0  0  0  0  0  0  0  0  0  0  0  # atno 17394 bound_to 11000
  140.5715  134.0439  155.7432 LP  0  0  0  0  0  0  0  0  0  0  0  0  # atno 17395 bound_to 11000

$$$$
