AV-unprocessed.smi:1811|AV-procd|sdf|7335|dock3
  -GOLD-   22720 8593D 1   1.00000     0.00000
 Structure written by MMmdl.
 43 44  0  0  0  0  0  0  0  0  1 V2000
  151.3312  145.3561  160.1393 C   0  0  0  0  0  0  0  0  0  0  0  0
  151.6578  144.1819  159.1919 C   0  0  0  0  0  0  0  0  0  0  0  0
  152.6763  144.6730  158.1451 C   0  0  0  0  0  0  0  0  0  0  0  0
  152.3037  143.0385  160.0034 C   0  0  0  0  0  0  0  0  0  0  0  0
  150.3941  143.6839  158.4346 C   0  0  0  0  0  0  0  0  0  0  0  0
  150.6025  142.4670  157.5228 C   0  0  0  0  0  0  0  0  0  0  0  0
  151.6016  141.7641  157.6684 O   0  0  0  0  0  0  0  0  0  0  0  0
  149.6189  142.2315  156.6356 N   0  0  0  0  0  0  0  0  0  0  0  0
  149.5098  141.2043  155.6536 C   0  0  0  0  0  0  0  0  0  0  0  0
  150.5221  140.2430  155.4102 C   0  0  0  0  0  0  0  0  0  0  0  0
  150.3241  139.2779  154.4058 C   0  0  0  0  0  0  0  0  0  0  0  0
  149.1244  139.3096  153.6731 C   0  0  0  0  0  0  0  0  0  0  0  0
  148.1574  140.2261  153.8804 N   0  0  0  0  0  0  0  0  0  0  0  0
  148.3447  141.1586  154.8454 C   0  0  0  0  0  0  0  0  0  0  0  0
  147.3266  142.1099  155.0272 N   0  0  0  0  0  0  0  0  0  0  0  0
  146.6055  141.9737  156.2859 C   0  0  0  0  0  0  0  0  0  0  0  0
  145.6256  143.1478  156.4556 C   0  0  0  0  0  0  0  0  0  0  0  0
  144.7528  143.2092  155.3306 O   0  0  0  0  0  0  0  0  0  0  0  0
  145.4619  143.4133  154.1115 C   0  0  0  0  0  0  0  0  0  0  0  0
  146.4376  142.2465  153.8808 C   0  0  0  0  0  0  0  0  0  0  0  0
  152.2373  145.7659  160.5869 H   0  0  0  0  0  0  0  0  0  0  0  0
  150.6827  145.0508  160.9607 H   0  0  0  0  0  0  0  0  0  0  0  0
  150.8330  146.1677  159.6081 H   0  0  0  0  0  0  0  0  0  0  0  0
  152.2704  145.4924  157.5505 H   0  0  0  0  0  0  0  0  0  0  0  0
  152.9559  143.8752  157.4562 H   0  0  0  0  0  0  0  0  0  0  0  0
  153.5920  145.0337  158.6151 H   0  0  0  0  0  0  0  0  0  0  0  0
  153.2352  143.3614  160.4696 H   0  0  0  0  0  0  0  0  0  0  0  0
  152.5348  142.1828  159.3680 H   0  0  0  0  0  0  0  0  0  0  0  0
  151.6513  142.6876  160.8037 H   0  0  0  0  0  0  0  0  0  0  0  0
  149.6171  143.4239  159.1550 H   0  0  0  0  0  0  0  0  0  0  0  0
  149.9774  144.4994  157.8404 H   0  0  0  0  0  0  0  0  0  0  0  0
  148.8202  142.8468  156.6962 H   0  0  0  0  0  0  0  0  0  0  0  0
  151.4506  140.2309  155.9585 H   0  0  0  0  0  0  0  0  0  0  0  0
  151.0781  138.5328  154.1992 H   0  0  0  0  0  0  0  0  0  0  0  0
  148.9390  138.5842  152.8947 H   0  0  0  0  0  0  0  0  0  0  0  0
  146.0590  141.0295  156.2987 H   0  0  0  0  0  0  0  0  0  0  0  0
  147.3120  141.9506  157.1164 H   0  0  0  0  0  0  0  0  0  0  0  0
  145.0319  143.0156  157.3601 H   0  0  0  0  0  0  0  0  0  0  0  0
  146.1639  144.0910  156.5625 H   0  0  0  0  0  0  0  0  0  0  0  0
  144.7479  143.4751  153.2901 H   0  0  0  0  0  0  0  0  0  0  0  0
  145.9951  144.3649  154.1441 H   0  0  0  0  0  0  0  0  0  0  0  0
  147.0232  142.4191  152.9770 H   0  0  0  0  0  0  0  0  0  0  0  0
  145.8796  141.3207  153.7336 H   0  0  0  0  0  0  0  0  0  0  0  0
  1  2  1  0  0  0  0
  1 21  1  0  0  0  0
  1 22  1  0  0  0  0
  1 23  1  0  0  0  0
  2  3  1  0  0  0  0
  2  4  1  0  0  0  0
  2  5  1  0  0  0  0
  3 24  1  0  0  0  0
  3 25  1  0  0  0  0
  3 26  1  0  0  0  0
  4 27  1  0  0  0  0
  4 28  1  0  0  0  0
  4 29  1  0  0  0  0
  5  6  1  0  0  0  0
  5 30  1  0  0  0  0
  5 31  1  0  0  0  0
  6  7  2  0  0  0  0
  6  8  1  0  0  0  0
  8  9  1  0  0  0  0
  8 32  1  0  0  0  0
  9 14  1  0  0  0  0
  9 10  2  0  0  0  0
 10 11  1  0  0  0  0
 10 33  1  0  0  0  0
 11 12  2  0  0  0  0
 11 34  1  0  0  0  0
 12 13  1  0  0  0  0
 12 35  1  0  0  0  0
 13 14  2  0  0  0  0
 14 15  1  0  0  0  0
 15 20  1  0  0  0  0
 15 16  1  0  0  0  0
 16 17  1  0  0  0  0
 16 36  1  0  0  0  0
 16 37  1  0  0  0  0
 17 18  1  0  0  0  0
 17 38  1  0  0  0  0
 17 39  1  0  0  0  0
 18 19  1  0  0  0  0
 19 20  1  0  0  0  0
 19 40  1  0  0  0  0
 19 41  1  0  0  0  0
 20 42  1  0  0  0  0
 20 43  1  0  0  0  0
M  END
> <s_m_source_file>
AV-unprocessed.smi

> <i_m_source_file_index>
1811

> <i_lp_mmshare_version>
43012

> <i_f3d_flags>
0

> <s_epik_input>
W0NIM11DKFtDSDNdKShbQ0gzXSlbQ0gyXUMoPU8pW05IXWMxW2NIXVtjSF1bY0hdbmMxTjJbQ0gyXVtDSDJdT1tDSDJdW0NIMl0y

> <s_epik_cmdline>
J2VwaWtfcHl0aG9uJywgJy1waCcsICc3LjAnLCAnLXRuJywgJzgnLCAnLW1hJywgJzIwMCcsICctbWV0YWxfYmluZGluZycsICctaW1hZScsICc8aW5maWxlLm1hZT4nLCAnLW9tYWUnLCAnPG91dGZpbGUubWFlPic=

> <r_lp_tautomer_probability>
1

> <r_epik_Ionization_Penalty>
0.000654353

> <r_epik_Ionization_Penalty_Charging>
0

> <r_epik_Ionization_Penalty_Neutral>
0.000654353

> <r_epik_State_Penalty>
0.000408291

> <r_epik_Charging_Adjusted_Penalty>
0.000408291

> <i_epik_Tot_Q>
0

> <i_epik_Tot_abs_Q>
0

> <r_epik_Metal_State_Penalty>
-0

> <b_epik_Metal_Only>
0

> <s_lp_Force_Field>
OPLS_2005

> <r_lp_Energy>
24.8373

> <b_lp_Chiralities_Consistent>
1

> <s_lp_Variant>
AV-unprocessed.smi:1811-1

> <Gold.Version>
5.8.1

> <Gold.Id.Protein>
6NUR|6NUR_protein|mol2

> <Gold.PLP.Fitness>
47.2812

> <Gold.PLP.PLP>
-43.0792

> <Gold.PLP.part.hbond>
-1.0000

> <Gold.PLP.part.metal>
0.0000

> <Gold.PLP.part.buried>
-1.8733

> <Gold.PLP.part.nonpolar>
-40.2822

> <Gold.PLP.part.repulsive>
1.7818

> <Gold.PLP.ligand.clash>
0.0000

> <Gold.PLP.ligand.torsion>
0.5857

> <Gold.PLP.Chemscore.Hbond>
0.4758

> <Gold.PLP.Chemscore.CHOScore>
1.2663

> <Gold.PLP.Chemscore.Metal>
0.0000

> <Gold.Chemscore.Hbonds>
donor molecule, donor type, donor heavy atom, donor atom, acceptor molecule, acceptor atom, score
      L1  H     8    32       P1  8028  0.28
      L1  C    12    35       P1  7948  0.99
      L1  C    12    35       P1  7957  0.30

> <Gold.PLP.Chemscore.Internal.Correction>
0.1471

> <Gold.Rescore>
     Score         DG    S(hbond)    S(metal)    S(lipo)     H(rot)  DE(clash)    DE(int)     intcor
     13.13     -16.58       0.86        0.00      98.78       1.30       0.05       3.40       ----

> <Gold.Chemscore.Fitness>
13.1253

> <Gold.Chemscore.DG>
-16.5774

> <Gold.Chemscore.ZeroCoef>
-5.4800

> <Gold.Chemscore.Hbond>
0.8618

> <Gold.Chemscore.Metal>
0.0000

> <Gold.Chemscore.Lipo>
98.7837

> <Gold.Chemscore.Internal_Hbond>
0.0000

> <Gold.Chemscore.DEClash>
0.0534

> <Gold.Chemscore.DEInternal>
3.3987

> <Gold.Chemscore.Rot>
1.3042

> <Gold.Chemscore.Internal.Correction>
   9.000000E+99

> <Gold.Chemscore.Hbonds>
donor molecule, donor type, donor heavy atom, donor atom, acceptor molecule, acceptor atom, score
      L1  H     8    32       P1  8028  0.26

> <Gold.Chemscore.Hbond.Weighted>
-2.8785

> <Gold.Chemscore.Metal.Weighted>
-0.0000

> <Gold.Chemscore.Lipo.Weighted>
-11.5577

> <Gold.Chemscore.Internal_Hbond.Weighted>
0.0000

> <Gold.Chemscore.DEClash.Weighted>
0.0534

> <Gold.Chemscore.DEInternal.Weighted>
3.3987

> <Gold.Chemscore.Rot.Weighted>
3.3389

> <Gold.Chemscore.Internal.Correction.Weighted>
   9.000000E+99

> <Gold.Protein.RotatedTorsions>
[ 6907 6896 6895 6894 ] final   57.67 input  -60.11 | X-H torsion
[ 7974 7965 7964 7962 ] final  131.42 input  175.53 | X-H torsion
[ 8008 7997 7996 7995 ] final   33.91 input   59.86 | X-H torsion
[ 10167 10162 10161 10158 ] final   59.20 input  -65.29 | X-H torsion
[ 10718 10713 10712 10709 ] final   71.31 input   66.30 | X-H torsion
[ 10763 10752 10751 10750 ] final   82.88 input  -60.55 | X-H torsion
[ 11005 11000 10999 10996 ] final -157.74 input  -57.11 | X-H torsion

> <Gold.Protein.ActiveResidues>
 VAL166  LYS551  ARG553  GLY616  TRP617  ASP618  TYR619  PRO620  LYS621  CYS622 
 ASP623  PHE694  ASN695  SER759  ASP760  ASP761  ALA762  ILE779  LEU786  VAL792 
 PHE793  MET794  SER795  GLU796  ALA797  LYS798  CYS799  TRP800  GLU811  SER814 

> <Gold.Protein.RotatedAtoms>
  152.3753  134.6673  160.0161 H   0  0  0  0  0  0  0  0  0  0  0  0  # atno 6907 bound_to 6896
  151.6953  133.3305  159.3261 H   0  0  0  0  0  0  0  0  0  0  0  0  # atno 6908 bound_to 6896
  150.7704  134.6598  159.6378 H   0  0  0  0  0  0  0  0  0  0  0  0  # atno 6909 bound_to 6896
  145.0075  139.4252  143.5261 H   0  0  0  0  0  0  0  0  0  0  0  0  # atno 7974 bound_to 7965
  155.1463  140.3271  155.4441 H   0  0  0  0  0  0  0  0  0  0  0  0  # atno 8008 bound_to 7997
  156.2589  140.1985  156.6526 H   0  0  0  0  0  0  0  0  0  0  0  0  # atno 8009 bound_to 7997
  154.6506  140.0559  156.9937 H   0  0  0  0  0  0  0  0  0  0  0  0  # atno 8010 bound_to 7997
  140.1790  144.4201  150.6624 H   0  0  0  0  0  0  0  0  0  0  0  0  # atno 10167 bound_to 10162
  157.6445  130.9521  150.0771 H   0  0  0  0  0  0  0  0  0  0  0  0  # atno 10718 bound_to 10713
  153.1241  135.4712  154.9244 H   0  0  0  0  0  0  0  0  0  0  0  0  # atno 10763 bound_to 10752
  154.7604  135.3130  154.8392 H   0  0  0  0  0  0  0  0  0  0  0  0  # atno 10764 bound_to 10752
  153.8949  135.6881  153.4812 H   0  0  0  0  0  0  0  0  0  0  0  0  # atno 10765 bound_to 10752
  140.6613  134.4346  157.5234 H   0  0  0  0  0  0  0  0  0  0  0  0  # atno 11005 bound_to 11000
  146.3464  139.9500  142.8730 LP  0  0  0  0  0  0  0  0  0  0  0  0  # atno 17320 bound_to 7965
  145.2068  140.9878  143.4123 LP  0  0  0  0  0  0  0  0  0  0  0  0  # atno 17321 bound_to 7965
  140.6532  143.2230  151.6029 LP  0  0  0  0  0  0  0  0  0  0  0  0  # atno 17342 bound_to 10162
  139.5304  144.2932  152.1135 LP  0  0  0  0  0  0  0  0  0  0  0  0  # atno 17343 bound_to 10162
  156.1758  130.3648  149.9102 LP  0  0  0  0  0  0  0  0  0  0  0  0  # atno 17370 bound_to 10713
  156.7067  130.8954  151.3605 LP  0  0  0  0  0  0  0  0  0  0  0  0  # atno 17371 bound_to 10713
  139.9012  134.8552  156.1888 LP  0  0  0  0  0  0  0  0  0  0  0  0  # atno 17394 bound_to 11000
  141.0463  133.6911  156.1689 LP  0  0  0  0  0  0  0  0  0  0  0  0  # atno 17395 bound_to 11000

$$$$
