AV-unprocessed.smi:3208|AV-procd|sdf|12262|dock6
  -GOLD-   2272018 93D 1   1.00000     0.00000
 Structure written by MMmdl.
 30 30  0  0  0  0  0  0  0  0  3 V2000
  146.1912  142.2102  154.6394 C   0  0  0  0  0  0  0  0  0  0  0  0
  146.9354  141.1699  155.0436 C   0  0  0  0  0  0  0  0  0  0  0  0
  148.3586  140.9102  154.6019 C   0  0  0  0  0  0  0  0  0  0  0  0
  148.8662  139.7444  155.2397 O   0  0  0  0  0  0  0  0  0  0  0  0
  150.2196  139.4169  154.9346 C   0  0  2  0  0  0  0  0  0  0  0  0
  150.3854  137.9027  155.1337 C   0  0  0  0  0  0  0  0  0  0  0  0
  151.1801  140.2106  155.8353 C   0  0  0  0  0  0  0  0  0  0  0  0
  152.3764  139.9168  155.8628 O   0  0  0  0  0  0  0  0  0  0  0  0
  150.6173  141.1933  156.5629 N   0  0  0  0  0  0  0  0  0  0  0  0
  151.2340  142.0880  157.4806 C   0  0  0  0  0  0  0  0  0  0  0  0
  150.9812  143.4210  157.4712 N   0  3  0  0  0  0  0  0  0  0  0  0
  151.5482  144.2953  158.3300 C   0  0  0  0  0  0  0  0  0  0  0  0
  152.4563  143.8330  159.3016 C   0  0  0  0  0  0  0  0  0  0  0  0
  152.7553  142.4573  159.3561 C   0  0  0  0  0  0  0  0  0  0  0  0
  152.1414  141.5767  158.4400 C   0  0  0  0  0  0  0  0  0  0  0  0
  152.4329  140.2423  158.4926 O   0  5  0  0  0  0  0  0  0  0  0  0
  146.5807  142.9470  153.9520 H   0  0  0  0  0  0  0  0  0  0  0  0
  145.1787  142.3382  154.9931 H   0  0  0  0  0  0  0  0  0  0  0  0
  146.5114  140.4536  155.7322 H   0  0  0  0  0  0  0  0  0  0  0  0
  148.3612  140.7779  153.5192 H   0  0  0  0  0  0  0  0  0  0  0  0
  148.9741  141.7815  154.8296 H   0  0  0  0  0  0  0  0  0  0  0  0
  150.4195  139.6457  153.8858 H   0  0  0  0  0  0  0  0  0  0  0  0
  151.4082  137.5848  154.9282 H   0  0  0  0  0  0  0  0  0  0  0  0
  149.7291  137.3515  154.4599 H   0  0  0  0  0  0  0  0  0  0  0  0
  150.1376  137.6007  156.1521 H   0  0  0  0  0  0  0  0  0  0  0  0
  149.6213  141.3204  156.4530 H   0  0  0  0  0  0  0  0  0  0  0  0
  151.2593  145.3297  158.2141 H   0  0  0  0  0  0  0  0  0  0  0  0
  152.9167  144.5216  159.9946 H   0  0  0  0  0  0  0  0  0  0  0  0
  153.4489  142.0825  160.0947 H   0  0  0  0  0  0  0  0  0  0  0  0
  150.3258  143.7806  156.7761 H   0  0  0  0  0  0  0  0  0  0  0  0
  1  2  2  0  0  0  0
  1 17  1  0  0  0  0
  1 18  1  0  0  0  0
  2  3  1  0  0  0  0
  2 19  1  0  0  0  0
  3  4  1  0  0  0  0
  3 20  1  0  0  0  0
  3 21  1  0  0  0  0
  4  5  1  0  0  0  0
  5  6  1  0  0  0  0
  5  7  1  0  0  0  0
  5 22  1  0  0  0  0
  6 23  1  0  0  0  0
  6 24  1  0  0  0  0
  6 25  1  0  0  0  0
  7  8  2  0  0  0  0
  7  9  1  0  0  0  0
  9 26  1  0  0  0  0
  9 10  1  0  0  0  0
 10 15  2  0  0  0  0
 10 11  1  0  0  0  0
 11 30  1  0  0  0  0
 11 12  2  0  0  0  0
 12 27  1  0  0  0  0
 12 13  1  0  0  0  0
 13 28  1  0  0  0  0
 13 14  2  0  0  0  0
 14 15  1  0  0  0  0
 14 29  1  0  0  0  0
 15 16  1  0  0  0  0
M  CHG  1  11   1
M  CHG  1  16  -1
M  END
> <s_m_source_file>
AV-unprocessed.smi

> <i_m_source_file_index>
3208

> <i_lp_mmshare_version>
43012

> <i_f3d_flags>
0

> <s_epik_input>
W0NIMl09W0NIXVtDSDJdT1tDQEhdKFtDSDNdKUMoPU8pW05IXWMxbltjSF1bY0hdW2NIXWMxW09IXQ==

> <s_epik_cmdline>
J2VwaWtfcHl0aG9uJywgJy1waCcsICc3LjAnLCAnLXRuJywgJzgnLCAnLW1hJywgJzIwMCcsICctbWV0YWxfYmluZGluZycsICctaW1hZScsICc8aW5maWxlLm1hZT4nLCAnLW9tYWUnLCAnPG91dGZpbGUubWFlPic=

> <r_lp_tautomer_probability>
0.56342

> <r_epik_Ionization_Penalty>
0.29395

> <r_epik_Ionization_Penalty_Charging>
0.0267837

> <r_epik_Ionization_Penalty_Neutral>
0.267166

> <r_epik_State_Penalty>
0.587031

> <r_epik_Charging_Adjusted_Penalty>
0.613815

> <i_epik_Tot_Q>
0

> <i_epik_Tot_abs_Q>
2

> <r_epik_Metal_State_Penalty>
2.67911

> <b_epik_Metal_Only>
0

> <s_lp_Force_Field>
OPLS_2005

> <r_lp_Energy>
5.5941

> <b_lp_Chiralities_Consistent>
1

> <s_lp_Variant>
AV-unprocessed.smi:3208-3

> <Gold.Version>
5.8.1

> <Gold.Id.Protein>
6NUR|6NUR_protein|mol2

> <Gold.PLP.Fitness>
45.1095

> <Gold.PLP.PLP>
-37.2925

> <Gold.PLP.part.hbond>
-2.0000

> <Gold.PLP.part.metal>
0.0000

> <Gold.PLP.part.buried>
-3.7410

> <Gold.PLP.part.nonpolar>
-30.4695

> <Gold.PLP.part.repulsive>
0.1939

> <Gold.PLP.ligand.clash>
0.0000

> <Gold.PLP.ligand.torsion>
0.8722

> <Gold.PLP.Chemscore.Hbond>
3.0000

> <Gold.PLP.Chemscore.CHOScore>
0.0000

> <Gold.PLP.Chemscore.Metal>
0.0000

> <Gold.Chemscore.Hbonds>
donor molecule, donor type, donor heavy atom, donor atom, acceptor molecule, acceptor atom, score
      L1  H    11    30       P1  8028  1.98
      P1  H  7997  8009       L1     8  1.00

> <Gold.PLP.Chemscore.Internal.Correction>
0.5615

> <Gold.Rescore>
     Score         DG    S(hbond)    S(metal)    S(lipo)     H(rot)  DE(clash)    DE(int)     intcor
     15.11     -16.16       1.77        0.00      77.84       1.70       0.09       0.96       ----

> <Gold.Chemscore.Fitness>
15.1062

> <Gold.Chemscore.DG>
-16.1574

> <Gold.Chemscore.ZeroCoef>
-5.4800

> <Gold.Chemscore.Hbond>
1.7715

> <Gold.Chemscore.Metal>
0.0000

> <Gold.Chemscore.Lipo>
77.8409

> <Gold.Chemscore.Internal_Hbond>
0.0000

> <Gold.Chemscore.DEClash>
0.0901

> <Gold.Chemscore.DEInternal>
0.9611

> <Gold.Chemscore.Rot>
1.6979

> <Gold.Chemscore.Internal.Correction>
   9.000000E+99

> <Gold.Chemscore.Hbonds>
donor molecule, donor type, donor heavy atom, donor atom, acceptor molecule, acceptor atom, score
      L1  H    11    30       P1  8028  0.92
      P1  H  7997  8009       L1     8  0.95

> <Gold.Chemscore.Hbond.Weighted>
-5.9167

> <Gold.Chemscore.Metal.Weighted>
-0.0000

> <Gold.Chemscore.Lipo.Weighted>
-9.1074

> <Gold.Chemscore.Internal_Hbond.Weighted>
0.0000

> <Gold.Chemscore.DEClash.Weighted>
0.0901

> <Gold.Chemscore.DEInternal.Weighted>
0.9611

> <Gold.Chemscore.Rot.Weighted>
4.3467

> <Gold.Chemscore.Internal.Correction.Weighted>
   9.000000E+99

> <Gold.Protein.RotatedTorsions>
[ 6907 6896 6895 6894 ] final   42.40 input  -60.11 | X-H torsion
[ 7974 7965 7964 7962 ] final  121.92 input  175.53 | X-H torsion
[ 8008 7997 7996 7995 ] final -160.19 input   59.86 | X-H torsion
[ 10167 10162 10161 10158 ] final   67.41 input  -65.29 | X-H torsion
[ 10718 10713 10712 10709 ] final   84.42 input   66.30 | X-H torsion
[ 10763 10752 10751 10750 ] final   76.16 input  -60.55 | X-H torsion
[ 11005 11000 10999 10996 ] final   51.98 input  -57.11 | X-H torsion

> <Gold.Protein.ActiveResidues>
 VAL166  LYS551  ARG553  GLY616  TRP617  ASP618  TYR619  PRO620  LYS621  CYS622 
 ASP623  PHE694  ASN695  SER759  ASP760  ASP761  ALA762  ILE779  LEU786  VAL792 
 PHE793  MET794  SER795  GLU796  ALA797  LYS798  CYS799  TRP800  GLU811  SER814 

> <Gold.Protein.RotatedAtoms>
  152.2074  134.8533  160.0500 H   0  0  0  0  0  0  0  0  0  0  0  0  # atno 6907 bound_to 6896
  151.9364  133.3620  159.3957 H   0  0  0  0  0  0  0  0  0  0  0  0  # atno 6908 bound_to 6896
  150.6968  134.4409  159.5336 H   0  0  0  0  0  0  0  0  0  0  0  0  # atno 6909 bound_to 6896
  145.1136  139.3436  143.4750 H   0  0  0  0  0  0  0  0  0  0  0  0  # atno 7974 bound_to 7965
  155.7737  140.0855  157.2095 H   0  0  0  0  0  0  0  0  0  0  0  0  # atno 8008 bound_to 7997
  154.3994  140.1520  156.3029 H   0  0  0  0  0  0  0  0  0  0  0  0  # atno 8009 bound_to 7997
  155.8722  140.3425  155.5832 H   0  0  0  0  0  0  0  0  0  0  0  0  # atno 8010 bound_to 7997
  140.0899  144.4997  150.7106 H   0  0  0  0  0  0  0  0  0  0  0  0  # atno 10167 bound_to 10162
  157.6898  131.0132  150.2671 H   0  0  0  0  0  0  0  0  0  0  0  0  # atno 10718 bound_to 10713
  153.0706  135.4961  154.8296 H   0  0  0  0  0  0  0  0  0  0  0  0  # atno 10763 bound_to 10752
  154.7017  135.3003  154.9334 H   0  0  0  0  0  0  0  0  0  0  0  0  # atno 10764 bound_to 10752
  154.0056  135.6761  153.4815 H   0  0  0  0  0  0  0  0  0  0  0  0  # atno 10765 bound_to 10752
  140.0887  134.5239  155.8873 H   0  0  0  0  0  0  0  0  0  0  0  0  # atno 11005 bound_to 11000
  146.3525  140.1066  142.8605 LP  0  0  0  0  0  0  0  0  0  0  0  0  # atno 17320 bound_to 7965
  145.0819  140.9226  143.4820 LP  0  0  0  0  0  0  0  0  0  0  0  0  # atno 17321 bound_to 7965
  140.7034  143.2450  151.4798 LP  0  0  0  0  0  0  0  0  0  0  0  0  # atno 17342 bound_to 10162
  139.5731  144.1882  152.1864 LP  0  0  0  0  0  0  0  0  0  0  0  0  # atno 17343 bound_to 10162
  156.3240  130.3790  149.7550 LP  0  0  0  0  0  0  0  0  0  0  0  0  # atno 17370 bound_to 10713
  156.5111  130.8172  151.3169 LP  0  0  0  0  0  0  0  0  0  0  0  0  # atno 17371 bound_to 10713
  141.2071  133.6661  156.6283 LP  0  0  0  0  0  0  0  0  0  0  0  0  # atno 17394 bound_to 11000
  140.3383  134.7870  157.4379 LP  0  0  0  0  0  0  0  0  0  0  0  0  # atno 17395 bound_to 11000

$$$$
