AV-unprocessed.smi:608|AV-procd|sdf|3044|dock9
  -GOLD-   2262023563D 1   1.00000     0.00000
 Structure written by MMmdl.
 40 41  0  0  0  0  0  0  0  0  1 V2000
  151.9645  145.4037  159.0832 C   0  0  0  0  0  0  0  0  0  0  0  0
  151.6717  144.8472  160.4810 C   0  0  0  0  0  0  0  0  0  0  0  0
  152.3735  143.5587  160.7595 C   0  0  0  0  0  0  0  0  0  0  0  0
  152.5697  142.9587  161.9790 C   0  0  0  0  0  0  0  0  0  0  0  0
  153.2743  141.7546  161.9097 N   0  0  0  0  0  0  0  0  0  0  0  0
  153.6259  141.4409  160.6605 C   0  0  0  0  0  0  0  0  0  0  0  0
  154.3706  140.1990  160.3005 C   0  0  0  0  0  0  0  0  0  0  0  0
  153.4433  139.0596  159.8585 C   0  0  0  0  0  0  0  0  0  0  0  0
  152.3289  139.5854  159.0823 N   0  0  0  0  0  0  0  0  0  0  0  0
  152.0539  139.2496  157.8112 C   0  0  0  0  0  0  0  0  0  0  0  0
  152.7432  138.4424  157.1862 O   0  0  0  0  0  0  0  0  0  0  0  0
  150.9630  139.8643  157.2834 N   0  0  0  0  0  0  0  0  0  0  0  0
  150.3549  141.1077  157.7771 C   0  0  0  0  0  0  0  0  0  0  0  0
  151.0009  142.3044  157.0562 C   0  0  0  0  0  0  0  0  0  0  0  0
  150.3863  142.5427  155.7541 N   0  0  0  0  0  0  0  0  0  0  0  0
  150.2946  141.6742  154.7302 C   0  0  0  0  0  0  0  0  0  0  0  0
  149.7193  141.9862  153.6901 O   0  0  0  0  0  0  0  0  0  0  0  0
  150.9359  140.2790  154.8421 C   0  0  0  0  0  0  0  0  0  0  0  0
  150.3819  139.4302  156.0069 C   0  0  0  0  0  0  0  0  0  0  0  0
  153.0703  142.6111  159.4700 S   0  0  0  0  0  0  0  0  0  0  0  0
  151.4443  146.3482  158.9234 H   0  0  0  0  0  0  0  0  0  0  0  0
  151.6399  144.7107  158.3065 H   0  0  0  0  0  0  0  0  0  0  0  0
  153.0314  145.5836  158.9474 H   0  0  0  0  0  0  0  0  0  0  0  0
  151.9582  145.5874  161.2288 H   0  0  0  0  0  0  0  0  0  0  0  0
  150.5967  144.7051  160.5950 H   0  0  0  0  0  0  0  0  0  0  0  0
  152.2446  143.3189  162.9440 H   0  0  0  0  0  0  0  0  0  0  0  0
  155.0757  140.4395  159.5038 H   0  0  0  0  0  0  0  0  0  0  0  0
  154.9658  139.8866  161.1599 H   0  0  0  0  0  0  0  0  0  0  0  0
  153.9974  138.3368  159.2571 H   0  0  0  0  0  0  0  0  0  0  0  0
  153.0575  138.5287  160.7303 H   0  0  0  0  0  0  0  0  0  0  0  0
  151.7236  140.2509  159.5402 H   0  0  0  0  0  0  0  0  0  0  0  0
  149.2740  141.1034  157.6260 H   0  0  0  0  0  0  0  0  0  0  0  0
  150.4754  141.2162  158.8553 H   0  0  0  0  0  0  0  0  0  0  0  0
  150.8455  143.2053  157.6501 H   0  0  0  0  0  0  0  0  0  0  0  0
  152.0809  142.1859  156.9537 H   0  0  0  0  0  0  0  0  0  0  0  0
  149.9643  143.4506  155.6216 H   0  0  0  0  0  0  0  0  0  0  0  0
  150.7492  139.7495  153.9070 H   0  0  0  0  0  0  0  0  0  0  0  0
  152.0194  140.3808  154.9160 H   0  0  0  0  0  0  0  0  0  0  0  0
  150.5870  138.3756  155.8172 H   0  0  0  0  0  0  0  0  0  0  0  0
  149.2934  139.4967  156.0433 H   0  0  0  0  0  0  0  0  0  0  0  0
  1  2  1  0  0  0  0
  1 21  1  0  0  0  0
  1 22  1  0  0  0  0
  1 23  1  0  0  0  0
  2  3  1  0  0  0  0
  2 24  1  0  0  0  0
  2 25  1  0  0  0  0
  3 20  1  0  0  0  0
  3  4  2  0  0  0  0
  4  5  1  0  0  0  0
  4 26  1  0  0  0  0
  5  6  2  0  0  0  0
  6  7  1  0  0  0  0
  6 20  1  0  0  0  0
  7  8  1  0  0  0  0
  7 27  1  0  0  0  0
  7 28  1  0  0  0  0
  8  9  1  0  0  0  0
  8 29  1  0  0  0  0
  8 30  1  0  0  0  0
  9 10  1  0  0  0  0
  9 31  1  0  0  0  0
 10 11  2  0  0  0  0
 10 12  1  0  0  0  0
 12 19  1  0  0  0  0
 12 13  1  0  0  0  0
 13 14  1  0  0  0  0
 13 32  1  0  0  0  0
 13 33  1  0  0  0  0
 14 15  1  0  0  0  0
 14 34  1  0  0  0  0
 14 35  1  0  0  0  0
 15 16  1  0  0  0  0
 15 36  1  0  0  0  0
 16 17  2  0  0  0  0
 16 18  1  0  0  0  0
 18 19  1  0  0  0  0
 18 37  1  0  0  0  0
 18 38  1  0  0  0  0
 19 39  1  0  0  0  0
 19 40  1  0  0  0  0
M  END
> <s_m_source_file>
AV-unprocessed.smi

> <i_m_source_file_index>
608

> <i_lp_mmshare_version>
43012

> <i_f3d_flags>
0

> <s_epik_input>
W0NIM11bQ0gyXWMxW2NIXW5jKHMxKVtDSDJdW0NIMl1bTkhdQyg9TylOMltDSDJdW0NIMl1bTkhdQyg9TylbQ0gyXVtDSDJdMg==

> <s_epik_cmdline>
J2VwaWtfcHl0aG9uJywgJy1waCcsICc3LjAnLCAnLXRuJywgJzgnLCAnLW1hJywgJzIwMCcsICctbWV0YWxfYmluZGluZycsICctaW1hZScsICc8aW5maWxlLm1hZT4nLCAnLW9tYWUnLCAnPG91dGZpbGUubWFlPic=

> <r_epik_Ionization_Penalty>
0.000937608

> <r_epik_Ionization_Penalty_Charging>
0

> <r_epik_Ionization_Penalty_Neutral>
0.000937608

> <r_epik_State_Penalty>
0.000579253

> <r_epik_Charging_Adjusted_Penalty>
0.000579253

> <i_epik_Tot_Q>
0

> <i_epik_Tot_abs_Q>
0

> <r_epik_Metal_State_Penalty>
-0

> <b_epik_Metal_Only>
0

> <s_lp_Force_Field>
OPLS_2005

> <r_lp_Energy>
19.2261

> <b_lp_Chiralities_Consistent>
1

> <s_lp_Variant>
AV-unprocessed.smi:608-1

> <Gold.Version>
5.8.1

> <Gold.Id.Protein>
6NUR|6NUR_protein|mol2

> <Gold.PLP.Fitness>
47.9448

> <Gold.PLP.PLP>
-44.4090

> <Gold.PLP.part.hbond>
-2.7107

> <Gold.PLP.part.metal>
0.0000

> <Gold.PLP.part.buried>
-6.1194

> <Gold.PLP.part.nonpolar>
-35.8930

> <Gold.PLP.part.repulsive>
0.4651

> <Gold.PLP.ligand.clash>
0.0000

> <Gold.PLP.ligand.torsion>
0.7693

> <Gold.PLP.Chemscore.Hbond>
1.6720

> <Gold.PLP.Chemscore.CHOScore>
0.0000

> <Gold.PLP.Chemscore.Metal>
0.0000

> <Gold.Chemscore.Hbonds>
donor molecule, donor type, donor heavy atom, donor atom, acceptor molecule, acceptor atom, score
      L1  H    15    36       P1  8028  1.00
      P1  H  8011  8017       L1    17  0.32

> <Gold.PLP.Chemscore.Internal.Correction>
0.0584

> <Gold.Rescore>
     Score         DG    S(hbond)    S(metal)    S(lipo)     H(rot)  DE(clash)    DE(int)     intcor
     18.82     -19.79       1.77        0.00     107.00       1.61       0.17       0.79       ----

> <Gold.Chemscore.Fitness>
18.8243

> <Gold.Chemscore.DG>
-19.7923

> <Gold.Chemscore.ZeroCoef>
-5.4800

> <Gold.Chemscore.Hbond>
1.7723

> <Gold.Chemscore.Metal>
0.0000

> <Gold.Chemscore.Lipo>
107.0039

> <Gold.Chemscore.Internal_Hbond>
0.0000

> <Gold.Chemscore.DEClash>
0.1740

> <Gold.Chemscore.DEInternal>
0.7940

> <Gold.Chemscore.Rot>
1.6120

> <Gold.Chemscore.Internal.Correction>
   9.000000E+99

> <Gold.Chemscore.Hbonds>
donor molecule, donor type, donor heavy atom, donor atom, acceptor molecule, acceptor atom, score
      L1  H    15    36       P1  8028  1.00
      P1  H  8011  8017       L1    17  0.31

> <Gold.Chemscore.Hbond.Weighted>
-5.9196

> <Gold.Chemscore.Metal.Weighted>
-0.0000

> <Gold.Chemscore.Lipo.Weighted>
-12.5195

> <Gold.Chemscore.Internal_Hbond.Weighted>
0.0000

> <Gold.Chemscore.DEClash.Weighted>
0.1740

> <Gold.Chemscore.DEInternal.Weighted>
0.7940

> <Gold.Chemscore.Rot.Weighted>
4.1267

> <Gold.Chemscore.Internal.Correction.Weighted>
   9.000000E+99

> <Gold.Protein.RotatedTorsions>
[ 6907 6896 6895 6894 ] final  -86.15 input  -60.11 | X-H torsion
[ 7974 7965 7964 7962 ] final  154.80 input  175.53 | X-H torsion
[ 8008 7997 7996 7995 ] final  114.53 input   59.86 | X-H torsion
[ 10167 10162 10161 10158 ] final   64.48 input  -65.29 | X-H torsion
[ 10718 10713 10712 10709 ] final -116.76 input   66.30 | X-H torsion
[ 10763 10752 10751 10750 ] final   42.24 input  -60.55 | X-H torsion
[ 11005 11000 10999 10996 ] final   92.46 input  -57.11 | X-H torsion

> <Gold.Protein.ActiveResidues>
 VAL166  LYS551  ARG553  GLY616  TRP617  ASP618  TYR619  PRO620  LYS621  CYS622 
 ASP623  PHE694  ASN695  SER759  ASP760  ASP761  ALA762  ILE779  LEU786  VAL792 
 PHE793  MET794  SER795  GLU796  ALA797  LYS798  CYS799  TRP800  GLU811  SER814 

> <Gold.Protein.RotatedAtoms>
  150.6868  134.3095  159.4740 H   0  0  0  0  0  0  0  0  0  0  0  0  # atno 6907 bound_to 6896
  152.0982  134.9357  160.0579 H   0  0  0  0  0  0  0  0  0  0  0  0  # atno 6908 bound_to 6896
  152.0646  133.4043  159.4470 H   0  0  0  0  0  0  0  0  0  0  0  0  # atno 6909 bound_to 6896
  144.8065  139.6982  143.6159 H   0  0  0  0  0  0  0  0  0  0  0  0  # atno 7974 bound_to 7965
  156.2327  140.2957  156.0230 H   0  0  0  0  0  0  0  0  0  0  0  0  # atno 8008 bound_to 7997
  155.2180  140.0414  157.2961 H   0  0  0  0  0  0  0  0  0  0  0  0  # atno 8009 bound_to 7997
  154.6023  140.2430  155.7783 H   0  0  0  0  0  0  0  0  0  0  0  0  # atno 8010 bound_to 7997
  140.1217  144.4725  150.6916 H   0  0  0  0  0  0  0  0  0  0  0  0  # atno 10167 bound_to 10162
  156.0986  130.6153  150.9078 H   0  0  0  0  0  0  0  0  0  0  0  0  # atno 10718 bound_to 10713
  152.9888  135.6137  154.2918 H   0  0  0  0  0  0  0  0  0  0  0  0  # atno 10763 bound_to 10752
  154.2643  135.2781  155.2767 H   0  0  0  0  0  0  0  0  0  0  0  0  # atno 10764 bound_to 10752
  154.5178  135.5823  153.6714 H   0  0  0  0  0  0  0  0  0  0  0  0  # atno 10765 bound_to 10752
  139.8823  134.8734  156.3575 H   0  0  0  0  0  0  0  0  0  0  0  0  # atno 11005 bound_to 11000
  146.2357  139.5901  142.9525 LP  0  0  0  0  0  0  0  0  0  0  0  0  # atno 17320 bound_to 7965
  145.5425  141.0420  143.2323 LP  0  0  0  0  0  0  0  0  0  0  0  0  # atno 17321 bound_to 7965
  140.6868  143.2354  151.5239 LP  0  0  0  0  0  0  0  0  0  0  0  0  # atno 17342 bound_to 10162
  139.5565  144.2263  152.1621 LP  0  0  0  0  0  0  0  0  0  0  0  0  # atno 17343 bound_to 10162
  157.6152  131.0934  150.8723 LP  0  0  0  0  0  0  0  0  0  0  0  0  # atno 17370 bound_to 10713
  156.8855  130.5194  149.5288 LP  0  0  0  0  0  0  0  0  0  0  0  0  # atno 17371 bound_to 10713
  140.9552  133.7425  156.0325 LP  0  0  0  0  0  0  0  0  0  0  0  0  # atno 17394 bound_to 11000
  140.8057  134.3457  157.5426 LP  0  0  0  0  0  0  0  0  0  0  0  0  # atno 17395 bound_to 11000

$$$$
