AV-unprocessed.smi:1963|AV-procd|sdf|7927|dock7
  -GOLD-   2272010 93D 1   1.00000     0.00000
 Structure written by MMmdl.
 47 48  0  0  0  0  0  0  0  0  1 V2000
  154.9700  132.0576  160.6078 C   0  0  0  0  0  0  0  0  0  0  0  0
  155.4532  133.4988  160.7249 C   0  0  0  0  0  0  0  0  0  0  0  0
  155.9520  134.0654  159.7529 O   0  0  0  0  0  0  0  0  0  0  0  0
  155.2996  134.0798  161.9250 N   0  0  0  0  0  0  0  0  0  0  0  0
  155.6806  135.4540  162.2595 C   0  0  1  0  0  0  0  0  0  0  0  0
  154.8826  136.4237  161.3653 C   0  0  0  0  0  0  0  0  0  0  0  0
  154.1427  135.9810  160.4856 O   0  0  0  0  0  0  0  0  0  0  0  0
  155.0302  137.7308  161.6505 N   0  0  0  0  0  0  0  0  0  0  0  0
  154.4154  138.8479  161.0246 C   0  0  0  0  0  0  0  0  0  0  0  0
  154.5158  140.1010  161.6588 C   0  0  0  0  0  0  0  0  0  0  0  0
  153.9265  141.2278  161.0552 C   0  0  0  0  0  0  0  0  0  0  0  0
  153.2537  141.0764  159.8200 C   0  0  0  0  0  0  0  0  0  0  0  0
  152.6488  142.1910  159.1989 N   0  0  0  0  0  0  0  0  0  0  0  0
  152.5461  143.3955  160.0195 C   0  0  0  0  0  0  0  0  0  0  0  0
  152.1639  144.6059  159.1502 C   0  0  0  0  0  0  0  0  0  0  0  0
  150.9695  144.3250  158.4279 O   0  0  0  0  0  0  0  0  0  0  0  0
  151.1305  143.2154  157.5508 C   0  0  0  0  0  0  0  0  0  0  0  0
  151.4706  141.9562  158.3658 C   0  0  0  0  0  0  0  0  0  0  0  0
  153.1793  139.8739  159.1980 N   0  0  0  0  0  0  0  0  0  0  0  0
  153.7435  138.7950  159.7808 C   0  0  0  0  0  0  0  0  0  0  0  0
  155.3509  135.7164  163.7593 C   0  0  0  0  0  0  0  0  0  0  0  0
  155.9474  134.6541  164.7065 C   0  0  0  0  0  0  0  0  0  0  0  0
  153.8319  135.8108  164.0044 C   0  0  0  0  0  0  0  0  0  0  0  0
  153.9033  131.9955  160.8250 H   0  0  0  0  0  0  0  0  0  0  0  0
  155.5047  131.4184  161.3109 H   0  0  0  0  0  0  0  0  0  0  0  0
  155.1367  131.6724  159.6011 H   0  0  0  0  0  0  0  0  0  0  0  0
  154.8725  133.5372  162.6617 H   0  0  0  0  0  0  0  0  0  0  0  0
  156.7520  135.5887  162.0948 H   0  0  0  0  0  0  0  0  0  0  0  0
  155.6025  137.9444  162.4545 H   0  0  0  0  0  0  0  0  0  0  0  0
  155.0354  140.2015  162.6005 H   0  0  0  0  0  0  0  0  0  0  0  0
  154.0102  142.1906  161.5366 H   0  0  0  0  0  0  0  0  0  0  0  0
  151.7875  143.2339  160.7866 H   0  0  0  0  0  0  0  0  0  0  0  0
  153.4787  143.6133  160.5379 H   0  0  0  0  0  0  0  0  0  0  0  0
  152.0002  145.4816  159.7785 H   0  0  0  0  0  0  0  0  0  0  0  0
  152.9698  144.8570  158.4584 H   0  0  0  0  0  0  0  0  0  0  0  0
  150.2046  143.0640  156.9960 H   0  0  0  0  0  0  0  0  0  0  0  0
  151.9104  143.4270  156.8177 H   0  0  0  0  0  0  0  0  0  0  0  0
  151.6486  141.1230  157.6846 H   0  0  0  0  0  0  0  0  0  0  0  0
  150.6271  141.6844  159.0019 H   0  0  0  0  0  0  0  0  0  0  0  0
  153.6614  137.8811  159.2136 H   0  0  0  0  0  0  0  0  0  0  0  0
  155.7797  136.6789  164.0445 H   0  0  0  0  0  0  0  0  0  0  0  0
  155.6068  133.6528  164.4411 H   0  0  0  0  0  0  0  0  0  0  0  0
  155.6522  134.8400  165.7396 H   0  0  0  0  0  0  0  0  0  0  0  0
  157.0373  134.6520  164.6891 H   0  0  0  0  0  0  0  0  0  0  0  0
  153.3268  134.8906  163.7086 H   0  0  0  0  0  0  0  0  0  0  0  0
  153.3779  136.6327  163.4503 H   0  0  0  0  0  0  0  0  0  0  0  0
  153.6147  135.9831  165.0589 H   0  0  0  0  0  0  0  0  0  0  0  0
  1  2  1  0  0  0  0
  1 24  1  0  0  0  0
  1 25  1  0  0  0  0
  1 26  1  0  0  0  0
  2  3  2  0  0  0  0
  2  4  1  0  0  0  0
  4  5  1  0  0  0  0
  4 27  1  0  0  0  0
  5  6  1  0  0  0  0
  5 21  1  0  0  0  0
  5 28  1  0  0  0  0
  6  7  2  0  0  0  0
  6  8  1  0  0  0  0
  8  9  1  0  0  0  0
  8 29  1  0  0  0  0
  9 20  1  0  0  0  0
  9 10  2  0  0  0  0
 10 11  1  0  0  0  0
 10 30  1  0  0  0  0
 11 12  2  0  0  0  0
 11 31  1  0  0  0  0
 12 13  1  0  0  0  0
 12 19  1  0  0  0  0
 13 18  1  0  0  0  0
 13 14  1  0  0  0  0
 14 15  1  0  0  0  0
 14 32  1  0  0  0  0
 14 33  1  0  0  0  0
 15 16  1  0  0  0  0
 15 34  1  0  0  0  0
 15 35  1  0  0  0  0
 16 17  1  0  0  0  0
 17 18  1  0  0  0  0
 17 36  1  0  0  0  0
 17 37  1  0  0  0  0
 18 38  1  0  0  0  0
 18 39  1  0  0  0  0
 19 20  2  0  0  0  0
 20 40  1  0  0  0  0
 21 22  1  0  0  0  0
 21 23  1  0  0  0  0
 21 41  1  0  0  0  0
 22 42  1  0  0  0  0
 22 43  1  0  0  0  0
 22 44  1  0  0  0  0
 23 45  1  0  0  0  0
 23 46  1  0  0  0  0
 23 47  1  0  0  0  0
M  END
> <s_m_source_file>
AV-unprocessed.smi

> <i_m_source_file_index>
1963

> <i_lp_mmshare_version>
43012

> <i_f3d_flags>
0

> <s_epik_input>
W0NIM11DKD1PKVtOSF1bQ0BASF0oW0NIXShbQ0gzXSlbQ0gzXSlDKD1PKVtOSF1jMVtjSF1bY0hdYyhuW2NIXTEpTjJbQ0gyXVtDSDJdT1tDSDJdW0NIMl0y

> <s_epik_cmdline>
J2VwaWtfcHl0aG9uJywgJy1waCcsICc3LjAnLCAnLXRuJywgJzgnLCAnLW1hJywgJzIwMCcsICctbWV0YWxfYmluZGluZycsICctaW1hZScsICc8aW5maWxlLm1hZT4nLCAnLW9tYWUnLCAnPG91dGZpbGUubWFlPic=

> <r_lp_tautomer_probability>
1

> <r_epik_Ionization_Penalty>
0.00051446

> <r_epik_Ionization_Penalty_Charging>
0

> <r_epik_Ionization_Penalty_Neutral>
0.00051446

> <r_epik_State_Penalty>
0.00031949

> <r_epik_Charging_Adjusted_Penalty>
0.00031949

> <i_epik_Tot_Q>
0

> <i_epik_Tot_abs_Q>
0

> <r_epik_Metal_State_Penalty>
-0

> <b_epik_Metal_Only>
0

> <s_lp_Force_Field>
OPLS_2005

> <r_lp_Energy>
25.5716

> <b_lp_Chiralities_Consistent>
1

> <s_lp_Variant>
AV-unprocessed.smi:1963-2

> <Gold.Version>
5.8.1

> <Gold.Id.Protein>
6NUR|6NUR_protein|mol2

> <Gold.PLP.Fitness>
39.2726

> <Gold.PLP.PLP>
-37.4779

> <Gold.PLP.part.hbond>
-0.9541

> <Gold.PLP.part.metal>
0.0000

> <Gold.PLP.part.buried>
-5.7591

> <Gold.PLP.part.nonpolar>
-31.6167

> <Gold.PLP.part.repulsive>
0.1941

> <Gold.PLP.ligand.clash>
0.0000

> <Gold.PLP.ligand.torsion>
0.6822

> <Gold.PLP.Chemscore.Hbond>
0.9263

> <Gold.PLP.Chemscore.CHOScore>
0.0000

> <Gold.PLP.Chemscore.Metal>
0.0000

> <Gold.Chemscore.Hbonds>
donor molecule, donor type, donor heavy atom, donor atom, acceptor molecule, acceptor atom, score
      P1  H  6896  6909       L1     7  0.62

> <Gold.PLP.Chemscore.Internal.Correction>
0.3803

> <Gold.Rescore>
     Score         DG    S(hbond)    S(metal)    S(lipo)     H(rot)  DE(clash)    DE(int)     intcor
     12.80     -16.02       0.98        0.00     100.04       1.74       0.02       3.20       ----

> <Gold.Chemscore.Fitness>
12.7969

> <Gold.Chemscore.DG>
-16.0212

> <Gold.Chemscore.ZeroCoef>
-5.4800

> <Gold.Chemscore.Hbond>
0.9849

> <Gold.Chemscore.Metal>
0.0000

> <Gold.Chemscore.Lipo>
100.0388

> <Gold.Chemscore.Internal_Hbond>
0.0000

> <Gold.Chemscore.DEClash>
0.0234

> <Gold.Chemscore.DEInternal>
3.2008

> <Gold.Chemscore.Rot>
1.7394

> <Gold.Chemscore.Internal.Correction>
   9.000000E+99

> <Gold.Chemscore.Hbonds>
donor molecule, donor type, donor heavy atom, donor atom, acceptor molecule, acceptor atom, score
      P1  H  6896  6909       L1     7  0.63

> <Gold.Chemscore.Hbond.Weighted>
-3.2894

> <Gold.Chemscore.Metal.Weighted>
-0.0000

> <Gold.Chemscore.Lipo.Weighted>
-11.7045

> <Gold.Chemscore.Internal_Hbond.Weighted>
0.0000

> <Gold.Chemscore.DEClash.Weighted>
0.0234

> <Gold.Chemscore.DEInternal.Weighted>
3.2008

> <Gold.Chemscore.Rot.Weighted>
4.4528

> <Gold.Chemscore.Internal.Correction.Weighted>
   9.000000E+99

> <Gold.Protein.RotatedTorsions>
[ 6907 6896 6895 6894 ] final  176.84 input  -60.11 | X-H torsion
[ 7974 7965 7964 7962 ] final   89.61 input  175.53 | X-H torsion
[ 8008 7997 7996 7995 ] final  169.91 input   59.86 | X-H torsion
[ 10167 10162 10161 10158 ] final  -48.21 input  -65.29 | X-H torsion
[ 10718 10713 10712 10709 ] final   97.05 input   66.30 | X-H torsion
[ 10763 10752 10751 10750 ] final -111.94 input  -60.55 | X-H torsion
[ 11005 11000 10999 10996 ] final   41.12 input  -57.11 | X-H torsion

> <Gold.Protein.ActiveResidues>
 VAL166  LYS551  ARG553  GLY616  TRP617  ASP618  TYR619  PRO620  LYS621  CYS622 
 ASP623  PHE694  ASN695  SER759  ASP760  ASP761  ALA762  ILE779  LEU786  VAL792 
 PHE793  MET794  SER795  GLU796  ALA797  LYS798  CYS799  TRP800  GLU811  SER814 

> <Gold.Protein.RotatedAtoms>
  151.7137  133.3313  159.3297 H   0  0  0  0  0  0  0  0  0  0  0  0  # atno 6907 bound_to 6896
  150.7683  134.6510  159.6297 H   0  0  0  0  0  0  0  0  0  0  0  0  # atno 6908 bound_to 6896
  152.3695  134.6757  160.0232 H   0  0  0  0  0  0  0  0  0  0  0  0  # atno 6909 bound_to 6896
  145.5300  139.2283  143.2624 H   0  0  0  0  0  0  0  0  0  0  0  0  # atno 7974 bound_to 7965
  156.1414  140.1551  156.8915 H   0  0  0  0  0  0  0  0  0  0  0  0  # atno 8008 bound_to 7997
  154.4990  140.0830  156.7797 H   0  0  0  0  0  0  0  0  0  0  0  0  # atno 8009 bound_to 7997
  155.4072  140.3417  155.4263 H   0  0  0  0  0  0  0  0  0  0  0  0  # atno 8010 bound_to 7997
  140.6741  143.2750  151.4038 H   0  0  0  0  0  0  0  0  0  0  0  0  # atno 10167 bound_to 10162
  157.6918  131.0597  150.4585 H   0  0  0  0  0  0  0  0  0  0  0  0  # atno 10718 bound_to 10713
  154.8325  135.4509  154.1116 H   0  0  0  0  0  0  0  0  0  0  0  0  # atno 10763 bound_to 10752
  153.2377  135.6913  153.7824 H   0  0  0  0  0  0  0  0  0  0  0  0  # atno 10764 bound_to 10752
  153.7184  135.3345  155.3237 H   0  0  0  0  0  0  0  0  0  0  0  0  # atno 10765 bound_to 10752
  140.1865  134.4039  155.8170 H   0  0  0  0  0  0  0  0  0  0  0  0  # atno 11005 bound_to 11000
  146.2050  140.6116  142.9085 LP  0  0  0  0  0  0  0  0  0  0  0  0  # atno 17320 bound_to 7965
  144.7631  140.5467  143.6722 LP  0  0  0  0  0  0  0  0  0  0  0  0  # atno 17321 bound_to 7965
  139.6024  144.1268  152.2212 LP  0  0  0  0  0  0  0  0  0  0  0  0  # atno 17342 bound_to 10162
  140.0656  144.5821  150.7230 LP  0  0  0  0  0  0  0  0  0  0  0  0  # atno 17343 bound_to 10162
  156.4931  130.4100  149.6395 LP  0  0  0  0  0  0  0  0  0  0  0  0  # atno 17370 bound_to 10713
  156.3398  130.7376  151.2319 LP  0  0  0  0  0  0  0  0  0  0  0  0  # atno 17371 bound_to 10713
  141.2225  133.7025  156.8021 LP  0  0  0  0  0  0  0  0  0  0  0  0  # atno 17394 bound_to 11000
  140.2208  134.8758  157.3375 LP  0  0  0  0  0  0  0  0  0  0  0  0  # atno 17395 bound_to 11000

$$$$
