AV-unprocessed.smi:102|AV-procd|sdf|973|dock2
  -GOLD-   2262017523D 1   1.00000     0.00000
 Structure written by MMmdl.
 43 44  0  0  0  0  0  0  0  0  2 V2000
  146.1336  140.6558  156.5101 C   0  0  0  0  0  0  0  0  0  0  0  0
  146.7118  139.7009  157.5466 C   0  0  0  0  0  0  0  0  0  0  0  0
  146.7577  140.0014  158.7396 O   0  0  0  0  0  0  0  0  0  0  0  0
  147.1448  138.5531  157.0035 O   0  0  0  0  0  0  0  0  0  0  0  0
  147.7144  137.5493  157.8291 C   0  0  0  0  0  0  0  0  0  0  0  0
  148.8944  138.1353  158.6247 C   0  0  2  0  0  0  0  0  0  0  0  0
  149.8042  138.6949  157.6756 O   0  0  0  0  0  0  0  0  0  0  0  0
  151.0251  138.0090  157.6715 C   0  0  1  0  0  0  0  0  0  0  0  0
  152.0854  138.8504  158.3533 N   0  0  0  0  0  0  0  0  0  0  0  0
  151.7822  140.0809  158.9145 C   0  0  0  0  0  0  0  0  0  0  0  0
  152.7240  140.8175  159.5378 C   0  0  0  0  0  0  0  0  0  0  0  0
  152.3969  142.0053  160.0754 F   0  0  0  0  0  0  0  0  0  0  0  0
  154.0932  140.3152  159.6269 C   0  0  0  0  0  0  0  0  0  0  0  0
  154.9478  140.9916  160.1971 O   0  0  0  0  0  0  0  0  0  0  0  0
  154.3648  139.1012  159.0667 N   0  5  0  0  0  0  0  0  0  0  0  0
  153.4137  138.3498  158.4385 C   0  0  0  0  0  0  0  0  0  0  0  0
  153.6479  137.2487  157.9411 O   0  0  0  0  0  0  0  0  0  0  0  0
  150.8178  136.7074  158.4536 C   0  0  2  0  0  0  0  0  0  0  0  0
  150.3804  135.6868  157.5619 O   0  0  0  0  0  0  0  0  0  0  0  0
  151.0732  135.4066  156.4453 C   0  0  0  0  0  0  0  0  0  0  0  0
  150.4350  134.2874  155.6328 C   0  0  0  0  0  0  0  0  0  0  0  0
  152.1121  135.9525  156.0754 O   0  0  0  0  0  0  0  0  0  0  0  0
  149.7229  137.1148  159.4228 C   0  0  2  0  0  0  0  0  0  0  0  0
  149.0092  135.9863  159.9168 O   0  0  0  0  0  0  0  0  0  0  0  0
  148.0835  136.1373  160.8793 C   0  0  0  0  0  0  0  0  0  0  0  0
  147.4550  134.8132  161.2915 C   0  0  0  0  0  0  0  0  0  0  0  0
  147.7343  137.2010  161.3909 O   0  0  0  0  0  0  0  0  0  0  0  0
  146.1978  140.2303  155.5082 H   0  0  0  0  0  0  0  0  0  0  0  0
  146.6821  141.5977  156.5190 H   0  0  0  0  0  0  0  0  0  0  0  0
  145.0866  140.8628  156.7310 H   0  0  0  0  0  0  0  0  0  0  0  0
  146.9739  137.1176  158.5031 H   0  0  0  0  0  0  0  0  0  0  0  0
  148.0672  136.7448  157.1827 H   0  0  0  0  0  0  0  0  0  0  0  0
  148.5326  138.9306  159.2773 H   0  0  0  0  0  0  0  0  0  0  0  0
  151.3728  137.8745  156.6456 H   0  0  0  0  0  0  0  0  0  0  0  0
  150.7775  140.4716  158.8662 H   0  0  0  0  0  0  0  0  0  0  0  0
  151.7255  136.4162  158.9841 H   0  0  0  0  0  0  0  0  0  0  0  0
  149.3709  134.2048  155.8557 H   0  0  0  0  0  0  0  0  0  0  0  0
  150.9125  133.3354  155.8648 H   0  0  0  0  0  0  0  0  0  0  0  0
  150.5495  134.4807  154.5660 H   0  0  0  0  0  0  0  0  0  0  0  0
  150.2091  137.6372  160.2484 H   0  0  0  0  0  0  0  0  0  0  0  0
  148.2083  134.0258  161.3246 H   0  0  0  0  0  0  0  0  0  0  0  0
  146.6834  134.5253  160.5776 H   0  0  0  0  0  0  0  0  0  0  0  0
  146.9999  134.8969  162.2786 H   0  0  0  0  0  0  0  0  0  0  0  0
  1  2  1  0  0  0  0
  1 28  1  0  0  0  0
  1 29  1  0  0  0  0
  1 30  1  0  0  0  0
  2  3  2  0  0  0  0
  2  4  1  0  0  0  0
  4  5  1  0  0  0  0
  5  6  1  0  0  0  0
  5 31  1  0  0  0  0
  5 32  1  0  0  0  0
  6 23  1  0  0  0  0
  6  7  1  0  0  0  0
  6 33  1  0  0  0  0
  7  8  1  0  0  0  0
  8  9  1  0  0  0  0
  8 18  1  0  0  0  0
  8 34  1  0  0  0  0
  9 16  1  0  0  0  0
  9 10  1  0  0  0  0
 10 11  2  0  0  0  0
 10 35  1  0  0  0  0
 11 12  1  0  0  0  0
 11 13  1  0  0  0  0
 13 14  2  0  0  0  0
 13 15  1  0  0  0  0
 15 16  1  0  0  0  0
 16 17  2  0  0  0  0
 18 19  1  0  0  0  0
 18 23  1  0  0  0  0
 18 36  1  0  0  0  0
 19 20  1  0  0  0  0
 20 21  1  0  0  0  0
 20 22  2  0  0  0  0
 21 37  1  0  0  0  0
 21 38  1  0  0  0  0
 21 39  1  0  0  0  0
 23 24  1  0  0  0  0
 23 40  1  0  0  0  0
 24 25  1  0  0  0  0
 25 26  1  0  0  0  0
 25 27  2  0  0  0  0
 26 41  1  0  0  0  0
 26 42  1  0  0  0  0
 26 43  1  0  0  0  0
M  CHG  1  15  -1
M  END
> <s_m_source_file>
AV-unprocessed.smi

> <i_m_source_file_index>
102

> <i_lp_mmshare_version>
43012

> <i_f3d_flags>
0

> <s_epik_input>
W0NIM11DKD1PKU9bQ0gyXVtDQEBIXTFPW0NASF0oW0NAQEhdKE9DKD1PKVtDSDNdKVtDQEhdMU9DKD1PKVtDSDNdKW4yW2NIXWMoRiljKD1PKVtuSF1jMj1P

> <s_epik_cmdline>
J2VwaWtfcHl0aG9uJywgJy1waCcsICc3LjAnLCAnLXRuJywgJzgnLCAnLW1hJywgJzIwMCcsICctbWV0YWxfYmluZGluZycsICctaW1hZScsICc8aW5maWxlLm1hZT4nLCAnLW9tYWUnLCAnPG91dGZpbGUubWFlPic=

> <r_epik_Ionization_Penalty>
1.40304

> <r_epik_Ionization_Penalty_Charging>
1.43915e-08

> <r_epik_Ionization_Penalty_Neutral>
1.40304

> <r_epik_State_Penalty>
1.48536

> <r_epik_Charging_Adjusted_Penalty>
1.48536

> <i_epik_Tot_Q>
-1

> <i_epik_Tot_abs_Q>
1

> <r_epik_Metal_State_Penalty>
0.00663881

> <b_epik_Metal_Only>
0

> <s_epik_Chemistry_Notes>
This compound has an ester and may undergo hydrolysis at high or low pH. This compound contains an acetal/aminal-like group ( X-CH(R)-Y where X, Y are N, S, or O) that may be acid/base labile, releasing an aldehyde.

> <s_lp_Force_Field>
OPLS_2005

> <r_lp_Energy>
27.0853

> <b_lp_Chiralities_Consistent>
1

> <s_lp_Variant>
AV-unprocessed.smi:102-29

> <Gold.Version>
5.8.1

> <Gold.Id.Protein>
6NUR|6NUR_protein|mol2

> <Gold.PLP.Fitness>
43.4552

> <Gold.PLP.PLP>
-29.0405

> <Gold.PLP.part.hbond>
-5.6770

> <Gold.PLP.part.metal>
0.0000

> <Gold.PLP.part.buried>
-4.4999

> <Gold.PLP.part.nonpolar>
-19.0761

> <Gold.PLP.part.repulsive>
0.0268

> <Gold.PLP.ligand.clash>
0.0000

> <Gold.PLP.ligand.torsion>
0.1446

> <Gold.PLP.Chemscore.Hbond>
4.8560

> <Gold.PLP.Chemscore.CHOScore>
0.0000

> <Gold.PLP.Chemscore.Metal>
0.0000

> <Gold.Chemscore.Hbonds>
donor molecule, donor type, donor heavy atom, donor atom, acceptor molecule, acceptor atom, score
      P1  H  6931  6943       L1    27  0.99
      P1  H  6934  6947       L1    27  0.78
      P1  H  7997  8008       L1    15  0.46
      P1  H 10752 10764       L1    22  1.00

> <Gold.PLP.Chemscore.Internal.Correction>
0.1358

> <Gold.Rescore>
     Score         DG    S(hbond)    S(metal)    S(lipo)     H(rot)  DE(clash)    DE(int)     intcor
      5.63      -8.73       2.83        0.00      34.50       4.00       0.01       3.08       ----

> <Gold.Chemscore.Fitness>
5.6335

> <Gold.Chemscore.DG>
-8.7272

> <Gold.Chemscore.ZeroCoef>
-5.4800

> <Gold.Chemscore.Hbond>
2.8259

> <Gold.Chemscore.Metal>
0.0000

> <Gold.Chemscore.Lipo>
34.4952

> <Gold.Chemscore.Internal_Hbond>
0.0000

> <Gold.Chemscore.DEClash>
0.0107

> <Gold.Chemscore.DEInternal>
3.0830

> <Gold.Chemscore.Rot>
3.9951

> <Gold.Chemscore.Internal.Correction>
   9.000000E+99

> <Gold.Chemscore.Hbonds>
donor molecule, donor type, donor heavy atom, donor atom, acceptor molecule, acceptor atom, score
      P1  H  6931  6943       L1    27  0.88
      P1  H  6934  6946       L1     3  0.01
      P1  H  6934  6947       L1    27  0.77
      P1  H 10752 10764       L1    22  0.94

> <Gold.Chemscore.Hbond.Weighted>
-9.4387

> <Gold.Chemscore.Metal.Weighted>
-0.0000

> <Gold.Chemscore.Lipo.Weighted>
-4.0359

> <Gold.Chemscore.Internal_Hbond.Weighted>
0.0000

> <Gold.Chemscore.DEClash.Weighted>
0.0107

> <Gold.Chemscore.DEInternal.Weighted>
3.0830

> <Gold.Chemscore.Rot.Weighted>
10.2274

> <Gold.Chemscore.Internal.Correction.Weighted>
   9.000000E+99

> <Gold.Protein.RotatedTorsions>
[ 6907 6896 6895 6894 ] final   -6.79 input  -60.11 | X-H torsion
[ 7974 7965 7964 7962 ] final  -14.66 input  175.53 | X-H torsion
[ 8008 7997 7996 7995 ] final -104.24 input   59.86 | X-H torsion
[ 10167 10162 10161 10158 ] final  -33.06 input  -65.29 | X-H torsion
[ 10718 10713 10712 10709 ] final  129.15 input   66.30 | X-H torsion
[ 10763 10752 10751 10750 ] final  -20.60 input  -60.55 | X-H torsion
[ 11005 11000 10999 10996 ] final -170.66 input  -57.11 | X-H torsion

> <Gold.Protein.ActiveResidues>
 VAL166  LYS551  ARG553  GLY616  TRP617  ASP618  TYR619  PRO620  LYS621  CYS622 
 ASP623  PHE694  ASN695  SER759  ASP760  ASP761  ALA762  ILE779  LEU786  VAL792 
 PHE793  MET794  SER795  GLU796  ALA797  LYS798  CYS799  TRP800  GLU811  SER814 

> <Gold.Protein.RotatedAtoms>
  151.4600  135.1037  159.9721 H   0  0  0  0  0  0  0  0  0  0  0  0  # atno 6907 bound_to 6896
  152.4856  133.8361  159.7139 H   0  0  0  0  0  0  0  0  0  0  0  0  # atno 6908 bound_to 6896
  150.8963  133.7116  159.2918 H   0  0  0  0  0  0  0  0  0  0  0  0  # atno 6909 bound_to 6896
  146.2065  140.3381  142.8405 H   0  0  0  0  0  0  0  0  0  0  0  0  # atno 7974 bound_to 7965
  154.8825  140.0419  157.1790 H   0  0  0  0  0  0  0  0  0  0  0  0  # atno 8008 bound_to 7997
  154.8625  140.2946  155.5509 H   0  0  0  0  0  0  0  0  0  0  0  0  # atno 8009 bound_to 7997
  156.2998  140.2444  156.3601 H   0  0  0  0  0  0  0  0  0  0  0  0  # atno 8010 bound_to 7997
  140.7211  143.3648  151.1892 H   0  0  0  0  0  0  0  0  0  0  0  0  # atno 10167 bound_to 10162
  157.5180  131.1098  150.9195 H   0  0  0  0  0  0  0  0  0  0  0  0  # atno 10718 bound_to 10713
  153.6230  135.6992  153.5303 H   0  0  0  0  0  0  0  0  0  0  0  0  # atno 10763 bound_to 10752
  153.2922  135.4154  155.1176 H   0  0  0  0  0  0  0  0  0  0  0  0  # atno 10764 bound_to 10752
  154.8539  135.3628  154.5772 H   0  0  0  0  0  0  0  0  0  0  0  0  # atno 10765 bound_to 10752
  140.5170  134.5746  157.5036 H   0  0  0  0  0  0  0  0  0  0  0  0  # atno 11005 bound_to 11000
  144.8805  140.7394  143.5990 LP  0  0  0  0  0  0  0  0  0  0  0  0  # atno 17320 bound_to 7965
  145.3301  139.1762  143.4541 LP  0  0  0  0  0  0  0  0  0  0  0  0  # atno 17321 bound_to 7965
  139.7207  143.9227  152.2984 LP  0  0  0  0  0  0  0  0  0  0  0  0  # atno 17342 bound_to 10162
  139.8984  144.6926  150.8693 LP  0  0  0  0  0  0  0  0  0  0  0  0  # atno 17343 bound_to 10162
  156.9815  130.5528  149.5296 LP  0  0  0  0  0  0  0  0  0  0  0  0  # atno 17370 bound_to 10713
  156.0334  130.5423  150.8592 LP  0  0  0  0  0  0  0  0  0  0  0  0  # atno 17371 bound_to 10713
  139.9627  134.7425  156.0203 LP  0  0  0  0  0  0  0  0  0  0  0  0  # atno 17394 bound_to 11000
  141.1355  133.6576  156.3581 LP  0  0  0  0  0  0  0  0  0  0  0  0  # atno 17395 bound_to 11000

$$$$
