AV-unprocessed.smi:1873|AV-procd|sdf|7610|dock2
  -GOLD-   22720 9333D 1   1.00000     0.00000
 Structure written by MMmdl.
 37 39  0  0  0  0  0  0  0  0  2 V2000
  146.5807  138.1272  154.8238 O   0  0  0  0  0  0  0  0  0  0  0  0
  146.4537  138.5896  153.4924 C   0  0  1  0  0  0  0  0  0  0  0  0
  147.7993  139.1501  152.9906 C   0  0  0  0  0  0  0  0  0  0  0  0
  148.4007  140.1173  153.9199 N   0  0  0  0  0  0  0  0  0  0  0  0
  148.0415  141.4019  154.1881 C   0  0  0  0  0  0  0  0  0  0  0  0
  148.9077  141.8855  155.1212 N   0  3  0  0  0  0  0  0  0  0  0  0
  149.8338  140.8955  155.4556 C   0  0  0  0  0  0  0  0  0  0  0  0
  150.9000  140.9108  156.3496 C   0  0  0  0  0  0  0  0  0  0  0  0
  151.6527  139.7230  156.4573 C   0  0  0  0  0  0  0  0  0  0  0  0
  151.3343  138.5802  155.6953 C   0  0  0  0  0  0  0  0  0  0  0  0
  150.2514  138.5761  154.7917 C   0  0  0  0  0  0  0  0  0  0  0  0
  149.5134  139.7551  154.6884 C   0  0  0  0  0  0  0  0  0  0  0  0
  145.9268  137.5140  152.5555 C   0  0  0  0  0  0  0  0  0  0  0  0
  146.6460  137.1823  151.3886 C   0  0  0  0  0  0  0  0  0  0  0  0
  146.1712  136.1780  150.5234 C   0  0  0  0  0  0  0  0  0  0  0  0
  144.9713  135.4947  150.8055 C   0  0  0  0  0  0  0  0  0  0  0  0
  144.5691  134.5136  149.9276 O   0  0  0  0  0  0  0  0  0  0  0  0
  144.4865  133.2265  150.3579 C   0  0  0  0  0  0  0  0  0  0  0  0
  143.7941  132.4867  149.4586 F   0  0  0  0  0  0  0  0  0  0  0  0
  145.7240  132.6832  150.4676 F   0  0  0  0  0  0  0  0  0  0  0  0
  144.2581  135.8186  151.9846 C   0  0  0  0  0  0  0  0  0  0  0  0
  144.7328  136.8221  152.8511 C   0  0  0  0  0  0  0  0  0  0  0  0
  147.4848  138.2146  155.0854 H   0  0  0  0  0  0  0  0  0  0  0  0
  145.7270  139.4029  153.5178 H   0  0  0  0  0  0  0  0  0  0  0  0
  148.5127  138.3503  152.7912 H   0  0  0  0  0  0  0  0  0  0  0  0
  147.6520  139.6688  152.0424 H   0  0  0  0  0  0  0  0  0  0  0  0
  147.2183  141.9407  153.7415 H   0  0  0  0  0  0  0  0  0  0  0  0
  151.1444  141.7841  156.9364 H   0  0  0  0  0  0  0  0  0  0  0  0
  152.4895  139.6867  157.1397 H   0  0  0  0  0  0  0  0  0  0  0  0
  151.9314  137.6867  155.8071 H   0  0  0  0  0  0  0  0  0  0  0  0
  150.0129  137.6924  154.2186 H   0  0  0  0  0  0  0  0  0  0  0  0
  147.5681  137.6935  151.1538 H   0  0  0  0  0  0  0  0  0  0  0  0
  146.7325  135.9304  149.6343 H   0  0  0  0  0  0  0  0  0  0  0  0
  143.9708  133.1536  151.3159 H   0  0  0  0  0  0  0  0  0  0  0  0
  143.3474  135.2988  152.2425 H   0  0  0  0  0  0  0  0  0  0  0  0
  144.1779  137.0533  153.7488 H   0  0  0  0  0  0  0  0  0  0  0  0
  148.8670  142.8226  155.5007 H   0  0  0  0  0  0  0  0  0  0  0  0
  1  2  1  0  0  0  0
  1 23  1  0  0  0  0
  2  3  1  0  0  0  0
  2 13  1  0  0  0  0
  2 24  1  0  0  0  0
  3  4  1  0  0  0  0
  3 25  1  0  0  0  0
  3 26  1  0  0  0  0
  4 12  1  0  0  0  0
  4  5  1  0  0  0  0
  5  6  2  0  0  0  0
  5 27  1  0  0  0  0
  6  7  1  0  0  0  0
  6 37  1  0  0  0  0
  7 12  2  0  0  0  0
  7  8  1  0  0  0  0
  8  9  2  0  0  0  0
  8 28  1  0  0  0  0
  9 10  1  0  0  0  0
  9 29  1  0  0  0  0
 10 11  2  0  0  0  0
 10 30  1  0  0  0  0
 11 12  1  0  0  0  0
 11 31  1  0  0  0  0
 13 22  1  0  0  0  0
 13 14  2  0  0  0  0
 14 15  1  0  0  0  0
 14 32  1  0  0  0  0
 15 16  2  0  0  0  0
 15 33  1  0  0  0  0
 16 17  1  0  0  0  0
 16 21  1  0  0  0  0
 17 18  1  0  0  0  0
 18 19  1  0  0  0  0
 18 20  1  0  0  0  0
 18 34  1  0  0  0  0
 21 22  2  0  0  0  0
 21 35  1  0  0  0  0
 22 36  1  0  0  0  0
M  CHG  1   6   1
M  END
> <s_m_source_file>
AV-unprocessed.smi

> <i_m_source_file_index>
1873

> <i_lp_mmshare_version>
43012

> <i_f3d_flags>
0

> <s_epik_input>
RltDSF0oRilPYyhbY0hdW2NIXTEpW2NIXVtjSF1jMVtDQEhdKFtPSF0pW0NIMl1uKFtjSF1uMiljKGMyMylbY0hdW2NIXVtjSF1bY0hdMw==

> <s_epik_cmdline>
J2VwaWtfcHl0aG9uJywgJy1waCcsICc3LjAnLCAnLXRuJywgJzgnLCAnLW1hJywgJzIwMCcsICctbWV0YWxfYmluZGluZycsICctaW1hZScsICc8aW5maWxlLm1hZT4nLCAnLW9tYWUnLCAnPG91dGZpbGUubWFlPic=

> <r_lp_tautomer_probability>
1

> <r_epik_Ionization_Penalty>
1.3029

> <r_epik_Ionization_Penalty_Charging>
1.3029

> <r_epik_Ionization_Penalty_Neutral>
2.50501e-07

> <r_epik_State_Penalty>
1.377

> <r_epik_Charging_Adjusted_Penalty>
2.6799

> <i_epik_Tot_Q>
1

> <i_epik_Tot_abs_Q>
1

> <r_epik_Metal_State_Penalty>
5.40879

> <b_epik_Metal_Only>
0

> <s_lp_Force_Field>
OPLS_2005

> <r_lp_Energy>
16.5832

> <b_lp_Chiralities_Consistent>
1

> <s_lp_Variant>
AV-unprocessed.smi:1873-4

> <Gold.Version>
5.8.1

> <Gold.Id.Protein>
6NUR|6NUR_protein|mol2

> <Gold.PLP.Fitness>
50.9007

> <Gold.PLP.PLP>
-45.5155

> <Gold.PLP.part.hbond>
-1.0000

> <Gold.PLP.part.metal>
0.0000

> <Gold.PLP.part.buried>
0.6255

> <Gold.PLP.part.nonpolar>
-45.5024

> <Gold.PLP.part.repulsive>
0.4732

> <Gold.PLP.ligand.clash>
0.0000

> <Gold.PLP.ligand.torsion>
0.3482

> <Gold.PLP.Chemscore.Hbond>
2.0000

> <Gold.PLP.Chemscore.CHOScore>
0.0000

> <Gold.PLP.Chemscore.Metal>
0.0000

> <Gold.Chemscore.Hbonds>
donor molecule, donor type, donor heavy atom, donor atom, acceptor molecule, acceptor atom, score
      L1  H     6    37       P1  8028  2.00

> <Gold.PLP.Chemscore.Internal.Correction>
0.0817

> <Gold.Rescore>
     Score         DG    S(hbond)    S(metal)    S(lipo)     H(rot)  DE(clash)    DE(int)     intcor
     11.94     -13.45       1.00        0.00      93.69       2.47       0.85       0.67       ----

> <Gold.Chemscore.Fitness>
11.9398

> <Gold.Chemscore.DG>
-13.4549

> <Gold.Chemscore.ZeroCoef>
-5.4800

> <Gold.Chemscore.Hbond>
0.9965

> <Gold.Chemscore.Metal>
0.0000

> <Gold.Chemscore.Lipo>
93.6891

> <Gold.Chemscore.Internal_Hbond>
0.0000

> <Gold.Chemscore.DEClash>
0.8453

> <Gold.Chemscore.DEInternal>
0.6698

> <Gold.Chemscore.Rot>
2.4668

> <Gold.Chemscore.Internal.Correction>
   9.000000E+99

> <Gold.Chemscore.Hbonds>
donor molecule, donor type, donor heavy atom, donor atom, acceptor molecule, acceptor atom, score
      L1  H     6    37       P1  8028  1.00

> <Gold.Chemscore.Hbond.Weighted>
-3.3283

> <Gold.Chemscore.Metal.Weighted>
-0.0000

> <Gold.Chemscore.Lipo.Weighted>
-10.9616

> <Gold.Chemscore.Internal_Hbond.Weighted>
0.0000

> <Gold.Chemscore.DEClash.Weighted>
0.8453

> <Gold.Chemscore.DEInternal.Weighted>
0.6698

> <Gold.Chemscore.Rot.Weighted>
6.3151

> <Gold.Chemscore.Internal.Correction.Weighted>
   9.000000E+99

> <Gold.Protein.RotatedTorsions>
[ 6907 6896 6895 6894 ] final  108.92 input  -60.11 | X-H torsion
[ 7974 7965 7964 7962 ] final   96.04 input  175.53 | X-H torsion
[ 8008 7997 7996 7995 ] final -102.88 input   59.86 | X-H torsion
[ 10167 10162 10161 10158 ] final  113.24 input  -65.29 | X-H torsion
[ 10718 10713 10712 10709 ] final -105.48 input   66.30 | X-H torsion
[ 10763 10752 10751 10750 ] final   52.96 input  -60.55 | X-H torsion
[ 11005 11000 10999 10996 ] final   34.38 input  -57.11 | X-H torsion

> <Gold.Protein.ActiveResidues>
 VAL166  LYS551  ARG553  GLY616  TRP617  ASP618  TYR619  PRO620  LYS621  CYS622 
 ASP623  PHE694  ASN695  SER759  ASP760  ASP761  ALA762  ILE779  LEU786  VAL792 
 PHE793  MET794  SER795  GLU796  ALA797  LYS798  CYS799  TRP800  GLU811  SER814 

> <Gold.Protein.RotatedAtoms>
  152.5091  133.9019  159.7444 H   0  0  0  0  0  0  0  0  0  0  0  0  # atno 6907 bound_to 6896
  150.9433  133.6623  159.2793 H   0  0  0  0  0  0  0  0  0  0  0  0  # atno 6908 bound_to 6896
  151.3927  135.0963  159.9584 H   0  0  0  0  0  0  0  0  0  0  0  0  # atno 6909 bound_to 6896
  145.4442  139.2298  143.3075 H   0  0  0  0  0  0  0  0  0  0  0  0  # atno 7974 bound_to 7965
  154.8630  140.0426  157.1677 H   0  0  0  0  0  0  0  0  0  0  0  0  # atno 8008 bound_to 7997
  154.8820  140.2974  155.5399 H   0  0  0  0  0  0  0  0  0  0  0  0  # atno 8009 bound_to 7997
  156.2998  140.2409  156.3824 H   0  0  0  0  0  0  0  0  0  0  0  0  # atno 8010 bound_to 7997
  139.6476  144.7127  151.2111 H   0  0  0  0  0  0  0  0  0  0  0  0  # atno 10167 bound_to 10162
  156.0348  130.5566  150.7545 H   0  0  0  0  0  0  0  0  0  0  0  0  # atno 10718 bound_to 10713
  152.9792  135.5795  154.4663 H   0  0  0  0  0  0  0  0  0  0  0  0  # atno 10763 bound_to 10752
  154.4232  135.2772  155.1964 H   0  0  0  0  0  0  0  0  0  0  0  0  # atno 10764 bound_to 10752
  154.3704  135.6169  153.5791 H   0  0  0  0  0  0  0  0  0  0  0  0  # atno 10765 bound_to 10752
  140.2534  134.3276  155.7882 H   0  0  0  0  0  0  0  0  0  0  0  0  # atno 11005 bound_to 11000
  146.2540  140.5194  142.8881 LP  0  0  0  0  0  0  0  0  0  0  0  0  # atno 17320 bound_to 7965
  144.8102  140.6372  143.6420 LP  0  0  0  0  0  0  0  0  0  0  0  0  # atno 17321 bound_to 7965
  140.7522  143.6204  150.8519 LP  0  0  0  0  0  0  0  0  0  0  0  0  # atno 17342 bound_to 10162
  139.9849  143.5911  152.2930 LP  0  0  0  0  0  0  0  0  0  0  0  0  # atno 17343 bound_to 10162
  157.5081  131.0923  151.0232 LP  0  0  0  0  0  0  0  0  0  0  0  0  # atno 17370 bound_to 10713
  157.0595  130.5819  149.5383 LP  0  0  0  0  0  0  0  0  0  0  0  0  # atno 17371 bound_to 10713
  141.2199  133.7367  156.9073 LP  0  0  0  0  0  0  0  0  0  0  0  0  # atno 17394 bound_to 11000
  140.1535  134.9214  157.2624 LP  0  0  0  0  0  0  0  0  0  0  0  0  # atno 17395 bound_to 11000

$$$$
