AV-unprocessed.smi:702|AV-procd|sdf|3422|dock4
  -GOLD-   22720 0403D 1   1.00000     0.00000
 Structure written by MMmdl.
 50 52  0  0  0  0  0  0  0  0  2 V2000
  153.4722  135.1737  153.9423 C   0  0  0  0  0  0  0  0  0  0  0  0
  153.1373  135.5784  152.4885 C   0  0  2  0  0  0  0  0  0  0  0  0
  152.0336  136.5456  152.5172 N   0  0  0  0  0  0  0  0  0  0  0  0
  152.0853  137.7851  153.0269 C   0  0  0  0  0  0  0  0  0  0  0  0
  153.0935  138.2699  153.5403 O   0  0  0  0  0  0  0  0  0  0  0  0
  150.8971  138.4047  152.9217 N   0  0  0  0  0  0  0  0  0  0  0  0
  150.5507  139.7158  153.3471 C   0  0  0  0  0  0  0  0  0  0  0  0
  151.1213  140.1905  154.5490 C   0  0  0  0  0  0  0  0  0  0  0  0
  150.7922  141.4807  155.0128 C   0  0  0  0  0  0  0  0  0  0  0  0
  149.9272  142.2464  154.3136 N   0  3  0  0  0  0  0  0  0  0  0  0
  149.3438  141.8298  153.1693 C   0  0  0  0  0  0  0  0  0  0  0  0
  149.6353  140.5496  152.6558 C   0  0  0  0  0  0  0  0  0  0  0  0
  152.8344  134.3620  151.5336 C   0  0  0  0  0  0  0  0  0  0  0  0
  152.9482  134.7497  150.0923 N   0  0  0  0  0  0  0  0  0  0  0  0
  152.9433  133.6290  149.1379 C   0  0  0  0  0  0  0  0  0  0  0  0
  153.2137  134.0938  147.6978 C   0  0  0  0  0  0  0  0  0  0  0  0
  152.2329  135.0507  147.3180 O   0  0  0  0  0  0  0  0  0  0  0  0
  152.2198  136.1822  148.1789 C   0  0  0  0  0  0  0  0  0  0  0  0
  151.9601  135.7362  149.6286 C   0  0  0  0  0  0  0  0  0  0  0  0
  153.8153  133.1979  151.9064 C   0  0  0  0  0  0  0  0  0  0  0  0
  152.9889  132.0673  152.5258 C   0  0  0  0  0  0  0  0  0  0  0  0
  151.5846  132.2570  151.9746 C   0  0  0  0  0  0  0  0  0  0  0  0
  151.4256  133.7735  151.8670 C   0  0  0  0  0  0  0  0  0  0  0  0
  154.3269  134.5000  153.9960 H   0  0  0  0  0  0  0  0  0  0  0  0
  152.6356  134.6771  154.4325 H   0  0  0  0  0  0  0  0  0  0  0  0
  153.7246  136.0493  154.5412 H   0  0  0  0  0  0  0  0  0  0  0  0
  154.0000  136.1098  152.0855 H   0  0  0  0  0  0  0  0  0  0  0  0
  151.1600  136.2347  152.1180 H   0  0  0  0  0  0  0  0  0  0  0  0
  150.1359  137.8479  152.5612 H   0  0  0  0  0  0  0  0  0  0  0  0
  151.8124  139.5773  155.1094 H   0  0  0  0  0  0  0  0  0  0  0  0
  151.1909  141.9192  155.9161 H   0  0  0  0  0  0  0  0  0  0  0  0
  148.6612  142.5261  152.7044 H   0  0  0  0  0  0  0  0  0  0  0  0
  149.1439  140.2268  151.7504 H   0  0  0  0  0  0  0  0  0  0  0  0
  153.6854  132.8757  149.3894 H   0  0  0  0  0  0  0  0  0  0  0  0
  151.9780  133.1230  149.1578 H   0  0  0  0  0  0  0  0  0  0  0  0
  154.2118  134.5259  147.6104 H   0  0  0  0  0  0  0  0  0  0  0  0
  153.1688  133.2478  147.0121 H   0  0  0  0  0  0  0  0  0  0  0  0
  153.1689  136.7153  148.1055 H   0  0  0  0  0  0  0  0  0  0  0  0
  151.4409  136.8698  147.8493 H   0  0  0  0  0  0  0  0  0  0  0  0
  150.9520  135.3288  149.6994 H   0  0  0  0  0  0  0  0  0  0  0  0
  151.9767  136.6335  150.2428 H   0  0  0  0  0  0  0  0  0  0  0  0
  154.3646  132.8218  151.0462 H   0  0  0  0  0  0  0  0  0  0  0  0
  154.6015  133.4935  152.6001 H   0  0  0  0  0  0  0  0  0  0  0  0
  153.3958  131.0807  152.3026 H   0  0  0  0  0  0  0  0  0  0  0  0
  152.9706  132.1794  153.6105 H   0  0  0  0  0  0  0  0  0  0  0  0
  151.5108  131.7996  150.9879 H   0  0  0  0  0  0  0  0  0  0  0  0
  150.8221  131.8012  152.6067 H   0  0  0  0  0  0  0  0  0  0  0  0
  151.0543  134.1408  152.8234 H   0  0  0  0  0  0  0  0  0  0  0  0
  150.6530  134.0350  151.1454 H   0  0  0  0  0  0  0  0  0  0  0  0
  149.7013  143.1767  154.6671 H   0  0  0  0  0  0  0  0  0  0  0  0
  1  2  1  0  0  0  0
  1 24  1  0  0  0  0
  1 25  1  0  0  0  0
  1 26  1  0  0  0  0
  2  3  1  0  0  0  0
  2 13  1  0  0  0  0
  2 27  1  0  0  0  0
  3  4  1  0  0  0  0
  3 28  1  0  0  0  0
  4  5  2  0  0  0  0
  4  6  1  0  0  0  0
  6  7  1  0  0  0  0
  6 29  1  0  0  0  0
  7 12  1  0  0  0  0
  7  8  2  0  0  0  0
  8  9  1  0  0  0  0
  8 30  1  0  0  0  0
  9 10  2  0  0  0  0
  9 31  1  0  0  0  0
 10 11  1  0  0  0  0
 10 50  1  0  0  0  0
 11 12  2  0  0  0  0
 11 32  1  0  0  0  0
 12 33  1  0  0  0  0
 13 23  1  0  0  0  0
 13 14  1  0  0  0  0
 13 20  1  0  0  0  0
 14 19  1  0  0  0  0
 14 15  1  0  0  0  0
 15 16  1  0  0  0  0
 15 34  1  0  0  0  0
 15 35  1  0  0  0  0
 16 17  1  0  0  0  0
 16 36  1  0  0  0  0
 16 37  1  0  0  0  0
 17 18  1  0  0  0  0
 18 19  1  0  0  0  0
 18 38  1  0  0  0  0
 18 39  1  0  0  0  0
 19 40  1  0  0  0  0
 19 41  1  0  0  0  0
 20 21  1  0  0  0  0
 20 42  1  0  0  0  0
 20 43  1  0  0  0  0
 21 22  1  0  0  0  0
 21 44  1  0  0  0  0
 21 45  1  0  0  0  0
 22 23  1  0  0  0  0
 22 46  1  0  0  0  0
 22 47  1  0  0  0  0
 23 48  1  0  0  0  0
 23 49  1  0  0  0  0
M  CHG  1  10   1
M  END
> <s_m_source_file>
AV-unprocessed.smi

> <i_m_source_file_index>
702

> <i_lp_mmshare_version>
43012

> <i_f3d_flags>
0

> <s_epik_input>
W0NIMl0xW0NIMl1PW0NIMl1bQ0gyXU4xQzIoW0NIMl1bQ0gyXVtDSDJdW0NIMl0yKVtDQEhdKFtDSDNdKVtOSF1DKD1PKVtOSF1jM1tjSF1bY0hdbltjSF1bY0hdMw==

> <s_epik_cmdline>
J2VwaWtfcHl0aG9uJywgJy1waCcsICc3LjAnLCAnLXRuJywgJzgnLCAnLW1hJywgJzIwMCcsICctbWV0YWxfYmluZGluZycsICctaW1hZScsICc8aW5maWxlLm1hZT4nLCAnLW9tYWUnLCAnPG91dGZpbGUubWFlPic=

> <r_epik_Ionization_Penalty>
1.54019

> <r_epik_Ionization_Penalty_Charging>
1.02845

> <r_epik_Ionization_Penalty_Neutral>
0.511739

> <r_epik_State_Penalty>
1.62583

> <r_epik_Charging_Adjusted_Penalty>
2.65428

> <i_epik_Tot_Q>
1

> <i_epik_Tot_abs_Q>
1

> <r_epik_Metal_State_Penalty>
1.71803

> <b_epik_Metal_Only>
0

> <s_lp_Force_Field>
OPLS_2005

> <r_lp_Energy>
73.3397

> <b_lp_Chiralities_Consistent>
1

> <s_lp_Variant>
AV-unprocessed.smi:702-7

> <Gold.Version>
5.8.1

> <Gold.Id.Protein>
6NUR|6NUR_protein|mol2

> <Gold.PLP.Fitness>
43.2227

> <Gold.PLP.PLP>
-32.8017

> <Gold.PLP.part.hbond>
-3.0000

> <Gold.PLP.part.metal>
0.0000

> <Gold.PLP.part.buried>
-4.9032

> <Gold.PLP.part.nonpolar>
-25.0133

> <Gold.PLP.part.repulsive>
0.5138

> <Gold.PLP.ligand.clash>
0.0000

> <Gold.PLP.ligand.torsion>
0.8454

> <Gold.PLP.Chemscore.Hbond>
3.9760

> <Gold.PLP.Chemscore.CHOScore>
0.0000

> <Gold.PLP.Chemscore.Metal>
0.0000

> <Gold.Chemscore.Hbonds>
donor molecule, donor type, donor heavy atom, donor atom, acceptor molecule, acceptor atom, score
      L1  H     6    29       P1  7948  0.60
      L1  H    10    50       P1  8028  2.00

> <Gold.PLP.Chemscore.Internal.Correction>
0.1839

> <Gold.Rescore>
     Score         DG    S(hbond)    S(metal)    S(lipo)     H(rot)  DE(clash)    DE(int)     intcor
     18.97     -22.13       2.96        0.00      89.42       1.44       0.14       3.02       ----

> <Gold.Chemscore.Fitness>
18.9664

> <Gold.Chemscore.DG>
-22.1299

> <Gold.Chemscore.ZeroCoef>
-5.4800

> <Gold.Chemscore.Hbond>
2.9558

> <Gold.Chemscore.Metal>
0.0000

> <Gold.Chemscore.Lipo>
89.4207

> <Gold.Chemscore.Internal_Hbond>
0.0000

> <Gold.Chemscore.DEClash>
0.1403

> <Gold.Chemscore.DEInternal>
3.0232

> <Gold.Chemscore.Rot>
1.4394

> <Gold.Chemscore.Internal.Correction>
   9.000000E+99

> <Gold.Chemscore.Hbonds>
donor molecule, donor type, donor heavy atom, donor atom, acceptor molecule, acceptor atom, score
      L1  H     6    29       P1  7948  0.05
      L1  H    10    50       P1  8028  0.97

> <Gold.Chemscore.Hbond.Weighted>
-9.8725

> <Gold.Chemscore.Metal.Weighted>
-0.0000

> <Gold.Chemscore.Lipo.Weighted>
-10.4622

> <Gold.Chemscore.Internal_Hbond.Weighted>
0.0000

> <Gold.Chemscore.DEClash.Weighted>
0.1403

> <Gold.Chemscore.DEInternal.Weighted>
3.0232

> <Gold.Chemscore.Rot.Weighted>
3.6848

> <Gold.Chemscore.Internal.Correction.Weighted>
   9.000000E+99

> <Gold.Protein.RotatedTorsions>
[ 6907 6896 6895 6894 ] final  146.04 input  -60.11 | X-H torsion
[ 7974 7965 7964 7962 ] final   39.17 input  175.53 | X-H torsion
[ 8008 7997 7996 7995 ] final -150.58 input   59.86 | X-H torsion
[ 10167 10162 10161 10158 ] final  141.21 input  -65.29 | X-H torsion
[ 10718 10713 10712 10709 ] final  169.87 input   66.30 | X-H torsion
[ 10763 10752 10751 10750 ] final -149.22 input  -60.55 | X-H torsion
[ 11005 11000 10999 10996 ] final  -28.18 input  -57.11 | X-H torsion

> <Gold.Protein.ActiveResidues>
 VAL166  LYS551  ARG553  GLY616  TRP617  ASP618  TYR619  PRO620  LYS621  CYS622 
 ASP623  PHE694  ASN695  SER759  ASP760  ASP761  ALA762  ILE779  LEU786  VAL792 
 PHE793  MET794  SER795  GLU796  ALA797  LYS798  CYS799  TRP800  GLU811  SER814 

> <Gold.Protein.RotatedAtoms>
  152.1731  133.4656  159.4918 H   0  0  0  0  0  0  0  0  0  0  0  0  # atno 6907 bound_to 6896
  150.6922  134.1928  159.4301 H   0  0  0  0  0  0  0  0  0  0  0  0  # atno 6908 bound_to 6896
  151.9836  135.0015  160.0609 H   0  0  0  0  0  0  0  0  0  0  0  0  # atno 6909 bound_to 6896
  146.1005  139.5684  142.9417 H   0  0  0  0  0  0  0  0  0  0  0  0  # atno 7974 bound_to 7965
  155.6258  140.0686  157.2664 H   0  0  0  0  0  0  0  0  0  0  0  0  # atno 8008 bound_to 7997
  154.4218  140.1776  156.1469 H   0  0  0  0  0  0  0  0  0  0  0  0  # atno 8009 bound_to 7997
  155.9972  140.3339  155.6814 H   0  0  0  0  0  0  0  0  0  0  0  0  # atno 8010 bound_to 7997
  139.5027  144.6185  151.6106 H   0  0  0  0  0  0  0  0  0  0  0  0  # atno 10167 bound_to 10162
  157.0164  131.0219  151.2788 H   0  0  0  0  0  0  0  0  0  0  0  0  # atno 10718 bound_to 10713
  154.8190  135.3315  154.7094 H   0  0  0  0  0  0  0  0  0  0  0  0  # atno 10763 bound_to 10752
  153.7730  135.6924  153.4907 H   0  0  0  0  0  0  0  0  0  0  0  0  # atno 10764 bound_to 10752
  153.2032  135.4509  155.0239 H   0  0  0  0  0  0  0  0  0  0  0  0  # atno 10765 bound_to 10752
  140.9185  133.7414  156.0768 H   0  0  0  0  0  0  0  0  0  0  0  0  # atno 11005 bound_to 11000
  145.5863  141.0376  143.2094 LP  0  0  0  0  0  0  0  0  0  0  0  0  # atno 17320 bound_to 7965
  144.7429  139.7399  143.7303 LP  0  0  0  0  0  0  0  0  0  0  0  0  # atno 17321 bound_to 7965
  140.5881  143.9829  150.6307 LP  0  0  0  0  0  0  0  0  0  0  0  0  # atno 17342 bound_to 10162
  140.3000  143.3267  152.0981 LP  0  0  0  0  0  0  0  0  0  0  0  0  # atno 17343 bound_to 10162
  157.5282  130.8041  149.7886 LP  0  0  0  0  0  0  0  0  0  0  0  0  # atno 17370 bound_to 10713
  156.0118  130.3830  150.2241 LP  0  0  0  0  0  0  0  0  0  0  0  0  # atno 17371 bound_to 10713
  140.8018  134.3500  157.5437 LP  0  0  0  0  0  0  0  0  0  0  0  0  # atno 17394 bound_to 11000
  139.8771  134.9202  156.3246 LP  0  0  0  0  0  0  0  0  0  0  0  0  # atno 17395 bound_to 11000

$$$$
