AV-unprocessed.smi:287|AV-procd|sdf|2202|dock6
  -GOLD-   2262022 23D 1   1.00000     0.00000
 Structure written by MMmdl.
 55 58  0  0  0  0  0  0  0  0  1 V2000
  148.8468  137.7197  158.7845 C   0  0  0  0  0  0  0  0  0  0  0  0
  147.9920  138.4859  157.8337 C   0  0  0  0  0  0  0  0  0  0  0  0
  147.2167  138.1343  156.7675 C   0  0  0  0  0  0  0  0  0  0  0  0
  146.6315  139.3298  156.2528 C   0  0  0  0  0  0  0  0  0  0  0  0
  145.6942  139.4238  155.0564 C   0  0  2  0  0  0  0  0  0  0  0  0
  146.3783  138.8313  153.8134 C   0  0  0  0  0  0  0  0  0  0  0  0
  145.3752  140.7577  154.7102 O   0  0  0  0  0  0  0  0  0  0  0  0
  144.3438  138.7154  155.3072 C   0  0  0  0  0  0  0  0  0  0  0  0
  143.5561  138.5463  154.0929 N   0  0  0  0  0  0  0  0  0  0  0  0
  143.1493  137.3235  153.6923 C   0  0  0  0  0  0  0  0  0  0  0  0
  141.8515  137.0309  153.9456 N   0  0  0  0  0  0  0  0  0  0  0  0
  141.3490  135.8455  153.5914 C   0  0  0  0  0  0  0  0  0  0  0  0
  141.9622  134.8283  152.9854 N   0  0  0  0  0  0  0  0  0  0  0  0
  143.2712  135.1123  152.7249 C   0  0  0  0  0  0  0  0  0  0  0  0
  143.9408  136.3299  153.0416 C   0  0  0  0  0  0  0  0  0  0  0  0
  145.2637  136.2467  152.6190 N   0  0  0  0  0  0  0  0  0  0  0  0
  145.3634  135.0578  152.0909 C   0  0  0  0  0  0  0  0  0  0  0  0
  144.2126  134.3046  152.1183 N   0  0  0  0  0  0  0  0  0  0  0  0
  144.0235  132.9119  151.6019 C   0  0  2  0  0  0  0  0  0  0  0  0
  144.9010  132.0692  152.2790 O   0  0  0  0  0  0  0  0  0  0  0  0
  145.3574  131.0589  151.3882 C   0  0  2  0  0  0  0  0  0  0  0  0
  146.6403  130.3948  151.9186 C   0  0  0  0  0  0  0  0  0  0  0  0
  147.5551  131.3816  152.3454 O   0  0  0  0  0  0  0  0  0  0  0  0
  145.4974  131.8066  150.0538 C   0  0  2  0  0  0  0  0  0  0  0  0
  146.7503  132.4641  149.9658 O   0  0  0  0  0  0  0  0  0  0  0  0
  144.3188  132.7786  150.0922 C   0  0  2  0  0  0  0  0  0  0  0  0
  144.5559  133.9945  149.4004 O   0  0  0  0  0  0  0  0  0  0  0  0
  147.1183  140.3326  157.0569 C   0  0  0  0  0  0  0  0  0  0  0  0
  146.9412  141.8151  157.0890 C   0  0  0  0  0  0  0  0  0  0  0  0
  147.9400  139.8287  158.0199 O   0  0  0  0  0  0  0  0  0  0  0  0
  142.9916  132.6622  151.8523 H   0  0  0  0  0  0  0  0  0  0  0  0
  144.5667  130.3138  151.2774 H   0  0  0  0  0  0  0  0  0  0  0  0
  145.4232  131.1235  149.2069 H   0  0  0  0  0  0  0  0  0  0  0  0
  143.4487  132.2982  149.6429 H   0  0  0  0  0  0  0  0  0  0  0  0
  148.6271  136.6531  158.7327 H   0  0  0  0  0  0  0  0  0  0  0  0
  148.6792  138.0490  159.8100 H   0  0  0  0  0  0  0  0  0  0  0  0
  149.9026  137.8588  158.5518 H   0  0  0  0  0  0  0  0  0  0  0  0
  147.0806  137.1286  156.3978 H   0  0  0  0  0  0  0  0  0  0  0  0
  146.6330  137.7818  153.9656 H   0  0  0  0  0  0  0  0  0  0  0  0
  147.3020  139.3619  153.5781 H   0  0  0  0  0  0  0  0  0  0  0  0
  145.7326  138.8867  152.9360 H   0  0  0  0  0  0  0  0  0  0  0  0
  144.6252  140.7467  154.1353 H   0  0  0  0  0  0  0  0  0  0  0  0
  144.4976  137.7527  155.7965 H   0  0  0  0  0  0  0  0  0  0  0  0
  143.7542  139.3289  155.9898 H   0  0  0  0  0  0  0  0  0  0  0  0
  143.3386  139.3955  153.5911 H   0  0  0  0  0  0  0  0  0  0  0  0
  140.3067  135.6890  153.8278 H   0  0  0  0  0  0  0  0  0  0  0  0
  146.2886  134.6933  151.6690 H   0  0  0  0  0  0  0  0  0  0  0  0
  146.4109  129.7685  152.7811 H   0  0  0  0  0  0  0  0  0  0  0  0
  147.0990  129.7558  151.1630 H   0  0  0  0  0  0  0  0  0  0  0  0
  148.2230  131.4776  151.6837 H   0  0  0  0  0  0  0  0  0  0  0  0
  147.4202  131.8097  149.8312 H   0  0  0  0  0  0  0  0  0  0  0  0
  145.1316  133.8189  148.6721 H   0  0  0  0  0  0  0  0  0  0  0  0
  147.1433  142.2499  156.1100 H   0  0  0  0  0  0  0  0  0  0  0  0
  147.6187  142.2791  157.8063 H   0  0  0  0  0  0  0  0  0  0  0  0
  145.9213  142.0755  157.3726 H   0  0  0  0  0  0  0  0  0  0  0  0
  1  2  1  0  0  0  0
  1 35  1  0  0  0  0
  1 36  1  0  0  0  0
  1 37  1  0  0  0  0
  2 30  1  0  0  0  0
  2  3  2  0  0  0  0
  3  4  1  0  0  0  0
  3 38  1  0  0  0  0
  4  5  1  0  0  0  0
  4 28  2  0  0  0  0
  5  6  1  0  0  0  0
  5  7  1  0  0  0  0
  5  8  1  0  0  0  0
  6 39  1  0  0  0  0
  6 40  1  0  0  0  0
  6 41  1  0  0  0  0
  7 42  1  0  0  0  0
  8  9  1  0  0  0  0
  8 43  1  0  0  0  0
  8 44  1  0  0  0  0
  9 10  1  0  0  0  0
  9 45  1  0  0  0  0
 10 15  1  0  0  0  0
 10 11  2  0  0  0  0
 11 12  1  0  0  0  0
 12 13  2  0  0  0  0
 12 46  1  0  0  0  0
 13 14  1  0  0  0  0
 14 18  1  0  0  0  0
 14 15  2  0  0  0  0
 15 16  1  0  0  0  0
 16 17  2  0  0  0  0
 17 18  1  0  0  0  0
 17 47  1  0  0  0  0
 18 19  1  0  0  0  0
 19 31  1  0  0  0  0
 19 26  1  0  0  0  0
 19 20  1  0  0  0  0
 20 21  1  0  0  0  0
 21 32  1  0  0  0  0
 21 22  1  0  0  0  0
 21 24  1  0  0  0  0
 22 23  1  0  0  0  0
 22 48  1  0  0  0  0
 22 49  1  0  0  0  0
 23 50  1  0  0  0  0
 24 33  1  0  0  0  0
 24 25  1  0  0  0  0
 24 26  1  0  0  0  0
 25 51  1  0  0  0  0
 26 34  1  0  0  0  0
 26 27  1  0  0  0  0
 27 52  1  0  0  0  0
 28 29  1  0  0  0  0
 28 30  1  0  0  0  0
 29 53  1  0  0  0  0
 29 54  1  0  0  0  0
 29 55  1  0  0  0  0
M  END
> <s_m_source_file>
AV-unprocessed.smi

> <i_m_source_file_index>
287

> <i_lp_mmshare_version>
43012

> <i_f3d_flags>
0

> <s_epik_input>
W0NIM11jMVtjSF1jKGMobzEpW0NIM10pW0NAQF0oW0NIM10pKFtPSF0pW0NIMl1bTkhdYyhuW2NIXW4yKWMoYzIzKW5bY0hdbjNbQ0BASF00T1tDQEhdKFtDSDJdW09IXSlbQ0BASF0oW09IXSlbQ0BIXTRbT0hd

> <s_epik_cmdline>
J2VwaWtfcHl0aG9uJywgJy1waCcsICc3LjAnLCAnLXRuJywgJzgnLCAnLW1hJywgJzIwMCcsICctbWV0YWxfYmluZGluZycsICctaW1hZScsICc8aW5maWxlLm1hZT4nLCAnLW9tYWUnLCAnPG91dGZpbGUubWFlPic=

> <r_lp_tautomer_probability>
1

> <r_epik_Ionization_Penalty>
0.000992612

> <r_epik_Ionization_Penalty_Charging>
0

> <r_epik_Ionization_Penalty_Neutral>
0.000992612

> <r_epik_State_Penalty>
-0

> <r_epik_Charging_Adjusted_Penalty>
0

> <i_epik_Tot_Q>
0

> <i_epik_Tot_abs_Q>
0

> <r_epik_Metal_State_Penalty>
-0

> <b_epik_Metal_Only>
0

> <s_epik_Chemistry_Notes>
This compound contains an acetal/aminal-like group ( X-CH(R)-Y where X, Y are N, S, or O) that may be acid/base labile, releasing an aldehyde.

> <s_lp_Force_Field>
OPLS_2005

> <r_lp_Energy>
48.118

> <b_lp_Chiralities_Consistent>
1

> <s_lp_Variant>
AV-unprocessed.smi:287-26

> <Gold.Version>
5.8.1

> <Gold.Id.Protein>
6NUR|6NUR_protein|mol2

> <Gold.PLP.Fitness>
48.8377

> <Gold.PLP.PLP>
-36.6227

> <Gold.PLP.part.hbond>
-5.7225

> <Gold.PLP.part.metal>
0.0000

> <Gold.PLP.part.buried>
-7.3609

> <Gold.PLP.part.nonpolar>
-24.1016

> <Gold.PLP.part.repulsive>
0.6166

> <Gold.PLP.ligand.clash>
0.0000

> <Gold.PLP.ligand.torsion>
0.9595

> <Gold.PLP.Chemscore.Hbond>
4.6800

> <Gold.PLP.Chemscore.CHOScore>
0.0000

> <Gold.PLP.Chemscore.Metal>
0.0000

> <Gold.Chemscore.Hbonds>
donor molecule, donor type, donor heavy atom, donor atom, acceptor molecule, acceptor atom, score
      L1  H     7    42       P1 10175  1.00
      L1  H     9    45       P1 10175  1.00
      L1  H    23    50       P1 10747  0.98
      L1  H    25    51       P1 10747  1.00
      L1  H    27    52       P1  7921  0.70

> <Gold.PLP.Chemscore.Internal.Correction>
0.0939

> <Gold.Rescore>
     Score         DG    S(hbond)    S(metal)    S(lipo)     H(rot)  DE(clash)    DE(int)     intcor
      9.97     -13.04       4.39        0.00      54.48       5.27       0.23       2.85       ----

> <Gold.Chemscore.Fitness>
9.9665

> <Gold.Chemscore.DG>
-13.0439

> <Gold.Chemscore.ZeroCoef>
-5.4800

> <Gold.Chemscore.Hbond>
4.3934

> <Gold.Chemscore.Metal>
0.0000

> <Gold.Chemscore.Lipo>
54.4761

> <Gold.Chemscore.Internal_Hbond>
0.0000

> <Gold.Chemscore.DEClash>
0.2294

> <Gold.Chemscore.DEInternal>
2.8480

> <Gold.Chemscore.Rot>
5.2672

> <Gold.Chemscore.Internal.Correction>
   9.000000E+99

> <Gold.Chemscore.Hbonds>
donor molecule, donor type, donor heavy atom, donor atom, acceptor molecule, acceptor atom, score
      L1  H     7    42       P1 10175  0.97
      L1  H     9    45       P1 10175  0.92
      L1  H    23    50       P1 10747  0.93
      L1  H    25    51       P1 10747  0.98
      L1  H    27    52       P1  7921  0.63

> <Gold.Chemscore.Hbond.Weighted>
-14.6741

> <Gold.Chemscore.Metal.Weighted>
-0.0000

> <Gold.Chemscore.Lipo.Weighted>
-6.3737

> <Gold.Chemscore.Internal_Hbond.Weighted>
0.0000

> <Gold.Chemscore.DEClash.Weighted>
0.2294

> <Gold.Chemscore.DEInternal.Weighted>
2.8480

> <Gold.Chemscore.Rot.Weighted>
13.4839

> <Gold.Chemscore.Internal.Correction.Weighted>
   9.000000E+99

> <Gold.Protein.RotatedTorsions>
[ 6907 6896 6895 6894 ] final -156.23 input  -60.11 | X-H torsion
[ 7974 7965 7964 7962 ] final    6.82 input  175.53 | X-H torsion
[ 8008 7997 7996 7995 ] final  -85.13 input   59.86 | X-H torsion
[ 10167 10162 10161 10158 ] final   48.37 input  -65.29 | X-H torsion
[ 10718 10713 10712 10709 ] final  -15.73 input   66.30 | X-H torsion
[ 10763 10752 10751 10750 ] final  -34.87 input  -60.55 | X-H torsion
[ 11005 11000 10999 10996 ] final  -96.76 input  -57.11 | X-H torsion

> <Gold.Protein.ActiveResidues>
 VAL166  LYS551  ARG553  GLY616  TRP617  ASP618  TYR619  PRO620  LYS621  CYS622 
 ASP623  PHE694  ASN695  SER759  ASP760  ASP761  ALA762  ILE779  LEU786  VAL792 
 PHE793  MET794  SER795  GLU796  ALA797  LYS798  CYS799  TRP800  GLU811  SER814 

> <Gold.Protein.RotatedAtoms>
  151.2844  133.4194  159.2628 H   0  0  0  0  0  0  0  0  0  0  0  0  # atno 6907 bound_to 6896
  151.0332  134.9554  159.8132 H   0  0  0  0  0  0  0  0  0  0  0  0  # atno 6908 bound_to 6896
  152.5350  134.2805  159.9058 H   0  0  0  0  0  0  0  0  0  0  0  0  # atno 6909 bound_to 6896
  146.2432  140.0176  142.8401 H   0  0  0  0  0  0  0  0  0  0  0  0  # atno 7974 bound_to 7965
  154.6373  140.0595  156.9804 H   0  0  0  0  0  0  0  0  0  0  0  0  # atno 8008 bound_to 7997
  155.1571  140.3279  155.4400 H   0  0  0  0  0  0  0  0  0  0  0  0  # atno 8009 bound_to 7997
  156.2513  140.1937  156.6680 H   0  0  0  0  0  0  0  0  0  0  0  0  # atno 8010 bound_to 7997
  140.2940  144.3012  150.6234 H   0  0  0  0  0  0  0  0  0  0  0  0  # atno 10167 bound_to 10162
  156.5976  130.4815  149.6253 H   0  0  0  0  0  0  0  0  0  0  0  0  # atno 10718 bound_to 10713
  153.8539  135.6846  153.4789 H   0  0  0  0  0  0  0  0  0  0  0  0  # atno 10763 bound_to 10752
  153.1381  135.4669  154.9451 H   0  0  0  0  0  0  0  0  0  0  0  0  # atno 10764 bound_to 10752
  154.7790  135.3262  154.7980 H   0  0  0  0  0  0  0  0  0  0  0  0  # atno 10765 bound_to 10752
  141.1401  133.8121  157.0615 H   0  0  0  0  0  0  0  0  0  0  0  0  # atno 11005 bound_to 11000
  145.1270  140.9496  143.4567 LP  0  0  0  0  0  0  0  0  0  0  0  0  # atno 17320 bound_to 7965
  145.0425  139.3248  143.5969 LP  0  0  0  0  0  0  0  0  0  0  0  0  # atno 17321 bound_to 7965
  140.5708  143.2181  151.7602 LP  0  0  0  0  0  0  0  0  0  0  0  0  # atno 17342 bound_to 10162
  139.4931  144.4219  151.9968 LP  0  0  0  0  0  0  0  0  0  0  0  0  # atno 17343 bound_to 10162
  156.2497  130.6899  151.1633 LP  0  0  0  0  0  0  0  0  0  0  0  0  # atno 17370 bound_to 10713
  157.7288  131.0629  150.5804 LP  0  0  0  0  0  0  0  0  0  0  0  0  # atno 17371 bound_to 10713
  140.0568  134.9776  157.1235 LP  0  0  0  0  0  0  0  0  0  0  0  0  # atno 17394 bound_to 11000
  140.3907  134.2188  155.7166 LP  0  0  0  0  0  0  0  0  0  0  0  0  # atno 17395 bound_to 11000

$$$$
