AV-unprocessed.smi:2025|AV-procd|sdf|8199|dock4
  -GOLD-   2272010453D 1   1.00000     0.00000
 Structure written by MMmdl.
 39 40  0  0  0  0  0  0  0  0  1 V2000
  146.0739  143.0473  154.9940 C   0  0  0  0  0  0  0  0  0  0  0  0
  146.7619  141.8026  155.5731 C   0  0  2  0  0  0  0  0  0  0  0  0
  148.2036  142.0398  155.6116 N   0  0  0  0  0  0  0  0  0  0  0  0
  149.1160  141.2534  156.2032 C   0  0  0  0  0  0  0  0  0  0  0  0
  148.8302  140.2295  156.8247 O   0  0  0  0  0  0  0  0  0  0  0  0
  150.5768  141.7041  156.0796 C   0  0  0  0  0  0  0  0  0  0  0  0
  151.1398  142.1385  157.3642 N   0  0  0  0  0  0  0  0  0  0  0  0
  150.7567  143.3522  157.9055 C   0  0  0  0  0  0  0  0  0  0  0  0
  151.2114  143.8159  159.0899 C   0  0  0  0  0  0  0  0  0  0  0  0
  152.1602  143.0421  159.8807 C   0  0  0  0  0  0  0  0  0  0  0  0
  152.5900  143.4130  160.9738 O   0  0  0  0  0  0  0  0  0  0  0  0
  152.5474  141.8129  159.2986 N   0  0  0  0  0  0  0  0  0  0  0  0
  153.4790  140.9953  160.0477 C   0  0  0  0  0  0  0  0  0  0  0  0
  152.0533  141.3228  158.0676 C   0  0  0  0  0  0  0  0  0  0  0  0
  152.3886  140.2265  157.6122 O   0  0  0  0  0  0  0  0  0  0  0  0
  146.4430  140.5361  154.7497 C   0  0  1  0  0  0  0  0  0  0  0  0
  147.0900  140.4770  153.3650 C   0  0  0  0  0  0  0  0  0  0  0  0
  147.0420  138.9954  153.0697 C   0  0  0  0  0  0  0  0  0  0  0  0
  147.2990  138.3801  154.4441 C   0  0  0  0  0  0  0  0  0  0  0  0
  146.9438  139.3740  155.4034 O   0  0  0  0  0  0  0  0  0  0  0  0
  144.9902  142.9284  154.9807 H   0  0  0  0  0  0  0  0  0  0  0  0
  146.3990  143.2426  153.9715 H   0  0  0  0  0  0  0  0  0  0  0  0
  146.2973  143.9327  155.5901 H   0  0  0  0  0  0  0  0  0  0  0  0
  146.3849  141.6615  156.5876 H   0  0  0  0  0  0  0  0  0  0  0  0
  148.5370  142.8621  155.1299 H   0  0  0  0  0  0  0  0  0  0  0  0
  151.1855  140.9021  155.6570 H   0  0  0  0  0  0  0  0  0  0  0  0
  150.6207  142.5192  155.3563 H   0  0  0  0  0  0  0  0  0  0  0  0
  150.0514  143.9607  157.3584 H   0  0  0  0  0  0  0  0  0  0  0  0
  150.8663  144.7706  159.4589 H   0  0  0  0  0  0  0  0  0  0  0  0
  153.9619  140.2676  159.3954 H   0  0  0  0  0  0  0  0  0  0  0  0
  152.9058  140.5012  160.8334 H   0  0  0  0  0  0  0  0  0  0  0  0
  154.2515  141.6441  160.4639 H   0  0  0  0  0  0  0  0  0  0  0  0
  145.3628  140.4208  154.6417 H   0  0  0  0  0  0  0  0  0  0  0  0
  146.5650  141.0763  152.6204 H   0  0  0  0  0  0  0  0  0  0  0  0
  148.1264  140.8149  153.4100 H   0  0  0  0  0  0  0  0  0  0  0  0
  146.0476  138.7201  152.7161 H   0  0  0  0  0  0  0  0  0  0  0  0
  147.7692  138.6835  152.3195 H   0  0  0  0  0  0  0  0  0  0  0  0
  146.7231  137.4664  154.5934 H   0  0  0  0  0  0  0  0  0  0  0  0
  148.3549  138.1385  154.5702 H   0  0  0  0  0  0  0  0  0  0  0  0
  1  2  1  0  0  0  0
  1 21  1  0  0  0  0
  1 22  1  0  0  0  0
  1 23  1  0  0  0  0
  2  3  1  0  0  0  0
  2 16  1  0  0  0  0
  2 24  1  0  0  0  0
  3  4  1  0  0  0  0
  3 25  1  0  0  0  0
  4  5  2  0  0  0  0
  4  6  1  0  0  0  0
  6  7  1  0  0  0  0
  6 26  1  0  0  0  0
  6 27  1  0  0  0  0
  7 14  1  0  0  0  0
  7  8  1  0  0  0  0
  8  9  2  0  0  0  0
  8 28  1  0  0  0  0
  9 10  1  0  0  0  0
  9 29  1  0  0  0  0
 10 11  2  0  0  0  0
 10 12  1  0  0  0  0
 12 13  1  0  0  0  0
 12 14  1  0  0  0  0
 13 30  1  0  0  0  0
 13 31  1  0  0  0  0
 13 32  1  0  0  0  0
 14 15  2  0  0  0  0
 16 20  1  0  0  0  0
 16 17  1  0  0  0  0
 16 33  1  0  0  0  0
 17 18  1  0  0  0  0
 17 34  1  0  0  0  0
 17 35  1  0  0  0  0
 18 19  1  0  0  0  0
 18 36  1  0  0  0  0
 18 37  1  0  0  0  0
 19 20  1  0  0  0  0
 19 38  1  0  0  0  0
 19 39  1  0  0  0  0
M  END
> <s_m_source_file>
AV-unprocessed.smi

> <i_m_source_file_index>
2025

> <i_lp_mmshare_version>
43012

> <i_f3d_flags>
0

> <s_epik_input>
TzFbQ0gyXVtDSDJdW0NIMl1bQ0BIXTFbQ0BIXShbQ0gzXSlbTkhdQyg9TylbQ0gyXW4yW2NIXVtjSF1jKD1PKW4oW0NIM10pYzI9Tw==

> <s_epik_cmdline>
J2VwaWtfcHl0aG9uJywgJy1waCcsICc3LjAnLCAnLXRuJywgJzgnLCAnLW1hJywgJzIwMCcsICctbWV0YWxfYmluZGluZycsICctaW1hZScsICc8aW5maWxlLm1hZT4nLCAnLW9tYWUnLCAnPG91dGZpbGUubWFlPic=

> <r_lp_tautomer_probability>
1

> <r_epik_Ionization_Penalty>
3.54787e-08

> <r_epik_Ionization_Penalty_Charging>
1.24654e-08

> <r_epik_Ionization_Penalty_Neutral>
2.30132e-08

> <r_epik_State_Penalty>
-0

> <r_epik_Charging_Adjusted_Penalty>
1.24654e-08

> <i_epik_Tot_Q>
0

> <i_epik_Tot_abs_Q>
0

> <r_epik_Metal_State_Penalty>
-0

> <b_epik_Metal_Only>
0

> <s_lp_Force_Field>
OPLS_2005

> <r_lp_Energy>
25.1152

> <b_lp_Chiralities_Consistent>
1

> <s_lp_Variant>
AV-unprocessed.smi:2025-3

> <Gold.Version>
5.8.1

> <Gold.Id.Protein>
6NUR|6NUR_protein|mol2

> <Gold.PLP.Fitness>
42.3084

> <Gold.PLP.PLP>
-34.4323

> <Gold.PLP.part.hbond>
-2.0000

> <Gold.PLP.part.metal>
0.0000

> <Gold.PLP.part.buried>
-5.0919

> <Gold.PLP.part.nonpolar>
-28.0557

> <Gold.PLP.part.repulsive>
0.1826

> <Gold.PLP.ligand.clash>
0.0000

> <Gold.PLP.ligand.torsion>
0.3636

> <Gold.PLP.Chemscore.Hbond>
1.8640

> <Gold.PLP.Chemscore.CHOScore>
1.0000

> <Gold.PLP.Chemscore.Metal>
0.0000

> <Gold.Chemscore.Hbonds>
donor molecule, donor type, donor heavy atom, donor atom, acceptor molecule, acceptor atom, score
      L1  H     3    25       P1  8028  0.70
      P1  H  7997  8009       L1    15  0.57
      L1  C     8    28       P1  8028  1.00

> <Gold.PLP.Chemscore.Internal.Correction>
0.0114

> <Gold.Rescore>
     Score         DG    S(hbond)    S(metal)    S(lipo)     H(rot)  DE(clash)    DE(int)     intcor
     12.55     -14.90       1.86        0.00      67.46       1.82       0.20       2.15       ----

> <Gold.Chemscore.Fitness>
12.5540

> <Gold.Chemscore.DG>
-14.9027

> <Gold.Chemscore.ZeroCoef>
-5.4800

> <Gold.Chemscore.Hbond>
1.8553

> <Gold.Chemscore.Metal>
0.0000

> <Gold.Chemscore.Lipo>
67.4577

> <Gold.Chemscore.Internal_Hbond>
0.0000

> <Gold.Chemscore.DEClash>
0.2036

> <Gold.Chemscore.DEInternal>
2.1452

> <Gold.Chemscore.Rot>
1.8228

> <Gold.Chemscore.Internal.Correction>
   9.000000E+99

> <Gold.Chemscore.Hbonds>
donor molecule, donor type, donor heavy atom, donor atom, acceptor molecule, acceptor atom, score
      L1  H     3    25       P1  8028  0.69
      P1  H  7997  8009       L1    15  0.50

> <Gold.Chemscore.Hbond.Weighted>
-6.1966

> <Gold.Chemscore.Metal.Weighted>
-0.0000

> <Gold.Chemscore.Lipo.Weighted>
-7.8926

> <Gold.Chemscore.Internal_Hbond.Weighted>
0.0000

> <Gold.Chemscore.DEClash.Weighted>
0.2036

> <Gold.Chemscore.DEInternal.Weighted>
2.1452

> <Gold.Chemscore.Rot.Weighted>
4.6665

> <Gold.Chemscore.Internal.Correction.Weighted>
   9.000000E+99

> <Gold.Protein.RotatedTorsions>
[ 6907 6896 6895 6894 ] final   15.63 input  -60.11 | X-H torsion
[ 7974 7965 7964 7962 ] final   18.58 input  175.53 | X-H torsion
[ 8008 7997 7996 7995 ] final  178.90 input   59.86 | X-H torsion
[ 10167 10162 10161 10158 ] final   -8.33 input  -65.29 | X-H torsion
[ 10718 10713 10712 10709 ] final  -69.82 input   66.30 | X-H torsion
[ 10763 10752 10751 10750 ] final  -11.23 input  -60.55 | X-H torsion
[ 11005 11000 10999 10996 ] final -172.05 input  -57.11 | X-H torsion

> <Gold.Protein.ActiveResidues>
 VAL166  LYS551  ARG553  GLY616  TRP617  ASP618  TYR619  PRO620  LYS621  CYS622 
 ASP623  PHE694  ASN695  SER759  ASP760  ASP761  ALA762  ILE779  LEU786  VAL792 
 PHE793  MET794  SER795  GLU796  ALA797  LYS798  CYS799  TRP800  GLU811  SER814 

> <Gold.Protein.RotatedAtoms>
  151.8212  135.0651  160.0424 H   0  0  0  0  0  0  0  0  0  0  0  0  # atno 6907 bound_to 6896
  152.2949  133.5593  159.5590 H   0  0  0  0  0  0  0  0  0  0  0  0  # atno 6908 bound_to 6896
  150.7247  134.0291  159.3769 H   0  0  0  0  0  0  0  0  0  0  0  0  # atno 6909 bound_to 6896
  146.2180  139.8437  142.8636 H   0  0  0  0  0  0  0  0  0  0  0  0  # atno 7974 bound_to 7965
  156.0494  140.1322  157.0067 H   0  0  0  0  0  0  0  0  0  0  0  0  # atno 8008 bound_to 7997
  154.4428  140.1014  156.6425 H   0  0  0  0  0  0  0  0  0  0  0  0  # atno 8009 bound_to 7997
  155.5546  140.3463  155.4479 H   0  0  0  0  0  0  0  0  0  0  0  0  # atno 8010 bound_to 7997
  140.7056  143.5981  150.8825 H   0  0  0  0  0  0  0  0  0  0  0  0  # atno 10167 bound_to 10162
  156.0437  130.4319  150.2204 H   0  0  0  0  0  0  0  0  0  0  0  0  # atno 10718 bound_to 10713
  153.4807  135.7017  153.5940 H   0  0  0  0  0  0  0  0  0  0  0  0  # atno 10763 bound_to 10752
  153.4154  135.3838  155.2077 H   0  0  0  0  0  0  0  0  0  0  0  0  # atno 10764 bound_to 10752
  154.8721  135.3915  154.4256 H   0  0  0  0  0  0  0  0  0  0  0  0  # atno 10765 bound_to 10752
  140.5013  134.5891  157.4988 H   0  0  0  0  0  0  0  0  0  0  0  0  # atno 11005 bound_to 11000
  145.2873  141.0156  143.3683 LP  0  0  0  0  0  0  0  0  0  0  0  0  # atno 17320 bound_to 7965
  144.9104  139.4535  143.6589 LP  0  0  0  0  0  0  0  0  0  0  0  0  # atno 17321 bound_to 7965
  139.9706  143.6061  152.2975 LP  0  0  0  0  0  0  0  0  0  0  0  0  # atno 17342 bound_to 10162
  139.6646  144.7662  151.1897 LP  0  0  0  0  0  0  0  0  0  0  0  0  # atno 17343 bound_to 10162
  157.0296  131.0003  151.3316 LP  0  0  0  0  0  0  0  0  0  0  0  0  # atno 17370 bound_to 10713
  157.5287  130.8044  149.7891 LP  0  0  0  0  0  0  0  0  0  0  0  0  # atno 17371 bound_to 10713
  139.9712  134.7290  156.0039 LP  0  0  0  0  0  0  0  0  0  0  0  0  # atno 17394 bound_to 11000
  141.1434  133.6560  156.3796 LP  0  0  0  0  0  0  0  0  0  0  0  0  # atno 17395 bound_to 11000

$$$$
