AV-unprocessed.smi:1224|AV-procd|sdf|5130|dock8
  -GOLD-   22720 4193D 1   1.00000     0.00000
 Structure written by MMmdl.
 45 47  0  0  0  0  0  0  0  0  3 V2000
  152.8242  142.6033  160.9465 C   0  0  0  0  0  0  0  0  0  0  0  0
  152.3898  142.0105  159.6167 C   0  0  0  0  0  0  0  0  0  0  0  0
  151.4857  142.7438  158.8154 C   0  0  0  0  0  0  0  0  0  0  0  0
  151.1065  142.1759  157.6051 C   0  0  0  0  0  0  0  0  0  0  0  0
  150.2436  142.6364  156.6083 N   0  3  0  0  0  0  0  0  0  0  0  0
  150.1857  141.7235  155.5995 C   0  0  0  0  0  0  0  0  0  0  0  0
  151.0043  140.6891  155.9354 N   0  0  0  0  0  0  0  0  0  0  0  0
  151.3055  139.4492  155.2068 C   0  0  0  0  0  0  0  0  0  0  0  0
  150.0436  138.7227  154.6988 C   0  0  2  0  0  0  0  0  0  0  0  0
  150.4246  137.5254  154.0485 O   0  0  0  0  0  0  0  0  0  0  0  0
  149.2486  139.5888  153.7080 C   0  0  0  0  0  0  0  0  0  0  0  0
  148.3042  138.7726  152.9148 N   0  3  0  0  0  0  0  0  0  0  0  0
  146.9284  138.7137  153.4505 C   0  0  0  0  0  0  0  0  0  0  0  0
  146.0846  137.7004  152.7470 C   0  0  0  0  0  0  0  0  0  0  0  0
  146.3792  137.0142  151.5957 C   0  0  0  0  0  0  0  0  0  0  0  0
  145.3509  136.1071  151.2048 C   0  0  0  0  0  0  0  0  0  0  0  0
  144.2838  136.1132  152.0630 C   0  0  0  0  0  0  0  0  0  0  0  0
  144.5217  137.2375  153.3726 S   0  0  0  0  0  0  0  0  0  0  0  0
  151.5953  140.9249  157.1812 C   0  0  0  0  0  0  0  0  0  0  0  0
  152.4855  140.1882  157.9585 C   0  0  0  0  0  0  0  0  0  0  0  0
  152.8821  140.7483  159.1942 C   0  0  0  0  0  0  0  0  0  0  0  0
  153.8506  139.9674  160.0663 C   0  0  0  0  0  0  0  0  0  0  0  0
  152.3880  143.5901  161.1049 H   0  0  0  0  0  0  0  0  0  0  0  0
  153.9084  142.7099  160.9837 H   0  0  0  0  0  0  0  0  0  0  0  0
  152.5100  141.9634  161.7712 H   0  0  0  0  0  0  0  0  0  0  0  0
  151.1050  143.7043  159.1317 H   0  0  0  0  0  0  0  0  0  0  0  0
  149.5983  141.8066  154.6961 H   0  0  0  0  0  0  0  0  0  0  0  0
  151.9790  139.6876  154.3826 H   0  0  0  0  0  0  0  0  0  0  0  0
  151.8650  138.8036  155.8857 H   0  0  0  0  0  0  0  0  0  0  0  0
  149.4100  138.4633  155.5479 H   0  0  0  0  0  0  0  0  0  0  0  0
  149.7276  137.2654  153.4651 H   0  0  0  0  0  0  0  0  0  0  0  0
  148.6781  140.3428  154.2521 H   0  0  0  0  0  0  0  0  0  0  0  0
  149.9339  140.1229  153.0485 H   0  0  0  0  0  0  0  0  0  0  0  0
  148.2664  139.1488  151.9778 H   0  0  0  0  0  0  0  0  0  0  0  0
  146.9868  138.4637  154.5101 H   0  0  0  0  0  0  0  0  0  0  0  0
  146.4700  139.7015  153.3906 H   0  0  0  0  0  0  0  0  0  0  0  0
  147.2900  137.1279  151.0263 H   0  0  0  0  0  0  0  0  0  0  0  0
  145.4288  135.4909  150.3211 H   0  0  0  0  0  0  0  0  0  0  0  0
  143.3768  135.5292  152.0059 H   0  0  0  0  0  0  0  0  0  0  0  0
  152.8591  139.2272  157.6375 H   0  0  0  0  0  0  0  0  0  0  0  0
  154.1128  139.0103  159.6144 H   0  0  0  0  0  0  0  0  0  0  0  0
  153.4092  139.7643  161.0423 H   0  0  0  0  0  0  0  0  0  0  0  0
  154.7727  140.5303  160.2130 H   0  0  0  0  0  0  0  0  0  0  0  0
  148.6655  137.8308  152.8677 H   0  0  0  0  0  0  0  0  0  0  0  0
  149.7280  143.5076  156.6151 H   0  0  0  0  0  0  0  0  0  0  0  0
  1  2  1  0  0  0  0
  1 23  1  0  0  0  0
  1 24  1  0  0  0  0
  1 25  1  0  0  0  0
  2 21  1  0  0  0  0
  2  3  2  0  0  0  0
  3  4  1  0  0  0  0
  3 26  1  0  0  0  0
  4 19  2  0  0  0  0
  4  5  1  0  0  0  0
  5  6  2  0  0  0  0
  5 45  1  0  0  0  0
  6  7  1  0  0  0  0
  6 27  1  0  0  0  0
  7  8  1  0  0  0  0
  7 19  1  0  0  0  0
  8  9  1  0  0  0  0
  8 28  1  0  0  0  0
  8 29  1  0  0  0  0
  9 10  1  0  0  0  0
  9 11  1  0  0  0  0
  9 30  1  0  0  0  0
 10 31  1  0  0  0  0
 11 12  1  0  0  0  0
 11 32  1  0  0  0  0
 11 33  1  0  0  0  0
 12 13  1  0  0  0  0
 12 34  1  0  0  0  0
 12 44  1  0  0  0  0
 13 14  1  0  0  0  0
 13 35  1  0  0  0  0
 13 36  1  0  0  0  0
 14 18  1  0  0  0  0
 14 15  2  0  0  0  0
 15 16  1  0  0  0  0
 15 37  1  0  0  0  0
 16 17  2  0  0  0  0
 16 38  1  0  0  0  0
 17 18  1  0  0  0  0
 17 39  1  0  0  0  0
 19 20  1  0  0  0  0
 20 21  2  0  0  0  0
 20 40  1  0  0  0  0
 21 22  1  0  0  0  0
 22 41  1  0  0  0  0
 22 42  1  0  0  0  0
 22 43  1  0  0  0  0
M  CHG  1   5   1
M  CHG  1  12   1
M  END
> <s_m_source_file>
AV-unprocessed.smi

> <i_m_source_file_index>
1224

> <i_lp_mmshare_version>
43012

> <i_f3d_flags>
0

> <s_epik_input>
W0NIM11jKFtjSF0xKWMoW0NIM10pW2NIXWMoYzEyKW4oW2NIXW4yKVtDSDJdW0NASF0oW09IXSlbQ0gyXVtOSF1bQ0gyXWMzW2NIXVtjSF1bY0hdczM=

> <s_epik_cmdline>
J2VwaWtfcHl0aG9uJywgJy1waCcsICc3LjAnLCAnLXRuJywgJzgnLCAnLW1hJywgJzIwMCcsICctbWV0YWxfYmluZGluZycsICctaW1hZScsICc8aW5maWxlLm1hZT4nLCAnLW9tYWUnLCAnPG91dGZpbGUubWFlPic=

> <r_epik_Ionization_Penalty>
1.2222

> <r_epik_Ionization_Penalty_Charging>
1.2222

> <r_epik_Ionization_Penalty_Neutral>
3.40394e-06

> <r_epik_State_Penalty>
1.23781

> <r_epik_Charging_Adjusted_Penalty>
2.46001

> <i_epik_Tot_Q>
2

> <i_epik_Tot_abs_Q>
2

> <r_epik_Metal_State_Penalty>
5.24642

> <b_epik_Metal_Only>
0

> <s_lp_Force_Field>
OPLS_2005

> <r_lp_Energy>
16.8702

> <b_lp_Chiralities_Consistent>
1

> <s_lp_Variant>
AV-unprocessed.smi:1224-3

> <Gold.Version>
5.8.1

> <Gold.Id.Protein>
6NUR|6NUR_protein|mol2

> <Gold.PLP.Fitness>
59.0832

> <Gold.PLP.PLP>
-43.9134

> <Gold.PLP.part.hbond>
-4.6976

> <Gold.PLP.part.metal>
0.0000

> <Gold.PLP.part.buried>
2.4758

> <Gold.PLP.part.nonpolar>
-41.7131

> <Gold.PLP.part.repulsive>
0.1318

> <Gold.PLP.ligand.clash>
0.0000

> <Gold.PLP.ligand.torsion>
0.6382

> <Gold.PLP.Chemscore.Hbond>
5.4480

> <Gold.PLP.Chemscore.CHOScore>
0.0000

> <Gold.PLP.Chemscore.Metal>
0.0000

> <Gold.Chemscore.Hbonds>
donor molecule, donor type, donor heavy atom, donor atom, acceptor molecule, acceptor atom, score
      L1  H     5    45       P1  8028  1.89
      L1  H    10    31       P1  7948  1.00
      L1  H    12    34       P1  7957  0.53
      L1  H    12    44       P1  7948  1.95

> <Gold.PLP.Chemscore.Internal.Correction>
0.1022

> <Gold.Rescore>
     Score         DG    S(hbond)    S(metal)    S(lipo)     H(rot)  DE(clash)    DE(int)     intcor
     19.49     -23.34       2.94        0.00     123.57       2.50       3.19       0.66       ----

> <Gold.Chemscore.Fitness>
19.4930

> <Gold.Chemscore.DG>
-23.3357

> <Gold.Chemscore.ZeroCoef>
-5.4800

> <Gold.Chemscore.Hbond>
2.9368

> <Gold.Chemscore.Metal>
0.0000

> <Gold.Chemscore.Lipo>
123.5699

> <Gold.Chemscore.Internal_Hbond>
0.0000

> <Gold.Chemscore.DEClash>
3.1856

> <Gold.Chemscore.DEInternal>
0.6571

> <Gold.Chemscore.Rot>
2.5042

> <Gold.Chemscore.Internal.Correction>
   9.000000E+99

> <Gold.Chemscore.Hbonds>
donor molecule, donor type, donor heavy atom, donor atom, acceptor molecule, acceptor atom, score
      L1  H     5    45       P1  8028  0.91
      L1  H    10    31       P1  7948  0.63
      L1  H    12    34       P1  7957  0.54
      L1  H    12    44       P1  7948  0.93

> <Gold.Chemscore.Hbond.Weighted>
-9.8089

> <Gold.Chemscore.Metal.Weighted>
-0.0000

> <Gold.Chemscore.Lipo.Weighted>
-14.4577

> <Gold.Chemscore.Internal_Hbond.Weighted>
0.0000

> <Gold.Chemscore.DEClash.Weighted>
3.1856

> <Gold.Chemscore.DEInternal.Weighted>
0.6571

> <Gold.Chemscore.Rot.Weighted>
6.4108

> <Gold.Chemscore.Internal.Correction.Weighted>
   9.000000E+99

> <Gold.Protein.RotatedTorsions>
[ 6907 6896 6895 6894 ] final  164.16 input  -60.11 | X-H torsion
[ 7974 7965 7964 7962 ] final  -64.15 input  175.53 | X-H torsion
[ 8008 7997 7996 7995 ] final  136.34 input   59.86 | X-H torsion
[ 10167 10162 10161 10158 ] final   87.35 input  -65.29 | X-H torsion
[ 10718 10713 10712 10709 ] final  177.03 input   66.30 | X-H torsion
[ 10763 10752 10751 10750 ] final  -68.96 input  -60.55 | X-H torsion
[ 11005 11000 10999 10996 ] final   39.39 input  -57.11 | X-H torsion

> <Gold.Protein.ActiveResidues>
 VAL166  LYS551  ARG553  GLY616  TRP617  ASP618  TYR619  PRO620  LYS621  CYS622 
 ASP623  PHE694  ASN695  SER759  ASP760  ASP761  ALA762  ILE779  LEU786  VAL792 
 PHE793  MET794  SER795  GLU796  ALA797  LYS798  CYS799  TRP800  GLU811  SER814 

> <Gold.Protein.RotatedAtoms>
  151.9142  133.3569  159.3873 H   0  0  0  0  0  0  0  0  0  0  0  0  # atno 6907 bound_to 6896
  150.7051  134.4701  159.5430 H   0  0  0  0  0  0  0  0  0  0  0  0  # atno 6908 bound_to 6896
  152.2313  134.8319  160.0524 H   0  0  0  0  0  0  0  0  0  0  0  0  # atno 6909 bound_to 6896
  145.7702  140.8816  143.0384 H   0  0  0  0  0  0  0  0  0  0  0  0  # atno 7974 bound_to 7965
  156.3004  140.2447  156.3729 H   0  0  0  0  0  0  0  0  0  0  0  0  # atno 8008 bound_to 7997
  154.8772  140.0414  157.1780 H   0  0  0  0  0  0  0  0  0  0  0  0  # atno 8009 bound_to 7997
  154.8733  140.2938  155.5472 H   0  0  0  0  0  0  0  0  0  0  0  0  # atno 8010 bound_to 7997
  139.8783  144.6454  150.8872 H   0  0  0  0  0  0  0  0  0  0  0  0  # atno 10167 bound_to 10162
  156.9114  130.9911  151.3020 H   0  0  0  0  0  0  0  0  0  0  0  0  # atno 10718 bound_to 10713
  154.3965  135.6040  153.5873 H   0  0  0  0  0  0  0  0  0  0  0  0  # atno 10763 bound_to 10752
  152.9788  135.5896  154.4235 H   0  0  0  0  0  0  0  0  0  0  0  0  # atno 10764 bound_to 10752
  154.4027  135.2843  155.2065 H   0  0  0  0  0  0  0  0  0  0  0  0  # atno 10765 bound_to 10752
  140.2033  134.3844  155.8085 H   0  0  0  0  0  0  0  0  0  0  0  0  # atno 11005 bound_to 11000
  144.6814  139.9845  143.7484 LP  0  0  0  0  0  0  0  0  0  0  0  0  # atno 17320 bound_to 7965
  146.0177  139.3224  143.0832 LP  0  0  0  0  0  0  0  0  0  0  0  0  # atno 17321 bound_to 7965
  140.7749  143.3607  151.1834 LP  0  0  0  0  0  0  0  0  0  0  0  0  # atno 17342 bound_to 10162
  139.7220  143.9208  152.2989 LP  0  0  0  0  0  0  0  0  0  0  0  0  # atno 17343 bound_to 10162
  157.5965  130.8481  149.8736 LP  0  0  0  0  0  0  0  0  0  0  0  0  # atno 17370 bound_to 10713
  156.0534  130.3713  150.1148 LP  0  0  0  0  0  0  0  0  0  0  0  0  # atno 17371 bound_to 10713
  141.2227  133.7105  156.8294 LP  0  0  0  0  0  0  0  0  0  0  0  0  # atno 17394 bound_to 11000
  140.2030  134.8883  157.3190 LP  0  0  0  0  0  0  0  0  0  0  0  0  # atno 17395 bound_to 11000

$$$$
