AV-unprocessed.smi:2870|AV-procd|sdf|11029|dock3
  -GOLD-   2272015493D 1   1.00000     0.00000
 Structure written by MMmdl.
 40 42  0  0  0  0  0  0  0  0  1 V2000
  155.1117  141.2587  162.3985 N   0  0  0  0  0  0  0  0  0  0  0  0
  154.3485  141.4198  161.5434 C   0  0  0  0  0  0  0  0  0  0  0  0
  153.4035  141.5872  160.4893 C   0  0  0  0  0  0  0  0  0  0  0  0
  152.9845  142.8081  160.0979 C   0  0  0  0  0  0  0  0  0  0  0  0
  152.0828  142.9885  159.0720 N   0  0  0  0  0  0  0  0  0  0  0  0
  151.5470  144.2853  158.7669 C   0  0  0  0  0  0  0  0  0  0  0  0
  152.1114  145.5269  159.4302 C   0  0  0  0  0  0  0  0  0  0  0  0
  150.7481  145.0144  159.8251 C   0  0  0  0  0  0  0  0  0  0  0  0
  151.4930  141.8717  158.4406 C   0  0  0  0  0  0  0  0  0  0  0  0
  150.6237  142.0120  157.5766 O   0  0  0  0  0  0  0  0  0  0  0  0
  151.9287  140.5823  158.8320 N   0  0  0  0  0  0  0  0  0  0  0  0
  151.3669  139.4046  158.1344 C   0  0  0  0  0  0  0  0  0  0  0  0
  151.3578  139.5463  156.6044 C   0  0  0  0  0  0  0  0  0  0  0  0
  152.4007  139.7340  155.9759 O   0  0  0  0  0  0  0  0  0  0  0  0
  150.1582  139.4414  156.0164 N   0  0  0  0  0  0  0  0  0  0  0  0
  149.9306  139.5240  154.5805 C   0  0  0  0  0  0  0  0  0  0  0  0
  149.0370  140.7139  154.2519 C   0  0  0  0  0  0  0  0  0  0  0  0
  148.3650  141.5050  155.3849 C   0  0  0  0  0  0  0  0  0  0  0  0
  147.1564  141.7045  154.4667 C   0  0  0  0  0  0  0  0  0  0  0  0
  147.6285  140.4728  153.6889 C   0  0  0  0  0  0  0  0  0  0  0  0
  152.8990  140.3762  159.8461 C   0  0  0  0  0  0  0  0  0  0  0  0
  153.2742  139.2412  160.1451 O   0  0  0  0  0  0  0  0  0  0  0  0
  153.3763  143.6809  160.6004 H   0  0  0  0  0  0  0  0  0  0  0  0
  151.2017  144.4129  157.7424 H   0  0  0  0  0  0  0  0  0  0  0  0
  152.9147  145.4063  160.1544 H   0  0  0  0  0  0  0  0  0  0  0  0
  152.1547  146.4364  158.8348 H   0  0  0  0  0  0  0  0  0  0  0  0
  149.8819  145.5840  159.4952 H   0  0  0  0  0  0  0  0  0  0  0  0
  150.6559  144.5539  160.8069 H   0  0  0  0  0  0  0  0  0  0  0  0
  151.9147  138.4961  158.3886 H   0  0  0  0  0  0  0  0  0  0  0  0
  150.3501  139.2011  158.4745 H   0  0  0  0  0  0  0  0  0  0  0  0
  149.3501  139.2846  156.6012 H   0  0  0  0  0  0  0  0  0  0  0  0
  150.8852  139.6162  154.0600 H   0  0  0  0  0  0  0  0  0  0  0  0
  149.4729  138.5938  154.2407 H   0  0  0  0  0  0  0  0  0  0  0  0
  149.5561  141.4165  153.5962 H   0  0  0  0  0  0  0  0  0  0  0  0
  148.1356  140.8880  156.2555 H   0  0  0  0  0  0  0  0  0  0  0  0
  148.8819  142.4225  155.6677 H   0  0  0  0  0  0  0  0  0  0  0  0
  146.1877  141.5946  154.9551 H   0  0  0  0  0  0  0  0  0  0  0  0
  147.2158  142.6236  153.8816 H   0  0  0  0  0  0  0  0  0  0  0  0
  147.5499  140.5584  152.6047 H   0  0  0  0  0  0  0  0  0  0  0  0
  147.1776  139.5479  154.0531 H   0  0  0  0  0  0  0  0  0  0  0  0
  1  2  3  0  0  0  0
  2  3  1  0  0  0  0
  3 21  1  0  0  0  0
  3  4  2  0  0  0  0
  4  5  1  0  0  0  0
  4 23  1  0  0  0  0
  5  6  1  0  0  0  0
  5  9  1  0  0  0  0
  6  8  1  0  0  0  0
  6  7  1  0  0  0  0
  6 24  1  0  0  0  0
  7  8  1  0  0  0  0
  7 25  1  0  0  0  0
  7 26  1  0  0  0  0
  8 27  1  0  0  0  0
  8 28  1  0  0  0  0
  9 10  2  0  0  0  0
  9 11  1  0  0  0  0
 11 12  1  0  0  0  0
 11 21  1  0  0  0  0
 12 13  1  0  0  0  0
 12 29  1  0  0  0  0
 12 30  1  0  0  0  0
 13 14  2  0  0  0  0
 13 15  1  0  0  0  0
 15 16  1  0  0  0  0
 15 31  1  0  0  0  0
 16 17  1  0  0  0  0
 16 32  1  0  0  0  0
 16 33  1  0  0  0  0
 17 20  1  0  0  0  0
 17 18  1  0  0  0  0
 17 34  1  0  0  0  0
 18 19  1  0  0  0  0
 18 35  1  0  0  0  0
 18 36  1  0  0  0  0
 19 20  1  0  0  0  0
 19 37  1  0  0  0  0
 19 38  1  0  0  0  0
 20 39  1  0  0  0  0
 20 40  1  0  0  0  0
 21 22  2  0  0  0  0
M  END
> <s_m_source_file>
AV-unprocessed.smi

> <i_m_source_file_index>
2870

> <i_lp_mmshare_version>
43012

> <i_f3d_flags>
0

> <s_epik_input>
TiNDYzFbY0hdbihbQ0hdMltDSDJdW0NIMl0yKWMoPU8pbihjMT1PKVtDSDJdQyg9TylbTkhdW0NIMl1bQ0hdM1tDSDJdW0NIMl1bQ0gyXTM=

> <s_epik_cmdline>
J2VwaWtfcHl0aG9uJywgJy1waCcsICc3LjAnLCAnLXRuJywgJzgnLCAnLW1hJywgJzIwMCcsICctbWV0YWxfYmluZGluZycsICctaW1hZScsICc8aW5maWxlLm1hZT4nLCAnLW9tYWUnLCAnPG91dGZpbGUubWFlPic=

> <r_lp_tautomer_probability>
1

> <r_epik_Ionization_Penalty>
1.93838e-08

> <r_epik_Ionization_Penalty_Charging>
8.20545e-11

> <r_epik_Ionization_Penalty_Neutral>
1.93017e-08

> <r_epik_State_Penalty>
-0

> <r_epik_Charging_Adjusted_Penalty>
8.20545e-11

> <i_epik_Tot_Q>
0

> <i_epik_Tot_abs_Q>
0

> <r_epik_Metal_State_Penalty>
-0

> <b_epik_Metal_Only>
0

> <s_lp_Force_Field>
OPLS_2005

> <r_lp_Energy>
38.3845

> <b_lp_Chiralities_Consistent>
1

> <s_lp_Variant>
AV-unprocessed.smi:2870-1

> <Gold.Version>
5.8.1

> <Gold.Id.Protein>
6NUR|6NUR_protein|mol2

> <Gold.PLP.Fitness>
51.0312

> <Gold.PLP.PLP>
-49.6783

> <Gold.PLP.part.hbond>
-2.0000

> <Gold.PLP.part.metal>
0.0000

> <Gold.PLP.part.buried>
-0.8205

> <Gold.PLP.part.nonpolar>
-45.0827

> <Gold.PLP.part.repulsive>
0.1306

> <Gold.PLP.ligand.clash>
0.0000

> <Gold.PLP.ligand.torsion>
0.9658

> <Gold.PLP.Chemscore.Hbond>
1.0000

> <Gold.PLP.Chemscore.CHOScore>
0.0000

> <Gold.PLP.Chemscore.Metal>
0.0000

> <Gold.Chemscore.Hbonds>
donor molecule, donor type, donor heavy atom, donor atom, acceptor molecule, acceptor atom, score
      P1  H  7997  8009       L1    14  1.00

> <Gold.PLP.Chemscore.Internal.Correction>
0.2846

> <Gold.Rescore>
     Score         DG    S(hbond)    S(metal)    S(lipo)     H(rot)  DE(clash)    DE(int)     intcor
     11.25     -15.09       0.99        0.00      97.12       1.98       1.43       2.42       ----

> <Gold.Chemscore.Fitness>
11.2491

> <Gold.Chemscore.DG>
-15.0949

> <Gold.Chemscore.ZeroCoef>
-5.4800

> <Gold.Chemscore.Hbond>
0.9936

> <Gold.Chemscore.Metal>
0.0000

> <Gold.Chemscore.Lipo>
97.1179

> <Gold.Chemscore.Internal_Hbond>
0.0000

> <Gold.Chemscore.DEClash>
1.4278

> <Gold.Chemscore.DEInternal>
2.4180

> <Gold.Chemscore.Rot>
1.9791

> <Gold.Chemscore.Internal.Correction>
   9.000000E+99

> <Gold.Chemscore.Hbonds>
donor molecule, donor type, donor heavy atom, donor atom, acceptor molecule, acceptor atom, score
      P1  H  7997  8009       L1    14  0.97

> <Gold.Chemscore.Hbond.Weighted>
-3.3186

> <Gold.Chemscore.Metal.Weighted>
-0.0000

> <Gold.Chemscore.Lipo.Weighted>
-11.3628

> <Gold.Chemscore.Internal_Hbond.Weighted>
0.0000

> <Gold.Chemscore.DEClash.Weighted>
1.4278

> <Gold.Chemscore.DEInternal.Weighted>
2.4180

> <Gold.Chemscore.Rot.Weighted>
5.0665

> <Gold.Chemscore.Internal.Correction.Weighted>
   9.000000E+99

> <Gold.Protein.RotatedTorsions>
[ 6907 6896 6895 6894 ] final  -26.58 input  -60.11 | X-H torsion
[ 7974 7965 7964 7962 ] final -156.19 input  175.53 | X-H torsion
[ 8008 7997 7996 7995 ] final -158.59 input   59.86 | X-H torsion
[ 10167 10162 10161 10158 ] final   25.53 input  -65.29 | X-H torsion
[ 10718 10713 10712 10709 ] final  155.90 input   66.30 | X-H torsion
[ 10763 10752 10751 10750 ] final  153.14 input  -60.55 | X-H torsion
[ 11005 11000 10999 10996 ] final -136.67 input  -57.11 | X-H torsion

> <Gold.Protein.ActiveResidues>
 VAL166  LYS551  ARG553  GLY616  TRP617  ASP618  TYR619  PRO620  LYS621  CYS622 
 ASP623  PHE694  ASN695  SER759  ASP760  ASP761  ALA762  ILE779  LEU786  VAL792 
 PHE793  MET794  SER795  GLU796  ALA797  LYS798  CYS799  TRP800  GLU811  SER814 

> <Gold.Protein.RotatedAtoms>
  151.1590  135.0264  159.8701 H   0  0  0  0  0  0  0  0  0  0  0  0  # atno 6907 bound_to 6896
  152.5452  134.1301  159.8445 H   0  0  0  0  0  0  0  0  0  0  0  0  # atno 6908 bound_to 6896
  151.1394  133.4935  159.2630 H   0  0  0  0  0  0  0  0  0  0  0  0  # atno 6909 bound_to 6896
  144.7605  140.4145  143.5980 H   0  0  0  0  0  0  0  0  0  0  0  0  # atno 7974 bound_to 7965
  155.7498  140.0825  157.2206 H   0  0  0  0  0  0  0  0  0  0  0  0  # atno 8008 bound_to 7997
  154.4013  140.1562  156.2767 H   0  0  0  0  0  0  0  0  0  0  0  0  # atno 8009 bound_to 7997
  155.8941  140.3413  155.5980 H   0  0  0  0  0  0  0  0  0  0  0  0  # atno 8010 bound_to 7997
  140.5099  144.0178  150.6368 H   0  0  0  0  0  0  0  0  0  0  0  0  # atno 10167 bound_to 10162
  157.2122  131.0700  151.1962 H   0  0  0  0  0  0  0  0  0  0  0  0  # atno 10718 bound_to 10713
  154.1313  135.2826  155.3184 H   0  0  0  0  0  0  0  0  0  0  0  0  # atno 10763 bound_to 10752
  154.6353  135.5421  153.7730 H   0  0  0  0  0  0  0  0  0  0  0  0  # atno 10764 bound_to 10752
  153.0280  135.6473  154.1464 H   0  0  0  0  0  0  0  0  0  0  0  0  # atno 10765 bound_to 10752
  140.8784  134.1963  157.4607 H   0  0  0  0  0  0  0  0  0  0  0  0  # atno 11005 bound_to 11000
  145.6636  139.1586  143.2794 LP  0  0  0  0  0  0  0  0  0  0  0  0  # atno 17320 bound_to 7965
  146.1662  140.6714  142.9254 LP  0  0  0  0  0  0  0  0  0  0  0  0  # atno 17321 bound_to 7965
  140.3497  143.2970  152.0500 LP  0  0  0  0  0  0  0  0  0  0  0  0  # atno 17342 bound_to 10162
  139.4893  144.6382  151.6931 LP  0  0  0  0  0  0  0  0  0  0  0  0  # atno 17343 bound_to 10162
  157.3660  130.7156  149.6533 LP  0  0  0  0  0  0  0  0  0  0  0  0  # atno 17370 bound_to 10713
  155.9689  130.4212  150.4458 LP  0  0  0  0  0  0  0  0  0  0  0  0  # atno 17371 bound_to 10713
  139.8717  134.9806  156.5082 LP  0  0  0  0  0  0  0  0  0  0  0  0  # atno 17394 bound_to 11000
  140.8491  133.8146  155.9150 LP  0  0  0  0  0  0  0  0  0  0  0  0  # atno 17395 bound_to 11000

$$$$
