AV-unprocessed.smi:3199|AV-procd|sdf|12232|dock2
  -GOLD-   2272018 63D 1   1.00000     0.00000
 Structure written by MMmdl.
 35 36  0  0  0  0  0  0  0  0  1 V2000
  153.7114  142.9330  163.6868 C   0  0  0  0  0  0  0  0  0  0  0  0
  153.1820  142.8726  162.2692 C   0  0  0  0  0  0  0  0  0  0  0  0
  152.3647  143.9021  161.7566 C   0  0  0  0  0  0  0  0  0  0  0  0
  151.9029  143.7943  160.4308 C   0  0  0  0  0  0  0  0  0  0  0  0
  152.2739  142.6660  159.6713 C   0  0  0  0  0  0  0  0  0  0  0  0
  151.8105  142.5072  158.2368 C   0  0  0  0  0  0  0  0  0  0  0  0
  150.2896  142.3285  158.1389 C   0  0  0  0  0  0  0  0  0  0  0  0
  149.8661  142.2895  156.7466 N   0  0  0  0  0  0  0  0  0  0  0  0
  149.4611  141.1822  156.1080 C   0  0  0  0  0  0  0  0  0  0  0  0
  149.4003  140.0770  156.6485 O   0  0  0  0  0  0  0  0  0  0  0  0
  149.0504  141.3573  154.6414 C   0  0  1  0  0  0  0  0  0  0  0  0
  148.7741  140.0388  153.8922 C   0  0  0  0  0  0  0  0  0  0  0  0
  147.2936  140.1080  153.5660 C   0  0  0  0  0  0  0  0  0  0  0  0
  147.0436  141.6087  153.5239 C   0  0  0  0  0  0  0  0  0  0  0  0
  147.8254  142.0852  154.6064 O   0  0  0  0  0  0  0  0  0  0  0  0
  153.0952  141.6926  160.2784 C   0  0  0  0  0  0  0  0  0  0  0  0
  153.5425  141.7873  161.5492 N   0  0  0  0  0  0  0  0  0  0  0  0
  153.4033  143.8525  164.1855 H   0  0  0  0  0  0  0  0  0  0  0  0
  154.8012  142.8958  163.6865 H   0  0  0  0  0  0  0  0  0  0  0  0
  153.3378  142.0890  164.2671 H   0  0  0  0  0  0  0  0  0  0  0  0
  152.0972  144.7559  162.3618 H   0  0  0  0  0  0  0  0  0  0  0  0
  151.2777  144.5660  160.0062 H   0  0  0  0  0  0  0  0  0  0  0  0
  152.1232  143.3821  157.6647 H   0  0  0  0  0  0  0  0  0  0  0  0
  152.3186  141.6502  157.7924 H   0  0  0  0  0  0  0  0  0  0  0  0
  149.9870  141.4025  158.6305 H   0  0  0  0  0  0  0  0  0  0  0  0
  149.7840  143.1483  158.6523 H   0  0  0  0  0  0  0  0  0  0  0  0
  149.8794  143.1597  156.2345 H   0  0  0  0  0  0  0  0  0  0  0  0
  149.8111  141.9264  154.1042 H   0  0  0  0  0  0  0  0  0  0  0  0
  149.3585  140.0114  152.9717 H   0  0  0  0  0  0  0  0  0  0  0  0
  149.0214  139.1392  154.4576 H   0  0  0  0  0  0  0  0  0  0  0  0
  147.0365  139.6056  152.6331 H   0  0  0  0  0  0  0  0  0  0  0  0
  146.7118  139.6570  154.3710 H   0  0  0  0  0  0  0  0  0  0  0  0
  147.4053  142.0409  152.5894 H   0  0  0  0  0  0  0  0  0  0  0  0
  145.9910  141.8663  153.6428 H   0  0  0  0  0  0  0  0  0  0  0  0
  153.4051  140.8151  159.7298 H   0  0  0  0  0  0  0  0  0  0  0  0
  1  2  1  0  0  0  0
  1 18  1  0  0  0  0
  1 19  1  0  0  0  0
  1 20  1  0  0  0  0
  2 17  1  0  0  0  0
  2  3  2  0  0  0  0
  3  4  1  0  0  0  0
  3 21  1  0  0  0  0
  4  5  2  0  0  0  0
  4 22  1  0  0  0  0
  5  6  1  0  0  0  0
  5 16  1  0  0  0  0
  6  7  1  0  0  0  0
  6 23  1  0  0  0  0
  6 24  1  0  0  0  0
  7  8  1  0  0  0  0
  7 25  1  0  0  0  0
  7 26  1  0  0  0  0
  8  9  1  0  0  0  0
  8 27  1  0  0  0  0
  9 10  2  0  0  0  0
  9 11  1  0  0  0  0
 11 15  1  0  0  0  0
 11 12  1  0  0  0  0
 11 28  1  0  0  0  0
 12 13  1  0  0  0  0
 12 29  1  0  0  0  0
 12 30  1  0  0  0  0
 13 14  1  0  0  0  0
 13 31  1  0  0  0  0
 13 32  1  0  0  0  0
 14 15  1  0  0  0  0
 14 33  1  0  0  0  0
 14 34  1  0  0  0  0
 16 17  2  0  0  0  0
 16 35  1  0  0  0  0
M  END
> <s_m_source_file>
AV-unprocessed.smi

> <i_m_source_file_index>
3199

> <i_lp_mmshare_version>
43012

> <i_f3d_flags>
0

> <s_epik_input>
W0NIM11jMVtjSF1bY0hdYyhbY0hdbjEpW0NIMl1bQ0gyXVtOSF1DKD1PKVtDQEBIXTJbQ0gyXVtDSDJdW0NIMl1PMg==

> <s_epik_cmdline>
J2VwaWtfcHl0aG9uJywgJy1waCcsICc3LjAnLCAnLXRuJywgJzgnLCAnLW1hJywgJzIwMCcsICctbWV0YWxfYmluZGluZycsICctaW1hZScsICc8aW5maWxlLm1hZT4nLCAnLW9tYWUnLCAnPG91dGZpbGUubWFlPic=

> <r_epik_Ionization_Penalty>
0.0519155

> <r_epik_Ionization_Penalty_Charging>
0

> <r_epik_Ionization_Penalty_Neutral>
0.0519155

> <r_epik_State_Penalty>
0.0445047

> <r_epik_Charging_Adjusted_Penalty>
0.0445047

> <i_epik_Tot_Q>
0

> <i_epik_Tot_abs_Q>
0

> <r_epik_Metal_State_Penalty>
0.0408967

> <b_epik_Metal_Only>
0

> <s_lp_Force_Field>
OPLS_2005

> <r_lp_Energy>
16.9644

> <b_lp_Chiralities_Consistent>
1

> <s_lp_Variant>
AV-unprocessed.smi:3199-2

> <Gold.Version>
5.8.1

> <Gold.Id.Protein>
6NUR|6NUR_protein|mol2

> <Gold.PLP.Fitness>
42.1761

> <Gold.PLP.PLP>
-39.7179

> <Gold.PLP.part.hbond>
-1.0000

> <Gold.PLP.part.metal>
0.0000

> <Gold.PLP.part.buried>
-3.5213

> <Gold.PLP.part.nonpolar>
-34.9048

> <Gold.PLP.part.repulsive>
0.5822

> <Gold.PLP.ligand.clash>
0.0000

> <Gold.PLP.ligand.torsion>
0.2790

> <Gold.PLP.Chemscore.Hbond>
1.0000

> <Gold.PLP.Chemscore.CHOScore>
0.0000

> <Gold.PLP.Chemscore.Metal>
0.0000

> <Gold.Chemscore.Hbonds>
donor molecule, donor type, donor heavy atom, donor atom, acceptor molecule, acceptor atom, score
      L1  H     8    27       P1  8028  0.94

> <Gold.PLP.Chemscore.Internal.Correction>
0.0163

> <Gold.Rescore>
     Score         DG    S(hbond)    S(metal)    S(lipo)     H(rot)  DE(clash)    DE(int)     intcor
     17.21     -17.58       0.92        0.00     109.55       1.49       0.04       0.33       ----

> <Gold.Chemscore.Fitness>
17.2055

> <Gold.Chemscore.DG>
-17.5806

> <Gold.Chemscore.ZeroCoef>
-5.4800

> <Gold.Chemscore.Hbond>
0.9243

> <Gold.Chemscore.Metal>
0.0000

> <Gold.Chemscore.Lipo>
109.5503

> <Gold.Chemscore.Internal_Hbond>
0.0000

> <Gold.Chemscore.DEClash>
0.0427

> <Gold.Chemscore.DEInternal>
0.3325

> <Gold.Chemscore.Rot>
1.4859

> <Gold.Chemscore.Internal.Correction>
   9.000000E+99

> <Gold.Chemscore.Hbonds>
donor molecule, donor type, donor heavy atom, donor atom, acceptor molecule, acceptor atom, score
      L1  H     8    27       P1  8028  0.90

> <Gold.Chemscore.Hbond.Weighted>
-3.0871

> <Gold.Chemscore.Metal.Weighted>
-0.0000

> <Gold.Chemscore.Lipo.Weighted>
-12.8174

> <Gold.Chemscore.Internal_Hbond.Weighted>
0.0000

> <Gold.Chemscore.DEClash.Weighted>
0.0427

> <Gold.Chemscore.DEInternal.Weighted>
0.3325

> <Gold.Chemscore.Rot.Weighted>
3.8039

> <Gold.Chemscore.Internal.Correction.Weighted>
   9.000000E+99

> <Gold.Protein.RotatedTorsions>
[ 6907 6896 6895 6894 ] final -106.20 input  -60.11 | X-H torsion
[ 7974 7965 7964 7962 ] final -143.92 input  175.53 | X-H torsion
[ 8008 7997 7996 7995 ] final -171.62 input   59.86 | X-H torsion
[ 10167 10162 10161 10158 ] final  -79.94 input  -65.29 | X-H torsion
[ 10718 10713 10712 10709 ] final  147.78 input   66.30 | X-H torsion
[ 10763 10752 10751 10750 ] final -149.04 input  -60.55 | X-H torsion
[ 11005 11000 10999 10996 ] final  147.14 input  -57.11 | X-H torsion

> <Gold.Protein.ActiveResidues>
 VAL166  LYS551  ARG553  GLY616  TRP617  ASP618  TYR619  PRO620  LYS621  CYS622 
 ASP623  PHE694  ASN695  SER759  ASP760  ASP761  ALA762  ILE779  LEU786  VAL792 
 PHE793  MET794  SER795  GLU796  ALA797  LYS798  CYS799  TRP800  GLU811  SER814 

> <Gold.Protein.RotatedAtoms>
  150.7377  134.0011  159.3638 H   0  0  0  0  0  0  0  0  0  0  0  0  # atno 6907 bound_to 6896
  151.7965  135.0719  160.0404 H   0  0  0  0  0  0  0  0  0  0  0  0  # atno 6908 bound_to 6896
  152.3171  133.5777  159.5755 H   0  0  0  0  0  0  0  0  0  0  0  0  # atno 6909 bound_to 6896
  144.8335  140.5775  143.5499 H   0  0  0  0  0  0  0  0  0  0  0  0  # atno 7974 bound_to 7965
  155.9340  140.1096  157.1110 H   0  0  0  0  0  0  0  0  0  0  0  0  # atno 8008 bound_to 7997
  154.4076  140.1232  156.4905 H   0  0  0  0  0  0  0  0  0  0  0  0  # atno 8009 bound_to 7997
  155.7045  140.3471  155.4949 H   0  0  0  0  0  0  0  0  0  0  0  0  # atno 8010 bound_to 7997
  140.4548  143.2471  151.8435 H   0  0  0  0  0  0  0  0  0  0  0  0  # atno 10167 bound_to 10162
  157.3168  131.0897  151.1273 H   0  0  0  0  0  0  0  0  0  0  0  0  # atno 10718 bound_to 10713
  154.8199  135.3319  154.7068 H   0  0  0  0  0  0  0  0  0  0  0  0  # atno 10763 bound_to 10752
  153.7702  135.6926  153.4912 H   0  0  0  0  0  0  0  0  0  0  0  0  # atno 10764 bound_to 10752
  153.2050  135.4502  155.0260 H   0  0  0  0  0  0  0  0  0  0  0  0  # atno 10765 bound_to 10752
  140.0851  134.9074  157.1563 H   0  0  0  0  0  0  0  0  0  0  0  0  # atno 11005 bound_to 11000
  145.4845  139.1493  143.3743 LP  0  0  0  0  0  0  0  0  0  0  0  0  # atno 17320 bound_to 7965
  146.2636  140.4982  142.8843 LP  0  0  0  0  0  0  0  0  0  0  0  0  # atno 17321 bound_to 7965
  139.4800  144.5077  151.8975 LP  0  0  0  0  0  0  0  0  0  0  0  0  # atno 17342 bound_to 10162
  140.4164  144.2302  150.5887 LP  0  0  0  0  0  0  0  0  0  0  0  0  # atno 17343 bound_to 10162
  157.2573  130.6642  149.5959 LP  0  0  0  0  0  0  0  0  0  0  0  0  # atno 17370 bound_to 10713
  155.9682  130.4519  150.5755 LP  0  0  0  0  0  0  0  0  0  0  0  0  # atno 17371 bound_to 10713
  140.3431  134.2681  155.7209 LP  0  0  0  0  0  0  0  0  0  0  0  0  # atno 17394 bound_to 11000
  141.2060  133.7845  157.0202 LP  0  0  0  0  0  0  0  0  0  0  0  0  # atno 17395 bound_to 11000

$$$$
