AV-unprocessed.smi:1560|AV-procd|sdf|6276|dock8
  -GOLD-   22720 6473D 1   1.00000     0.00000
 Structure written by MMmdl.
 47 48  0  0  0  0  0  0  0  0  1 V2000
  150.7745  138.6726  159.2412 C   0  0  0  0  0  0  0  0  0  0  0  0
  150.9453  140.1238  159.7256 C   0  0  0  0  0  0  0  0  0  0  0  0
  150.3759  141.2244  158.7735 C   0  0  2  0  0  0  0  0  0  0  0  0
  148.8813  140.8694  158.5395 C   0  0  0  0  0  0  0  0  0  0  0  0
  151.1244  141.1196  157.4074 C   0  0  0  0  0  0  0  0  0  0  0  0
  150.3020  141.5639  156.2876 N   0  0  0  0  0  0  0  0  0  0  0  0
  149.8086  140.7897  155.3084 C   0  0  0  0  0  0  0  0  0  0  0  0
  150.0369  139.5833  155.2303 O   0  0  0  0  0  0  0  0  0  0  0  0
  148.9166  141.4583  154.2473 C   0  0  0  0  0  0  0  0  0  0  0  0
  147.5972  140.8264  154.0732 N   0  0  0  0  0  0  0  0  0  0  0  0
  147.5049  139.5226  153.6065 C   0  0  0  0  0  0  0  0  0  0  0  0
  146.3278  138.8891  153.3913 C   0  0  0  0  0  0  0  0  0  0  0  0
  145.0640  139.5713  153.6478 C   0  0  0  0  0  0  0  0  0  0  0  0
  143.9484  139.0841  153.4807 O   0  0  0  0  0  0  0  0  0  0  0  0
  145.1981  140.8806  154.1175 N   0  0  0  0  0  0  0  0  0  0  0  0
  146.4078  141.5391  154.3426 C   0  0  0  0  0  0  0  0  0  0  0  0
  146.4133  142.7006  154.7481 O   0  0  0  0  0  0  0  0  0  0  0  0
  150.5042  142.5791  159.3817 N   0  0  0  0  0  0  0  0  0  0  0  0
  149.8755  143.6671  158.6235 C   0  0  0  0  0  0  0  0  0  0  0  0
  149.9265  145.0032  159.3839 C   0  0  0  0  0  0  0  0  0  0  0  0
  151.2759  145.3277  159.6948 O   0  0  0  0  0  0  0  0  0  0  0  0
  151.9101  144.3230  160.4773 C   0  0  0  0  0  0  0  0  0  0  0  0
  151.8737  142.9810  159.7266 C   0  0  0  0  0  0  0  0  0  0  0  0
  144.3489  141.3926  154.3086 H   0  0  0  0  0  0  0  0  0  0  0  0
  151.1960  137.9772  159.9672 H   0  0  0  0  0  0  0  0  0  0  0  0
  151.2848  138.4988  158.2945 H   0  0  0  0  0  0  0  0  0  0  0  0
  149.7251  138.4089  159.1108 H   0  0  0  0  0  0  0  0  0  0  0  0
  150.5042  140.2172  160.7179 H   0  0  0  0  0  0  0  0  0  0  0  0
  152.0111  140.2860  159.8892 H   0  0  0  0  0  0  0  0  0  0  0  0
  148.7379  139.8093  158.3262 H   0  0  0  0  0  0  0  0  0  0  0  0
  148.4614  141.4121  157.6924 H   0  0  0  0  0  0  0  0  0  0  0  0
  148.2701  141.1050  159.4113 H   0  0  0  0  0  0  0  0  0  0  0  0
  152.0257  141.7320  157.4034 H   0  0  0  0  0  0  0  0  0  0  0  0
  151.4439  140.0925  157.2285 H   0  0  0  0  0  0  0  0  0  0  0  0
  150.0614  142.5444  156.2706 H   0  0  0  0  0  0  0  0  0  0  0  0
  148.7923  142.5065  154.5232 H   0  0  0  0  0  0  0  0  0  0  0  0
  149.4562  141.4780  153.2987 H   0  0  0  0  0  0  0  0  0  0  0  0
  148.4163  138.9807  153.3965 H   0  0  0  0  0  0  0  0  0  0  0  0
  146.3212  137.8729  153.0245 H   0  0  0  0  0  0  0  0  0  0  0  0
  150.3707  143.7941  157.6610 H   0  0  0  0  0  0  0  0  0  0  0  0
  148.8304  143.4440  158.4157 H   0  0  0  0  0  0  0  0  0  0  0  0
  149.5000  145.8014  158.7761 H   0  0  0  0  0  0  0  0  0  0  0  0
  149.3370  144.9480  160.3005 H   0  0  0  0  0  0  0  0  0  0  0  0
  152.9406  144.6212  160.6697 H   0  0  0  0  0  0  0  0  0  0  0  0
  151.4151  144.2376  161.4459 H   0  0  0  0  0  0  0  0  0  0  0  0
  152.3541  142.2340  160.3558 H   0  0  0  0  0  0  0  0  0  0  0  0
  152.4796  143.0720  158.8252 H   0  0  0  0  0  0  0  0  0  0  0  0
  1  2  1  0  0  0  0
  1 25  1  0  0  0  0
  1 26  1  0  0  0  0
  1 27  1  0  0  0  0
  2  3  1  0  0  0  0
  2 28  1  0  0  0  0
  2 29  1  0  0  0  0
  3  4  1  0  0  0  0
  3  5  1  0  0  0  0
  3 18  1  0  0  0  0
  4 30  1  0  0  0  0
  4 31  1  0  0  0  0
  4 32  1  0  0  0  0
  5  6  1  0  0  0  0
  5 33  1  0  0  0  0
  5 34  1  0  0  0  0
  6  7  1  0  0  0  0
  6 35  1  0  0  0  0
  7  8  2  0  0  0  0
  7  9  1  0  0  0  0
  9 10  1  0  0  0  0
  9 36  1  0  0  0  0
  9 37  1  0  0  0  0
 10 16  1  0  0  0  0
 10 11  1  0  0  0  0
 11 12  2  0  0  0  0
 11 38  1  0  0  0  0
 12 13  1  0  0  0  0
 12 39  1  0  0  0  0
 13 14  2  0  0  0  0
 13 15  1  0  0  0  0
 15 24  1  0  0  0  0
 15 16  1  0  0  0  0
 16 17  2  0  0  0  0
 18 23  1  0  0  0  0
 18 19  1  0  0  0  0
 19 20  1  0  0  0  0
 19 40  1  0  0  0  0
 19 41  1  0  0  0  0
 20 21  1  0  0  0  0
 20 42  1  0  0  0  0
 20 43  1  0  0  0  0
 21 22  1  0  0  0  0
 22 23  1  0  0  0  0
 22 44  1  0  0  0  0
 22 45  1  0  0  0  0
 23 46  1  0  0  0  0
 23 47  1  0  0  0  0
M  END
> <s_m_source_file>
AV-unprocessed.smi

> <i_m_source_file_index>
1560

> <i_lp_mmshare_version>
43012

> <i_f3d_flags>
0

> <s_epik_input>
W0NIMl0xW0NIMl1PW0NIMl1bQ0gyXU4xW0NAQF0oW0NIM10pKFtDSDJdW0NIM10pW0NIMl1bTkhdQyg9TylbQ0gyXW4yW2NIXVtjSF1jKD1PKVtuSF1jMj1P

> <s_epik_cmdline>
J2VwaWtfcHl0aG9uJywgJy1waCcsICc3LjAnLCAnLXRuJywgJzgnLCAnLW1hJywgJzIwMCcsICctbWV0YWxfYmluZGluZycsICctaW1hZScsICc8aW5maWxlLm1hZT4nLCAnLW9tYWUnLCAnPG91dGZpbGUubWFlPic=

> <r_lp_tautomer_probability>
0.999537

> <r_epik_Ionization_Penalty>
0.321965

> <r_epik_Ionization_Penalty_Charging>
0.00329831

> <r_epik_Ionization_Penalty_Neutral>
0.318667

> <r_epik_State_Penalty>
0.288097

> <r_epik_Charging_Adjusted_Penalty>
0.291396

> <i_epik_Tot_Q>
0

> <i_epik_Tot_abs_Q>
0

> <r_epik_Metal_State_Penalty>
0.654595

> <b_epik_Metal_Only>
0

> <s_lp_Force_Field>
OPLS_2005

> <r_lp_Energy>
43.0709

> <b_lp_Chiralities_Consistent>
1

> <s_lp_Variant>
AV-unprocessed.smi:1560-2

> <Gold.Version>
5.8.1

> <Gold.Id.Protein>
6NUR|6NUR_protein|mol2

> <Gold.PLP.Fitness>
42.1278

> <Gold.PLP.PLP>
-34.5911

> <Gold.PLP.part.hbond>
-3.5074

> <Gold.PLP.part.metal>
0.0000

> <Gold.PLP.part.buried>
-6.0794

> <Gold.PLP.part.nonpolar>
-26.1543

> <Gold.PLP.part.repulsive>
0.6689

> <Gold.PLP.ligand.clash>
0.0000

> <Gold.PLP.ligand.torsion>
0.5682

> <Gold.PLP.Chemscore.Hbond>
1.8560

> <Gold.PLP.Chemscore.CHOScore>
1.0000

> <Gold.PLP.Chemscore.Metal>
0.0000

> <Gold.Chemscore.Hbonds>
donor molecule, donor type, donor heavy atom, donor atom, acceptor molecule, acceptor atom, score
      L1  C    11    38       P1  7957  0.28

> <Gold.PLP.Chemscore.Internal.Correction>
0.1051

> <Gold.Rescore>
     Score         DG    S(hbond)    S(metal)    S(lipo)     H(rot)  DE(clash)    DE(int)     intcor
     12.91     -13.79       1.61        0.00      79.58       2.49       0.14       0.74       ----

> <Gold.Chemscore.Fitness>
12.9068

> <Gold.Chemscore.DG>
-13.7902

> <Gold.Chemscore.ZeroCoef>
-5.4800

> <Gold.Chemscore.Hbond>
1.6061

> <Gold.Chemscore.Metal>
0.0000

> <Gold.Chemscore.Lipo>
79.5758

> <Gold.Chemscore.Internal_Hbond>
0.0000

> <Gold.Chemscore.DEClash>
0.1407

> <Gold.Chemscore.DEInternal>
0.7426

> <Gold.Chemscore.Rot>
2.4862

> <Gold.Chemscore.Internal.Correction>
   9.000000E+99

> <Gold.Chemscore.Hbond.Weighted>
-5.3644

> <Gold.Chemscore.Metal.Weighted>
-0.0000

> <Gold.Chemscore.Lipo.Weighted>
-9.3104

> <Gold.Chemscore.Internal_Hbond.Weighted>
0.0000

> <Gold.Chemscore.DEClash.Weighted>
0.1407

> <Gold.Chemscore.DEInternal.Weighted>
0.7426

> <Gold.Chemscore.Rot.Weighted>
6.3646

> <Gold.Chemscore.Internal.Correction.Weighted>
   9.000000E+99

> <Gold.Protein.RotatedTorsions>
[ 6907 6896 6895 6894 ] final  131.71 input  -60.11 | X-H torsion
[ 7974 7965 7964 7962 ] final -176.59 input  175.53 | X-H torsion
[ 8008 7997 7996 7995 ] final  -62.45 input   59.86 | X-H torsion
[ 10167 10162 10161 10158 ] final  119.66 input  -65.29 | X-H torsion
[ 10718 10713 10712 10709 ] final  -31.37 input   66.30 | X-H torsion
[ 10763 10752 10751 10750 ] final  -72.88 input  -60.55 | X-H torsion
[ 11005 11000 10999 10996 ] final   50.53 input  -57.11 | X-H torsion

> <Gold.Protein.ActiveResidues>
 VAL166  LYS551  ARG553  GLY616  TRP617  ASP618  TYR619  PRO620  LYS621  CYS622 
 ASP623  PHE694  ASN695  SER759  ASP760  ASP761  ALA762  ILE779  LEU786  VAL792 
 PHE793  MET794  SER795  GLU796  ALA797  LYS798  CYS799  TRP800  GLU811  SER814 

> <Gold.Protein.RotatedAtoms>
  152.3399  133.6054  159.5868 H   0  0  0  0  0  0  0  0  0  0  0  0  # atno 6907 bound_to 6896
  150.7472  133.9739  159.3563 H   0  0  0  0  0  0  0  0  0  0  0  0  # atno 6908 bound_to 6896
  151.7604  135.0812  160.0395 H   0  0  0  0  0  0  0  0  0  0  0  0  # atno 6909 bound_to 6896
  144.7127  140.1148  143.6409 H   0  0  0  0  0  0  0  0  0  0  0  0  # atno 7974 bound_to 7965
  154.4501  140.0996  156.6589 H   0  0  0  0  0  0  0  0  0  0  0  0  # atno 8008 bound_to 7997
  155.5314  140.3481  155.4409 H   0  0  0  0  0  0  0  0  0  0  0  0  # atno 8009 bound_to 7997
  156.0661  140.1338  156.9873 H   0  0  0  0  0  0  0  0  0  0  0  0  # atno 8010 bound_to 7997
  139.6032  144.7062  151.3014 H   0  0  0  0  0  0  0  0  0  0  0  0  # atno 10167 bound_to 10162
  156.3882  130.4368  149.7415 H   0  0  0  0  0  0  0  0  0  0  0  0  # atno 10718 bound_to 10713
  154.4519  135.5915  153.6197 H   0  0  0  0  0  0  0  0  0  0  0  0  # atno 10763 bound_to 10752
  152.9814  135.6023  154.3594 H   0  0  0  0  0  0  0  0  0  0  0  0  # atno 10764 bound_to 10752
  154.3457  135.2841  155.2378 H   0  0  0  0  0  0  0  0  0  0  0  0  # atno 10765 bound_to 10752
  140.1009  134.5082  155.8763 H   0  0  0  0  0  0  0  0  0  0  0  0  # atno 11005 bound_to 11000
  145.9423  139.2677  143.1261 LP  0  0  0  0  0  0  0  0  0  0  0  0  # atno 17320 bound_to 7965
  145.9410  140.8979  143.0307 LP  0  0  0  0  0  0  0  0  0  0  0  0  # atno 17321 bound_to 7965
  140.7265  143.6988  150.7862 LP  0  0  0  0  0  0  0  0  0  0  0  0  # atno 17342 bound_to 10162
  140.0568  143.5194  152.2647 LP  0  0  0  0  0  0  0  0  0  0  0  0  # atno 17343 bound_to 10162
  156.4479  130.7893  151.2914 LP  0  0  0  0  0  0  0  0  0  0  0  0  # atno 17370 bound_to 10713
  157.7497  131.0104  150.3306 LP  0  0  0  0  0  0  0  0  0  0  0  0  # atno 17371 bound_to 10713
  141.2105  133.6696  156.6517 LP  0  0  0  0  0  0  0  0  0  0  0  0  # atno 17394 bound_to 11000
  140.3221  134.7999  157.4260 LP  0  0  0  0  0  0  0  0  0  0  0  0  # atno 17395 bound_to 11000

$$$$
