AV-unprocessed.smi:2834|AV-procd|sdf|10917|dock6
  -GOLD-   2272015363D 1   1.00000     0.00000
 Structure written by MMmdl.
 35 36  0  0  0  0  0  0  0  0  1 V2000
  148.3588  139.4645  154.1422 C   0  0  0  0  0  0  0  0  0  0  0  0
  146.9908  140.1775  154.0717 C   0  0  2  0  0  0  0  0  0  0  0  0
  146.0451  139.3921  153.2702 N   0  0  0  0  0  0  0  0  0  0  0  0
  145.9788  138.0543  153.1706 C   0  0  0  0  0  0  0  0  0  0  0  0
  146.7225  137.2831  153.7768 O   0  0  0  0  0  0  0  0  0  0  0  0
  145.0009  137.6787  152.3301 N   0  0  0  0  0  0  0  0  0  0  0  0
  144.6510  136.3576  151.9530 C   0  0  0  0  0  0  0  0  0  0  0  0
  143.7038  135.5463  152.6300 C   0  0  0  0  0  0  0  0  0  0  0  0
  143.5812  134.3640  152.0459 N   0  0  0  0  0  0  0  0  0  0  0  0
  144.4391  134.3995  150.9961 N   0  0  0  0  0  0  0  0  0  0  0  0
  144.5534  133.2465  150.1216 C   0  0  0  0  0  0  0  0  0  0  0  0
  145.7515  132.3534  150.4834 C   0  0  0  0  0  0  0  0  0  0  0  0
  145.3750  131.4692  151.4065 F   0  0  0  0  0  0  0  0  0  0  0  0
  146.1854  131.6911  149.4109 F   0  0  0  0  0  0  0  0  0  0  0  0
  146.7476  133.0882  150.9788 F   0  0  0  0  0  0  0  0  0  0  0  0
  145.1101  135.6032  150.9106 C   0  0  0  0  0  0  0  0  0  0  0  0
  147.1417  141.5753  153.4533 C   0  0  0  0  0  0  0  0  0  0  0  0
  146.5368  142.5235  154.4845 C   0  0  0  0  0  0  0  0  0  0  0  0
  146.7586  141.8488  155.7082 O   0  0  0  0  0  0  0  0  0  0  0  0
  146.4312  140.4892  155.4770 C   0  0  0  0  0  0  0  0  0  0  0  0
  149.0835  140.0572  154.7016 H   0  0  0  0  0  0  0  0  0  0  0  0
  148.7680  139.2966  153.1456 H   0  0  0  0  0  0  0  0  0  0  0  0
  148.2889  138.4959  154.6374 H   0  0  0  0  0  0  0  0  0  0  0  0
  145.3804  139.9260  152.7300 H   0  0  0  0  0  0  0  0  0  0  0  0
  144.4584  138.4157  151.9041 H   0  0  0  0  0  0  0  0  0  0  0  0
  143.1122  135.7707  153.5053 H   0  0  0  0  0  0  0  0  0  0  0  0
  143.6263  132.6755  150.1855 H   0  0  0  0  0  0  0  0  0  0  0  0
  144.6366  133.5923  149.0899 H   0  0  0  0  0  0  0  0  0  0  0  0
  145.8306  135.8032  150.1314 H   0  0  0  0  0  0  0  0  0  0  0  0
  148.1944  141.8253  153.3135 H   0  0  0  0  0  0  0  0  0  0  0  0
  146.6590  141.6810  152.4805 H   0  0  0  0  0  0  0  0  0  0  0  0
  147.0025  143.5093  154.4758 H   0  0  0  0  0  0  0  0  0  0  0  0
  145.4645  142.6458  154.3215 H   0  0  0  0  0  0  0  0  0  0  0  0
  145.3443  140.3920  155.5104 H   0  0  0  0  0  0  0  0  0  0  0  0
  146.8443  139.8461  156.2550 H   0  0  0  0  0  0  0  0  0  0  0  0
  1  2  1  0  0  0  0
  1 21  1  0  0  0  0
  1 22  1  0  0  0  0
  1 23  1  0  0  0  0
  2 20  1  0  0  0  0
  2  3  1  0  0  0  0
  2 17  1  0  0  0  0
  3  4  1  0  0  0  0
  3 24  1  0  0  0  0
  4  5  2  0  0  0  0
  4  6  1  0  0  0  0
  6  7  1  0  0  0  0
  6 25  1  0  0  0  0
  7 16  2  0  0  0  0
  7  8  1  0  0  0  0
  8  9  2  0  0  0  0
  8 26  1  0  0  0  0
  9 10  1  0  0  0  0
 10 11  1  0  0  0  0
 10 16  1  0  0  0  0
 11 12  1  0  0  0  0
 11 27  1  0  0  0  0
 11 28  1  0  0  0  0
 12 13  1  0  0  0  0
 12 14  1  0  0  0  0
 12 15  1  0  0  0  0
 16 29  1  0  0  0  0
 17 18  1  0  0  0  0
 17 30  1  0  0  0  0
 17 31  1  0  0  0  0
 18 19  1  0  0  0  0
 18 32  1  0  0  0  0
 18 33  1  0  0  0  0
 19 20  1  0  0  0  0
 20 34  1  0  0  0  0
 20 35  1  0  0  0  0
M  END
> <s_m_source_file>
AV-unprocessed.smi

> <i_m_source_file_index>
2834

> <i_lp_mmshare_version>
43012

> <i_f3d_flags>
0

> <s_epik_input>
W0NIMl0xT1tDSDJdW0NIMl1bQ0BAXTEoW0NIM10pW05IXUMoPU8pW05IXWMyW2NIXW5uKFtjSF0yKVtDSDJdQyhGKShGKUY=

> <s_epik_cmdline>
J2VwaWtfcHl0aG9uJywgJy1waCcsICc3LjAnLCAnLXRuJywgJzgnLCAnLW1hJywgJzIwMCcsICctbWV0YWxfYmluZGluZycsICctaW1hZScsICc8aW5maWxlLm1hZT4nLCAnLW9tYWUnLCAnPG91dGZpbGUubWFlPic=

> <r_lp_tautomer_probability>
1

> <r_epik_Ionization_Penalty>
3.3002e-05

> <r_epik_Ionization_Penalty_Charging>
0

> <r_epik_Ionization_Penalty_Neutral>
3.3002e-05

> <r_epik_State_Penalty>
-0

> <r_epik_Charging_Adjusted_Penalty>
0

> <i_epik_Tot_Q>
0

> <i_epik_Tot_abs_Q>
0

> <r_epik_Metal_State_Penalty>
-0

> <b_epik_Metal_Only>
0

> <s_lp_Force_Field>
OPLS_2005

> <r_lp_Energy>
22.3443

> <b_lp_Chiralities_Consistent>
1

> <s_lp_Variant>
AV-unprocessed.smi:2834-2

> <Gold.Version>
5.8.1

> <Gold.Id.Protein>
6NUR|6NUR_protein|mol2

> <Gold.PLP.Fitness>
39.8042

> <Gold.PLP.PLP>
-37.1388

> <Gold.PLP.part.hbond>
-3.0000

> <Gold.PLP.part.metal>
0.0000

> <Gold.PLP.part.buried>
-5.4589

> <Gold.PLP.part.nonpolar>
-29.7231

> <Gold.PLP.part.repulsive>
0.4872

> <Gold.PLP.ligand.clash>
0.0000

> <Gold.PLP.ligand.torsion>
2.1013

> <Gold.PLP.Chemscore.Hbond>
1.5271

> <Gold.PLP.Chemscore.CHOScore>
0.7510

> <Gold.PLP.Chemscore.Metal>
0.0000

> <Gold.Chemscore.Hbonds>
donor molecule, donor type, donor heavy atom, donor atom, acceptor molecule, acceptor atom, score
      L1  H     3    24       P1 10175  0.99
      L1  H     6    25       P1 10175  0.37
      L1  C    16    29       P1  7921  0.60

> <Gold.PLP.Chemscore.Internal.Correction>
0.0337

> <Gold.Rescore>
     Score         DG    S(hbond)    S(metal)    S(lipo)     H(rot)  DE(clash)    DE(int)     intcor
     11.91     -15.16       1.97        0.00      55.77       1.34       0.12       3.13       ----

> <Gold.Chemscore.Fitness>
11.9090

> <Gold.Chemscore.DG>
-15.1591

> <Gold.Chemscore.ZeroCoef>
-5.4800

> <Gold.Chemscore.Hbond>
1.9726

> <Gold.Chemscore.Metal>
0.0000

> <Gold.Chemscore.Lipo>
55.7707

> <Gold.Chemscore.Internal_Hbond>
0.0000

> <Gold.Chemscore.DEClash>
0.1198

> <Gold.Chemscore.DEInternal>
3.1303

> <Gold.Chemscore.Rot>
1.3417

> <Gold.Chemscore.Internal.Correction>
   9.000000E+99

> <Gold.Chemscore.Hbonds>
donor molecule, donor type, donor heavy atom, donor atom, acceptor molecule, acceptor atom, score
      L1  H     3    24       P1 10175  0.94
      L1  H     6    25       P1 10175  0.37

> <Gold.Chemscore.Hbond.Weighted>
-6.5886

> <Gold.Chemscore.Metal.Weighted>
-0.0000

> <Gold.Chemscore.Lipo.Weighted>
-6.5252

> <Gold.Chemscore.Internal_Hbond.Weighted>
0.0000

> <Gold.Chemscore.DEClash.Weighted>
0.1198

> <Gold.Chemscore.DEInternal.Weighted>
3.1303

> <Gold.Chemscore.Rot.Weighted>
3.4347

> <Gold.Chemscore.Internal.Correction.Weighted>
   9.000000E+99

> <Gold.Protein.RotatedTorsions>
[ 6907 6896 6895 6894 ] final  -50.54 input  -60.11 | X-H torsion
[ 7974 7965 7964 7962 ] final  -38.82 input  175.53 | X-H torsion
[ 8008 7997 7996 7995 ] final   44.13 input   59.86 | X-H torsion
[ 10167 10162 10161 10158 ] final -163.71 input  -65.29 | X-H torsion
[ 10718 10713 10712 10709 ] final  -62.90 input   66.30 | X-H torsion
[ 10763 10752 10751 10750 ] final  115.64 input  -60.55 | X-H torsion
[ 11005 11000 10999 10996 ] final   78.06 input  -57.11 | X-H torsion

> <Gold.Protein.ActiveResidues>
 VAL166  LYS551  ARG553  GLY616  TRP617  ASP618  TYR619  PRO620  LYS621  CYS622 
 ASP623  PHE694  ASN695  SER759  ASP760  ASP761  ALA762  ILE779  LEU786  VAL792 
 PHE793  MET794  SER795  GLU796  ALA797  LYS798  CYS799  TRP800  GLU811  SER814 

> <Gold.Protein.RotatedAtoms>
  150.8698  134.8069  159.7145 H   0  0  0  0  0  0  0  0  0  0  0  0  # atno 6907 bound_to 6896
  152.4706  134.4966  159.9721 H   0  0  0  0  0  0  0  0  0  0  0  0  # atno 6908 bound_to 6896
  151.5056  133.3457  159.2912 H   0  0  0  0  0  0  0  0  0  0  0  0  # atno 6909 bound_to 6896
  146.0452  140.6555  142.9068 H   0  0  0  0  0  0  0  0  0  0  0  0  # atno 7974 bound_to 7965
  155.3143  140.3393  155.4243 H   0  0  0  0  0  0  0  0  0  0  0  0  # atno 8008 bound_to 7997
  156.1940  140.1708  156.8072 H   0  0  0  0  0  0  0  0  0  0  0  0  # atno 8009 bound_to 7997
  154.5476  140.0712  156.8599 H   0  0  0  0  0  0  0  0  0  0  0  0  # atno 8010 bound_to 7997
  139.6302  144.0455  152.2009 H   0  0  0  0  0  0  0  0  0  0  0  0  # atno 10167 bound_to 10162
  156.0825  130.4214  150.1201 H   0  0  0  0  0  0  0  0  0  0  0  0  # atno 10718 bound_to 10713
  153.5253  135.3589  155.2651 H   0  0  0  0  0  0  0  0  0  0  0  0  # atno 10763 bound_to 10752
  154.8731  135.4055  154.3213 H   0  0  0  0  0  0  0  0  0  0  0  0  # atno 10764 bound_to 10752
  153.3892  135.7071  153.6575 H   0  0  0  0  0  0  0  0  0  0  0  0  # atno 10765 bound_to 10752
  139.9228  134.7733  156.1601 H   0  0  0  0  0  0  0  0  0  0  0  0  # atno 11005 bound_to 11000
  144.7094  140.3981  143.7092 LP  0  0  0  0  0  0  0  0  0  0  0  0  # atno 17320 bound_to 7965
  145.6817  139.1620  143.2697 LP  0  0  0  0  0  0  0  0  0  0  0  0  # atno 17321 bound_to 7965
  140.0118  144.6218  150.7641 LP  0  0  0  0  0  0  0  0  0  0  0  0  # atno 17342 bound_to 10162
  140.7434  143.2846  151.3500 LP  0  0  0  0  0  0  0  0  0  0  0  0  # atno 17343 bound_to 10162
  156.9229  130.9689  151.3545 LP  0  0  0  0  0  0  0  0  0  0  0  0  # atno 17370 bound_to 10713
  157.5947  130.8469  149.8712 LP  0  0  0  0  0  0  0  0  0  0  0  0  # atno 17371 bound_to 10713
  141.0763  133.6774  156.2243 LP  0  0  0  0  0  0  0  0  0  0  0  0  # atno 17394 bound_to 11000
  140.6423  134.5153  157.5570 LP  0  0  0  0  0  0  0  0  0  0  0  0  # atno 17395 bound_to 11000

$$$$
