AV-unprocessed.smi:113|AV-procd|sdf|1100|dock5
  -GOLD-   2262018213D 1   1.00000     0.00000
 Structure written by MMmdl.
 53 56  0  0  0  0  0  0  0  0  2 V2000
  149.1833  141.5043  154.8948 C   0  0  0  0  0  0  0  0  0  0  0  0
  150.0614  141.6528  156.1191 C   0  0  0  0  0  0  0  0  0  0  0  0
  150.4038  140.5554  156.9323 C   0  0  0  0  0  0  0  0  0  0  0  0
  151.2298  140.7465  158.0679 C   0  0  0  0  0  0  0  0  0  0  0  0
  151.6158  139.5718  158.9732 C   0  0  0  0  0  0  0  0  0  0  0  0
  152.0158  138.3365  158.3143 N   0  0  0  0  0  0  0  0  0  0  0  0
  153.3989  138.1135  158.1149 C   0  0  0  0  0  0  0  0  0  0  0  0
  154.2436  138.9275  158.4946 O   0  0  0  0  0  0  0  0  0  0  0  0
  153.7355  136.8529  157.4505 C   0  0  0  0  0  0  0  0  0  0  0  0
  155.2019  136.5658  157.1656 C   0  0  0  0  0  0  0  0  0  0  0  0
  152.7509  135.9878  157.1047 C   0  0  0  0  0  0  0  0  0  0  0  0
  151.4024  136.2142  157.3439 N   0  0  0  0  0  0  0  0  0  0  0  0
  150.3115  135.2188  156.9920 C   0  0  1  0  0  0  0  0  0  0  0  0
  150.1127  134.9405  155.5045 C   0  0  0  0  0  0  0  0  0  0  0  0
  149.3378  133.6413  155.5854 C   0  0  1  0  0  0  0  0  0  0  0  0
  149.4402  132.9139  154.3770 O   0  0  0  0  0  0  0  0  0  0  0  0
  149.9452  132.9514  156.8298 C   0  0  1  0  0  0  0  0  0  0  0  0
  150.9381  131.8035  156.5645 C   0  0  0  0  0  0  0  0  0  0  0  0
  150.3188  130.7642  155.8353 O   0  0  0  0  0  0  0  0  0  0  0  0
  150.6631  133.9783  157.5167 O   0  0  0  0  0  0  0  0  0  0  0  0
  151.0019  137.4194  157.9592 C   0  0  0  0  0  0  0  0  0  0  0  0
  149.8112  137.6490  158.1868 O   0  0  0  0  0  0  0  0  0  0  0  0
  151.6949  142.0606  158.3493 C   0  0  0  0  0  0  0  0  0  0  0  0
  152.5254  142.3450  159.4598 C   0  0  0  0  0  0  0  0  0  0  0  0
  152.9657  143.6605  159.7053 C   0  0  0  0  0  0  0  0  0  0  0  0
  152.5842  144.7091  158.8474 C   0  0  0  0  0  0  0  0  0  0  0  0
  151.7593  144.4441  157.7387 C   0  0  0  0  0  0  0  0  0  0  0  0
  151.3177  143.1289  157.4911 C   0  0  0  0  0  0  0  0  0  0  0  0
  150.5268  142.8809  156.4258 N   0  3  0  0  0  0  0  0  0  0  0  0
  148.5526  140.6183  154.9752 H   0  0  0  0  0  0  0  0  0  0  0  0
  149.7977  141.4074  153.9995 H   0  0  0  0  0  0  0  0  0  0  0  0
  148.5334  142.3718  154.7757 H   0  0  0  0  0  0  0  0  0  0  0  0
  150.0262  139.5777  156.6727 H   0  0  0  0  0  0  0  0  0  0  0  0
  152.4273  139.8639  159.6416 H   0  0  0  0  0  0  0  0  0  0  0  0
  150.7911  139.3268  159.6444 H   0  0  0  0  0  0  0  0  0  0  0  0
  155.3412  135.6035  156.6723 H   0  0  0  0  0  0  0  0  0  0  0  0
  155.7746  136.5493  158.0937 H   0  0  0  0  0  0  0  0  0  0  0  0
  155.6220  137.3356  156.5173 H   0  0  0  0  0  0  0  0  0  0  0  0
  153.0631  135.0869  156.6026 H   0  0  0  0  0  0  0  0  0  0  0  0
  149.4032  135.6005  157.4639 H   0  0  0  0  0  0  0  0  0  0  0  0
  149.5842  135.7515  155.0024 H   0  0  0  0  0  0  0  0  0  0  0  0
  151.0722  134.7529  155.0213 H   0  0  0  0  0  0  0  0  0  0  0  0
  148.2857  133.8610  155.7733 H   0  0  0  0  0  0  0  0  0  0  0  0
  148.6458  132.4151  154.2579 H   0  0  0  0  0  0  0  0  0  0  0  0
  149.1455  132.6041  157.4856 H   0  0  0  0  0  0  0  0  0  0  0  0
  151.8247  132.1584  156.0383 H   0  0  0  0  0  0  0  0  0  0  0  0
  151.2786  131.3809  157.5100 H   0  0  0  0  0  0  0  0  0  0  0  0
  149.4204  131.0064  155.6696 H   0  0  0  0  0  0  0  0  0  0  0  0
  152.8391  141.5671  160.1394 H   0  0  0  0  0  0  0  0  0  0  0  0
  153.5993  143.8654  160.5561 H   0  0  0  0  0  0  0  0  0  0  0  0
  152.9247  145.7161  159.0400 H   0  0  0  0  0  0  0  0  0  0  0  0
  151.4702  145.2530  157.0833 H   0  0  0  0  0  0  0  0  0  0  0  0
  150.2683  143.6618  155.8228 H   0  0  0  0  0  0  0  0  0  0  0  0
  1  2  1  0  0  0  0
  1 30  1  0  0  0  0
  1 31  1  0  0  0  0
  1 32  1  0  0  0  0
  2 29  1  0  0  0  0
  2  3  2  0  0  0  0
  3  4  1  0  0  0  0
  3 33  1  0  0  0  0
  4  5  1  0  0  0  0
  4 23  2  0  0  0  0
  5  6  1  0  0  0  0
  5 34  1  0  0  0  0
  5 35  1  0  0  0  0
  6 21  1  0  0  0  0
  6  7  1  0  0  0  0
  7  8  2  0  0  0  0
  7  9  1  0  0  0  0
  9 10  1  0  0  0  0
  9 11  2  0  0  0  0
 10 36  1  0  0  0  0
 10 37  1  0  0  0  0
 10 38  1  0  0  0  0
 11 12  1  0  0  0  0
 11 39  1  0  0  0  0
 12 13  1  0  0  0  0
 12 21  1  0  0  0  0
 13 20  1  0  0  0  0
 13 14  1  0  0  0  0
 13 40  1  0  0  0  0
 14 15  1  0  0  0  0
 14 41  1  0  0  0  0
 14 42  1  0  0  0  0
 15 16  1  0  0  0  0
 15 17  1  0  0  0  0
 15 43  1  0  0  0  0
 16 44  1  0  0  0  0
 17 18  1  0  0  0  0
 17 20  1  0  0  0  0
 17 45  1  0  0  0  0
 18 19  1  0  0  0  0
 18 46  1  0  0  0  0
 18 47  1  0  0  0  0
 19 48  1  0  0  0  0
 21 22  2  0  0  0  0
 23 28  1  0  0  0  0
 23 24  1  0  0  0  0
 24 25  2  0  0  0  0
 24 49  1  0  0  0  0
 25 26  1  0  0  0  0
 25 50  1  0  0  0  0
 26 27  2  0  0  0  0
 26 51  1  0  0  0  0
 27 28  1  0  0  0  0
 27 52  1  0  0  0  0
 28 29  2  0  0  0  0
 29 53  1  0  0  0  0
M  CHG  1  29   1
M  END
> <s_m_source_file>
AV-unprocessed.smi

> <i_m_source_file_index>
113

> <i_lp_mmshare_version>
43012

> <i_f3d_flags>
0

> <s_epik_input>
W2NIXTFbY0hdW2NIXVtjSF1jKGMxMiluYyhbQ0gzXSlbY0hdYzJbQ0gyXW4zYyg9TyljKFtDSDNdKVtjSF1uKGMzPU8pW0NAQEhdNFtDSDJdW0NAQEhdKFtPSF0pW0NASF0oTzQpW0NIMl1bT0hd

> <s_epik_cmdline>
J2VwaWtfcHl0aG9uJywgJy1waCcsICc3LjAnLCAnLXRuJywgJzgnLCAnLW1hJywgJzIwMCcsICctbWV0YWxfYmluZGluZycsICctaW1hZScsICc8aW5maWxlLm1hZT4nLCAnLW9tYWUnLCAnPG91dGZpbGUubWFlPic=

> <r_lp_tautomer_probability>
1

> <r_epik_Ionization_Penalty>
0.705471

> <r_epik_Ionization_Penalty_Charging>
0.70547

> <r_epik_Ionization_Penalty_Neutral>
1.19947e-07

> <r_epik_State_Penalty>
0.728574

> <r_epik_Charging_Adjusted_Penalty>
1.43404

> <i_epik_Tot_Q>
1

> <i_epik_Tot_abs_Q>
1

> <r_epik_Metal_State_Penalty>
4.61665

> <b_epik_Metal_Only>
0

> <s_epik_Chemistry_Notes>
This compound contains an acetal/aminal-like group ( X-CH(R)-Y where X, Y are N, S, or O) that may be acid/base labile, releasing an aldehyde.

> <s_lp_Force_Field>
OPLS_2005

> <r_lp_Energy>
46.487

> <b_lp_Chiralities_Consistent>
1

> <s_lp_Variant>
AV-unprocessed.smi:113-10

> <Gold.Version>
5.8.1

> <Gold.Id.Protein>
6NUR|6NUR_protein|mol2

> <Gold.PLP.Fitness>
55.5573

> <Gold.PLP.PLP>
-47.5730

> <Gold.PLP.part.hbond>
-3.0000

> <Gold.PLP.part.metal>
0.0000

> <Gold.PLP.part.buried>
-5.4366

> <Gold.PLP.part.nonpolar>
-40.4104

> <Gold.PLP.part.repulsive>
0.0833

> <Gold.PLP.ligand.clash>
0.0000

> <Gold.PLP.ligand.torsion>
0.6649

> <Gold.PLP.Chemscore.Hbond>
3.0960

> <Gold.PLP.Chemscore.CHOScore>
0.0000

> <Gold.PLP.Chemscore.Metal>
0.0000

> <Gold.Chemscore.Hbonds>
donor molecule, donor type, donor heavy atom, donor atom, acceptor molecule, acceptor atom, score
      L1  H    29    53       P1  8028  1.47
      P1  H  6896  6909       L1    20  0.66
      P1  H  7997  8010       L1     8  1.00

> <Gold.PLP.Chemscore.Internal.Correction>
0.0261

> <Gold.Rescore>
     Score         DG    S(hbond)    S(metal)    S(lipo)     H(rot)  DE(clash)    DE(int)     intcor
     19.67     -20.30       2.25        0.00     128.23       3.01       0.07       0.55       ----

> <Gold.Chemscore.Fitness>
19.6735

> <Gold.Chemscore.DG>
-20.2952

> <Gold.Chemscore.ZeroCoef>
-5.4800

> <Gold.Chemscore.Hbond>
2.2524

> <Gold.Chemscore.Metal>
0.0000

> <Gold.Chemscore.Lipo>
128.2299

> <Gold.Chemscore.Internal_Hbond>
0.0000

> <Gold.Chemscore.DEClash>
0.0715

> <Gold.Chemscore.DEInternal>
0.5503

> <Gold.Chemscore.Rot>
3.0120

> <Gold.Chemscore.Internal.Correction>
   9.000000E+99

> <Gold.Chemscore.Hbonds>
donor molecule, donor type, donor heavy atom, donor atom, acceptor molecule, acceptor atom, score
      L1  H    29    53       P1  8028  0.74
      P1  H  6896  6909       L1    20  0.60
      P1  H  7997  8010       L1     8  0.97

> <Gold.Chemscore.Hbond.Weighted>
-7.5231

> <Gold.Chemscore.Metal.Weighted>
-0.0000

> <Gold.Chemscore.Lipo.Weighted>
-15.0029

> <Gold.Chemscore.Internal_Hbond.Weighted>
0.0000

> <Gold.Chemscore.DEClash.Weighted>
0.0715

> <Gold.Chemscore.DEInternal.Weighted>
0.5503

> <Gold.Chemscore.Rot.Weighted>
7.7108

> <Gold.Chemscore.Internal.Correction.Weighted>
   9.000000E+99

> <Gold.Protein.RotatedTorsions>
[ 6907 6896 6895 6894 ] final   -4.05 input  -60.11 | X-H torsion
[ 7974 7965 7964 7962 ] final  -26.11 input  175.53 | X-H torsion
[ 8008 7997 7996 7995 ] final    5.37 input   59.86 | X-H torsion
[ 10167 10162 10161 10158 ] final   63.82 input  -65.29 | X-H torsion
[ 10718 10713 10712 10709 ] final  152.89 input   66.30 | X-H torsion
[ 10763 10752 10751 10750 ] final   73.94 input  -60.55 | X-H torsion
[ 11005 11000 10999 10996 ] final  -72.24 input  -57.11 | X-H torsion

> <Gold.Protein.ActiveResidues>
 VAL166  LYS551  ARG553  GLY616  TRP617  ASP618  TYR619  PRO620  LYS621  CYS622 
 ASP623  PHE694  ASN695  SER759  ASP760  ASP761  ALA762  ILE779  LEU786  VAL792 
 PHE793  MET794  SER795  GLU796  ALA797  LYS798  CYS799  TRP800  GLU811  SER814 

> <Gold.Protein.RotatedAtoms>
  151.5040  135.1063  159.9836 H   0  0  0  0  0  0  0  0  0  0  0  0  # atno 6907 bound_to 6896
  152.4690  133.7982  159.6949 H   0  0  0  0  0  0  0  0  0  0  0  0  # atno 6908 bound_to 6896
  150.8688  133.7472  159.2993 H   0  0  0  0  0  0  0  0  0  0  0  0  # atno 6909 bound_to 6896
  146.1447  140.4976  142.8637 H   0  0  0  0  0  0  0  0  0  0  0  0  # atno 7974 bound_to 7965
  154.7275  140.2724  155.6486 H   0  0  0  0  0  0  0  0  0  0  0  0  # atno 8008 bound_to 7997
  156.2840  140.2722  156.1890 H   0  0  0  0  0  0  0  0  0  0  0  0  # atno 8009 bound_to 7997
  155.0426  140.0371  157.2505 H   0  0  0  0  0  0  0  0  0  0  0  0  # atno 8010 bound_to 7997
  140.1289  144.4662  150.6876 H   0  0  0  0  0  0  0  0  0  0  0  0  # atno 10167 bound_to 10162
  157.2519  131.0780  151.1724 H   0  0  0  0  0  0  0  0  0  0  0  0  # atno 10718 bound_to 10713
  153.0554  135.5044  154.7969 H   0  0  0  0  0  0  0  0  0  0  0  0  # atno 10763 bound_to 10752
  154.6799  135.2966  154.9630 H   0  0  0  0  0  0  0  0  0  0  0  0  # atno 10764 bound_to 10752
  154.0420  135.6715  153.4844 H   0  0  0  0  0  0  0  0  0  0  0  0  # atno 10765 bound_to 10752
  141.1605  133.6841  156.7029 H   0  0  0  0  0  0  0  0  0  0  0  0  # atno 11005 bound_to 11000
  144.7832  140.5883  143.6591 LP  0  0  0  0  0  0  0  0  0  0  0  0  # atno 17320 bound_to 7965
  145.4966  139.1485  143.3680 LP  0  0  0  0  0  0  0  0  0  0  0  0  # atno 17321 bound_to 7965
  140.6829  143.2335  151.5338 LP  0  0  0  0  0  0  0  0  0  0  0  0  # atno 17342 bound_to 10162
  139.5530  144.2347  152.1563 LP  0  0  0  0  0  0  0  0  0  0  0  0  # atno 17343 bound_to 10162
  157.3269  130.6965  149.6301 LP  0  0  0  0  0  0  0  0  0  0  0  0  # atno 17370 bound_to 10713
  155.9666  130.4319  150.4939 LP  0  0  0  0  0  0  0  0  0  0  0  0  # atno 17371 bound_to 10713
  140.2945  134.8214  157.4045 LP  0  0  0  0  0  0  0  0  0  0  0  0  # atno 17394 bound_to 11000
  140.1317  134.5087  155.8100 LP  0  0  0  0  0  0  0  0  0  0  0  0  # atno 17395 bound_to 11000

$$$$
