AV-unprocessed.smi:3348|AV-procd|sdf|12917|dock3
  -GOLD-   2272019333D 1   1.00000     0.00000
 Structure written by MMmdl.
 47 48  0  0  0  0  0  0  0  0  2 V2000
  145.1021  134.8801  154.0500 C   0  0  0  0  0  0  0  0  0  0  0  0
  146.2089  135.3283  153.0856 C   0  0  2  0  0  0  0  0  0  0  0  0
  146.8089  134.1055  152.3547 C   0  0  0  0  0  0  0  0  0  0  0  0
  145.8712  133.4287  151.4771 N   0  0  0  0  0  0  0  0  0  0  0  0
  146.1129  132.3865  150.6065 C   0  0  0  0  0  0  0  0  0  0  0  0
  144.9258  132.0728  150.0090 C   0  0  0  0  0  0  0  0  0  0  0  0
  144.0013  132.9823  150.5948 C   0  0  0  0  0  0  0  0  0  0  0  0
  144.5693  133.7889  151.4770 N   0  0  0  0  0  0  0  0  0  0  0  0
  147.2374  136.0756  153.8467 N   0  3  0  0  0  0  0  0  0  0  0  0
  146.7518  137.2626  154.5828 C   0  0  0  0  0  0  0  0  0  0  0  0
  147.4401  138.5360  154.0842 C   0  0  0  0  0  0  0  0  0  0  0  0
  148.7239  138.6151  154.6836 O   0  0  0  0  0  0  0  0  0  0  0  0
  149.6064  139.5535  154.0771 C   0  0  1  0  0  0  0  0  0  0  0  0
  149.0757  140.9905  154.2702 C   0  0  0  0  0  0  0  0  0  0  0  0
  149.0530  141.3923  155.7541 C   0  0  0  0  0  0  0  0  0  0  0  0
  150.4392  141.2296  156.3954 C   0  0  0  0  0  0  0  0  0  0  0  0
  150.9793  139.8026  156.2075 C   0  0  0  0  0  0  0  0  0  0  0  0
  151.0027  139.3965  154.7199 C   0  0  1  0  0  0  0  0  0  0  0  0
  151.5737  137.9837  154.5207 C   0  0  0  0  0  0  0  0  0  0  0  0
  144.3007  134.3678  153.5168 H   0  0  0  0  0  0  0  0  0  0  0  0
  144.6585  135.7333  154.5645 H   0  0  0  0  0  0  0  0  0  0  0  0
  145.4866  134.1967  154.8080 H   0  0  0  0  0  0  0  0  0  0  0  0
  145.7443  135.9984  152.3605 H   0  0  0  0  0  0  0  0  0  0  0  0
  147.6824  134.4016  151.7722 H   0  0  0  0  0  0  0  0  0  0  0  0
  147.1600  133.3724  153.0825 H   0  0  0  0  0  0  0  0  0  0  0  0
  147.0979  131.9607  150.4834 H   0  0  0  0  0  0  0  0  0  0  0  0
  144.7445  131.3065  149.2700 H   0  0  0  0  0  0  0  0  0  0  0  0
  142.9417  133.0782  150.4079 H   0  0  0  0  0  0  0  0  0  0  0  0
  147.6137  135.4447  154.5404 H   0  0  0  0  0  0  0  0  0  0  0  0
  145.6761  137.3647  154.4507 H   0  0  0  0  0  0  0  0  0  0  0  0
  146.9334  137.1383  155.6510 H   0  0  0  0  0  0  0  0  0  0  0  0
  147.5236  138.5257  152.9964 H   0  0  0  0  0  0  0  0  0  0  0  0
  146.8376  139.4020  154.3584 H   0  0  0  0  0  0  0  0  0  0  0  0
  149.6953  139.3405  153.0102 H   0  0  0  0  0  0  0  0  0  0  0  0
  149.7152  141.6842  153.7231 H   0  0  0  0  0  0  0  0  0  0  0  0
  148.0807  141.1014  153.8401 H   0  0  0  0  0  0  0  0  0  0  0  0
  148.7170  142.4248  155.8546 H   0  0  0  0  0  0  0  0  0  0  0  0
  148.3273  140.7792  156.2899 H   0  0  0  0  0  0  0  0  0  0  0  0
  151.1330  141.9441  155.9506 H   0  0  0  0  0  0  0  0  0  0  0  0
  150.3869  141.4708  157.4574 H   0  0  0  0  0  0  0  0  0  0  0  0
  151.9835  139.7373  156.6279 H   0  0  0  0  0  0  0  0  0  0  0  0
  150.3638  139.1027  156.7743 H   0  0  0  0  0  0  0  0  0  0  0  0
  151.6762  140.0840  154.2056 H   0  0  0  0  0  0  0  0  0  0  0  0
  150.9706  137.2321  155.0309 H   0  0  0  0  0  0  0  0  0  0  0  0
  152.5893  137.9138  154.9118 H   0  0  0  0  0  0  0  0  0  0  0  0
  151.6101  137.7203  153.4632 H   0  0  0  0  0  0  0  0  0  0  0  0
  147.9853  136.3419  153.2226 H   0  0  0  0  0  0  0  0  0  0  0  0
  1  2  1  0  0  0  0
  1 20  1  0  0  0  0
  1 21  1  0  0  0  0
  1 22  1  0  0  0  0
  2  3  1  0  0  0  0
  2  9  1  0  0  0  0
  2 23  1  0  0  0  0
  3  4  1  0  0  0  0
  3 24  1  0  0  0  0
  3 25  1  0  0  0  0
  4  8  1  0  0  0  0
  4  5  1  0  0  0  0
  5  6  2  0  0  0  0
  5 26  1  0  0  0  0
  6  7  1  0  0  0  0
  6 27  1  0  0  0  0
  7  8  2  0  0  0  0
  7 28  1  0  0  0  0
  9 10  1  0  0  0  0
  9 29  1  0  0  0  0
  9 47  1  0  0  0  0
 10 11  1  0  0  0  0
 10 30  1  0  0  0  0
 10 31  1  0  0  0  0
 11 12  1  0  0  0  0
 11 32  1  0  0  0  0
 11 33  1  0  0  0  0
 12 13  1  0  0  0  0
 13 18  1  0  0  0  0
 13 14  1  0  0  0  0
 13 34  1  0  0  0  0
 14 15  1  0  0  0  0
 14 35  1  0  0  0  0
 14 36  1  0  0  0  0
 15 16  1  0  0  0  0
 15 37  1  0  0  0  0
 15 38  1  0  0  0  0
 16 17  1  0  0  0  0
 16 39  1  0  0  0  0
 16 40  1  0  0  0  0
 17 18  1  0  0  0  0
 17 41  1  0  0  0  0
 17 42  1  0  0  0  0
 18 19  1  0  0  0  0
 18 43  1  0  0  0  0
 19 44  1  0  0  0  0
 19 45  1  0  0  0  0
 19 46  1  0  0  0  0
M  CHG  1   9   1
M  END
> <s_m_source_file>
AV-unprocessed.smi

> <i_m_source_file_index>
3348

> <i_lp_mmshare_version>
43012

> <i_f3d_flags>
0

> <s_epik_input>
bjFbY0hdW2NIXVtjSF1uMVtDSDJdW0NAQEhdKFtDSDNdKVtOSF1bQ0gyXVtDSDJdT1tDQEBIXTJbQ0gyXVtDSDJdW0NIMl1bQ0gyXVtDQEhdMltDSDNd

> <s_epik_cmdline>
J2VwaWtfcHl0aG9uJywgJy1waCcsICc3LjAnLCAnLXRuJywgJzgnLCAnLW1hJywgJzIwMCcsICctbWV0YWxfYmluZGluZycsICctaW1hZScsICc8aW5maWxlLm1hZT4nLCAnLW9tYWUnLCAnPG91dGZpbGUubWFlPic=

> <r_lp_tautomer_probability>
1

> <r_epik_Ionization_Penalty>
0.00925088

> <r_epik_Ionization_Penalty_Charging>
0.00924645

> <r_epik_Ionization_Penalty_Neutral>
4.42413e-06

> <r_epik_State_Penalty>
0.0070118

> <r_epik_Charging_Adjusted_Penalty>
0.0162583

> <i_epik_Tot_Q>
1

> <i_epik_Tot_abs_Q>
1

> <r_epik_Metal_State_Penalty>
0.00701222

> <b_epik_Metal_Only>
0

> <s_lp_Force_Field>
OPLS_2005

> <r_lp_Energy>
17.627

> <b_lp_Chiralities_Consistent>
1

> <s_lp_Variant>
AV-unprocessed.smi:3348-3

> <Gold.Version>
5.8.1

> <Gold.Id.Protein>
6NUR|6NUR_protein|mol2

> <Gold.PLP.Fitness>
43.8036

> <Gold.PLP.PLP>
-32.8548

> <Gold.PLP.part.hbond>
-1.0000

> <Gold.PLP.part.metal>
0.0000

> <Gold.PLP.part.buried>
-1.2824

> <Gold.PLP.part.nonpolar>
-30.1011

> <Gold.PLP.part.repulsive>
0.2538

> <Gold.PLP.ligand.clash>
0.0000

> <Gold.PLP.ligand.torsion>
0.6052

> <Gold.PLP.Chemscore.Hbond>
2.0000

> <Gold.PLP.Chemscore.CHOScore>
2.0000

> <Gold.PLP.Chemscore.Metal>
0.0000

> <Gold.Chemscore.Hbonds>
donor molecule, donor type, donor heavy atom, donor atom, acceptor molecule, acceptor atom, score
      L1  H     9    47       P1  7948  2.00
      L1  C     5    26       P1 10747  1.00
      L1  C     7    28       P1 10186  1.00

> <Gold.PLP.Chemscore.Internal.Correction>
0.1593

> <Gold.Rescore>
     Score         DG    S(hbond)    S(metal)    S(lipo)     H(rot)  DE(clash)    DE(int)     intcor
     13.79     -14.70       0.99        0.00      90.17       1.82       0.20       0.71       ----

> <Gold.Chemscore.Fitness>
13.7881

> <Gold.Chemscore.DG>
-14.6988

> <Gold.Chemscore.ZeroCoef>
-5.4800

> <Gold.Chemscore.Hbond>
0.9937

> <Gold.Chemscore.Metal>
0.0000

> <Gold.Chemscore.Lipo>
90.1673

> <Gold.Chemscore.Internal_Hbond>
0.0000

> <Gold.Chemscore.DEClash>
0.2043

> <Gold.Chemscore.DEInternal>
0.7065

> <Gold.Chemscore.Rot>
1.8163

> <Gold.Chemscore.Internal.Correction>
   9.000000E+99

> <Gold.Chemscore.Hbonds>
donor molecule, donor type, donor heavy atom, donor atom, acceptor molecule, acceptor atom, score
      L1  H     9    47       P1  7948  0.98

> <Gold.Chemscore.Hbond.Weighted>
-3.3190

> <Gold.Chemscore.Metal.Weighted>
-0.0000

> <Gold.Chemscore.Lipo.Weighted>
-10.5496

> <Gold.Chemscore.Internal_Hbond.Weighted>
0.0000

> <Gold.Chemscore.DEClash.Weighted>
0.2043

> <Gold.Chemscore.DEInternal.Weighted>
0.7065

> <Gold.Chemscore.Rot.Weighted>
4.6497

> <Gold.Chemscore.Internal.Correction.Weighted>
   9.000000E+99

> <Gold.Protein.RotatedTorsions>
[ 6907 6896 6895 6894 ] final -101.97 input  -60.11 | X-H torsion
[ 7974 7965 7964 7962 ] final  155.49 input  175.53 | X-H torsion
[ 8008 7997 7996 7995 ] final -166.76 input   59.86 | X-H torsion
[ 10167 10162 10161 10158 ] final -136.70 input  -65.29 | X-H torsion
[ 10718 10713 10712 10709 ] final  -39.50 input   66.30 | X-H torsion
[ 10763 10752 10751 10750 ] final  -75.01 input  -60.55 | X-H torsion
[ 11005 11000 10999 10996 ] final  146.51 input  -57.11 | X-H torsion

> <Gold.Protein.ActiveResidues>
 VAL166  LYS551  ARG553  GLY616  TRP617  ASP618  TYR619  PRO620  LYS621  CYS622 
 ASP623  PHE694  ASN695  SER759  ASP760  ASP761  ALA762  ILE779  LEU786  VAL792 
 PHE793  MET794  SER795  GLU796  ALA797  LYS798  CYS799  TRP800  GLU811  SER814 

> <Gold.Protein.RotatedAtoms>
  150.7176  134.0653  159.3845 H   0  0  0  0  0  0  0  0  0  0  0  0  # atno 6907 bound_to 6896
  151.8633  135.0514  160.0481 H   0  0  0  0  0  0  0  0  0  0  0  0  # atno 6908 bound_to 6896
  152.2700  133.5338  159.5470 H   0  0  0  0  0  0  0  0  0  0  0  0  # atno 6909 bound_to 6896
  144.8022  139.7075  143.6177 H   0  0  0  0  0  0  0  0  0  0  0  0  # atno 7974 bound_to 7965
  155.8683  140.0989  157.1567 H   0  0  0  0  0  0  0  0  0  0  0  0  # atno 8008 bound_to 7997
  154.3995  140.1352  156.4109 H   0  0  0  0  0  0  0  0  0  0  0  0  # atno 8009 bound_to 7997
  155.7779  140.3459  155.5284 H   0  0  0  0  0  0  0  0  0  0  0  0  # atno 8010 bound_to 7997
  139.8651  143.7027  152.2646 H   0  0  0  0  0  0  0  0  0  0  0  0  # atno 10167 bound_to 10162
  156.2918  130.4229  149.8231 H   0  0  0  0  0  0  0  0  0  0  0  0  # atno 10718 bound_to 10713
  154.4807  135.5845  153.6388 H   0  0  0  0  0  0  0  0  0  0  0  0  # atno 10763 bound_to 10752
  152.9847  135.6089  154.3249 H   0  0  0  0  0  0  0  0  0  0  0  0  # atno 10764 bound_to 10752
  154.3140  135.2844  155.2531 H   0  0  0  0  0  0  0  0  0  0  0  0  # atno 10765 bound_to 10752
  140.0800  134.9103  157.1484 H   0  0  0  0  0  0  0  0  0  0  0  0  # atno 11005 bound_to 11000
  146.2306  139.5806  142.9558 LP  0  0  0  0  0  0  0  0  0  0  0  0  # atno 17320 bound_to 7965
  145.5526  141.0412  143.2270 LP  0  0  0  0  0  0  0  0  0  0  0  0  # atno 17321 bound_to 7965
  139.7336  144.7576  151.0762 LP  0  0  0  0  0  0  0  0  0  0  0  0  # atno 17342 bound_to 10162
  140.7769  143.5058  150.9714 LP  0  0  0  0  0  0  0  0  0  0  0  0  # atno 17343 bound_to 10162
  156.5641  130.8396  151.3337 LP  0  0  0  0  0  0  0  0  0  0  0  0  # atno 17370 bound_to 10713
  157.7344  130.9746  150.2029 LP  0  0  0  0  0  0  0  0  0  0  0  0  # atno 17371 bound_to 10713
  140.3502  134.2607  155.7199 LP  0  0  0  0  0  0  0  0  0  0  0  0  # atno 17394 bound_to 11000
  141.2043  133.7890  157.0294 LP  0  0  0  0  0  0  0  0  0  0  0  0  # atno 17395 bound_to 11000

$$$$
