AV-unprocessed.smi:2476|AV-procd|sdf|9758|dock4
  -GOLD-   2272013403D 1   1.00000     0.00000
 Structure written by MMmdl.
 34 35  0  0  0  0  0  0  0  0  1 V2000
  148.8640  132.9652  153.1718 C   0  0  0  0  0  0  0  0  0  0  0  0
  149.3993  133.5756  154.4629 C   0  0  0  0  0  0  0  0  0  0  0  0
  149.6008  132.8588  155.4425 O   0  0  0  0  0  0  0  0  0  0  0  0
  149.6244  134.8981  154.4529 N   0  0  0  0  0  0  0  0  0  0  0  0
  150.1411  135.6695  155.5788 C   0  0  0  0  0  0  0  0  0  0  0  0
  150.5345  137.1038  155.1802 C   0  0  1  0  0  0  0  0  0  0  0  0
  150.9055  137.9870  156.3909 C   0  0  0  0  0  0  0  0  0  0  0  0
  151.3629  139.2945  155.9378 N   0  0  0  0  0  0  0  0  0  0  0  0
  151.6009  140.1999  156.9826 C   0  0  0  0  0  0  0  0  0  0  0  0
  152.6432  139.9582  157.8151 N   0  0  0  0  0  0  0  0  0  0  0  0
  152.8761  140.8301  158.8198 C   0  0  0  0  0  0  0  0  0  0  0  0
  152.0901  141.9768  159.0464 C   0  0  0  0  0  0  0  0  0  0  0  0
  151.0072  142.2259  158.1819 C   0  0  0  0  0  0  0  0  0  0  0  0
  150.7564  141.3226  157.1307 C   0  0  0  0  0  0  0  0  0  0  0  0
  149.7225  141.5337  156.2808 F   0  0  0  0  0  0  0  0  0  0  0  0
  152.4614  139.2017  154.9853 C   0  0  0  0  0  0  0  0  0  0  0  0
  152.0598  138.2942  153.8110 C   0  0  0  0  0  0  0  0  0  0  0  0
  151.6609  137.0203  154.3092 O   0  0  0  0  0  0  0  0  0  0  0  0
  149.0654  133.6083  152.3142 H   0  0  0  0  0  0  0  0  0  0  0  0
  147.7868  132.8153  153.2449 H   0  0  0  0  0  0  0  0  0  0  0  0
  149.3329  131.9983  152.9876 H   0  0  0  0  0  0  0  0  0  0  0  0
  149.4256  135.4072  153.6039 H   0  0  0  0  0  0  0  0  0  0  0  0
  149.3721  135.6975  156.3514 H   0  0  0  0  0  0  0  0  0  0  0  0
  150.9967  135.1526  156.0169 H   0  0  0  0  0  0  0  0  0  0  0  0
  149.7062  137.5604  154.6350 H   0  0  0  0  0  0  0  0  0  0  0  0
  150.0434  138.1142  157.0467 H   0  0  0  0  0  0  0  0  0  0  0  0
  151.6897  137.5050  156.9766 H   0  0  0  0  0  0  0  0  0  0  0  0
  153.7151  140.6073  159.4626 H   0  0  0  0  0  0  0  0  0  0  0  0
  152.3128  142.6481  159.8626 H   0  0  0  0  0  0  0  0  0  0  0  0
  150.3807  143.0943  158.3221 H   0  0  0  0  0  0  0  0  0  0  0  0
  152.7201  140.1963  154.6200 H   0  0  0  0  0  0  0  0  0  0  0  0
  153.3460  138.7974  155.4795 H   0  0  0  0  0  0  0  0  0  0  0  0
  151.2502  138.7413  153.2318 H   0  0  0  0  0  0  0  0  0  0  0  0
  152.9025  138.1625  153.1326 H   0  0  0  0  0  0  0  0  0  0  0  0
  1  2  1  0  0  0  0
  1 19  1  0  0  0  0
  1 20  1  0  0  0  0
  1 21  1  0  0  0  0
  2  3  2  0  0  0  0
  2  4  1  0  0  0  0
  4  5  1  0  0  0  0
  4 22  1  0  0  0  0
  5  6  1  0  0  0  0
  5 23  1  0  0  0  0
  5 24  1  0  0  0  0
  6 18  1  0  0  0  0
  6  7  1  0  0  0  0
  6 25  1  0  0  0  0
  7  8  1  0  0  0  0
  7 26  1  0  0  0  0
  7 27  1  0  0  0  0
  8  9  1  0  0  0  0
  8 16  1  0  0  0  0
  9 14  1  0  0  0  0
  9 10  2  0  0  0  0
 10 11  1  0  0  0  0
 11 12  2  0  0  0  0
 11 28  1  0  0  0  0
 12 13  1  0  0  0  0
 12 29  1  0  0  0  0
 13 14  2  0  0  0  0
 13 30  1  0  0  0  0
 14 15  1  0  0  0  0
 16 17  1  0  0  0  0
 16 31  1  0  0  0  0
 16 32  1  0  0  0  0
 17 18  1  0  0  0  0
 17 33  1  0  0  0  0
 17 34  1  0  0  0  0
M  END
> <s_m_source_file>
AV-unprocessed.smi

> <i_m_source_file_index>
2476

> <i_lp_mmshare_version>
43012

> <i_f3d_flags>
0

> <s_epik_input>
W0NIM11DKD1PKVtOSF1bQ0gyXVtDQEBIXTFbQ0gyXU4oW0NIMl1bQ0gyXU8xKWMybltjSF1bY0hdW2NIXWMyRg==

> <s_epik_cmdline>
J2VwaWtfcHl0aG9uJywgJy1waCcsICc3LjAnLCAnLXRuJywgJzgnLCAnLW1hJywgJzIwMCcsICctbWV0YWxfYmluZGluZycsICctaW1hZScsICc8aW5maWxlLm1hZT4nLCAnLW9tYWUnLCAnPG91dGZpbGUubWFlPic=

> <r_lp_tautomer_probability>
1

> <r_epik_Ionization_Penalty>
1.69306e-05

> <r_epik_Ionization_Penalty_Charging>
0

> <r_epik_Ionization_Penalty_Neutral>
1.69306e-05

> <r_epik_State_Penalty>
-0

> <r_epik_Charging_Adjusted_Penalty>
0

> <i_epik_Tot_Q>
0

> <i_epik_Tot_abs_Q>
0

> <r_epik_Metal_State_Penalty>
-0

> <b_epik_Metal_Only>
0

> <s_lp_Force_Field>
OPLS_2005

> <r_lp_Energy>
19.3351

> <b_lp_Chiralities_Consistent>
1

> <s_lp_Variant>
AV-unprocessed.smi:2476-2

> <Gold.Version>
5.8.1

> <Gold.Id.Protein>
6NUR|6NUR_protein|mol2

> <Gold.PLP.Fitness>
38.2505

> <Gold.PLP.PLP>
-29.4422

> <Gold.PLP.part.hbond>
-3.0000

> <Gold.PLP.part.metal>
0.0000

> <Gold.PLP.part.buried>
-4.2752

> <Gold.PLP.part.nonpolar>
-21.6409

> <Gold.PLP.part.repulsive>
0.1970

> <Gold.PLP.ligand.clash>
0.0000

> <Gold.PLP.ligand.torsion>
0.1493

> <Gold.PLP.Chemscore.Hbond>
3.0000

> <Gold.PLP.Chemscore.CHOScore>
0.0000

> <Gold.PLP.Chemscore.Metal>
0.0000

> <Gold.Chemscore.Hbonds>
donor molecule, donor type, donor heavy atom, donor atom, acceptor molecule, acceptor atom, score
      L1  H     4    22       P1  7948  0.95
      P1  H  7997  8008       L1    10  0.82
      P1  H 10752 10763       L1    18  1.00

> <Gold.PLP.Chemscore.Internal.Correction>
0.1068

> <Gold.Rescore>
     Score         DG    S(hbond)    S(metal)    S(lipo)     H(rot)  DE(clash)    DE(int)     intcor
     13.66     -14.56       1.65        0.00      65.67       1.61       0.42       0.47       ----

> <Gold.Chemscore.Fitness>
13.6636

> <Gold.Chemscore.DG>
-14.5550

> <Gold.Chemscore.ZeroCoef>
-5.4800

> <Gold.Chemscore.Hbond>
1.6489

> <Gold.Chemscore.Metal>
0.0000

> <Gold.Chemscore.Lipo>
65.6733

> <Gold.Chemscore.Internal_Hbond>
0.0000

> <Gold.Chemscore.DEClash>
0.4250

> <Gold.Chemscore.DEInternal>
0.4665

> <Gold.Chemscore.Rot>
1.6078

> <Gold.Chemscore.Internal.Correction>
   9.000000E+99

> <Gold.Chemscore.Hbonds>
donor molecule, donor type, donor heavy atom, donor atom, acceptor molecule, acceptor atom, score
      L1  H     4    22       P1  7948  0.21
      P1  H  7997  8008       L1    10  0.14
      P1  H 10752 10763       L1    18  0.87

> <Gold.Chemscore.Hbond.Weighted>
-5.5072

> <Gold.Chemscore.Metal.Weighted>
-0.0000

> <Gold.Chemscore.Lipo.Weighted>
-7.6838

> <Gold.Chemscore.Internal_Hbond.Weighted>
0.0000

> <Gold.Chemscore.DEClash.Weighted>
0.4250

> <Gold.Chemscore.DEInternal.Weighted>
0.4665

> <Gold.Chemscore.Rot.Weighted>
4.1159

> <Gold.Chemscore.Internal.Correction.Weighted>
   9.000000E+99

> <Gold.Protein.RotatedTorsions>
[ 6907 6896 6895 6894 ] final   38.21 input  -60.11 | X-H torsion
[ 7974 7965 7964 7962 ] final   95.52 input  175.53 | X-H torsion
[ 8008 7997 7996 7995 ] final  -77.40 input   59.86 | X-H torsion
[ 10167 10162 10161 10158 ] final   82.68 input  -65.29 | X-H torsion
[ 10718 10713 10712 10709 ] final  163.75 input   66.30 | X-H torsion
[ 10763 10752 10751 10750 ] final   33.71 input  -60.55 | X-H torsion
[ 11005 11000 10999 10996 ] final  157.08 input  -57.11 | X-H torsion

> <Gold.Protein.ActiveResidues>
 VAL166  LYS551  ARG553  GLY616  TRP617  ASP618  TYR619  PRO620  LYS621  CYS622 
 ASP623  PHE694  ASN695  SER759  ASP760  ASP761  ALA762  ILE779  LEU786  VAL792 
 PHE793  MET794  SER795  GLU796  ALA797  LYS798  CYS799  TRP800  GLU811  SER814 

> <Gold.Protein.RotatedAtoms>
  152.1535  134.8969  160.0546 H   0  0  0  0  0  0  0  0  0  0  0  0  # atno 6907 bound_to 6896
  151.9992  133.3814  159.4183 H   0  0  0  0  0  0  0  0  0  0  0  0  # atno 6908 bound_to 6896
  150.6878  134.3774  159.5063 H   0  0  0  0  0  0  0  0  0  0  0  0  # atno 6909 bound_to 6896
  145.4511  139.2293  143.3039 H   0  0  0  0  0  0  0  0  0  0  0  0  # atno 7974 bound_to 7965
  154.5592  140.0711  156.8792 H   0  0  0  0  0  0  0  0  0  0  0  0  # atno 8008 bound_to 7997
  155.2843  140.3374  155.4238 H   0  0  0  0  0  0  0  0  0  0  0  0  # atno 8009 bound_to 7997
  156.2028  140.1728  156.7849 H   0  0  0  0  0  0  0  0  0  0  0  0  # atno 8010 bound_to 7997
  139.9262  144.6181  150.8390 H   0  0  0  0  0  0  0  0  0  0  0  0  # atno 10167 bound_to 10162
  157.1041  131.0450  151.2485 H   0  0  0  0  0  0  0  0  0  0  0  0  # atno 10718 bound_to 10713
  153.0198  135.6379  154.1555 H   0  0  0  0  0  0  0  0  0  0  0  0  # atno 10763 bound_to 10752
  154.1290  135.2841  155.3191 H   0  0  0  0  0  0  0  0  0  0  0  0  # atno 10764 bound_to 10752
  154.6208  135.5525  153.7635 H   0  0  0  0  0  0  0  0  0  0  0  0  # atno 10765 bound_to 10752
  140.1736  134.8526  157.2719 H   0  0  0  0  0  0  0  0  0  0  0  0  # atno 11005 bound_to 11000
  146.2504  140.5270  142.8896 LP  0  0  0  0  0  0  0  0  0  0  0  0  # atno 17320 bound_to 7965
  144.8061  140.6302  143.6446 LP  0  0  0  0  0  0  0  0  0  0  0  0  # atno 17321 bound_to 7965
  140.7649  143.3262  151.2511 LP  0  0  0  0  0  0  0  0  0  0  0  0  # atno 17342 bound_to 10162
  139.6820  143.9838  152.2813 LP  0  0  0  0  0  0  0  0  0  0  0  0  # atno 17343 bound_to 10162
  157.4616  130.7656  149.7241 LP  0  0  0  0  0  0  0  0  0  0  0  0  # atno 17370 bound_to 10713
  155.9866  130.3973  150.3203 LP  0  0  0  0  0  0  0  0  0  0  0  0  # atno 17371 bound_to 10713
  140.2349  134.3865  155.7505 LP  0  0  0  0  0  0  0  0  0  0  0  0  # atno 17394 bound_to 11000
  141.2219  133.7234  156.8698 LP  0  0  0  0  0  0  0  0  0  0  0  0  # atno 17395 bound_to 11000

$$$$
