AV-unprocessed.smi:2533|AV-procd|sdf|9972|dock4
  -GOLD-   2272014 23D 1   1.00000     0.00000
 Structure written by MMmdl.
 35 36  0  0  0  0  0  0  0  0  1 V2000
  147.6432  141.8411  154.7266 C   0  0  0  0  0  0  0  0  0  0  0  0
  148.7368  141.6736  155.6171 O   0  0  0  0  0  0  0  0  0  0  0  0
  148.7419  140.5660  156.4384 C   0  0  0  0  0  0  0  0  0  0  0  0
  147.6740  139.6378  156.5263 C   0  0  0  0  0  0  0  0  0  0  0  0
  147.7571  138.5339  157.3963 C   0  0  0  0  0  0  0  0  0  0  0  0
  148.9048  138.3371  158.1918 C   0  0  0  0  0  0  0  0  0  0  0  0
  148.9852  137.1656  159.1609 C   0  0  2  0  0  0  0  0  0  0  0  0
  150.1380  136.3754  158.9528 O   0  0  0  0  0  0  0  0  0  0  0  0
  147.7438  136.2467  159.1022 C   0  0  0  0  0  0  0  0  0  0  0  0
  147.5032  135.5413  160.3694 N   0  0  0  0  0  0  0  0  0  0  0  0
  147.4827  134.1630  160.2408 N   0  0  0  0  0  0  0  0  0  0  0  0
  147.3055  133.3926  161.2654 C   0  0  0  0  0  0  0  0  0  0  0  0
  147.3095  131.9035  161.0235 C   0  0  0  0  0  0  0  0  0  0  0  0
  146.1348  131.3611  161.3455 F   0  0  0  0  0  0  0  0  0  0  0  0
  147.5555  131.6486  159.7381 F   0  0  0  0  0  0  0  0  0  0  0  0
  148.2589  131.3239  161.7584 F   0  0  0  0  0  0  0  0  0  0  0  0
  147.1162  133.9928  162.5751 C   0  0  0  0  0  0  0  0  0  0  0  0
  147.1372  135.3368  162.6992 C   0  0  0  0  0  0  0  0  0  0  0  0
  147.3468  136.2124  161.5491 C   0  0  0  0  0  0  0  0  0  0  0  0
  147.3886  137.4390  161.6386 O   0  0  0  0  0  0  0  0  0  0  0  0
  149.9700  139.2563  158.1052 C   0  0  0  0  0  0  0  0  0  0  0  0
  149.8873  140.3606  157.2360 C   0  0  0  0  0  0  0  0  0  0  0  0
  150.9198  141.2351  157.1716 F   0  0  0  0  0  0  0  0  0  0  0  0
  147.7801  142.7600  154.1564 H   0  0  0  0  0  0  0  0  0  0  0  0
  146.6989  141.9266  155.2660 H   0  0  0  0  0  0  0  0  0  0  0  0
  147.5798  141.0177  154.0141 H   0  0  0  0  0  0  0  0  0  0  0  0
  146.7758  139.7524  155.9389 H   0  0  0  0  0  0  0  0  0  0  0  0
  146.9291  137.8430  157.4595 H   0  0  0  0  0  0  0  0  0  0  0  0
  149.0707  137.5674  160.1714 H   0  0  0  0  0  0  0  0  0  0  0  0
  150.6363  136.7541  158.2447 H   0  0  0  0  0  0  0  0  0  0  0  0
  146.8703  136.8283  158.8026 H   0  0  0  0  0  0  0  0  0  0  0  0
  147.8747  135.5075  158.3097 H   0  0  0  0  0  0  0  0  0  0  0  0
  146.9606  133.3660  163.4406 H   0  0  0  0  0  0  0  0  0  0  0  0
  146.9968  135.7786  163.6748 H   0  0  0  0  0  0  0  0  0  0  0  0
  150.8520  139.1246  158.7146 H   0  0  0  0  0  0  0  0  0  0  0  0
  1  2  1  0  0  0  0
  1 24  1  0  0  0  0
  1 25  1  0  0  0  0
  1 26  1  0  0  0  0
  2  3  1  0  0  0  0
  3 22  1  0  0  0  0
  3  4  2  0  0  0  0
  4  5  1  0  0  0  0
  4 27  1  0  0  0  0
  5  6  2  0  0  0  0
  5 28  1  0  0  0  0
  6  7  1  0  0  0  0
  6 21  1  0  0  0  0
  7  8  1  0  0  0  0
  7  9  1  0  0  0  0
  7 29  1  0  0  0  0
  8 30  1  0  0  0  0
  9 10  1  0  0  0  0
  9 31  1  0  0  0  0
  9 32  1  0  0  0  0
 10 19  1  0  0  0  0
 10 11  1  0  0  0  0
 11 12  2  0  0  0  0
 12 13  1  0  0  0  0
 12 17  1  0  0  0  0
 13 14  1  0  0  0  0
 13 15  1  0  0  0  0
 13 16  1  0  0  0  0
 17 18  2  0  0  0  0
 17 33  1  0  0  0  0
 18 19  1  0  0  0  0
 18 34  1  0  0  0  0
 19 20  2  0  0  0  0
 21 22  2  0  0  0  0
 21 35  1  0  0  0  0
 22 23  1  0  0  0  0
M  END
> <s_m_source_file>
AV-unprocessed.smi

> <i_m_source_file_index>
2533

> <i_lp_mmshare_version>
43012

> <i_f3d_flags>
0

> <s_epik_input>
W0NIM11PYzFbY0hdW2NIXWMoW2NIXWMxRilbQ0BIXShbT0hdKVtDSDJdbjJuYyhDKEYpKEYpRilbY0hdW2NIXWMyPU8=

> <s_epik_cmdline>
J2VwaWtfcHl0aG9uJywgJy1waCcsICc3LjAnLCAnLXRuJywgJzgnLCAnLW1hJywgJzIwMCcsICctbWV0YWxfYmluZGluZycsICctaW1hZScsICc8aW5maWxlLm1hZT4nLCAnLW9tYWUnLCAnPG91dGZpbGUubWFlPic=

> <r_lp_tautomer_probability>
1

> <r_epik_Ionization_Penalty>
5.00966e-08

> <r_epik_Ionization_Penalty_Charging>
3.92872e-09

> <r_epik_Ionization_Penalty_Neutral>
4.61679e-08

> <r_epik_State_Penalty>
-0

> <r_epik_Charging_Adjusted_Penalty>
3.92872e-09

> <i_epik_Tot_Q>
0

> <i_epik_Tot_abs_Q>
0

> <r_epik_Metal_State_Penalty>
-0

> <b_epik_Metal_Only>
0

> <s_lp_Force_Field>
OPLS_2005

> <r_lp_Energy>
31.2936

> <b_lp_Chiralities_Consistent>
1

> <s_lp_Variant>
AV-unprocessed.smi:2533-1

> <Gold.Version>
5.8.1

> <Gold.Id.Protein>
6NUR|6NUR_protein|mol2

> <Gold.PLP.Fitness>
44.5570

> <Gold.PLP.PLP>
-37.0659

> <Gold.PLP.part.hbond>
-3.0000

> <Gold.PLP.part.metal>
0.0000

> <Gold.PLP.part.buried>
-5.6230

> <Gold.PLP.part.nonpolar>
-28.9822

> <Gold.PLP.part.repulsive>
0.3357

> <Gold.PLP.ligand.clash>
0.0000

> <Gold.PLP.ligand.torsion>
0.3416

> <Gold.PLP.Chemscore.Hbond>
2.7120

> <Gold.PLP.Chemscore.CHOScore>
0.0000

> <Gold.PLP.Chemscore.Metal>
0.0000

> <Gold.Chemscore.Hbonds>
donor molecule, donor type, donor heavy atom, donor atom, acceptor molecule, acceptor atom, score
      P1  H  6896  6908       L1     8  1.00
      P1  H  6931  6943       L1    20  0.78
      P1  H  6934  6947       L1    20  0.80

> <Gold.PLP.Chemscore.Internal.Correction>
0.0384

> <Gold.Rescore>
     Score         DG    S(hbond)    S(metal)    S(lipo)     H(rot)  DE(clash)    DE(int)     intcor
     13.28     -14.71       2.68        0.00      57.13       2.50       0.00       1.43       ----

> <Gold.Chemscore.Fitness>
13.2767

> <Gold.Chemscore.DG>
-14.7085

> <Gold.Chemscore.ZeroCoef>
-5.4800

> <Gold.Chemscore.Hbond>
2.6804

> <Gold.Chemscore.Metal>
0.0000

> <Gold.Chemscore.Lipo>
57.1269

> <Gold.Chemscore.Internal_Hbond>
0.0000

> <Gold.Chemscore.DEClash>
0.0000

> <Gold.Chemscore.DEInternal>
1.4318

> <Gold.Chemscore.Rot>
2.5031

> <Gold.Chemscore.Internal.Correction>
   9.000000E+99

> <Gold.Chemscore.Hbonds>
donor molecule, donor type, donor heavy atom, donor atom, acceptor molecule, acceptor atom, score
      P1  H  6896  6908       L1     8  0.85
      P1  H  6931  6943       L1    20  0.75
      P1  H  6934  6947       L1    20  0.80

> <Gold.Chemscore.Hbond.Weighted>
-8.9525

> <Gold.Chemscore.Metal.Weighted>
-0.0000

> <Gold.Chemscore.Lipo.Weighted>
-6.6838

> <Gold.Chemscore.Internal_Hbond.Weighted>
0.0000

> <Gold.Chemscore.DEClash.Weighted>
0.0000

> <Gold.Chemscore.DEInternal.Weighted>
1.4318

> <Gold.Chemscore.Rot.Weighted>
6.4079

> <Gold.Chemscore.Internal.Correction.Weighted>
   9.000000E+99

> <Gold.Protein.RotatedTorsions>
[ 6907 6896 6895 6894 ] final -157.28 input  -60.11 | X-H torsion
[ 7974 7965 7964 7962 ] final  152.45 input  175.53 | X-H torsion
[ 8008 7997 7996 7995 ] final -109.12 input   59.86 | X-H torsion
[ 10167 10162 10161 10158 ] final  110.26 input  -65.29 | X-H torsion
[ 10718 10713 10712 10709 ] final   52.71 input   66.30 | X-H torsion
[ 10763 10752 10751 10750 ] final  169.52 input  -60.55 | X-H torsion
[ 11005 11000 10999 10996 ] final  -92.61 input  -57.11 | X-H torsion

> <Gold.Protein.ActiveResidues>
 VAL166  LYS551  ARG553  GLY616  TRP617  ASP618  TYR619  PRO620  LYS621  CYS622 
 ASP623  PHE694  ASN695  SER759  ASP760  ASP761  ALA762  ILE779  LEU786  VAL792 
 PHE793  MET794  SER795  GLU796  ALA797  LYS798  CYS799  TRP800  GLU811  SER814 

> <Gold.Protein.RotatedAtoms>
  151.3004  133.4125  159.2639 H   0  0  0  0  0  0  0  0  0  0  0  0  # atno 6907 bound_to 6896
  151.0200  134.9462  159.8064 H   0  0  0  0  0  0  0  0  0  0  0  0  # atno 6908 bound_to 6896
  152.5322  134.2967  159.9116 H   0  0  0  0  0  0  0  0  0  0  0  0  # atno 6909 bound_to 6896
  144.8222  139.6670  143.6095 H   0  0  0  0  0  0  0  0  0  0  0  0  # atno 7974 bound_to 7965
  154.9546  140.0400  157.2160 H   0  0  0  0  0  0  0  0  0  0  0  0  # atno 8008 bound_to 7997
  154.7946  140.2841  155.5944 H   0  0  0  0  0  0  0  0  0  0  0  0  # atno 8009 bound_to 7997
  156.2954  140.2567  156.2801 H   0  0  0  0  0  0  0  0  0  0  0  0  # atno 8010 bound_to 7997
  139.6702  144.7125  151.1702 H   0  0  0  0  0  0  0  0  0  0  0  0  # atno 10167 bound_to 10162
  157.5100  130.8494  149.8423 H   0  0  0  0  0  0  0  0  0  0  0  0  # atno 10718 bound_to 10713
  154.3843  135.2753  155.2192 H   0  0  0  0  0  0  0  0  0  0  0  0  # atno 10763 bound_to 10752
  154.4286  135.5983  153.6058 H   0  0  0  0  0  0  0  0  0  0  0  0  # atno 10764 bound_to 10752
  152.9833  135.5990  154.4090 H   0  0  0  0  0  0  0  0  0  0  0  0  # atno 10765 bound_to 10752
  141.1517  133.7832  157.0045 H   0  0  0  0  0  0  0  0  0  0  0  0  # atno 11005 bound_to 11000
  146.2527  139.6235  142.9416 LP  0  0  0  0  0  0  0  0  0  0  0  0  # atno 17320 bound_to 7965
  145.5080  141.0436  143.2503 LP  0  0  0  0  0  0  0  0  0  0  0  0  # atno 17321 bound_to 7965
  140.7615  143.5856  150.8849 LP  0  0  0  0  0  0  0  0  0  0  0  0  # atno 17342 bound_to 10162
  139.9521  143.6260  152.3026 LP  0  0  0  0  0  0  0  0  0  0  0  0  # atno 17343 bound_to 10162
  156.0283  130.3772  150.1760 LP  0  0  0  0  0  0  0  0  0  0  0  0  # atno 17370 bound_to 10713
  156.9949  130.9905  151.3405 LP  0  0  0  0  0  0  0  0  0  0  0  0  # atno 17371 bound_to 10713
  140.0918  134.9588  157.1788 LP  0  0  0  0  0  0  0  0  0  0  0  0  # atno 17394 bound_to 11000
  140.3435  134.2677  155.7208 LP  0  0  0  0  0  0  0  0  0  0  0  0  # atno 17395 bound_to 11000

$$$$
