AV-unprocessed.smi:245|AV-procd|sdf|1876|dock2
  -GOLD-   2262020513D 1   1.00000     0.00000
 Structure written by MMmdl.
 54 58  0  0  0  0  0  0  0  0  1 V2000
  152.3452  132.1355  158.3169 O   0  0  0  0  0  0  0  0  0  0  0  0
  151.9424  131.2035  157.6248 C   0  0  0  0  0  0  0  0  0  0  0  0
  150.8309  131.4522  156.5899 C   0  0  0  0  0  0  0  0  0  0  0  0
  150.5063  130.3210  155.6996 N   0  0  0  0  0  0  0  0  0  0  0  0
  149.5724  130.5123  154.7121 C   0  0  0  0  0  0  0  0  0  0  0  0
  149.0561  129.4184  154.0870 N   0  0  0  0  0  0  0  0  0  0  0  0
  148.1463  129.5320  153.1184 C   0  0  0  0  0  0  0  0  0  0  0  0
  147.6056  130.6382  152.6139 N   0  0  0  0  0  0  0  0  0  0  0  0
  148.1004  131.7515  153.2248 C   0  0  0  0  0  0  0  0  0  0  0  0
  149.0734  131.7826  154.2704 C   0  0  0  0  0  0  0  0  0  0  0  0
  149.3098  133.1085  154.6239 N   0  0  0  0  0  0  0  0  0  0  0  0
  148.5355  133.8086  153.8437 C   0  0  0  0  0  0  0  0  0  0  0  0
  147.7716  133.0740  152.9689 N   0  0  0  0  0  0  0  0  0  0  0  0
  146.8385  133.5954  152.0087 C   0  0  0  0  0  0  0  0  0  0  0  0
  145.4636  134.1123  152.4379 C   0  0  0  0  0  0  0  0  0  0  0  0
  144.8283  133.5236  151.1580 C   0  0  0  0  0  0  0  0  0  0  0  0
  143.5518  132.6994  151.3854 C   0  0  0  0  0  0  0  0  0  0  0  0
  143.0561  132.1652  150.1743 O   0  0  0  0  0  0  0  0  0  0  0  0
  144.5387  134.5085  150.0043 C   0  0  0  0  0  0  0  0  0  0  0  0
  144.2823  133.8613  148.7738 O   0  0  0  0  0  0  0  0  0  0  0  0
  146.1137  132.6753  151.0228 C   0  0  0  0  0  0  0  0  0  0  0  0
  151.4900  129.2312  155.5748 C   0  0  1  0  0  0  0  0  0  0  0  0
  152.6597  129.6269  154.6394 C   0  0  0  0  0  0  0  0  0  0  0  0
  153.7256  128.5235  154.5637 C   0  0  0  0  0  0  0  0  0  0  0  0
  154.2475  128.1606  155.9614 C   0  0  0  0  0  0  0  0  0  0  0  0
  153.0940  127.7394  156.8863 C   0  0  0  0  0  0  0  0  0  0  0  0
  151.9949  128.8167  156.9764 C   0  0  1  0  0  0  0  0  0  0  0  0
  152.4585  129.9711  157.7373 N   0  0  0  0  0  0  0  0  0  0  0  0
  149.9445  131.7133  157.1674 H   0  0  0  0  0  0  0  0  0  0  0  0
  151.1122  132.3198  155.9912 H   0  0  0  0  0  0  0  0  0  0  0  0
  147.8033  128.6035  152.6868 H   0  0  0  0  0  0  0  0  0  0  0  0
  148.5022  134.8875  153.8884 H   0  0  0  0  0  0  0  0  0  0  0  0
  147.3683  134.3755  151.4600 H   0  0  0  0  0  0  0  0  0  0  0  0
  145.0963  133.6376  153.3487 H   0  0  0  0  0  0  0  0  0  0  0  0
  145.4007  135.1980  152.5186 H   0  0  0  0  0  0  0  0  0  0  0  0
  143.7283  131.8831  152.0867 H   0  0  0  0  0  0  0  0  0  0  0  0
  142.7649  133.3156  151.8219 H   0  0  0  0  0  0  0  0  0  0  0  0
  142.3578  132.7216  149.8641 H   0  0  0  0  0  0  0  0  0  0  0  0
  143.6752  135.1326  150.2369 H   0  0  0  0  0  0  0  0  0  0  0  0
  145.3797  135.1846  149.8468 H   0  0  0  0  0  0  0  0  0  0  0  0
  144.8332  134.2488  148.1110 H   0  0  0  0  0  0  0  0  0  0  0  0
  146.5497  132.6623  150.0236 H   0  0  0  0  0  0  0  0  0  0  0  0
  145.9954  131.6591  151.4004 H   0  0  0  0  0  0  0  0  0  0  0  0
  151.0164  128.3356  155.1703 H   0  0  0  0  0  0  0  0  0  0  0  0
  152.2855  129.8350  153.6368 H   0  0  0  0  0  0  0  0  0  0  0  0
  153.1262  130.5500  154.9846 H   0  0  0  0  0  0  0  0  0  0  0  0
  153.3024  127.6377  154.0881 H   0  0  0  0  0  0  0  0  0  0  0  0
  154.5519  128.8497  153.9315 H   0  0  0  0  0  0  0  0  0  0  0  0
  154.9762  127.3529  155.8867 H   0  0  0  0  0  0  0  0  0  0  0  0
  154.7754  129.0134  156.3897 H   0  0  0  0  0  0  0  0  0  0  0  0
  152.6564  126.8141  156.5095 H   0  0  0  0  0  0  0  0  0  0  0  0
  153.4786  127.5087  157.8805 H   0  0  0  0  0  0  0  0  0  0  0  0
  151.1572  128.3988  157.5373 H   0  0  0  0  0  0  0  0  0  0  0  0
  153.1973  129.8193  158.4085 H   0  0  0  0  0  0  0  0  0  0  0  0
  1  2  2  0  0  0  0
  2 28  1  0  0  0  0
  2  3  1  0  0  0  0
  3  4  1  0  0  0  0
  3 29  1  0  0  0  0
  3 30  1  0  0  0  0
  4  5  1  0  0  0  0
  4 22  1  0  0  0  0
  5 10  1  0  0  0  0
  5  6  2  0  0  0  0
  6  7  1  0  0  0  0
  7  8  2  0  0  0  0
  7 31  1  0  0  0  0
  8  9  1  0  0  0  0
  9 13  1  0  0  0  0
  9 10  2  0  0  0  0
 10 11  1  0  0  0  0
 11 12  2  0  0  0  0
 12 13  1  0  0  0  0
 12 32  1  0  0  0  0
 13 14  1  0  0  0  0
 14 21  1  0  0  0  0
 14 15  1  0  0  0  0
 14 33  1  0  0  0  0
 15 16  1  0  0  0  0
 15 34  1  0  0  0  0
 15 35  1  0  0  0  0
 16 17  1  0  0  0  0
 16 19  1  0  0  0  0
 16 21  1  0  0  0  0
 17 18  1  0  0  0  0
 17 36  1  0  0  0  0
 17 37  1  0  0  0  0
 18 38  1  0  0  0  0
 19 20  1  0  0  0  0
 19 39  1  0  0  0  0
 19 40  1  0  0  0  0
 20 41  1  0  0  0  0
 21 42  1  0  0  0  0
 21 43  1  0  0  0  0
 22 27  1  0  0  0  0
 22 23  1  0  0  0  0
 22 44  1  0  0  0  0
 23 24  1  0  0  0  0
 23 45  1  0  0  0  0
 23 46  1  0  0  0  0
 24 25  1  0  0  0  0
 24 47  1  0  0  0  0
 24 48  1  0  0  0  0
 25 26  1  0  0  0  0
 25 49  1  0  0  0  0
 25 50  1  0  0  0  0
 26 27  1  0  0  0  0
 26 51  1  0  0  0  0
 26 52  1  0  0  0  0
 27 28  1  0  0  0  0
 27 53  1  0  0  0  0
 28 54  1  0  0  0  0
M  END
> <s_m_source_file>
AV-unprocessed.smi

> <i_m_source_file_index>
245

> <i_lp_mmshare_version>
43012

> <i_f3d_flags>
0

> <s_epik_input>
W0NIMl0xW0NIMl1bQ0gyXVtDSDJdW0NASF0oW0NASF0xMilbTkhdQyg9TylbQ0gyXU4yYyhuW2NIXW4zKWMoYzM0KW5bY0hdbjRbQ0hdKFtDSDJdNSlbQ0gyXUM1KFtDSDJdW09IXSlbQ0gyXVtPSF0=

> <s_epik_cmdline>
J2VwaWtfcHl0aG9uJywgJy1waCcsICc3LjAnLCAnLXRuJywgJzgnLCAnLW1hJywgJzIwMCcsICctbWV0YWxfYmluZGluZycsICctaW1hZScsICc8aW5maWxlLm1hZT4nLCAnLW9tYWUnLCAnPG91dGZpbGUubWFlPic=

> <r_lp_tautomer_probability>
1

> <r_epik_Ionization_Penalty>
0.000702616

> <r_epik_Ionization_Penalty_Charging>
0

> <r_epik_Ionization_Penalty_Neutral>
0.000702616

> <r_epik_State_Penalty>
0.000343985

> <r_epik_Charging_Adjusted_Penalty>
0.000343985

> <i_epik_Tot_Q>
0

> <i_epik_Tot_abs_Q>
0

> <r_epik_Metal_State_Penalty>
-0

> <b_epik_Metal_Only>
0

> <s_lp_Force_Field>
OPLS_2005

> <r_lp_Energy>
53.0031

> <b_lp_Chiralities_Consistent>
1

> <s_lp_Variant>
AV-unprocessed.smi:245-1

> <Gold.Version>
5.8.1

> <Gold.Id.Protein>
6NUR|6NUR_protein|mol2

> <Gold.PLP.Fitness>
49.8247

> <Gold.PLP.PLP>
-38.8165

> <Gold.PLP.part.hbond>
-4.1755

> <Gold.PLP.part.metal>
0.0000

> <Gold.PLP.part.buried>
-2.2006

> <Gold.PLP.part.nonpolar>
-33.8490

> <Gold.PLP.part.repulsive>
0.8946

> <Gold.PLP.ligand.clash>
0.0000

> <Gold.PLP.ligand.torsion>
0.7231

> <Gold.PLP.Chemscore.Hbond>
2.9920

> <Gold.PLP.Chemscore.CHOScore>
1.0000

> <Gold.PLP.Chemscore.Metal>
0.0000

> <Gold.Chemscore.Hbonds>
donor molecule, donor type, donor heavy atom, donor atom, acceptor molecule, acceptor atom, score
      L1  H    18    38       P1 10186  0.60
      L1  H    20    41       P1  7921  0.88
      P1  H  6896  6909       L1     1  1.00
      L1  C    12    32       P1  7948  0.78

> <Gold.PLP.Chemscore.Internal.Correction>
0.4784

> <Gold.Rescore>
     Score         DG    S(hbond)    S(metal)    S(lipo)     H(rot)  DE(clash)    DE(int)     intcor
     12.78     -15.83       2.98        0.00      67.27       2.91       0.10       2.96       ----

> <Gold.Chemscore.Fitness>
12.7762

> <Gold.Chemscore.DG>
-15.8342

> <Gold.Chemscore.ZeroCoef>
-5.4800

> <Gold.Chemscore.Hbond>
2.9775

> <Gold.Chemscore.Metal>
0.0000

> <Gold.Chemscore.Lipo>
67.2738

> <Gold.Chemscore.Internal_Hbond>
0.0000

> <Gold.Chemscore.DEClash>
0.0983

> <Gold.Chemscore.DEInternal>
2.9596

> <Gold.Chemscore.Rot>
2.9147

> <Gold.Chemscore.Internal.Correction>
   9.000000E+99

> <Gold.Chemscore.Hbonds>
donor molecule, donor type, donor heavy atom, donor atom, acceptor molecule, acceptor atom, score
      L1  H    18    38       P1 10186  0.60
      L1  H    20    41       P1  7921  0.83
      P1  H  6896  6909       L1     1  0.99
      P1  H 10785 10796       L1    18  0.02

> <Gold.Chemscore.Hbond.Weighted>
-9.9448

> <Gold.Chemscore.Metal.Weighted>
-0.0000

> <Gold.Chemscore.Lipo.Weighted>
-7.8710

> <Gold.Chemscore.Internal_Hbond.Weighted>
0.0000

> <Gold.Chemscore.DEClash.Weighted>
0.0983

> <Gold.Chemscore.DEInternal.Weighted>
2.9596

> <Gold.Chemscore.Rot.Weighted>
7.4617

> <Gold.Chemscore.Internal.Correction.Weighted>
   9.000000E+99

> <Gold.Protein.RotatedTorsions>
[ 6907 6896 6895 6894 ] final  -60.46 input  -60.11 | X-H torsion
[ 7974 7965 7964 7962 ] final  -92.47 input  175.53 | X-H torsion
[ 8008 7997 7996 7995 ] final  -27.58 input   59.86 | X-H torsion
[ 10167 10162 10161 10158 ] final  -72.32 input  -65.29 | X-H torsion
[ 10718 10713 10712 10709 ] final    4.42 input   66.30 | X-H torsion
[ 10763 10752 10751 10750 ] final -113.28 input  -60.55 | X-H torsion
[ 11005 11000 10999 10996 ] final -166.05 input  -57.11 | X-H torsion

> <Gold.Protein.ActiveResidues>
 VAL166  LYS551  ARG553  GLY616  TRP617  ASP618  TYR619  PRO620  LYS621  CYS622 
 ASP623  PHE694  ASN695  SER759  ASP760  ASP761  ALA762  ILE779  LEU786  VAL792 
 PHE793  MET794  SER795  GLU796  ALA797  LYS798  CYS799  TRP800  GLU811  SER814 

> <Gold.Protein.RotatedAtoms>
  150.7855  134.6834  159.6456 H   0  0  0  0  0  0  0  0  0  0  0  0  # atno 6907 bound_to 6896
  152.3949  134.6378  160.0102 H   0  0  0  0  0  0  0  0  0  0  0  0  # atno 6908 bound_to 6896
  151.6667  133.3278  159.3223 H   0  0  0  0  0  0  0  0  0  0  0  0  # atno 6909 bound_to 6896
  145.3994  140.9536  143.2296 H   0  0  0  0  0  0  0  0  0  0  0  0  # atno 7974 bound_to 7965
  154.4371  140.1868  156.0955 H   0  0  0  0  0  0  0  0  0  0  0  0  # atno 8008 bound_to 7997
  156.0333  140.3328  155.7137 H   0  0  0  0  0  0  0  0  0  0  0  0  # atno 8009 bound_to 7997
  155.5808  140.0621  157.2774 H   0  0  0  0  0  0  0  0  0  0  0  0  # atno 8010 bound_to 7997
  140.5201  143.2333  151.7444 H   0  0  0  0  0  0  0  0  0  0  0  0  # atno 10167 bound_to 10162
  156.8923  130.5692  149.5649 H   0  0  0  0  0  0  0  0  0  0  0  0  # atno 10718 bound_to 10713
  154.8389  135.4460  154.1325 H   0  0  0  0  0  0  0  0  0  0  0  0  # atno 10763 bound_to 10752
  153.2531  135.6928  153.7664 H   0  0  0  0  0  0  0  0  0  0  0  0  # atno 10764 bound_to 10752
  153.6968  135.3378  155.3191 H   0  0  0  0  0  0  0  0  0  0  0  0  # atno 10765 bound_to 10752
  140.5688  134.5258  157.5158 H   0  0  0  0  0  0  0  0  0  0  0  0  # atno 11005 bound_to 11000
  144.8384  139.5511  143.6911 LP  0  0  0  0  0  0  0  0  0  0  0  0  # atno 17320 bound_to 7965
  146.2759  139.6752  142.9263 LP  0  0  0  0  0  0  0  0  0  0  0  0  # atno 17321 bound_to 7965
  139.4921  144.4266  151.9918 LP  0  0  0  0  0  0  0  0  0  0  0  0  # atno 17342 bound_to 10162
  140.3363  144.3257  150.5976 LP  0  0  0  0  0  0  0  0  0  0  0  0  # atno 17343 bound_to 10162
  156.0623  130.5673  150.9217 LP  0  0  0  0  0  0  0  0  0  0  0  0  # atno 17370 bound_to 10713
  157.6076  131.0938  150.8851 LP  0  0  0  0  0  0  0  0  0  0  0  0  # atno 17371 bound_to 10713
  139.9372  134.7854  156.0773 LP  0  0  0  0  0  0  0  0  0  0  0  0  # atno 17394 bound_to 11000
  141.1069  133.6657  156.2885 LP  0  0  0  0  0  0  0  0  0  0  0  0  # atno 17395 bound_to 11000

$$$$
