AV-unprocessed.smi:2204|AV-procd|sdf|8940|dock6
  -GOLD-   2272012153D 1   1.00000     0.00000
 Structure written by MMmdl.
 39 40  0  0  0  0  0  0  0  0  1 V2000
  147.8376  141.3008  154.2225 C   0  0  0  0  0  0  0  0  0  0  0  0
  148.9997  140.4249  154.5866 C   0  0  0  0  0  0  0  0  0  0  0  0
  149.2244  139.0661  154.2298 C   0  0  0  0  0  0  0  0  0  0  0  0
  150.4153  138.7536  154.8224 C   0  0  0  0  0  0  0  0  0  0  0  0
  151.1824  137.4723  154.8274 C   0  0  0  0  0  0  0  0  0  0  0  0
  150.8452  139.8909  155.4831 N   0  0  0  0  0  0  0  0  0  0  0  0
  152.0378  140.0851  156.2952 C   0  0  0  0  0  0  0  0  0  0  0  0
  151.6761  140.6533  157.6686 C   0  0  0  0  0  0  0  0  0  0  0  0
  150.4979  140.8463  157.9667 O   0  0  0  0  0  0  0  0  0  0  0  0
  152.7053  140.9341  158.4824 N   0  0  0  0  0  0  0  0  0  0  0  0
  152.6179  141.6177  159.7687 C   0  0  1  0  0  0  0  0  0  0  0  0
  154.0245  141.8266  160.3505 C   0  0  0  0  0  0  0  0  0  0  0  0
  151.8619  142.9473  159.5852 C   0  0  1  0  0  0  0  0  0  0  0  0
  151.8203  143.8380  160.8313 C   0  0  0  0  0  0  0  0  0  0  0  0
  151.6996  145.2472  160.2706 C   0  0  0  0  0  0  0  0  0  0  0  0
  151.9634  145.0793  158.7722 C   0  0  0  0  0  0  0  0  0  0  0  0
  152.5193  143.7792  158.6425 O   0  0  0  0  0  0  0  0  0  0  0  0
  149.9756  140.9144  155.3333 N   0  0  0  0  0  0  0  0  0  0  0  0
  147.0063  140.7106  153.8364 H   0  0  0  0  0  0  0  0  0  0  0  0
  148.1180  142.0220  153.4546 H   0  0  0  0  0  0  0  0  0  0  0  0
  147.4747  141.8568  155.0876 H   0  0  0  0  0  0  0  0  0  0  0  0
  148.6019  138.4166  153.6324 H   0  0  0  0  0  0  0  0  0  0  0  0
  150.6717  136.7107  154.2381 H   0  0  0  0  0  0  0  0  0  0  0  0
  151.2952  137.0902  155.8422 H   0  0  0  0  0  0  0  0  0  0  0  0
  152.1770  137.6125  154.4038 H   0  0  0  0  0  0  0  0  0  0  0  0
  152.5548  139.1311  156.4038 H   0  0  0  0  0  0  0  0  0  0  0  0
  152.7228  140.7634  155.7838 H   0  0  0  0  0  0  0  0  0  0  0  0
  153.6348  140.7289  158.1441 H   0  0  0  0  0  0  0  0  0  0  0  0
  152.0444  140.9989  160.4617 H   0  0  0  0  0  0  0  0  0  0  0  0
  153.9777  142.3231  161.3200 H   0  0  0  0  0  0  0  0  0  0  0  0
  154.6403  142.4403  159.6920 H   0  0  0  0  0  0  0  0  0  0  0  0
  154.5364  140.8747  160.4954 H   0  0  0  0  0  0  0  0  0  0  0  0
  150.8438  142.7594  159.2376 H   0  0  0  0  0  0  0  0  0  0  0  0
  151.0010  143.5786  161.5030 H   0  0  0  0  0  0  0  0  0  0  0  0
  152.7515  143.7492  161.3929 H   0  0  0  0  0  0  0  0  0  0  0  0
  150.7108  145.6718  160.4471 H   0  0  0  0  0  0  0  0  0  0  0  0
  152.4355  145.9061  160.7330 H   0  0  0  0  0  0  0  0  0  0  0  0
  151.0291  145.1256  158.2108 H   0  0  0  0  0  0  0  0  0  0  0  0
  152.6365  145.8398  158.3760 H   0  0  0  0  0  0  0  0  0  0  0  0
  1  2  1  0  0  0  0
  1 19  1  0  0  0  0
  1 20  1  0  0  0  0
  1 21  1  0  0  0  0
  2 18  2  0  0  0  0
  2  3  1  0  0  0  0
  3  4  2  0  0  0  0
  3 22  1  0  0  0  0
  4  5  1  0  0  0  0
  4  6  1  0  0  0  0
  5 23  1  0  0  0  0
  5 24  1  0  0  0  0
  5 25  1  0  0  0  0
  6  7  1  0  0  0  0
  6 18  1  0  0  0  0
  7  8  1  0  0  0  0
  7 26  1  0  0  0  0
  7 27  1  0  0  0  0
  8  9  2  0  0  0  0
  8 10  1  0  0  0  0
 10 11  1  0  0  0  0
 10 28  1  0  0  0  0
 11 12  1  0  0  0  0
 11 13  1  0  0  0  0
 11 29  1  0  0  0  0
 12 30  1  0  0  0  0
 12 31  1  0  0  0  0
 12 32  1  0  0  0  0
 13 17  1  0  0  0  0
 13 14  1  0  0  0  0
 13 33  1  0  0  0  0
 14 15  1  0  0  0  0
 14 34  1  0  0  0  0
 14 35  1  0  0  0  0
 15 16  1  0  0  0  0
 15 36  1  0  0  0  0
 15 37  1  0  0  0  0
 16 17  1  0  0  0  0
 16 38  1  0  0  0  0
 16 39  1  0  0  0  0
M  END
> <s_m_source_file>
AV-unprocessed.smi

> <i_m_source_file_index>
2204

> <i_lp_mmshare_version>
43012

> <i_f3d_flags>
0

> <s_epik_input>
W0NIM11jMVtjSF1jKFtDSDNdKW4objEpW0NIMl1DKD1PKVtOSF1bQ0BIXShbQ0gzXSlbQ0BASF0yW0NIMl1bQ0gyXVtDSDJdTzI=

> <s_epik_cmdline>
J2VwaWtfcHl0aG9uJywgJy1waCcsICc3LjAnLCAnLXRuJywgJzgnLCAnLW1hJywgJzIwMCcsICctbWV0YWxfYmluZGluZycsICctaW1hZScsICc8aW5maWxlLm1hZT4nLCAnLW9tYWUnLCAnPG91dGZpbGUubWFlPic=

> <r_lp_tautomer_probability>
1

> <r_epik_Ionization_Penalty>
0.000433354

> <r_epik_Ionization_Penalty_Charging>
0

> <r_epik_Ionization_Penalty_Neutral>
0.000433354

> <r_epik_State_Penalty>
-0

> <r_epik_Charging_Adjusted_Penalty>
0

> <i_epik_Tot_Q>
0

> <i_epik_Tot_abs_Q>
0

> <r_epik_Metal_State_Penalty>
-0

> <b_epik_Metal_Only>
0

> <s_lp_Force_Field>
OPLS_2005

> <r_lp_Energy>
15.4652

> <b_lp_Chiralities_Consistent>
1

> <s_lp_Variant>
AV-unprocessed.smi:2204-4

> <Gold.Version>
5.8.1

> <Gold.Id.Protein>
6NUR|6NUR_protein|mol2

> <Gold.PLP.Fitness>
44.5758

> <Gold.PLP.PLP>
-44.7899

> <Gold.PLP.part.hbond>
-0.6646

> <Gold.PLP.part.metal>
0.0000

> <Gold.PLP.part.buried>
-3.4359

> <Gold.PLP.part.nonpolar>
-40.3321

> <Gold.PLP.part.repulsive>
0.2144

> <Gold.PLP.ligand.clash>
0.0000

> <Gold.PLP.ligand.torsion>
0.1245

> <Gold.PLP.Chemscore.Hbond>
0.0000

> <Gold.PLP.Chemscore.CHOScore>
0.0000

> <Gold.PLP.Chemscore.Metal>
0.0000

> <Gold.PLP.Chemscore.Internal.Correction>
0.0350

> <Gold.Rescore>
     Score         DG    S(hbond)    S(metal)    S(lipo)     H(rot)  DE(clash)    DE(int)     intcor
     11.54     -14.54       0.00        0.00     110.30       1.50       0.19       2.82       ----

> <Gold.Chemscore.Fitness>
11.5381

> <Gold.Chemscore.DG>
-14.5437

> <Gold.Chemscore.ZeroCoef>
-5.4800

> <Gold.Chemscore.Hbond>
0.0000

> <Gold.Chemscore.Metal>
0.0000

> <Gold.Chemscore.Lipo>
110.2987

> <Gold.Chemscore.Internal_Hbond>
0.0000

> <Gold.Chemscore.DEClash>
0.1897

> <Gold.Chemscore.DEInternal>
2.8159

> <Gold.Chemscore.Rot>
1.5005

> <Gold.Chemscore.Internal.Correction>
   9.000000E+99

> <Gold.Chemscore.Hbond.Weighted>
-0.0000

> <Gold.Chemscore.Metal.Weighted>
-0.0000

> <Gold.Chemscore.Lipo.Weighted>
-12.9050

> <Gold.Chemscore.Internal_Hbond.Weighted>
0.0000

> <Gold.Chemscore.DEClash.Weighted>
0.1897

> <Gold.Chemscore.DEInternal.Weighted>
2.8159

> <Gold.Chemscore.Rot.Weighted>
3.8412

> <Gold.Chemscore.Internal.Correction.Weighted>
   9.000000E+99

> <Gold.Protein.RotatedTorsions>
[ 6907 6896 6895 6894 ] final   54.09 input  -60.11 | X-H torsion
[ 7974 7965 7964 7962 ] final   39.93 input  175.53 | X-H torsion
[ 8008 7997 7996 7995 ] final  114.35 input   59.86 | X-H torsion
[ 10167 10162 10161 10158 ] final -159.09 input  -65.29 | X-H torsion
[ 10718 10713 10712 10709 ] final  104.22 input   66.30 | X-H torsion
[ 10763 10752 10751 10750 ] final  -54.97 input  -60.55 | X-H torsion
[ 11005 11000 10999 10996 ] final  -16.96 input  -57.11 | X-H torsion

> <Gold.Protein.ActiveResidues>
 VAL166  LYS551  ARG553  GLY616  TRP617  ASP618  TYR619  PRO620  LYS621  CYS622 
 ASP623  PHE694  ASN695  SER759  ASP760  ASP761  ALA762  ILE779  LEU786  VAL792 
 PHE793  MET794  SER795  GLU796  ALA797  LYS798  CYS799  TRP800  GLU811  SER814 

> <Gold.Protein.RotatedAtoms>
  152.3404  134.7142  160.0265 H   0  0  0  0  0  0  0  0  0  0  0  0  # atno 6907 bound_to 6896
  151.7529  133.3323  159.3404 H   0  0  0  0  0  0  0  0  0  0  0  0  # atno 6908 bound_to 6896
  150.7476  134.6108  159.6129 H   0  0  0  0  0  0  0  0  0  0  0  0  # atno 6909 bound_to 6896
  146.0945  139.5593  142.9454 H   0  0  0  0  0  0  0  0  0  0  0  0  # atno 7974 bound_to 7965
  156.2316  140.2961  156.0202 H   0  0  0  0  0  0  0  0  0  0  0  0  # atno 8008 bound_to 7997
  155.2210  140.0415  157.2965 H   0  0  0  0  0  0  0  0  0  0  0  0  # atno 8009 bound_to 7997
  154.6005  140.2425  155.7806 H   0  0  0  0  0  0  0  0  0  0  0  0  # atno 8010 bound_to 7997
  139.6641  143.9860  152.2244 H   0  0  0  0  0  0  0  0  0  0  0  0  # atno 10167 bound_to 10162
  157.6747  131.0798  150.5673 H   0  0  0  0  0  0  0  0  0  0  0  0  # atno 10718 bound_to 10713
  154.1834  135.6439  153.5040 H   0  0  0  0  0  0  0  0  0  0  0  0  # atno 10763 bound_to 10752
  153.0053  135.5411  154.6491 H   0  0  0  0  0  0  0  0  0  0  0  0  # atno 10764 bound_to 10752
  154.5861  135.2929  155.0656 H   0  0  0  0  0  0  0  0  0  0  0  0  # atno 10765 bound_to 10752
  140.8120  133.8133  155.9573 H   0  0  0  0  0  0  0  0  0  0  0  0  # atno 11005 bound_to 11000
  145.5975  141.0360  143.2036 LP  0  0  0  0  0  0  0  0  0  0  0  0  # atno 17320 bound_to 7965
  144.7385  139.7516  143.7320 LP  0  0  0  0  0  0  0  0  0  0  0  0  # atno 17321 bound_to 7965
  139.9607  144.6560  150.8082 LP  0  0  0  0  0  0  0  0  0  0  0  0  # atno 17342 bound_to 10162
  140.7592  143.3124  151.2813 LP  0  0  0  0  0  0  0  0  0  0  0  0  # atno 17343 bound_to 10162
  156.5974  130.4345  149.5911 LP  0  0  0  0  0  0  0  0  0  0  0  0  # atno 17370 bound_to 10713
  156.2533  130.6920  151.1665 LP  0  0  0  0  0  0  0  0  0  0  0  0  # atno 17371 bound_to 10713
  140.9188  134.2168  157.4940 LP  0  0  0  0  0  0  0  0  0  0  0  0  # atno 17394 bound_to 11000
  139.8713  134.9783  156.4991 LP  0  0  0  0  0  0  0  0  0  0  0  0  # atno 17395 bound_to 11000

$$$$
