AV-unprocessed.smi:234|AV-procd|sdf|1792|dock3
  -GOLD-   2262020353D 1   1.00000     0.00000
 Structure written by MMmdl.
 59 62  0  0  0  0  0  0  0  0  1 V2000
  147.2603  135.5365  162.7127 C   0  0  0  0  0  0  0  0  0  0  0  0
  146.6232  134.2249  162.2355 C   0  0  0  0  0  0  0  0  0  0  0  0
  147.6102  133.3148  161.7709 O   0  0  0  0  0  0  0  0  0  0  0  0
  147.1465  132.4062  160.7766 C   0  0  1  0  0  0  0  0  0  0  0  0
  147.5347  132.8608  159.3651 C   0  0  0  0  0  0  0  0  0  0  0  0
  148.8411  132.0872  159.5836 C   0  0  2  0  0  0  0  0  0  0  0  0
  149.3423  131.3935  158.3960 N   0  0  0  0  0  0  0  0  0  0  0  0
  150.5597  130.6130  158.5713 C   0  0  0  0  0  0  0  0  0  0  0  0
  149.4191  132.1687  157.2923 C   0  0  0  0  0  0  0  0  0  0  0  0
  150.3198  133.1817  157.3067 N   0  0  0  0  0  0  0  0  0  0  0  0
  150.4514  133.9713  156.2364 C   0  0  0  0  0  0  0  0  0  0  0  0
  149.7939  133.9221  155.0755 N   0  0  0  0  0  0  0  0  0  0  0  0
  148.8822  132.9074  155.0626 C   0  0  0  0  0  0  0  0  0  0  0  0
  148.6260  131.9942  156.1232 C   0  0  0  0  0  0  0  0  0  0  0  0
  147.6193  131.1099  155.7561 N   0  0  0  0  0  0  0  0  0  0  0  0
  147.3028  131.4751  154.5443 C   0  0  0  0  0  0  0  0  0  0  0  0
  148.0237  132.5356  154.0422 N   0  0  0  0  0  0  0  0  0  0  0  0
  147.8906  133.1315  152.7214 C   0  0  0  0  0  0  0  0  0  0  0  0
  146.4291  133.1851  152.2099 C   0  0  2  0  0  0  0  0  0  0  0  0
  145.6209  133.7504  153.2279 O   0  0  0  0  0  0  0  0  0  0  0  0
  145.8822  131.7907  151.8870 C   0  0  0  0  0  0  0  0  0  0  0  0
  145.7732  131.7805  150.3671 C   0  0  0  0  0  0  0  0  0  0  0  0
  145.4378  133.1237  150.0690 O   0  0  0  0  0  0  0  0  0  0  0  0
  146.2740  133.9488  150.8676 C   0  0  1  0  0  0  0  0  0  0  0  0
  145.7127  135.3791  150.9357 C   0  0  0  0  0  0  0  0  0  0  0  0
  148.0874  131.1862  160.5977 C   0  0  0  0  0  0  0  0  0  0  0  0
  148.8712  130.7510  161.8385 C   0  0  0  0  0  0  0  0  0  0  0  0
  147.3842  129.9308  160.0549 C   0  0  0  0  0  0  0  0  0  0  0  0
  146.4932  136.2529  163.0070 H   0  0  0  0  0  0  0  0  0  0  0  0
  147.8530  135.9919  161.9193 H   0  0  0  0  0  0  0  0  0  0  0  0
  147.9121  135.3831  163.5720 H   0  0  0  0  0  0  0  0  0  0  0  0
  146.0087  133.7795  163.0189 H   0  0  0  0  0  0  0  0  0  0  0  0
  145.9550  134.4407  161.4020 H   0  0  0  0  0  0  0  0  0  0  0  0
  146.0976  132.1286  160.8861 H   0  0  0  0  0  0  0  0  0  0  0  0
  146.8918  132.4386  158.5911 H   0  0  0  0  0  0  0  0  0  0  0  0
  147.6643  133.9356  159.2370 H   0  0  0  0  0  0  0  0  0  0  0  0
  149.5924  132.7041  160.0801 H   0  0  0  0  0  0  0  0  0  0  0  0
  150.8417  130.1128  157.6439 H   0  0  0  0  0  0  0  0  0  0  0  0
  150.4208  129.8456  159.3314 H   0  0  0  0  0  0  0  0  0  0  0  0
  151.3875  131.2511  158.8831 H   0  0  0  0  0  0  0  0  0  0  0  0
  151.1920  134.7527  156.3207 H   0  0  0  0  0  0  0  0  0  0  0  0
  146.5347  130.9697  153.9771 H   0  0  0  0  0  0  0  0  0  0  0  0
  148.3090  134.1381  152.7622 H   0  0  0  0  0  0  0  0  0  0  0  0
  148.5166  132.5702  152.0261 H   0  0  0  0  0  0  0  0  0  0  0  0
  146.1789  133.9985  153.9491 H   0  0  0  0  0  0  0  0  0  0  0  0
  146.5084  130.9797  152.2607 H   0  0  0  0  0  0  0  0  0  0  0  0
  144.8861  131.6516  152.3108 H   0  0  0  0  0  0  0  0  0  0  0  0
  146.7294  131.5268  149.9066 H   0  0  0  0  0  0  0  0  0  0  0  0
  145.0177  131.0845  150.0021 H   0  0  0  0  0  0  0  0  0  0  0  0
  147.2374  133.9788  150.3569 H   0  0  0  0  0  0  0  0  0  0  0  0
  146.3293  136.0162  151.5706 H   0  0  0  0  0  0  0  0  0  0  0  0
  144.6960  135.3937  151.3289 H   0  0  0  0  0  0  0  0  0  0  0  0
  145.6861  135.8295  149.9434 H   0  0  0  0  0  0  0  0  0  0  0  0
  149.5462  129.9232  161.6205 H   0  0  0  0  0  0  0  0  0  0  0  0
  148.2029  130.4294  162.6377 H   0  0  0  0  0  0  0  0  0  0  0  0
  149.4824  131.5622  162.2343 H   0  0  0  0  0  0  0  0  0  0  0  0
  148.0928  129.1365  159.8202 H   0  0  0  0  0  0  0  0  0  0  0  0
  146.8214  130.1357  159.1442 H   0  0  0  0  0  0  0  0  0  0  0  0
  146.6780  129.5288  160.7818 H   0  0  0  0  0  0  0  0  0  0  0  0
  1  2  1  0  0  0  0
  1 29  1  0  0  0  0
  1 30  1  0  0  0  0
  1 31  1  0  0  0  0
  2  3  1  0  0  0  0
  2 32  1  0  0  0  0
  2 33  1  0  0  0  0
  3  4  1  0  0  0  0
  4 26  1  0  0  0  0
  4  5  1  0  0  0  0
  4 34  1  0  0  0  0
  5  6  1  0  0  0  0
  5 35  1  0  0  0  0
  5 36  1  0  0  0  0
  6  7  1  0  0  0  0
  6 26  1  0  0  0  0
  6 37  1  0  0  0  0
  7  8  1  0  0  0  0
  7  9  1  0  0  0  0
  8 38  1  0  0  0  0
  8 39  1  0  0  0  0
  8 40  1  0  0  0  0
  9 14  1  0  0  0  0
  9 10  2  0  0  0  0
 10 11  1  0  0  0  0
 11 12  2  0  0  0  0
 11 41  1  0  0  0  0
 12 13  1  0  0  0  0
 13 17  1  0  0  0  0
 13 14  2  0  0  0  0
 14 15  1  0  0  0  0
 15 16  2  0  0  0  0
 16 17  1  0  0  0  0
 16 42  1  0  0  0  0
 17 18  1  0  0  0  0
 18 19  1  0  0  0  0
 18 43  1  0  0  0  0
 18 44  1  0  0  0  0
 19 24  1  0  0  0  0
 19 20  1  0  0  0  0
 19 21  1  0  0  0  0
 20 45  1  0  0  0  0
 21 22  1  0  0  0  0
 21 46  1  0  0  0  0
 21 47  1  0  0  0  0
 22 23  1  0  0  0  0
 22 48  1  0  0  0  0
 22 49  1  0  0  0  0
 23 24  1  0  0  0  0
 24 25  1  0  0  0  0
 24 50  1  0  0  0  0
 25 51  1  0  0  0  0
 25 52  1  0  0  0  0
 25 53  1  0  0  0  0
 26 27  1  0  0  0  0
 26 28  1  0  0  0  0
 27 54  1  0  0  0  0
 27 55  1  0  0  0  0
 27 56  1  0  0  0  0
 28 57  1  0  0  0  0
 28 58  1  0  0  0  0
 28 59  1  0  0  0  0
M  END
> <s_m_source_file>
AV-unprocessed.smi

> <i_m_source_file_index>
234

> <i_lp_mmshare_version>
43012

> <i_f3d_flags>
0

> <s_epik_input>
W0NIM11bQ0gyXU9bQ0BASF0oQzEoW0NIM10pW0NIM10pW0NIMl1bQ0BIXTFOKFtDSDNdKWMobltjSF1uMiljKGMyMyluW2NIXW4zW0NIMl1bQ0BAXTQoW09IXSlbQ0gyXVtDSDJdT1tDQEhdNFtDSDNd

> <s_epik_cmdline>
J2VwaWtfcHl0aG9uJywgJy1waCcsICc3LjAnLCAnLXRuJywgJzgnLCAnLW1hJywgJzIwMCcsICctbWV0YWxfYmluZGluZycsICctaW1hZScsICc8aW5maWxlLm1hZT4nLCAnLW9tYWUnLCAnPG91dGZpbGUubWFlPic=

> <r_lp_tautomer_probability>
1

> <r_epik_Ionization_Penalty>
0.00349132

> <r_epik_Ionization_Penalty_Charging>
0

> <r_epik_Ionization_Penalty_Neutral>
0.00349132

> <r_epik_State_Penalty>
0.00242418

> <r_epik_Charging_Adjusted_Penalty>
0.00242418

> <i_epik_Tot_Q>
0

> <i_epik_Tot_abs_Q>
0

> <r_epik_Metal_State_Penalty>
-0

> <b_epik_Metal_Only>
0

> <s_lp_Force_Field>
OPLS_2005

> <r_lp_Energy>
49.6192

> <b_lp_Chiralities_Consistent>
1

> <s_lp_Variant>
AV-unprocessed.smi:234-8

> <Gold.Version>
5.8.1

> <Gold.Id.Protein>
6NUR|6NUR_protein|mol2

> <Gold.PLP.Fitness>
39.8241

> <Gold.PLP.PLP>
-38.4468

> <Gold.PLP.part.hbond>
-1.0000

> <Gold.PLP.part.metal>
0.0000

> <Gold.PLP.part.buried>
-6.5269

> <Gold.PLP.part.nonpolar>
-32.0882

> <Gold.PLP.part.repulsive>
0.4718

> <Gold.PLP.ligand.clash>
0.0000

> <Gold.PLP.ligand.torsion>
1.2669

> <Gold.PLP.Chemscore.Hbond>
1.0000

> <Gold.PLP.Chemscore.CHOScore>
0.0000

> <Gold.PLP.Chemscore.Metal>
0.0000

> <Gold.Chemscore.Hbonds>
donor molecule, donor type, donor heavy atom, donor atom, acceptor molecule, acceptor atom, score
      P1  H  6896  6909       L1    10  0.87

> <Gold.PLP.Chemscore.Internal.Correction>
0.9112

> <Gold.Rescore>
     Score         DG    S(hbond)    S(metal)    S(lipo)     H(rot)  DE(clash)    DE(int)     intcor
     10.22     -12.49       0.92        0.00      91.10       2.62       0.07       2.20       ----

> <Gold.Chemscore.Fitness>
10.2195

> <Gold.Chemscore.DG>
-12.4869

> <Gold.Chemscore.ZeroCoef>
-5.4800

> <Gold.Chemscore.Hbond>
0.9161

> <Gold.Chemscore.Metal>
0.0000

> <Gold.Chemscore.Lipo>
91.1042

> <Gold.Chemscore.Internal_Hbond>
0.0000

> <Gold.Chemscore.DEClash>
0.0666

> <Gold.Chemscore.DEInternal>
2.2008

> <Gold.Chemscore.Rot>
2.6219

> <Gold.Chemscore.Internal.Correction>
   9.000000E+99

> <Gold.Chemscore.Hbonds>
donor molecule, donor type, donor heavy atom, donor atom, acceptor molecule, acceptor atom, score
      P1  H  6896  6909       L1    10  0.66

> <Gold.Chemscore.Hbond.Weighted>
-3.0598

> <Gold.Chemscore.Metal.Weighted>
-0.0000

> <Gold.Chemscore.Lipo.Weighted>
-10.6592

> <Gold.Chemscore.Internal_Hbond.Weighted>
0.0000

> <Gold.Chemscore.DEClash.Weighted>
0.0666

> <Gold.Chemscore.DEInternal.Weighted>
2.2008

> <Gold.Chemscore.Rot.Weighted>
6.7121

> <Gold.Chemscore.Internal.Correction.Weighted>
   9.000000E+99

> <Gold.Protein.RotatedTorsions>
[ 6907 6896 6895 6894 ] final  -28.44 input  -60.11 | X-H torsion
[ 7974 7965 7964 7962 ] final  -50.91 input  175.53 | X-H torsion
[ 8008 7997 7996 7995 ] final  158.51 input   59.86 | X-H torsion
[ 10167 10162 10161 10158 ] final   34.31 input  -65.29 | X-H torsion
[ 10718 10713 10712 10709 ] final  166.06 input   66.30 | X-H torsion
[ 10763 10752 10751 10750 ] final   -8.65 input  -60.55 | X-H torsion
[ 11005 11000 10999 10996 ] final  -24.24 input  -57.11 | X-H torsion

> <Gold.Protein.ActiveResidues>
 VAL166  LYS551  ARG553  GLY616  TRP617  ASP618  TYR619  PRO620  LYS621  CYS622 
 ASP623  PHE694  ASN695  SER759  ASP760  ASP761  ALA762  ILE779  LEU786  VAL792 
 PHE793  MET794  SER795  GLU796  ALA797  LYS798  CYS799  TRP800  GLU811  SER814 

> <Gold.Protein.RotatedAtoms>
  151.1330  135.0140  159.8590 H   0  0  0  0  0  0  0  0  0  0  0  0  # atno 6907 bound_to 6896
  152.5451  134.1588  159.8559 H   0  0  0  0  0  0  0  0  0  0  0  0  # atno 6908 bound_to 6896
  151.1657  133.4771  159.2627 H   0  0  0  0  0  0  0  0  0  0  0  0  # atno 6909 bound_to 6896
  145.9248  140.7802  142.9629 H   0  0  0  0  0  0  0  0  0  0  0  0  # atno 7974 bound_to 7965
  156.2298  140.1856  156.7271 H   0  0  0  0  0  0  0  0  0  0  0  0  # atno 8008 bound_to 7997
  154.6003  140.0637  156.9387 H   0  0  0  0  0  0  0  0  0  0  0  0  # atno 8009 bound_to 7997
  155.2186  140.3305  155.4321 H   0  0  0  0  0  0  0  0  0  0  0  0  # atno 8010 bound_to 7997
  140.4326  144.1302  150.6161 H   0  0  0  0  0  0  0  0  0  0  0  0  # atno 10167 bound_to 10162
  157.0713  131.0367  151.2610 H   0  0  0  0  0  0  0  0  0  0  0  0  # atno 10718 bound_to 10713
  153.4435  135.7014  153.6154 H   0  0  0  0  0  0  0  0  0  0  0  0  # atno 10763 bound_to 10752
  153.4519  135.3756  155.2289 H   0  0  0  0  0  0  0  0  0  0  0  0  # atno 10764 bound_to 10752
  154.8728  135.3999  154.3837 H   0  0  0  0  0  0  0  0  0  0  0  0  # atno 10765 bound_to 10752
  140.8826  133.7643  156.0321 H   0  0  0  0  0  0  0  0  0  0  0  0  # atno 11005 bound_to 11000
  144.6757  140.2032  143.7385 LP  0  0  0  0  0  0  0  0  0  0  0  0  # atno 17320 bound_to 7965
  145.8503  139.2172  143.1776 LP  0  0  0  0  0  0  0  0  0  0  0  0  # atno 17321 bound_to 7965
  140.4409  143.2527  151.9474 LP  0  0  0  0  0  0  0  0  0  0  0  0  # atno 17342 bound_to 10162
  139.4785  144.5655  151.8172 LP  0  0  0  0  0  0  0  0  0  0  0  0  # atno 17343 bound_to 10162
  157.4876  130.7802  149.7475 LP  0  0  0  0  0  0  0  0  0  0  0  0  # atno 17370 bound_to 10713
  155.9950  130.3915  150.2838 LP  0  0  0  0  0  0  0  0  0  0  0  0  # atno 17371 bound_to 10713
  140.8442  134.3030  157.5301 LP  0  0  0  0  0  0  0  0  0  0  0  0  # atno 17394 bound_to 11000
  139.8721  134.9433  156.3849 LP  0  0  0  0  0  0  0  0  0  0  0  0  # atno 17395 bound_to 11000

$$$$
