AV-unprocessed.smi:415|AV-procd|sdf|2518|dock4
  -GOLD-   2262022473D 1   1.00000     0.00000
 Structure written by MMmdl.
 53 54  0  0  0  0  0  0  0  0  1 V2000
  151.3942  131.0524  157.5818 C   0  0  0  0  0  0  0  0  0  0  0  0
  150.7773  132.3037  157.8264 O   0  0  0  0  0  0  0  0  0  0  0  0
  151.0011  133.2353  156.7813 C   0  0  0  0  0  0  0  0  0  0  0  0
  149.9200  134.3279  156.8102 C   0  0  0  0  0  0  0  0  0  0  0  0
  150.3902  135.6071  156.3119 N   0  0  0  0  0  0  0  0  0  0  0  0
  149.9633  136.1522  155.1043 C   0  0  0  0  0  0  0  0  0  0  0  0
  149.0322  135.4728  154.3392 N   0  0  0  0  0  0  0  0  0  0  0  0
  150.4301  137.3411  154.6631 C   0  0  0  0  0  0  0  0  0  0  0  0
  151.3999  138.1165  155.4236 C   0  0  0  0  0  0  0  0  0  0  0  0
  151.8629  139.1846  155.0228 O   0  0  0  0  0  0  0  0  0  0  0  0
  151.7965  137.5598  156.6611 N   0  0  0  0  0  0  0  0  0  0  0  0
  152.7943  138.2880  157.4803 C   0  0  0  0  0  0  0  0  0  0  0  0
  152.2085  139.3927  158.3786 C   0  0  0  0  0  0  0  0  0  0  0  0
  151.5209  139.0723  159.3470 O   0  0  0  0  0  0  0  0  0  0  0  0
  152.4879  140.6706  158.0680 N   0  0  0  0  0  0  0  0  0  0  0  0
  152.0772  141.8584  158.8119 C   0  0  2  0  0  0  0  0  0  0  0  0
  151.5069  142.8858  157.8154 C   0  0  0  0  0  0  0  0  0  0  0  0
  151.1406  144.2087  158.5019 C   0  0  0  0  0  0  0  0  0  0  0  0
  152.3413  144.7865  159.2677 C   0  0  0  0  0  0  0  0  0  0  0  0
  152.9158  143.7866  160.2919 C   0  0  1  0  0  0  0  0  0  0  0  0
  151.9897  143.6319  161.5155 C   0  0  0  0  0  0  0  0  0  0  0  0
  153.2794  142.4474  159.5969 C   0  0  1  0  0  0  0  0  0  0  0  0
  153.9232  141.4373  160.5677 C   0  0  0  0  0  0  0  0  0  0  0  0
  151.3069  136.3181  157.1286 C   0  0  0  0  0  0  0  0  0  0  0  0
  151.6873  135.8714  158.2143 O   0  0  0  0  0  0  0  0  0  0  0  0
  151.1981  130.3785  158.4157 H   0  0  0  0  0  0  0  0  0  0  0  0
  152.4752  131.1577  157.4812 H   0  0  0  0  0  0  0  0  0  0  0  0
  151.0005  130.5899  156.6757 H   0  0  0  0  0  0  0  0  0  0  0  0
  151.9819  133.6946  156.9125 H   0  0  0  0  0  0  0  0  0  0  0  0
  151.0068  132.7311  155.8138 H   0  0  0  0  0  0  0  0  0  0  0  0
  149.0207  134.0385  156.2646 H   0  0  0  0  0  0  0  0  0  0  0  0
  149.5800  134.5074  157.8298 H   0  0  0  0  0  0  0  0  0  0  0  0
  148.6481  134.5853  154.6308 H   0  0  0  0  0  0  0  0  0  0  0  0
  148.7152  135.8256  153.4476 H   0  0  0  0  0  0  0  0  0  0  0  0
  150.0825  137.7349  153.7187 H   0  0  0  0  0  0  0  0  0  0  0  0
  153.3609  137.6036  158.1134 H   0  0  0  0  0  0  0  0  0  0  0  0
  153.5564  138.7396  156.8432 H   0  0  0  0  0  0  0  0  0  0  0  0
  153.0599  140.8322  157.2519 H   0  0  0  0  0  0  0  0  0  0  0  0
  151.2883  141.5996  159.5195 H   0  0  0  0  0  0  0  0  0  0  0  0
  152.2390  143.0829  157.0305 H   0  0  0  0  0  0  0  0  0  0  0  0
  150.6270  142.4751  157.3186 H   0  0  0  0  0  0  0  0  0  0  0  0
  150.7975  144.9275  157.7573 H   0  0  0  0  0  0  0  0  0  0  0  0
  150.3029  144.0512  159.1819 H   0  0  0  0  0  0  0  0  0  0  0  0
  153.1205  145.0555  158.5533 H   0  0  0  0  0  0  0  0  0  0  0  0
  152.0558  145.7147  159.7640 H   0  0  0  0  0  0  0  0  0  0  0  0
  153.8438  144.2203  160.6669 H   0  0  0  0  0  0  0  0  0  0  0  0
  151.0421  143.1595  161.2587 H   0  0  0  0  0  0  0  0  0  0  0  0
  151.7627  144.6037  161.9545 H   0  0  0  0  0  0  0  0  0  0  0  0
  152.4558  143.0332  162.2976 H   0  0  0  0  0  0  0  0  0  0  0  0
  154.0497  142.6869  158.8616 H   0  0  0  0  0  0  0  0  0  0  0  0
  153.1909  141.0263  161.2628 H   0  0  0  0  0  0  0  0  0  0  0  0
  154.7168  141.9038  161.1521 H   0  0  0  0  0  0  0  0  0  0  0  0
  154.3709  140.5993  160.0327 H   0  0  0  0  0  0  0  0  0  0  0  0
  1  2  1  0  0  0  0
  1 26  1  0  0  0  0
  1 27  1  0  0  0  0
  1 28  1  0  0  0  0
  2  3  1  0  0  0  0
  3  4  1  0  0  0  0
  3 29  1  0  0  0  0
  3 30  1  0  0  0  0
  4  5  1  0  0  0  0
  4 31  1  0  0  0  0
  4 32  1  0  0  0  0
  5 24  1  0  0  0  0
  5  6  1  0  0  0  0
  6  7  1  0  0  0  0
  6  8  2  0  0  0  0
  7 33  1  0  0  0  0
  7 34  1  0  0  0  0
  8  9  1  0  0  0  0
  8 35  1  0  0  0  0
  9 10  2  0  0  0  0
  9 11  1  0  0  0  0
 11 12  1  0  0  0  0
 11 24  1  0  0  0  0
 12 13  1  0  0  0  0
 12 36  1  0  0  0  0
 12 37  1  0  0  0  0
 13 14  2  0  0  0  0
 13 15  1  0  0  0  0
 15 16  1  0  0  0  0
 15 38  1  0  0  0  0
 16 22  1  0  0  0  0
 16 17  1  0  0  0  0
 16 39  1  0  0  0  0
 17 18  1  0  0  0  0
 17 40  1  0  0  0  0
 17 41  1  0  0  0  0
 18 19  1  0  0  0  0
 18 42  1  0  0  0  0
 18 43  1  0  0  0  0
 19 20  1  0  0  0  0
 19 44  1  0  0  0  0
 19 45  1  0  0  0  0
 20 21  1  0  0  0  0
 20 22  1  0  0  0  0
 20 46  1  0  0  0  0
 21 47  1  0  0  0  0
 21 48  1  0  0  0  0
 21 49  1  0  0  0  0
 22 23  1  0  0  0  0
 22 50  1  0  0  0  0
 23 51  1  0  0  0  0
 23 52  1  0  0  0  0
 23 53  1  0  0  0  0
 24 25  2  0  0  0  0
M  END
> <s_m_source_file>
AV-unprocessed.smi

> <i_m_source_file_index>
415

> <i_lp_mmshare_version>
43012

> <i_f3d_flags>
0

> <s_epik_input>
W0NIM11PW0NIMl1bQ0gyXW4xYyhbTkgyXSlbY0hdYyg9TyluKGMxPU8pW0NIMl1DKD1PKVtOSF1bQ0BASF0yW0NIMl1bQ0gyXVtDSDJdW0NAQEhdKFtDSDNdKVtDQEhdMltDSDNd

> <s_epik_cmdline>
J2VwaWtfcHl0aG9uJywgJy1waCcsICc3LjAnLCAnLXRuJywgJzgnLCAnLW1hJywgJzIwMCcsICctbWV0YWxfYmluZGluZycsICctaW1hZScsICc8aW5maWxlLm1hZT4nLCAnLW9tYWUnLCAnPG91dGZpbGUubWFlPic=

> <r_lp_tautomer_probability>
1

> <r_epik_Ionization_Penalty>
8.6647e-06

> <r_epik_Ionization_Penalty_Charging>
1.81162e-08

> <r_epik_Ionization_Penalty_Neutral>
8.64658e-06

> <r_epik_State_Penalty>
-0

> <r_epik_Charging_Adjusted_Penalty>
1.81162e-08

> <i_epik_Tot_Q>
0

> <i_epik_Tot_abs_Q>
0

> <r_epik_Metal_State_Penalty>
-0

> <b_epik_Metal_Only>
0

> <s_lp_Force_Field>
OPLS_2005

> <r_lp_Energy>
23.489

> <b_lp_Chiralities_Consistent>
1

> <s_lp_Variant>
AV-unprocessed.smi:415-1

> <Gold.Version>
5.8.1

> <Gold.Id.Protein>
6NUR|6NUR_protein|mol2

> <Gold.PLP.Fitness>
50.9304

> <Gold.PLP.PLP>
-43.8279

> <Gold.PLP.part.hbond>
-3.9102

> <Gold.PLP.part.metal>
0.0000

> <Gold.PLP.part.buried>
-3.2713

> <Gold.PLP.part.nonpolar>
-35.9902

> <Gold.PLP.part.repulsive>
0.1658

> <Gold.PLP.ligand.clash>
0.0000

> <Gold.PLP.ligand.torsion>
0.9781

> <Gold.PLP.Chemscore.Hbond>
3.0000

> <Gold.PLP.Chemscore.CHOScore>
0.0000

> <Gold.PLP.Chemscore.Metal>
0.0000

> <Gold.Chemscore.Hbonds>
donor molecule, donor type, donor heavy atom, donor atom, acceptor molecule, acceptor atom, score
      L1  H     7    34       P1  7948  1.00
      P1  H  6896  6908       L1     2  0.72
      P1  H  6896  6909       L1    25  0.03
      P1  H  7989  7998       L1    10  0.39

> <Gold.PLP.Chemscore.Internal.Correction>
0.0587

> <Gold.Rescore>
     Score         DG    S(hbond)    S(metal)    S(lipo)     H(rot)  DE(clash)    DE(int)     intcor
     21.45     -22.44       2.81        0.00     114.17       2.26       0.00       0.98       ----

> <Gold.Chemscore.Fitness>
21.4476

> <Gold.Chemscore.DG>
-22.4359

> <Gold.Chemscore.ZeroCoef>
-5.4800

> <Gold.Chemscore.Hbond>
2.8131

> <Gold.Chemscore.Metal>
0.0000

> <Gold.Chemscore.Lipo>
114.1656

> <Gold.Chemscore.Internal_Hbond>
0.0000

> <Gold.Chemscore.DEClash>
0.0038

> <Gold.Chemscore.DEInternal>
0.9845

> <Gold.Chemscore.Rot>
2.2645

> <Gold.Chemscore.Internal.Correction>
   9.000000E+99

> <Gold.Chemscore.Hbonds>
donor molecule, donor type, donor heavy atom, donor atom, acceptor molecule, acceptor atom, score
      L1  H     7    34       P1  7948  0.94
      P1  H  6896  6908       L1     2  0.11
      P1  H  6896  6909       L1    25  0.07
      P1  H  7989  7998       L1    10  0.37

> <Gold.Chemscore.Hbond.Weighted>
-9.3957

> <Gold.Chemscore.Metal.Weighted>
-0.0000

> <Gold.Chemscore.Lipo.Weighted>
-13.3574

> <Gold.Chemscore.Internal_Hbond.Weighted>
0.0000

> <Gold.Chemscore.DEClash.Weighted>
0.0038

> <Gold.Chemscore.DEInternal.Weighted>
0.9845

> <Gold.Chemscore.Rot.Weighted>
5.7972

> <Gold.Chemscore.Internal.Correction.Weighted>
   9.000000E+99

> <Gold.Protein.RotatedTorsions>
[ 6907 6896 6895 6894 ] final   56.59 input  -60.11 | X-H torsion
[ 7974 7965 7964 7962 ] final   74.40 input  175.53 | X-H torsion
[ 8008 7997 7996 7995 ] final   -1.57 input   59.86 | X-H torsion
[ 10167 10162 10161 10158 ] final  155.40 input  -65.29 | X-H torsion
[ 10718 10713 10712 10709 ] final -145.77 input   66.30 | X-H torsion
[ 10763 10752 10751 10750 ] final   94.58 input  -60.55 | X-H torsion
[ 11005 11000 10999 10996 ] final  -45.53 input  -57.11 | X-H torsion

> <Gold.Protein.ActiveResidues>
 VAL166  LYS551  ARG553  GLY616  TRP617  ASP618  TYR619  PRO620  LYS621  CYS622 
 ASP623  PHE694  ASN695  SER759  ASP760  ASP761  ALA762  ILE779  LEU786  VAL792 
 PHE793  MET794  SER795  GLU796  ALA797  LYS798  CYS799  TRP800  GLU811  SER814 

> <Gold.Protein.RotatedAtoms>
  152.3650  134.6817  160.0194 H   0  0  0  0  0  0  0  0  0  0  0  0  # atno 6907 bound_to 6896
  151.7128  133.3307  159.3303 H   0  0  0  0  0  0  0  0  0  0  0  0  # atno 6908 bound_to 6896
  150.7632  134.6452  159.6303 H   0  0  0  0  0  0  0  0  0  0  0  0  # atno 6909 bound_to 6896
  145.7287  139.2675  143.1553 H   0  0  0  0  0  0  0  0  0  0  0  0  # atno 7974 bound_to 7965
  154.6453  140.2556  155.7275 H   0  0  0  0  0  0  0  0  0  0  0  0  # atno 8008 bound_to 7997
  156.2549  140.2879  156.0785 H   0  0  0  0  0  0  0  0  0  0  0  0  # atno 8009 bound_to 7997
  155.1533  140.0382  157.2816 H   0  0  0  0  0  0  0  0  0  0  0  0  # atno 8010 bound_to 7997
  139.4821  144.5102  151.8037 H   0  0  0  0  0  0  0  0  0  0  0  0  # atno 10167 bound_to 10162
  156.3866  130.7864  151.2062 H   0  0  0  0  0  0  0  0  0  0  0  0  # atno 10718 bound_to 10713
  153.2433  135.4284  155.0720 H   0  0  0  0  0  0  0  0  0  0  0  0  # atno 10763 bound_to 10752
  154.8350  135.3408  154.6618 H   0  0  0  0  0  0  0  0  0  0  0  0  # atno 10764 bound_to 10752
  153.7041  135.7026  153.5111 H   0  0  0  0  0  0  0  0  0  0  0  0  # atno 10765 bound_to 10752
  141.0521  133.6739  156.3026 H   0  0  0  0  0  0  0  0  0  0  0  0  # atno 11005 bound_to 11000
  146.0557  140.8023  142.9759 LP  0  0  0  0  0  0  0  0  0  0  0  0  # atno 17320 bound_to 7965
  144.6898  140.3121  143.7246 LP  0  0  0  0  0  0  0  0  0  0  0  0  # atno 17321 bound_to 7965
  140.4604  144.1730  150.5905 LP  0  0  0  0  0  0  0  0  0  0  0  0  # atno 17342 bound_to 10162
  140.4491  143.2494  151.9372 LP  0  0  0  0  0  0  0  0  0  0  0  0  # atno 17343 bound_to 10162
  157.7496  131.0328  150.4243 LP  0  0  0  0  0  0  0  0  0  0  0  0  # atno 17370 bound_to 10713
  156.4497  130.4009  149.6644 LP  0  0  0  0  0  0  0  0  0  0  0  0  # atno 17371 bound_to 10713
  140.6034  134.5531  157.5521 LP  0  0  0  0  0  0  0  0  0  0  0  0  # atno 17394 bound_to 11000
  139.9359  134.7876  156.0804 LP  0  0  0  0  0  0  0  0  0  0  0  0  # atno 17395 bound_to 11000

$$$$
