AV-unprocessed.smi:213|AV-procd|sdf|1645|dock6
  -GOLD-   2262020 23D 1   1.00000     0.00000
 Structure written by MMmdl.
 58 61  0  0  0  0  0  0  0  0  1 V2000
  149.0602  142.6049  158.3230 C   0  0  0  0  0  0  0  0  0  0  0  0
  150.3430  141.8703  157.8962 C   0  0  2  0  0  0  0  0  0  0  0  0
  151.5411  142.8308  157.7230 C   0  0  0  0  0  0  0  0  0  0  0  0
  152.3637  143.0335  158.9160 N   0  0  0  0  0  0  0  0  0  0  0  0
  151.6244  143.6575  160.0120 C   0  0  0  0  0  0  0  0  0  0  0  0
  152.4981  143.8346  161.2665 C   0  0  0  0  0  0  0  0  0  0  0  0
  153.0325  142.5758  161.6630 O   0  0  0  0  0  0  0  0  0  0  0  0
  153.7995  141.9578  160.6349 C   0  0  0  0  0  0  0  0  0  0  0  0
  152.9243  141.7704  159.3837 C   0  0  0  0  0  0  0  0  0  0  0  0
  150.1188  141.0892  156.6758 N   0  0  0  0  0  0  0  0  0  0  0  0
  151.2255  140.8007  155.7654 C   0  0  0  0  0  0  0  0  0  0  0  0
  149.0307  140.2777  156.6259 C   0  0  0  0  0  0  0  0  0  0  0  0
  148.3544  140.0044  157.7737 N   0  0  0  0  0  0  0  0  0  0  0  0
  147.2846  139.2037  157.7551 C   0  0  0  0  0  0  0  0  0  0  0  0
  146.7329  138.5723  156.7176 N   0  0  0  0  0  0  0  0  0  0  0  0
  147.4127  138.8321  155.5647 C   0  0  0  0  0  0  0  0  0  0  0  0
  148.5583  139.6668  155.4282 C   0  0  0  0  0  0  0  0  0  0  0  0
  148.9790  139.6727  154.1023 N   0  0  0  0  0  0  0  0  0  0  0  0
  148.1280  138.8949  153.4909 C   0  0  0  0  0  0  0  0  0  0  0  0
  147.1605  138.3404  154.2970 N   0  0  0  0  0  0  0  0  0  0  0  0
  146.1073  137.4257  153.8932 C   0  0  0  0  0  0  0  0  0  0  0  0
  146.0480  137.2434  152.3633 C   0  0  2  0  0  0  0  0  0  0  0  0
  145.5972  138.4469  151.7706 O   0  0  0  0  0  0  0  0  0  0  0  0
  145.1089  136.0973  151.9440 C   0  0  1  0  0  0  0  0  0  0  0  0
  145.2325  135.6880  150.4746 C   0  0  0  0  0  0  0  0  0  0  0  0
  144.7329  134.2627  150.5096 C   0  0  0  0  0  0  0  0  0  0  0  0
  145.3175  133.7643  151.8272 C   0  0  0  0  0  0  0  0  0  0  0  0
  145.4164  134.9088  152.6713 O   0  0  0  0  0  0  0  0  0  0  0  0
  149.1952  143.1030  159.2831 H   0  0  0  0  0  0  0  0  0  0  0  0
  148.2309  141.9057  158.4344 H   0  0  0  0  0  0  0  0  0  0  0  0
  148.7636  143.3648  157.6003 H   0  0  0  0  0  0  0  0  0  0  0  0
  150.5947  141.1820  158.6990 H   0  0  0  0  0  0  0  0  0  0  0  0
  152.1740  142.4745  156.9086 H   0  0  0  0  0  0  0  0  0  0  0  0
  151.1531  143.7964  157.3955 H   0  0  0  0  0  0  0  0  0  0  0  0
  151.2501  144.6355  159.7127 H   0  0  0  0  0  0  0  0  0  0  0  0
  150.7520  143.0515  160.2624 H   0  0  0  0  0  0  0  0  0  0  0  0
  153.3101  144.5375  161.0744 H   0  0  0  0  0  0  0  0  0  0  0  0
  151.9069  144.2443  162.0857 H   0  0  0  0  0  0  0  0  0  0  0  0
  154.6747  142.5683  160.4065 H   0  0  0  0  0  0  0  0  0  0  0  0
  154.1644  140.9944  160.9912 H   0  0  0  0  0  0  0  0  0  0  0  0
  152.1196  141.0687  159.6084 H   0  0  0  0  0  0  0  0  0  0  0  0
  153.5223  141.3154  158.5932 H   0  0  0  0  0  0  0  0  0  0  0  0
  150.8570  140.6249  154.7540 H   0  0  0  0  0  0  0  0  0  0  0  0
  151.7721  139.9154  156.0919 H   0  0  0  0  0  0  0  0  0  0  0  0
  151.9283  141.6316  155.7196 H   0  0  0  0  0  0  0  0  0  0  0  0
  146.8040  139.0438  158.7091 H   0  0  0  0  0  0  0  0  0  0  0  0
  148.1913  138.6926  152.4314 H   0  0  0  0  0  0  0  0  0  0  0  0
  146.2839  136.4683  154.3845 H   0  0  0  0  0  0  0  0  0  0  0  0
  145.1547  137.7995  154.2709 H   0  0  0  0  0  0  0  0  0  0  0  0
  147.0508  137.0394  151.9857 H   0  0  0  0  0  0  0  0  0  0  0  0
  144.9869  138.8601  152.3622 H   0  0  0  0  0  0  0  0  0  0  0  0
  144.0707  136.3579  152.1578 H   0  0  0  0  0  0  0  0  0  0  0  0
  144.6553  136.3264  149.8050 H   0  0  0  0  0  0  0  0  0  0  0  0
  146.2749  135.7091  150.1533 H   0  0  0  0  0  0  0  0  0  0  0  0
  143.6428  134.2488  150.5506 H   0  0  0  0  0  0  0  0  0  0  0  0
  145.0522  133.6734  149.6494 H   0  0  0  0  0  0  0  0  0  0  0  0
  144.7073  132.9841  152.2829 H   0  0  0  0  0  0  0  0  0  0  0  0
  146.3200  133.3634  151.6725 H   0  0  0  0  0  0  0  0  0  0  0  0
  1  2  1  0  0  0  0
  1 29  1  0  0  0  0
  1 30  1  0  0  0  0
  1 31  1  0  0  0  0
  2  3  1  0  0  0  0
  2 10  1  0  0  0  0
  2 32  1  0  0  0  0
  3  4  1  0  0  0  0
  3 33  1  0  0  0  0
  3 34  1  0  0  0  0
  4  9  1  0  0  0  0
  4  5  1  0  0  0  0
  5  6  1  0  0  0  0
  5 35  1  0  0  0  0
  5 36  1  0  0  0  0
  6  7  1  0  0  0  0
  6 37  1  0  0  0  0
  6 38  1  0  0  0  0
  7  8  1  0  0  0  0
  8  9  1  0  0  0  0
  8 39  1  0  0  0  0
  8 40  1  0  0  0  0
  9 41  1  0  0  0  0
  9 42  1  0  0  0  0
 10 11  1  0  0  0  0
 10 12  1  0  0  0  0
 11 43  1  0  0  0  0
 11 44  1  0  0  0  0
 11 45  1  0  0  0  0
 12 17  1  0  0  0  0
 12 13  2  0  0  0  0
 13 14  1  0  0  0  0
 14 15  2  0  0  0  0
 14 46  1  0  0  0  0
 15 16  1  0  0  0  0
 16 20  1  0  0  0  0
 16 17  2  0  0  0  0
 17 18  1  0  0  0  0
 18 19  2  0  0  0  0
 19 20  1  0  0  0  0
 19 47  1  0  0  0  0
 20 21  1  0  0  0  0
 21 22  1  0  0  0  0
 21 48  1  0  0  0  0
 21 49  1  0  0  0  0
 22 23  1  0  0  0  0
 22 24  1  0  0  0  0
 22 50  1  0  0  0  0
 23 51  1  0  0  0  0
 24 28  1  0  0  0  0
 24 25  1  0  0  0  0
 24 52  1  0  0  0  0
 25 26  1  0  0  0  0
 25 53  1  0  0  0  0
 25 54  1  0  0  0  0
 26 27  1  0  0  0  0
 26 55  1  0  0  0  0
 26 56  1  0  0  0  0
 27 28  1  0  0  0  0
 27 57  1  0  0  0  0
 27 58  1  0  0  0  0
M  END
> <s_m_source_file>
AV-unprocessed.smi

> <i_m_source_file_index>
213

> <i_lp_mmshare_version>
43012

> <i_f3d_flags>
0

> <s_epik_input>
W0NIMl0xW0NIMl1PW0NIMl1bQ0gyXU4xW0NIMl1bQ0BASF0oW0NIM10pTihbQ0gzXSljKG5bY0hdbjIpYyhjMjMpbltjSF1uM1tDSDJdW0NASF0oW09IXSlbQ0BASF00W0NIMl1bQ0gyXVtDSDJdTzQ=

> <s_epik_cmdline>
J2VwaWtfcHl0aG9uJywgJy1waCcsICc3LjAnLCAnLXRuJywgJzgnLCAnLW1hJywgJzIwMCcsICctbWV0YWxfYmluZGluZycsICctaW1hZScsICc8aW5maWxlLm1hZT4nLCAnLW9tYWUnLCAnPG91dGZpbGUubWFlPic=

> <r_lp_tautomer_probability>
1

> <r_epik_Ionization_Penalty>
0.423322

> <r_epik_Ionization_Penalty_Charging>
0

> <r_epik_Ionization_Penalty_Neutral>
0.423322

> <r_epik_State_Penalty>
0.569486

> <r_epik_Charging_Adjusted_Penalty>
0.569486

> <i_epik_Tot_Q>
0

> <i_epik_Tot_abs_Q>
0

> <r_epik_Metal_State_Penalty>
0.568671

> <b_epik_Metal_Only>
0

> <s_lp_Force_Field>
OPLS_2005

> <r_lp_Energy>
51.3499

> <b_lp_Chiralities_Consistent>
1

> <s_lp_Variant>
AV-unprocessed.smi:213-13

> <Gold.Version>
5.8.1

> <Gold.Id.Protein>
6NUR|6NUR_protein|mol2

> <Gold.PLP.Fitness>
47.4481

> <Gold.PLP.PLP>
-41.8540

> <Gold.PLP.part.hbond>
-2.2838

> <Gold.PLP.part.metal>
0.0000

> <Gold.PLP.part.buried>
-5.3179

> <Gold.PLP.part.nonpolar>
-34.6097

> <Gold.PLP.part.repulsive>
0.3205

> <Gold.PLP.ligand.clash>
0.0002

> <Gold.PLP.ligand.torsion>
1.3524

> <Gold.PLP.Chemscore.Hbond>
1.0000

> <Gold.PLP.Chemscore.CHOScore>
1.4714

> <Gold.PLP.Chemscore.Metal>
0.0000

> <Gold.Chemscore.Hbonds>
donor molecule, donor type, donor heavy atom, donor atom, acceptor molecule, acceptor atom, score
      L1  H    23    51       P1 10175  0.74
      L1  C    19    47       P1  7948  0.56
      L1  C    19    47       P1  7957  0.78

> <Gold.PLP.Chemscore.Internal.Correction>
0.8850

> <Gold.Rescore>
     Score         DG    S(hbond)    S(metal)    S(lipo)     H(rot)  DE(clash)    DE(int)     intcor
      9.67     -14.02       0.98        0.00     104.89       2.74       0.61       3.74       ----

> <Gold.Chemscore.Fitness>
9.6700

> <Gold.Chemscore.DG>
-14.0180

> <Gold.Chemscore.ZeroCoef>
-5.4800

> <Gold.Chemscore.Hbond>
0.9805

> <Gold.Chemscore.Metal>
0.0000

> <Gold.Chemscore.Lipo>
104.8856

> <Gold.Chemscore.Internal_Hbond>
0.0000

> <Gold.Chemscore.DEClash>
0.6115

> <Gold.Chemscore.DEInternal>
3.7364

> <Gold.Chemscore.Rot>
2.7378

> <Gold.Chemscore.Internal.Correction>
   9.000000E+99

> <Gold.Chemscore.Hbonds>
donor molecule, donor type, donor heavy atom, donor atom, acceptor molecule, acceptor atom, score
      L1  H    23    51       P1 10175  0.72

> <Gold.Chemscore.Hbond.Weighted>
-3.2750

> <Gold.Chemscore.Metal.Weighted>
-0.0000

> <Gold.Chemscore.Lipo.Weighted>
-12.2716

> <Gold.Chemscore.Internal_Hbond.Weighted>
0.0000

> <Gold.Chemscore.DEClash.Weighted>
0.6115

> <Gold.Chemscore.DEInternal.Weighted>
3.7364

> <Gold.Chemscore.Rot.Weighted>
7.0087

> <Gold.Chemscore.Internal.Correction.Weighted>
   9.000000E+99

> <Gold.Protein.RotatedTorsions>
[ 6907 6896 6895 6894 ] final  -12.13 input  -60.11 | X-H torsion
[ 7974 7965 7964 7962 ] final   64.88 input  175.53 | X-H torsion
[ 8008 7997 7996 7995 ] final   84.88 input   59.86 | X-H torsion
[ 10167 10162 10161 10158 ] final  -15.43 input  -65.29 | X-H torsion
[ 10718 10713 10712 10709 ] final  -70.49 input   66.30 | X-H torsion
[ 10763 10752 10751 10750 ] final  117.65 input  -60.55 | X-H torsion
[ 11005 11000 10999 10996 ] final    5.18 input  -57.11 | X-H torsion

> <Gold.Protein.ActiveResidues>
 VAL166  LYS551  ARG553  GLY616  TRP617  ASP618  TYR619  PRO620  LYS621  CYS622 
 ASP623  PHE694  ASN695  SER759  ASP760  ASP761  ALA762  ILE779  LEU786  VAL792 
 PHE793  MET794  SER795  GLU796  ALA797  LYS798  CYS799  TRP800  GLU811  SER814 

> <Gold.Protein.RotatedAtoms>
  151.3753  135.0930  159.9478 H   0  0  0  0  0  0  0  0  0  0  0  0  # atno 6907 bound_to 6896
  152.5124  133.9125  159.7505 H   0  0  0  0  0  0  0  0  0  0  0  0  # atno 6908 bound_to 6896
  150.9547  133.6456  159.2794 H   0  0  0  0  0  0  0  0  0  0  0  0  # atno 6909 bound_to 6896
  145.8450  139.3219  143.0909 H   0  0  0  0  0  0  0  0  0  0  0  0  # atno 7974 bound_to 7965
  155.9428  140.3407  155.6342 H   0  0  0  0  0  0  0  0  0  0  0  0  # atno 8008 bound_to 7997
  155.7017  140.0761  157.2426 H   0  0  0  0  0  0  0  0  0  0  0  0  # atno 8009 bound_to 7997
  154.4106  140.1638  156.2186 H   0  0  0  0  0  0  0  0  0  0  0  0  # atno 8010 bound_to 7997
  140.7218  143.5219  150.9623 H   0  0  0  0  0  0  0  0  0  0  0  0  # atno 10167 bound_to 10162
  156.0405  130.4332  150.2303 H   0  0  0  0  0  0  0  0  0  0  0  0  # atno 10718 bound_to 10713
  153.5556  135.3531  155.2778 H   0  0  0  0  0  0  0  0  0  0  0  0  # atno 10763 bound_to 10752
  154.8701  135.4124  154.2888 H   0  0  0  0  0  0  0  0  0  0  0  0  # atno 10764 bound_to 10752
  153.3623  135.7060  153.6771 H   0  0  0  0  0  0  0  0  0  0  0  0  # atno 10765 bound_to 10752
  140.5735  134.0079  155.8018 H   0  0  0  0  0  0  0  0  0  0  0  0  # atno 11005 bound_to 11000
  145.9422  140.8971  143.0302 LP  0  0  0  0  0  0  0  0  0  0  0  0  # atno 17320 bound_to 7965
  144.6731  140.1564  143.7426 LP  0  0  0  0  0  0  0  0  0  0  0  0  # atno 17321 bound_to 7965
  139.8936  143.6922  152.3142 LP  0  0  0  0  0  0  0  0  0  0  0  0  # atno 17342 bound_to 10162
  139.7247  144.7595  151.0898 LP  0  0  0  0  0  0  0  0  0  0  0  0  # atno 17343 bound_to 10162
  157.0398  131.0032  151.3287 LP  0  0  0  0  0  0  0  0  0  0  0  0  # atno 17370 bound_to 10713
  157.5217  130.8002  149.7817 LP  0  0  0  0  0  0  0  0  0  0  0  0  # atno 17371 bound_to 10713
  141.1041  133.9722  157.3028 LP  0  0  0  0  0  0  0  0  0  0  0  0  # atno 17394 bound_to 11000
  139.9350  135.0197  156.8527 LP  0  0  0  0  0  0  0  0  0  0  0  0  # atno 17395 bound_to 11000

$$$$
