AV-unprocessed.smi:1752|AV-procd|sdf|7061|dock2
  -GOLD-   22720 8273D 1   1.00000     0.00000
 Structure written by MMmdl.
 43 44  0  0  0  0  0  0  0  0  2 V2000
  146.2171  138.5963  150.8153 C   0  0  0  0  0  0  0  0  0  0  0  0
  146.8853  138.0528  152.0890 C   0  0  1  0  0  0  0  0  0  0  0  0
  146.4026  138.7549  153.3774 C   0  0  0  0  0  0  0  0  0  0  0  0
  147.1941  139.9261  153.7084 N   0  0  0  0  0  0  0  0  0  0  0  0
  146.7926  141.2446  153.7488 C   0  0  0  0  0  0  0  0  0  0  0  0
  147.8789  141.9889  154.1101 C   0  0  0  0  0  0  0  0  0  0  0  0
  148.9126  141.0237  154.2676 C   0  0  0  0  0  0  0  0  0  0  0  0
  148.5004  139.7901  154.0245 N   0  0  0  0  0  0  0  0  0  0  0  0
  146.6424  136.6158  152.1774 N   0  0  0  0  0  0  0  0  0  0  0  0
  145.4360  136.0297  152.2749 C   0  0  0  0  0  0  0  0  0  0  0  0
  144.3897  136.6778  152.3244 O   0  0  0  0  0  0  0  0  0  0  0  0
  145.4736  134.6771  152.3762 N   0  0  0  0  0  0  0  0  0  0  0  0
  146.7107  133.8734  152.2539 C   0  0  0  0  0  0  0  0  0  0  0  0
  146.4973  132.4737  151.6299 C   0  0  0  0  0  0  0  0  0  0  0  0
  145.8601  132.4717  150.2230 C   0  0  0  0  0  0  0  0  0  0  0  0
  144.7251  133.4171  150.0434 N   0  3  1  0  0  0  0  0  0  0  0  0
  144.1213  133.2998  148.6977 C   0  0  0  0  0  0  0  0  0  0  0  0
  143.7015  133.4019  151.1230 C   0  0  0  0  0  0  0  0  0  0  0  0
  144.2236  133.9062  152.4897 C   0  0  0  0  0  0  0  0  0  0  0  0
  146.4492  139.6503  150.6599 H   0  0  0  0  0  0  0  0  0  0  0  0
  145.1321  138.4989  150.8645 H   0  0  0  0  0  0  0  0  0  0  0  0
  146.5605  138.0577  149.9316 H   0  0  0  0  0  0  0  0  0  0  0  0
  147.9598  138.2156  151.9859 H   0  0  0  0  0  0  0  0  0  0  0  0
  145.3567  139.0512  153.2775 H   0  0  0  0  0  0  0  0  0  0  0  0
  146.4500  138.0709  154.2257 H   0  0  0  0  0  0  0  0  0  0  0  0
  145.7782  141.5387  153.5220 H   0  0  0  0  0  0  0  0  0  0  0  0
  147.9279  143.0596  154.2417 H   0  0  0  0  0  0  0  0  0  0  0  0
  149.9434  141.1823  154.5493 H   0  0  0  0  0  0  0  0  0  0  0  0
  147.4570  136.0192  152.1711 H   0  0  0  0  0  0  0  0  0  0  0  0
  147.4491  134.3874  151.6363 H   0  0  0  0  0  0  0  0  0  0  0  0
  147.1540  133.7689  153.2448 H   0  0  0  0  0  0  0  0  0  0  0  0
  147.4640  131.9732  151.5662 H   0  0  0  0  0  0  0  0  0  0  0  0
  145.9155  131.8383  152.2971 H   0  0  0  0  0  0  0  0  0  0  0  0
  146.6256  132.7324  149.4913 H   0  0  0  0  0  0  0  0  0  0  0  0
  145.5342  131.4591  149.9810 H   0  0  0  0  0  0  0  0  0  0  0  0
  143.6288  132.3346  148.5738 H   0  0  0  0  0  0  0  0  0  0  0  0
  144.8825  133.3979  147.9232 H   0  0  0  0  0  0  0  0  0  0  0  0
  143.3827  134.0850  148.5338 H   0  0  0  0  0  0  0  0  0  0  0  0
  142.8857  134.0601  150.8203 H   0  0  0  0  0  0  0  0  0  0  0  0
  143.2693  132.4050  151.2200 H   0  0  0  0  0  0  0  0  0  0  0  0
  144.3759  133.0700  153.1716 H   0  0  0  0  0  0  0  0  0  0  0  0
  143.4429  134.4879  152.9834 H   0  0  0  0  0  0  0  0  0  0  0  0
  145.1315  134.3413  150.0797 H   0  0  0  0  0  0  0  0  0  0  0  0
  1  2  1  0  0  0  0
  1 20  1  0  0  0  0
  1 21  1  0  0  0  0
  1 22  1  0  0  0  0
  2  3  1  0  0  0  0
  2  9  1  0  0  0  0
  2 23  1  0  0  0  0
  3  4  1  0  0  0  0
  3 24  1  0  0  0  0
  3 25  1  0  0  0  0
  4  8  1  0  0  0  0
  4  5  1  0  0  0  0
  5  6  2  0  0  0  0
  5 26  1  0  0  0  0
  6  7  1  0  0  0  0
  6 27  1  0  0  0  0
  7  8  2  0  0  0  0
  7 28  1  0  0  0  0
  9 10  1  0  0  0  0
  9 29  1  0  0  0  0
 10 11  2  0  0  0  0
 10 12  1  0  0  0  0
 12 19  1  0  0  0  0
 12 13  1  0  0  0  0
 13 14  1  0  0  0  0
 13 30  1  0  0  0  0
 13 31  1  0  0  0  0
 14 15  1  0  0  0  0
 14 32  1  0  0  0  0
 14 33  1  0  0  0  0
 15 16  1  0  0  0  0
 15 34  1  0  0  0  0
 15 35  1  0  0  0  0
 16 17  1  0  0  0  0
 16 18  1  0  0  0  0
 16 43  1  0  0  0  0
 17 36  1  0  0  0  0
 17 37  1  0  0  0  0
 17 38  1  0  0  0  0
 18 19  1  0  0  0  0
 18 39  1  0  0  0  0
 18 40  1  0  0  0  0
 19 41  1  0  0  0  0
 19 42  1  0  0  0  0
M  CHG  1  16   1
M  END
> <s_m_source_file>
AV-unprocessed.smi

> <i_m_source_file_index>
1752

> <i_lp_mmshare_version>
43012

> <i_f3d_flags>
0

> <s_epik_input>
bjFbY0hdW2NIXVtjSF1uMVtDSDJdW0NAQEhdKFtDSDNdKVtOSF1DKD1PKU4yW0NIMl1bQ0gyXVtDSDJdTihbQ0gzXSlbQ0gyXVtDSDJdMg==

> <s_epik_cmdline>
J2VwaWtfcHl0aG9uJywgJy1waCcsICc3LjAnLCAnLXRuJywgJzgnLCAnLW1hJywgJzIwMCcsICctbWV0YWxfYmluZGluZycsICctaW1hZScsICc8aW5maWxlLm1hZT4nLCAnLW9tYWUnLCAnPG91dGZpbGUubWFlPic=

> <r_lp_tautomer_probability>
1

> <r_epik_Ionization_Penalty>
0.00208423

> <r_epik_Ionization_Penalty_Charging>
0.00203643

> <r_epik_Ionization_Penalty_Neutral>
4.77939e-05

> <r_epik_State_Penalty>
0.00139278

> <r_epik_Charging_Adjusted_Penalty>
0.00342922

> <i_epik_Tot_Q>
1

> <i_epik_Tot_abs_Q>
1

> <r_epik_Metal_State_Penalty>
-0

> <b_epik_Metal_Only>
0

> <s_lp_Force_Field>
OPLS_2005

> <r_lp_Energy>
45.7643

> <b_lp_Chiralities_Consistent>
1

> <s_lp_Variant>
AV-unprocessed.smi:1752-4

> <Gold.Version>
5.8.1

> <Gold.Id.Protein>
6NUR|6NUR_protein|mol2

> <Gold.PLP.Fitness>
32.9966

> <Gold.PLP.PLP>
-29.2305

> <Gold.PLP.part.hbond>
-1.1156

> <Gold.PLP.part.metal>
0.0000

> <Gold.PLP.part.buried>
6.8634

> <Gold.PLP.part.nonpolar>
-36.2144

> <Gold.PLP.part.repulsive>
0.7787

> <Gold.PLP.ligand.clash>
0.2091

> <Gold.PLP.ligand.torsion>
0.4173

> <Gold.PLP.Chemscore.Hbond>
0.7200

> <Gold.PLP.Chemscore.CHOScore>
0.8548

> <Gold.PLP.Chemscore.Metal>
0.0000

> <Gold.Chemscore.Hbonds>
donor molecule, donor type, donor heavy atom, donor atom, acceptor molecule, acceptor atom, score
      L1  H     9    29       P1  7948  0.69
      L1  C     5    26       P1 10175  0.82

> <Gold.PLP.Chemscore.Internal.Correction>
0.0854

> <Gold.Rescore>
     Score         DG    S(hbond)    S(metal)    S(lipo)     H(rot)  DE(clash)    DE(int)     intcor
     11.35     -15.25       0.84        0.00      90.30       1.41       2.57       1.34       ----

> <Gold.Chemscore.Fitness>
11.3470

> <Gold.Chemscore.DG>
-15.2508

> <Gold.Chemscore.ZeroCoef>
-5.4800

> <Gold.Chemscore.Hbond>
0.8446

> <Gold.Chemscore.Metal>
0.0000

> <Gold.Chemscore.Lipo>
90.3050

> <Gold.Chemscore.Internal_Hbond>
0.0000

> <Gold.Chemscore.DEClash>
2.5655

> <Gold.Chemscore.DEInternal>
1.3383

> <Gold.Chemscore.Rot>
1.4125

> <Gold.Chemscore.Internal.Correction>
   9.000000E+99

> <Gold.Chemscore.Hbonds>
donor molecule, donor type, donor heavy atom, donor atom, acceptor molecule, acceptor atom, score
      L1  H     9    29       P1  7948  0.65

> <Gold.Chemscore.Hbond.Weighted>
-2.8211

> <Gold.Chemscore.Metal.Weighted>
-0.0000

> <Gold.Chemscore.Lipo.Weighted>
-10.5657

> <Gold.Chemscore.Internal_Hbond.Weighted>
0.0000

> <Gold.Chemscore.DEClash.Weighted>
2.5655

> <Gold.Chemscore.DEInternal.Weighted>
1.3383

> <Gold.Chemscore.Rot.Weighted>
3.6160

> <Gold.Chemscore.Internal.Correction.Weighted>
   9.000000E+99

> <Gold.Protein.RotatedTorsions>
[ 6907 6896 6895 6894 ] final -153.65 input  -60.11 | X-H torsion
[ 7974 7965 7964 7962 ] final  -91.58 input  175.53 | X-H torsion
[ 8008 7997 7996 7995 ] final  -66.76 input   59.86 | X-H torsion
[ 10167 10162 10161 10158 ] final  -95.03 input  -65.29 | X-H torsion
[ 10718 10713 10712 10709 ] final -127.95 input   66.30 | X-H torsion
[ 10763 10752 10751 10750 ] final  158.77 input  -60.55 | X-H torsion
[ 11005 11000 10999 10996 ] final   36.70 input  -57.11 | X-H torsion

> <Gold.Protein.ActiveResidues>
 VAL166  LYS551  ARG553  GLY616  TRP617  ASP618  TYR619  PRO620  LYS621  CYS622 
 ASP623  PHE694  ASN695  SER759  ASP760  ASP761  ALA762  ILE779  LEU786  VAL792 
 PHE793  MET794  SER795  GLU796  ALA797  LYS798  CYS799  TRP800  GLU811  SER814 

> <Gold.Protein.RotatedAtoms>
  151.2458  133.4376  159.2609 H   0  0  0  0  0  0  0  0  0  0  0  0  # atno 6907 bound_to 6896
  151.0663  134.9770  159.8296 H   0  0  0  0  0  0  0  0  0  0  0  0  # atno 6908 bound_to 6896
  152.5406  134.2405  159.8913 H   0  0  0  0  0  0  0  0  0  0  0  0  # atno 6909 bound_to 6896
  145.4112  140.9545  143.2233 H   0  0  0  0  0  0  0  0  0  0  0  0  # atno 7974 bound_to 7965
  154.4755  140.0906  156.7251 H   0  0  0  0  0  0  0  0  0  0  0  0  # atno 8008 bound_to 7997
  155.4608  140.3461  155.4294 H   0  0  0  0  0  0  0  0  0  0  0  0  # atno 8009 bound_to 7997
  156.1109  140.1447  156.9327 H   0  0  0  0  0  0  0  0  0  0  0  0  # atno 8010 bound_to 7997
  140.3084  143.3120  152.0175 H   0  0  0  0  0  0  0  0  0  0  0  0  # atno 10167 bound_to 10162
  156.1905  130.6792  151.0418 H   0  0  0  0  0  0  0  0  0  0  0  0  # atno 10718 bound_to 10713
  154.2213  135.2782  155.2923 H   0  0  0  0  0  0  0  0  0  0  0  0  # atno 10763 bound_to 10752
  154.5699  135.5621  153.7089 H   0  0  0  0  0  0  0  0  0  0  0  0  # atno 10764 bound_to 10752
  153.0041  135.6319  154.2353 H   0  0  0  0  0  0  0  0  0  0  0  0  # atno 10765 bound_to 10752
  140.2299  134.3539  155.7968 H   0  0  0  0  0  0  0  0  0  0  0  0  # atno 11005 bound_to 11000
  144.8307  139.5633  143.6945 LP  0  0  0  0  0  0  0  0  0  0  0  0  # atno 17320 bound_to 7965
  146.2704  139.6621  142.9300 LP  0  0  0  0  0  0  0  0  0  0  0  0  # atno 17321 bound_to 7965
  139.4899  144.6403  151.6890 LP  0  0  0  0  0  0  0  0  0  0  0  0  # atno 17342 bound_to 10162
  140.5590  144.0300  150.6161 LP  0  0  0  0  0  0  0  0  0  0  0  0  # atno 17343 bound_to 10162
  157.6926  131.0805  150.7064 LP  0  0  0  0  0  0  0  0  0  0  0  0  # atno 17370 bound_to 10713
  156.7120  130.4655  149.5545 LP  0  0  0  0  0  0  0  0  0  0  0  0  # atno 17371 bound_to 10713
  141.2218  133.7240  156.8715 LP  0  0  0  0  0  0  0  0  0  0  0  0  # atno 17394 bound_to 11000
  140.1761  134.9066  157.2892 LP  0  0  0  0  0  0  0  0  0  0  0  0  # atno 17395 bound_to 11000

$$$$
