AV-unprocessed.smi:815|AV-procd|sdf|3825|dock1
  -GOLD-   22720 1263D 1   1.00000     0.00000
 Structure written by MMmdl.
 39 40  0  0  0  0  0  0  0  0  1 V2000
  145.5096  136.5206  152.4557 C   0  0  0  0  0  0  0  0  0  0  0  0
  145.8371  137.4621  151.2884 C   0  0  0  0  0  0  0  0  0  0  0  0
  146.3732  138.8350  151.7329 C   0  0  0  0  0  0  0  0  0  0  0  0
  147.5932  138.7264  152.5267 N   0  0  0  0  0  0  0  0  0  0  0  0
  148.0153  139.6338  153.4183 C   0  0  0  0  0  0  0  0  0  0  0  0
  147.4072  140.6743  153.6682 O   0  0  0  0  0  0  0  0  0  0  0  0
  149.1835  139.2649  153.9711 N   0  0  0  0  0  0  0  0  0  0  0  0
  149.9346  139.9346  154.9741 C   0  0  0  0  0  0  0  0  0  0  0  0
  151.1288  139.4301  155.5419 C   0  0  0  0  0  0  0  0  0  0  0  0
  151.7978  140.1987  156.5134 C   0  0  0  0  0  0  0  0  0  0  0  0
  151.2596  141.4484  156.8821 C   0  0  0  0  0  0  0  0  0  0  0  0
  151.9248  142.2156  157.8487 N   0  0  0  0  0  0  0  0  0  0  0  0
  151.4712  143.5998  157.9091 C   0  0  0  0  0  0  0  0  0  0  0  0
  152.3386  144.3944  158.9008 C   0  0  0  0  0  0  0  0  0  0  0  0
  152.3126  143.7581  160.1756 O   0  0  0  0  0  0  0  0  0  0  0  0
  152.8261  142.4299  160.1211 C   0  0  0  0  0  0  0  0  0  0  0  0
  151.9695  141.5851  159.1621 C   0  0  0  0  0  0  0  0  0  0  0  0
  150.1241  141.9429  156.3347 N   0  0  0  0  0  0  0  0  0  0  0  0
  149.4881  141.2013  155.4032 C   0  0  0  0  0  0  0  0  0  0  0  0
  145.0948  135.5814  152.0896 H   0  0  0  0  0  0  0  0  0  0  0  0
  144.7771  136.9675  153.1284 H   0  0  0  0  0  0  0  0  0  0  0  0
  146.3997  136.2811  153.0382 H   0  0  0  0  0  0  0  0  0  0  0  0
  146.5569  136.9803  150.6256 H   0  0  0  0  0  0  0  0  0  0  0  0
  144.9356  137.6125  150.6934 H   0  0  0  0  0  0  0  0  0  0  0  0
  146.5515  139.4678  150.8618 H   0  0  0  0  0  0  0  0  0  0  0  0
  145.6218  139.3475  152.3340 H   0  0  0  0  0  0  0  0  0  0  0  0
  148.1576  137.9022  152.3819 H   0  0  0  0  0  0  0  0  0  0  0  0
  149.6100  138.4304  153.5954 H   0  0  0  0  0  0  0  0  0  0  0  0
  151.5508  138.4832  155.2428 H   0  0  0  0  0  0  0  0  0  0  0  0
  152.7107  139.8353  156.9624 H   0  0  0  0  0  0  0  0  0  0  0  0
  151.5270  144.0504  156.9174 H   0  0  0  0  0  0  0  0  0  0  0  0
  150.4265  143.6339  158.2217 H   0  0  0  0  0  0  0  0  0  0  0  0
  153.3665  144.4734  158.5429 H   0  0  0  0  0  0  0  0  0  0  0  0
  151.9581  145.4107  159.0031 H   0  0  0  0  0  0  0  0  0  0  0  0
  153.8693  142.4447  159.8010 H   0  0  0  0  0  0  0  0  0  0  0  0
  152.8058  141.9991  161.1222 H   0  0  0  0  0  0  0  0  0  0  0  0
  150.9585  141.4853  159.5596 H   0  0  0  0  0  0  0  0  0  0  0  0
  152.3837  140.5798  159.0757 H   0  0  0  0  0  0  0  0  0  0  0  0
  148.5887  141.6343  154.9899 H   0  0  0  0  0  0  0  0  0  0  0  0
  1  2  1  0  0  0  0
  1 20  1  0  0  0  0
  1 21  1  0  0  0  0
  1 22  1  0  0  0  0
  2  3  1  0  0  0  0
  2 23  1  0  0  0  0
  2 24  1  0  0  0  0
  3  4  1  0  0  0  0
  3 25  1  0  0  0  0
  3 26  1  0  0  0  0
  4  5  1  0  0  0  0
  4 27  1  0  0  0  0
  5  6  2  0  0  0  0
  5  7  1  0  0  0  0
  7  8  1  0  0  0  0
  7 28  1  0  0  0  0
  8 19  1  0  0  0  0
  8  9  2  0  0  0  0
  9 10  1  0  0  0  0
  9 29  1  0  0  0  0
 10 11  2  0  0  0  0
 10 30  1  0  0  0  0
 11 12  1  0  0  0  0
 11 18  1  0  0  0  0
 12 17  1  0  0  0  0
 12 13  1  0  0  0  0
 13 14  1  0  0  0  0
 13 31  1  0  0  0  0
 13 32  1  0  0  0  0
 14 15  1  0  0  0  0
 14 33  1  0  0  0  0
 14 34  1  0  0  0  0
 15 16  1  0  0  0  0
 16 17  1  0  0  0  0
 16 35  1  0  0  0  0
 16 36  1  0  0  0  0
 17 37  1  0  0  0  0
 17 38  1  0  0  0  0
 18 19  2  0  0  0  0
 19 39  1  0  0  0  0
M  END
> <s_m_source_file>
AV-unprocessed.smi

> <i_m_source_file_index>
815

> <i_lp_mmshare_version>
43012

> <i_f3d_flags>
0

> <s_epik_input>
W0NIM11bQ0gyXVtDSDJdW05IXUMoPU8pW05IXWMxW2NIXVtjSF1jKG5bY0hdMSlOMltDSDJdW0NIMl1PW0NIMl1bQ0gyXTI=

> <s_epik_cmdline>
J2VwaWtfcHl0aG9uJywgJy1waCcsICc3LjAnLCAnLXRuJywgJzgnLCAnLW1hJywgJzIwMCcsICctbWV0YWxfYmluZGluZycsICctaW1hZScsICc8aW5maWxlLm1hZT4nLCAnLW9tYWUnLCAnPG91dGZpbGUubWFlPic=

> <r_lp_tautomer_probability>
1

> <r_epik_Ionization_Penalty>
0.00208635

> <r_epik_Ionization_Penalty_Charging>
0

> <r_epik_Ionization_Penalty_Neutral>
0.00208635

> <r_epik_State_Penalty>
0.00140033

> <r_epik_Charging_Adjusted_Penalty>
0.00140033

> <i_epik_Tot_Q>
0

> <i_epik_Tot_abs_Q>
0

> <r_epik_Metal_State_Penalty>
-0

> <b_epik_Metal_Only>
0

> <s_lp_Force_Field>
OPLS_2005

> <r_lp_Energy>
21.8572

> <b_lp_Chiralities_Consistent>
1

> <s_lp_Variant>
AV-unprocessed.smi:815-1

> <Gold.Version>
5.8.1

> <Gold.Id.Protein>
6NUR|6NUR_protein|mol2

> <Gold.PLP.Fitness>
39.2392

> <Gold.PLP.PLP>
-36.8462

> <Gold.PLP.part.hbond>
-2.9668

> <Gold.PLP.part.metal>
0.0000

> <Gold.PLP.part.buried>
3.4551

> <Gold.PLP.part.nonpolar>
-38.9944

> <Gold.PLP.part.repulsive>
0.8169

> <Gold.PLP.ligand.clash>
0.0000

> <Gold.PLP.ligand.torsion>
0.3627

> <Gold.PLP.Chemscore.Hbond>
1.0000

> <Gold.PLP.Chemscore.CHOScore>
0.0000

> <Gold.PLP.Chemscore.Metal>
0.0000

> <Gold.Chemscore.Hbonds>
donor molecule, donor type, donor heavy atom, donor atom, acceptor molecule, acceptor atom, score
      L1  H     4    27       P1  7948  1.00

> <Gold.PLP.Chemscore.Internal.Correction>
0.1183

> <Gold.Rescore>
     Score         DG    S(hbond)    S(metal)    S(lipo)     H(rot)  DE(clash)    DE(int)     intcor
     12.06     -16.93       0.99        0.00      99.64       1.37       3.16       1.72       ----

> <Gold.Chemscore.Fitness>
12.0571

> <Gold.Chemscore.DG>
-16.9341

> <Gold.Chemscore.ZeroCoef>
-5.4800

> <Gold.Chemscore.Hbond>
0.9916

> <Gold.Chemscore.Metal>
0.0000

> <Gold.Chemscore.Lipo>
99.6413

> <Gold.Chemscore.Internal_Hbond>
0.0000

> <Gold.Chemscore.DEClash>
3.1590

> <Gold.Chemscore.DEInternal>
1.7179

> <Gold.Chemscore.Rot>
1.3734

> <Gold.Chemscore.Internal.Correction>
   9.000000E+99

> <Gold.Chemscore.Hbonds>
donor molecule, donor type, donor heavy atom, donor atom, acceptor molecule, acceptor atom, score
      L1  H     4    27       P1  7948  1.00

> <Gold.Chemscore.Hbond.Weighted>
-3.3119

> <Gold.Chemscore.Metal.Weighted>
-0.0000

> <Gold.Chemscore.Lipo.Weighted>
-11.6580

> <Gold.Chemscore.Internal_Hbond.Weighted>
0.0000

> <Gold.Chemscore.DEClash.Weighted>
3.1590

> <Gold.Chemscore.DEInternal.Weighted>
1.7179

> <Gold.Chemscore.Rot.Weighted>
3.5159

> <Gold.Chemscore.Internal.Correction.Weighted>
   9.000000E+99

> <Gold.Protein.RotatedTorsions>
[ 6907 6896 6895 6894 ] final  105.54 input  -60.11 | X-H torsion
[ 7974 7965 7964 7962 ] final  137.97 input  175.53 | X-H torsion
[ 8008 7997 7996 7995 ] final -165.85 input   59.86 | X-H torsion
[ 10167 10162 10161 10158 ] final  -83.93 input  -65.29 | X-H torsion
[ 10718 10713 10712 10709 ] final -118.90 input   66.30 | X-H torsion
[ 10763 10752 10751 10750 ] final  127.69 input  -60.55 | X-H torsion
[ 11005 11000 10999 10996 ] final  -37.93 input  -57.11 | X-H torsion

> <Gold.Protein.ActiveResidues>
 VAL166  LYS551  ARG553  GLY616  TRP617  ASP618  TYR619  PRO620  LYS621  CYS622 
 ASP623  PHE694  ASN695  SER759  ASP760  ASP761  ALA762  ILE779  LEU786  VAL792 
 PHE793  MET794  SER795  GLU796  ALA797  LYS798  CYS799  TRP800  GLU811  SER814 

> <Gold.Protein.RotatedAtoms>
  152.5226  133.9513  159.7673 H   0  0  0  0  0  0  0  0  0  0  0  0  # atno 6907 bound_to 6896
  150.9823  133.6225  159.2728 H   0  0  0  0  0  0  0  0  0  0  0  0  # atno 6908 bound_to 6896
  151.3398  135.0867  159.9420 H   0  0  0  0  0  0  0  0  0  0  0  0  # atno 6909 bound_to 6896
  144.9417  139.4923  143.5568 H   0  0  0  0  0  0  0  0  0  0  0  0  # atno 7974 bound_to 7965
  155.8556  140.0970  157.1647 H   0  0  0  0  0  0  0  0  0  0  0  0  # atno 8008 bound_to 7997
  154.3987  140.1375  156.3959 H   0  0  0  0  0  0  0  0  0  0  0  0  # atno 8009 bound_to 7997
  155.7914  140.3455  155.5354 H   0  0  0  0  0  0  0  0  0  0  0  0  # atno 8010 bound_to 7997
  140.4180  143.2596  151.8928 H   0  0  0  0  0  0  0  0  0  0  0  0  # atno 10167 bound_to 10162
  156.1140  130.6271  150.9349 H   0  0  0  0  0  0  0  0  0  0  0  0  # atno 10718 bound_to 10713
  153.7135  135.3264  155.3251 H   0  0  0  0  0  0  0  0  0  0  0  0  # atno 10763 bound_to 10752
  154.8378  135.4482  154.1290 H   0  0  0  0  0  0  0  0  0  0  0  0  # atno 10764 bound_to 10752
  153.2390  135.6969  153.7884 H   0  0  0  0  0  0  0  0  0  0  0  0  # atno 10765 bound_to 10752
  140.9990  133.6965  156.1987 H   0  0  0  0  0  0  0  0  0  0  0  0  # atno 11005 bound_to 11000
  146.3288  139.8441  142.8885 LP  0  0  0  0  0  0  0  0  0  0  0  0  # atno 17320 bound_to 7965
  145.2981  141.0186  143.3624 LP  0  0  0  0  0  0  0  0  0  0  0  0  # atno 17321 bound_to 7965
  139.4782  144.5467  151.8447 LP  0  0  0  0  0  0  0  0  0  0  0  0  # atno 17342 bound_to 10162
  140.4565  144.1783  150.5902 LP  0  0  0  0  0  0  0  0  0  0  0  0  # atno 17343 bound_to 10162
  157.6323  131.0920  150.8417 LP  0  0  0  0  0  0  0  0  0  0  0  0  # atno 17370 bound_to 10713
  156.8523  130.5085  149.5311 LP  0  0  0  0  0  0  0  0  0  0  0  0  # atno 17371 bound_to 10713
  140.6920  134.4655  157.5588 LP  0  0  0  0  0  0  0  0  0  0  0  0  # atno 17394 bound_to 11000
  139.9029  134.8515  156.1823 LP  0  0  0  0  0  0  0  0  0  0  0  0  # atno 17395 bound_to 11000

$$$$
