AV-unprocessed.smi:102|AV-procd|sdf|946|dock9
  -GOLD-   2262017473D 1   1.00000     0.00000
 Structure written by MMmdl.
 44 45  0  0  0  0  0  0  0  0  1 V2000
  147.9511  135.5591  160.2068 C   0  0  0  0  0  0  0  0  0  0  0  0
  147.8669  136.8030  159.3320 C   0  0  0  0  0  0  0  0  0  0  0  0
  147.1633  137.7632  159.6460 O   0  0  0  0  0  0  0  0  0  0  0  0
  148.6244  136.7061  158.2283 O   0  0  0  0  0  0  0  0  0  0  0  0
  148.6839  137.7927  157.3184 C   0  0  0  0  0  0  0  0  0  0  0  0
  149.0694  137.2655  155.9235 C   0  0  1  0  0  0  0  0  0  0  0  0
  148.1750  137.8078  154.9513 O   0  0  0  0  0  0  0  0  0  0  0  0
  148.7396  138.9043  154.2857 C   0  0  1  0  0  0  0  0  0  0  0  0
  147.8617  140.1270  154.4691 N   0  0  0  0  0  0  0  0  0  0  0  0
  146.5612  140.0498  154.9531 C   0  0  0  0  0  0  0  0  0  0  0  0
  145.7805  141.1395  155.1427 C   0  0  0  0  0  0  0  0  0  0  0  0
  144.5325  140.9861  155.6166 F   0  0  0  0  0  0  0  0  0  0  0  0
  146.2795  142.4767  154.8354 C   0  0  0  0  0  0  0  0  0  0  0  0
  145.6496  143.5228  154.9782 O   0  0  0  0  0  0  0  0  0  0  0  0
  147.5865  142.5054  154.3407 N   0  0  0  0  0  0  0  0  0  0  0  0
  148.4013  141.3901  154.1408 C   0  0  0  0  0  0  0  0  0  0  0  0
  149.5432  141.5289  153.7048 O   0  0  0  0  0  0  0  0  0  0  0  0
  150.1668  139.0991  154.8390 C   0  0  1  0  0  0  0  0  0  0  0  0
  150.1934  140.1165  155.8418 O   0  0  0  0  0  0  0  0  0  0  0  0
  151.3482  140.4900  156.4179 C   0  0  0  0  0  0  0  0  0  0  0  0
  151.1610  141.6506  157.3853 C   0  0  0  0  0  0  0  0  0  0  0  0
  152.4551  139.9892  156.2218 O   0  0  0  0  0  0  0  0  0  0  0  0
  150.4431  137.7213  155.4251 C   0  0  1  0  0  0  0  0  0  0  0  0
  151.4502  137.7092  156.4313 O   0  0  0  0  0  0  0  0  0  0  0  0
  151.8830  136.5432  156.9423 C   0  0  0  0  0  0  0  0  0  0  0  0
  152.6895  136.7331  158.2197 C   0  0  0  0  0  0  0  0  0  0  0  0
  151.6887  135.4260  156.4635 O   0  0  0  0  0  0  0  0  0  0  0  0
  147.9737  143.4093  154.1119 H   0  0  0  0  0  0  0  0  0  0  0  0
  147.9185  134.6585  159.5935 H   0  0  0  0  0  0  0  0  0  0  0  0
  147.1164  135.5279  160.9074 H   0  0  0  0  0  0  0  0  0  0  0  0
  148.8809  135.5591  160.7754 H   0  0  0  0  0  0  0  0  0  0  0  0
  147.7302  138.3191  157.2829 H   0  0  0  0  0  0  0  0  0  0  0  0
  149.4315  138.4999  157.6787 H   0  0  0  0  0  0  0  0  0  0  0  0
  149.0125  136.1764  155.9202 H   0  0  0  0  0  0  0  0  0  0  0  0
  148.7232  138.6875  153.2159 H   0  0  0  0  0  0  0  0  0  0  0  0
  146.1274  139.0926  155.1950 H   0  0  0  0  0  0  0  0  0  0  0  0
  150.8400  139.3283  154.0117 H   0  0  0  0  0  0  0  0  0  0  0  0
  150.1830  141.5973  157.8641 H   0  0  0  0  0  0  0  0  0  0  0  0
  151.2352  142.5993  156.8534 H   0  0  0  0  0  0  0  0  0  0  0  0
  151.9262  141.6267  158.1613 H   0  0  0  0  0  0  0  0  0  0  0  0
  150.7281  137.0523  154.6111 H   0  0  0  0  0  0  0  0  0  0  0  0
  152.1757  137.4147  158.8977 H   0  0  0  0  0  0  0  0  0  0  0  0
  153.6704  137.1479  157.9867 H   0  0  0  0  0  0  0  0  0  0  0  0
  152.8295  135.7794  158.7292 H   0  0  0  0  0  0  0  0  0  0  0  0
  1  2  1  0  0  0  0
  1 29  1  0  0  0  0
  1 30  1  0  0  0  0
  1 31  1  0  0  0  0
  2  3  2  0  0  0  0
  2  4  1  0  0  0  0
  4  5  1  0  0  0  0
  5  6  1  0  0  0  0
  5 32  1  0  0  0  0
  5 33  1  0  0  0  0
  6 23  1  0  0  0  0
  6  7  1  0  0  0  0
  6 34  1  0  0  0  0
  7  8  1  0  0  0  0
  8  9  1  0  0  0  0
  8 18  1  0  0  0  0
  8 35  1  0  0  0  0
  9 16  1  0  0  0  0
  9 10  1  0  0  0  0
 10 11  2  0  0  0  0
 10 36  1  0  0  0  0
 11 12  1  0  0  0  0
 11 13  1  0  0  0  0
 13 14  2  0  0  0  0
 13 15  1  0  0  0  0
 15 28  1  0  0  0  0
 15 16  1  0  0  0  0
 16 17  2  0  0  0  0
 18 19  1  0  0  0  0
 18 23  1  0  0  0  0
 18 37  1  0  0  0  0
 19 20  1  0  0  0  0
 20 21  1  0  0  0  0
 20 22  2  0  0  0  0
 21 38  1  0  0  0  0
 21 39  1  0  0  0  0
 21 40  1  0  0  0  0
 23 24  1  0  0  0  0
 23 41  1  0  0  0  0
 24 25  1  0  0  0  0
 25 26  1  0  0  0  0
 25 27  2  0  0  0  0
 26 42  1  0  0  0  0
 26 43  1  0  0  0  0
 26 44  1  0  0  0  0
M  END
> <s_m_source_file>
AV-unprocessed.smi

> <i_m_source_file_index>
102

> <i_lp_mmshare_version>
43012

> <i_f3d_flags>
0

> <s_epik_input>
W0NIM11DKD1PKU9bQ0gyXVtDQEBIXTFPW0NASF0oW0NAQEhdKE9DKD1PKVtDSDNdKVtDQEhdMU9DKD1PKVtDSDNdKW4yW2NIXWMoRiljKD1PKVtuSF1jMj1P

> <s_epik_cmdline>
J2VwaWtfcHl0aG9uJywgJy1waCcsICc3LjAnLCAnLXRuJywgJzgnLCAnLW1hJywgJzIwMCcsICctbWV0YWxfYmluZGluZycsICctaW1hZScsICc8aW5maWxlLm1hZT4nLCAnLW9tYWUnLCAnPG91dGZpbGUubWFlPic=

> <r_lp_tautomer_probability>
0.999537

> <r_epik_Ionization_Penalty>
0.058267

> <r_epik_Ionization_Penalty_Charging>
0.058267

> <r_epik_Ionization_Penalty_Neutral>
6.57791e-16

> <r_epik_State_Penalty>
0.0503774

> <r_epik_Charging_Adjusted_Penalty>
0.108644

> <i_epik_Tot_Q>
0

> <i_epik_Tot_abs_Q>
0

> <r_epik_Metal_State_Penalty>
2.6644

> <b_epik_Metal_Only>
0

> <s_epik_Chemistry_Notes>
This compound has an ester and may undergo hydrolysis at high or low pH. This compound contains an acetal/aminal-like group ( X-CH(R)-Y where X, Y are N, S, or O) that may be acid/base labile, releasing an aldehyde.

> <s_lp_Force_Field>
OPLS_2005

> <r_lp_Energy>
16.4745

> <b_lp_Chiralities_Consistent>
1

> <s_lp_Variant>
AV-unprocessed.smi:102-2

> <Gold.Version>
5.8.1

> <Gold.Id.Protein>
6NUR|6NUR_protein|mol2

> <Gold.PLP.Fitness>
37.9823

> <Gold.PLP.PLP>
-28.3926

> <Gold.PLP.part.hbond>
-6.0000

> <Gold.PLP.part.metal>
0.0000

> <Gold.PLP.part.buried>
-3.1723

> <Gold.PLP.part.nonpolar>
-19.8086

> <Gold.PLP.part.repulsive>
1.1740

> <Gold.PLP.ligand.clash>
0.0000

> <Gold.PLP.ligand.torsion>
1.4262

> <Gold.PLP.Chemscore.Hbond>
4.0833

> <Gold.PLP.Chemscore.CHOScore>
0.0000

> <Gold.PLP.Chemscore.Metal>
0.0000

> <Gold.Chemscore.Hbonds>
donor molecule, donor type, donor heavy atom, donor atom, acceptor molecule, acceptor atom, score
      L1  H    15    28       P1  8028  0.30
      P1  H  6934  6947       L1     3  0.80
      P1  H  7989  7998       L1    17  0.09
      P1  H  7997  8008       L1    22  1.00
      P1  H  8011  8017       L1    17  0.75
      P1  H 10752 10764       L1    27  0.81

> <Gold.PLP.Chemscore.Internal.Correction>
0.1921

> <Gold.Rescore>
     Score         DG    S(hbond)    S(metal)    S(lipo)     H(rot)  DE(clash)    DE(int)     intcor
      0.48     -10.03       3.39        0.00      30.71       4.05       1.32       8.23       ----

> <Gold.Chemscore.Fitness>
0.4791

> <Gold.Chemscore.DG>
-10.0286

> <Gold.Chemscore.ZeroCoef>
-5.4800

> <Gold.Chemscore.Hbond>
3.3919

> <Gold.Chemscore.Metal>
0.0000

> <Gold.Chemscore.Lipo>
30.7088

> <Gold.Chemscore.Internal_Hbond>
0.0000

> <Gold.Chemscore.DEClash>
1.3237

> <Gold.Chemscore.DEInternal>
8.2258

> <Gold.Chemscore.Rot>
4.0520

> <Gold.Chemscore.Internal.Correction>
   9.000000E+99

> <Gold.Chemscore.Hbonds>
donor molecule, donor type, donor heavy atom, donor atom, acceptor molecule, acceptor atom, score
      L1  H    15    28       P1  8028  0.25
      P1  H  6934  6947       L1     3  0.80
      P1  H  7989  7998       L1    17  0.09
      P1  H  7997  8008       L1    22  1.00
      P1  H  8011  8017       L1    17  0.74
      P1  H 10752 10764       L1    27  0.19

> <Gold.Chemscore.Hbond.Weighted>
-11.3289

> <Gold.Chemscore.Metal.Weighted>
-0.0000

> <Gold.Chemscore.Lipo.Weighted>
-3.5929

> <Gold.Chemscore.Internal_Hbond.Weighted>
0.0000

> <Gold.Chemscore.DEClash.Weighted>
1.3237

> <Gold.Chemscore.DEInternal.Weighted>
8.2258

> <Gold.Chemscore.Rot.Weighted>
10.3732

> <Gold.Chemscore.Internal.Correction.Weighted>
   9.000000E+99

> <Gold.Protein.RotatedTorsions>
[ 6907 6896 6895 6894 ] final   40.91 input  -60.11 | X-H torsion
[ 7974 7965 7964 7962 ] final  154.36 input  175.53 | X-H torsion
[ 8008 7997 7996 7995 ] final  -40.61 input   59.86 | X-H torsion
[ 10167 10162 10161 10158 ] final  -11.21 input  -65.29 | X-H torsion
[ 10718 10713 10712 10709 ] final   44.16 input   66.30 | X-H torsion
[ 10763 10752 10751 10750 ] final  -46.12 input  -60.55 | X-H torsion
[ 11005 11000 10999 10996 ] final  133.17 input  -57.11 | X-H torsion

> <Gold.Protein.ActiveResidues>
 VAL166  LYS551  ARG553  GLY616  TRP617  ASP618  TYR619  PRO620  LYS621  CYS622 
 ASP623  PHE694  ASN695  SER759  ASP760  ASP761  ALA762  ILE779  LEU786  VAL792 
 PHE793  MET794  SER795  GLU796  ALA797  LYS798  CYS799  TRP800  GLU811  SER814 

> <Gold.Protein.RotatedAtoms>
  152.1885  134.8692  160.0519 H   0  0  0  0  0  0  0  0  0  0  0  0  # atno 6907 bound_to 6896
  151.9590  133.3684  159.4036 H   0  0  0  0  0  0  0  0  0  0  0  0  # atno 6908 bound_to 6896
  150.6930  134.4184  159.5238 H   0  0  0  0  0  0  0  0  0  0  0  0  # atno 6909 bound_to 6896
  144.8093  139.6924  143.6148 H   0  0  0  0  0  0  0  0  0  0  0  0  # atno 7974 bound_to 7965
  154.4010  140.1521  156.3056 H   0  0  0  0  0  0  0  0  0  0  0  0  # atno 8008 bound_to 7997
  155.8661  140.3451  155.5768 H   0  0  0  0  0  0  0  0  0  0  0  0  # atno 8009 bound_to 7997
  155.7826  140.0845  157.2042 H   0  0  0  0  0  0  0  0  0  0  0  0  # atno 8010 bound_to 7997
  140.7133  143.5665  150.9139 H   0  0  0  0  0  0  0  0  0  0  0  0  # atno 10167 bound_to 10162
  157.4238  130.7984  149.7539 H   0  0  0  0  0  0  0  0  0  0  0  0  # atno 10718 bound_to 10713
  154.0397  135.6645  153.4789 H   0  0  0  0  0  0  0  0  0  0  0  0  # atno 10763 bound_to 10752
  153.0506  135.5087  154.7854 H   0  0  0  0  0  0  0  0  0  0  0  0  # atno 10764 bound_to 10752
  154.6826  135.3047  154.9558 H   0  0  0  0  0  0  0  0  0  0  0  0  # atno 10765 bound_to 10752
  139.9835  134.9540  156.9686 H   0  0  0  0  0  0  0  0  0  0  0  0  # atno 11005 bound_to 11000
  146.2390  139.5963  142.9504 LP  0  0  0  0  0  0  0  0  0  0  0  0  # atno 17320 bound_to 7965
  145.5361  141.0424  143.2356 LP  0  0  0  0  0  0  0  0  0  0  0  0  # atno 17321 bound_to 7965
  139.9390  143.6404  152.3058 LP  0  0  0  0  0  0  0  0  0  0  0  0  # atno 17342 bound_to 10162
  139.6882  144.7649  151.1486 LP  0  0  0  0  0  0  0  0  0  0  0  0  # atno 17343 bound_to 10162
  155.9889  130.3955  150.3096 LP  0  0  0  0  0  0  0  0  0  0  0  0  # atno 17370 bound_to 10713
  157.1246  131.0256  151.2995 LP  0  0  0  0  0  0  0  0  0  0  0  0  # atno 17371 bound_to 10713
  140.5049  134.1060  155.7258 LP  0  0  0  0  0  0  0  0  0  0  0  0  # atno 17394 bound_to 11000
  141.1504  133.8980  157.2113 LP  0  0  0  0  0  0  0  0  0  0  0  0  # atno 17395 bound_to 11000

$$$$
