AV-unprocessed.smi:1662|AV-procd|sdf|6664|dock1
  -GOLD-   22720 7373D 1   1.00000     0.00000
 Structure written by MMmdl.
 47 48  0  0  0  0  0  0  0  0  1 V2000
  151.6428  144.6114  160.9767 C   0  0  0  0  0  0  0  0  0  0  0  0
  152.1338  143.3252  160.3693 C   0  0  0  0  0  0  0  0  0  0  0  0
  151.7855  143.0900  159.1470 N   0  0  0  0  0  0  0  0  0  0  0  0
  152.1763  141.9352  158.4973 N   0  0  0  0  0  0  0  0  0  0  0  0
  151.6723  141.8180  157.1215 C   0  0  0  0  0  0  0  0  0  0  0  0
  150.2494  141.2461  157.0569 C   0  0  0  0  0  0  0  0  0  0  0  0
  150.0287  140.0808  157.3888 O   0  0  0  0  0  0  0  0  0  0  0  0
  149.2926  142.0909  156.6439 N   0  0  0  0  0  0  0  0  0  0  0  0
  147.8772  141.7636  156.4863 C   0  0  1  0  0  0  0  0  0  0  0  0
  147.0428  142.6444  157.4375 C   0  0  0  0  0  0  0  0  0  0  0  0
  145.5359  142.4143  157.2576 C   0  0  0  0  0  0  0  0  0  0  0  0
  145.1140  142.6183  155.7940 C   0  0  0  0  0  0  0  0  0  0  0  0
  145.9168  141.7259  154.8254 C   0  0  2  0  0  0  0  0  0  0  0  0
  145.4856  140.2482  154.9262 C   0  0  0  0  0  0  0  0  0  0  0  0
  147.4404  141.9588  155.0115 C   0  0  2  0  0  0  0  0  0  0  0  0
  148.2873  141.1350  154.0209 C   0  0  0  0  0  0  0  0  0  0  0  0
  152.9540  140.9589  159.0484 C   0  0  0  0  0  0  0  0  0  0  0  0
  153.2853  139.9470  158.4281 O   0  0  0  0  0  0  0  0  0  0  0  0
  153.3465  141.2331  160.4324 C   0  0  0  0  0  0  0  0  0  0  0  0
  154.1577  140.2335  161.0488 C   0  0  0  0  0  0  0  0  0  0  0  0
  154.8264  139.4369  161.5571 N   0  0  0  0  0  0  0  0  0  0  0  0
  152.9632  142.3597  161.0837 C   0  0  0  0  0  0  0  0  0  0  0  0
  153.3415  142.6903  162.5211 C   0  0  0  0  0  0  0  0  0  0  0  0
  152.4792  145.2363  161.2904 H   0  0  0  0  0  0  0  0  0  0  0  0
  151.0213  144.4136  161.8502 H   0  0  0  0  0  0  0  0  0  0  0  0
  151.0449  145.1921  160.2724 H   0  0  0  0  0  0  0  0  0  0  0  0
  151.6638  142.7950  156.6352 H   0  0  0  0  0  0  0  0  0  0  0  0
  152.3511  141.2022  156.5278 H   0  0  0  0  0  0  0  0  0  0  0  0
  149.5683  143.0305  156.3976 H   0  0  0  0  0  0  0  0  0  0  0  0
  147.7192  140.7171  156.7519 H   0  0  0  0  0  0  0  0  0  0  0  0
  147.3213  142.4458  158.4733 H   0  0  0  0  0  0  0  0  0  0  0  0
  147.2673  143.6965  157.2557 H   0  0  0  0  0  0  0  0  0  0  0  0
  145.2756  141.4080  157.5865 H   0  0  0  0  0  0  0  0  0  0  0  0
  144.9800  143.0975  157.9002 H   0  0  0  0  0  0  0  0  0  0  0  0
  144.0456  142.4301  155.6847 H   0  0  0  0  0  0  0  0  0  0  0  0
  145.2638  143.6646  155.5245 H   0  0  0  0  0  0  0  0  0  0  0  0
  145.6599  142.0486  153.8154 H   0  0  0  0  0  0  0  0  0  0  0  0
  145.7467  139.8067  155.8874 H   0  0  0  0  0  0  0  0  0  0  0  0
  145.9476  139.6418  154.1475 H   0  0  0  0  0  0  0  0  0  0  0  0
  144.4067  140.1502  154.8039 H   0  0  0  0  0  0  0  0  0  0  0  0
  147.6210  143.0063  154.7635 H   0  0  0  0  0  0  0  0  0  0  0  0
  148.2699  140.0724  154.2642 H   0  0  0  0  0  0  0  0  0  0  0  0
  149.3305  141.4517  154.0261 H   0  0  0  0  0  0  0  0  0  0  0  0
  147.9219  141.2519  153.0004 H   0  0  0  0  0  0  0  0  0  0  0  0
  153.9642  141.9186  162.9725 H   0  0  0  0  0  0  0  0  0  0  0  0
  152.4480  142.7917  163.1380 H   0  0  0  0  0  0  0  0  0  0  0  0
  153.8986  143.6266  162.5653 H   0  0  0  0  0  0  0  0  0  0  0  0
  1  2  1  0  0  0  0
  1 24  1  0  0  0  0
  1 25  1  0  0  0  0
  1 26  1  0  0  0  0
  2 22  1  0  0  0  0
  2  3  2  0  0  0  0
  3  4  1  0  0  0  0
  4  5  1  0  0  0  0
  4 17  1  0  0  0  0
  5  6  1  0  0  0  0
  5 27  1  0  0  0  0
  5 28  1  0  0  0  0
  6  7  2  0  0  0  0
  6  8  1  0  0  0  0
  8  9  1  0  0  0  0
  8 29  1  0  0  0  0
  9 15  1  0  0  0  0
  9 10  1  0  0  0  0
  9 30  1  0  0  0  0
 10 11  1  0  0  0  0
 10 31  1  0  0  0  0
 10 32  1  0  0  0  0
 11 12  1  0  0  0  0
 11 33  1  0  0  0  0
 11 34  1  0  0  0  0
 12 13  1  0  0  0  0
 12 35  1  0  0  0  0
 12 36  1  0  0  0  0
 13 14  1  0  0  0  0
 13 15  1  0  0  0  0
 13 37  1  0  0  0  0
 14 38  1  0  0  0  0
 14 39  1  0  0  0  0
 14 40  1  0  0  0  0
 15 16  1  0  0  0  0
 15 41  1  0  0  0  0
 16 42  1  0  0  0  0
 16 43  1  0  0  0  0
 16 44  1  0  0  0  0
 17 18  2  0  0  0  0
 17 19  1  0  0  0  0
 19 20  1  0  0  0  0
 19 22  2  0  0  0  0
 20 21  3  0  0  0  0
 22 23  1  0  0  0  0
 23 45  1  0  0  0  0
 23 46  1  0  0  0  0
 23 47  1  0  0  0  0
M  END
> <s_m_source_file>
AV-unprocessed.smi

> <i_m_source_file_index>
1662

> <i_lp_mmshare_version>
43012

> <i_f3d_flags>
0

> <s_epik_input>
TiNDYyhjMVtDSDNdKWMoPU8pbihuYzFbQ0gzXSlbQ0gyXUMoPU8pW05IXVtDQEBIXTJbQ0gyXVtDSDJdW0NIMl1bQ0BASF0oW0NIM10pW0NASF0yW0NIM10=

> <s_epik_cmdline>
J2VwaWtfcHl0aG9uJywgJy1waCcsICc3LjAnLCAnLXRuJywgJzgnLCAnLW1hJywgJzIwMCcsICctbWV0YWxfYmluZGluZycsICctaW1hZScsICc8aW5maWxlLm1hZT4nLCAnLW9tYWUnLCAnPG91dGZpbGUubWFlPic=

> <r_lp_tautomer_probability>
1

> <r_epik_Ionization_Penalty>
1.90709e-08

> <r_epik_Ionization_Penalty_Charging>
2.37982e-11

> <r_epik_Ionization_Penalty_Neutral>
1.90471e-08

> <r_epik_State_Penalty>
-0

> <r_epik_Charging_Adjusted_Penalty>
2.37982e-11

> <i_epik_Tot_Q>
0

> <i_epik_Tot_abs_Q>
0

> <r_epik_Metal_State_Penalty>
-0

> <b_epik_Metal_Only>
0

> <s_lp_Force_Field>
OPLS_2005

> <r_lp_Energy>
29.0639

> <b_lp_Chiralities_Consistent>
1

> <s_lp_Variant>
AV-unprocessed.smi:1662-8

> <Gold.Version>
5.8.1

> <Gold.Id.Protein>
6NUR|6NUR_protein|mol2

> <Gold.PLP.Fitness>
45.1326

> <Gold.PLP.PLP>
-40.2726

> <Gold.PLP.part.hbond>
-2.0000

> <Gold.PLP.part.metal>
0.0000

> <Gold.PLP.part.buried>
-4.2425

> <Gold.PLP.part.nonpolar>
-33.1806

> <Gold.PLP.part.repulsive>
0.0241

> <Gold.PLP.ligand.clash>
0.0000

> <Gold.PLP.ligand.torsion>
0.3933

> <Gold.PLP.Chemscore.Hbond>
1.8800

> <Gold.PLP.Chemscore.CHOScore>
0.0000

> <Gold.PLP.Chemscore.Metal>
0.0000

> <Gold.Chemscore.Hbonds>
donor molecule, donor type, donor heavy atom, donor atom, acceptor molecule, acceptor atom, score
      L1  H     8    29       P1  8028  0.86
      P1  H  7997  8008       L1    18  1.00

> <Gold.PLP.Chemscore.Internal.Correction>
0.0065

> <Gold.Rescore>
     Score         DG    S(hbond)    S(metal)    S(lipo)     H(rot)  DE(clash)    DE(int)     intcor
     17.75     -18.72       1.85        0.00      92.13       1.45       0.59       0.38       ----

> <Gold.Chemscore.Fitness>
17.7538

> <Gold.Chemscore.DG>
-18.7244

> <Gold.Chemscore.ZeroCoef>
-5.4800

> <Gold.Chemscore.Hbond>
1.8496

> <Gold.Chemscore.Metal>
0.0000

> <Gold.Chemscore.Lipo>
92.1345

> <Gold.Chemscore.Internal_Hbond>
0.0000

> <Gold.Chemscore.DEClash>
0.5936

> <Gold.Chemscore.DEInternal>
0.3769

> <Gold.Chemscore.Rot>
1.4504

> <Gold.Chemscore.Internal.Correction>
   9.000000E+99

> <Gold.Chemscore.Hbonds>
donor molecule, donor type, donor heavy atom, donor atom, acceptor molecule, acceptor atom, score
      L1  H     8    29       P1  8028  0.83
      P1  H  7997  8008       L1    18  0.94

> <Gold.Chemscore.Hbond.Weighted>
-6.1776

> <Gold.Chemscore.Metal.Weighted>
-0.0000

> <Gold.Chemscore.Lipo.Weighted>
-10.7797

> <Gold.Chemscore.Internal_Hbond.Weighted>
0.0000

> <Gold.Chemscore.DEClash.Weighted>
0.5936

> <Gold.Chemscore.DEInternal.Weighted>
0.3769

> <Gold.Chemscore.Rot.Weighted>
3.7129

> <Gold.Chemscore.Internal.Correction.Weighted>
   9.000000E+99

> <Gold.Protein.RotatedTorsions>
[ 6907 6896 6895 6894 ] final  159.32 input  -60.11 | X-H torsion
[ 7974 7965 7964 7962 ] final  142.89 input  175.53 | X-H torsion
[ 8008 7997 7996 7995 ] final  -81.88 input   59.86 | X-H torsion
[ 10167 10162 10161 10158 ] final  134.38 input  -65.29 | X-H torsion
[ 10718 10713 10712 10709 ] final -176.98 input   66.30 | X-H torsion
[ 10763 10752 10751 10750 ] final  -15.56 input  -60.55 | X-H torsion
[ 11005 11000 10999 10996 ] final  -47.28 input  -57.11 | X-H torsion

> <Gold.Protein.ActiveResidues>
 VAL166  LYS551  ARG553  GLY616  TRP617  ASP618  TYR619  PRO620  LYS621  CYS622 
 ASP623  PHE694  ASN695  SER759  ASP760  ASP761  ALA762  ILE779  LEU786  VAL792 
 PHE793  MET794  SER795  GLU796  ALA797  LYS798  CYS799  TRP800  GLU811  SER814 

> <Gold.Protein.RotatedAtoms>
  151.9873  133.3778  159.4130 H   0  0  0  0  0  0  0  0  0  0  0  0  # atno 6907 bound_to 6896
  150.6926  134.3974  159.5113 H   0  0  0  0  0  0  0  0  0  0  0  0  # atno 6908 bound_to 6896
  152.1702  134.8840  160.0585 H   0  0  0  0  0  0  0  0  0  0  0  0  # atno 6909 bound_to 6896
  144.8968  139.5479  143.5772 H   0  0  0  0  0  0  0  0  0  0  0  0  # atno 7974 bound_to 7965
  154.6029  140.0641  156.9392 H   0  0  0  0  0  0  0  0  0  0  0  0  # atno 8008 bound_to 7997
  155.2102  140.3322  155.4312 H   0  0  0  0  0  0  0  0  0  0  0  0  # atno 8009 bound_to 7997
  156.2329  140.1849  156.7178 H   0  0  0  0  0  0  0  0  0  0  0  0  # atno 8010 bound_to 7997
  139.5258  144.6570  151.5131 H   0  0  0  0  0  0  0  0  0  0  0  0  # atno 10167 bound_to 10162
  156.8228  130.9625  151.3111 H   0  0  0  0  0  0  0  0  0  0  0  0  # atno 10718 bound_to 10713
  153.5452  135.7012  153.5617 H   0  0  0  0  0  0  0  0  0  0  0  0  # atno 10763 bound_to 10752
  153.3565  135.3981  155.1686 H   0  0  0  0  0  0  0  0  0  0  0  0  # atno 10764 bound_to 10752
  154.8668  135.3778  154.4959 H   0  0  0  0  0  0  0  0  0  0  0  0  # atno 10765 bound_to 10752
  141.0631  133.6702  156.3275 H   0  0  0  0  0  0  0  0  0  0  0  0  # atno 11005 bound_to 11000
  146.3086  139.7666  142.9037 LP  0  0  0  0  0  0  0  0  0  0  0  0  # atno 17320 bound_to 7965
  145.3685  141.0338  143.3244 LP  0  0  0  0  0  0  0  0  0  0  0  0  # atno 17321 bound_to 7965
  140.6400  143.8907  150.6683 LP  0  0  0  0  0  0  0  0  0  0  0  0  # atno 17342 bound_to 10162
  140.2239  143.3788  152.1621 LP  0  0  0  0  0  0  0  0  0  0  0  0  # atno 17343 bound_to 10162
  157.6448  130.8835  149.9517 LP  0  0  0  0  0  0  0  0  0  0  0  0  # atno 17370 bound_to 10713
  156.0979  130.3658  150.0272 LP  0  0  0  0  0  0  0  0  0  0  0  0  # atno 17371 bound_to 10713
  140.5828  134.5728  157.5483 LP  0  0  0  0  0  0  0  0  0  0  0  0  # atno 17394 bound_to 11000
  139.9451  134.7717  156.0582 LP  0  0  0  0  0  0  0  0  0  0  0  0  # atno 17395 bound_to 11000

$$$$
