AV-unprocessed.smi:2862|AV-procd|sdf|11011|dock10
  -GOLD-   2272015473D 1   1.00000     0.00000
 Structure written by MMmdl.
 52 54  0  0  0  0  0  0  0  0  1 V2000
  152.1480  142.7965  160.7507 C   0  0  0  0  0  0  0  0  0  0  0  0
  152.9245  142.4993  159.4560 C   0  0  1  0  0  0  0  0  0  0  0  0
  152.6051  141.1693  158.9381 N   0  0  0  0  0  0  0  0  0  0  0  0
  151.4009  140.7232  158.5439 C   0  0  0  0  0  0  0  0  0  0  0  0
  150.3680  141.3897  158.6221 O   0  0  0  0  0  0  0  0  0  0  0  0
  151.3655  139.2946  157.9813 C   0  0  0  0  0  0  0  0  0  0  0  0
  150.0324  138.6752  158.0764 N   0  0  0  0  0  0  0  0  0  0  0  0
  148.9688  139.3416  157.4345 C   0  0  0  0  0  0  0  0  0  0  0  0
  147.7159  138.8599  157.4406 C   0  0  0  0  0  0  0  0  0  0  0  0
  147.4671  137.6055  158.1089 C   0  0  0  0  0  0  0  0  0  0  0  0
  148.4829  136.9479  158.7062 C   0  0  0  0  0  0  0  0  0  0  0  0
  148.2486  135.6737  159.3911 C   0  0  0  0  0  0  0  0  0  0  0  0
  148.7623  134.6276  158.9931 O   0  0  0  0  0  0  0  0  0  0  0  0
  147.4386  135.7099  160.4899 N   0  0  0  0  0  0  0  0  0  0  0  0
  147.1674  136.9355  161.2614 C   0  0  0  0  0  0  0  0  0  0  0  0
  146.8690  134.4923  161.1062 C   0  0  1  0  0  0  0  0  0  0  0  0
  147.5007  134.2010  162.4825 C   0  0  0  0  0  0  0  0  0  0  0  0
  145.3479  134.4659  161.1789 C   0  0  0  0  0  0  0  0  0  0  0  0
  144.6135  135.1286  162.3200 C   0  0  0  0  0  0  0  0  0  0  0  0
  144.6291  133.6209  162.2029 C   0  0  0  0  0  0  0  0  0  0  0  0
  149.8543  137.5058  158.7672 C   0  0  0  0  0  0  0  0  0  0  0  0
  150.7866  136.9834  159.3857 O   0  0  0  0  0  0  0  0  0  0  0  0
  152.7792  143.6250  158.4425 C   0  0  0  0  0  0  0  0  0  0  0  0
  151.8620  144.7952  158.7032 C   0  0  0  0  0  0  0  0  0  0  0  0
  151.5153  143.7841  157.6322 C   0  0  0  0  0  0  0  0  0  0  0  0
  152.4929  143.7253  161.2053 H   0  0  0  0  0  0  0  0  0  0  0  0
  152.2864  142.0020  161.4845 H   0  0  0  0  0  0  0  0  0  0  0  0
  151.0783  142.9004  160.5680 H   0  0  0  0  0  0  0  0  0  0  0  0
  153.9800  142.4481  159.7266 H   0  0  0  0  0  0  0  0  0  0  0  0
  153.3846  140.5352  158.8389 H   0  0  0  0  0  0  0  0  0  0  0  0
  151.6940  139.3004  156.9399 H   0  0  0  0  0  0  0  0  0  0  0  0
  152.1123  138.7049  158.5143 H   0  0  0  0  0  0  0  0  0  0  0  0
  149.2339  140.2656  156.9415 H   0  0  0  0  0  0  0  0  0  0  0  0
  146.9166  139.3898  156.9439 H   0  0  0  0  0  0  0  0  0  0  0  0
  146.4698  137.1891  158.1030 H   0  0  0  0  0  0  0  0  0  0  0  0
  147.9243  137.7078  161.1207 H   0  0  0  0  0  0  0  0  0  0  0  0
  147.1483  136.7348  162.3330 H   0  0  0  0  0  0  0  0  0  0  0  0
  146.1981  137.3515  160.9852 H   0  0  0  0  0  0  0  0  0  0  0  0
  147.1605  133.6410  160.4884 H   0  0  0  0  0  0  0  0  0  0  0  0
  147.2067  133.2144  162.8415 H   0  0  0  0  0  0  0  0  0  0  0  0
  147.1963  134.9220  163.2408 H   0  0  0  0  0  0  0  0  0  0  0  0
  148.5898  134.2157  162.4250 H   0  0  0  0  0  0  0  0  0  0  0  0
  144.8572  134.5513  160.2119 H   0  0  0  0  0  0  0  0  0  0  0  0
  145.2068  135.5765  163.1149 H   0  0  0  0  0  0  0  0  0  0  0  0
  143.6831  135.6423  162.0864 H   0  0  0  0  0  0  0  0  0  0  0  0
  143.7106  133.1290  161.8898 H   0  0  0  0  0  0  0  0  0  0  0  0
  145.2320  133.0692  162.9214 H   0  0  0  0  0  0  0  0  0  0  0  0
  153.6993  143.8582  157.9099 H   0  0  0  0  0  0  0  0  0  0  0  0
  151.2713  144.7825  159.6171 H   0  0  0  0  0  0  0  0  0  0  0  0
  152.2008  145.7776  158.3804 H   0  0  0  0  0  0  0  0  0  0  0  0
  151.6202  144.0943  156.5945 H   0  0  0  0  0  0  0  0  0  0  0  0
  150.6931  143.1003  157.8346 H   0  0  0  0  0  0  0  0  0  0  0  0
  1  2  1  0  0  0  0
  1 26  1  0  0  0  0
  1 27  1  0  0  0  0
  1 28  1  0  0  0  0
  2  3  1  0  0  0  0
  2 23  1  0  0  0  0
  2 29  1  0  0  0  0
  3  4  1  0  0  0  0
  3 30  1  0  0  0  0
  4  5  2  0  0  0  0
  4  6  1  0  0  0  0
  6  7  1  0  0  0  0
  6 31  1  0  0  0  0
  6 32  1  0  0  0  0
  7 21  1  0  0  0  0
  7  8  1  0  0  0  0
  8  9  2  0  0  0  0
  8 33  1  0  0  0  0
  9 10  1  0  0  0  0
  9 34  1  0  0  0  0
 10 11  2  0  0  0  0
 10 35  1  0  0  0  0
 11 12  1  0  0  0  0
 11 21  1  0  0  0  0
 12 13  2  0  0  0  0
 12 14  1  0  0  0  0
 14 15  1  0  0  0  0
 14 16  1  0  0  0  0
 15 36  1  0  0  0  0
 15 37  1  0  0  0  0
 15 38  1  0  0  0  0
 16 17  1  0  0  0  0
 16 18  1  0  0  0  0
 16 39  1  0  0  0  0
 17 40  1  0  0  0  0
 17 41  1  0  0  0  0
 17 42  1  0  0  0  0
 18 20  1  0  0  0  0
 18 19  1  0  0  0  0
 18 43  1  0  0  0  0
 19 20  1  0  0  0  0
 19 44  1  0  0  0  0
 19 45  1  0  0  0  0
 20 46  1  0  0  0  0
 20 47  1  0  0  0  0
 21 22  2  0  0  0  0
 23 25  1  0  0  0  0
 23 24  1  0  0  0  0
 23 48  1  0  0  0  0
 24 25  1  0  0  0  0
 24 49  1  0  0  0  0
 24 50  1  0  0  0  0
 25 51  1  0  0  0  0
 25 52  1  0  0  0  0
M  END
> <s_m_source_file>
AV-unprocessed.smi

> <i_m_source_file_index>
2862

> <i_lp_mmshare_version>
43012

> <i_f3d_flags>
0

> <s_epik_input>
W0NIMl0xW0NIMl1bQ0hdMVtDQEhdKFtDSDNdKVtOSF1DKD1PKVtDSDJdbjJbY0hdW2NIXVtjSF1jKGMyPU8pQyg9TylOKFtDSDNdKVtDQEhdKFtDSDNdKVtDSF0zW0NIMl1bQ0gyXTM=

> <s_epik_cmdline>
J2VwaWtfcHl0aG9uJywgJy1waCcsICc3LjAnLCAnLXRuJywgJzgnLCAnLW1hJywgJzIwMCcsICctbWV0YWxfYmluZGluZycsICctaW1hZScsICc8aW5maWxlLm1hZT4nLCAnLW9tYWUnLCAnPG91dGZpbGUubWFlPic=

> <r_lp_tautomer_probability>
1

> <r_epik_Ionization_Penalty>
4.00841e-08

> <r_epik_Ionization_Penalty_Charging>
2.07773e-08

> <r_epik_Ionization_Penalty_Neutral>
1.93069e-08

> <r_epik_State_Penalty>
-0

> <r_epik_Charging_Adjusted_Penalty>
2.07773e-08

> <i_epik_Tot_Q>
0

> <i_epik_Tot_abs_Q>
0

> <r_epik_Metal_State_Penalty>
-0

> <b_epik_Metal_Only>
0

> <s_lp_Force_Field>
OPLS_2005

> <r_lp_Energy>
59.5746

> <b_lp_Chiralities_Consistent>
1

> <s_lp_Variant>
AV-unprocessed.smi:2862-4

> <Gold.Version>
5.8.1

> <Gold.Id.Protein>
6NUR|6NUR_protein|mol2

> <Gold.PLP.Fitness>
51.8436

> <Gold.PLP.PLP>
-48.8214

> <Gold.PLP.part.hbond>
-2.6210

> <Gold.PLP.part.metal>
0.0000

> <Gold.PLP.part.buried>
-4.6574

> <Gold.PLP.part.nonpolar>
-40.1482

> <Gold.PLP.part.repulsive>
0.1016

> <Gold.PLP.ligand.clash>
0.0000

> <Gold.PLP.ligand.torsion>
3.1718

> <Gold.PLP.Chemscore.Hbond>
1.6480

> <Gold.PLP.Chemscore.CHOScore>
0.0000

> <Gold.PLP.Chemscore.Metal>
0.0000

> <Gold.Chemscore.Hbonds>
donor molecule, donor type, donor heavy atom, donor atom, acceptor molecule, acceptor atom, score
      P1  H  6896  6907       L1    13  0.65
      P1  H  6896  6908       L1    22  0.61

> <Gold.PLP.Chemscore.Internal.Correction>
4.4217

> <Gold.Rescore>
     Score         DG    S(hbond)    S(metal)    S(lipo)     H(rot)  DE(clash)    DE(int)     intcor
     13.61     -19.87       1.68        0.00     112.96       1.73       0.00       6.25       ----

> <Gold.Chemscore.Fitness>
13.6137

> <Gold.Chemscore.DG>
-19.8711

> <Gold.Chemscore.ZeroCoef>
-5.4800

> <Gold.Chemscore.Hbond>
1.6815

> <Gold.Chemscore.Metal>
0.0000

> <Gold.Chemscore.Lipo>
112.9585

> <Gold.Chemscore.Internal_Hbond>
0.0000

> <Gold.Chemscore.DEClash>
0.0048

> <Gold.Chemscore.DEInternal>
6.2526

> <Gold.Chemscore.Rot>
1.7348

> <Gold.Chemscore.Internal.Correction>
   9.000000E+99

> <Gold.Chemscore.Hbonds>
donor molecule, donor type, donor heavy atom, donor atom, acceptor molecule, acceptor atom, score
      P1  H  6896  6907       L1    13  0.62
      P1  H  6896  6908       L1    22  0.61

> <Gold.Chemscore.Hbond.Weighted>
-5.6161

> <Gold.Chemscore.Metal.Weighted>
-0.0000

> <Gold.Chemscore.Lipo.Weighted>
-13.2161

> <Gold.Chemscore.Internal_Hbond.Weighted>
0.0000

> <Gold.Chemscore.DEClash.Weighted>
0.0048

> <Gold.Chemscore.DEInternal.Weighted>
6.2526

> <Gold.Chemscore.Rot.Weighted>
4.4412

> <Gold.Chemscore.Internal.Correction.Weighted>
   9.000000E+99

> <Gold.Protein.RotatedTorsions>
[ 6907 6896 6895 6894 ] final -112.31 input  -60.11 | X-H torsion
[ 7974 7965 7964 7962 ] final   42.28 input  175.53 | X-H torsion
[ 8008 7997 7996 7995 ] final  -66.70 input   59.86 | X-H torsion
[ 10167 10162 10161 10158 ] final   48.57 input  -65.29 | X-H torsion
[ 10718 10713 10712 10709 ] final  155.89 input   66.30 | X-H torsion
[ 10763 10752 10751 10750 ] final -168.11 input  -60.55 | X-H torsion
[ 11005 11000 10999 10996 ] final -142.48 input  -57.11 | X-H torsion

> <Gold.Protein.ActiveResidues>
 VAL166  LYS551  ARG553  GLY616  TRP617  ASP618  TYR619  PRO620  LYS621  CYS622 
 ASP623  PHE694  ASN695  SER759  ASP760  ASP761  ALA762  ILE779  LEU786  VAL792 
 PHE793  MET794  SER795  GLU796  ALA797  LYS798  CYS799  TRP800  GLU811  SER814 

> <Gold.Protein.RotatedAtoms>
  150.7749  133.9109  159.3368 H   0  0  0  0  0  0  0  0  0  0  0  0  # atno 6907 bound_to 6896
  151.6986  135.0932  160.0256 H   0  0  0  0  0  0  0  0  0  0  0  0  # atno 6908 bound_to 6896
  152.3781  133.6471  159.6175 H   0  0  0  0  0  0  0  0  0  0  0  0  # atno 6909 bound_to 6896
  146.0753  139.5318  142.9571 H   0  0  0  0  0  0  0  0  0  0  0  0  # atno 7974 bound_to 7965
  154.4751  140.0907  156.7242 H   0  0  0  0  0  0  0  0  0  0  0  0  # atno 8008 bound_to 7997
  155.4618  140.3461  155.4295 H   0  0  0  0  0  0  0  0  0  0  0  0  # atno 8009 bound_to 7997
  156.1103  140.1446  156.9336 H   0  0  0  0  0  0  0  0  0  0  0  0  # atno 8010 bound_to 7997
  140.2919  144.3035  150.6238 H   0  0  0  0  0  0  0  0  0  0  0  0  # atno 10167 bound_to 10162
  157.2123  131.0700  151.1962 H   0  0  0  0  0  0  0  0  0  0  0  0  # atno 10718 bound_to 10713
  154.6663  135.2932  154.9801 H   0  0  0  0  0  0  0  0  0  0  0  0  # atno 10763 bound_to 10752
  154.0843  135.6600  153.4846 H   0  0  0  0  0  0  0  0  0  0  0  0  # atno 10764 bound_to 10752
  153.0459  135.5205  154.7637 H   0  0  0  0  0  0  0  0  0  0  0  0  # atno 10765 bound_to 10752
  140.8220  134.2619  157.4896 H   0  0  0  0  0  0  0  0  0  0  0  0  # atno 11005 bound_to 11000
  145.6316  141.0303  143.1860 LP  0  0  0  0  0  0  0  0  0  0  0  0  # atno 17320 bound_to 7965
  144.7258  139.7881  143.7365 LP  0  0  0  0  0  0  0  0  0  0  0  0  # atno 17321 bound_to 7965
  140.5724  143.2179  151.7575 LP  0  0  0  0  0  0  0  0  0  0  0  0  # atno 17342 bound_to 10162
  139.4936  144.4197  151.9991 LP  0  0  0  0  0  0  0  0  0  0  0  0  # atno 17343 bound_to 10162
  157.3659  130.7156  149.6532 LP  0  0  0  0  0  0  0  0  0  0  0  0  # atno 17370 bound_to 10713
  155.9689  130.4212  150.4460 LP  0  0  0  0  0  0  0  0  0  0  0  0  # atno 17371 bound_to 10713
  139.8708  134.9540  156.4164 LP  0  0  0  0  0  0  0  0  0  0  0  0  # atno 17394 bound_to 11000
  140.9088  133.7726  155.9767 LP  0  0  0  0  0  0  0  0  0  0  0  0  # atno 17395 bound_to 11000

$$$$
