AV-unprocessed.smi:1199|AV-procd|sdf|5014|dock6
  -GOLD-   22720 4 33D 1   1.00000     0.00000
 Structure written by MMmdl.
 40 41  0  0  0  0  0  0  0  0  2 V2000
  152.5923  137.5831  156.6574 C   0  0  0  0  0  0  0  0  0  0  0  0
  152.1313  138.7593  157.5338 C   0  0  2  0  0  0  0  0  0  0  0  0
  152.9912  138.8786  158.8112 C   0  0  0  0  0  0  0  0  0  0  0  0
  152.7096  140.0383  159.6603 N   0  0  0  0  0  0  0  0  0  0  0  0
  153.8069  140.3520  160.5736 C   0  0  0  0  0  0  0  0  0  0  0  0
  153.5169  141.5999  161.4245 C   0  0  0  0  0  0  0  0  0  0  0  0
  153.2247  142.7049  160.5759 O   0  0  0  0  0  0  0  0  0  0  0  0
  152.1221  142.4535  159.7114 C   0  0  0  0  0  0  0  0  0  0  0  0
  152.4202  141.2158  158.8484 C   0  0  0  0  0  0  0  0  0  0  0  0
  150.7340  138.5649  157.9064 N   0  0  0  0  0  0  0  0  0  0  0  0
  150.2616  137.6552  158.7744 C   0  0  0  0  0  0  0  0  0  0  0  0
  150.9909  136.9009  159.4180 O   0  0  0  0  0  0  0  0  0  0  0  0
  148.7349  137.5524  158.9357 C   0  0  0  0  0  0  0  0  0  0  0  0
  148.2971  136.5718  159.9433 N   0  0  0  0  0  0  0  0  0  0  0  0
  147.5871  137.1606  161.0753 N   0  5  0  0  0  0  0  0  0  0  0  0
  147.0760  136.3434  162.0340 C   0  0  0  0  0  0  0  0  0  0  0  0
  146.4475  136.7643  163.0024 O   0  0  0  0  0  0  0  0  0  0  0  0
  147.2899  134.9122  161.8984 C   0  0  0  0  0  0  0  0  0  0  0  0
  147.9666  134.3978  160.8529 C   0  0  0  0  0  0  0  0  0  0  0  0
  148.5170  135.2342  159.7937 C   0  0  0  0  0  0  0  0  0  0  0  0
  149.1201  134.7689  158.8269 O   0  0  0  0  0  0  0  0  0  0  0  0
  153.6307  137.7067  156.3491 H   0  0  0  0  0  0  0  0  0  0  0  0
  151.9918  137.5051  155.7505 H   0  0  0  0  0  0  0  0  0  0  0  0
  152.5135  136.6356  157.1915 H   0  0  0  0  0  0  0  0  0  0  0  0
  152.2349  139.6766  156.9510 H   0  0  0  0  0  0  0  0  0  0  0  0
  152.9298  137.9583  159.3947 H   0  0  0  0  0  0  0  0  0  0  0  0
  154.0331  138.9495  158.4963 H   0  0  0  0  0  0  0  0  0  0  0  0
  153.9860  139.5156  161.2478 H   0  0  0  0  0  0  0  0  0  0  0  0
  154.7275  140.5050  160.0084 H   0  0  0  0  0  0  0  0  0  0  0  0
  152.6789  141.4197  162.0994 H   0  0  0  0  0  0  0  0  0  0  0  0
  154.3804  141.8430  162.0441 H   0  0  0  0  0  0  0  0  0  0  0  0
  151.2146  142.3064  160.2984 H   0  0  0  0  0  0  0  0  0  0  0  0
  151.9580  143.3264  159.0797 H   0  0  0  0  0  0  0  0  0  0  0  0
  153.2663  141.4308  158.1936 H   0  0  0  0  0  0  0  0  0  0  0  0
  151.5668  141.0174  158.1991 H   0  0  0  0  0  0  0  0  0  0  0  0
  150.0537  139.1467  157.4374 H   0  0  0  0  0  0  0  0  0  0  0  0
  148.3373  138.5395  159.1778 H   0  0  0  0  0  0  0  0  0  0  0  0
  148.3115  137.3018  157.9616 H   0  0  0  0  0  0  0  0  0  0  0  0
  146.8999  134.2467  162.6542 H   0  0  0  0  0  0  0  0  0  0  0  0
  148.1026  133.3283  160.7934 H   0  0  0  0  0  0  0  0  0  0  0  0
  1  2  1  0  0  0  0
  1 22  1  0  0  0  0
  1 23  1  0  0  0  0
  1 24  1  0  0  0  0
  2  3  1  0  0  0  0
  2 10  1  0  0  0  0
  2 25  1  0  0  0  0
  3  4  1  0  0  0  0
  3 26  1  0  0  0  0
  3 27  1  0  0  0  0
  4  9  1  0  0  0  0
  4  5  1  0  0  0  0
  5  6  1  0  0  0  0
  5 28  1  0  0  0  0
  5 29  1  0  0  0  0
  6  7  1  0  0  0  0
  6 30  1  0  0  0  0
  6 31  1  0  0  0  0
  7  8  1  0  0  0  0
  8  9  1  0  0  0  0
  8 32  1  0  0  0  0
  8 33  1  0  0  0  0
  9 34  1  0  0  0  0
  9 35  1  0  0  0  0
 10 11  1  0  0  0  0
 10 36  1  0  0  0  0
 11 12  2  0  0  0  0
 11 13  1  0  0  0  0
 13 37  1  0  0  0  0
 13 38  1  0  0  0  0
 13 14  1  0  0  0  0
 14 15  1  0  0  0  0
 14 20  1  0  0  0  0
 15 16  1  0  0  0  0
 16 17  2  0  0  0  0
 16 18  1  0  0  0  0
 18 39  1  0  0  0  0
 18 19  2  0  0  0  0
 19 40  1  0  0  0  0
 19 20  1  0  0  0  0
 20 21  2  0  0  0  0
M  CHG  1  15  -1
M  END
> <s_m_source_file>
AV-unprocessed.smi

> <i_m_source_file_index>
1199

> <i_lp_mmshare_version>
43012

> <i_f3d_flags>
0

> <s_epik_input>
W0NIMl0xW0NIMl1PW0NIMl1bQ0gyXU4xW0NIMl1bQ0BASF0oW0NIM10pW05IXUMoPU8pW0NIMl1uMltuSF1jKD1PKVtjSF1bY0hdYzI9Tw==

> <s_epik_cmdline>
J2VwaWtfcHl0aG9uJywgJy1waCcsICc3LjAnLCAnLXRuJywgJzgnLCAnLW1hJywgJzIwMCcsICctbWV0YWxfYmluZGluZycsICctaW1hZScsICc8aW5maWxlLm1hZT4nLCAnLW9tYWUnLCAnPG91dGZpbGUubWFlPic=

> <r_lp_tautomer_probability>
1

> <r_epik_Ionization_Penalty>
0.334996

> <r_epik_Ionization_Penalty_Charging>
0.0976136

> <r_epik_Ionization_Penalty_Neutral>
0.237382

> <r_epik_State_Penalty>
0.26804

> <r_epik_Charging_Adjusted_Penalty>
0.365653

> <i_epik_Tot_Q>
-1

> <i_epik_Tot_abs_Q>
1

> <r_epik_Metal_State_Penalty>
0.26804

> <b_epik_Metal_Only>
0

> <s_lp_Force_Field>
OPLS_2005

> <r_lp_Energy>
38.5668

> <b_lp_Chiralities_Consistent>
1

> <s_lp_Variant>
AV-unprocessed.smi:1199-1

> <Gold.Version>
5.8.1

> <Gold.Id.Protein>
6NUR|6NUR_protein|mol2

> <Gold.PLP.Fitness>
46.5739

> <Gold.PLP.PLP>
-31.4548

> <Gold.PLP.part.hbond>
-4.0000

> <Gold.PLP.part.metal>
0.0000

> <Gold.PLP.part.buried>
-3.8171

> <Gold.PLP.part.nonpolar>
-24.0300

> <Gold.PLP.part.repulsive>
0.0405

> <Gold.PLP.ligand.clash>
0.0000

> <Gold.PLP.ligand.torsion>
0.3411

> <Gold.PLP.Chemscore.Hbond>
5.2640

> <Gold.PLP.Chemscore.CHOScore>
0.0000

> <Gold.PLP.Chemscore.Metal>
0.0000

> <Gold.Chemscore.Hbonds>
donor molecule, donor type, donor heavy atom, donor atom, acceptor molecule, acceptor atom, score
      P1  H  6896  6908       L1    21  0.78
      P1  H  6896  6909       L1    12  0.83
      P1  H  6931  6943       L1    15  1.82
      P1  H  6934  6947       L1    15  1.89

> <Gold.PLP.Chemscore.Internal.Correction>
0.0093

> <Gold.Rescore>
     Score         DG    S(hbond)    S(metal)    S(lipo)     H(rot)  DE(clash)    DE(int)     intcor
     14.76     -16.60       2.75        0.00      66.81       2.30       0.03       1.82       ----

> <Gold.Chemscore.Fitness>
14.7555

> <Gold.Chemscore.DG>
-16.6028

> <Gold.Chemscore.ZeroCoef>
-5.4800

> <Gold.Chemscore.Hbond>
2.7492

> <Gold.Chemscore.Metal>
0.0000

> <Gold.Chemscore.Lipo>
66.8126

> <Gold.Chemscore.Internal_Hbond>
0.0000

> <Gold.Chemscore.DEClash>
0.0270

> <Gold.Chemscore.DEInternal>
1.8203

> <Gold.Chemscore.Rot>
2.2955

> <Gold.Chemscore.Internal.Correction>
   9.000000E+99

> <Gold.Chemscore.Hbonds>
donor molecule, donor type, donor heavy atom, donor atom, acceptor molecule, acceptor atom, score
      P1  H  6896  6908       L1    21  0.64
      P1  H  6896  6909       L1    12  0.81
      P1  H  6931  6943       L1    15  0.17
      P1  H  6934  6947       L1    15  0.84

> <Gold.Chemscore.Hbond.Weighted>
-9.1823

> <Gold.Chemscore.Metal.Weighted>
-0.0000

> <Gold.Chemscore.Lipo.Weighted>
-7.8171

> <Gold.Chemscore.Internal_Hbond.Weighted>
0.0000

> <Gold.Chemscore.DEClash.Weighted>
0.0270

> <Gold.Chemscore.DEInternal.Weighted>
1.8203

> <Gold.Chemscore.Rot.Weighted>
5.8766

> <Gold.Chemscore.Internal.Correction.Weighted>
   9.000000E+99

> <Gold.Protein.RotatedTorsions>
[ 6907 6896 6895 6894 ] final  129.15 input  -60.11 | X-H torsion
[ 7974 7965 7964 7962 ] final  -44.84 input  175.53 | X-H torsion
[ 8008 7997 7996 7995 ] final -174.45 input   59.86 | X-H torsion
[ 10167 10162 10161 10158 ] final  176.64 input  -65.29 | X-H torsion
[ 10718 10713 10712 10709 ] final  148.46 input   66.30 | X-H torsion
[ 10763 10752 10751 10750 ] final -108.83 input  -60.55 | X-H torsion
[ 11005 11000 10999 10996 ] final  160.47 input  -57.11 | X-H torsion

> <Gold.Protein.ActiveResidues>
 VAL166  LYS551  ARG553  GLY616  TRP617  ASP618  TYR619  PRO620  LYS621  CYS622 
 ASP623  PHE694  ASN695  SER759  ASP760  ASP761  ALA762  ILE779  LEU786  VAL792 
 PHE793  MET794  SER795  GLU796  ALA797  LYS798  CYS799  TRP800  GLU811  SER814 

> <Gold.Protein.RotatedAtoms>
  152.3652  133.6347  159.6044 H   0  0  0  0  0  0  0  0  0  0  0  0  # atno 6907 bound_to 6896
  150.7629  133.9360  159.3450 H   0  0  0  0  0  0  0  0  0  0  0  0  # atno 6908 bound_to 6896
  151.7192  135.0899  160.0332 H   0  0  0  0  0  0  0  0  0  0  0  0  # atno 6909 bound_to 6896
  145.9881  140.7211  142.9330 H   0  0  0  0  0  0  0  0  0  0  0  0  # atno 7974 bound_to 7965
  155.9702  140.1161  157.0819 H   0  0  0  0  0  0  0  0  0  0  0  0  # atno 8008 bound_to 7997
  154.4154  140.1165  156.5363 H   0  0  0  0  0  0  0  0  0  0  0  0  # atno 8009 bound_to 7997
  155.6607  140.3473  155.4784 H   0  0  0  0  0  0  0  0  0  0  0  0  # atno 8010 bound_to 7997
  139.5222  144.2891  152.0479 H   0  0  0  0  0  0  0  0  0  0  0  0  # atno 10167 bound_to 10162
  157.3084  131.0883  151.1336 H   0  0  0  0  0  0  0  0  0  0  0  0  # atno 10718 bound_to 10713
  154.8158  135.4623  154.0640 H   0  0  0  0  0  0  0  0  0  0  0  0  # atno 10763 bound_to 10752
  153.2034  135.6872  153.8209 H   0  0  0  0  0  0  0  0  0  0  0  0  # atno 10764 bound_to 10752
  153.7686  135.3273  155.3325 H   0  0  0  0  0  0  0  0  0  0  0  0  # atno 10765 bound_to 10752
  140.2063  134.8301  157.3072 H   0  0  0  0  0  0  0  0  0  0  0  0  # atno 11005 bound_to 11000
  144.6880  140.3022  143.7261 LP  0  0  0  0  0  0  0  0  0  0  0  0  # atno 17320 bound_to 7965
  145.7671  139.1844  143.2234 LP  0  0  0  0  0  0  0  0  0  0  0  0  # atno 17321 bound_to 7965
  140.2343  144.4336  150.6286 LP  0  0  0  0  0  0  0  0  0  0  0  0  # atno 17342 bound_to 10162
  140.6334  143.2191  151.6447 LP  0  0  0  0  0  0  0  0  0  0  0  0  # atno 17343 bound_to 10162
  157.2667  130.6685  149.6000 LP  0  0  0  0  0  0  0  0  0  0  0  0  # atno 17370 bound_to 10713
  155.9676  130.4491  150.5647 LP  0  0  0  0  0  0  0  0  0  0  0  0  # atno 17371 bound_to 10713
  140.2000  134.4267  155.7668 LP  0  0  0  0  0  0  0  0  0  0  0  0  # atno 17394 bound_to 11000
  141.2227  133.7067  156.8167 LP  0  0  0  0  0  0  0  0  0  0  0  0  # atno 17395 bound_to 11000

$$$$
