AV-unprocessed.smi:3125|AV-procd|sdf|11908|dock4
  -GOLD-   2272017293D 1   1.00000     0.00000
 Structure written by MMmdl.
 28 29  0  0  0  0  0  0  0  0  2 V2000
  152.1228  144.9950  158.7206 C   0  0  0  0  0  0  0  0  0  0  0  0
  152.3920  143.5977  159.0017 N   0  0  0  0  0  0  0  0  0  0  0  0
  153.4076  143.1202  159.8199 C   0  0  0  0  0  0  0  0  0  0  0  0
  153.3070  141.7507  159.8172 C   0  0  0  0  0  0  0  0  0  0  0  0
  152.2422  141.3704  159.0088 N   0  0  0  0  0  0  0  0  0  0  0  0
  151.7369  142.5106  158.5448 C   0  0  0  0  0  0  0  0  0  0  0  0
  150.5495  142.5749  157.6244 C   0  0  2  0  0  0  0  0  0  0  0  0
  149.2958  141.9435  158.2598 C   0  0  0  0  0  0  0  0  0  0  0  0
  148.1088  142.0010  157.2859 C   0  0  0  0  0  0  0  0  0  0  0  0
  148.4746  141.3602  155.9370 C   0  0  0  0  0  0  0  0  0  0  0  0
  149.6744  142.0057  155.3612 N   0  3  0  0  0  0  0  0  0  0  0  0
  150.8524  141.9343  156.2538 C   0  0  0  0  0  0  0  0  0  0  0  0
  152.8174  145.6307  159.2707 H   0  0  0  0  0  0  0  0  0  0  0  0
  151.1054  145.2440  159.0234 H   0  0  0  0  0  0  0  0  0  0  0  0
  152.2409  145.1865  157.6539 H   0  0  0  0  0  0  0  0  0  0  0  0
  154.0999  143.7774  160.3258 H   0  0  0  0  0  0  0  0  0  0  0  0
  153.9121  141.0174  160.3295 H   0  0  0  0  0  0  0  0  0  0  0  0
  150.3175  143.6230  157.4359 H   0  0  0  0  0  0  0  0  0  0  0  0
  149.4947  140.9043  158.5262 H   0  0  0  0  0  0  0  0  0  0  0  0
  149.0420  142.4596  159.1866 H   0  0  0  0  0  0  0  0  0  0  0  0
  147.2464  141.4930  157.7187 H   0  0  0  0  0  0  0  0  0  0  0  0
  147.8106  143.0388  157.1309 H   0  0  0  0  0  0  0  0  0  0  0  0
  148.6651  140.2931  156.0620 H   0  0  0  0  0  0  0  0  0  0  0  0
  147.6460  141.4562  155.2351 H   0  0  0  0  0  0  0  0  0  0  0  0
  149.8997  141.5568  154.4847 H   0  0  0  0  0  0  0  0  0  0  0  0
  151.6888  142.4433  155.7741 H   0  0  0  0  0  0  0  0  0  0  0  0
  151.1414  140.8887  156.3719 H   0  0  0  0  0  0  0  0  0  0  0  0
  149.4631  142.9774  155.1845 H   0  0  0  0  0  0  0  0  0  0  0  0
  1  2  1  0  0  0  0
  1 13  1  0  0  0  0
  1 14  1  0  0  0  0
  1 15  1  0  0  0  0
  2  6  1  0  0  0  0
  2  3  1  0  0  0  0
  3  4  2  0  0  0  0
  3 16  1  0  0  0  0
  4  5  1  0  0  0  0
  4 17  1  0  0  0  0
  5  6  2  0  0  0  0
  6  7  1  0  0  0  0
  7 12  1  0  0  0  0
  7  8  1  0  0  0  0
  7 18  1  0  0  0  0
  8  9  1  0  0  0  0
  8 19  1  0  0  0  0
  8 20  1  0  0  0  0
  9 10  1  0  0  0  0
  9 21  1  0  0  0  0
  9 22  1  0  0  0  0
 10 11  1  0  0  0  0
 10 23  1  0  0  0  0
 10 24  1  0  0  0  0
 11 12  1  0  0  0  0
 11 25  1  0  0  0  0
 11 28  1  0  0  0  0
 12 26  1  0  0  0  0
 12 27  1  0  0  0  0
M  CHG  1  11   1
M  END
> <s_m_source_file>
AV-unprocessed.smi

> <i_m_source_file_index>
3125

> <i_lp_mmshare_version>
43012

> <i_f3d_flags>
0

> <s_epik_input>
W0NIM11uMVtjSF1bY0hdbmMxW0NAQEhdMltDSDJdW0NIMl1bQ0gyXVtOSF1bQ0gyXTI=

> <s_epik_cmdline>
J2VwaWtfcHl0aG9uJywgJy1waCcsICc3LjAnLCAnLXRuJywgJzgnLCAnLW1hJywgJzIwMCcsICctbWV0YWxfYmluZGluZycsICctaW1hZScsICc8aW5maWxlLm1hZT4nLCAnLW9tYWUnLCAnPG91dGZpbGUubWFlPic=

> <r_lp_tautomer_probability>
1

> <r_epik_Ionization_Penalty>
0.177191

> <r_epik_Ionization_Penalty_Charging>
0.177191

> <r_epik_Ionization_Penalty_Neutral>
7.05152e-14

> <r_epik_State_Penalty>
0.46716

> <r_epik_Charging_Adjusted_Penalty>
0.644351

> <i_epik_Tot_Q>
1

> <i_epik_Tot_abs_Q>
1

> <r_epik_Metal_State_Penalty>
0.000708398

> <b_epik_Metal_Only>
0

> <s_lp_Force_Field>
OPLS_2005

> <r_lp_Energy>
12.4076

> <b_lp_Chiralities_Consistent>
1

> <s_lp_Variant>
AV-unprocessed.smi:3125-3

> <Gold.Version>
5.8.1

> <Gold.Id.Protein>
6NUR|6NUR_protein|mol2

> <Gold.PLP.Fitness>
34.5537

> <Gold.PLP.PLP>
-28.5750

> <Gold.PLP.part.hbond>
-1.0000

> <Gold.PLP.part.metal>
0.0000

> <Gold.PLP.part.buried>
-3.8122

> <Gold.PLP.part.nonpolar>
-23.4866

> <Gold.PLP.part.repulsive>
0.1877

> <Gold.PLP.ligand.clash>
0.0000

> <Gold.PLP.ligand.torsion>
0.0237

> <Gold.PLP.Chemscore.Hbond>
2.0000

> <Gold.PLP.Chemscore.CHOScore>
0.0000

> <Gold.PLP.Chemscore.Metal>
0.0000

> <Gold.Chemscore.Hbonds>
donor molecule, donor type, donor heavy atom, donor atom, acceptor molecule, acceptor atom, score
      L1  H    11    28       P1  8028  2.00

> <Gold.PLP.Chemscore.Internal.Correction>
0.0262

> <Gold.Rescore>
     Score         DG    S(hbond)    S(metal)    S(lipo)     H(rot)  DE(clash)    DE(int)     intcor
     13.67     -13.70       0.99        0.00      63.93       1.00       0.01       0.02       ----

> <Gold.Chemscore.Fitness>
13.6694

> <Gold.Chemscore.DG>
-13.7020

> <Gold.Chemscore.ZeroCoef>
-5.4800

> <Gold.Chemscore.Hbond>
0.9886

> <Gold.Chemscore.Metal>
0.0000

> <Gold.Chemscore.Lipo>
63.9328

> <Gold.Chemscore.Internal_Hbond>
0.0000

> <Gold.Chemscore.DEClash>
0.0106

> <Gold.Chemscore.DEInternal>
0.0220

> <Gold.Chemscore.Rot>
1.0000

> <Gold.Chemscore.Internal.Correction>
   9.000000E+99

> <Gold.Chemscore.Hbonds>
donor molecule, donor type, donor heavy atom, donor atom, acceptor molecule, acceptor atom, score
      L1  H    11    28       P1  8028  0.98

> <Gold.Chemscore.Hbond.Weighted>
-3.3019

> <Gold.Chemscore.Metal.Weighted>
-0.0000

> <Gold.Chemscore.Lipo.Weighted>
-7.4801

> <Gold.Chemscore.Internal_Hbond.Weighted>
0.0000

> <Gold.Chemscore.DEClash.Weighted>
0.0106

> <Gold.Chemscore.DEInternal.Weighted>
0.0220

> <Gold.Chemscore.Rot.Weighted>
2.5600

> <Gold.Chemscore.Internal.Correction.Weighted>
   9.000000E+99

> <Gold.Protein.RotatedTorsions>
[ 6907 6896 6895 6894 ] final    4.05 input  -60.11 | X-H torsion
[ 7974 7965 7964 7962 ] final -111.05 input  175.53 | X-H torsion
[ 8008 7997 7996 7995 ] final  -75.27 input   59.86 | X-H torsion
[ 10167 10162 10161 10158 ] final -166.88 input  -65.29 | X-H torsion
[ 10718 10713 10712 10709 ] final -147.17 input   66.30 | X-H torsion
[ 10763 10752 10751 10750 ] final -154.53 input  -60.55 | X-H torsion
[ 11005 11000 10999 10996 ] final -128.47 input  -57.11 | X-H torsion

> <Gold.Protein.ActiveResidues>
 VAL166  LYS551  ARG553  GLY616  TRP617  ASP618  TYR619  PRO620  LYS621  CYS622 
 ASP623  PHE694  ASN695  SER759  ASP760  ASP761  ALA762  ILE779  LEU786  VAL792 
 PHE793  MET794  SER795  GLU796  ALA797  LYS798  CYS799  TRP800  GLU811  SER814 

> <Gold.Protein.RotatedAtoms>
  151.6350  135.1019  160.0129 H   0  0  0  0  0  0  0  0  0  0  0  0  # atno 6907 bound_to 6896
  152.4085  133.6923  159.6386 H   0  0  0  0  0  0  0  0  0  0  0  0  # atno 6908 bound_to 6896
  150.7978  133.8582  159.3265 H   0  0  0  0  0  0  0  0  0  0  0  0  # atno 6909 bound_to 6896
  145.1608  140.8877  143.3592 H   0  0  0  0  0  0  0  0  0  0  0  0  # atno 7974 bound_to 7965
  154.5402  140.0747  156.8497 H   0  0  0  0  0  0  0  0  0  0  0  0  # atno 8008 bound_to 7997
  155.3196  140.3395  155.4223 H   0  0  0  0  0  0  0  0  0  0  0  0  # atno 8009 bound_to 7997
  156.1867  140.1671  156.8157 H   0  0  0  0  0  0  0  0  0  0  0  0  # atno 8010 bound_to 7997
  139.6086  144.0862  152.1818 H   0  0  0  0  0  0  0  0  0  0  0  0  # atno 10167 bound_to 10162
  156.4041  130.7949  151.2161 H   0  0  0  0  0  0  0  0  0  0  0  0  # atno 10718 bound_to 10713
  154.7852  135.3188  154.7902 H   0  0  0  0  0  0  0  0  0  0  0  0  # atno 10763 bound_to 10752
  153.8604  135.6854  153.4787 H   0  0  0  0  0  0  0  0  0  0  0  0  # atno 10764 bound_to 10752
  153.1501  135.4703  154.9563 H   0  0  0  0  0  0  0  0  0  0  0  0  # atno 10765 bound_to 10752
  140.9513  134.1061  157.4059 H   0  0  0  0  0  0  0  0  0  0  0  0  # atno 11005 bound_to 11000
  145.0333  139.3322  143.6013 LP  0  0  0  0  0  0  0  0  0  0  0  0  # atno 17320 bound_to 7965
  146.3482  139.9679  142.8709 LP  0  0  0  0  0  0  0  0  0  0  0  0  # atno 17321 bound_to 7965
  140.0475  144.5959  150.7362 LP  0  0  0  0  0  0  0  0  0  0  0  0  # atno 17342 bound_to 10162
  140.7302  143.2681  151.3977 LP  0  0  0  0  0  0  0  0  0  0  0  0  # atno 17343 bound_to 10162
  157.7505  131.0277  150.4019 LP  0  0  0  0  0  0  0  0  0  0  0  0  # atno 17370 bound_to 10713
  156.4305  130.3971  149.6764 LP  0  0  0  0  0  0  0  0  0  0  0  0  # atno 17371 bound_to 10713
  139.8848  135.0067  156.6396 LP  0  0  0  0  0  0  0  0  0  0  0  0  # atno 17394 bound_to 11000
  140.7598  133.8827  155.8409 LP  0  0  0  0  0  0  0  0  0  0  0  0  # atno 17395 bound_to 11000

$$$$
