AV-unprocessed.smi:3229|AV-procd|sdf|12328|dock9
  -GOLD-   2272018183D 1   1.00000     0.00000
 Structure written by MMmdl.
 35 36  0  0  0  0  0  0  0  0  1 V2000
  151.8379  144.9564  159.2213 C   0  0  0  0  0  0  0  0  0  0  0  0
  152.7702  143.8056  158.8271 C   0  0  0  0  0  0  0  0  0  0  0  0
  152.0703  142.4908  158.7195 C   0  0  0  0  0  0  0  0  0  0  0  0
  152.3323  141.3419  159.4244 C   0  0  0  0  0  0  0  0  0  0  0  0
  151.4979  140.2723  159.0922 N   0  0  0  0  0  0  0  0  0  0  0  0
  150.6021  140.5960  158.1559 C   0  0  0  0  0  0  0  0  0  0  0  0
  149.6073  139.6336  157.5910 C   0  0  0  0  0  0  0  0  0  0  0  0
  149.8301  138.1805  158.0415 C   0  0  0  0  0  0  0  0  0  0  0  0
  148.8177  137.7521  158.9985 N   0  0  0  0  0  0  0  0  0  0  0  0
  148.7089  136.5079  159.4848 C   0  0  0  0  0  0  0  0  0  0  0  0
  149.4700  135.5929  159.1687 O   0  0  0  0  0  0  0  0  0  0  0  0
  147.5752  136.2702  160.4878 C   0  0  1  0  0  0  0  0  0  0  0  0
  147.5188  134.8500  161.0593 C   0  0  0  0  0  0  0  0  0  0  0  0
  146.8489  135.0903  162.3933 C   0  0  0  0  0  0  0  0  0  0  0  0
  147.4571  136.4233  162.8198 C   0  0  0  0  0  0  0  0  0  0  0  0
  147.7674  137.1203  161.6156 O   0  0  0  0  0  0  0  0  0  0  0  0
  150.7519  142.2584  157.6000 S   0  0  0  0  0  0  0  0  0  0  0  0
  152.3856  145.8971  159.2810 H   0  0  0  0  0  0  0  0  0  0  0  0
  151.3778  144.7775  160.1937 H   0  0  0  0  0  0  0  0  0  0  0  0
  151.0385  145.0821  158.4904 H   0  0  0  0  0  0  0  0  0  0  0  0
  153.2499  144.0417  157.8767 H   0  0  0  0  0  0  0  0  0  0  0  0
  153.5749  143.7264  159.5587 H   0  0  0  0  0  0  0  0  0  0  0  0
  153.0930  141.1973  160.1774 H   0  0  0  0  0  0  0  0  0  0  0  0
  148.6056  139.9599  157.8738 H   0  0  0  0  0  0  0  0  0  0  0  0
  149.6514  139.6902  156.5031 H   0  0  0  0  0  0  0  0  0  0  0  0
  149.8135  137.5184  157.1746 H   0  0  0  0  0  0  0  0  0  0  0  0
  150.8163  138.0846  158.4985 H   0  0  0  0  0  0  0  0  0  0  0  0
  148.1623  138.4508  159.3188 H   0  0  0  0  0  0  0  0  0  0  0  0
  146.6108  136.5195  160.0413 H   0  0  0  0  0  0  0  0  0  0  0  0
  146.9549  134.1639  160.4268 H   0  0  0  0  0  0  0  0  0  0  0  0
  148.5143  134.4315  161.2156 H   0  0  0  0  0  0  0  0  0  0  0  0
  145.7719  135.1958  162.2558 H   0  0  0  0  0  0  0  0  0  0  0  0
  147.0249  134.2907  163.1132 H   0  0  0  0  0  0  0  0  0  0  0  0
  146.7847  137.0023  163.4532 H   0  0  0  0  0  0  0  0  0  0  0  0
  148.3837  136.2592  163.3709 H   0  0  0  0  0  0  0  0  0  0  0  0
  1  2  1  0  0  0  0
  1 18  1  0  0  0  0
  1 19  1  0  0  0  0
  1 20  1  0  0  0  0
  2  3  1  0  0  0  0
  2 21  1  0  0  0  0
  2 22  1  0  0  0  0
  3 17  1  0  0  0  0
  3  4  2  0  0  0  0
  4  5  1  0  0  0  0
  4 23  1  0  0  0  0
  5  6  2  0  0  0  0
  6  7  1  0  0  0  0
  6 17  1  0  0  0  0
  7  8  1  0  0  0  0
  7 24  1  0  0  0  0
  7 25  1  0  0  0  0
  8  9  1  0  0  0  0
  8 26  1  0  0  0  0
  8 27  1  0  0  0  0
  9 10  1  0  0  0  0
  9 28  1  0  0  0  0
 10 11  2  0  0  0  0
 10 12  1  0  0  0  0
 12 16  1  0  0  0  0
 12 13  1  0  0  0  0
 12 29  1  0  0  0  0
 13 14  1  0  0  0  0
 13 30  1  0  0  0  0
 13 31  1  0  0  0  0
 14 15  1  0  0  0  0
 14 32  1  0  0  0  0
 14 33  1  0  0  0  0
 15 16  1  0  0  0  0
 15 34  1  0  0  0  0
 15 35  1  0  0  0  0
M  END
> <s_m_source_file>
AV-unprocessed.smi

> <i_m_source_file_index>
3229

> <i_lp_mmshare_version>
43012

> <i_f3d_flags>
0

> <s_epik_input>
W0NIM11bQ0gyXWMxW2NIXW5jKHMxKVtDSDJdW0NIMl1bTkhdQyg9TylbQ0BASF0yW0NIMl1bQ0gyXVtDSDJdTzI=

> <s_epik_cmdline>
J2VwaWtfcHl0aG9uJywgJy1waCcsICc3LjAnLCAnLXRuJywgJzgnLCAnLW1hJywgJzIwMCcsICctbWV0YWxfYmluZGluZycsICctaW1hZScsICc8aW5maWxlLm1hZT4nLCAnLW9tYWUnLCAnPG91dGZpbGUubWFlPic=

> <r_epik_Ionization_Penalty>
0.000508191

> <r_epik_Ionization_Penalty_Charging>
0

> <r_epik_Ionization_Penalty_Neutral>
0.000508191

> <r_epik_State_Penalty>
0.000316483

> <r_epik_Charging_Adjusted_Penalty>
0.000316483

> <i_epik_Tot_Q>
0

> <i_epik_Tot_abs_Q>
0

> <r_epik_Metal_State_Penalty>
-0

> <b_epik_Metal_Only>
0

> <s_lp_Force_Field>
OPLS_2005

> <r_lp_Energy>
10.5911

> <b_lp_Chiralities_Consistent>
1

> <s_lp_Variant>
AV-unprocessed.smi:3229-2

> <Gold.Version>
5.8.1

> <Gold.Id.Protein>
6NUR|6NUR_protein|mol2

> <Gold.PLP.Fitness>
44.6113

> <Gold.PLP.PLP>
-37.4005

> <Gold.PLP.part.hbond>
-3.0000

> <Gold.PLP.part.metal>
0.0000

> <Gold.PLP.part.buried>
-4.6750

> <Gold.PLP.part.nonpolar>
-30.1752

> <Gold.PLP.part.repulsive>
0.2179

> <Gold.PLP.ligand.clash>
0.0000

> <Gold.PLP.ligand.torsion>
0.4366

> <Gold.PLP.Chemscore.Hbond>
2.6820

> <Gold.PLP.Chemscore.CHOScore>
0.0000

> <Gold.PLP.Chemscore.Metal>
0.0000

> <Gold.Chemscore.Hbonds>
donor molecule, donor type, donor heavy atom, donor atom, acceptor molecule, acceptor atom, score
      P1  H  6896  6907       L1    11  1.00
      P1  H  6931  6943       L1    16  1.00
      P1  H  6934  6947       L1    16  0.60

> <Gold.PLP.Chemscore.Internal.Correction>
0.0382

> <Gold.Rescore>
     Score         DG    S(hbond)    S(metal)    S(lipo)     H(rot)  DE(clash)    DE(int)     intcor
     19.46     -19.90       2.33        0.00      91.79       1.60       0.00       0.44       ----

> <Gold.Chemscore.Fitness>
19.4605

> <Gold.Chemscore.DG>
-19.9045

> <Gold.Chemscore.ZeroCoef>
-5.4800

> <Gold.Chemscore.Hbond>
2.3326

> <Gold.Chemscore.Metal>
0.0000

> <Gold.Chemscore.Lipo>
91.7925

> <Gold.Chemscore.Internal_Hbond>
0.0000

> <Gold.Chemscore.DEClash>
0.0038

> <Gold.Chemscore.DEInternal>
0.4402

> <Gold.Chemscore.Rot>
1.6040

> <Gold.Chemscore.Internal.Correction>
   9.000000E+99

> <Gold.Chemscore.Hbonds>
donor molecule, donor type, donor heavy atom, donor atom, acceptor molecule, acceptor atom, score
      P1  H  6896  6907       L1    11  0.99
      P1  H  6931  6943       L1    16  0.73
      P1  H  6934  6947       L1    16  0.30

> <Gold.Chemscore.Hbond.Weighted>
-7.7910

> <Gold.Chemscore.Metal.Weighted>
-0.0000

> <Gold.Chemscore.Lipo.Weighted>
-10.7397

> <Gold.Chemscore.Internal_Hbond.Weighted>
0.0000

> <Gold.Chemscore.DEClash.Weighted>
0.0038

> <Gold.Chemscore.DEInternal.Weighted>
0.4402

> <Gold.Chemscore.Rot.Weighted>
4.1062

> <Gold.Chemscore.Internal.Correction.Weighted>
   9.000000E+99

> <Gold.Protein.RotatedTorsions>
[ 6907 6896 6895 6894 ] final  -69.50 input  -60.11 | X-H torsion
[ 7974 7965 7964 7962 ] final -128.01 input  175.53 | X-H torsion
[ 8008 7997 7996 7995 ] final  -62.50 input   59.86 | X-H torsion
[ 10167 10162 10161 10158 ] final   43.47 input  -65.29 | X-H torsion
[ 10718 10713 10712 10709 ] final  -20.97 input   66.30 | X-H torsion
[ 10763 10752 10751 10750 ] final   55.46 input  -60.55 | X-H torsion
[ 11005 11000 10999 10996 ] final   24.01 input  -57.11 | X-H torsion

> <Gold.Protein.ActiveResidues>
 VAL166  LYS551  ARG553  GLY616  TRP617  ASP618  TYR619  PRO620  LYS621  CYS622 
 ASP623  PHE694  ASN695  SER759  ASP760  ASP761  ALA762  ILE779  LEU786  VAL792 
 PHE793  MET794  SER795  GLU796  ALA797  LYS798  CYS799  TRP800  GLU811  SER814 

> <Gold.Protein.RotatedAtoms>
  150.7303  134.5588  159.5831 H   0  0  0  0  0  0  0  0  0  0  0  0  # atno 6907 bound_to 6896
  152.3057  134.7555  160.0357 H   0  0  0  0  0  0  0  0  0  0  0  0  # atno 6908 bound_to 6896
  151.8121  133.3347  159.3595 H   0  0  0  0  0  0  0  0  0  0  0  0  # atno 6909 bound_to 6896
  144.9714  140.7549  143.4668 H   0  0  0  0  0  0  0  0  0  0  0  0  # atno 7974 bound_to 7965
  154.4503  140.0994  156.6597 H   0  0  0  0  0  0  0  0  0  0  0  0  # atno 8008 bound_to 7997
  155.5306  140.3481  155.4407 H   0  0  0  0  0  0  0  0  0  0  0  0  # atno 8009 bound_to 7997
  156.0667  140.1339  156.9867 H   0  0  0  0  0  0  0  0  0  0  0  0  # atno 8010 bound_to 7997
  140.3441  144.2434  150.6152 H   0  0  0  0  0  0  0  0  0  0  0  0  # atno 10167 bound_to 10162
  156.5245  130.4640  149.6579 H   0  0  0  0  0  0  0  0  0  0  0  0  # atno 10718 bound_to 10713
  152.9817  135.5710  154.5069 H   0  0  0  0  0  0  0  0  0  0  0  0  # atno 10763 bound_to 10752
  154.4580  135.2780  155.1735 H   0  0  0  0  0  0  0  0  0  0  0  0  # atno 10764 bound_to 10752
  154.3335  135.6244  153.5616 H   0  0  0  0  0  0  0  0  0  0  0  0  # atno 10765 bound_to 10752
  140.3634  134.2100  155.7671 H   0  0  0  0  0  0  0  0  0  0  0  0  # atno 11005 bound_to 11000
  145.2554  139.2014  143.4920 LP  0  0  0  0  0  0  0  0  0  0  0  0  # atno 17320 bound_to 7965
  146.3383  140.2474  142.8597 LP  0  0  0  0  0  0  0  0  0  0  0  0  # atno 17321 bound_to 7965
  140.5281  143.2249  151.8282 LP  0  0  0  0  0  0  0  0  0  0  0  0  # atno 17342 bound_to 10162
  139.4836  144.4754  151.9374 LP  0  0  0  0  0  0  0  0  0  0  0  0  # atno 17343 bound_to 10162
  156.3117  130.7233  151.2127 LP  0  0  0  0  0  0  0  0  0  0  0  0  # atno 17370 bound_to 10713
  157.7431  131.0479  150.4969 LP  0  0  0  0  0  0  0  0  0  0  0  0  # atno 17371 bound_to 10713
  141.1977  133.8053  157.0616 LP  0  0  0  0  0  0  0  0  0  0  0  0  # atno 17394 bound_to 11000
  140.0608  134.9755  157.1302 LP  0  0  0  0  0  0  0  0  0  0  0  0  # atno 17395 bound_to 11000

$$$$
