AV-unprocessed.smi:2707|AV-procd|sdf|10456|dock4
  -GOLD-   2272014493D 1   1.00000     0.00000
 Structure written by MMmdl.
 44 45  0  0  0  0  0  0  0  0  1 V2000
  148.4109  141.4421  153.0550 C   0  0  0  0  0  0  0  0  0  0  0  0
  147.1696  141.1839  153.9349 C   0  0  1  0  0  0  0  0  0  0  0  0
  146.3189  140.1472  153.3337 N   0  0  0  0  0  0  0  0  0  0  0  0
  146.6070  138.8523  153.1210 C   0  0  0  0  0  0  0  0  0  0  0  0
  147.6891  138.3342  153.3955 O   0  0  0  0  0  0  0  0  0  0  0  0
  145.5573  138.2109  152.5791 N   0  0  0  0  0  0  0  0  0  0  0  0
  145.4590  136.8410  152.2211 C   0  0  0  0  0  0  0  0  0  0  0  0
  144.6759  136.5690  151.0814 C   0  0  0  0  0  0  0  0  0  0  0  0
  144.5337  135.2335  150.6692 C   0  0  0  0  0  0  0  0  0  0  0  0
  145.1897  134.2374  151.4271 C   0  0  0  0  0  0  0  0  0  0  0  0
  145.1206  132.7376  151.0875 C   0  0  0  0  0  0  0  0  0  0  0  0
  145.8060  132.4045  149.7428 C   0  0  0  0  0  0  0  0  0  0  0  0
  143.6464  132.2951  150.9789 C   0  0  0  0  0  0  0  0  0  0  0  0
  145.8330  131.9215  152.1860 C   0  0  0  0  0  0  0  0  0  0  0  0
  145.9304  134.5620  152.5151 N   0  0  0  0  0  0  0  0  0  0  0  0
  146.0612  135.8341  152.9022 N   0  0  0  0  0  0  0  0  0  0  0  0
  147.5647  140.8060  155.3875 C   0  0  0  0  0  0  0  0  0  0  0  0
  146.3429  140.9456  156.3038 C   0  0  0  0  0  0  0  0  0  0  0  0
  145.3625  142.3255  155.6085 S   0  0  0  0  0  0  0  0  0  0  0  0
  144.0063  141.8419  155.3077 O   0  0  0  0  0  0  0  0  0  0  0  0
  145.5737  143.5387  156.4124 O   0  0  0  0  0  0  0  0  0  0  0  0
  146.3190  142.4655  154.0490 C   0  0  0  0  0  0  0  0  0  0  0  0
  149.0081  142.2664  153.4460 H   0  0  0  0  0  0  0  0  0  0  0  0
  148.1249  141.7005  152.0348 H   0  0  0  0  0  0  0  0  0  0  0  0
  149.0657  140.5720  153.0051 H   0  0  0  0  0  0  0  0  0  0  0  0
  145.3947  140.4518  153.0645 H   0  0  0  0  0  0  0  0  0  0  0  0
  144.7301  138.7640  152.4117 H   0  0  0  0  0  0  0  0  0  0  0  0
  144.1919  137.3637  150.5325 H   0  0  0  0  0  0  0  0  0  0  0  0
  143.9372  135.0087  149.7988 H   0  0  0  0  0  0  0  0  0  0  0  0
  145.7459  131.3379  149.5225 H   0  0  0  0  0  0  0  0  0  0  0  0
  146.8643  132.6681  149.7533 H   0  0  0  0  0  0  0  0  0  0  0  0
  145.3355  132.9282  148.9095 H   0  0  0  0  0  0  0  0  0  0  0  0
  143.1184  132.8617  150.2110 H   0  0  0  0  0  0  0  0  0  0  0  0
  143.1104  132.4367  151.9182 H   0  0  0  0  0  0  0  0  0  0  0  0
  143.5666  131.2384  150.7210 H   0  0  0  0  0  0  0  0  0  0  0  0
  145.8167  130.8543  151.9623 H   0  0  0  0  0  0  0  0  0  0  0  0
  145.3592  132.0519  153.1597 H   0  0  0  0  0  0  0  0  0  0  0  0
  146.8771  132.2205  152.2864 H   0  0  0  0  0  0  0  0  0  0  0  0
  148.0110  139.8153  155.4695 H   0  0  0  0  0  0  0  0  0  0  0  0
  148.3261  141.5061  155.7339 H   0  0  0  0  0  0  0  0  0  0  0  0
  145.7303  140.0443  156.2734 H   0  0  0  0  0  0  0  0  0  0  0  0
  146.6086  141.1537  157.3402 H   0  0  0  0  0  0  0  0  0  0  0  0
  146.9546  143.3468  154.1415 H   0  0  0  0  0  0  0  0  0  0  0  0
  145.6460  142.6260  153.2060 H   0  0  0  0  0  0  0  0  0  0  0  0
  1  2  1  0  0  0  0
  1 23  1  0  0  0  0
  1 24  1  0  0  0  0
  1 25  1  0  0  0  0
  2 22  1  0  0  0  0
  2  3  1  0  0  0  0
  2 17  1  0  0  0  0
  3  4  1  0  0  0  0
  3 26  1  0  0  0  0
  4  5  2  0  0  0  0
  4  6  1  0  0  0  0
  6  7  1  0  0  0  0
  6 27  1  0  0  0  0
  7 16  1  0  0  0  0
  7  8  2  0  0  0  0
  8  9  1  0  0  0  0
  8 28  1  0  0  0  0
  9 10  2  0  0  0  0
  9 29  1  0  0  0  0
 10 11  1  0  0  0  0
 10 15  1  0  0  0  0
 11 12  1  0  0  0  0
 11 13  1  0  0  0  0
 11 14  1  0  0  0  0
 12 30  1  0  0  0  0
 12 31  1  0  0  0  0
 12 32  1  0  0  0  0
 13 33  1  0  0  0  0
 13 34  1  0  0  0  0
 13 35  1  0  0  0  0
 14 36  1  0  0  0  0
 14 37  1  0  0  0  0
 14 38  1  0  0  0  0
 15 16  2  0  0  0  0
 17 18  1  0  0  0  0
 17 39  1  0  0  0  0
 17 40  1  0  0  0  0
 18 19  1  0  0  0  0
 18 41  1  0  0  0  0
 18 42  1  0  0  0  0
 19 20  2  0  0  0  0
 19 21  2  0  0  0  0
 19 22  1  0  0  0  0
 22 43  1  0  0  0  0
 22 44  1  0  0  0  0
M  END
> <s_m_source_file>
AV-unprocessed.smi

> <i_m_source_file_index>
2707

> <i_lp_mmshare_version>
43012

> <i_f3d_flags>
0

> <s_epik_input>
Tz1TKD1PKShbQ0gyXTEpW0NIMl1bQ0gyXVtDQEBdMShbQ0gzXSlbTkhdQyg9TylbTkhdYzJbY0hdW2NIXWMobm4yKUMoW0NIM10pKFtDSDNdKVtDSDNd

> <s_epik_cmdline>
J2VwaWtfcHl0aG9uJywgJy1waCcsICc3LjAnLCAnLXRuJywgJzgnLCAnLW1hJywgJzIwMCcsICctbWV0YWxfYmluZGluZycsICctaW1hZScsICc8aW5maWxlLm1hZT4nLCAnLW9tYWUnLCAnPG91dGZpbGUubWFlPic=

> <r_lp_tautomer_probability>
1

> <r_epik_Ionization_Penalty>
0.00910408

> <r_epik_Ionization_Penalty_Charging>
0

> <r_epik_Ionization_Penalty_Neutral>
0.00910408

> <r_epik_State_Penalty>
-0

> <r_epik_Charging_Adjusted_Penalty>
0

> <i_epik_Tot_Q>
0

> <i_epik_Tot_abs_Q>
0

> <r_epik_Metal_State_Penalty>
-0

> <b_epik_Metal_Only>
0

> <s_lp_Force_Field>
OPLS_2005

> <r_lp_Energy>
10.5571

> <b_lp_Chiralities_Consistent>
1

> <s_lp_Variant>
AV-unprocessed.smi:2707-1

> <Gold.Version>
5.8.1

> <Gold.Id.Protein>
6NUR|6NUR_protein|mol2

> <Gold.PLP.Fitness>
34.6489

> <Gold.PLP.PLP>
-29.3428

> <Gold.PLP.part.hbond>
-2.0000

> <Gold.PLP.part.metal>
0.0000

> <Gold.PLP.part.buried>
-1.5163

> <Gold.PLP.part.nonpolar>
-27.0535

> <Gold.PLP.part.repulsive>
1.1088

> <Gold.PLP.ligand.clash>
0.0000

> <Gold.PLP.ligand.torsion>
0.3549

> <Gold.PLP.Chemscore.Hbond>
2.0000

> <Gold.PLP.Chemscore.CHOScore>
0.0000

> <Gold.PLP.Chemscore.Metal>
0.0000

> <Gold.Chemscore.Hbonds>
donor molecule, donor type, donor heavy atom, donor atom, acceptor molecule, acceptor atom, score
      L1  H     3    26       P1 10175  1.00
      L1  H     6    27       P1 10175  1.00

> <Gold.PLP.Chemscore.Internal.Correction>
0.0159

> <Gold.Rescore>
     Score         DG    S(hbond)    S(metal)    S(lipo)     H(rot)  DE(clash)    DE(int)     intcor
     14.18     -17.00       1.94        0.00      69.86       1.22       1.46       1.36       ----

> <Gold.Chemscore.Fitness>
14.1764

> <Gold.Chemscore.DG>
-16.9997

> <Gold.Chemscore.ZeroCoef>
-5.4800

> <Gold.Chemscore.Hbond>
1.9403

> <Gold.Chemscore.Metal>
0.0000

> <Gold.Chemscore.Lipo>
69.8563

> <Gold.Chemscore.Internal_Hbond>
0.0000

> <Gold.Chemscore.DEClash>
1.4608

> <Gold.Chemscore.DEInternal>
1.3626

> <Gold.Chemscore.Rot>
1.2242

> <Gold.Chemscore.Internal.Correction>
   9.000000E+99

> <Gold.Chemscore.Hbonds>
donor molecule, donor type, donor heavy atom, donor atom, acceptor molecule, acceptor atom, score
      L1  H     3    26       P1 10175  0.93
      L1  H     6    27       P1 10175  0.94

> <Gold.Chemscore.Hbond.Weighted>
-6.4806

> <Gold.Chemscore.Metal.Weighted>
-0.0000

> <Gold.Chemscore.Lipo.Weighted>
-8.1732

> <Gold.Chemscore.Internal_Hbond.Weighted>
0.0000

> <Gold.Chemscore.DEClash.Weighted>
1.4608

> <Gold.Chemscore.DEInternal.Weighted>
1.3626

> <Gold.Chemscore.Rot.Weighted>
3.1340

> <Gold.Chemscore.Internal.Correction.Weighted>
   9.000000E+99

> <Gold.Protein.RotatedTorsions>
[ 6907 6896 6895 6894 ] final -161.38 input  -60.11 | X-H torsion
[ 7974 7965 7964 7962 ] final  -58.53 input  175.53 | X-H torsion
[ 8008 7997 7996 7995 ] final  152.34 input   59.86 | X-H torsion
[ 10167 10162 10161 10158 ] final  -73.42 input  -65.29 | X-H torsion
[ 10718 10713 10712 10709 ] final   73.15 input   66.30 | X-H torsion
[ 10763 10752 10751 10750 ] final  -34.99 input  -60.55 | X-H torsion
[ 11005 11000 10999 10996 ] final  144.43 input  -57.11 | X-H torsion

> <Gold.Protein.ActiveResidues>
 VAL166  LYS551  ARG553  GLY616  TRP617  ASP618  TYR619  PRO620  LYS621  CYS622 
 ASP623  PHE694  ASN695  SER759  ASP760  ASP761  ALA762  ILE779  LEU786  VAL792 
 PHE793  MET794  SER795  GLU796  ALA797  LYS798  CYS799  TRP800  GLU811  SER814 

> <Gold.Protein.RotatedAtoms>
  151.3638  133.3879  159.2692 H   0  0  0  0  0  0  0  0  0  0  0  0  # atno 6907 bound_to 6896
  150.9704  134.9079  159.7795 H   0  0  0  0  0  0  0  0  0  0  0  0  # atno 6908 bound_to 6896
  152.5182  134.3600  159.9333 H   0  0  0  0  0  0  0  0  0  0  0  0  # atno 6909 bound_to 6896
  145.8382  140.8435  143.0048 H   0  0  0  0  0  0  0  0  0  0  0  0  # atno 7974 bound_to 7965
  156.2633  140.2023  156.6318 H   0  0  0  0  0  0  0  0  0  0  0  0  # atno 8008 bound_to 7997
  154.6677  140.0553  157.0156 H   0  0  0  0  0  0  0  0  0  0  0  0  # atno 8009 bound_to 7997
  155.1182  140.3222  155.4507 H   0  0  0  0  0  0  0  0  0  0  0  0  # atno 8010 bound_to 7997
  140.5112  143.2345  151.7590 H   0  0  0  0  0  0  0  0  0  0  0  0  # atno 10167 bound_to 10162
  157.6534  130.9614  150.1029 H   0  0  0  0  0  0  0  0  0  0  0  0  # atno 10718 bound_to 10713
  153.8559  135.6844  153.4787 H   0  0  0  0  0  0  0  0  0  0  0  0  # atno 10763 bound_to 10752
  153.1370  135.4673  154.9435 H   0  0  0  0  0  0  0  0  0  0  0  0  # atno 10764 bound_to 10752
  154.7781  135.3260  154.7997 H   0  0  0  0  0  0  0  0  0  0  0  0  # atno 10765 bound_to 10752
  140.0631  134.9193  157.1219 H   0  0  0  0  0  0  0  0  0  0  0  0  # atno 11005 bound_to 11000
  144.6735  140.0773  143.7470 LP  0  0  0  0  0  0  0  0  0  0  0  0  # atno 17320 bound_to 7965
  145.9495  139.2723  143.1221 LP  0  0  0  0  0  0  0  0  0  0  0  0  # atno 17321 bound_to 7965
  139.4896  144.4388  151.9788 LP  0  0  0  0  0  0  0  0  0  0  0  0  # atno 17342 bound_to 10162
  140.3480  144.3123  150.5954 LP  0  0  0  0  0  0  0  0  0  0  0  0  # atno 17343 bound_to 10162
  156.1946  130.3656  149.8865 LP  0  0  0  0  0  0  0  0  0  0  0  0  # atno 17370 bound_to 10713
  156.6785  130.8848  151.3572 LP  0  0  0  0  0  0  0  0  0  0  0  0  # atno 17371 bound_to 10713
  140.3739  134.2360  155.7176 LP  0  0  0  0  0  0  0  0  0  0  0  0  # atno 17394 bound_to 11000
  141.1981  133.8042  157.0595 LP  0  0  0  0  0  0  0  0  0  0  0  0  # atno 17395 bound_to 11000

$$$$
