AV-unprocessed.smi:2032|AV-procd|sdf|8236|dock9
  -GOLD-   2272010503D 1   1.00000     0.00000
 Structure written by MMmdl.
 42 43  0  0  0  0  0  0  0  0  1 V2000
  144.6587  137.9600  161.5960 C   0  0  0  0  0  0  0  0  0  0  0  0
  145.1687  136.5366  161.3476 C   0  0  1  0  0  0  0  0  0  0  0  0
  144.9721  136.1005  159.8851 C   0  0  0  0  0  0  0  0  0  0  0  0
  145.5258  134.7721  159.6161 N   0  0  0  0  0  0  0  0  0  0  0  0
  145.3033  134.3353  158.2199 C   0  0  1  0  0  0  0  0  0  0  0  0
  145.8648  132.9274  157.9175 C   0  0  0  0  0  0  0  0  0  0  0  0
  143.8172  134.3767  157.7756 C   0  0  0  0  0  0  0  0  0  0  0  0
  143.6531  134.0877  156.3521 N   0  0  0  0  0  0  0  0  0  0  0  0
  144.1256  134.8322  155.3426 C   0  0  0  0  0  0  0  0  0  0  0  0
  144.7438  135.8850  155.5038 O   0  0  0  0  0  0  0  0  0  0  0  0
  143.8391  134.2729  154.1540 N   0  0  0  0  0  0  0  0  0  0  0  0
  144.1812  134.7408  152.8581 C   0  0  0  0  0  0  0  0  0  0  0  0
  144.4487  133.9464  151.8151 N   0  0  0  0  0  0  0  0  0  0  0  0
  144.7541  134.6773  150.6641 C   0  0  0  0  0  0  0  0  0  0  0  0
  144.7132  136.0367  150.8500 C   0  0  0  0  0  0  0  0  0  0  0  0
  144.2876  136.4558  152.4881 S   0  0  0  0  0  0  0  0  0  0  0  0
  146.9449  134.7884  159.9817 C   0  0  0  0  0  0  0  0  0  0  0  0
  147.1978  135.2519  161.4304 C   0  0  2  0  0  0  0  0  0  0  0  0
  146.8137  134.1977  162.4828 C   0  0  0  0  0  0  0  0  0  0  0  0
  146.5550  136.5021  161.6722 O   0  0  0  0  0  0  0  0  0  0  0  0
  143.5963  138.0424  161.3656 H   0  0  0  0  0  0  0  0  0  0  0  0
  145.1925  138.6835  160.9793 H   0  0  0  0  0  0  0  0  0  0  0  0
  144.7953  138.2459  162.6392 H   0  0  0  0  0  0  0  0  0  0  0  0
  144.6238  135.8586  162.0052 H   0  0  0  0  0  0  0  0  0  0  0  0
  143.9024  136.1173  159.6837 H   0  0  0  0  0  0  0  0  0  0  0  0
  145.4297  136.8329  159.2181 H   0  0  0  0  0  0  0  0  0  0  0  0
  145.8371  135.0247  157.5641 H   0  0  0  0  0  0  0  0  0  0  0  0
  145.5714  132.5899  156.9231 H   0  0  0  0  0  0  0  0  0  0  0  0
  145.5045  132.1892  158.6347 H   0  0  0  0  0  0  0  0  0  0  0  0
  146.9539  132.9080  157.9337 H   0  0  0  0  0  0  0  0  0  0  0  0
  143.2256  133.6549  158.3375 H   0  0  0  0  0  0  0  0  0  0  0  0
  143.3745  135.3417  158.0285 H   0  0  0  0  0  0  0  0  0  0  0  0
  143.1637  133.2353  156.1218 H   0  0  0  0  0  0  0  0  0  0  0  0
  143.3233  133.4057  154.1790 H   0  0  0  0  0  0  0  0  0  0  0  0
  144.9896  134.1470  149.7532 H   0  0  0  0  0  0  0  0  0  0  0  0
  144.9073  136.8134  150.1253 H   0  0  0  0  0  0  0  0  0  0  0  0
  147.3852  133.7989  159.8684 H   0  0  0  0  0  0  0  0  0  0  0  0
  147.4849  135.4478  159.3006 H   0  0  0  0  0  0  0  0  0  0  0  0
  148.2671  135.4339  161.5406 H   0  0  0  0  0  0  0  0  0  0  0  0
  147.4036  133.2898  162.3542 H   0  0  0  0  0  0  0  0  0  0  0  0
  145.7635  133.9141  162.4163 H   0  0  0  0  0  0  0  0  0  0  0  0
  146.9970  134.5700  163.4907 H   0  0  0  0  0  0  0  0  0  0  0  0
  1  2  1  0  0  0  0
  1 21  1  0  0  0  0
  1 22  1  0  0  0  0
  1 23  1  0  0  0  0
  2 20  1  0  0  0  0
  2  3  1  0  0  0  0
  2 24  1  0  0  0  0
  3  4  1  0  0  0  0
  3 25  1  0  0  0  0
  3 26  1  0  0  0  0
  4  5  1  0  0  0  0
  4 17  1  0  0  0  0
  5  6  1  0  0  0  0
  5  7  1  0  0  0  0
  5 27  1  0  0  0  0
  6 28  1  0  0  0  0
  6 29  1  0  0  0  0
  6 30  1  0  0  0  0
  7  8  1  0  0  0  0
  7 31  1  0  0  0  0
  7 32  1  0  0  0  0
  8  9  1  0  0  0  0
  8 33  1  0  0  0  0
  9 10  2  0  0  0  0
  9 11  1  0  0  0  0
 11 12  1  0  0  0  0
 11 34  1  0  0  0  0
 12 16  1  0  0  0  0
 12 13  2  0  0  0  0
 13 14  1  0  0  0  0
 14 15  2  0  0  0  0
 14 35  1  0  0  0  0
 15 16  1  0  0  0  0
 15 36  1  0  0  0  0
 17 18  1  0  0  0  0
 17 37  1  0  0  0  0
 17 38  1  0  0  0  0
 18 19  1  0  0  0  0
 18 20  1  0  0  0  0
 18 39  1  0  0  0  0
 19 40  1  0  0  0  0
 19 41  1  0  0  0  0
 19 42  1  0  0  0  0
M  END
> <s_m_source_file>
AV-unprocessed.smi

> <i_m_source_file_index>
2032

> <i_lp_mmshare_version>
43012

> <i_f3d_flags>
0

> <s_epik_input>
W0NIM11bQ0BASF0xW0NIMl1OKFtDSDJdW0NASF0oTzEpW0NIM10pW0NASF0oW0NIM10pW0NIMl1bTkhdQyg9TylbTkhdYzJuW2NIXVtjSF1zMg==

> <s_epik_cmdline>
J2VwaWtfcHl0aG9uJywgJy1waCcsICc3LjAnLCAnLXRuJywgJzgnLCAnLW1hJywgJzIwMCcsICctbWV0YWxfYmluZGluZycsICctaW1hZScsICc8aW5maWxlLm1hZT4nLCAnLW9tYWUnLCAnPG91dGZpbGUubWFlPic=

> <r_lp_tautomer_probability>
0.999

> <r_epik_Ionization_Penalty>
0.219202

> <r_epik_Ionization_Penalty_Charging>
0

> <r_epik_Ionization_Penalty_Neutral>
0.219202

> <r_epik_State_Penalty>
0.209349

> <r_epik_Charging_Adjusted_Penalty>
0.209349

> <i_epik_Tot_Q>
0

> <i_epik_Tot_abs_Q>
0

> <r_epik_Metal_State_Penalty>
0.247737

> <b_epik_Metal_Only>
0

> <s_lp_Force_Field>
OPLS_2005

> <r_lp_Energy>
32.3781

> <b_lp_Chiralities_Consistent>
1

> <s_lp_Variant>
AV-unprocessed.smi:2032-6

> <Gold.Version>
5.8.1

> <Gold.Id.Protein>
6NUR|6NUR_protein|mol2

> <Gold.PLP.Fitness>
33.9495

> <Gold.PLP.PLP>
-22.6221

> <Gold.PLP.part.hbond>
-2.1464

> <Gold.PLP.part.metal>
0.0000

> <Gold.PLP.part.buried>
-2.6471

> <Gold.PLP.part.nonpolar>
-17.4523

> <Gold.PLP.part.repulsive>
0.1260

> <Gold.PLP.ligand.clash>
0.0000

> <Gold.PLP.ligand.torsion>
0.2529

> <Gold.PLP.Chemscore.Hbond>
2.0000

> <Gold.PLP.Chemscore.CHOScore>
1.9317

> <Gold.PLP.Chemscore.Metal>
0.0000

> <Gold.Chemscore.Hbonds>
donor molecule, donor type, donor heavy atom, donor atom, acceptor molecule, acceptor atom, score
      L1  H     8    33       P1 10957  1.00
      L1  H    11    34       P1 10957  1.00
      L1  C    14    35       P1  7921  1.00
      L1  C    15    36       P1 10171  0.99

> <Gold.PLP.Chemscore.Internal.Correction>
0.0379

> <Gold.Rescore>
     Score         DG    S(hbond)    S(metal)    S(lipo)     H(rot)  DE(clash)    DE(int)     intcor
     15.86     -16.12       2.87        0.00      43.38       1.57       0.00       0.26       ----

> <Gold.Chemscore.Fitness>
15.8582

> <Gold.Chemscore.DG>
-16.1178

> <Gold.Chemscore.ZeroCoef>
-5.4800

> <Gold.Chemscore.Hbond>
2.8726

> <Gold.Chemscore.Metal>
0.0000

> <Gold.Chemscore.Lipo>
43.3784

> <Gold.Chemscore.Internal_Hbond>
0.0000

> <Gold.Chemscore.DEClash>
0.0029

> <Gold.Chemscore.DEInternal>
0.2566

> <Gold.Chemscore.Rot>
1.5750

> <Gold.Chemscore.Internal.Correction>
   9.000000E+99

> <Gold.Chemscore.Hbonds>
donor molecule, donor type, donor heavy atom, donor atom, acceptor molecule, acceptor atom, score
      L1  H     8    33       P1 10957  0.91
      L1  H    11    34       P1 10957  1.00

> <Gold.Chemscore.Hbond.Weighted>
-9.5944

> <Gold.Chemscore.Metal.Weighted>
-0.0000

> <Gold.Chemscore.Lipo.Weighted>
-5.0753

> <Gold.Chemscore.Internal_Hbond.Weighted>
0.0000

> <Gold.Chemscore.DEClash.Weighted>
0.0029

> <Gold.Chemscore.DEInternal.Weighted>
0.2566

> <Gold.Chemscore.Rot.Weighted>
4.0319

> <Gold.Chemscore.Internal.Correction.Weighted>
   9.000000E+99

> <Gold.Protein.RotatedTorsions>
[ 6907 6896 6895 6894 ] final  137.85 input  -60.11 | X-H torsion
[ 7974 7965 7964 7962 ] final   49.56 input  175.53 | X-H torsion
[ 8008 7997 7996 7995 ] final -101.66 input   59.86 | X-H torsion
[ 10167 10162 10161 10158 ] final   37.80 input  -65.29 | X-H torsion
[ 10718 10713 10712 10709 ] final -176.72 input   66.30 | X-H torsion
[ 10763 10752 10751 10750 ] final  147.86 input  -60.55 | X-H torsion
[ 11005 11000 10999 10996 ] final  -17.65 input  -57.11 | X-H torsion

> <Gold.Protein.ActiveResidues>
 VAL166  LYS551  ARG553  GLY616  TRP617  ASP618  TYR619  PRO620  LYS621  CYS622 
 ASP623  PHE694  ASN695  SER759  ASP760  ASP761  ALA762  ILE779  LEU786  VAL792 
 PHE793  MET794  SER795  GLU796  ALA797  LYS798  CYS799  TRP800  GLU811  SER814 

> <Gold.Protein.RotatedAtoms>
  152.2734  133.5403  159.5452 H   0  0  0  0  0  0  0  0  0  0  0  0  # atno 6907 bound_to 6896
  150.7168  134.0666  159.3859 H   0  0  0  0  0  0  0  0  0  0  0  0  # atno 6908 bound_to 6896
  151.8580  135.0534  160.0517 H   0  0  0  0  0  0  0  0  0  0  0  0  # atno 6909 bound_to 6896
  146.0097  139.4530  142.9963 H   0  0  0  0  0  0  0  0  0  0  0  0  # atno 7974 bound_to 7965
  154.8457  140.0433  157.1571 H   0  0  0  0  0  0  0  0  0  0  0  0  # atno 8008 bound_to 7997
  154.8997  140.2998  155.5304 H   0  0  0  0  0  0  0  0  0  0  0  0  # atno 8009 bound_to 7997
  156.2994  140.2378  156.4023 H   0  0  0  0  0  0  0  0  0  0  0  0  # atno 8010 bound_to 7997
  140.3998  144.1739  150.6133 H   0  0  0  0  0  0  0  0  0  0  0  0  # atno 10167 bound_to 10162
  156.8189  130.9612  151.3112 H   0  0  0  0  0  0  0  0  0  0  0  0  # atno 10718 bound_to 10713
  154.0452  135.2886  155.3349 H   0  0  0  0  0  0  0  0  0  0  0  0  # atno 10763 bound_to 10752
  154.6904  135.5229  153.8387 H   0  0  0  0  0  0  0  0  0  0  0  0  # atno 10764 bound_to 10752
  153.0583  135.6604  154.0653 H   0  0  0  0  0  0  0  0  0  0  0  0  # atno 10765 bound_to 10752
  140.8190  133.8083  155.9639 H   0  0  0  0  0  0  0  0  0  0  0  0  # atno 11005 bound_to 11000
  145.7361  141.0025  143.1326 LP  0  0  0  0  0  0  0  0  0  0  0  0  # atno 17320 bound_to 7965
  144.6948  139.9042  143.7460 LP  0  0  0  0  0  0  0  0  0  0  0  0  # atno 17321 bound_to 7965
  140.4752  143.2398  151.9033 LP  0  0  0  0  0  0  0  0  0  0  0  0  # atno 17342 bound_to 10162
  139.4785  144.5328  151.8642 LP  0  0  0  0  0  0  0  0  0  0  0  0  # atno 17343 bound_to 10162
  157.6467  130.8850  149.9553 LP  0  0  0  0  0  0  0  0  0  0  0  0  # atno 17370 bound_to 10713
  156.1000  130.3656  150.0235 LP  0  0  0  0  0  0  0  0  0  0  0  0  # atno 17371 bound_to 10713
  140.9119  134.2250  157.4980 LP  0  0  0  0  0  0  0  0  0  0  0  0  # atno 17394 bound_to 11000
  139.8709  134.9754  156.4882 LP  0  0  0  0  0  0  0  0  0  0  0  0  # atno 17395 bound_to 11000

$$$$
