AV-unprocessed.smi:99|AV-procd|sdf|894|dock4
  -GOLD-   2262017383D 1   1.00000     0.00000
 Structure written by MMmdl.
 52 55  0  0  0  0  0  0  0  0  2 V2000
  149.1949  136.0854  158.7429 O   0  0  0  0  0  0  0  0  0  0  0  0
  148.2371  135.3945  159.0958 C   0  0  0  0  0  0  0  0  0  0  0  0
  147.6741  134.4471  158.3226 O   0  0  0  0  0  0  0  0  0  0  0  0
  147.8908  134.4330  156.9208 C   0  0  0  0  0  0  0  0  0  0  0  0
  147.2039  135.6589  156.3065 C   0  0  1  0  0  0  0  0  0  0  0  0
  147.7823  136.8592  156.8133 O   0  0  0  0  0  0  0  0  0  0  0  0
  147.7457  137.8687  155.8410 C   0  0  1  0  0  0  0  0  0  0  0  0
  149.1557  138.3422  155.5604 N   0  0  0  0  0  0  0  0  0  0  0  0
  149.6973  138.2589  154.2881 C   0  0  0  0  0  0  0  0  0  0  0  0
  150.9481  138.6910  154.0275 C   0  0  0  0  0  0  0  0  0  0  0  0
  151.7488  139.2621  155.1069 C   0  0  0  0  0  0  0  0  0  0  0  0
  152.8914  139.6444  154.8624 O   0  0  0  0  0  0  0  0  0  0  0  0
  151.1871  139.3480  156.3472 N   0  5  0  0  0  0  0  0  0  0  0  0
  149.9191  138.9178  156.6125 C   0  0  0  0  0  0  0  0  0  0  0  0
  149.3956  139.0103  157.7231 O   0  0  0  0  0  0  0  0  0  0  0  0
  147.1253  137.2734  154.5675 C   0  0  2  0  0  0  0  0  0  0  0  0
  145.7475  137.5930  154.5014 O   0  0  0  0  0  0  0  0  0  0  0  0
  147.3712  135.7912  154.7936 C   0  0  2  0  0  0  0  0  0  0  0  0
  146.4882  134.9809  154.0234 O   0  0  0  0  0  0  0  0  0  0  0  0
  146.9597  134.0194  153.1994 C   0  0  0  0  0  0  0  0  0  0  0  0
  148.1080  133.5739  153.2484 O   0  0  0  0  0  0  0  0  0  0  0  0
  145.9286  133.5196  152.2459 C   0  0  0  0  0  0  0  0  0  0  0  0
  144.7183  134.2363  152.0968 C   0  0  0  0  0  0  0  0  0  0  0  0
  143.7366  133.8042  151.1842 C   0  0  0  0  0  0  0  0  0  0  0  0
  143.9528  132.6487  150.4111 C   0  0  0  0  0  0  0  0  0  0  0  0
  145.1511  131.9252  150.5527 C   0  0  0  0  0  0  0  0  0  0  0  0
  146.1346  132.3563  151.4641 C   0  0  0  0  0  0  0  0  0  0  0  0
  147.5898  135.5017  160.4354 C   0  0  0  0  0  0  0  0  0  0  0  0
  147.7031  136.7067  161.1670 C   0  0  0  0  0  0  0  0  0  0  0  0
  147.1208  136.8278  162.4438 C   0  0  0  0  0  0  0  0  0  0  0  0
  146.4183  135.7455  163.0051 C   0  0  0  0  0  0  0  0  0  0  0  0
  146.2948  134.5428  162.2859 C   0  0  0  0  0  0  0  0  0  0  0  0
  146.8739  134.4210  161.0080 C   0  0  0  0  0  0  0  0  0  0  0  0
  148.9640  134.4648  156.7311 H   0  0  0  0  0  0  0  0  0  0  0  0
  147.5021  133.5199  156.4675 H   0  0  0  0  0  0  0  0  0  0  0  0
  146.1448  135.6707  156.5700 H   0  0  0  0  0  0  0  0  0  0  0  0
  147.2138  138.7344  156.2396 H   0  0  0  0  0  0  0  0  0  0  0  0
  149.1169  137.8470  153.4766 H   0  0  0  0  0  0  0  0  0  0  0  0
  151.3537  138.6193  153.0291 H   0  0  0  0  0  0  0  0  0  0  0  0
  147.6176  137.6434  153.6672 H   0  0  0  0  0  0  0  0  0  0  0  0
  145.6234  138.4563  154.8644 H   0  0  0  0  0  0  0  0  0  0  0  0
  148.4134  135.5932  154.5391 H   0  0  0  0  0  0  0  0  0  0  0  0
  144.5331  135.1309  152.6738 H   0  0  0  0  0  0  0  0  0  0  0  0
  142.8188  134.3630  151.0754 H   0  0  0  0  0  0  0  0  0  0  0  0
  143.2006  132.3181  149.7100 H   0  0  0  0  0  0  0  0  0  0  0  0
  145.3183  131.0380  149.9597 H   0  0  0  0  0  0  0  0  0  0  0  0
  147.0450  131.7802  151.5454 H   0  0  0  0  0  0  0  0  0  0  0  0
  148.2429  137.5492  160.7592 H   0  0  0  0  0  0  0  0  0  0  0  0
  147.2163  137.7520  162.9945 H   0  0  0  0  0  0  0  0  0  0  0  0
  145.9755  135.8375  163.9858 H   0  0  0  0  0  0  0  0  0  0  0  0
  145.7597  133.7091  162.7161 H   0  0  0  0  0  0  0  0  0  0  0  0
  146.7651  133.4811  160.4869 H   0  0  0  0  0  0  0  0  0  0  0  0
  1  2  2  0  0  0  0
  2  3  1  0  0  0  0
  2 28  1  0  0  0  0
  3  4  1  0  0  0  0
  4  5  1  0  0  0  0
  4 34  1  0  0  0  0
  4 35  1  0  0  0  0
  5 18  1  0  0  0  0
  5  6  1  0  0  0  0
  5 36  1  0  0  0  0
  6  7  1  0  0  0  0
  7  8  1  0  0  0  0
  7 16  1  0  0  0  0
  7 37  1  0  0  0  0
  8 14  1  0  0  0  0
  8  9  1  0  0  0  0
  9 10  2  0  0  0  0
  9 38  1  0  0  0  0
 10 11  1  0  0  0  0
 10 39  1  0  0  0  0
 11 12  2  0  0  0  0
 11 13  1  0  0  0  0
 13 14  1  0  0  0  0
 14 15  2  0  0  0  0
 16 17  1  0  0  0  0
 16 18  1  0  0  0  0
 16 40  1  0  0  0  0
 17 41  1  0  0  0  0
 18 19  1  0  0  0  0
 18 42  1  0  0  0  0
 19 20  1  0  0  0  0
 20 21  2  0  0  0  0
 20 22  1  0  0  0  0
 22 27  1  0  0  0  0
 22 23  2  0  0  0  0
 23 24  1  0  0  0  0
 23 43  1  0  0  0  0
 24 25  2  0  0  0  0
 24 44  1  0  0  0  0
 25 26  1  0  0  0  0
 25 45  1  0  0  0  0
 26 27  2  0  0  0  0
 26 46  1  0  0  0  0
 27 47  1  0  0  0  0
 28 33  1  0  0  0  0
 28 29  2  0  0  0  0
 29 30  1  0  0  0  0
 29 48  1  0  0  0  0
 30 31  2  0  0  0  0
 30 49  1  0  0  0  0
 31 32  1  0  0  0  0
 31 50  1  0  0  0  0
 32 33  2  0  0  0  0
 32 51  1  0  0  0  0
 33 52  1  0  0  0  0
M  CHG  1  13  -1
M  END
> <s_m_source_file>
AV-unprocessed.smi

> <i_m_source_file_index>
99

> <i_lp_mmshare_version>
43012

> <i_f3d_flags>
0

> <s_epik_input>
W2NIXTFbY0hdW2NIXVtjSF1bY0hdYzFDKD1PKU9bQ0gyXVtDQEBIXTJPW0NAQEhdKG4zW2NIXVtjSF1jKD1PKVtuSF1jMz1PKVtDQEBIXShbT0hdKVtDQEhdMk9DKD1PKWM0W2NIXVtjSF1bY0hdW2NIXVtjSF00

> <s_epik_cmdline>
J2VwaWtfcHl0aG9uJywgJy1waCcsICc3LjAnLCAnLXRuJywgJzgnLCAnLW1hJywgJzIwMCcsICctbWV0YWxfYmluZGluZycsICctaW1hZScsICc8aW5maWxlLm1hZT4nLCAnLW9tYWUnLCAnPG91dGZpbGUubWFlPic=

> <r_lp_tautomer_probability>
1

> <r_epik_Ionization_Penalty>
2.89159

> <r_epik_Ionization_Penalty_Charging>
2.1077e-08

> <r_epik_Ionization_Penalty_Neutral>
2.89159

> <r_epik_State_Penalty>
2.88671

> <r_epik_Charging_Adjusted_Penalty>
2.88671

> <i_epik_Tot_Q>
-1

> <i_epik_Tot_abs_Q>
1

> <r_epik_Metal_State_Penalty>
0.0727308

> <b_epik_Metal_Only>
1

> <s_epik_Chemistry_Notes>
This compound has an ester and may undergo hydrolysis at high or low pH. This compound contains an acetal/aminal-like group ( X-CH(R)-Y where X, Y are N, S, or O) that may be acid/base labile, releasing an aldehyde.

> <s_lp_Force_Field>
OPLS_2005

> <r_lp_Energy>
45.2634

> <b_lp_Chiralities_Consistent>
1

> <s_lp_Variant>
AV-unprocessed.smi:99-30

> <Gold.Version>
5.8.1

> <Gold.Id.Protein>
6NUR|6NUR_protein|mol2

> <Gold.PLP.Fitness>
52.4358

> <Gold.PLP.PLP>
-46.2025

> <Gold.PLP.part.hbond>
-3.0000

> <Gold.PLP.part.metal>
0.0000

> <Gold.PLP.part.buried>
-6.8949

> <Gold.PLP.part.nonpolar>
-38.2093

> <Gold.PLP.part.repulsive>
0.3424

> <Gold.PLP.ligand.clash>
0.0044

> <Gold.PLP.ligand.torsion>
1.4842

> <Gold.PLP.Chemscore.Hbond>
2.0355

> <Gold.PLP.Chemscore.CHOScore>
1.0000

> <Gold.PLP.Chemscore.Metal>
0.0000

> <Gold.Chemscore.Hbonds>
donor molecule, donor type, donor heavy atom, donor atom, acceptor molecule, acceptor atom, score
      P1  H  6896  6909       L1     1  0.34
      P1  H  7997  8010       L1    12  1.00
      L1  C     9    38       P1  7948  1.00

> <Gold.PLP.Chemscore.Internal.Correction>
0.0996

> <Gold.Rescore>
     Score         DG    S(hbond)    S(metal)    S(lipo)     H(rot)  DE(clash)    DE(int)     intcor
     10.67     -16.41       1.95        0.00     106.39       3.13       0.01       5.72       ----

> <Gold.Chemscore.Fitness>
10.6733

> <Gold.Chemscore.DG>
-16.4091

> <Gold.Chemscore.ZeroCoef>
-5.4800

> <Gold.Chemscore.Hbond>
1.9480

> <Gold.Chemscore.Metal>
0.0000

> <Gold.Chemscore.Lipo>
106.3883

> <Gold.Chemscore.Internal_Hbond>
0.0000

> <Gold.Chemscore.DEClash>
0.0136

> <Gold.Chemscore.DEInternal>
5.7222

> <Gold.Chemscore.Rot>
3.1346

> <Gold.Chemscore.Internal.Correction>
   9.000000E+99

> <Gold.Chemscore.Hbonds>
donor molecule, donor type, donor heavy atom, donor atom, acceptor molecule, acceptor atom, score
      P1  H  6896  6909       L1     1  0.08
      P1  H  7997  8010       L1    12  0.99

> <Gold.Chemscore.Hbond.Weighted>
-6.5062

> <Gold.Chemscore.Metal.Weighted>
-0.0000

> <Gold.Chemscore.Lipo.Weighted>
-12.4474

> <Gold.Chemscore.Internal_Hbond.Weighted>
0.0000

> <Gold.Chemscore.DEClash.Weighted>
0.0136

> <Gold.Chemscore.DEInternal.Weighted>
5.7222

> <Gold.Chemscore.Rot.Weighted>
8.0246

> <Gold.Chemscore.Internal.Correction.Weighted>
   9.000000E+99

> <Gold.Protein.RotatedTorsions>
[ 6907 6896 6895 6894 ] final   78.18 input  -60.11 | X-H torsion
[ 7974 7965 7964 7962 ] final -164.51 input  175.53 | X-H torsion
[ 8008 7997 7996 7995 ] final  106.19 input   59.86 | X-H torsion
[ 10167 10162 10161 10158 ] final   64.59 input  -65.29 | X-H torsion
[ 10718 10713 10712 10709 ] final  102.48 input   66.30 | X-H torsion
[ 10763 10752 10751 10750 ] final   49.34 input  -60.55 | X-H torsion
[ 11005 11000 10999 10996 ] final -128.10 input  -57.11 | X-H torsion

> <Gold.Protein.ActiveResidues>
 VAL166  LYS551  ARG553  GLY616  TRP617  ASP618  TYR619  PRO620  LYS621  CYS622 
 ASP623  PHE694  ASN695  SER759  ASP760  ASP761  ALA762  ILE779  LEU786  VAL792 
 PHE793  MET794  SER795  GLU796  ALA797  LYS798  CYS799  TRP800  GLU811  SER814 

> <Gold.Protein.RotatedAtoms>
  152.5149  134.3703  159.9315 H   0  0  0  0  0  0  0  0  0  0  0  0  # atno 6907 bound_to 6896
  151.3657  133.3867  159.2702 H   0  0  0  0  0  0  0  0  0  0  0  0  # atno 6908 bound_to 6896
  150.9617  134.9023  159.7793 H   0  0  0  0  0  0  0  0  0  0  0  0  # atno 6909 bound_to 6896
  144.7295  140.2950  143.6214 H   0  0  0  0  0  0  0  0  0  0  0  0  # atno 7974 bound_to 7965
  156.1723  140.3117  155.8995 H   0  0  0  0  0  0  0  0  0  0  0  0  # atno 8008 bound_to 7997
  155.3562  140.0474  157.3063 H   0  0  0  0  0  0  0  0  0  0  0  0  # atno 8009 bound_to 7997
  154.5253  140.2212  155.8911 H   0  0  0  0  0  0  0  0  0  0  0  0  # atno 8010 bound_to 7997
  140.1206  144.4735  150.6923 H   0  0  0  0  0  0  0  0  0  0  0  0  # atno 10167 bound_to 10162
  157.6801  131.0754  150.5410 H   0  0  0  0  0  0  0  0  0  0  0  0  # atno 10718 bound_to 10713
  152.9787  135.5915  154.4073 H   0  0  0  0  0  0  0  0  0  0  0  0  # atno 10763 bound_to 10752
  154.3712  135.2767  155.2267 H   0  0  0  0  0  0  0  0  0  0  0  0  # atno 10764 bound_to 10752
  154.4222  135.6056  153.6071 H   0  0  0  0  0  0  0  0  0  0  0  0  # atno 10765 bound_to 10752
  140.9544  134.1021  157.4030 H   0  0  0  0  0  0  0  0  0  0  0  0  # atno 11005 bound_to 11000
  145.7817  139.1894  143.2153 LP  0  0  0  0  0  0  0  0  0  0  0  0  # atno 17320 bound_to 7965
  146.0828  140.7745  142.9633 LP  0  0  0  0  0  0  0  0  0  0  0  0  # atno 17321 bound_to 7965
  140.6874  143.2357  151.5223 LP  0  0  0  0  0  0  0  0  0  0  0  0  # atno 17342 bound_to 10162
  139.5571  144.2249  152.1630 LP  0  0  0  0  0  0  0  0  0  0  0  0  # atno 17343 bound_to 10162
  156.5717  130.4281  149.6016 LP  0  0  0  0  0  0  0  0  0  0  0  0  # atno 17370 bound_to 10713
  156.2735  130.7030  151.1835 LP  0  0  0  0  0  0  0  0  0  0  0  0  # atno 17371 bound_to 10713
  139.8857  135.0075  156.6455 LP  0  0  0  0  0  0  0  0  0  0  0  0  # atno 17394 bound_to 11000
  140.7557  133.8860  155.8380 LP  0  0  0  0  0  0  0  0  0  0  0  0  # atno 17395 bound_to 11000

$$$$
