AV-unprocessed.smi:977|AV-procd|sdf|4306|dock2
  -GOLD-   22720 2213D 1   1.00000     0.00000
 Structure written by MMmdl.
 37 38  0  0  0  0  0  0  0  0  1 V2000
  152.9421  138.3771  155.4564 C   0  0  0  0  0  0  0  0  0  0  0  0
  151.7000  139.1350  155.0774 C   0  0  0  0  0  0  0  0  0  0  0  0
  151.6574  140.4445  155.2758 N   0  0  0  0  0  0  0  0  0  0  0  0
  150.3721  140.8673  154.9026 O   0  0  0  0  0  0  0  0  0  0  0  0
  149.6596  139.7897  154.4813 C   0  0  0  0  0  0  0  0  0  0  0  0
  148.2511  140.0322  154.0550 C   0  0  0  0  0  0  0  0  0  0  0  0
  150.4568  138.6854  154.5435 C   0  0  0  0  0  0  0  0  0  0  0  0
  150.0477  137.3712  154.2067 N   0  0  0  0  0  0  0  0  0  0  0  0
  150.0261  136.3075  155.0237 C   0  0  0  0  0  0  0  0  0  0  0  0
  150.4262  136.3098  156.1877 O   0  0  0  0  0  0  0  0  0  0  0  0
  149.5309  135.2251  154.4065 N   0  0  0  0  0  0  0  0  0  0  0  0
  149.3639  133.9061  155.0137 C   0  0  2  0  0  0  0  0  0  0  0  0
  150.6233  133.5846  155.8335 C   0  0  0  0  0  0  0  0  0  0  0  0
  149.0877  132.8468  153.9238 C   0  0  1  0  0  0  0  0  0  0  0  0
  148.7285  131.4598  154.4673 C   0  0  0  0  0  0  0  0  0  0  0  0
  147.8546  130.9009  153.3685 C   0  0  0  0  0  0  0  0  0  0  0  0
  147.0698  132.1387  152.9558 C   0  0  0  0  0  0  0  0  0  0  0  0
  147.9741  133.2261  153.1127 O   0  0  0  0  0  0  0  0  0  0  0  0
  152.7004  137.3742  155.8089 H   0  0  0  0  0  0  0  0  0  0  0  0
  153.4875  138.8787  156.2563 H   0  0  0  0  0  0  0  0  0  0  0  0
  153.6172  138.2810  154.6060 H   0  0  0  0  0  0  0  0  0  0  0  0
  147.7206  139.0929  153.8984 H   0  0  0  0  0  0  0  0  0  0  0  0
  148.2235  140.5956  153.1225 H   0  0  0  0  0  0  0  0  0  0  0  0
  147.7109  140.6021  154.8112 H   0  0  0  0  0  0  0  0  0  0  0  0
  149.8215  137.2091  153.2364 H   0  0  0  0  0  0  0  0  0  0  0  0
  149.2324  135.3220  153.4471 H   0  0  0  0  0  0  0  0  0  0  0  0
  148.5179  133.9305  155.7030 H   0  0  0  0  0  0  0  0  0  0  0  0
  150.5249  132.6350  156.3595 H   0  0  0  0  0  0  0  0  0  0  0  0
  150.8082  134.3528  156.5852 H   0  0  0  0  0  0  0  0  0  0  0  0
  151.5063  133.5223  155.1967 H   0  0  0  0  0  0  0  0  0  0  0  0
  149.9508  132.7554  153.2622 H   0  0  0  0  0  0  0  0  0  0  0  0
  149.6042  130.8428  154.6703 H   0  0  0  0  0  0  0  0  0  0  0  0
  148.1499  131.5441  155.3885 H   0  0  0  0  0  0  0  0  0  0  0  0
  148.4694  130.5473  152.5397 H   0  0  0  0  0  0  0  0  0  0  0  0
  147.2162  130.0818  153.7002 H   0  0  0  0  0  0  0  0  0  0  0  0
  146.6901  132.0767  151.9359 H   0  0  0  0  0  0  0  0  0  0  0  0
  146.2232  132.2929  153.6257 H   0  0  0  0  0  0  0  0  0  0  0  0
  1  2  1  0  0  0  0
  1 19  1  0  0  0  0
  1 20  1  0  0  0  0
  1 21  1  0  0  0  0
  2  7  1  0  0  0  0
  2  3  2  0  0  0  0
  3  4  1  0  0  0  0
  4  5  1  0  0  0  0
  5  6  1  0  0  0  0
  5  7  2  0  0  0  0
  6 22  1  0  0  0  0
  6 23  1  0  0  0  0
  6 24  1  0  0  0  0
  7  8  1  0  0  0  0
  8  9  1  0  0  0  0
  8 25  1  0  0  0  0
  9 10  2  0  0  0  0
  9 11  1  0  0  0  0
 11 12  1  0  0  0  0
 11 26  1  0  0  0  0
 12 13  1  0  0  0  0
 12 14  1  0  0  0  0
 12 27  1  0  0  0  0
 13 28  1  0  0  0  0
 13 29  1  0  0  0  0
 13 30  1  0  0  0  0
 14 18  1  0  0  0  0
 14 15  1  0  0  0  0
 14 31  1  0  0  0  0
 15 16  1  0  0  0  0
 15 32  1  0  0  0  0
 15 33  1  0  0  0  0
 16 17  1  0  0  0  0
 16 34  1  0  0  0  0
 16 35  1  0  0  0  0
 17 18  1  0  0  0  0
 17 36  1  0  0  0  0
 17 37  1  0  0  0  0
M  END
> <s_m_source_file>
AV-unprocessed.smi

> <i_m_source_file_index>
977

> <i_lp_mmshare_version>
43012

> <i_f3d_flags>
0

> <s_epik_input>
W0NIM11jMW5vYyhbQ0gzXSljMVtOSF1DKD1PKVtOSF1bQ0BIXShbQ0gzXSlbQ0BASF0yW0NIMl1bQ0gyXVtDSDJdTzI=

> <s_epik_cmdline>
J2VwaWtfcHl0aG9uJywgJy1waCcsICc3LjAnLCAnLXRuJywgJzgnLCAnLW1hJywgJzIwMCcsICctbWV0YWxfYmluZGluZycsICctaW1hZScsICc8aW5maWxlLm1hZT4nLCAnLW9tYWUnLCAnPG91dGZpbGUubWFlPic=

> <r_lp_tautomer_probability>
1

> <r_epik_Ionization_Penalty>
3.41601e-05

> <r_epik_Ionization_Penalty_Charging>
0

> <r_epik_Ionization_Penalty_Neutral>
3.41601e-05

> <r_epik_State_Penalty>
-0

> <r_epik_Charging_Adjusted_Penalty>
0

> <i_epik_Tot_Q>
0

> <i_epik_Tot_abs_Q>
0

> <r_epik_Metal_State_Penalty>
-0

> <b_epik_Metal_Only>
0

> <s_lp_Force_Field>
OPLS_2005

> <r_lp_Energy>
19.7512

> <b_lp_Chiralities_Consistent>
1

> <s_lp_Variant>
AV-unprocessed.smi:977-3

> <Gold.Version>
5.8.1

> <Gold.Id.Protein>
6NUR|6NUR_protein|mol2

> <Gold.PLP.Fitness>
37.3386

> <Gold.PLP.PLP>
-32.5599

> <Gold.PLP.part.hbond>
-4.3364

> <Gold.PLP.part.metal>
0.0000

> <Gold.PLP.part.buried>
-1.7681

> <Gold.PLP.part.nonpolar>
-25.5985

> <Gold.PLP.part.repulsive>
0.4121

> <Gold.PLP.ligand.clash>
0.0000

> <Gold.PLP.ligand.torsion>
0.7732

> <Gold.PLP.Chemscore.Hbond>
2.0000

> <Gold.PLP.Chemscore.CHOScore>
0.0000

> <Gold.PLP.Chemscore.Metal>
0.0000

> <Gold.Chemscore.Hbonds>
donor molecule, donor type, donor heavy atom, donor atom, acceptor molecule, acceptor atom, score
      L1  H     8    25       P1  7948  1.00
      L1  H    11    26       P1  7948  1.00

> <Gold.PLP.Chemscore.Internal.Correction>
0.3251

> <Gold.Rescore>
     Score         DG    S(hbond)    S(metal)    S(lipo)     H(rot)  DE(clash)    DE(int)     intcor
     13.56     -15.44       1.64        0.00      64.91       1.22       0.01       1.87       ----

> <Gold.Chemscore.Fitness>
13.5649

> <Gold.Chemscore.DG>
-15.4433

> <Gold.Chemscore.ZeroCoef>
-5.4800

> <Gold.Chemscore.Hbond>
1.6442

> <Gold.Chemscore.Metal>
0.0000

> <Gold.Chemscore.Lipo>
64.9123

> <Gold.Chemscore.Internal_Hbond>
0.0000

> <Gold.Chemscore.DEClash>
0.0050

> <Gold.Chemscore.DEInternal>
1.8734

> <Gold.Chemscore.Rot>
1.2200

> <Gold.Chemscore.Internal.Correction>
   9.000000E+99

> <Gold.Chemscore.Hbonds>
donor molecule, donor type, donor heavy atom, donor atom, acceptor molecule, acceptor atom, score
      L1  H     8    25       P1  7948  0.43
      L1  H    11    26       P1  7948  0.25

> <Gold.Chemscore.Hbond.Weighted>
-5.4917

> <Gold.Chemscore.Metal.Weighted>
-0.0000

> <Gold.Chemscore.Lipo.Weighted>
-7.5947

> <Gold.Chemscore.Internal_Hbond.Weighted>
0.0000

> <Gold.Chemscore.DEClash.Weighted>
0.0050

> <Gold.Chemscore.DEInternal.Weighted>
1.8734

> <Gold.Chemscore.Rot.Weighted>
3.1232

> <Gold.Chemscore.Internal.Correction.Weighted>
   9.000000E+99

> <Gold.Protein.RotatedTorsions>
[ 6907 6896 6895 6894 ] final  -85.69 input  -60.11 | X-H torsion
[ 7974 7965 7964 7962 ] final -146.61 input  175.53 | X-H torsion
[ 8008 7997 7996 7995 ] final -101.64 input   59.86 | X-H torsion
[ 10167 10162 10161 10158 ] final  118.69 input  -65.29 | X-H torsion
[ 10718 10713 10712 10709 ] final  -45.12 input   66.30 | X-H torsion
[ 10763 10752 10751 10750 ] final   42.99 input  -60.55 | X-H torsion
[ 11005 11000 10999 10996 ] final  165.76 input  -57.11 | X-H torsion

> <Gold.Protein.ActiveResidues>
 VAL166  LYS551  ARG553  GLY616  TRP617  ASP618  TYR619  PRO620  LYS621  CYS622 
 ASP623  PHE694  ASN695  SER759  ASP760  ASP761  ALA762  ILE779  LEU786  VAL792 
 PHE793  MET794  SER795  GLU796  ALA797  LYS798  CYS799  TRP800  GLU811  SER814 

> <Gold.Protein.RotatedAtoms>
  150.6869  134.3166  159.4768 H   0  0  0  0  0  0  0  0  0  0  0  0  # atno 6907 bound_to 6896
  152.1046  134.9315  160.0578 H   0  0  0  0  0  0  0  0  0  0  0  0  # atno 6908 bound_to 6896
  152.0581  133.4014  159.4443 H   0  0  0  0  0  0  0  0  0  0  0  0  # atno 6909 bound_to 6896
  144.8148  140.5434  143.5618 H   0  0  0  0  0  0  0  0  0  0  0  0  # atno 7974 bound_to 7965
  154.8455  140.0433  157.1569 H   0  0  0  0  0  0  0  0  0  0  0  0  # atno 8008 bound_to 7997
  154.9000  140.2999  155.5302 H   0  0  0  0  0  0  0  0  0  0  0  0  # atno 8009 bound_to 7997
  156.2994  140.2377  156.4027 H   0  0  0  0  0  0  0  0  0  0  0  0  # atno 8010 bound_to 7997
  139.6095  144.7078  151.2877 H   0  0  0  0  0  0  0  0  0  0  0  0  # atno 10167 bound_to 10162
  156.2315  130.4173  149.8869 H   0  0  0  0  0  0  0  0  0  0  0  0  # atno 10718 bound_to 10713
  152.9870  135.6115  154.3038 H   0  0  0  0  0  0  0  0  0  0  0  0  # atno 10763 bound_to 10752
  154.2757  135.2778  155.2720 H   0  0  0  0  0  0  0  0  0  0  0  0  # atno 10764 bound_to 10752
  154.5082  135.5848  153.6641 H   0  0  0  0  0  0  0  0  0  0  0  0  # atno 10765 bound_to 10752
  140.2594  134.7914  157.3576 H   0  0  0  0  0  0  0  0  0  0  0  0  # atno 11005 bound_to 11000
  145.5240  139.1476  143.3537 LP  0  0  0  0  0  0  0  0  0  0  0  0  # atno 17320 bound_to 7965
  146.2450  140.5380  142.8917 LP  0  0  0  0  0  0  0  0  0  0  0  0  # atno 17321 bound_to 7965
  140.7309  143.6867  150.7955 LP  0  0  0  0  0  0  0  0  0  0  0  0  # atno 17342 bound_to 10162
  140.0459  143.5298  152.2696 LP  0  0  0  0  0  0  0  0  0  0  0  0  # atno 17343 bound_to 10162
  156.6481  130.8732  151.3526 LP  0  0  0  0  0  0  0  0  0  0  0  0  # atno 17370 bound_to 10713
  157.7135  130.9469  150.1172 LP  0  0  0  0  0  0  0  0  0  0  0  0  # atno 17371 bound_to 10713
  140.1479  134.4887  155.7982 LP  0  0  0  0  0  0  0  0  0  0  0  0  # atno 17394 bound_to 11000
  141.2192  133.6851  156.7327 LP  0  0  0  0  0  0  0  0  0  0  0  0  # atno 17395 bound_to 11000

$$$$
