AV-unprocessed.smi:1439|AV-procd|sdf|5872|dock8
  -GOLD-   22720 5553D 1   1.00000     0.00000
 Structure written by MMmdl.
 35 36  0  0  0  0  0  0  0  0  2 V2000
  150.0667  132.6791  155.5600 N   0  0  0  0  0  0  0  0  0  0  0  0
  150.0399  133.8846  156.1371 C   0  0  0  0  0  0  0  0  0  0  0  0
  150.4382  134.0642  157.2862 O   0  0  0  0  0  0  0  0  0  0  0  0
  149.5188  135.0651  155.3080 C   0  0  0  0  0  0  0  0  0  0  0  0
  150.2893  136.3258  155.5863 C   0  0  0  0  0  0  0  0  0  0  0  0
  150.9470  137.1056  154.6699 C   0  0  0  0  0  0  0  0  0  0  0  0
  151.7030  138.4819  155.4195 S   0  0  0  0  0  0  0  0  0  0  0  0
  151.0935  137.9492  156.9871 C   0  0  0  0  0  0  0  0  0  0  0  0
  151.3054  138.5856  158.1493 N   0  5  0  0  0  0  0  0  0  0  0  0
  152.3733  139.4097  158.2739 C   0  0  0  0  0  0  0  0  0  0  0  0
  153.4985  139.2909  157.7854 O   0  0  0  0  0  0  0  0  0  0  0  0
  152.0610  140.6270  159.1543 C   0  0  0  0  0  0  0  0  0  0  0  0
  151.9201  141.9198  158.3310 C   0  0  0  0  0  0  0  0  0  0  0  0
  152.2509  143.1796  159.1444 C   0  0  1  0  0  0  0  0  0  0  0  0
  152.1628  144.4744  158.3400 C   0  0  0  0  0  0  0  0  0  0  0  0
  151.9732  145.4968  159.4370 C   0  0  0  0  0  0  0  0  0  0  0  0
  151.0738  144.7486  160.4188 C   0  0  0  0  0  0  0  0  0  0  0  0
  151.3220  143.3599  160.2098 O   0  0  0  0  0  0  0  0  0  0  0  0
  150.3969  136.8113  156.8931 N   0  0  0  0  0  0  0  0  0  0  0  0
  150.3764  131.8767  156.0885 H   0  0  0  0  0  0  0  0  0  0  0  0
  149.7494  132.5710  154.6074 H   0  0  0  0  0  0  0  0  0  0  0  0
  149.5774  134.8127  154.2485 H   0  0  0  0  0  0  0  0  0  0  0  0
  148.4607  135.2044  155.5314 H   0  0  0  0  0  0  0  0  0  0  0  0
  151.0297  136.9575  153.6038 H   0  0  0  0  0  0  0  0  0  0  0  0
  151.1334  140.4268  159.6916 H   0  0  0  0  0  0  0  0  0  0  0  0
  152.8312  140.7672  159.9154 H   0  0  0  0  0  0  0  0  0  0  0  0
  152.5877  141.8705  157.4694 H   0  0  0  0  0  0  0  0  0  0  0  0
  150.9079  142.0014  157.9323 H   0  0  0  0  0  0  0  0  0  0  0  0
  153.2497  143.0978  159.5765 H   0  0  0  0  0  0  0  0  0  0  0  0
  153.0479  144.6586  157.7305 H   0  0  0  0  0  0  0  0  0  0  0  0
  151.2904  144.4634  157.6849 H   0  0  0  0  0  0  0  0  0  0  0  0
  152.9324  145.7233  159.9045 H   0  0  0  0  0  0  0  0  0  0  0  0
  151.5356  146.4310  159.0839 H   0  0  0  0  0  0  0  0  0  0  0  0
  151.2685  145.0344  161.4528 H   0  0  0  0  0  0  0  0  0  0  0  0
  150.0231  144.9471  160.2049 H   0  0  0  0  0  0  0  0  0  0  0  0
  1  2  1  0  0  0  0
  1 20  1  0  0  0  0
  1 21  1  0  0  0  0
  2  3  2  0  0  0  0
  2  4  1  0  0  0  0
  4  5  1  0  0  0  0
  4 22  1  0  0  0  0
  4 23  1  0  0  0  0
  5 19  1  0  0  0  0
  5  6  2  0  0  0  0
  6  7  1  0  0  0  0
  6 24  1  0  0  0  0
  7  8  1  0  0  0  0
  8  9  1  0  0  0  0
  8 19  2  0  0  0  0
  9 10  1  0  0  0  0
 10 11  2  0  0  0  0
 10 12  1  0  0  0  0
 12 13  1  0  0  0  0
 12 25  1  0  0  0  0
 12 26  1  0  0  0  0
 13 14  1  0  0  0  0
 13 27  1  0  0  0  0
 13 28  1  0  0  0  0
 14 18  1  0  0  0  0
 14 15  1  0  0  0  0
 14 29  1  0  0  0  0
 15 16  1  0  0  0  0
 15 30  1  0  0  0  0
 15 31  1  0  0  0  0
 16 17  1  0  0  0  0
 16 32  1  0  0  0  0
 16 33  1  0  0  0  0
 17 18  1  0  0  0  0
 17 34  1  0  0  0  0
 17 35  1  0  0  0  0
M  CHG  1   9  -1
M  END
> <s_m_source_file>
AV-unprocessed.smi

> <i_m_source_file_index>
1439

> <i_lp_mmshare_version>
43012

> <i_f3d_flags>
0

> <s_epik_input>
W05IMl1DKD1PKVtDSDJdYzFbY0hdc2MobjEpW05IXUMoPU8pW0NIMl1bQ0gyXVtDQEBIXTJbQ0gyXVtDSDJdW0NIMl1PMg==

> <s_epik_cmdline>
J2VwaWtfcHl0aG9uJywgJy1waCcsICc3LjAnLCAnLXRuJywgJzgnLCAnLW1hJywgJzIwMCcsICctbWV0YWxfYmluZGluZycsICctaW1hZScsICc8aW5maWxlLm1hZT4nLCAnLW9tYWUnLCAnPG91dGZpbGUubWFlPic=

> <r_lp_tautomer_probability>
1

> <r_epik_Ionization_Penalty>
4.85214

> <r_epik_Ionization_Penalty_Charging>
4.5239

> <r_epik_Ionization_Penalty_Neutral>
0.32824

> <r_epik_State_Penalty>
4.52362

> <r_epik_Charging_Adjusted_Penalty>
9.04752

> <i_epik_Tot_Q>
-1

> <i_epik_Tot_abs_Q>
1

> <r_epik_Metal_State_Penalty>
0.831335

> <b_epik_Metal_Only>
1

> <s_lp_Force_Field>
OPLS_2005

> <r_lp_Energy>
13.9468

> <b_lp_Chiralities_Consistent>
1

> <s_lp_Variant>
AV-unprocessed.smi:1439-4

> <Gold.Version>
5.8.1

> <Gold.Id.Protein>
6NUR|6NUR_protein|mol2

> <Gold.PLP.Fitness>
41.5246

> <Gold.PLP.PLP>
-35.1513

> <Gold.PLP.part.hbond>
-2.4280

> <Gold.PLP.part.metal>
0.0000

> <Gold.PLP.part.buried>
-5.7435

> <Gold.PLP.part.nonpolar>
-28.2306

> <Gold.PLP.part.repulsive>
0.0839

> <Gold.PLP.ligand.clash>
0.0000

> <Gold.PLP.ligand.torsion>
1.0291

> <Gold.PLP.Chemscore.Hbond>
1.7200

> <Gold.PLP.Chemscore.CHOScore>
1.0297

> <Gold.PLP.Chemscore.Metal>
0.0000

> <Gold.Chemscore.Hbonds>
donor molecule, donor type, donor heavy atom, donor atom, acceptor molecule, acceptor atom, score
      P1  H  6896  6909       L1     3  0.72
      P1  H  7997  8010       L1    11  1.00
      L1  C     6    24       P1  7948  0.05
      L1  C     6    24       P1  7949  1.00

> <Gold.PLP.Chemscore.Internal.Correction>
0.1825

> <Gold.Rescore>
     Score         DG    S(hbond)    S(metal)    S(lipo)     H(rot)  DE(clash)    DE(int)     intcor
     13.15     -15.66       1.93        0.00      86.95       2.51       0.01       2.50       ----

> <Gold.Chemscore.Fitness>
13.1459

> <Gold.Chemscore.DG>
-15.6586

> <Gold.Chemscore.ZeroCoef>
-5.4800

> <Gold.Chemscore.Hbond>
1.9259

> <Gold.Chemscore.Metal>
0.0000

> <Gold.Chemscore.Lipo>
86.9461

> <Gold.Chemscore.Internal_Hbond>
0.0000

> <Gold.Chemscore.DEClash>
0.0137

> <Gold.Chemscore.DEInternal>
2.4990

> <Gold.Chemscore.Rot>
2.5103

> <Gold.Chemscore.Internal.Correction>
   9.000000E+99

> <Gold.Chemscore.Hbonds>
donor molecule, donor type, donor heavy atom, donor atom, acceptor molecule, acceptor atom, score
      P1  H  6896  6909       L1     3  0.69
      P1  H  7997  8010       L1    11  0.95

> <Gold.Chemscore.Hbond.Weighted>
-6.4323

> <Gold.Chemscore.Metal.Weighted>
-0.0000

> <Gold.Chemscore.Lipo.Weighted>
-10.1727

> <Gold.Chemscore.Internal_Hbond.Weighted>
0.0000

> <Gold.Chemscore.DEClash.Weighted>
0.0137

> <Gold.Chemscore.DEInternal.Weighted>
2.4990

> <Gold.Chemscore.Rot.Weighted>
6.4264

> <Gold.Chemscore.Internal.Correction.Weighted>
   9.000000E+99

> <Gold.Protein.RotatedTorsions>
[ 6907 6896 6895 6894 ] final    4.13 input  -60.11 | X-H torsion
[ 7974 7965 7964 7962 ] final   85.18 input  175.53 | X-H torsion
[ 8008 7997 7996 7995 ] final   55.84 input   59.86 | X-H torsion
[ 10167 10162 10161 10158 ] final -156.16 input  -65.29 | X-H torsion
[ 10718 10713 10712 10709 ] final    9.49 input   66.30 | X-H torsion
[ 10763 10752 10751 10750 ] final  101.98 input  -60.55 | X-H torsion
[ 11005 11000 10999 10996 ] final  115.34 input  -57.11 | X-H torsion

> <Gold.Protein.ActiveResidues>
 VAL166  LYS551  ARG553  GLY616  TRP617  ASP618  TYR619  PRO620  LYS621  CYS622 
 ASP623  PHE694  ASN695  SER759  ASP760  ASP761  ALA762  ILE779  LEU786  VAL792 
 PHE793  MET794  SER795  GLU796  ALA797  LYS798  CYS799  TRP800  GLU811  SER814 

> <Gold.Protein.RotatedAtoms>
  151.6363  135.1017  160.0131 H   0  0  0  0  0  0  0  0  0  0  0  0  # atno 6907 bound_to 6896
  152.4079  133.6913  159.6380 H   0  0  0  0  0  0  0  0  0  0  0  0  # atno 6908 bound_to 6896
  150.7972  133.8593  159.3268 H   0  0  0  0  0  0  0  0  0  0  0  0  # atno 6909 bound_to 6896
  145.5889  139.2335  143.2310 H   0  0  0  0  0  0  0  0  0  0  0  0  # atno 7974 bound_to 7965
  155.5077  140.3476  155.4382 H   0  0  0  0  0  0  0  0  0  0  0  0  # atno 8008 bound_to 7997
  156.0870  140.1401  156.9667 H   0  0  0  0  0  0  0  0  0  0  0  0  # atno 8009 bound_to 7997
  154.4613  140.0934  156.6876 H   0  0  0  0  0  0  0  0  0  0  0  0  # atno 8010 bound_to 7997
  139.6872  143.9480  152.2367 H   0  0  0  0  0  0  0  0  0  0  0  0  # atno 10167 bound_to 10162
  156.9671  130.5955  149.5666 H   0  0  0  0  0  0  0  0  0  0  0  0  # atno 10718 bound_to 10713
  153.3337  135.4026  155.1516 H   0  0  0  0  0  0  0  0  0  0  0  0  # atno 10763 bound_to 10752
  154.8628  135.3616  154.5437 H   0  0  0  0  0  0  0  0  0  0  0  0  # atno 10764 bound_to 10752
  153.5877  135.7075  153.5495 H   0  0  0  0  0  0  0  0  0  0  0  0  # atno 10765 bound_to 10752
  139.9007  134.9582  156.7031 H   0  0  0  0  0  0  0  0  0  0  0  0  # atno 11005 bound_to 11000
  146.1661  140.6715  142.9255 LP  0  0  0  0  0  0  0  0  0  0  0  0  # atno 17320 bound_to 7965
  144.7360  140.4810  143.6903 LP  0  0  0  0  0  0  0  0  0  0  0  0  # atno 17321 bound_to 7965
  139.9287  144.6755  150.8386 LP  0  0  0  0  0  0  0  0  0  0  0  0  # atno 17342 bound_to 10162
  140.7671  143.3324  151.2382 LP  0  0  0  0  0  0  0  0  0  0  0  0  # atno 17343 bound_to 10162
  156.0298  130.5390  150.8503 LP  0  0  0  0  0  0  0  0  0  0  0  0  # atno 17370 bound_to 10713
  157.5618  131.0946  150.9548 LP  0  0  0  0  0  0  0  0  0  0  0  0  # atno 17371 bound_to 10713
  140.7135  133.9203  155.8100 LP  0  0  0  0  0  0  0  0  0  0  0  0  # atno 17394 bound_to 11000
  141.0282  134.0793  157.4044 LP  0  0  0  0  0  0  0  0  0  0  0  0  # atno 17395 bound_to 11000

$$$$
