AV-unprocessed.smi:2049|AV-procd|sdf|8322|dock10
  -GOLD-   2272010583D 1   1.00000     0.00000
 Structure written by MMmdl.
 51 53  0  0  0  0  0  0  0  0  2 V2000
  149.7303  135.9649  158.9804 O   0  0  0  0  0  0  0  0  0  0  0  0
  149.0382  136.9769  159.0851 C   0  0  0  0  0  0  0  0  0  0  0  0
  147.7273  136.9368  159.8769 C   0  0  0  0  0  0  0  0  0  0  0  0
  147.6144  135.6960  160.6590 N   0  0  0  0  0  0  0  0  0  0  0  0
  147.4627  135.8126  162.0510 C   0  0  0  0  0  0  0  0  0  0  0  0
  147.3728  134.7226  162.8266 C   0  0  0  0  0  0  0  0  0  0  0  0
  147.4420  133.4253  162.1410 C   0  0  0  0  0  0  0  0  0  0  0  0
  147.5813  133.3156  160.8724 N   0  0  0  0  0  0  0  0  0  0  0  0
  147.6761  134.4610  160.0604 C   0  0  0  0  0  0  0  0  0  0  0  0
  147.8161  134.3624  158.8406 O   0  0  0  0  0  0  0  0  0  0  0  0
  149.3498  138.1519  158.5199 N   0  0  0  0  0  0  0  0  0  0  0  0
  150.4640  138.3906  157.6049 C   0  0  0  0  0  0  0  0  0  0  0  0
  150.6428  139.9014  157.2278 C   0  0  0  0  0  0  0  0  0  0  0  0
  151.4021  140.5878  158.3449 N   0  3  0  0  0  0  0  0  0  0  0  0
  152.6938  139.9423  158.7183 C   0  0  0  0  0  0  0  0  0  0  0  0
  153.2736  140.5765  159.9904 C   0  0  0  0  0  0  0  0  0  0  0  0
  153.4850  141.9608  159.7611 O   0  0  0  0  0  0  0  0  0  0  0  0
  152.2634  142.6343  159.4989 C   0  0  0  0  0  0  0  0  0  0  0  0
  151.5944  142.0633  158.2348 C   0  0  0  0  0  0  0  0  0  0  0  0
  151.4061  140.0092  155.8739 C   0  0  0  0  0  0  0  0  0  0  0  0
  150.6211  139.4408  154.6748 C   0  0  0  0  0  0  0  0  0  0  0  0
  149.2401  140.0947  154.5327 C   0  0  0  0  0  0  0  0  0  0  0  0
  148.4366  139.9915  155.8357 C   0  0  0  0  0  0  0  0  0  0  0  0
  149.2411  140.5653  157.0166 C   0  0  0  0  0  0  0  0  0  0  0  0
  147.6902  137.8138  160.5248 H   0  0  0  0  0  0  0  0  0  0  0  0
  146.8712  137.0351  159.2063 H   0  0  0  0  0  0  0  0  0  0  0  0
  147.4321  136.8215  162.4359 H   0  0  0  0  0  0  0  0  0  0  0  0
  147.2591  134.7406  163.9005 H   0  0  0  0  0  0  0  0  0  0  0  0
  147.3668  132.5491  162.7903 H   0  0  0  0  0  0  0  0  0  0  0  0
  148.7322  138.9313  158.6941 H   0  0  0  0  0  0  0  0  0  0  0  0
  151.3599  138.0189  158.1007 H   0  0  0  0  0  0  0  0  0  0  0  0
  150.3691  137.7492  156.7304 H   0  0  0  0  0  0  0  0  0  0  0  0
  152.5710  138.8756  158.8956 H   0  0  0  0  0  0  0  0  0  0  0  0
  153.4182  140.0525  157.9107 H   0  0  0  0  0  0  0  0  0  0  0  0
  152.6103  140.4245  160.8437 H   0  0  0  0  0  0  0  0  0  0  0  0
  154.2277  140.1119  160.2402 H   0  0  0  0  0  0  0  0  0  0  0  0
  151.6004  142.5503  160.3611 H   0  0  0  0  0  0  0  0  0  0  0  0
  152.4697  143.6964  159.3649 H   0  0  0  0  0  0  0  0  0  0  0  0
  152.1942  142.2989  157.3553 H   0  0  0  0  0  0  0  0  0  0  0  0
  150.6448  142.5855  158.1389 H   0  0  0  0  0  0  0  0  0  0  0  0
  151.6428  141.0527  155.6646 H   0  0  0  0  0  0  0  0  0  0  0  0
  152.3618  139.4876  155.9241 H   0  0  0  0  0  0  0  0  0  0  0  0
  151.1920  139.5958  153.7586 H   0  0  0  0  0  0  0  0  0  0  0  0
  150.5081  138.3615  154.7769 H   0  0  0  0  0  0  0  0  0  0  0  0
  149.3630  141.1449  154.2648 H   0  0  0  0  0  0  0  0  0  0  0  0
  148.6883  139.6304  153.7149 H   0  0  0  0  0  0  0  0  0  0  0  0
  147.5040  140.5465  155.7290 H   0  0  0  0  0  0  0  0  0  0  0  0
  148.1422  138.9594  156.0195 H   0  0  0  0  0  0  0  0  0  0  0  0
  148.6477  140.5280  157.9298 H   0  0  0  0  0  0  0  0  0  0  0  0
  149.3543  141.6210  156.7761 H   0  0  0  0  0  0  0  0  0  0  0  0
  150.8054  140.4751  159.1524 H   0  0  0  0  0  0  0  0  0  0  0  0
  1  2  2  0  0  0  0
  2  3  1  0  0  0  0
  2 11  1  0  0  0  0
  3  4  1  0  0  0  0
  3 25  1  0  0  0  0
  3 26  1  0  0  0  0
  4  9  1  0  0  0  0
  4  5  1  0  0  0  0
  5  6  2  0  0  0  0
  5 27  1  0  0  0  0
  6  7  1  0  0  0  0
  6 28  1  0  0  0  0
  7  8  2  0  0  0  0
  7 29  1  0  0  0  0
  8  9  1  0  0  0  0
  9 10  2  0  0  0  0
 11 12  1  0  0  0  0
 11 30  1  0  0  0  0
 12 13  1  0  0  0  0
 12 31  1  0  0  0  0
 12 32  1  0  0  0  0
 13 24  1  0  0  0  0
 13 14  1  0  0  0  0
 13 20  1  0  0  0  0
 14 19  1  0  0  0  0
 14 15  1  0  0  0  0
 14 51  1  0  0  0  0
 15 16  1  0  0  0  0
 15 33  1  0  0  0  0
 15 34  1  0  0  0  0
 16 17  1  0  0  0  0
 16 35  1  0  0  0  0
 16 36  1  0  0  0  0
 17 18  1  0  0  0  0
 18 19  1  0  0  0  0
 18 37  1  0  0  0  0
 18 38  1  0  0  0  0
 19 39  1  0  0  0  0
 19 40  1  0  0  0  0
 20 21  1  0  0  0  0
 20 41  1  0  0  0  0
 20 42  1  0  0  0  0
 21 22  1  0  0  0  0
 21 43  1  0  0  0  0
 21 44  1  0  0  0  0
 22 23  1  0  0  0  0
 22 45  1  0  0  0  0
 22 46  1  0  0  0  0
 23 24  1  0  0  0  0
 23 47  1  0  0  0  0
 23 48  1  0  0  0  0
 24 49  1  0  0  0  0
 24 50  1  0  0  0  0
M  CHG  1  14   1
M  END
> <s_m_source_file>
AV-unprocessed.smi

> <i_m_source_file_index>
2049

> <i_lp_mmshare_version>
43012

> <i_f3d_flags>
0

> <s_epik_input>
Tz1jMW5bY0hdW2NIXVtjSF1uMVtDSDJdQyg9TylbTkhdW0NIMl1DMihbQ0gyXVtDSDJdW0NIMl1bQ0gyXVtDSDJdMilOM1tDSDJdW0NIMl1PW0NIMl1bQ0gyXTM=

> <s_epik_cmdline>
J2VwaWtfcHl0aG9uJywgJy1waCcsICc3LjAnLCAnLXRuJywgJzgnLCAnLW1hJywgJzIwMCcsICctbWV0YWxfYmluZGluZycsICctaW1hZScsICc8aW5maWxlLm1hZT4nLCAnLW9tYWUnLCAnPG91dGZpbGUubWFlPic=

> <r_lp_tautomer_probability>
1

> <r_epik_Ionization_Penalty>
0.40042

> <r_epik_Ionization_Penalty_Charging>
0.400415

> <r_epik_Ionization_Penalty_Neutral>
5.09538e-06

> <r_epik_State_Penalty>
0.399732

> <r_epik_Charging_Adjusted_Penalty>
0.800147

> <i_epik_Tot_Q>
1

> <i_epik_Tot_abs_Q>
1

> <r_epik_Metal_State_Penalty>
0.399734

> <b_epik_Metal_Only>
0

> <s_lp_Force_Field>
OPLS_2005

> <r_lp_Energy>
43.1449

> <b_lp_Chiralities_Consistent>
1

> <s_lp_Variant>
AV-unprocessed.smi:2049-1

> <Gold.Version>
5.8.1

> <Gold.Id.Protein>
6NUR|6NUR_protein|mol2

> <Gold.PLP.Fitness>
43.9178

> <Gold.PLP.PLP>
-41.8078

> <Gold.PLP.part.hbond>
-1.0000

> <Gold.PLP.part.metal>
0.0000

> <Gold.PLP.part.buried>
-5.0663

> <Gold.PLP.part.nonpolar>
-36.4235

> <Gold.PLP.part.repulsive>
0.2932

> <Gold.PLP.ligand.clash>
0.0000

> <Gold.PLP.ligand.torsion>
0.5068

> <Gold.PLP.Chemscore.Hbond>
1.0000

> <Gold.PLP.Chemscore.CHOScore>
0.0000

> <Gold.PLP.Chemscore.Metal>
0.0000

> <Gold.Chemscore.Hbonds>
donor molecule, donor type, donor heavy atom, donor atom, acceptor molecule, acceptor atom, score
      P1  H  6896  6909       L1     1  1.00

> <Gold.PLP.Chemscore.Internal.Correction>
0.1236

> <Gold.Rescore>
     Score         DG    S(hbond)    S(metal)    S(lipo)     H(rot)  DE(clash)    DE(int)     intcor
     15.03     -15.81       0.99        0.00     104.03       2.02       0.00       0.78       ----

> <Gold.Chemscore.Fitness>
15.0317

> <Gold.Chemscore.DG>
-15.8118

> <Gold.Chemscore.ZeroCoef>
-5.4800

> <Gold.Chemscore.Hbond>
0.9944

> <Gold.Chemscore.Metal>
0.0000

> <Gold.Chemscore.Lipo>
104.0329

> <Gold.Chemscore.Internal_Hbond>
0.0000

> <Gold.Chemscore.DEClash>
0.0009

> <Gold.Chemscore.DEInternal>
0.7792

> <Gold.Chemscore.Rot>
2.0162

> <Gold.Chemscore.Internal.Correction>
   9.000000E+99

> <Gold.Chemscore.Hbonds>
donor molecule, donor type, donor heavy atom, donor atom, acceptor molecule, acceptor atom, score
      P1  H  6896  6909       L1     1  1.00

> <Gold.Chemscore.Hbond.Weighted>
-3.3214

> <Gold.Chemscore.Metal.Weighted>
-0.0000

> <Gold.Chemscore.Lipo.Weighted>
-12.1719

> <Gold.Chemscore.Internal_Hbond.Weighted>
0.0000

> <Gold.Chemscore.DEClash.Weighted>
0.0009

> <Gold.Chemscore.DEInternal.Weighted>
0.7792

> <Gold.Chemscore.Rot.Weighted>
5.1614

> <Gold.Chemscore.Internal.Correction.Weighted>
   9.000000E+99

> <Gold.Protein.RotatedTorsions>
[ 6907 6896 6895 6894 ] final   65.92 input  -60.11 | X-H torsion
[ 7974 7965 7964 7962 ] final  -28.43 input  175.53 | X-H torsion
[ 8008 7997 7996 7995 ] final  -17.45 input   59.86 | X-H torsion
[ 10167 10162 10161 10158 ] final   57.77 input  -65.29 | X-H torsion
[ 10718 10713 10712 10709 ] final -114.27 input   66.30 | X-H torsion
[ 10763 10752 10751 10750 ] final  -67.20 input  -60.55 | X-H torsion
[ 11005 11000 10999 10996 ] final  100.73 input  -57.11 | X-H torsion

> <Gold.Protein.ActiveResidues>
 VAL166  LYS551  ARG553  GLY616  TRP617  ASP618  TYR619  PRO620  LYS621  CYS622 
 ASP623  PHE694  ASN695  SER759  ASP760  ASP761  ALA762  ILE779  LEU786  VAL792 
 PHE793  MET794  SER795  GLU796  ALA797  LYS798  CYS799  TRP800  GLU811  SER814 

> <Gold.Protein.RotatedAtoms>
  152.4443  134.5526  159.9870 H   0  0  0  0  0  0  0  0  0  0  0  0  # atno 6907 bound_to 6896
  151.5615  133.3397  159.2980 H   0  0  0  0  0  0  0  0  0  0  0  0  # atno 6908 bound_to 6896
  150.8356  134.7661  159.6954 H   0  0  0  0  0  0  0  0  0  0  0  0  # atno 6909 bound_to 6896
  146.1289  140.5281  142.8702 H   0  0  0  0  0  0  0  0  0  0  0  0  # atno 7974 bound_to 7965
  154.4978  140.2142  155.9411 H   0  0  0  0  0  0  0  0  0  0  0  0  # atno 8008 bound_to 7997
  156.1393  140.3182  155.8438 H   0  0  0  0  0  0  0  0  0  0  0  0  # atno 8009 bound_to 7997
  155.4150  140.0493  157.3020 H   0  0  0  0  0  0  0  0  0  0  0  0  # atno 8010 bound_to 7997
  140.1944  144.4053  150.6557 H   0  0  0  0  0  0  0  0  0  0  0  0  # atno 10167 bound_to 10162
  156.0819  130.6017  150.8752 H   0  0  0  0  0  0  0  0  0  0  0  0  # atno 10718 bound_to 10713
  154.3710  135.6095  153.5740 H   0  0  0  0  0  0  0  0  0  0  0  0  # atno 10763 bound_to 10752
  152.9790  135.5838  154.4521 H   0  0  0  0  0  0  0  0  0  0  0  0  # atno 10764 bound_to 10752
  154.4275  135.2847  155.1912 H   0  0  0  0  0  0  0  0  0  0  0  0  # atno 10765 bound_to 10752
  139.8771  134.9153  156.4800 H   0  0  0  0  0  0  0  0  0  0  0  0  # atno 11005 bound_to 11000
  144.7670  140.5552  143.6696 LP  0  0  0  0  0  0  0  0  0  0  0  0  # atno 17320 bound_to 7965
  145.5305  139.1475  143.3502 LP  0  0  0  0  0  0  0  0  0  0  0  0  # atno 17321 bound_to 7965
  140.6434  143.2208  151.6240 LP  0  0  0  0  0  0  0  0  0  0  0  0  # atno 17342 bound_to 10162
  139.5243  144.3109  152.0994 LP  0  0  0  0  0  0  0  0  0  0  0  0  # atno 17343 bound_to 10162
  157.5939  131.0943  150.9073 LP  0  0  0  0  0  0  0  0  0  0  0  0  # atno 17370 bound_to 10713
  156.9244  130.5327  149.5279 LP  0  0  0  0  0  0  0  0  0  0  0  0  # atno 17371 bound_to 10713
  140.8734  133.7971  155.9388 LP  0  0  0  0  0  0  0  0  0  0  0  0  # atno 17394 bound_to 11000
  140.8929  134.2473  157.5084 LP  0  0  0  0  0  0  0  0  0  0  0  0  # atno 17395 bound_to 11000

$$$$
