AV-unprocessed.smi:714|AV-procd|sdf|3483|dock9
  -GOLD-   22720 0473D 1   1.00000     0.00000
 Structure written by MMmdl.
 38 39  0  0  0  0  0  0  0  0  1 V2000
  145.8428  143.4875  162.0118 C   0  0  0  0  0  0  0  0  0  0  0  0
  145.7557  144.0039  160.9087 C   0  0  0  0  0  0  0  0  0  0  0  0
  145.6662  144.6221  159.5750 C   0  0  0  0  0  0  0  0  0  0  0  0
  146.4530  143.9122  158.5724 N   0  0  0  0  0  0  0  0  0  0  0  0
  146.5438  142.5759  158.4486 C   0  0  0  0  0  0  0  0  0  0  0  0
  145.9380  141.8113  159.2017 O   0  0  0  0  0  0  0  0  0  0  0  0
  147.4173  142.1422  157.3556 C   0  0  0  0  0  0  0  0  0  0  0  0
  146.9180  141.7112  156.0602 C   0  0  0  0  0  0  0  0  0  0  0  0
  147.7688  141.2795  155.1098 C   0  0  0  0  0  0  0  0  0  0  0  0
  149.2175  141.2348  155.3285 C   0  0  0  0  0  0  0  0  0  0  0  0
  149.9835  140.8036  154.4666 O   0  0  0  0  0  0  0  0  0  0  0  0
  149.6579  141.7050  156.5375 N   0  0  0  0  0  0  0  0  0  0  0  0
  151.1071  141.6834  156.8570 C   0  0  1  0  0  0  0  0  0  0  0  0
  151.7332  143.0910  156.9836 C   0  0  0  0  0  0  0  0  0  0  0  0
  152.1221  143.2733  158.4568 C   0  0  0  0  0  0  0  0  0  0  0  0
  151.9469  141.9646  159.0595 N   0  0  0  0  0  0  0  0  0  0  0  0
  152.3156  141.7354  160.4554 C   0  0  0  0  0  0  0  0  0  0  0  0
  153.6083  140.9113  160.5942 C   0  0  0  0  0  0  0  0  0  0  0  0
  153.3870  139.6794  160.1372 F   0  0  0  0  0  0  0  0  0  0  0  0
  154.6030  141.4505  159.8899 F   0  0  0  0  0  0  0  0  0  0  0  0
  153.9710  140.8305  161.8744 F   0  0  0  0  0  0  0  0  0  0  0  0
  151.3531  141.0871  158.2424 C   0  0  0  0  0  0  0  0  0  0  0  0
  151.0383  139.9335  158.5328 O   0  0  0  0  0  0  0  0  0  0  0  0
  148.7512  142.1198  157.5408 C   0  0  0  0  0  0  0  0  0  0  0  0
  145.9213  143.0340  162.9744 H   0  0  0  0  0  0  0  0  0  0  0  0
  144.6159  144.6841  159.2869 H   0  0  0  0  0  0  0  0  0  0  0  0
  146.0372  145.6439  159.6537 H   0  0  0  0  0  0  0  0  0  0  0  0
  146.9756  144.4807  157.9219 H   0  0  0  0  0  0  0  0  0  0  0  0
  145.8627  141.7235  155.8306 H   0  0  0  0  0  0  0  0  0  0  0  0
  147.3745  140.9600  154.1562 H   0  0  0  0  0  0  0  0  0  0  0  0
  151.6913  141.1135  156.1331 H   0  0  0  0  0  0  0  0  0  0  0  0
  152.6333  143.1362  156.3691 H   0  0  0  0  0  0  0  0  0  0  0  0
  151.0876  143.8955  156.6292 H   0  0  0  0  0  0  0  0  0  0  0  0
  153.1497  143.6227  158.5633 H   0  0  0  0  0  0  0  0  0  0  0  0
  151.4648  143.9915  158.9485 H   0  0  0  0  0  0  0  0  0  0  0  0
  152.4415  142.6988  160.9514 H   0  0  0  0  0  0  0  0  0  0  0  0
  151.4955  141.2346  160.9725 H   0  0  0  0  0  0  0  0  0  0  0  0
  149.2117  142.4012  158.4760 H   0  0  0  0  0  0  0  0  0  0  0  0
  1  2  3  0  0  0  0
  1 25  1  0  0  0  0
  2  3  1  0  0  0  0
  3  4  1  0  0  0  0
  3 26  1  0  0  0  0
  3 27  1  0  0  0  0
  4  5  1  0  0  0  0
  4 28  1  0  0  0  0
  5  6  2  0  0  0  0
  5  7  1  0  0  0  0
  7 24  2  0  0  0  0
  7  8  1  0  0  0  0
  8  9  2  0  0  0  0
  8 29  1  0  0  0  0
  9 10  1  0  0  0  0
  9 30  1  0  0  0  0
 10 11  2  0  0  0  0
 10 12  1  0  0  0  0
 12 13  1  0  0  0  0
 12 24  1  0  0  0  0
 13 22  1  0  0  0  0
 13 14  1  0  0  0  0
 13 31  1  0  0  0  0
 14 15  1  0  0  0  0
 14 32  1  0  0  0  0
 14 33  1  0  0  0  0
 15 16  1  0  0  0  0
 15 34  1  0  0  0  0
 15 35  1  0  0  0  0
 16 17  1  0  0  0  0
 16 22  1  0  0  0  0
 17 18  1  0  0  0  0
 17 36  1  0  0  0  0
 17 37  1  0  0  0  0
 18 19  1  0  0  0  0
 18 20  1  0  0  0  0
 18 21  1  0  0  0  0
 22 23  2  0  0  0  0
 24 38  1  0  0  0  0
M  END
> <s_m_source_file>
AV-unprocessed.smi

> <i_m_source_file_index>
714

> <i_lp_mmshare_version>
43012

> <i_f3d_flags>
0

> <s_epik_input>
W0NIXSNDW0NIMl1bTkhdQyg9TyljMVtjSF1bY0hdYyg9TyluKFtjSF0xKVtDQEBIXTJbQ0gyXVtDSDJdTihDMj1PKVtDSDJdQyhGKShGKUY=

> <s_epik_cmdline>
J2VwaWtfcHl0aG9uJywgJy1waCcsICc3LjAnLCAnLXRuJywgJzgnLCAnLW1hJywgJzIwMCcsICctbWV0YWxfYmluZGluZycsICctaW1hZScsICc8aW5maWxlLm1hZT4nLCAnLW9tYWUnLCAnPG91dGZpbGUubWFlPic=

> <r_lp_tautomer_probability>
1

> <r_epik_Ionization_Penalty>
2.95503e-06

> <r_epik_Ionization_Penalty_Charging>
5.74209e-08

> <r_epik_Ionization_Penalty_Neutral>
2.89761e-06

> <r_epik_State_Penalty>
-0

> <r_epik_Charging_Adjusted_Penalty>
5.74209e-08

> <i_epik_Tot_Q>
0

> <i_epik_Tot_abs_Q>
0

> <r_epik_Metal_State_Penalty>
-0

> <b_epik_Metal_Only>
0

> <s_lp_Force_Field>
OPLS_2005

> <r_lp_Energy>
33.0774

> <b_lp_Chiralities_Consistent>
1

> <s_lp_Variant>
AV-unprocessed.smi:714-2

> <Gold.Version>
5.8.1

> <Gold.Id.Protein>
6NUR|6NUR_protein|mol2

> <Gold.PLP.Fitness>
46.7065

> <Gold.PLP.PLP>
-42.5169

> <Gold.PLP.part.hbond>
-3.0000

> <Gold.PLP.part.metal>
0.0000

> <Gold.PLP.part.buried>
-6.5084

> <Gold.PLP.part.nonpolar>
-32.8279

> <Gold.PLP.part.repulsive>
0.1483

> <Gold.PLP.ligand.clash>
0.0000

> <Gold.PLP.ligand.torsion>
2.0777

> <Gold.PLP.Chemscore.Hbond>
2.7200

> <Gold.PLP.Chemscore.CHOScore>
0.0000

> <Gold.PLP.Chemscore.Metal>
0.0000

> <Gold.Chemscore.Hbonds>
donor molecule, donor type, donor heavy atom, donor atom, acceptor molecule, acceptor atom, score
      L1  H     4    28       P1  8029  1.00
      P1  H  6934  6946       L1     6  1.00
      P1  H  7989  7998       L1    11  0.70

> <Gold.PLP.Chemscore.Internal.Correction>
0.1850

> <Gold.Rescore>
     Score         DG    S(hbond)    S(metal)    S(lipo)     H(rot)  DE(clash)    DE(int)     intcor
     13.94     -18.73       2.47        0.00      77.92       1.61       1.42       3.36       ----

> <Gold.Chemscore.Fitness>
13.9448

> <Gold.Chemscore.DG>
-18.7260

> <Gold.Chemscore.ZeroCoef>
-5.4800

> <Gold.Chemscore.Hbond>
2.4732

> <Gold.Chemscore.Metal>
0.0000

> <Gold.Chemscore.Lipo>
77.9155

> <Gold.Chemscore.Internal_Hbond>
0.0000

> <Gold.Chemscore.DEClash>
1.4196

> <Gold.Chemscore.DEInternal>
3.3615

> <Gold.Chemscore.Rot>
1.6136

> <Gold.Chemscore.Internal.Correction>
   9.000000E+99

> <Gold.Chemscore.Hbonds>
donor molecule, donor type, donor heavy atom, donor atom, acceptor molecule, acceptor atom, score
      L1  H     4    28       P1  8029  0.34
      P1  H  6934  6946       L1     6  0.88
      P1  H  7989  7998       L1    11  0.70

> <Gold.Chemscore.Hbond.Weighted>
-8.2607

> <Gold.Chemscore.Metal.Weighted>
-0.0000

> <Gold.Chemscore.Lipo.Weighted>
-9.1161

> <Gold.Chemscore.Internal_Hbond.Weighted>
0.0000

> <Gold.Chemscore.DEClash.Weighted>
1.4196

> <Gold.Chemscore.DEInternal.Weighted>
3.3615

> <Gold.Chemscore.Rot.Weighted>
4.1308

> <Gold.Chemscore.Internal.Correction.Weighted>
   9.000000E+99

> <Gold.Protein.RotatedTorsions>
[ 6907 6896 6895 6894 ] final -174.63 input  -60.11 | X-H torsion
[ 7974 7965 7964 7962 ] final   69.62 input  175.53 | X-H torsion
[ 8008 7997 7996 7995 ] final  151.17 input   59.86 | X-H torsion
[ 10167 10162 10161 10158 ] final  164.21 input  -65.29 | X-H torsion
[ 10718 10713 10712 10709 ] final   -1.24 input   66.30 | X-H torsion
[ 10763 10752 10751 10750 ] final   85.49 input  -60.55 | X-H torsion
[ 11005 11000 10999 10996 ] final -103.25 input  -57.11 | X-H torsion

> <Gold.Protein.ActiveResidues>
 VAL166  LYS551  ARG553  GLY616  TRP617  ASP618  TYR619  PRO620  LYS621  CYS622 
 ASP623  PHE694  ASN695  SER759  ASP760  ASP761  ALA762  ILE779  LEU786  VAL792 
 PHE793  MET794  SER795  GLU796  ALA797  LYS798  CYS799  TRP800  GLU811  SER814 

> <Gold.Protein.RotatedAtoms>
  151.5755  133.3384  159.2997 H   0  0  0  0  0  0  0  0  0  0  0  0  # atno 6907 bound_to 6896
  150.8343  134.7612  159.6891 H   0  0  0  0  0  0  0  0  0  0  0  0  # atno 6908 bound_to 6896
  152.4422  134.5575  159.9936 H   0  0  0  0  0  0  0  0  0  0  0  0  # atno 6909 bound_to 6896
  145.7882  139.2921  143.1225 H   0  0  0  0  0  0  0  0  0  0  0  0  # atno 7974 bound_to 7965
  156.2685  140.2055  156.6133 H   0  0  0  0  0  0  0  0  0  0  0  0  # atno 8008 bound_to 7997
  154.6814  140.0539  157.0293 H   0  0  0  0  0  0  0  0  0  0  0  0  # atno 8009 bound_to 7997
  155.0995  140.3204  155.4554 H   0  0  0  0  0  0  0  0  0  0  0  0  # atno 8010 bound_to 7997
  139.4885  144.4258  151.9131 H   0  0  0  0  0  0  0  0  0  0  0  0  # atno 10167 bound_to 10162
  156.8086  130.5417  149.5712 H   0  0  0  0  0  0  0  0  0  0  0  0  # atno 10718 bound_to 10713
  153.1480  135.4615  154.9595 H   0  0  0  0  0  0  0  0  0  0  0  0  # atno 10763 bound_to 10752
  154.7802  135.3186  154.8009 H   0  0  0  0  0  0  0  0  0  0  0  0  # atno 10764 bound_to 10752
  153.8519  135.6920  153.4846 H   0  0  0  0  0  0  0  0  0  0  0  0  # atno 10765 bound_to 10752
  141.1154  133.8625  157.1463 H   0  0  0  0  0  0  0  0  0  0  0  0  # atno 11005 bound_to 11000
  146.0004  140.8525  143.0021 LP  0  0  0  0  0  0  0  0  0  0  0  0  # atno 17320 bound_to 7965
  144.6786  140.2343  143.7351 LP  0  0  0  0  0  0  0  0  0  0  0  0  # atno 17321 bound_to 7965
  140.3704  144.2863  150.5921 LP  0  0  0  0  0  0  0  0  0  0  0  0  # atno 17342 bound_to 10162
  140.5324  143.2240  151.8217 LP  0  0  0  0  0  0  0  0  0  0  0  0  # atno 17343 bound_to 10162
  156.1058  130.6003  150.9968 LP  0  0  0  0  0  0  0  0  0  0  0  0  # atno 17370 bound_to 10713
  157.6517  131.0896  150.8035 LP  0  0  0  0  0  0  0  0  0  0  0  0  # atno 17371 bound_to 10713
  140.0073  135.0003  157.0319 LP  0  0  0  0  0  0  0  0  0  0  0  0  # atno 17394 bound_to 11000
  140.4661  134.1434  155.7197 LP  0  0  0  0  0  0  0  0  0  0  0  0  # atno 17395 bound_to 11000

$$$$
