AV-unprocessed.smi:1036|AV-procd|sdf|4518|dock7
  -GOLD-   22720 2533D 1   1.00000     0.00000
 Structure written by MMmdl.
 41 43  0  0  0  0  0  0  0  0  1 V2000
  151.3878  137.0671  159.4990 O   0  0  0  0  0  0  0  0  0  0  0  0
  152.0817  137.1371  158.2728 C   0  0  0  0  0  0  0  0  0  0  0  0
  153.0237  138.3495  158.2750 C   0  0  0  0  0  0  0  0  0  0  0  0
  152.3345  139.5835  157.9435 N   0  0  0  0  0  0  0  0  0  0  0  0
  152.2212  140.7936  158.6179 C   0  0  0  0  0  0  0  0  0  0  0  0
  152.7894  141.0385  159.7973 N   0  0  0  0  0  0  0  0  0  0  0  0
  152.3997  142.3409  160.0468 C   0  0  0  0  0  0  0  0  0  0  0  0
  152.6785  143.1884  161.1429 C   0  0  0  0  0  0  0  0  0  0  0  0
  152.1638  144.5010  161.1792 C   0  0  0  0  0  0  0  0  0  0  0  0
  151.3643  144.9843  160.1230 C   0  0  0  0  0  0  0  0  0  0  0  0
  151.0746  144.1571  159.0210 C   0  0  0  0  0  0  0  0  0  0  0  0
  151.5908  142.8481  158.9890 C   0  0  0  0  0  0  0  0  0  0  0  0
  151.5024  141.8046  158.0726 N   0  0  0  0  0  0  0  0  0  0  0  0
  150.7876  141.8350  156.8030 C   0  0  0  0  0  0  0  0  0  0  0  0
  149.3507  141.2932  156.9330 C   0  0  2  0  0  0  0  0  0  0  0  0
  149.4186  140.0055  157.5116 O   0  0  0  0  0  0  0  0  0  0  0  0
  148.6053  141.2934  155.6028 C   0  0  0  0  0  0  0  0  0  0  0  0
  147.4501  142.0889  155.4326 C   0  0  0  0  0  0  0  0  0  0  0  0
  146.7573  142.0856  154.2071 C   0  0  0  0  0  0  0  0  0  0  0  0
  145.6515  142.8510  154.0532 F   0  0  0  0  0  0  0  0  0  0  0  0
  147.2103  141.2821  153.1441 C   0  0  0  0  0  0  0  0  0  0  0  0
  148.3534  140.4779  153.3097 C   0  0  0  0  0  0  0  0  0  0  0  0
  149.0500  140.4819  154.5337 C   0  0  0  0  0  0  0  0  0  0  0  0
  150.1441  139.6961  154.6769 F   0  0  0  0  0  0  0  0  0  0  0  0
  151.7366  137.7279  160.0775 H   0  0  0  0  0  0  0  0  0  0  0  0
  152.6662  136.2216  158.1788 H   0  0  0  0  0  0  0  0  0  0  0  0
  151.3834  137.1582  157.4352 H   0  0  0  0  0  0  0  0  0  0  0  0
  153.5387  138.4516  159.2308 H   0  0  0  0  0  0  0  0  0  0  0  0
  153.7971  138.2015  157.5206 H   0  0  0  0  0  0  0  0  0  0  0  0
  151.8424  139.5468  157.0627 H   0  0  0  0  0  0  0  0  0  0  0  0
  153.2894  142.8281  161.9573 H   0  0  0  0  0  0  0  0  0  0  0  0
  152.3835  145.1404  162.0215 H   0  0  0  0  0  0  0  0  0  0  0  0
  150.9738  145.9909  160.1594 H   0  0  0  0  0  0  0  0  0  0  0  0
  150.4639  144.5247  158.2097 H   0  0  0  0  0  0  0  0  0  0  0  0
  150.7871  142.8473  156.3976 H   0  0  0  0  0  0  0  0  0  0  0  0
  151.3513  141.2272  156.0938 H   0  0  0  0  0  0  0  0  0  0  0  0
  148.8017  141.9102  157.6449 H   0  0  0  0  0  0  0  0  0  0  0  0
  150.3149  139.8349  157.7581 H   0  0  0  0  0  0  0  0  0  0  0  0
  147.0884  142.7042  156.2433 H   0  0  0  0  0  0  0  0  0  0  0  0
  146.6769  141.2768  152.2050 H   0  0  0  0  0  0  0  0  0  0  0  0
  148.6963  139.8554  152.4964 H   0  0  0  0  0  0  0  0  0  0  0  0
  1  2  1  0  0  0  0
  1 25  1  0  0  0  0
  2  3  1  0  0  0  0
  2 26  1  0  0  0  0
  2 27  1  0  0  0  0
  3  4  1  0  0  0  0
  3 28  1  0  0  0  0
  3 29  1  0  0  0  0
  4  5  1  0  0  0  0
  4 30  1  0  0  0  0
  5 13  1  0  0  0  0
  5  6  2  0  0  0  0
  6  7  1  0  0  0  0
  7 12  2  0  0  0  0
  7  8  1  0  0  0  0
  8  9  2  0  0  0  0
  8 31  1  0  0  0  0
  9 10  1  0  0  0  0
  9 32  1  0  0  0  0
 10 11  2  0  0  0  0
 10 33  1  0  0  0  0
 11 12  1  0  0  0  0
 11 34  1  0  0  0  0
 12 13  1  0  0  0  0
 13 14  1  0  0  0  0
 14 15  1  0  0  0  0
 14 35  1  0  0  0  0
 14 36  1  0  0  0  0
 15 16  1  0  0  0  0
 15 17  1  0  0  0  0
 15 37  1  0  0  0  0
 16 38  1  0  0  0  0
 17 23  1  0  0  0  0
 17 18  2  0  0  0  0
 18 19  1  0  0  0  0
 18 39  1  0  0  0  0
 19 20  1  0  0  0  0
 19 21  2  0  0  0  0
 21 22  1  0  0  0  0
 21 40  1  0  0  0  0
 22 23  2  0  0  0  0
 22 41  1  0  0  0  0
 23 24  1  0  0  0  0
M  END
> <s_m_source_file>
AV-unprocessed.smi

> <i_m_source_file_index>
1036

> <i_lp_mmshare_version>
43012

> <i_f3d_flags>
0

> <s_epik_input>
W09IXVtDSDJdW0NIMl1bTkhdYyhuMSluKGMoYzEyKVtjSF1bY0hdW2NIXVtjSF0yKVtDSDJdW0NASF0oW09IXSljM1tjSF1jKEYpW2NIXVtjSF1jM0Y=

> <s_epik_cmdline>
J2VwaWtfcHl0aG9uJywgJy1waCcsICc3LjAnLCAnLXRuJywgJzgnLCAnLW1hJywgJzIwMCcsICctbWV0YWxfYmluZGluZycsICctaW1hZScsICc8aW5maWxlLm1hZT4nLCAnLW9tYWUnLCAnPG91dGZpbGUubWFlPic=

> <r_epik_Ionization_Penalty>
1.30972

> <r_epik_Ionization_Penalty_Charging>
0

> <r_epik_Ionization_Penalty_Neutral>
1.30972

> <r_epik_State_Penalty>
1.38438

> <r_epik_Charging_Adjusted_Penalty>
1.38438

> <i_epik_Tot_Q>
0

> <i_epik_Tot_abs_Q>
0

> <r_epik_Metal_State_Penalty>
0.00551145

> <b_epik_Metal_Only>
0

> <s_lp_Force_Field>
OPLS_2005

> <r_lp_Energy>
9.11105

> <b_lp_Chiralities_Consistent>
1

> <s_lp_Variant>
AV-unprocessed.smi:1036-3

> <Gold.Version>
5.8.1

> <Gold.Id.Protein>
6NUR|6NUR_protein|mol2

> <Gold.PLP.Fitness>
49.7030

> <Gold.PLP.PLP>
-47.6955

> <Gold.PLP.part.hbond>
-1.0000

> <Gold.PLP.part.metal>
0.0000

> <Gold.PLP.part.buried>
-2.1230

> <Gold.PLP.part.nonpolar>
-45.2342

> <Gold.PLP.part.repulsive>
0.0837

> <Gold.PLP.ligand.clash>
0.0000

> <Gold.PLP.ligand.torsion>
0.5061

> <Gold.PLP.Chemscore.Hbond>
1.0000

> <Gold.PLP.Chemscore.CHOScore>
0.0000

> <Gold.PLP.Chemscore.Metal>
0.0000

> <Gold.Chemscore.Hbonds>
donor molecule, donor type, donor heavy atom, donor atom, acceptor molecule, acceptor atom, score
      P1  H  6896  6908       L1     1  1.00

> <Gold.PLP.Chemscore.Internal.Correction>
0.0197

> <Gold.Rescore>
     Score         DG    S(hbond)    S(metal)    S(lipo)     H(rot)  DE(clash)    DE(int)     intcor
     11.97     -14.40       0.93        0.00     120.17       3.22       0.50       1.93       ----

> <Gold.Chemscore.Fitness>
11.9683

> <Gold.Chemscore.DG>
-14.4042

> <Gold.Chemscore.ZeroCoef>
-5.4800

> <Gold.Chemscore.Hbond>
0.9300

> <Gold.Chemscore.Metal>
0.0000

> <Gold.Chemscore.Lipo>
120.1676

> <Gold.Chemscore.Internal_Hbond>
0.0000

> <Gold.Chemscore.DEClash>
0.5015

> <Gold.Chemscore.DEInternal>
1.9344

> <Gold.Chemscore.Rot>
3.2194

> <Gold.Chemscore.Internal.Correction>
   9.000000E+99

> <Gold.Chemscore.Hbonds>
donor molecule, donor type, donor heavy atom, donor atom, acceptor molecule, acceptor atom, score
      P1  H  6896  6908       L1     1  0.44

> <Gold.Chemscore.Hbond.Weighted>
-3.1062

> <Gold.Chemscore.Metal.Weighted>
-0.0000

> <Gold.Chemscore.Lipo.Weighted>
-14.0596

> <Gold.Chemscore.Internal_Hbond.Weighted>
0.0000

> <Gold.Chemscore.DEClash.Weighted>
0.5015

> <Gold.Chemscore.DEInternal.Weighted>
1.9344

> <Gold.Chemscore.Rot.Weighted>
8.2416

> <Gold.Chemscore.Internal.Correction.Weighted>
   9.000000E+99

> <Gold.Protein.RotatedTorsions>
[ 6907 6896 6895 6894 ] final -133.42 input  -60.11 | X-H torsion
[ 7974 7965 7964 7962 ] final -153.79 input  175.53 | X-H torsion
[ 8008 7997 7996 7995 ] final  -33.10 input   59.86 | X-H torsion
[ 10167 10162 10161 10158 ] final    8.31 input  -65.29 | X-H torsion
[ 10718 10713 10712 10709 ] final  -78.04 input   66.30 | X-H torsion
[ 10763 10752 10751 10750 ] final   -5.18 input  -60.55 | X-H torsion
[ 11005 11000 10999 10996 ] final   50.68 input  -57.11 | X-H torsion

> <Gold.Protein.ActiveResidues>
 VAL166  LYS551  ARG553  GLY616  TRP617  ASP618  TYR619  PRO620  LYS621  CYS622 
 ASP623  PHE694  ASN695  SER759  ASP760  ASP761  ALA762  ILE779  LEU786  VAL792 
 PHE793  MET794  SER795  GLU796  ALA797  LYS798  CYS799  TRP800  GLU811  SER814 

> <Gold.Protein.RotatedAtoms>
  150.9738  133.6316  159.2733 H   0  0  0  0  0  0  0  0  0  0  0  0  # atno 6907 bound_to 6896
  151.3596  135.0900  159.9440 H   0  0  0  0  0  0  0  0  0  0  0  0  # atno 6908 bound_to 6896
  152.5192  133.9314  159.7637 H   0  0  0  0  0  0  0  0  0  0  0  0  # atno 6909 bound_to 6896
  144.7723  140.4478  143.5898 H   0  0  0  0  0  0  0  0  0  0  0  0  # atno 7974 bound_to 7965
  154.4159  140.1720  156.1833 H   0  0  0  0  0  0  0  0  0  0  0  0  # atno 8008 bound_to 7997
  155.9664  140.3389  155.6512 H   0  0  0  0  0  0  0  0  0  0  0  0  # atno 8009 bound_to 7997
  155.6683  140.0708  157.2520 H   0  0  0  0  0  0  0  0  0  0  0  0  # atno 8010 bound_to 7997
  140.6321  143.7969  150.7310 H   0  0  0  0  0  0  0  0  0  0  0  0  # atno 10167 bound_to 10162
  156.0128  130.4507  150.3436 H   0  0  0  0  0  0  0  0  0  0  0  0  # atno 10718 bound_to 10713
  153.3949  135.7003  153.6467 H   0  0  0  0  0  0  0  0  0  0  0  0  # atno 10763 bound_to 10752
  153.5025  135.3649  155.2547 H   0  0  0  0  0  0  0  0  0  0  0  0  # atno 10764 bound_to 10752
  154.8705  135.4115  154.3273 H   0  0  0  0  0  0  0  0  0  0  0  0  # atno 10765 bound_to 10752
  140.0997  134.5098  155.8774 H   0  0  0  0  0  0  0  0  0  0  0  0  # atno 11005 bound_to 11000
  145.6289  139.1533  143.2980 LP  0  0  0  0  0  0  0  0  0  0  0  0  # atno 17320 bound_to 7965
  146.1878  140.6394  142.9160 LP  0  0  0  0  0  0  0  0  0  0  0  0  # atno 17321 bound_to 7965
  140.1582  143.4298  152.2085 LP  0  0  0  0  0  0  0  0  0  0  0  0  # atno 17342 bound_to 10162
  139.5535  144.7355  151.4365 LP  0  0  0  0  0  0  0  0  0  0  0  0  # atno 17343 bound_to 10162
  157.1531  131.0326  151.2876 LP  0  0  0  0  0  0  0  0  0  0  0  0  # atno 17370 bound_to 10713
  157.4375  130.7525  149.7041 LP  0  0  0  0  0  0  0  0  0  0  0  0  # atno 17371 bound_to 10713
  141.2102  133.6692  156.6493 LP  0  0  0  0  0  0  0  0  0  0  0  0  # atno 17394 bound_to 11000
  140.3237  134.7986  157.4272 LP  0  0  0  0  0  0  0  0  0  0  0  0  # atno 17395 bound_to 11000

$$$$
