AV-unprocessed.smi:1208|AV-procd|sdf|5062|dock2
  -GOLD-   22720 4103D 1   1.00000     0.00000
 Structure written by MMmdl.
 35 36  0  0  0  0  0  0  0  0  2 V2000
  146.5953  142.0357  155.8401 C   0  0  0  0  0  0  0  0  0  0  0  0
  147.1636  141.8227  157.2504 C   0  0  1  0  0  0  0  0  0  0  0  0
  148.4448  142.5167  157.3544 N   0  0  0  0  0  0  0  0  0  0  0  0
  149.5350  142.0672  157.9954 C   0  0  0  0  0  0  0  0  0  0  0  0
  149.6112  140.9521  158.5124 O   0  0  0  0  0  0  0  0  0  0  0  0
  150.7216  143.0340  158.0642 C   0  0  0  0  0  0  0  0  0  0  0  0
  151.7697  142.5221  158.9559 N   0  0  0  0  0  0  0  0  0  0  0  0
  152.3701  141.2744  158.4892 N   0  5  0  0  0  0  0  0  0  0  0  0
  153.4244  140.7517  159.1691 C   0  0  0  0  0  0  0  0  0  0  0  0
  154.0052  139.7288  158.8137 O   0  0  0  0  0  0  0  0  0  0  0  0
  153.8712  141.4378  160.3699 C   0  0  0  0  0  0  0  0  0  0  0  0
  153.2744  142.5676  160.7982 C   0  0  0  0  0  0  0  0  0  0  0  0
  152.1597  143.1797  160.0851 C   0  0  0  0  0  0  0  0  0  0  0  0
  151.6196  144.2185  160.4649 O   0  0  0  0  0  0  0  0  0  0  0  0
  146.1962  142.3288  158.3418 C   0  0  2  0  0  0  0  0  0  0  0  0
  145.7217  143.7751  158.1745 C   0  0  0  0  0  0  0  0  0  0  0  0
  145.3328  144.1337  159.5893 C   0  0  0  0  0  0  0  0  0  0  0  0
  146.4211  143.4323  160.3965 C   0  0  0  0  0  0  0  0  0  0  0  0
  146.8254  142.3055  159.6217 O   0  0  0  0  0  0  0  0  0  0  0  0
  145.6513  141.5055  155.7123 H   0  0  0  0  0  0  0  0  0  0  0  0
  147.2838  141.6658  155.0797 H   0  0  0  0  0  0  0  0  0  0  0  0
  146.4125  143.0920  155.6402 H   0  0  0  0  0  0  0  0  0  0  0  0
  147.3110  140.7502  157.3887 H   0  0  0  0  0  0  0  0  0  0  0  0
  148.4860  143.4490  156.9683 H   0  0  0  0  0  0  0  0  0  0  0  0
  151.1084  143.1927  157.0562 H   0  0  0  0  0  0  0  0  0  0  0  0
  150.3852  144.0163  158.4023 H   0  0  0  0  0  0  0  0  0  0  0  0
  154.6979  141.0303  160.9331 H   0  0  0  0  0  0  0  0  0  0  0  0
  153.6386  143.0423  161.6971 H   0  0  0  0  0  0  0  0  0  0  0  0
  145.3206  141.6792  158.3936 H   0  0  0  0  0  0  0  0  0  0  0  0
  146.5402  144.4146  157.8403 H   0  0  0  0  0  0  0  0  0  0  0  0
  144.8980  143.8758  157.4666 H   0  0  0  0  0  0  0  0  0  0  0  0
  145.2941  145.2088  159.7664 H   0  0  0  0  0  0  0  0  0  0  0  0
  144.3552  143.7115  159.8255 H   0  0  0  0  0  0  0  0  0  0  0  0
  147.2831  144.0879  160.5251 H   0  0  0  0  0  0  0  0  0  0  0  0
  146.0739  143.1318  161.3853 H   0  0  0  0  0  0  0  0  0  0  0  0
  1  2  1  0  0  0  0
  1 20  1  0  0  0  0
  1 21  1  0  0  0  0
  1 22  1  0  0  0  0
  2  3  1  0  0  0  0
  2 15  1  0  0  0  0
  2 23  1  0  0  0  0
  3  4  1  0  0  0  0
  3 24  1  0  0  0  0
  4  5  2  0  0  0  0
  4  6  1  0  0  0  0
  6 25  1  0  0  0  0
  6 26  1  0  0  0  0
  6  7  1  0  0  0  0
  7  8  1  0  0  0  0
  7 13  1  0  0  0  0
  8  9  1  0  0  0  0
  9 10  2  0  0  0  0
  9 11  1  0  0  0  0
 11 27  1  0  0  0  0
 11 12  2  0  0  0  0
 12 28  1  0  0  0  0
 12 13  1  0  0  0  0
 13 14  2  0  0  0  0
 15 19  1  0  0  0  0
 15 16  1  0  0  0  0
 15 29  1  0  0  0  0
 16 17  1  0  0  0  0
 16 30  1  0  0  0  0
 16 31  1  0  0  0  0
 17 18  1  0  0  0  0
 17 32  1  0  0  0  0
 17 33  1  0  0  0  0
 18 19  1  0  0  0  0
 18 34  1  0  0  0  0
 18 35  1  0  0  0  0
M  CHG  1   8  -1
M  END
> <s_m_source_file>
AV-unprocessed.smi

> <i_m_source_file_index>
1208

> <i_lp_mmshare_version>
43012

> <i_f3d_flags>
0

> <s_epik_input>
TzFbQ0gyXVtDSDJdW0NIMl1bQ0BIXTFbQ0BIXShbQ0gzXSlbTkhdQyg9TylbQ0gyXW4yW25IXWMoPU8pW2NIXVtjSF1jMj1P

> <s_epik_cmdline>
J2VwaWtfcHl0aG9uJywgJy1waCcsICc3LjAnLCAnLXRuJywgJzgnLCAnLW1hJywgJzIwMCcsICctbWV0YWxfYmluZGluZycsICctaW1hZScsICc8aW5maWxlLm1hZT4nLCAnLW9tYWUnLCAnPG91dGZpbGUubWFlPic=

> <r_lp_tautomer_probability>
1

> <r_epik_Ionization_Penalty>
0.0975494

> <r_epik_Ionization_Penalty_Charging>
0.0975494

> <r_epik_Ionization_Penalty_Neutral>
2.30132e-08

> <r_epik_State_Penalty>
0.034345

> <r_epik_Charging_Adjusted_Penalty>
0.131894

> <i_epik_Tot_Q>
-1

> <i_epik_Tot_abs_Q>
1

> <r_epik_Metal_State_Penalty>
0.034345

> <b_epik_Metal_Only>
0

> <s_lp_Force_Field>
OPLS_2005

> <r_lp_Energy>
33.0818

> <b_lp_Chiralities_Consistent>
1

> <s_lp_Variant>
AV-unprocessed.smi:1208-2

> <Gold.Version>
5.8.1

> <Gold.Id.Protein>
6NUR|6NUR_protein|mol2

> <Gold.PLP.Fitness>
36.6409

> <Gold.PLP.PLP>
-28.7391

> <Gold.PLP.part.hbond>
-3.4642

> <Gold.PLP.part.metal>
0.0000

> <Gold.PLP.part.buried>
-3.8159

> <Gold.PLP.part.nonpolar>
-21.1975

> <Gold.PLP.part.repulsive>
0.1789

> <Gold.PLP.ligand.clash>
0.0000

> <Gold.PLP.ligand.torsion>
0.4701

> <Gold.PLP.Chemscore.Hbond>
2.9440

> <Gold.PLP.Chemscore.CHOScore>
0.0000

> <Gold.PLP.Chemscore.Metal>
0.0000

> <Gold.Chemscore.Hbonds>
donor molecule, donor type, donor heavy atom, donor atom, acceptor molecule, acceptor atom, score
      L1  H     3    24       P1  8028  0.90
      P1  H  6934  6946       L1    19  0.93
      P1  H  7997  8009       L1    10  1.00

> <Gold.PLP.Chemscore.Internal.Correction>
0.0101

> <Gold.Rescore>
     Score         DG    S(hbond)    S(metal)    S(lipo)     H(rot)  DE(clash)    DE(int)     intcor
     10.33     -12.17       2.14        0.00      39.81       1.99       0.16       1.68       ----

> <Gold.Chemscore.Fitness>
10.3314

> <Gold.Chemscore.DG>
-12.1682

> <Gold.Chemscore.ZeroCoef>
-5.4800

> <Gold.Chemscore.Hbond>
2.1363

> <Gold.Chemscore.Metal>
0.0000

> <Gold.Chemscore.Lipo>
39.8082

> <Gold.Chemscore.Internal_Hbond>
0.0000

> <Gold.Chemscore.DEClash>
0.1554

> <Gold.Chemscore.DEInternal>
1.6815

> <Gold.Chemscore.Rot>
1.9940

> <Gold.Chemscore.Internal.Correction>
   9.000000E+99

> <Gold.Chemscore.Hbonds>
donor molecule, donor type, donor heavy atom, donor atom, acceptor molecule, acceptor atom, score
      L1  H     3    24       P1  8028  0.18
      P1  H  6934  6946       L1    19  0.63
      P1  H  7997  8009       L1    10  0.58

> <Gold.Chemscore.Hbond.Weighted>
-7.1354

> <Gold.Chemscore.Metal.Weighted>
-0.0000

> <Gold.Chemscore.Lipo.Weighted>
-4.6576

> <Gold.Chemscore.Internal_Hbond.Weighted>
0.0000

> <Gold.Chemscore.DEClash.Weighted>
0.1554

> <Gold.Chemscore.DEInternal.Weighted>
1.6815

> <Gold.Chemscore.Rot.Weighted>
5.1047

> <Gold.Chemscore.Internal.Correction.Weighted>
   9.000000E+99

> <Gold.Protein.RotatedTorsions>
[ 6907 6896 6895 6894 ] final  101.38 input  -60.11 | X-H torsion
[ 7974 7965 7964 7962 ] final -161.60 input  175.53 | X-H torsion
[ 8008 7997 7996 7995 ] final  148.94 input   59.86 | X-H torsion
[ 10167 10162 10161 10158 ] final  -59.68 input  -65.29 | X-H torsion
[ 10718 10713 10712 10709 ] final -103.88 input   66.30 | X-H torsion
[ 10763 10752 10751 10750 ] final -153.21 input  -60.55 | X-H torsion
[ 11005 11000 10999 10996 ] final    2.03 input  -57.11 | X-H torsion

> <Gold.Protein.ActiveResidues>
 VAL166  LYS551  ARG553  GLY616  TRP617  ASP618  TYR619  PRO620  LYS621  CYS622 
 ASP623  PHE694  ASN695  SER759  ASP760  ASP761  ALA762  ILE779  LEU786  VAL792 
 PHE793  MET794  SER795  GLU796  ALA797  LYS798  CYS799  TRP800  GLU811  SER814 

> <Gold.Protein.RotatedAtoms>
  152.5350  134.0135  159.7948 H   0  0  0  0  0  0  0  0  0  0  0  0  # atno 6907 bound_to 6896
  151.0333  133.5763  159.2665 H   0  0  0  0  0  0  0  0  0  0  0  0  # atno 6908 bound_to 6896
  151.2759  135.0706  159.9205 H   0  0  0  0  0  0  0  0  0  0  0  0  # atno 6909 bound_to 6896
  144.7385  140.3374  143.6141 H   0  0  0  0  0  0  0  0  0  0  0  0  # atno 7974 bound_to 7965
  156.2773  140.2115  156.5778 H   0  0  0  0  0  0  0  0  0  0  0  0  # atno 8008 bound_to 7997
  154.7083  140.0514  157.0549 H   0  0  0  0  0  0  0  0  0  0  0  0  # atno 8009 bound_to 7997
  155.0640  140.3169  155.4654 H   0  0  0  0  0  0  0  0  0  0  0  0  # atno 8010 bound_to 7997
  140.6119  143.2390  151.5688 H   0  0  0  0  0  0  0  0  0  0  0  0  # atno 10167 bound_to 10162
  156.0282  130.5488  150.7316 H   0  0  0  0  0  0  0  0  0  0  0  0  # atno 10718 bound_to 10713
  154.7943  135.3218  154.7703 H   0  0  0  0  0  0  0  0  0  0  0  0  # atno 10763 bound_to 10752
  153.8385  135.6873  153.4810 H   0  0  0  0  0  0  0  0  0  0  0  0  # atno 10764 bound_to 10752
  153.1627  135.4654  154.9736 H   0  0  0  0  0  0  0  0  0  0  0  0  # atno 10765 bound_to 10752
  140.6089  133.9767  155.8167 H   0  0  0  0  0  0  0  0  0  0  0  0  # atno 11005 bound_to 11000
  145.7409  139.1764  143.2376 LP  0  0  0  0  0  0  0  0  0  0  0  0  # atno 17320 bound_to 7965
  146.1134  140.7399  142.9492 LP  0  0  0  0  0  0  0  0  0  0  0  0  # atno 17321 bound_to 7965
  139.5368  144.2758  152.1268 LP  0  0  0  0  0  0  0  0  0  0  0  0  # atno 17342 bound_to 10162
  140.1959  144.4705  150.6455 LP  0  0  0  0  0  0  0  0  0  0  0  0  # atno 17343 bound_to 10162
  157.4907  131.0910  151.0430 LP  0  0  0  0  0  0  0  0  0  0  0  0  # atno 17370 bound_to 10713
  157.0837  130.5913  149.5425 LP  0  0  0  0  0  0  0  0  0  0  0  0  # atno 17371 bound_to 10713
  141.0822  134.0045  157.3369 LP  0  0  0  0  0  0  0  0  0  0  0  0  # atno 17394 bound_to 11000
  139.9201  135.0200  156.8030 LP  0  0  0  0  0  0  0  0  0  0  0  0  # atno 17395 bound_to 11000

$$$$
