AV-unprocessed.smi:2967|AV-procd|sdf|11326|dock5
  -GOLD-   2272016233D 1   1.00000     0.00000
 Structure written by MMmdl.
 38 39  0  0  0  0  0  0  0  0  1 V2000
  151.3099  140.4791  155.0613 O   0  0  0  0  0  0  0  0  0  0  0  0
  150.3110  140.6028  155.7718 C   0  0  0  0  0  0  0  0  0  0  0  0
  148.9732  139.9647  155.3702 C   0  0  0  0  0  0  0  0  0  0  0  0
  147.8778  140.9380  155.2469 N   0  0  0  0  0  0  0  0  0  0  0  0
  147.4769  141.3849  153.9957 C   0  0  0  0  0  0  0  0  0  0  0  0
  146.4817  142.2837  153.8085 C   0  0  0  0  0  0  0  0  0  0  0  0
  145.7644  142.8401  154.9507 C   0  0  0  0  0  0  0  0  0  0  0  0
  144.8477  143.6557  154.8833 O   0  0  0  0  0  0  0  0  0  0  0  0
  146.1995  142.3693  156.1924 N   0  0  0  0  0  0  0  0  0  0  0  0
  147.2259  141.4447  156.3925 C   0  0  0  0  0  0  0  0  0  0  0  0
  147.5339  141.1000  157.5330 O   0  0  0  0  0  0  0  0  0  0  0  0
  150.3127  141.2765  156.9327 N   0  0  0  0  0  0  0  0  0  0  0  0
  151.4613  141.9647  157.5174 C   0  0  0  0  0  0  0  0  0  0  0  0
  151.7347  141.3711  158.9153 C   0  0  0  0  0  0  0  0  0  0  0  0
  153.1063  141.7692  159.4863 C   0  0  0  0  0  0  0  0  0  0  0  0
  153.1450  143.0973  160.2629 C   0  0  0  0  0  0  0  0  0  0  0  0
  152.3151  144.2566  159.6844 C   0  0  0  0  0  0  0  0  0  0  0  0
  152.2950  144.3482  158.1504 C   0  0  0  0  0  0  0  0  0  0  0  0
  151.1917  143.4836  157.5164 C   0  0  0  0  0  0  0  0  0  0  0  0
  145.7346  142.7297  157.0130 H   0  0  0  0  0  0  0  0  0  0  0  0
  149.1180  139.4389  154.4254 H   0  0  0  0  0  0  0  0  0  0  0  0
  148.7073  139.1901  156.0925 H   0  0  0  0  0  0  0  0  0  0  0  0
  147.9832  141.0028  153.1205 H   0  0  0  0  0  0  0  0  0  0  0  0
  146.2155  142.5934  152.8084 H   0  0  0  0  0  0  0  0  0  0  0  0
  149.4473  141.3222  157.4508 H   0  0  0  0  0  0  0  0  0  0  0  0
  152.3356  141.7667  156.8941 H   0  0  0  0  0  0  0  0  0  0  0  0
  150.9356  141.6213  159.6141 H   0  0  0  0  0  0  0  0  0  0  0  0
  151.7231  140.2835  158.8282 H   0  0  0  0  0  0  0  0  0  0  0  0
  153.4495  140.9823  160.1586 H   0  0  0  0  0  0  0  0  0  0  0  0
  153.8415  141.7942  158.6809 H   0  0  0  0  0  0  0  0  0  0  0  0
  152.8159  142.9228  161.2881 H   0  0  0  0  0  0  0  0  0  0  0  0
  154.1868  143.4105  160.3411 H   0  0  0  0  0  0  0  0  0  0  0  0
  151.2921  144.1955  160.0575 H   0  0  0  0  0  0  0  0  0  0  0  0
  152.7114  145.1878  160.0910 H   0  0  0  0  0  0  0  0  0  0  0  0
  152.0951  145.3858  157.8803 H   0  0  0  0  0  0  0  0  0  0  0  0
  153.2728  144.1147  157.7276 H   0  0  0  0  0  0  0  0  0  0  0  0
  151.0627  143.8087  156.4831 H   0  0  0  0  0  0  0  0  0  0  0  0
  150.2405  143.6918  158.0086 H   0  0  0  0  0  0  0  0  0  0  0  0
  1  2  2  0  0  0  0
  2  3  1  0  0  0  0
  2 12  1  0  0  0  0
  3  4  1  0  0  0  0
  3 21  1  0  0  0  0
  3 22  1  0  0  0  0
  4 10  1  0  0  0  0
  4  5  1  0  0  0  0
  5  6  2  0  0  0  0
  5 23  1  0  0  0  0
  6  7  1  0  0  0  0
  6 24  1  0  0  0  0
  7  8  2  0  0  0  0
  7  9  1  0  0  0  0
  9 20  1  0  0  0  0
  9 10  1  0  0  0  0
 10 11  2  0  0  0  0
 12 13  1  0  0  0  0
 12 25  1  0  0  0  0
 13 19  1  0  0  0  0
 13 14  1  0  0  0  0
 13 26  1  0  0  0  0
 14 15  1  0  0  0  0
 14 27  1  0  0  0  0
 14 28  1  0  0  0  0
 15 16  1  0  0  0  0
 15 29  1  0  0  0  0
 15 30  1  0  0  0  0
 16 17  1  0  0  0  0
 16 31  1  0  0  0  0
 16 32  1  0  0  0  0
 17 18  1  0  0  0  0
 17 33  1  0  0  0  0
 17 34  1  0  0  0  0
 18 19  1  0  0  0  0
 18 35  1  0  0  0  0
 18 36  1  0  0  0  0
 19 37  1  0  0  0  0
 19 38  1  0  0  0  0
M  END
> <s_m_source_file>
AV-unprocessed.smi

> <i_m_source_file_index>
2967

> <i_lp_mmshare_version>
43012

> <i_f3d_flags>
0

> <s_epik_input>
W0NIMl0xW0NIMl1bQ0gyXVtDSDJdW0NIMl1bQ0gyXVtDSF0xW05IXUMoPU8pW0NIMl1uMltjSF1bY0hdYyg9TylbbkhdYzI9Tw==

> <s_epik_cmdline>
J2VwaWtfcHl0aG9uJywgJy1waCcsICc3LjAnLCAnLXRuJywgJzgnLCAnLW1hJywgJzIwMCcsICctbWV0YWxfYmluZGluZycsICctaW1hZScsICc8aW5maWxlLm1hZT4nLCAnLW9tYWUnLCAnPG91dGZpbGUubWFlPic=

> <r_lp_tautomer_probability>
0.999537

> <r_epik_Ionization_Penalty>
0.00321433

> <r_epik_Ionization_Penalty_Charging>
0.00321431

> <r_epik_Ionization_Penalty_Neutral>
2.02148e-08

> <r_epik_State_Penalty>
0.00226744

> <r_epik_Charging_Adjusted_Penalty>
0.00548175

> <i_epik_Tot_Q>
0

> <i_epik_Tot_abs_Q>
0

> <r_epik_Metal_State_Penalty>
0.364272

> <b_epik_Metal_Only>
0

> <s_lp_Force_Field>
OPLS_2005

> <r_lp_Energy>
14.3008

> <b_lp_Chiralities_Consistent>
1

> <s_lp_Variant>
AV-unprocessed.smi:2967-1

> <Gold.Version>
5.8.1

> <Gold.Id.Protein>
6NUR|6NUR_protein|mol2

> <Gold.PLP.Fitness>
44.3536

> <Gold.PLP.PLP>
-38.9742

> <Gold.PLP.part.hbond>
-1.0000

> <Gold.PLP.part.metal>
0.0000

> <Gold.PLP.part.buried>
-5.8062

> <Gold.PLP.part.nonpolar>
-32.7161

> <Gold.PLP.part.repulsive>
0.3496

> <Gold.PLP.ligand.clash>
0.0000

> <Gold.PLP.ligand.torsion>
0.2820

> <Gold.PLP.Chemscore.Hbond>
0.9760

> <Gold.PLP.Chemscore.CHOScore>
1.0000

> <Gold.PLP.Chemscore.Metal>
0.0000

> <Gold.Chemscore.Hbonds>
donor molecule, donor type, donor heavy atom, donor atom, acceptor molecule, acceptor atom, score
      P1  H  7989  7998       L1     1  0.96
      L1  C     5    23       P1  7957  0.55

> <Gold.PLP.Chemscore.Internal.Correction>
0.0153

> <Gold.Rescore>
     Score         DG    S(hbond)    S(metal)    S(lipo)     H(rot)  DE(clash)    DE(int)     intcor
     15.12     -15.70       0.95        0.00      97.07       1.69       0.22       0.36       ----

> <Gold.Chemscore.Fitness>
15.1154

> <Gold.Chemscore.DG>
-15.7034

> <Gold.Chemscore.ZeroCoef>
-5.4800

> <Gold.Chemscore.Hbond>
0.9537

> <Gold.Chemscore.Metal>
0.0000

> <Gold.Chemscore.Lipo>
97.0748

> <Gold.Chemscore.Internal_Hbond>
0.0000

> <Gold.Chemscore.DEClash>
0.2245

> <Gold.Chemscore.DEInternal>
0.3635

> <Gold.Chemscore.Rot>
1.6874

> <Gold.Chemscore.Internal.Correction>
   9.000000E+99

> <Gold.Chemscore.Hbonds>
donor molecule, donor type, donor heavy atom, donor atom, acceptor molecule, acceptor atom, score
      P1  H  7989  7998       L1     1  0.92

> <Gold.Chemscore.Hbond.Weighted>
-3.1854

> <Gold.Chemscore.Metal.Weighted>
-0.0000

> <Gold.Chemscore.Lipo.Weighted>
-11.3578

> <Gold.Chemscore.Internal_Hbond.Weighted>
0.0000

> <Gold.Chemscore.DEClash.Weighted>
0.2245

> <Gold.Chemscore.DEInternal.Weighted>
0.3635

> <Gold.Chemscore.Rot.Weighted>
4.3198

> <Gold.Chemscore.Internal.Correction.Weighted>
   9.000000E+99

> <Gold.Protein.RotatedTorsions>
[ 6907 6896 6895 6894 ] final -114.39 input  -60.11 | X-H torsion
[ 7974 7965 7964 7962 ] final  120.59 input  175.53 | X-H torsion
[ 8008 7997 7996 7995 ] final  163.68 input   59.86 | X-H torsion
[ 10167 10162 10161 10158 ] final -131.66 input  -65.29 | X-H torsion
[ 10718 10713 10712 10709 ] final  129.17 input   66.30 | X-H torsion
[ 10763 10752 10751 10750 ] final    4.14 input  -60.55 | X-H torsion
[ 11005 11000 10999 10996 ] final -110.59 input  -57.11 | X-H torsion

> <Gold.Protein.ActiveResidues>
 VAL166  LYS551  ARG553  GLY616  TRP617  ASP618  TYR619  PRO620  LYS621  CYS622 
 ASP623  PHE694  ASN695  SER759  ASP760  ASP761  ALA762  ILE779  LEU786  VAL792 
 PHE793  MET794  SER795  GLU796  ALA797  LYS798  CYS799  TRP800  GLU811  SER814 

> <Gold.Protein.RotatedAtoms>
  150.7899  133.8808  159.3285 H   0  0  0  0  0  0  0  0  0  0  0  0  # atno 6907 bound_to 6896
  151.6649  135.0982  160.0196 H   0  0  0  0  0  0  0  0  0  0  0  0  # atno 6908 bound_to 6896
  152.3971  133.6723  159.6320 H   0  0  0  0  0  0  0  0  0  0  0  0  # atno 6909 bound_to 6896
  145.1293  139.3338  143.4673 H   0  0  0  0  0  0  0  0  0  0  0  0  # atno 7974 bound_to 7965
  156.1938  140.1717  156.8038 H   0  0  0  0  0  0  0  0  0  0  0  0  # atno 8008 bound_to 7997
  154.5504  140.0718  156.8690 H   0  0  0  0  0  0  0  0  0  0  0  0  # atno 8009 bound_to 7997
  155.3039  140.3363  155.4249 H   0  0  0  0  0  0  0  0  0  0  0  0  # atno 8010 bound_to 7997
  139.9166  143.6431  152.2563 H   0  0  0  0  0  0  0  0  0  0  0  0  # atno 10167 bound_to 10162
  157.5178  131.1098  150.9198 H   0  0  0  0  0  0  0  0  0  0  0  0  # atno 10718 bound_to 10713
  153.2749  135.6935  153.7443 H   0  0  0  0  0  0  0  0  0  0  0  0  # atno 10763 bound_to 10752
  153.6453  135.3386  155.3084 H   0  0  0  0  0  0  0  0  0  0  0  0  # atno 10764 bound_to 10752
  154.8476  135.4441  154.1783 H   0  0  0  0  0  0  0  0  0  0  0  0  # atno 10765 bound_to 10752
  141.0783  133.9263  157.2343 H   0  0  0  0  0  0  0  0  0  0  0  0  # atno 11005 bound_to 11000
  146.3515  140.1285  142.8598 LP  0  0  0  0  0  0  0  0  0  0  0  0  # atno 17320 bound_to 7965
  145.0653  140.9117  143.4914 LP  0  0  0  0  0  0  0  0  0  0  0  0  # atno 17321 bound_to 7965
  139.6897  144.7648  151.1460 LP  0  0  0  0  0  0  0  0  0  0  0  0  # atno 17342 bound_to 10162
  140.7672  143.5606  150.9103 LP  0  0  0  0  0  0  0  0  0  0  0  0  # atno 17343 bound_to 10162
  156.9818  130.5530  149.5297 LP  0  0  0  0  0  0  0  0  0  0  0  0  # atno 17370 bound_to 10713
  156.0332  130.5422  150.8588 LP  0  0  0  0  0  0  0  0  0  0  0  0  # atno 17371 bound_to 10713
  139.9596  135.0157  156.9223 LP  0  0  0  0  0  0  0  0  0  0  0  0  # atno 17394 bound_to 11000
  140.5525  134.0613  155.7373 LP  0  0  0  0  0  0  0  0  0  0  0  0  # atno 17395 bound_to 11000

$$$$
