AV-unprocessed.smi:1268|AV-procd|sdf|5325|dock9
  -GOLD-   22720 4453D 1   1.00000     0.00000
 Structure written by MMmdl.
 39 40  0  0  0  0  0  0  0  0  3 V2000
  147.7062  143.5673  161.3739 O   0  0  0  0  0  0  0  0  0  0  0  0
  148.0733  144.3514  160.4962 C   0  0  0  0  0  0  0  0  0  0  0  0
  147.3945  144.4300  159.3448 N   0  0  0  0  0  0  0  0  0  0  0  0
  146.2002  143.6619  159.0164 C   0  0  0  0  0  0  0  0  0  0  0  0
  144.9307  144.4600  159.3565 C   0  0  2  0  0  0  0  0  0  0  0  0
  143.8325  143.5686  159.3296 O   0  0  0  0  0  0  0  0  0  0  0  0
  144.6608  145.5628  158.3136 C   0  0  0  0  0  0  0  0  0  0  0  0
  145.2408  146.8729  158.7061 N   0  3  0  0  0  0  0  0  0  0  0  0
  144.9548  147.2138  160.1238 C   0  0  0  0  0  0  0  0  0  0  0  0
  145.6906  148.4966  160.5465 C   0  0  0  0  0  0  0  0  0  0  0  0
  145.3298  149.6668  159.6226 C   0  0  0  0  0  0  0  0  0  0  0  0
  145.5991  149.2825  158.1622 C   0  0  0  0  0  0  0  0  0  0  0  0
  144.8660  147.9827  157.7890 C   0  0  0  0  0  0  0  0  0  0  0  0
  149.1324  145.1893  160.5579 N   0  5  0  0  0  0  0  0  0  0  0  0
  150.2608  144.8968  159.8906 C   0  0  0  0  0  0  0  0  0  0  0  0
  150.2694  144.2517  158.7185 N   0  0  0  0  0  0  0  0  0  0  0  0
  151.5515  144.0602  158.1998 C   0  0  0  0  0  0  0  0  0  0  0  0
  152.5416  144.5797  158.9907 C   0  0  0  0  0  0  0  0  0  0  0  0
  151.8892  145.3292  160.4197 S   0  0  0  0  0  0  0  0  0  0  0  0
  147.7327  145.0797  158.6504 H   0  0  0  0  0  0  0  0  0  0  0  0
  146.2331  143.4546  157.9459 H   0  0  0  0  0  0  0  0  0  0  0  0
  146.1984  142.6961  159.5254 H   0  0  0  0  0  0  0  0  0  0  0  0
  145.0264  144.8886  160.3541 H   0  0  0  0  0  0  0  0  0  0  0  0
  144.1482  142.7149  159.0714 H   0  0  0  0  0  0  0  0  0  0  0  0
  145.0533  145.2746  157.3372 H   0  0  0  0  0  0  0  0  0  0  0  0
  143.5807  145.6585  158.1880 H   0  0  0  0  0  0  0  0  0  0  0  0
  143.8788  147.3322  160.2612 H   0  0  0  0  0  0  0  0  0  0  0  0
  145.2699  146.3944  160.7710 H   0  0  0  0  0  0  0  0  0  0  0  0
  145.4425  148.7463  161.5784 H   0  0  0  0  0  0  0  0  0  0  0  0
  146.7677  148.3268  160.5192 H   0  0  0  0  0  0  0  0  0  0  0  0
  144.2778  149.9259  159.7486 H   0  0  0  0  0  0  0  0  0  0  0  0
  145.9056  150.5526  159.8929 H   0  0  0  0  0  0  0  0  0  0  0  0
  145.2851  150.0910  157.5013 H   0  0  0  0  0  0  0  0  0  0  0  0
  146.6714  149.1553  158.0077 H   0  0  0  0  0  0  0  0  0  0  0  0
  145.1089  147.7245  156.7591 H   0  0  0  0  0  0  0  0  0  0  0  0
  143.7867  148.1387  157.8280 H   0  0  0  0  0  0  0  0  0  0  0  0
  151.6663  143.5439  157.2584 H   0  0  0  0  0  0  0  0  0  0  0  0
  153.6076  144.5692  158.8212 H   0  0  0  0  0  0  0  0  0  0  0  0
  146.2430  146.7618  158.6426 H   0  0  0  0  0  0  0  0  0  0  0  0
  1  2  2  0  0  0  0
  2  3  1  0  0  0  0
  2 14  1  0  0  0  0
  3  4  1  0  0  0  0
  3 20  1  0  0  0  0
  4  5  1  0  0  0  0
  4 21  1  0  0  0  0
  4 22  1  0  0  0  0
  5  6  1  0  0  0  0
  5  7  1  0  0  0  0
  5 23  1  0  0  0  0
  6 24  1  0  0  0  0
  7  8  1  0  0  0  0
  7 25  1  0  0  0  0
  7 26  1  0  0  0  0
  8 13  1  0  0  0  0
  8  9  1  0  0  0  0
  8 39  1  0  0  0  0
  9 10  1  0  0  0  0
  9 27  1  0  0  0  0
  9 28  1  0  0  0  0
 10 11  1  0  0  0  0
 10 29  1  0  0  0  0
 10 30  1  0  0  0  0
 11 12  1  0  0  0  0
 11 31  1  0  0  0  0
 11 32  1  0  0  0  0
 12 13  1  0  0  0  0
 12 33  1  0  0  0  0
 12 34  1  0  0  0  0
 13 35  1  0  0  0  0
 13 36  1  0  0  0  0
 14 15  1  0  0  0  0
 15 19  1  0  0  0  0
 15 16  2  0  0  0  0
 16 17  1  0  0  0  0
 17 18  2  0  0  0  0
 17 37  1  0  0  0  0
 18 19  1  0  0  0  0
 18 38  1  0  0  0  0
M  CHG  1   8   1
M  CHG  1  14  -1
M  END
> <s_m_source_file>
AV-unprocessed.smi

> <i_m_source_file_index>
1268

> <i_lp_mmshare_version>
43012

> <i_f3d_flags>
0

> <s_epik_input>
czFbY0hdW2NIXW5jMVtOSF1DKD1PKVtOSF1bQ0gyXVtDQEhdKFtPSF0pW0NIMl1OMltDSDJdW0NIMl1bQ0gyXVtDSDJdW0NIMl0y

> <s_epik_cmdline>
J2VwaWtfcHl0aG9uJywgJy1waCcsICc3LjAnLCAnLXRuJywgJzgnLCAnLW1hJywgJzIwMCcsICctbWV0YWxfYmluZGluZycsICctaW1hZScsICc8aW5maWxlLm1hZT4nLCAnLW9tYWUnLCAnPG91dGZpbGUubWFlPic=

> <r_lp_tautomer_probability>
0.999

> <r_epik_Ionization_Penalty>
6.36291

> <r_epik_Ionization_Penalty_Charging>
5.4816

> <r_epik_Ionization_Penalty_Neutral>
0.881305

> <r_epik_State_Penalty>
5.4805

> <r_epik_Charging_Adjusted_Penalty>
10.9621

> <i_epik_Tot_Q>
0

> <i_epik_Tot_abs_Q>
2

> <r_epik_Metal_State_Penalty>
1.48871

> <b_epik_Metal_Only>
1

> <s_lp_Force_Field>
OPLS_2005

> <r_lp_Energy>
11.3564

> <b_lp_Chiralities_Consistent>
1

> <s_lp_Variant>
AV-unprocessed.smi:1268-3

> <Gold.Version>
5.8.1

> <Gold.Id.Protein>
6NUR|6NUR_protein|mol2

> <Gold.PLP.Fitness>
52.0332

> <Gold.PLP.PLP>
-43.3657

> <Gold.PLP.part.hbond>
-3.9506

> <Gold.PLP.part.metal>
0.0000

> <Gold.PLP.part.buried>
-9.5625

> <Gold.PLP.part.nonpolar>
-32.3902

> <Gold.PLP.part.repulsive>
0.7354

> <Gold.PLP.ligand.clash>
0.0000

> <Gold.PLP.ligand.torsion>
1.7004

> <Gold.PLP.Chemscore.Hbond>
3.9913

> <Gold.PLP.Chemscore.CHOScore>
0.0000

> <Gold.PLP.Chemscore.Metal>
0.0000

> <Gold.Chemscore.Hbonds>
donor molecule, donor type, donor heavy atom, donor atom, acceptor molecule, acceptor atom, score
      L1  H     3    20       P1  8029  1.00
      L1  H     8    39       P1  8029  0.84
      P1  H  6933  6944       L1     1  0.76

> <Gold.PLP.Chemscore.Internal.Correction>
0.0946

> <Gold.Rescore>
     Score         DG    S(hbond)    S(metal)    S(lipo)     H(rot)  DE(clash)    DE(int)     intcor
     17.38     -19.07       2.88        0.00      88.29       2.48       0.02       1.67       ----

> <Gold.Chemscore.Fitness>
17.3762

> <Gold.Chemscore.DG>
-19.0726

> <Gold.Chemscore.ZeroCoef>
-5.4800

> <Gold.Chemscore.Hbond>
2.8803

> <Gold.Chemscore.Metal>
0.0000

> <Gold.Chemscore.Lipo>
88.2910

> <Gold.Chemscore.Internal_Hbond>
0.0000

> <Gold.Chemscore.DEClash>
0.0247

> <Gold.Chemscore.DEInternal>
1.6717

> <Gold.Chemscore.Rot>
2.4834

> <Gold.Chemscore.Internal.Correction>
   9.000000E+99

> <Gold.Chemscore.Hbonds>
donor molecule, donor type, donor heavy atom, donor atom, acceptor molecule, acceptor atom, score
      L1  H     3    20       P1  8029  0.99
      L1  H     8    39       P1  8029  0.41
      P1  H  6933  6944       L1     1  0.68

> <Gold.Chemscore.Hbond.Weighted>
-9.6201

> <Gold.Chemscore.Metal.Weighted>
-0.0000

> <Gold.Chemscore.Lipo.Weighted>
-10.3301

> <Gold.Chemscore.Internal_Hbond.Weighted>
0.0000

> <Gold.Chemscore.DEClash.Weighted>
0.0247

> <Gold.Chemscore.DEInternal.Weighted>
1.6717

> <Gold.Chemscore.Rot.Weighted>
6.3575

> <Gold.Chemscore.Internal.Correction.Weighted>
   9.000000E+99

> <Gold.Protein.RotatedTorsions>
[ 6907 6896 6895 6894 ] final   66.56 input  -60.11 | X-H torsion
[ 7974 7965 7964 7962 ] final   70.91 input  175.53 | X-H torsion
[ 8008 7997 7996 7995 ] final  175.71 input   59.86 | X-H torsion
[ 10167 10162 10161 10158 ] final  -75.58 input  -65.29 | X-H torsion
[ 10718 10713 10712 10709 ] final    1.06 input   66.30 | X-H torsion
[ 10763 10752 10751 10750 ] final -100.68 input  -60.55 | X-H torsion
[ 11005 11000 10999 10996 ] final  148.48 input  -57.11 | X-H torsion

> <Gold.Protein.ActiveResidues>
 VAL166  LYS551  ARG553  GLY616  TRP617  ASP618  TYR619  PRO620  LYS621  CYS622 
 ASP623  PHE694  ASN695  SER759  ASP760  ASP761  ALA762  ILE779  LEU786  VAL792 
 PHE793  MET794  SER795  GLU796  ALA797  LYS798  CYS799  TRP800  GLU811  SER814 

> <Gold.Protein.RotatedAtoms>
  152.4489  134.5435  159.9845 H   0  0  0  0  0  0  0  0  0  0  0  0  # atno 6907 bound_to 6896
  151.5513  133.3411  159.2961 H   0  0  0  0  0  0  0  0  0  0  0  0  # atno 6908 bound_to 6896
  150.8413  134.7738  159.6998 H   0  0  0  0  0  0  0  0  0  0  0  0  # atno 6909 bound_to 6896
  145.7723  139.2849  143.1314 H   0  0  0  0  0  0  0  0  0  0  0  0  # atno 7974 bound_to 7965
  156.0841  140.1402  156.9675 H   0  0  0  0  0  0  0  0  0  0  0  0  # atno 8008 bound_to 7997
  154.4602  140.0946  156.6921 H   0  0  0  0  0  0  0  0  0  0  0  0  # atno 8009 bound_to 7997
  155.5027  140.3451  155.4376 H   0  0  0  0  0  0  0  0  0  0  0  0  # atno 8010 bound_to 7997
  140.4930  143.2376  151.7876 H   0  0  0  0  0  0  0  0  0  0  0  0  # atno 10167 bound_to 10162
  156.8426  130.5526  149.5676 H   0  0  0  0  0  0  0  0  0  0  0  0  # atno 10718 bound_to 10713
  154.7598  135.4926  153.9442 H   0  0  0  0  0  0  0  0  0  0  0  0  # atno 10763 bound_to 10752
  153.1238  135.6737  153.9299 H   0  0  0  0  0  0  0  0  0  0  0  0  # atno 10764 bound_to 10752
  153.9023  135.3108  155.3427 H   0  0  0  0  0  0  0  0  0  0  0  0  # atno 10765 bound_to 10752
  140.0963  134.9010  157.1728 H   0  0  0  0  0  0  0  0  0  0  0  0  # atno 11005 bound_to 11000
  146.0158  140.8394  142.9948 LP  0  0  0  0  0  0  0  0  0  0  0  0  # atno 17320 bound_to 7965
  144.6810  140.2556  143.7326 LP  0  0  0  0  0  0  0  0  0  0  0  0  # atno 17321 bound_to 7965
  139.4855  144.4624  151.9525 LP  0  0  0  0  0  0  0  0  0  0  0  0  # atno 17342 bound_to 10162
  140.3711  144.2854  150.5920 LP  0  0  0  0  0  0  0  0  0  0  0  0  # atno 17343 bound_to 10162
  156.0872  130.5867  150.9669 LP  0  0  0  0  0  0  0  0  0  0  0  0  # atno 17370 bound_to 10713
  157.6347  131.0917  150.8372 LP  0  0  0  0  0  0  0  0  0  0  0  0  # atno 17371 bound_to 10713
  140.3282  134.2840  155.7233 LP  0  0  0  0  0  0  0  0  0  0  0  0  # atno 17394 bound_to 11000
  141.2093  133.7753  157.0006 LP  0  0  0  0  0  0  0  0  0  0  0  0  # atno 17395 bound_to 11000

$$$$
