AV-unprocessed.smi:1492|AV-procd|sdf|6045|dock1
  -GOLD-   22720 6153D 1   1.00000     0.00000
 Structure written by MMmdl.
 51 52  0  0  0  0  0  0  0  0  2 V2000
  148.7764  141.5149  154.0107 C   0  0  0  0  0  0  0  0  0  0  0  0
  148.6643  141.1036  155.4902 C   0  0  0  0  0  0  0  0  0  0  0  0
  149.9952  140.7236  156.2135 C   0  0  2  0  0  0  0  0  0  0  0  0
  149.6470  140.0894  157.5868 C   0  0  0  0  0  0  0  0  0  0  0  0
  150.7945  142.0314  156.5153 C   0  0  0  0  0  0  0  0  0  0  0  0
  150.0228  142.9783  157.3162 N   0  0  0  0  0  0  0  0  0  0  0  0
  149.9794  143.0404  158.6548 C   0  0  0  0  0  0  0  0  0  0  0  0
  150.4745  142.1919  159.3962 O   0  0  0  0  0  0  0  0  0  0  0  0
  149.3006  144.2781  159.2419 C   0  0  0  0  0  0  0  0  0  0  0  0
  147.9181  144.0231  159.8456 C   0  0  0  0  0  0  0  0  0  0  0  0
  147.4879  144.6082  161.0000 C   0  0  0  0  0  0  0  0  0  0  0  0
  148.3473  145.5594  161.8141 C   0  0  0  0  0  0  0  0  0  0  0  0
  146.1994  144.3619  161.5036 N   0  0  0  0  0  0  0  0  0  0  0  0
  145.4160  143.5743  160.8713 C   0  0  0  0  0  0  0  0  0  0  0  0
  144.0275  143.3296  161.4227 C   0  0  0  0  0  0  0  0  0  0  0  0
  145.7536  142.9308  159.7018 N   0  5  0  0  0  0  0  0  0  0  0  0
  146.9799  143.1303  159.1413 C   0  0  0  0  0  0  0  0  0  0  0  0
  147.3049  142.6027  158.0783 O   0  0  0  0  0  0  0  0  0  0  0  0
  150.8221  139.7737  155.4110 N   0  0  0  0  0  0  0  0  0  0  0  0
  152.1657  139.5036  155.9350 C   0  0  0  0  0  0  0  0  0  0  0  0
  152.9967  138.6445  154.9670 C   0  0  0  0  0  0  0  0  0  0  0  0
  152.3123  137.4265  154.6991 O   0  0  0  0  0  0  0  0  0  0  0  0
  151.0253  137.6429  154.1329 C   0  0  0  0  0  0  0  0  0  0  0  0
  150.1758  138.4951  155.0909 C   0  0  0  0  0  0  0  0  0  0  0  0
  147.7930  141.7693  153.6154 H   0  0  0  0  0  0  0  0  0  0  0  0
  149.1698  140.7104  153.3904 H   0  0  0  0  0  0  0  0  0  0  0  0
  149.4100  142.3911  153.8766 H   0  0  0  0  0  0  0  0  0  0  0  0
  148.1789  141.9254  156.0155 H   0  0  0  0  0  0  0  0  0  0  0  0
  147.9651  140.2692  155.5391 H   0  0  0  0  0  0  0  0  0  0  0  0
  149.2805  140.8279  158.3000 H   0  0  0  0  0  0  0  0  0  0  0  0
  150.5186  139.6175  158.0415 H   0  0  0  0  0  0  0  0  0  0  0  0
  148.8710  139.3283  157.5022 H   0  0  0  0  0  0  0  0  0  0  0  0
  151.7102  141.8060  157.0621 H   0  0  0  0  0  0  0  0  0  0  0  0
  151.1288  142.5124  155.5953 H   0  0  0  0  0  0  0  0  0  0  0  0
  149.5772  143.7289  156.8073 H   0  0  0  0  0  0  0  0  0  0  0  0
  149.9691  144.7287  159.9762 H   0  0  0  0  0  0  0  0  0  0  0  0
  149.2065  145.0272  158.4555 H   0  0  0  0  0  0  0  0  0  0  0  0
  148.6784  146.3991  161.2033 H   0  0  0  0  0  0  0  0  0  0  0  0
  149.2257  145.0432  162.2012 H   0  0  0  0  0  0  0  0  0  0  0  0
  147.7939  145.9630  162.6628 H   0  0  0  0  0  0  0  0  0  0  0  0
  143.4226  144.2319  161.3298 H   0  0  0  0  0  0  0  0  0  0  0  0
  144.0806  143.0560  162.4769 H   0  0  0  0  0  0  0  0  0  0  0  0
  143.5240  142.5235  160.8870 H   0  0  0  0  0  0  0  0  0  0  0  0
  152.7121  140.4297  156.1059 H   0  0  0  0  0  0  0  0  0  0  0  0
  152.1027  138.9896  156.8939 H   0  0  0  0  0  0  0  0  0  0  0  0
  153.1794  139.1811  154.0353 H   0  0  0  0  0  0  0  0  0  0  0  0
  153.9704  138.4180  155.4015 H   0  0  0  0  0  0  0  0  0  0  0  0
  151.1225  138.1312  153.1629 H   0  0  0  0  0  0  0  0  0  0  0  0
  150.5468  136.6793  153.9583 H   0  0  0  0  0  0  0  0  0  0  0  0
  150.0006  137.9227  156.0016 H   0  0  0  0  0  0  0  0  0  0  0  0
  149.2047  138.6530  154.6252 H   0  0  0  0  0  0  0  0  0  0  0  0
  1  2  1  0  0  0  0
  1 25  1  0  0  0  0
  1 26  1  0  0  0  0
  1 27  1  0  0  0  0
  2  3  1  0  0  0  0
  2 28  1  0  0  0  0
  2 29  1  0  0  0  0
  3  4  1  0  0  0  0
  3  5  1  0  0  0  0
  3 19  1  0  0  0  0
  4 30  1  0  0  0  0
  4 31  1  0  0  0  0
  4 32  1  0  0  0  0
  5  6  1  0  0  0  0
  5 33  1  0  0  0  0
  5 34  1  0  0  0  0
  6  7  1  0  0  0  0
  6 35  1  0  0  0  0
  7  8  2  0  0  0  0
  7  9  1  0  0  0  0
  9 10  1  0  0  0  0
  9 36  1  0  0  0  0
  9 37  1  0  0  0  0
 10 17  1  0  0  0  0
 10 11  2  0  0  0  0
 11 12  1  0  0  0  0
 11 13  1  0  0  0  0
 12 38  1  0  0  0  0
 12 39  1  0  0  0  0
 12 40  1  0  0  0  0
 13 14  2  0  0  0  0
 14 15  1  0  0  0  0
 14 16  1  0  0  0  0
 15 41  1  0  0  0  0
 15 42  1  0  0  0  0
 15 43  1  0  0  0  0
 16 17  1  0  0  0  0
 17 18  2  0  0  0  0
 19 24  1  0  0  0  0
 19 20  1  0  0  0  0
 20 21  1  0  0  0  0
 20 44  1  0  0  0  0
 20 45  1  0  0  0  0
 21 22  1  0  0  0  0
 21 46  1  0  0  0  0
 21 47  1  0  0  0  0
 22 23  1  0  0  0  0
 23 24  1  0  0  0  0
 23 48  1  0  0  0  0
 23 49  1  0  0  0  0
 24 50  1  0  0  0  0
 24 51  1  0  0  0  0
M  CHG  1  16  -1
M  END
> <s_m_source_file>
AV-unprocessed.smi

> <i_m_source_file_index>
1492

> <i_lp_mmshare_version>
43012

> <i_f3d_flags>
0

> <s_epik_input>
W0NIMl0xW0NIMl1PW0NIMl1bQ0gyXU4xW0NAQF0oW0NIM10pKFtDSDJdW0NIM10pW0NIMl1bTkhdQyg9TylbQ0gyXWMyYyhbQ0gzXSluYyhbQ0gzXSlbbkhdYzI9Tw==

> <s_epik_cmdline>
J2VwaWtfcHl0aG9uJywgJy1waCcsICc3LjAnLCAnLXRuJywgJzgnLCAnLW1hJywgJzIwMCcsICctbWV0YWxfYmluZGluZycsICctaW1hZScsICc8aW5maWxlLm1hZT4nLCAnLW9tYWUnLCAnPG91dGZpbGUubWFlPic=

> <r_lp_tautomer_probability>
0.839158

> <r_epik_Ionization_Penalty>
6.88574

> <r_epik_Ionization_Penalty_Charging>
6.74373e-08

> <r_epik_Ionization_Penalty_Neutral>
6.88574

> <r_epik_State_Penalty>
4.79448

> <r_epik_Charging_Adjusted_Penalty>
4.79448

> <i_epik_Tot_Q>
-1

> <i_epik_Tot_abs_Q>
1

> <r_epik_Metal_State_Penalty>
1.16421

> <b_epik_Metal_Only>
1

> <s_lp_Force_Field>
OPLS_2005

> <r_lp_Energy>
46.4707

> <b_lp_Chiralities_Consistent>
1

> <s_lp_Variant>
AV-unprocessed.smi:1492-10

> <Gold.Version>
5.8.1

> <Gold.Id.Protein>
6NUR|6NUR_protein|mol2

> <Gold.PLP.Fitness>
41.5527

> <Gold.PLP.PLP>
-36.9335

> <Gold.PLP.part.hbond>
-3.2841

> <Gold.PLP.part.metal>
0.0000

> <Gold.PLP.part.buried>
0.6438

> <Gold.PLP.part.nonpolar>
-35.8344

> <Gold.PLP.part.repulsive>
0.4138

> <Gold.PLP.ligand.clash>
0.0000

> <Gold.PLP.ligand.torsion>
0.8048

> <Gold.PLP.Chemscore.Hbond>
2.0205

> <Gold.PLP.Chemscore.CHOScore>
0.0000

> <Gold.PLP.Chemscore.Metal>
0.0000

> <Gold.Chemscore.Hbonds>
donor molecule, donor type, donor heavy atom, donor atom, acceptor molecule, acceptor atom, score
      L1  H     6    35       P1  8028  1.00
      P1  H  7989  7998       L1    19  0.14
      P1  H 10752 10764       L1    22  0.67

> <Gold.PLP.Chemscore.Internal.Correction>
0.1674

> <Gold.Rescore>
     Score         DG    S(hbond)    S(metal)    S(lipo)     H(rot)  DE(clash)    DE(int)     intcor
      9.67     -16.50       1.78        0.00      88.25       2.05       2.13       4.71       ----

> <Gold.Chemscore.Fitness>
9.6672

> <Gold.Chemscore.DG>
-16.5030

> <Gold.Chemscore.ZeroCoef>
-5.4800

> <Gold.Chemscore.Hbond>
1.7771

> <Gold.Chemscore.Metal>
0.0000

> <Gold.Chemscore.Lipo>
88.2520

> <Gold.Chemscore.Internal_Hbond>
0.0000

> <Gold.Chemscore.DEClash>
2.1305

> <Gold.Chemscore.DEInternal>
4.7053

> <Gold.Chemscore.Rot>
2.0461

> <Gold.Chemscore.Internal.Correction>
   9.000000E+99

> <Gold.Chemscore.Hbonds>
donor molecule, donor type, donor heavy atom, donor atom, acceptor molecule, acceptor atom, score
      L1  H     6    35       P1  8028  0.97
      P1  H  7989  7998       L1    19  0.01
      P1  H 10752 10764       L1    22  0.61

> <Gold.Chemscore.Hbond.Weighted>
-5.9355

> <Gold.Chemscore.Metal.Weighted>
-0.0000

> <Gold.Chemscore.Lipo.Weighted>
-10.3255

> <Gold.Chemscore.Internal_Hbond.Weighted>
0.0000

> <Gold.Chemscore.DEClash.Weighted>
2.1305

> <Gold.Chemscore.DEInternal.Weighted>
4.7053

> <Gold.Chemscore.Rot.Weighted>
5.2381

> <Gold.Chemscore.Internal.Correction.Weighted>
   9.000000E+99

> <Gold.Protein.RotatedTorsions>
[ 6907 6896 6895 6894 ] final -153.45 input  -60.11 | X-H torsion
[ 7974 7965 7964 7962 ] final -172.90 input  175.53 | X-H torsion
[ 8008 7997 7996 7995 ] final  127.31 input   59.86 | X-H torsion
[ 10167 10162 10161 10158 ] final  109.75 input  -65.29 | X-H torsion
[ 10718 10713 10712 10709 ] final   29.67 input   66.30 | X-H torsion
[ 10763 10752 10751 10750 ] final  -61.19 input  -60.55 | X-H torsion
[ 11005 11000 10999 10996 ] final -173.86 input  -57.11 | X-H torsion

> <Gold.Protein.ActiveResidues>
 VAL166  LYS551  ARG553  GLY616  TRP617  ASP618  TYR619  PRO620  LYS621  CYS622 
 ASP623  PHE694  ASN695  SER759  ASP760  ASP761  ALA762  ILE779  LEU786  VAL792 
 PHE793  MET794  SER795  GLU796  ALA797  LYS798  CYS799  TRP800  GLU811  SER814 

> <Gold.Protein.RotatedAtoms>
  151.2427  133.4391  159.2607 H   0  0  0  0  0  0  0  0  0  0  0  0  # atno 6907 bound_to 6896
  151.0690  134.9786  159.8309 H   0  0  0  0  0  0  0  0  0  0  0  0  # atno 6908 bound_to 6896
  152.5409  134.2374  159.8901 H   0  0  0  0  0  0  0  0  0  0  0  0  # atno 6909 bound_to 6896
  144.7142  140.1703  143.6368 H   0  0  0  0  0  0  0  0  0  0  0  0  # atno 7974 bound_to 7965
  156.2887  140.2672  156.2253 H   0  0  0  0  0  0  0  0  0  0  0  0  # atno 8008 bound_to 7997
  155.0127  140.0387  157.2424 H   0  0  0  0  0  0  0  0  0  0  0  0  # atno 8009 bound_to 7997
  154.7504  140.2742  155.6302 H   0  0  0  0  0  0  0  0  0  0  0  0  # atno 8010 bound_to 7997
  139.6742  144.7123  151.1632 H   0  0  0  0  0  0  0  0  0  0  0  0  # atno 10167 bound_to 10162
  157.2497  130.7109  149.6399 H   0  0  0  0  0  0  0  0  0  0  0  0  # atno 10718 bound_to 10713
  154.2807  135.6272  153.5346 H   0  0  0  0  0  0  0  0  0  0  0  0  # atno 10763 bound_to 10752
  152.9866  135.5632  154.5498 H   0  0  0  0  0  0  0  0  0  0  0  0  # atno 10764 bound_to 10752
  154.5088  135.2876  155.1335 H   0  0  0  0  0  0  0  0  0  0  0  0  # atno 10765 bound_to 10752
  140.4810  134.6076  157.4919 H   0  0  0  0  0  0  0  0  0  0  0  0  # atno 11005 bound_to 11000
  145.8949  139.2397  143.1527 LP  0  0  0  0  0  0  0  0  0  0  0  0  # atno 17320 bound_to 7965
  145.9867  140.8637  143.0087 LP  0  0  0  0  0  0  0  0  0  0  0  0  # atno 17321 bound_to 7965
  140.7629  143.5797  150.8907 LP  0  0  0  0  0  0  0  0  0  0  0  0  # atno 17342 bound_to 10162
  139.9465  143.6321  152.3040 LP  0  0  0  0  0  0  0  0  0  0  0  0  # atno 17343 bound_to 10162
  155.9666  130.4432  150.5410 LP  0  0  0  0  0  0  0  0  0  0  0  0  # atno 17370 bound_to 10713
  157.3291  131.0696  151.1874 LP  0  0  0  0  0  0  0  0  0  0  0  0  # atno 17371 bound_to 10713
  139.9827  134.7112  155.9831 LP  0  0  0  0  0  0  0  0  0  0  0  0  # atno 17394 bound_to 11000
  141.1531  133.6546  156.4076 LP  0  0  0  0  0  0  0  0  0  0  0  0  # atno 17395 bound_to 11000

$$$$
