AV-unprocessed.smi:1605|AV-procd|sdf|6451|dock7
  -GOLD-   22720 7103D 1   1.00000     0.00000
 Structure written by MMmdl.
 51 53  0  0  0  0  0  0  0  0  2 V2000
  145.7200  131.7706  150.3369 C   0  0  0  0  0  0  0  0  0  0  0  0
  146.3540  132.3114  151.4862 O   0  0  0  0  0  0  0  0  0  0  0  0
  145.7798  133.5237  151.9559 C   0  0  2  0  0  0  0  0  0  0  0  0
  145.6616  134.5625  150.8256 C   0  0  0  0  0  0  0  0  0  0  0  0
  145.1837  135.9183  151.3706 C   0  0  0  0  0  0  0  0  0  0  0  0
  146.0867  136.4185  152.4418 N   0  3  1  0  0  0  0  0  0  0  0  0
  145.7293  137.7800  152.9150 C   0  0  0  0  0  0  0  0  0  0  0  0
  146.9512  138.7237  152.9710 C   0  0  2  0  0  0  0  0  0  0  0  0
  147.6739  138.6050  151.7623 O   0  0  0  0  0  0  0  0  0  0  0  0
  147.9159  138.4136  154.1318 C   0  0  0  0  0  0  0  0  0  0  0  0
  148.6717  139.5805  154.5488 N   0  0  0  0  0  0  0  0  0  0  0  0
  148.7133  140.7779  153.9333 C   0  0  0  0  0  0  0  0  0  0  0  0
  149.4657  141.7223  154.4896 N   0  0  0  0  0  0  0  0  0  0  0  0
  149.9793  141.0586  155.5906 C   0  0  0  0  0  0  0  0  0  0  0  0
  150.8576  141.5039  156.6023 C   0  0  0  0  0  0  0  0  0  0  0  0
  151.2521  140.6424  157.6506 C   0  0  0  0  0  0  0  0  0  0  0  0
  152.2018  141.1624  158.7154 C   0  0  0  0  0  0  0  0  0  0  0  0
  150.7630  139.3122  157.6993 C   0  0  0  0  0  0  0  0  0  0  0  0
  151.1714  138.3698  158.8177 C   0  0  0  0  0  0  0  0  0  0  0  0
  149.8855  138.8504  156.6959 C   0  0  0  0  0  0  0  0  0  0  0  0
  149.5025  139.7165  155.6563 C   0  0  0  0  0  0  0  0  0  0  0  0
  146.1978  135.4447  153.5583 C   0  0  0  0  0  0  0  0  0  0  0  0
  146.6952  134.0788  153.0569 C   0  0  0  0  0  0  0  0  0  0  0  0
  146.1965  130.8272  150.0712 H   0  0  0  0  0  0  0  0  0  0  0  0
  145.8019  132.4342  149.4763 H   0  0  0  0  0  0  0  0  0  0  0  0
  144.6650  131.5689  150.5254 H   0  0  0  0  0  0  0  0  0  0  0  0
  144.7966  133.3277  152.3883 H   0  0  0  0  0  0  0  0  0  0  0  0
  146.6283  134.6861  150.3353 H   0  0  0  0  0  0  0  0  0  0  0  0
  144.9667  134.2206  150.0590 H   0  0  0  0  0  0  0  0  0  0  0  0
  145.1354  136.6313  150.5484 H   0  0  0  0  0  0  0  0  0  0  0  0
  144.1698  135.8246  151.7632 H   0  0  0  0  0  0  0  0  0  0  0  0
  144.9505  138.1758  152.2626 H   0  0  0  0  0  0  0  0  0  0  0  0
  145.2869  137.7288  153.9113 H   0  0  0  0  0  0  0  0  0  0  0  0
  146.6291  139.7606  153.0638 H   0  0  0  0  0  0  0  0  0  0  0  0
  148.3552  139.2604  151.7490 H   0  0  0  0  0  0  0  0  0  0  0  0
  147.3706  138.0234  154.9920 H   0  0  0  0  0  0  0  0  0  0  0  0
  148.6261  137.6394  153.8367 H   0  0  0  0  0  0  0  0  0  0  0  0
  148.1549  140.9686  153.0283 H   0  0  0  0  0  0  0  0  0  0  0  0
  151.2288  142.5177  156.5659 H   0  0  0  0  0  0  0  0  0  0  0  0
  153.0922  140.5361  158.7742 H   0  0  0  0  0  0  0  0  0  0  0  0
  151.7157  141.1678  159.6914 H   0  0  0  0  0  0  0  0  0  0  0  0
  152.5256  142.1803  158.4966 H   0  0  0  0  0  0  0  0  0  0  0  0
  150.6708  137.4056  158.7288 H   0  0  0  0  0  0  0  0  0  0  0  0
  150.9122  138.7918  159.7890 H   0  0  0  0  0  0  0  0  0  0  0  0
  152.2467  138.1925  158.7931 H   0  0  0  0  0  0  0  0  0  0  0  0
  149.5076  137.8392  156.7216 H   0  0  0  0  0  0  0  0  0  0  0  0
  146.8935  135.8224  154.3086 H   0  0  0  0  0  0  0  0  0  0  0  0
  145.2285  135.3379  154.0481 H   0  0  0  0  0  0  0  0  0  0  0  0
  146.7455  133.3752  153.8885 H   0  0  0  0  0  0  0  0  0  0  0  0
  147.7124  134.1794  152.6753 H   0  0  0  0  0  0  0  0  0  0  0  0
  147.0112  136.4936  152.0406 H   0  0  0  0  0  0  0  0  0  0  0  0
  1  2  1  0  0  0  0
  1 24  1  0  0  0  0
  1 25  1  0  0  0  0
  1 26  1  0  0  0  0
  2  3  1  0  0  0  0
  3 23  1  0  0  0  0
  3  4  1  0  0  0  0
  3 27  1  0  0  0  0
  4  5  1  0  0  0  0
  4 28  1  0  0  0  0
  4 29  1  0  0  0  0
  5  6  1  0  0  0  0
  5 30  1  0  0  0  0
  5 31  1  0  0  0  0
  6  7  1  0  0  0  0
  6 22  1  0  0  0  0
  6 51  1  0  0  0  0
  7  8  1  0  0  0  0
  7 32  1  0  0  0  0
  7 33  1  0  0  0  0
  8  9  1  0  0  0  0
  8 10  1  0  0  0  0
  8 34  1  0  0  0  0
  9 35  1  0  0  0  0
 10 11  1  0  0  0  0
 10 36  1  0  0  0  0
 10 37  1  0  0  0  0
 11 21  1  0  0  0  0
 11 12  1  0  0  0  0
 12 13  2  0  0  0  0
 12 38  1  0  0  0  0
 13 14  1  0  0  0  0
 14 21  2  0  0  0  0
 14 15  1  0  0  0  0
 15 16  2  0  0  0  0
 15 39  1  0  0  0  0
 16 17  1  0  0  0  0
 16 18  1  0  0  0  0
 17 40  1  0  0  0  0
 17 41  1  0  0  0  0
 17 42  1  0  0  0  0
 18 19  1  0  0  0  0
 18 20  2  0  0  0  0
 19 43  1  0  0  0  0
 19 44  1  0  0  0  0
 19 45  1  0  0  0  0
 20 21  1  0  0  0  0
 20 46  1  0  0  0  0
 22 23  1  0  0  0  0
 22 47  1  0  0  0  0
 22 48  1  0  0  0  0
 23 49  1  0  0  0  0
 23 50  1  0  0  0  0
M  CHG  1   6   1
M  END
> <s_m_source_file>
AV-unprocessed.smi

> <i_m_source_file_index>
1605

> <i_lp_mmshare_version>
43012

> <i_f3d_flags>
0

> <s_epik_input>
W0NIM11PW0NIXTFbQ0gyXVtDSDJdTihbQ0gyXVtDSDJdMSlbQ0gyXVtDQEhdKFtPSF0pW0NIMl1uKFtjSF1uMiljKGMyMylbY0hdYyhbQ0gzXSljKFtjSF0zKVtDSDNd

> <s_epik_cmdline>
J2VwaWtfcHl0aG9uJywgJy1waCcsICc3LjAnLCAnLXRuJywgJzgnLCAnLW1hJywgJzIwMCcsICctbWV0YWxfYmluZGluZycsICctaW1hZScsICc8aW5maWxlLm1hZT4nLCAnLW9tYWUnLCAnPG91dGZpbGUubWFlPic=

> <r_epik_Ionization_Penalty>
0.110943

> <r_epik_Ionization_Penalty_Charging>
0.0229283

> <r_epik_Ionization_Penalty_Neutral>
0.0880146

> <r_epik_State_Penalty>
0.0947554

> <r_epik_Charging_Adjusted_Penalty>
0.117684

> <i_epik_Tot_Q>
1

> <i_epik_Tot_abs_Q>
1

> <r_epik_Metal_State_Penalty>
0.0192456

> <b_epik_Metal_Only>
0

> <s_lp_Force_Field>
OPLS_2005

> <r_lp_Energy>
22.9289

> <b_lp_Chiralities_Consistent>
1

> <s_lp_Variant>
AV-unprocessed.smi:1605-1

> <Gold.Version>
5.8.1

> <Gold.Id.Protein>
6NUR|6NUR_protein|mol2

> <Gold.PLP.Fitness>
48.6143

> <Gold.PLP.PLP>
-38.2100

> <Gold.PLP.part.hbond>
-5.6572

> <Gold.PLP.part.metal>
0.0000

> <Gold.PLP.part.buried>
-2.2019

> <Gold.PLP.part.nonpolar>
-30.5783

> <Gold.PLP.part.repulsive>
0.3421

> <Gold.PLP.ligand.clash>
0.0000

> <Gold.PLP.ligand.torsion>
1.1146

> <Gold.PLP.Chemscore.Hbond>
3.6702

> <Gold.PLP.Chemscore.CHOScore>
0.4911

> <Gold.PLP.Chemscore.Metal>
0.0000

> <Gold.Chemscore.Hbonds>
donor molecule, donor type, donor heavy atom, donor atom, acceptor molecule, acceptor atom, score
      L1  H     6    51       P1  7948  2.00
      L1  H     9    35       P1  7957  1.00
      P1  H  7954  7966       L1     9  0.58
      P1  H  8011  8017       L1    13  0.04
      L1  C    12    38       P1  7957  0.51

> <Gold.PLP.Chemscore.Internal.Correction>
0.1497

> <Gold.Rescore>
     Score         DG    S(hbond)    S(metal)    S(lipo)     H(rot)  DE(clash)    DE(int)     intcor
     15.82     -16.91       1.95        0.00      90.43       2.22       0.06       1.02       ----

> <Gold.Chemscore.Fitness>
15.8211

> <Gold.Chemscore.DG>
-16.9083

> <Gold.Chemscore.ZeroCoef>
-5.4800

> <Gold.Chemscore.Hbond>
1.9529

> <Gold.Chemscore.Metal>
0.0000

> <Gold.Chemscore.Lipo>
90.4346

> <Gold.Chemscore.Internal_Hbond>
0.0000

> <Gold.Chemscore.DEClash>
0.0622

> <Gold.Chemscore.DEInternal>
1.0250

> <Gold.Chemscore.Rot>
2.2169

> <Gold.Chemscore.Internal.Correction>
   9.000000E+99

> <Gold.Chemscore.Hbonds>
donor molecule, donor type, donor heavy atom, donor atom, acceptor molecule, acceptor atom, score
      L1  H     6    51       P1  7948  0.98
      L1  H     9    35       P1  7957  0.92
      P1  H  7954  7966       L1     9  0.05

> <Gold.Chemscore.Hbond.Weighted>
-6.5228

> <Gold.Chemscore.Metal.Weighted>
-0.0000

> <Gold.Chemscore.Lipo.Weighted>
-10.5809

> <Gold.Chemscore.Internal_Hbond.Weighted>
0.0000

> <Gold.Chemscore.DEClash.Weighted>
0.0622

> <Gold.Chemscore.DEInternal.Weighted>
1.0250

> <Gold.Chemscore.Rot.Weighted>
5.6753

> <Gold.Chemscore.Internal.Correction.Weighted>
   9.000000E+99

> <Gold.Protein.RotatedTorsions>
[ 6907 6896 6895 6894 ] final  -30.13 input  -60.11 | X-H torsion
[ 7974 7965 7964 7962 ] final   91.43 input  175.53 | X-H torsion
[ 8008 7997 7996 7995 ] final   36.77 input   59.86 | X-H torsion
[ 10167 10162 10161 10158 ] final  -62.79 input  -65.29 | X-H torsion
[ 10718 10713 10712 10709 ] final -144.57 input   66.30 | X-H torsion
[ 10763 10752 10751 10750 ] final  -21.68 input  -60.55 | X-H torsion
[ 11005 11000 10999 10996 ] final -153.00 input  -57.11 | X-H torsion

> <Gold.Protein.ActiveResidues>
 VAL166  LYS551  ARG553  GLY616  TRP617  ASP618  TYR619  PRO620  LYS621  CYS622 
 ASP623  PHE694  ASN695  SER759  ASP760  ASP761  ALA762  ILE779  LEU786  VAL792 
 PHE793  MET794  SER795  GLU796  ALA797  LYS798  CYS799  TRP800  GLU811  SER814 

> <Gold.Protein.RotatedAtoms>
  151.1097  135.0019  159.8487 H   0  0  0  0  0  0  0  0  0  0  0  0  # atno 6907 bound_to 6896
  152.5442  134.1851  159.8661 H   0  0  0  0  0  0  0  0  0  0  0  0  # atno 6908 bound_to 6896
  151.1900  133.4628  159.2628 H   0  0  0  0  0  0  0  0  0  0  0  0  # atno 6909 bound_to 6896
  145.5057  139.2276  143.2752 H   0  0  0  0  0  0  0  0  0  0  0  0  # atno 7974 bound_to 7965
  155.1929  140.3309  155.4355 H   0  0  0  0  0  0  0  0  0  0  0  0  # atno 8008 bound_to 7997
  156.2435  140.1907  156.6971 H   0  0  0  0  0  0  0  0  0  0  0  0  # atno 8009 bound_to 7997
  154.6194  140.0597  156.9581 H   0  0  0  0  0  0  0  0  0  0  0  0  # atno 8010 bound_to 7997
  140.5915  143.2342  151.6129 H   0  0  0  0  0  0  0  0  0  0  0  0  # atno 10167 bound_to 10162
  156.3718  130.7792  151.1973 H   0  0  0  0  0  0  0  0  0  0  0  0  # atno 10718 bound_to 10713
  153.6399  135.6985  153.5245 H   0  0  0  0  0  0  0  0  0  0  0  0  # atno 10763 bound_to 10752
  153.2791  135.4191  155.1061 H   0  0  0  0  0  0  0  0  0  0  0  0  # atno 10764 bound_to 10752
  154.8502  135.3597  154.5943 H   0  0  0  0  0  0  0  0  0  0  0  0  # atno 10765 bound_to 10752
  140.7129  134.3813  157.5195 H   0  0  0  0  0  0  0  0  0  0  0  0  # atno 11005 bound_to 11000
  146.2198  140.5861  142.9022 LP  0  0  0  0  0  0  0  0  0  0  0  0  # atno 17320 bound_to 7965
  144.7755  140.5730  143.6641 LP  0  0  0  0  0  0  0  0  0  0  0  0  # atno 17321 bound_to 7965
  139.5230  144.3144  152.0965 LP  0  0  0  0  0  0  0  0  0  0  0  0  # atno 17342 bound_to 10162
  140.2310  144.4369  150.6300 LP  0  0  0  0  0  0  0  0  0  0  0  0  # atno 17343 bound_to 10162
  157.7484  131.0370  150.4435 LP  0  0  0  0  0  0  0  0  0  0  0  0  # atno 17370 bound_to 10713
  156.4664  130.4043  149.6545 LP  0  0  0  0  0  0  0  0  0  0  0  0  # atno 17371 bound_to 10713
  139.8867  134.8902  156.2569 LP  0  0  0  0  0  0  0  0  0  0  0  0  # atno 17394 bound_to 11000
  141.0069  133.7118  156.1050 LP  0  0  0  0  0  0  0  0  0  0  0  0  # atno 17395 bound_to 11000

$$$$
