AV-unprocessed.smi:1680|AV-procd|sdf|6740|dock9
  -GOLD-   22720 7493D 1   1.00000     0.00000
 Structure written by MMmdl.
 38 39  0  0  0  0  0  0  0  0  3 V2000
  142.7415  133.2116  151.3899 C   0  0  0  0  0  0  0  0  0  0  0  0
  144.0401  132.7642  150.7153 C   0  0  0  0  0  0  0  0  0  0  0  0
  143.9970  131.7867  149.9685 O   0  0  0  0  0  0  0  0  0  0  0  0
  145.1841  133.4481  150.9582 N   0  0  0  0  0  0  0  0  0  0  0  0
  146.4796  133.0559  150.3962 C   0  0  0  0  0  0  0  0  0  0  0  0
  147.4019  132.5871  151.5360 C   0  0  0  0  0  0  0  0  0  0  0  0
  147.5382  133.6266  152.5914 N   0  3  0  0  0  0  0  0  0  0  0  0
  148.4366  133.1919  153.6894 C   0  0  0  0  0  0  0  0  0  0  0  0
  148.5775  134.2578  154.7921 C   0  0  0  0  0  0  0  0  0  0  0  0
  149.5872  135.2499  154.4427 N   0  0  0  0  0  0  0  0  0  0  0  0
  150.6003  135.6437  155.2274 C   0  0  0  0  0  0  0  0  0  0  0  0
  150.7363  135.1484  156.3487 O   0  0  0  0  0  0  0  0  0  0  0  0
  151.3865  136.5895  154.6670 N   0  5  0  0  0  0  0  0  0  0  0  0
  151.0261  137.8824  154.7235 C   0  0  0  0  0  0  0  0  0  0  0  0
  151.9248  138.8730  154.8395 N   0  0  0  0  0  0  0  0  0  0  0  0
  151.3459  140.1343  154.8751 N   0  0  0  0  0  0  0  0  0  0  0  0
  150.0186  140.0624  154.7771 C   0  0  0  0  0  0  0  0  0  0  0  0
  149.3559  138.4485  154.6287 S   0  0  0  0  0  0  0  0  0  0  0  0
  146.2222  134.1365  153.0680 C   0  0  0  0  0  0  0  0  0  0  0  0
  145.3256  134.5689  151.8928 C   0  0  0  0  0  0  0  0  0  0  0  0
  142.8331  133.1666  152.4755 H   0  0  0  0  0  0  0  0  0  0  0  0
  141.9141  132.5630  151.0994 H   0  0  0  0  0  0  0  0  0  0  0  0
  142.4838  134.2297  151.0962 H   0  0  0  0  0  0  0  0  0  0  0  0
  146.3964  132.2704  149.6438 H   0  0  0  0  0  0  0  0  0  0  0  0
  146.9218  133.9117  149.8840 H   0  0  0  0  0  0  0  0  0  0  0  0
  147.0056  131.6722  151.9798 H   0  0  0  0  0  0  0  0  0  0  0  0
  148.3849  132.3442  151.1311 H   0  0  0  0  0  0  0  0  0  0  0  0
  148.0835  132.2475  154.1062 H   0  0  0  0  0  0  0  0  0  0  0  0
  149.4256  132.9928  153.2738 H   0  0  0  0  0  0  0  0  0  0  0  0
  147.6203  134.7476  154.9793 H   0  0  0  0  0  0  0  0  0  0  0  0
  148.8853  133.8057  155.7341 H   0  0  0  0  0  0  0  0  0  0  0  0
  149.5159  135.6765  153.5303 H   0  0  0  0  0  0  0  0  0  0  0  0
  149.4266  140.9653  154.7894 H   0  0  0  0  0  0  0  0  0  0  0  0
  145.7202  133.3590  153.6464 H   0  0  0  0  0  0  0  0  0  0  0  0
  146.3647  134.9854  153.7355 H   0  0  0  0  0  0  0  0  0  0  0  0
  145.7812  135.4103  151.3687 H   0  0  0  0  0  0  0  0  0  0  0  0
  144.3775  134.9443  152.2751 H   0  0  0  0  0  0  0  0  0  0  0  0
  148.0006  134.4052  152.1438 H   0  0  0  0  0  0  0  0  0  0  0  0
  1  2  1  0  0  0  0
  1 21  1  0  0  0  0
  1 22  1  0  0  0  0
  1 23  1  0  0  0  0
  2  3  2  0  0  0  0
  2  4  1  0  0  0  0
  4 20  1  0  0  0  0
  4  5  1  0  0  0  0
  5  6  1  0  0  0  0
  5 24  1  0  0  0  0
  5 25  1  0  0  0  0
  6  7  1  0  0  0  0
  6 26  1  0  0  0  0
  6 27  1  0  0  0  0
  7  8  1  0  0  0  0
  7 19  1  0  0  0  0
  7 38  1  0  0  0  0
  8  9  1  0  0  0  0
  8 28  1  0  0  0  0
  8 29  1  0  0  0  0
  9 10  1  0  0  0  0
  9 30  1  0  0  0  0
  9 31  1  0  0  0  0
 10 11  1  0  0  0  0
 10 32  1  0  0  0  0
 11 12  2  0  0  0  0
 11 13  1  0  0  0  0
 13 14  1  0  0  0  0
 14 18  1  0  0  0  0
 14 15  2  0  0  0  0
 15 16  1  0  0  0  0
 16 17  2  0  0  0  0
 17 18  1  0  0  0  0
 17 33  1  0  0  0  0
 19 20  1  0  0  0  0
 19 34  1  0  0  0  0
 19 35  1  0  0  0  0
 20 36  1  0  0  0  0
 20 37  1  0  0  0  0
M  CHG  1   7   1
M  CHG  1  13  -1
M  END
> <s_m_source_file>
AV-unprocessed.smi

> <i_m_source_file_index>
1680

> <i_lp_mmshare_version>
43012

> <i_f3d_flags>
0

> <s_epik_input>
W0NIM11DKD1PKU4xW0NIMl1bQ0gyXU4oW0NIMl1bQ0gyXTEpW0NIMl1bQ0gyXVtOSF1DKD1PKVtOSF1jMm5uW2NIXXMy

> <s_epik_cmdline>
J2VwaWtfcHl0aG9uJywgJy1waCcsICc3LjAnLCAnLXRuJywgJzgnLCAnLW1hJywgJzIwMCcsICctbWV0YWxfYmluZGluZycsICctaW1hZScsICc8aW5maWxlLm1hZT4nLCAnLW9tYWUnLCAnPG91dGZpbGUubWFlPic=

> <r_lp_tautomer_probability>
1

> <r_epik_Ionization_Penalty>
3.68953

> <r_epik_Ionization_Penalty_Charging>
3.65812

> <r_epik_Ionization_Penalty_Neutral>
0.0314116

> <r_epik_State_Penalty>
3.68215

> <r_epik_Charging_Adjusted_Penalty>
7.34027

> <i_epik_Tot_Q>
0

> <i_epik_Tot_abs_Q>
2

> <r_epik_Metal_State_Penalty>
1.11495

> <b_epik_Metal_Only>
1

> <s_lp_Force_Field>
OPLS_2005

> <r_lp_Energy>
32.4697

> <b_lp_Chiralities_Consistent>
1

> <s_lp_Variant>
AV-unprocessed.smi:1680-4

> <Gold.Version>
5.8.1

> <Gold.Id.Protein>
6NUR|6NUR_protein|mol2

> <Gold.PLP.Fitness>
47.8211

> <Gold.PLP.PLP>
-30.9824

> <Gold.PLP.part.hbond>
-5.2063

> <Gold.PLP.part.metal>
0.0000

> <Gold.PLP.part.buried>
0.4946

> <Gold.PLP.part.nonpolar>
-27.0133

> <Gold.PLP.part.repulsive>
0.5096

> <Gold.PLP.ligand.clash>
0.0000

> <Gold.PLP.ligand.torsion>
1.1825

> <Gold.PLP.Chemscore.Hbond>
6.3841

> <Gold.PLP.Chemscore.CHOScore>
0.0000

> <Gold.PLP.Chemscore.Metal>
0.0000

> <Gold.Chemscore.Hbonds>
donor molecule, donor type, donor heavy atom, donor atom, acceptor molecule, acceptor atom, score
      L1  H     7    38       P1  7948  1.80
      L1  H    10    32       P1  7948  0.95
      P1  H  7989  7998       L1    16  0.95
      P1  H 10752 10764       L1    13  2.00
      P1  H 10785 10796       L1     3  0.45

> <Gold.PLP.Chemscore.Internal.Correction>
0.0514

> <Gold.Rescore>
     Score         DG    S(hbond)    S(metal)    S(lipo)     H(rot)  DE(clash)    DE(int)     intcor
     13.24     -16.85       3.03        0.00      50.17       1.80       2.56       1.05       ----

> <Gold.Chemscore.Fitness>
13.2409

> <Gold.Chemscore.DG>
-16.8455

> <Gold.Chemscore.ZeroCoef>
-5.4800

> <Gold.Chemscore.Hbond>
3.0254

> <Gold.Chemscore.Metal>
0.0000

> <Gold.Chemscore.Lipo>
50.1659

> <Gold.Chemscore.Internal_Hbond>
0.0000

> <Gold.Chemscore.DEClash>
2.5567

> <Gold.Chemscore.DEInternal>
1.0478

> <Gold.Chemscore.Rot>
1.8003

> <Gold.Chemscore.Internal.Correction>
   9.000000E+99

> <Gold.Chemscore.Hbonds>
donor molecule, donor type, donor heavy atom, donor atom, acceptor molecule, acceptor atom, score
      L1  H     7    38       P1  7948  0.17
      L1  H    10    32       P1  7948  0.22
      P1  H  7989  7998       L1    16  0.15
      P1  H 10752 10764       L1    13  0.30
      P1  H 10785 10796       L1     3  0.44

> <Gold.Chemscore.Hbond.Weighted>
-10.1048

> <Gold.Chemscore.Metal.Weighted>
-0.0000

> <Gold.Chemscore.Lipo.Weighted>
-5.8694

> <Gold.Chemscore.Internal_Hbond.Weighted>
0.0000

> <Gold.Chemscore.DEClash.Weighted>
2.5567

> <Gold.Chemscore.DEInternal.Weighted>
1.0478

> <Gold.Chemscore.Rot.Weighted>
4.6088

> <Gold.Chemscore.Internal.Correction.Weighted>
   9.000000E+99

> <Gold.Protein.RotatedTorsions>
[ 6907 6896 6895 6894 ] final -126.88 input  -60.11 | X-H torsion
[ 7974 7965 7964 7962 ] final -148.65 input  175.53 | X-H torsion
[ 8008 7997 7996 7995 ] final  -89.86 input   59.86 | X-H torsion
[ 10167 10162 10161 10158 ] final  120.28 input  -65.29 | X-H torsion
[ 10718 10713 10712 10709 ] final   84.45 input   66.30 | X-H torsion
[ 10763 10752 10751 10750 ] final  -73.71 input  -60.55 | X-H torsion
[ 11005 11000 10999 10996 ] final   88.28 input  -57.11 | X-H torsion

> <Gold.Protein.ActiveResidues>
 VAL166  LYS551  ARG553  GLY616  TRP617  ASP618  TYR619  PRO620  LYS621  CYS622 
 ASP623  PHE694  ASN695  SER759  ASP760  ASP761  ALA762  ILE779  LEU786  VAL792 
 PHE793  MET794  SER795  GLU796  ALA797  LYS798  CYS799  TRP800  GLU811  SER814 

> <Gold.Protein.RotatedAtoms>
  150.9015  133.7112  159.2877 H   0  0  0  0  0  0  0  0  0  0  0  0  # atno 6907 bound_to 6896
  151.4629  135.1038  159.9739 H   0  0  0  0  0  0  0  0  0  0  0  0  # atno 6908 bound_to 6896
  152.4879  133.8374  159.7190 H   0  0  0  0  0  0  0  0  0  0  0  0  # atno 6909 bound_to 6896
  144.8016  140.5168  143.5703 H   0  0  0  0  0  0  0  0  0  0  0  0  # atno 7974 bound_to 7965
  154.6916  140.0537  157.0369 H   0  0  0  0  0  0  0  0  0  0  0  0  # atno 8008 bound_to 7997
  155.0808  140.3209  155.4583 H   0  0  0  0  0  0  0  0  0  0  0  0  # atno 8009 bound_to 7997
  156.2730  140.2065  156.5936 H   0  0  0  0  0  0  0  0  0  0  0  0  # atno 8010 bound_to 7997
  139.5992  144.7051  151.3103 H   0  0  0  0  0  0  0  0  0  0  0  0  # atno 10167 bound_to 10162
  157.6898  131.0133  150.2674 H   0  0  0  0  0  0  0  0  0  0  0  0  # atno 10718 bound_to 10713
  154.4633  135.5888  153.6270 H   0  0  0  0  0  0  0  0  0  0  0  0  # atno 10763 bound_to 10752
  152.9825  135.6049  154.3459 H   0  0  0  0  0  0  0  0  0  0  0  0  # atno 10764 bound_to 10752
  154.3333  135.2842  155.2439 H   0  0  0  0  0  0  0  0  0  0  0  0  # atno 10765 bound_to 10752
  139.8900  134.8477  156.2978 H   0  0  0  0  0  0  0  0  0  0  0  0  # atno 11005 bound_to 11000
  145.5539  139.1477  143.3379 LP  0  0  0  0  0  0  0  0  0  0  0  0  # atno 17320 bound_to 7965
  146.2299  140.5677  142.8980 LP  0  0  0  0  0  0  0  0  0  0  0  0  # atno 17321 bound_to 7965
  140.7236  143.7066  150.7802 LP  0  0  0  0  0  0  0  0  0  0  0  0  # atno 17342 bound_to 10162
  140.0639  143.5127  152.2614 LP  0  0  0  0  0  0  0  0  0  0  0  0  # atno 17343 bound_to 10162
  156.3243  130.3790  149.7547 LP  0  0  0  0  0  0  0  0  0  0  0  0  # atno 17370 bound_to 10713
  156.5108  130.8171  151.3168 LP  0  0  0  0  0  0  0  0  0  0  0  0  # atno 17371 bound_to 10713
  140.9933  133.7195  156.0847 LP  0  0  0  0  0  0  0  0  0  0  0  0  # atno 17394 bound_to 11000
  140.7596  134.3954  157.5528 LP  0  0  0  0  0  0  0  0  0  0  0  0  # atno 17395 bound_to 11000

$$$$
