AV-unprocessed.smi:2930|AV-procd|sdf|11241|dock8
  -GOLD-   2272016133D 1   1.00000     0.00000
 Structure written by MMmdl.
 40 41  0  0  0  0  0  0  0  0  1 V2000
  143.6059  135.6752  153.4500 C   0  0  0  0  0  0  0  0  0  0  0  0
  143.7694  136.4182  152.1168 C   0  0  1  0  0  0  0  0  0  0  0  0
  144.5097  137.6568  152.3453 N   0  0  0  0  0  0  0  0  0  0  0  0
  145.6922  137.7591  152.9693 C   0  0  0  0  0  0  0  0  0  0  0  0
  146.3063  136.7973  153.4297 O   0  0  0  0  0  0  0  0  0  0  0  0
  146.0926  139.0399  153.0393 N   0  0  0  0  0  0  0  0  0  0  0  0
  147.2855  139.5597  153.6090 C   0  0  0  0  0  0  0  0  0  0  0  0
  147.5094  140.9189  153.9341 C   0  0  0  0  0  0  0  0  0  0  0  0
  148.6674  141.3323  154.4923 N   0  0  0  0  0  0  0  0  0  0  0  0
  149.6079  140.4101  154.7355 C   0  0  0  0  0  0  0  0  0  0  0  0
  150.8055  140.8476  155.3088 N   0  0  0  0  0  0  0  0  0  0  0  0
  151.9936  139.9989  155.3189 C   0  0  0  0  0  0  0  0  0  0  0  0
  150.9124  142.1695  155.9198 C   0  0  0  0  0  0  0  0  0  0  0  0
  149.4903  139.1011  154.4759 N   0  0  0  0  0  0  0  0  0  0  0  0
  148.3367  138.6747  153.9202 C   0  0  0  0  0  0  0  0  0  0  0  0
  144.4864  135.5659  151.0679 C   0  0  0  0  0  0  0  0  0  0  0  0
  144.0829  134.0982  150.8541 C   0  0  0  0  0  0  0  0  0  0  0  0
  145.5516  133.7859  150.5559 C   0  0  0  0  0  0  0  0  0  0  0  0
  145.9102  135.0538  151.3359 C   0  0  0  0  0  0  0  0  0  0  0  0
  143.0234  134.7625  153.3225 H   0  0  0  0  0  0  0  0  0  0  0  0
  143.0878  136.2938  154.1835 H   0  0  0  0  0  0  0  0  0  0  0  0
  144.5724  135.3963  153.8713 H   0  0  0  0  0  0  0  0  0  0  0  0
  142.7664  136.6584  151.7593 H   0  0  0  0  0  0  0  0  0  0  0  0
  144.0807  138.5056  152.0072 H   0  0  0  0  0  0  0  0  0  0  0  0
  145.4453  139.7287  152.6847 H   0  0  0  0  0  0  0  0  0  0  0  0
  146.7698  141.6880  153.7755 H   0  0  0  0  0  0  0  0  0  0  0  0
  152.2910  139.7496  154.2997 H   0  0  0  0  0  0  0  0  0  0  0  0
  151.7939  139.0712  155.8560 H   0  0  0  0  0  0  0  0  0  0  0  0
  152.8398  140.4871  155.8023 H   0  0  0  0  0  0  0  0  0  0  0  0
  150.2062  142.2645  156.7454 H   0  0  0  0  0  0  0  0  0  0  0  0
  150.6919  142.9463  155.1870 H   0  0  0  0  0  0  0  0  0  0  0  0
  151.9113  142.3579  156.3131 H   0  0  0  0  0  0  0  0  0  0  0  0
  148.2561  137.6163  153.7201 H   0  0  0  0  0  0  0  0  0  0  0  0
  144.4828  136.0685  150.0978 H   0  0  0  0  0  0  0  0  0  0  0  0
  143.7285  133.6176  151.7676 H   0  0  0  0  0  0  0  0  0  0  0  0
  143.3991  133.9307  150.0215 H   0  0  0  0  0  0  0  0  0  0  0  0
  145.9209  132.8588  150.9953 H   0  0  0  0  0  0  0  0  0  0  0  0
  145.7938  133.8584  149.4944 H   0  0  0  0  0  0  0  0  0  0  0  0
  146.7032  135.6559  150.8913 H   0  0  0  0  0  0  0  0  0  0  0  0
  146.0984  134.8574  152.3928 H   0  0  0  0  0  0  0  0  0  0  0  0
  1  2  1  0  0  0  0
  1 20  1  0  0  0  0
  1 21  1  0  0  0  0
  1 22  1  0  0  0  0
  2  3  1  0  0  0  0
  2 16  1  0  0  0  0
  2 23  1  0  0  0  0
  3  4  1  0  0  0  0
  3 24  1  0  0  0  0
  4  5  2  0  0  0  0
  4  6  1  0  0  0  0
  6  7  1  0  0  0  0
  6 25  1  0  0  0  0
  7 15  1  0  0  0  0
  7  8  2  0  0  0  0
  8  9  1  0  0  0  0
  8 26  1  0  0  0  0
  9 10  2  0  0  0  0
 10 11  1  0  0  0  0
 10 14  1  0  0  0  0
 11 12  1  0  0  0  0
 11 13  1  0  0  0  0
 12 27  1  0  0  0  0
 12 28  1  0  0  0  0
 12 29  1  0  0  0  0
 13 30  1  0  0  0  0
 13 31  1  0  0  0  0
 13 32  1  0  0  0  0
 14 15  2  0  0  0  0
 15 33  1  0  0  0  0
 16 19  1  0  0  0  0
 16 17  1  0  0  0  0
 16 34  1  0  0  0  0
 17 18  1  0  0  0  0
 17 35  1  0  0  0  0
 17 36  1  0  0  0  0
 18 19  1  0  0  0  0
 18 37  1  0  0  0  0
 18 38  1  0  0  0  0
 19 39  1  0  0  0  0
 19 40  1  0  0  0  0
M  END
> <s_m_source_file>
AV-unprocessed.smi

> <i_m_source_file_index>
2930

> <i_lp_mmshare_version>
43012

> <i_f3d_flags>
0

> <s_epik_input>
W0NIMl0xW0NIMl1bQ0gyXVtDSF0xW0NASF0oW0NIM10pW05IXUMoPU8pW05IXWMyW2NIXW5jKE4oW0NIM10pW0NIM10pbltjSF0y

> <s_epik_cmdline>
J2VwaWtfcHl0aG9uJywgJy1waCcsICc3LjAnLCAnLXRuJywgJzgnLCAnLW1hJywgJzIwMCcsICctbWV0YWxfYmluZGluZycsICctaW1hZScsICc8aW5maWxlLm1hZT4nLCAnLW9tYWUnLCAnPG91dGZpbGUubWFlPic=

> <r_lp_tautomer_probability>
1

> <r_epik_Ionization_Penalty>
0.000323856

> <r_epik_Ionization_Penalty_Charging>
0

> <r_epik_Ionization_Penalty_Neutral>
0.000323856

> <r_epik_State_Penalty>
-0

> <r_epik_Charging_Adjusted_Penalty>
0

> <i_epik_Tot_Q>
0

> <i_epik_Tot_abs_Q>
0

> <r_epik_Metal_State_Penalty>
-0

> <b_epik_Metal_Only>
0

> <s_lp_Force_Field>
OPLS_2005

> <r_lp_Energy>
8.86729

> <b_lp_Chiralities_Consistent>
1

> <s_lp_Variant>
AV-unprocessed.smi:2930-2

> <Gold.Version>
5.8.1

> <Gold.Id.Protein>
6NUR|6NUR_protein|mol2

> <Gold.PLP.Fitness>
40.3031

> <Gold.PLP.PLP>
-31.9802

> <Gold.PLP.part.hbond>
-3.0000

> <Gold.PLP.part.metal>
0.0000

> <Gold.PLP.part.buried>
-3.1990

> <Gold.PLP.part.nonpolar>
-25.8453

> <Gold.PLP.part.repulsive>
0.4070

> <Gold.PLP.ligand.clash>
0.0000

> <Gold.PLP.ligand.torsion>
0.3168

> <Gold.PLP.Chemscore.Hbond>
1.9440

> <Gold.PLP.Chemscore.CHOScore>
1.0000

> <Gold.PLP.Chemscore.Metal>
0.0000

> <Gold.Chemscore.Hbonds>
donor molecule, donor type, donor heavy atom, donor atom, acceptor molecule, acceptor atom, score
      L1  H     3    24       P1 10175  0.91
      L1  H     6    25       P1 10175  1.00
      L1  C    15    33       P1  7948  1.00

> <Gold.PLP.Chemscore.Internal.Correction>
0.1244

> <Gold.Rescore>
     Score         DG    S(hbond)    S(metal)    S(lipo)     H(rot)  DE(clash)    DE(int)     intcor
     11.93     -16.15       1.92        0.00      62.42       1.19       0.07       4.15       ----

> <Gold.Chemscore.Fitness>
11.9321

> <Gold.Chemscore.DG>
-16.1453

> <Gold.Chemscore.ZeroCoef>
-5.4800

> <Gold.Chemscore.Hbond>
1.9223

> <Gold.Chemscore.Metal>
0.0000

> <Gold.Chemscore.Lipo>
62.4247

> <Gold.Chemscore.Internal_Hbond>
0.0000

> <Gold.Chemscore.DEClash>
0.0650

> <Gold.Chemscore.DEInternal>
4.1481

> <Gold.Chemscore.Rot>
1.1949

> <Gold.Chemscore.Internal.Correction>
   9.000000E+99

> <Gold.Chemscore.Hbonds>
donor molecule, donor type, donor heavy atom, donor atom, acceptor molecule, acceptor atom, score
      L1  H     3    24       P1 10175  0.84
      L1  H     6    25       P1 10175  0.96

> <Gold.Chemscore.Hbond.Weighted>
-6.4205

> <Gold.Chemscore.Metal.Weighted>
-0.0000

> <Gold.Chemscore.Lipo.Weighted>
-7.3037

> <Gold.Chemscore.Internal_Hbond.Weighted>
0.0000

> <Gold.Chemscore.DEClash.Weighted>
0.0650

> <Gold.Chemscore.DEInternal.Weighted>
4.1481

> <Gold.Chemscore.Rot.Weighted>
3.0590

> <Gold.Chemscore.Internal.Correction.Weighted>
   9.000000E+99

> <Gold.Protein.RotatedTorsions>
[ 6907 6896 6895 6894 ] final  157.74 input  -60.11 | X-H torsion
[ 7974 7965 7964 7962 ] final  134.94 input  175.53 | X-H torsion
[ 8008 7997 7996 7995 ] final  111.51 input   59.86 | X-H torsion
[ 10167 10162 10161 10158 ] final  -12.83 input  -65.29 | X-H torsion
[ 10718 10713 10712 10709 ] final -163.68 input   66.30 | X-H torsion
[ 10763 10752 10751 10750 ] final   27.27 input  -60.55 | X-H torsion
[ 11005 11000 10999 10996 ] final -149.72 input  -57.11 | X-H torsion

> <Gold.Protein.ActiveResidues>
 VAL166  LYS551  ARG553  GLY616  TRP617  ASP618  TYR619  PRO620  LYS621  CYS622 
 ASP623  PHE694  ASN695  SER759  ASP760  ASP761  ALA762  ILE779  LEU786  VAL792 
 PHE793  MET794  SER795  GLU796  ALA797  LYS798  CYS799  TRP800  GLU811  SER814 

> <Gold.Protein.RotatedAtoms>
  152.0107  133.3860  159.4218 H   0  0  0  0  0  0  0  0  0  0  0  0  # atno 6907 bound_to 6896
  150.6900  134.3733  159.5011 H   0  0  0  0  0  0  0  0  0  0  0  0  # atno 6908 bound_to 6896
  152.1494  134.9000  160.0599 H   0  0  0  0  0  0  0  0  0  0  0  0  # atno 6909 bound_to 6896
  144.9713  139.4602  143.5431 H   0  0  0  0  0  0  0  0  0  0  0  0  # atno 7974 bound_to 7965
  156.2129  140.3018  155.9772 H   0  0  0  0  0  0  0  0  0  0  0  0  # atno 8008 bound_to 7997
  155.2680  140.0432  157.3021 H   0  0  0  0  0  0  0  0  0  0  0  0  # atno 8009 bound_to 7997
  154.5725  140.2352  155.8179 H   0  0  0  0  0  0  0  0  0  0  0  0  # atno 8010 bound_to 7997
  140.7169  143.5491  150.9322 H   0  0  0  0  0  0  0  0  0  0  0  0  # atno 10167 bound_to 10162
  156.6281  130.8918  151.2972 H   0  0  0  0  0  0  0  0  0  0  0  0  # atno 10718 bound_to 10713
  153.0567  135.6541  154.0560 H   0  0  0  0  0  0  0  0  0  0  0  0  # atno 10763 bound_to 10752
  154.0237  135.2917  155.3379 H   0  0  0  0  0  0  0  0  0  0  0  0  # atno 10764 bound_to 10752
  154.6886  135.5292  153.8428 H   0  0  0  0  0  0  0  0  0  0  0  0  # atno 10765 bound_to 10752
  140.7478  134.3441  157.5133 H   0  0  0  0  0  0  0  0  0  0  0  0  # atno 11005 bound_to 11000
  146.3383  139.8927  142.8806 LP  0  0  0  0  0  0  0  0  0  0  0  0  # atno 17320 bound_to 7965
  145.2555  141.0059  143.3857 LP  0  0  0  0  0  0  0  0  0  0  0  0  # atno 17321 bound_to 7965
  139.9215  143.6600  152.3096 LP  0  0  0  0  0  0  0  0  0  0  0  0  # atno 17342 bound_to 10162
  139.7019  144.7634  151.1259 LP  0  0  0  0  0  0  0  0  0  0  0  0  # atno 17343 bound_to 10162
  157.7208  130.9556  150.1431 LP  0  0  0  0  0  0  0  0  0  0  0  0  # atno 17370 bound_to 10713
  156.2256  130.3677  149.8504 LP  0  0  0  0  0  0  0  0  0  0  0  0  # atno 17371 bound_to 10713
  139.8793  134.9122  156.3056 LP  0  0  0  0  0  0  0  0  0  0  0  0  # atno 17394 bound_to 11000
  140.9778  133.7286  156.0628 LP  0  0  0  0  0  0  0  0  0  0  0  0  # atno 17395 bound_to 11000

$$$$
