AV-unprocessed.smi:79|AV-procd|sdf|780|dock2
  -GOLD-   2262017143D 1   1.00000     0.00000
 Structure written by MMmdl.
 56 59  0  0  0  0  0  0  0  0  2 V2000
  145.9302  132.2616  151.1618 C   0  0  0  0  0  0  0  0  0  0  0  0
  146.0241  133.7763  150.9259 C   0  0  1  0  0  0  0  0  0  0  0  0
  145.0114  134.1434  150.0132 O   0  0  0  0  0  0  0  0  0  0  0  0
  145.8399  134.6018  152.2151 C   0  0  0  0  0  0  0  0  0  0  0  0
  147.0912  134.7256  153.0057 N   0  3  1  0  0  0  0  0  0  0  0  0
  146.9501  135.5979  154.2036 C   0  0  0  0  0  0  0  0  0  0  0  0
  148.2866  135.7358  154.9571 C   0  0  0  0  0  0  0  0  0  0  0  0
  148.8309  134.4249  155.2942 N   0  0  0  0  0  0  0  0  0  0  0  0
  148.3539  133.9444  156.4712 C   0  0  0  0  0  0  0  0  0  0  0  0
  147.7545  132.7264  156.5329 N   0  0  0  0  0  0  0  0  0  0  0  0
  147.2671  132.2737  157.6920 C   0  0  0  0  0  0  0  0  0  0  0  0
  147.2678  132.8692  158.8860 N   0  0  0  0  0  0  0  0  0  0  0  0
  147.8610  134.0960  158.8276 C   0  0  0  0  0  0  0  0  0  0  0  0
  148.4194  134.7053  157.6696 C   0  0  0  0  0  0  0  0  0  0  0  0
  148.9257  135.9585  157.9879 N   0  0  0  0  0  0  0  0  0  0  0  0
  148.6863  136.0813  159.2653 C   0  0  0  0  0  0  0  0  0  0  0  0
  148.0611  135.0041  159.8534 N   0  0  0  0  0  0  0  0  0  0  0  0
  147.6796  134.8692  161.2508 C   0  0  0  0  0  0  0  0  0  0  0  0
  146.2159  135.2494  161.5649 C   0  0  0  0  0  0  0  0  0  0  0  0
  146.0481  136.7800  161.5989 C   0  0  0  0  0  0  0  0  0  0  0  0
  147.1789  137.4294  162.1456 O   0  0  0  0  0  0  0  0  0  0  0  0
  145.1278  134.4625  160.8175 C   0  0  0  0  0  0  0  0  0  0  0  0
  144.8656  133.6195  161.9587 O   0  0  0  0  0  0  0  0  0  0  0  0
  145.6449  134.5097  162.7843 C   0  0  0  0  0  0  0  0  0  0  0  0
  148.9955  133.5486  154.1283 C   0  0  1  0  0  0  0  0  0  0  0  0
  149.6769  132.2034  154.4451 C   0  0  0  0  0  0  0  0  0  0  0  0
  147.6761  133.3997  153.3387 C   0  0  0  0  0  0  0  0  0  0  0  0
  146.7179  131.9158  151.8312 H   0  0  0  0  0  0  0  0  0  0  0  0
  146.0345  131.7119  150.2257 H   0  0  0  0  0  0  0  0  0  0  0  0
  144.9722  131.9855  151.6041 H   0  0  0  0  0  0  0  0  0  0  0  0
  146.9760  134.0118  150.4511 H   0  0  0  0  0  0  0  0  0  0  0  0
  145.3940  134.6682  149.3264 H   0  0  0  0  0  0  0  0  0  0  0  0
  145.4650  135.6003  151.9831 H   0  0  0  0  0  0  0  0  0  0  0  0
  145.0702  134.1229  152.8226 H   0  0  0  0  0  0  0  0  0  0  0  0
  146.6054  136.5897  153.9150 H   0  0  0  0  0  0  0  0  0  0  0  0
  146.1898  135.1820  154.8667 H   0  0  0  0  0  0  0  0  0  0  0  0
  149.0116  136.2612  154.3346 H   0  0  0  0  0  0  0  0  0  0  0  0
  148.1523  136.3480  155.8502 H   0  0  0  0  0  0  0  0  0  0  0  0
  146.8115  131.2949  157.6576 H   0  0  0  0  0  0  0  0  0  0  0  0
  148.9620  136.9690  159.8148 H   0  0  0  0  0  0  0  0  0  0  0  0
  147.8721  133.8361  161.5430 H   0  0  0  0  0  0  0  0  0  0  0  0
  148.3622  135.4722  161.8507 H   0  0  0  0  0  0  0  0  0  0  0  0
  145.9079  137.1777  160.5934 H   0  0  0  0  0  0  0  0  0  0  0  0
  145.1629  137.0675  162.1667 H   0  0  0  0  0  0  0  0  0  0  0  0
  147.0550  137.5119  163.0788 H   0  0  0  0  0  0  0  0  0  0  0  0
  144.2542  135.0584  160.5486 H   0  0  0  0  0  0  0  0  0  0  0  0
  145.4881  133.8971  159.9590 H   0  0  0  0  0  0  0  0  0  0  0  0
  146.3938  133.9811  163.3754 H   0  0  0  0  0  0  0  0  0  0  0  0
  145.0101  135.1216  163.4271 H   0  0  0  0  0  0  0  0  0  0  0  0
  149.6897  134.0801  153.4761 H   0  0  0  0  0  0  0  0  0  0  0  0
  149.9199  131.6708  153.5255 H   0  0  0  0  0  0  0  0  0  0  0  0
  149.0463  131.5431  155.0394 H   0  0  0  0  0  0  0  0  0  0  0  0
  150.6092  132.3560  154.9898 H   0  0  0  0  0  0  0  0  0  0  0  0
  146.9473  132.8127  153.8983 H   0  0  0  0  0  0  0  0  0  0  0  0
  147.8708  132.8521  152.4157 H   0  0  0  0  0  0  0  0  0  0  0  0
  147.7647  135.1749  152.4022 H   0  0  0  0  0  0  0  0  0  0  0  0
  1  2  1  0  0  0  0
  1 28  1  0  0  0  0
  1 29  1  0  0  0  0
  1 30  1  0  0  0  0
  2  3  1  0  0  0  0
  2  4  1  0  0  0  0
  2 31  1  0  0  0  0
  3 32  1  0  0  0  0
  4  5  1  0  0  0  0
  4 33  1  0  0  0  0
  4 34  1  0  0  0  0
  5 27  1  0  0  0  0
  5  6  1  0  0  0  0
  5 56  1  0  0  0  0
  6  7  1  0  0  0  0
  6 35  1  0  0  0  0
  6 36  1  0  0  0  0
  7  8  1  0  0  0  0
  7 37  1  0  0  0  0
  7 38  1  0  0  0  0
  8  9  1  0  0  0  0
  8 25  1  0  0  0  0
  9 14  1  0  0  0  0
  9 10  2  0  0  0  0
 10 11  1  0  0  0  0
 11 12  2  0  0  0  0
 11 39  1  0  0  0  0
 12 13  1  0  0  0  0
 13 17  1  0  0  0  0
 13 14  2  0  0  0  0
 14 15  1  0  0  0  0
 15 16  2  0  0  0  0
 16 17  1  0  0  0  0
 16 40  1  0  0  0  0
 17 18  1  0  0  0  0
 18 19  1  0  0  0  0
 18 41  1  0  0  0  0
 18 42  1  0  0  0  0
 19 24  1  0  0  0  0
 19 20  1  0  0  0  0
 19 22  1  0  0  0  0
 20 21  1  0  0  0  0
 20 43  1  0  0  0  0
 20 44  1  0  0  0  0
 21 45  1  0  0  0  0
 22 23  1  0  0  0  0
 22 46  1  0  0  0  0
 22 47  1  0  0  0  0
 23 24  1  0  0  0  0
 24 48  1  0  0  0  0
 24 49  1  0  0  0  0
 25 26  1  0  0  0  0
 25 27  1  0  0  0  0
 25 50  1  0  0  0  0
 26 51  1  0  0  0  0
 26 52  1  0  0  0  0
 26 53  1  0  0  0  0
 27 54  1  0  0  0  0
 27 55  1  0  0  0  0
M  CHG  1   5   1
M  END
> <s_m_source_file>
AV-unprocessed.smi

> <i_m_source_file_index>
79

> <i_lp_mmshare_version>
43012

> <i_f3d_flags>
0

> <s_epik_input>
W0NIM11bQ0BIXShbT0hdKVtDSDJdTjFbQ0gyXVtDSDJdTihbQ0BASF0oW0NIM10pW0NIMl0xKWMobltjSF1uMiljKGMyMyluW2NIXW4zW0NIMl1DNChbQ0gyXVtPSF0pW0NIMl1PW0NIMl00

> <s_epik_cmdline>
J2VwaWtfcHl0aG9uJywgJy1waCcsICc3LjAnLCAnLXRuJywgJzgnLCAnLW1hJywgJzIwMCcsICctbWV0YWxfYmluZGluZycsICctaW1hZScsICc8aW5maWxlLm1hZT4nLCAnLW9tYWUnLCAnPG91dGZpbGUubWFlPic=

> <r_lp_tautomer_probability>
1

> <r_epik_Ionization_Penalty>
0.00515943

> <r_epik_Ionization_Penalty_Charging>
0.00509693

> <r_epik_Ionization_Penalty_Neutral>
6.25007e-05

> <r_epik_State_Penalty>
-0

> <r_epik_Charging_Adjusted_Penalty>
0.00509693

> <i_epik_Tot_Q>
1

> <i_epik_Tot_abs_Q>
1

> <r_epik_Metal_State_Penalty>
-0

> <b_epik_Metal_Only>
0

> <s_lp_Force_Field>
OPLS_2005

> <r_lp_Energy>
48.5729

> <b_lp_Chiralities_Consistent>
1

> <s_lp_Variant>
AV-unprocessed.smi:79-4

> <Gold.Version>
5.8.1

> <Gold.Id.Protein>
6NUR|6NUR_protein|mol2

> <Gold.PLP.Fitness>
43.3886

> <Gold.PLP.PLP>
-32.3342

> <Gold.PLP.part.hbond>
-4.0000

> <Gold.PLP.part.metal>
0.0000

> <Gold.PLP.part.buried>
-3.5390

> <Gold.PLP.part.nonpolar>
-23.8102

> <Gold.PLP.part.repulsive>
0.1330

> <Gold.PLP.ligand.clash>
0.0000

> <Gold.PLP.ligand.torsion>
1.3734

> <Gold.PLP.Chemscore.Hbond>
4.2952

> <Gold.PLP.Chemscore.CHOScore>
0.0000

> <Gold.PLP.Chemscore.Metal>
0.0000

> <Gold.Chemscore.Hbonds>
donor molecule, donor type, donor heavy atom, donor atom, acceptor molecule, acceptor atom, score
      L1  H     3    32       P1  7921  1.00
      L1  H     5    56       P1  7948  2.00
      P1  H  6931  6943       L1    21  0.70
      P1  H  6934  6947       L1    21  0.59

> <Gold.PLP.Chemscore.Internal.Correction>
0.9156

> <Gold.Rescore>
     Score         DG    S(hbond)    S(metal)    S(lipo)     H(rot)  DE(clash)    DE(int)     intcor
     11.21     -13.76       2.78        0.00      72.96       3.72       0.00       2.55       ----

> <Gold.Chemscore.Fitness>
11.2085

> <Gold.Chemscore.DG>
-13.7617

> <Gold.Chemscore.ZeroCoef>
-5.4800

> <Gold.Chemscore.Hbond>
2.7768

> <Gold.Chemscore.Metal>
0.0000

> <Gold.Chemscore.Lipo>
72.9646

> <Gold.Chemscore.Internal_Hbond>
0.0000

> <Gold.Chemscore.DEClash>
0.0000

> <Gold.Chemscore.DEInternal>
2.5532

> <Gold.Chemscore.Rot>
3.7226

> <Gold.Chemscore.Internal.Correction>
   9.000000E+99

> <Gold.Chemscore.Hbonds>
donor molecule, donor type, donor heavy atom, donor atom, acceptor molecule, acceptor atom, score
      L1  H     3    32       P1  7921  0.95
      L1  H     5    56       P1  7948  0.98
      P1  H  6931  6943       L1    21  0.20
      P1  H  6934  6947       L1    21  0.11

> <Gold.Chemscore.Hbond.Weighted>
-9.2746

> <Gold.Chemscore.Metal.Weighted>
-0.0000

> <Gold.Chemscore.Lipo.Weighted>
-8.5369

> <Gold.Chemscore.Internal_Hbond.Weighted>
0.0000

> <Gold.Chemscore.DEClash.Weighted>
0.0000

> <Gold.Chemscore.DEInternal.Weighted>
2.5532

> <Gold.Chemscore.Rot.Weighted>
9.5298

> <Gold.Chemscore.Internal.Correction.Weighted>
   9.000000E+99

> <Gold.Protein.RotatedTorsions>
[ 6907 6896 6895 6894 ] final  168.04 input  -60.11 | X-H torsion
[ 7974 7965 7964 7962 ] final -123.29 input  175.53 | X-H torsion
[ 8008 7997 7996 7995 ] final   65.83 input   59.86 | X-H torsion
[ 10167 10162 10161 10158 ] final   93.73 input  -65.29 | X-H torsion
[ 10718 10713 10712 10709 ] final  -23.98 input   66.30 | X-H torsion
[ 10763 10752 10751 10750 ] final  171.85 input  -60.55 | X-H torsion
[ 11005 11000 10999 10996 ] final   68.91 input  -57.11 | X-H torsion

> <Gold.Protein.ActiveResidues>
 VAL166  LYS551  ARG553  GLY616  TRP617  ASP618  TYR619  PRO620  LYS621  CYS622 
 ASP623  PHE694  ASN695  SER759  ASP760  ASP761  ALA762  ILE779  LEU786  VAL792 
 PHE793  MET794  SER795  GLU796  ALA797  LYS798  CYS799  TRP800  GLU811  SER814 

> <Gold.Protein.RotatedAtoms>
  151.8539  133.3444  159.3681 H   0  0  0  0  0  0  0  0  0  0  0  0  # atno 6907 bound_to 6896
  150.7198  134.5272  159.5692 H   0  0  0  0  0  0  0  0  0  0  0  0  # atno 6908 bound_to 6896
  152.2772  134.7869  160.0454 H   0  0  0  0  0  0  0  0  0  0  0  0  # atno 6909 bound_to 6896
  145.0202  140.7982  143.4385 H   0  0  0  0  0  0  0  0  0  0  0  0  # atno 7974 bound_to 7965
  155.6679  140.3497  155.4807 H   0  0  0  0  0  0  0  0  0  0  0  0  # atno 8008 bound_to 7997
  155.9713  140.1156  157.0833 H   0  0  0  0  0  0  0  0  0  0  0  0  # atno 8009 bound_to 7997
  154.4167  140.1156  156.5296 H   0  0  0  0  0  0  0  0  0  0  0  0  # atno 8010 bound_to 7997
  139.8151  144.6756  150.9590 H   0  0  0  0  0  0  0  0  0  0  0  0  # atno 10167 bound_to 10162
  156.4838  130.4551  149.6796 H   0  0  0  0  0  0  0  0  0  0  0  0  # atno 10718 bound_to 10713
  154.4178  135.2757  155.1995 H   0  0  0  0  0  0  0  0  0  0  0  0  # atno 10763 bound_to 10752
  154.3953  135.6057  153.5870 H   0  0  0  0  0  0  0  0  0  0  0  0  # atno 10764 bound_to 10752
  152.9832  135.5913  154.4470 H   0  0  0  0  0  0  0  0  0  0  0  0  # atno 10765 bound_to 10752
  139.9684  134.6942  156.0497 H   0  0  0  0  0  0  0  0  0  0  0  0  # atno 11005 bound_to 11000
  145.1905  139.2303  143.5245 LP  0  0  0  0  0  0  0  0  0  0  0  0  # atno 17320 bound_to 7965
  146.3484  140.1700  142.8590 LP  0  0  0  0  0  0  0  0  0  0  0  0  # atno 17321 bound_to 7965
  140.7816  143.4146  151.0938 LP  0  0  0  0  0  0  0  0  0  0  0  0  # atno 17342 bound_to 10162
  139.7810  143.8355  152.3137 LP  0  0  0  0  0  0  0  0  0  0  0  0  # atno 17343 bound_to 10162
  156.3495  130.7424  151.2382 LP  0  0  0  0  0  0  0  0  0  0  0  0  # atno 17370 bound_to 10713
  157.7481  131.0381  150.4487 LP  0  0  0  0  0  0  0  0  0  0  0  0  # atno 17371 bound_to 10713
  141.1364  133.6574  156.3605 LP  0  0  0  0  0  0  0  0  0  0  0  0  # atno 17394 bound_to 11000
  140.5346  134.6179  157.5361 LP  0  0  0  0  0  0  0  0  0  0  0  0  # atno 17395 bound_to 11000

$$$$
