AV-unprocessed.smi:142|AV-procd|sdf|1192|dock8
  -GOLD-   2262018353D 1   1.00000     0.00000
 Structure written by MMmdl.
 52 55  0  0  0  0  0  0  0  0  1 V2000
  152.0609  139.0896  156.2634 C   0  0  0  0  0  0  0  0  0  0  0  0
  150.9542  139.4831  157.2508 C   0  0  1  0  0  0  0  0  0  0  0  0
  150.5798  138.3179  158.0479 N   0  0  0  0  0  0  0  0  0  0  0  0
  149.3491  138.0750  158.5243 C   0  0  0  0  0  0  0  0  0  0  0  0
  148.3688  138.7696  158.2547 O   0  0  0  0  0  0  0  0  0  0  0  0
  149.2098  136.8688  159.4623 C   0  0  0  0  0  0  0  0  0  0  0  0
  147.8324  136.3303  159.4506 N   0  0  0  0  0  0  0  0  0  0  0  0
  147.3270  135.7477  158.2623 C   0  0  0  0  0  0  0  0  0  0  0  0
  148.0254  135.6424  157.2532 O   0  0  0  0  0  0  0  0  0  0  0  0
  145.9391  135.3035  158.3213 C   0  0  0  0  0  0  0  0  0  0  0  0
  145.3704  134.7496  157.2371 F   0  0  0  0  0  0  0  0  0  0  0  0
  145.2104  135.4487  159.4471 C   0  0  0  0  0  0  0  0  0  0  0  0
  145.7184  136.0020  160.6063 N   0  0  0  0  0  0  0  0  0  0  0  0
  144.7978  136.1903  161.7928 C   0  0  1  0  0  0  0  0  0  0  0  0
  143.5728  137.0691  161.4968 C   0  0  0  0  0  0  0  0  0  0  0  0
  142.5126  136.3932  162.3400 C   0  0  0  0  0  0  0  0  0  0  0  0
  142.9166  134.9258  162.2481 C   0  0  0  0  0  0  0  0  0  0  0  0
  144.3414  134.9387  162.2202 O   0  0  0  0  0  0  0  0  0  0  0  0
  147.0506  136.4764  160.6228 C   0  0  0  0  0  0  0  0  0  0  0  0
  147.5225  137.0146  161.6256 O   0  0  0  0  0  0  0  0  0  0  0  0
  151.3843  140.6678  158.1122 C   0  0  0  0  0  0  0  0  0  0  0  0
  152.3699  140.5203  159.1151 C   0  0  0  0  0  0  0  0  0  0  0  0
  152.7491  141.6185  159.9100 C   0  0  0  0  0  0  0  0  0  0  0  0
  152.1516  142.8780  159.7061 C   0  0  0  0  0  0  0  0  0  0  0  0
  152.5258  143.9816  160.5006 C   0  0  0  0  0  0  0  0  0  0  0  0
  151.9251  145.2381  160.2901 C   0  0  0  0  0  0  0  0  0  0  0  0
  150.9501  145.3955  159.2862 C   0  0  0  0  0  0  0  0  0  0  0  0
  150.5725  144.2966  158.4901 C   0  0  0  0  0  0  0  0  0  0  0  0
  151.1701  143.0359  158.6963 C   0  0  0  0  0  0  0  0  0  0  0  0
  150.7936  141.9322  157.9036 C   0  0  0  0  0  0  0  0  0  0  0  0
  152.3178  139.9246  155.6109 H   0  0  0  0  0  0  0  0  0  0  0  0
  151.7455  138.2610  155.6285 H   0  0  0  0  0  0  0  0  0  0  0  0
  152.9688  138.7834  156.7844 H   0  0  0  0  0  0  0  0  0  0  0  0
  150.0816  139.7831  156.6674 H   0  0  0  0  0  0  0  0  0  0  0  0
  151.3241  137.6904  158.3151 H   0  0  0  0  0  0  0  0  0  0  0  0
  149.9488  136.1226  159.1687 H   0  0  0  0  0  0  0  0  0  0  0  0
  149.4980  137.1460  160.4781 H   0  0  0  0  0  0  0  0  0  0  0  0
  144.1844  135.1110  159.4330 H   0  0  0  0  0  0  0  0  0  0  0  0
  145.4140  136.6124  162.5877 H   0  0  0  0  0  0  0  0  0  0  0  0
  143.7591  138.1051  161.7802 H   0  0  0  0  0  0  0  0  0  0  0  0
  143.3010  137.0410  160.4427 H   0  0  0  0  0  0  0  0  0  0  0  0
  142.5822  136.7356  163.3732 H   0  0  0  0  0  0  0  0  0  0  0  0
  141.4990  136.5794  161.9845 H   0  0  0  0  0  0  0  0  0  0  0  0
  142.5425  134.3355  163.0847 H   0  0  0  0  0  0  0  0  0  0  0  0
  142.5370  134.4800  161.3286 H   0  0  0  0  0  0  0  0  0  0  0  0
  152.8398  139.5627  159.2831 H   0  0  0  0  0  0  0  0  0  0  0  0
  153.4997  141.4885  160.6757 H   0  0  0  0  0  0  0  0  0  0  0  0
  153.2730  143.8699  161.2728 H   0  0  0  0  0  0  0  0  0  0  0  0
  152.2125  146.0823  160.8995 H   0  0  0  0  0  0  0  0  0  0  0  0
  150.4911  146.3601  159.1267 H   0  0  0  0  0  0  0  0  0  0  0  0
  149.8228  144.4257  157.7232 H   0  0  0  0  0  0  0  0  0  0  0  0
  150.0431  142.0531  157.1356 H   0  0  0  0  0  0  0  0  0  0  0  0
  1  2  1  0  0  0  0
  1 31  1  0  0  0  0
  1 32  1  0  0  0  0
  1 33  1  0  0  0  0
  2  3  1  0  0  0  0
  2 21  1  0  0  0  0
  2 34  1  0  0  0  0
  3  4  1  0  0  0  0
  3 35  1  0  0  0  0
  4  5  2  0  0  0  0
  4  6  1  0  0  0  0
  6  7  1  0  0  0  0
  6 36  1  0  0  0  0
  6 37  1  0  0  0  0
  7 19  1  0  0  0  0
  7  8  1  0  0  0  0
  8  9  2  0  0  0  0
  8 10  1  0  0  0  0
 10 11  1  0  0  0  0
 10 12  2  0  0  0  0
 12 13  1  0  0  0  0
 12 38  1  0  0  0  0
 13 14  1  0  0  0  0
 13 19  1  0  0  0  0
 14 18  1  0  0  0  0
 14 15  1  0  0  0  0
 14 39  1  0  0  0  0
 15 16  1  0  0  0  0
 15 40  1  0  0  0  0
 15 41  1  0  0  0  0
 16 17  1  0  0  0  0
 16 42  1  0  0  0  0
 16 43  1  0  0  0  0
 17 18  1  0  0  0  0
 17 44  1  0  0  0  0
 17 45  1  0  0  0  0
 19 20  2  0  0  0  0
 21 30  1  0  0  0  0
 21 22  2  0  0  0  0
 22 23  1  0  0  0  0
 22 46  1  0  0  0  0
 23 24  2  0  0  0  0
 23 47  1  0  0  0  0
 24 29  1  0  0  0  0
 24 25  1  0  0  0  0
 25 26  2  0  0  0  0
 25 48  1  0  0  0  0
 26 27  1  0  0  0  0
 26 49  1  0  0  0  0
 27 28  2  0  0  0  0
 27 50  1  0  0  0  0
 28 29  1  0  0  0  0
 28 51  1  0  0  0  0
 29 30  2  0  0  0  0
 30 52  1  0  0  0  0
M  END
> <s_m_source_file>
AV-unprocessed.smi

> <i_m_source_file_index>
142

> <i_lp_mmshare_version>
43012

> <i_f3d_flags>
0

> <s_epik_input>
W2NIXTFbY0hdW2NIXVtjSF1jKGMxMilbY0hdYyhbY0hdW2NIXTIpW0NASF0oW0NIM10pW05IXUMoPU8pW0NIMl1uM2MoPU8pYyhGKVtjSF1uKGMzPU8pW0NAQEhdNFtDSDJdW0NIMl1bQ0gyXU80

> <s_epik_cmdline>
J2VwaWtfcHl0aG9uJywgJy1waCcsICc3LjAnLCAnLXRuJywgJzgnLCAnLW1hJywgJzIwMCcsICctbWV0YWxfYmluZGluZycsICctaW1hZScsICc8aW5maWxlLm1hZT4nLCAnLW9tYWUnLCAnPG91dGZpbGUubWFlPic=

> <r_lp_tautomer_probability>
1

> <r_epik_Ionization_Penalty>
3.35688e-08

> <r_epik_Ionization_Penalty_Charging>
3.59856e-09

> <r_epik_Ionization_Penalty_Neutral>
2.99702e-08

> <r_epik_State_Penalty>
-0

> <r_epik_Charging_Adjusted_Penalty>
3.59856e-09

> <i_epik_Tot_Q>
0

> <i_epik_Tot_abs_Q>
0

> <r_epik_Metal_State_Penalty>
-0

> <b_epik_Metal_Only>
0

> <s_epik_Chemistry_Notes>
This compound contains an acetal/aminal-like group ( X-CH(R)-Y where X, Y are N, S, or O) that may be acid/base labile, releasing an aldehyde.

> <s_lp_Force_Field>
OPLS_2005

> <r_lp_Energy>
24.972

> <b_lp_Chiralities_Consistent>
1

> <s_lp_Variant>
AV-unprocessed.smi:142-4

> <Gold.Version>
5.8.1

> <Gold.Id.Protein>
6NUR|6NUR_protein|mol2

> <Gold.PLP.Fitness>
51.9722

> <Gold.PLP.PLP>
-50.8153

> <Gold.PLP.part.hbond>
-1.8299

> <Gold.PLP.part.metal>
0.0000

> <Gold.PLP.part.buried>
-8.6789

> <Gold.PLP.part.nonpolar>
-40.9775

> <Gold.PLP.part.repulsive>
0.1058

> <Gold.PLP.ligand.clash>
0.0000

> <Gold.PLP.ligand.torsion>
0.9712

> <Gold.PLP.Chemscore.Hbond>
1.0000

> <Gold.PLP.Chemscore.CHOScore>
0.0000

> <Gold.PLP.Chemscore.Metal>
0.0000

> <Gold.Chemscore.Hbonds>
donor molecule, donor type, donor heavy atom, donor atom, acceptor molecule, acceptor atom, score
      P1  H  6931  6943       L1    20  1.00
      P1  H  6934  6947       L1    20  0.48

> <Gold.PLP.Chemscore.Internal.Correction>
0.0993

> <Gold.Rescore>
     Score         DG    S(hbond)    S(metal)    S(lipo)     H(rot)  DE(clash)    DE(int)     intcor
     17.75     -19.00       0.97        0.00     131.95       2.02       0.05       1.20       ----

> <Gold.Chemscore.Fitness>
17.7525

> <Gold.Chemscore.DG>
-19.0040

> <Gold.Chemscore.ZeroCoef>
-5.4800

> <Gold.Chemscore.Hbond>
0.9734

> <Gold.Chemscore.Metal>
0.0000

> <Gold.Chemscore.Lipo>
131.9462

> <Gold.Chemscore.Internal_Hbond>
0.0000

> <Gold.Chemscore.DEClash>
0.0483

> <Gold.Chemscore.DEInternal>
1.2032

> <Gold.Chemscore.Rot>
2.0175

> <Gold.Chemscore.Internal.Correction>
   9.000000E+99

> <Gold.Chemscore.Hbonds>
donor molecule, donor type, donor heavy atom, donor atom, acceptor molecule, acceptor atom, score
      P1  H  6931  6943       L1    20  0.95
      P1  H  6934  6947       L1    20  0.07

> <Gold.Chemscore.Hbond.Weighted>
-3.2511

> <Gold.Chemscore.Metal.Weighted>
-0.0000

> <Gold.Chemscore.Lipo.Weighted>
-15.4377

> <Gold.Chemscore.Internal_Hbond.Weighted>
0.0000

> <Gold.Chemscore.DEClash.Weighted>
0.0483

> <Gold.Chemscore.DEInternal.Weighted>
1.2032

> <Gold.Chemscore.Rot.Weighted>
5.1648

> <Gold.Chemscore.Internal.Correction.Weighted>
   9.000000E+99

> <Gold.Protein.RotatedTorsions>
[ 6907 6896 6895 6894 ] final  -85.77 input  -60.11 | X-H torsion
[ 7974 7965 7964 7962 ] final   -0.09 input  175.53 | X-H torsion
[ 8008 7997 7996 7995 ] final  -65.59 input   59.86 | X-H torsion
[ 10167 10162 10161 10158 ] final   51.11 input  -65.29 | X-H torsion
[ 10718 10713 10712 10709 ] final   -1.70 input   66.30 | X-H torsion
[ 10763 10752 10751 10750 ] final  143.96 input  -60.55 | X-H torsion
[ 11005 11000 10999 10996 ] final -143.36 input  -57.11 | X-H torsion

> <Gold.Protein.ActiveResidues>
 VAL166  LYS551  ARG553  GLY616  TRP617  ASP618  TYR619  PRO620  LYS621  CYS622 
 ASP623  PHE694  ASN695  SER759  ASP760  ASP761  ALA762  ILE779  LEU786  VAL792 
 PHE793  MET794  SER795  GLU796  ALA797  LYS798  CYS799  TRP800  GLU811  SER814 

> <Gold.Protein.RotatedAtoms>
  150.6869  134.3153  159.4763 H   0  0  0  0  0  0  0  0  0  0  0  0  # atno 6907 bound_to 6896
  152.1034  134.9323  160.0578 H   0  0  0  0  0  0  0  0  0  0  0  0  # atno 6908 bound_to 6896
  152.0593  133.4020  159.4448 H   0  0  0  0  0  0  0  0  0  0  0  0  # atno 6909 bound_to 6896
  146.2430  140.1218  142.8340 H   0  0  0  0  0  0  0  0  0  0  0  0  # atno 7974 bound_to 7965
  154.4681  140.0930  156.7073 H   0  0  0  0  0  0  0  0  0  0  0  0  # atno 8008 bound_to 7997
  155.4801  140.3467  155.4320 H   0  0  0  0  0  0  0  0  0  0  0  0  # atno 8009 bound_to 7997
  156.0992  140.1417  156.9479 H   0  0  0  0  0  0  0  0  0  0  0  0  # atno 8010 bound_to 7997
  140.2654  144.3326  150.6305 H   0  0  0  0  0  0  0  0  0  0  0  0  # atno 10167 bound_to 10162
  156.8018  130.5395  149.5720 H   0  0  0  0  0  0  0  0  0  0  0  0  # atno 10718 bound_to 10713
  153.9810  135.2941  155.3420 H   0  0  0  0  0  0  0  0  0  0  0  0  # atno 10763 bound_to 10752
  154.7269  135.5085  153.8903 H   0  0  0  0  0  0  0  0  0  0  0  0  # atno 10764 bound_to 10752
  153.0854  135.6692  154.0074 H   0  0  0  0  0  0  0  0  0  0  0  0  # atno 10765 bound_to 10752
  140.8133  134.2719  157.4932 H   0  0  0  0  0  0  0  0  0  0  0  0  # atno 11005 bound_to 11000
  145.0400  140.8938  143.5058 LP  0  0  0  0  0  0  0  0  0  0  0  0  # atno 17320 bound_to 7965
  145.1297  139.2640  143.5546 LP  0  0  0  0  0  0  0  0  0  0  0  0  # atno 17321 bound_to 7965
  140.5932  143.2167  151.7213 LP  0  0  0  0  0  0  0  0  0  0  0  0  # atno 17342 bound_to 10162
  139.5004  144.3906  152.0283 LP  0  0  0  0  0  0  0  0  0  0  0  0  # atno 17343 bound_to 10162
  156.1097  130.6031  151.0027 LP  0  0  0  0  0  0  0  0  0  0  0  0  # atno 17370 bound_to 10713
  157.6550  131.0891  150.7967 LP  0  0  0  0  0  0  0  0  0  0  0  0  # atno 17371 bound_to 10713
  139.8713  134.9495  156.4027 LP  0  0  0  0  0  0  0  0  0  0  0  0  # atno 17394 bound_to 11000
  140.9176  133.7668  155.9866 LP  0  0  0  0  0  0  0  0  0  0  0  0  # atno 17395 bound_to 11000

$$$$
