AV-unprocessed.smi:3312|AV-procd|sdf|12727|dock9
  -GOLD-   2272019 73D 1   1.00000     0.00000
 Structure written by MMmdl.
 39 40  0  0  0  0  0  0  0  0  2 V2000
  144.3660  132.9482  151.5816 C   0  0  0  0  0  0  0  0  0  0  0  0
  144.9526  134.2824  151.9429 C   0  0  0  0  0  0  0  0  0  0  0  0
  145.1359  134.8326  153.2433 C   0  0  0  0  0  0  0  0  0  0  0  0
  145.6798  136.0379  153.2185 N   0  0  0  0  0  0  0  0  0  0  0  0
  145.8716  136.2962  151.9076 N   0  0  0  0  0  0  0  0  0  0  0  0
  146.4615  137.5590  151.4991 C   0  0  0  0  0  0  0  0  0  0  0  0
  146.6546  138.5216  152.6819 C   0  0  0  0  0  0  0  0  0  0  0  0
  148.0873  138.8020  152.9181 N   0  3  0  0  0  0  0  0  0  0  0  0
  148.3995  139.3329  154.2628 C   0  0  0  0  0  0  0  0  0  0  0  0
  149.8439  139.8499  154.3840 C   0  0  0  0  0  0  0  0  0  0  0  0
  150.0335  141.0648  154.4697 O   0  0  0  0  0  0  0  0  0  0  0  0
  150.8628  138.9584  154.4001 N   0  0  0  0  0  0  0  0  0  0  0  0
  152.2880  139.2764  154.5319 C   0  0  0  0  0  0  0  0  0  0  0  0
  152.7930  138.6820  155.8586 C   0  0  0  0  0  0  0  0  0  0  0  0
  152.5635  137.2750  155.8687 O   0  0  0  0  0  0  0  0  0  0  0  0
  151.1898  136.9283  155.7071 C   0  0  0  0  0  0  0  0  0  0  0  0
  150.6595  137.5070  154.3826 C   0  0  0  0  0  0  0  0  0  0  0  0
  145.4333  135.2568  151.1146 C   0  0  0  0  0  0  0  0  0  0  0  0
  143.7764  132.5312  152.3984 H   0  0  0  0  0  0  0  0  0  0  0  0
  145.1408  132.2203  151.3401 H   0  0  0  0  0  0  0  0  0  0  0  0
  143.7080  133.0176  150.7151 H   0  0  0  0  0  0  0  0  0  0  0  0
  144.8892  134.3943  154.1991 H   0  0  0  0  0  0  0  0  0  0  0  0
  147.4152  137.3613  151.0076 H   0  0  0  0  0  0  0  0  0  0  0  0
  145.8101  138.0121  150.7506 H   0  0  0  0  0  0  0  0  0  0  0  0
  146.1406  139.4626  152.4838 H   0  0  0  0  0  0  0  0  0  0  0  0
  146.2007  138.1009  153.5800 H   0  0  0  0  0  0  0  0  0  0  0  0
  148.6093  137.9454  152.7959 H   0  0  0  0  0  0  0  0  0  0  0  0
  147.7235  140.1664  154.4563 H   0  0  0  0  0  0  0  0  0  0  0  0
  148.1965  138.5642  155.0097 H   0  0  0  0  0  0  0  0  0  0  0  0
  152.8318  138.8338  153.6959 H   0  0  0  0  0  0  0  0  0  0  0  0
  152.5096  140.3416  154.4949 H   0  0  0  0  0  0  0  0  0  0  0  0
  153.8613  138.8663  155.9731 H   0  0  0  0  0  0  0  0  0  0  0  0
  152.2936  139.1486  156.7095 H   0  0  0  0  0  0  0  0  0  0  0  0
  151.0971  135.8422  155.7085 H   0  0  0  0  0  0  0  0  0  0  0  0
  150.6101  137.3003  156.5534 H   0  0  0  0  0  0  0  0  0  0  0  0
  149.6146  137.2231  154.2510 H   0  0  0  0  0  0  0  0  0  0  0  0
  151.1989  137.0746  153.5387 H   0  0  0  0  0  0  0  0  0  0  0  0
  145.5013  135.2929  150.0371 H   0  0  0  0  0  0  0  0  0  0  0  0
  148.3927  139.4700  152.2253 H   0  0  0  0  0  0  0  0  0  0  0  0
  1  2  1  0  0  0  0
  1 19  1  0  0  0  0
  1 20  1  0  0  0  0
  1 21  1  0  0  0  0
  2 18  2  0  0  0  0
  2  3  1  0  0  0  0
  3  4  2  0  0  0  0
  3 22  1  0  0  0  0
  4  5  1  0  0  0  0
  5  6  1  0  0  0  0
  5 18  1  0  0  0  0
  6  7  1  0  0  0  0
  6 23  1  0  0  0  0
  6 24  1  0  0  0  0
  7  8  1  0  0  0  0
  7 25  1  0  0  0  0
  7 26  1  0  0  0  0
  8  9  1  0  0  0  0
  8 27  1  0  0  0  0
  8 39  1  0  0  0  0
  9 10  1  0  0  0  0
  9 28  1  0  0  0  0
  9 29  1  0  0  0  0
 10 11  2  0  0  0  0
 10 12  1  0  0  0  0
 12 17  1  0  0  0  0
 12 13  1  0  0  0  0
 13 14  1  0  0  0  0
 13 30  1  0  0  0  0
 13 31  1  0  0  0  0
 14 15  1  0  0  0  0
 14 32  1  0  0  0  0
 14 33  1  0  0  0  0
 15 16  1  0  0  0  0
 16 17  1  0  0  0  0
 16 34  1  0  0  0  0
 16 35  1  0  0  0  0
 17 36  1  0  0  0  0
 17 37  1  0  0  0  0
 18 38  1  0  0  0  0
M  CHG  1   8   1
M  END
> <s_m_source_file>
AV-unprocessed.smi

> <i_m_source_file_index>
3312

> <i_lp_mmshare_version>
43012

> <i_f3d_flags>
0

> <s_epik_input>
W0NIM11jMVtjSF1ubihbY0hdMSlbQ0gyXVtDSDJdW05IXVtDSDJdQyg9TylOMltDSDJdW0NIMl1PW0NIMl1bQ0gyXTI=

> <s_epik_cmdline>
J2VwaWtfcHl0aG9uJywgJy1waCcsICc3LjAnLCAnLXRuJywgJzgnLCAnLW1hJywgJzIwMCcsICctbWV0YWxfYmluZGluZycsICctaW1hZScsICc8aW5maWxlLm1hZT4nLCAnLW9tYWUnLCAnPG91dGZpbGUubWFlPic=

> <r_lp_tautomer_probability>
1

> <r_epik_Ionization_Penalty>
0.325402

> <r_epik_Ionization_Penalty_Charging>
0.325398

> <r_epik_Ionization_Penalty_Neutral>
4.45308e-06

> <r_epik_State_Penalty>
0.321221

> <r_epik_Charging_Adjusted_Penalty>
0.646619

> <i_epik_Tot_Q>
1

> <i_epik_Tot_abs_Q>
1

> <r_epik_Metal_State_Penalty>
0.321643

> <b_epik_Metal_Only>
0

> <s_lp_Force_Field>
OPLS_2005

> <r_lp_Energy>
21.6744

> <b_lp_Chiralities_Consistent>
1

> <s_lp_Variant>
AV-unprocessed.smi:3312-1

> <Gold.Version>
5.8.1

> <Gold.Id.Protein>
6NUR|6NUR_protein|mol2

> <Gold.PLP.Fitness>
50.3089

> <Gold.PLP.PLP>
-34.2854

> <Gold.PLP.part.hbond>
-4.0000

> <Gold.PLP.part.metal>
0.0000

> <Gold.PLP.part.buried>
0.4406

> <Gold.PLP.part.nonpolar>
-31.7183

> <Gold.PLP.part.repulsive>
0.3309

> <Gold.PLP.ligand.clash>
0.0000

> <Gold.PLP.ligand.torsion>
0.6484

> <Gold.PLP.Chemscore.Hbond>
4.7680

> <Gold.PLP.Chemscore.CHOScore>
1.0000

> <Gold.PLP.Chemscore.Metal>
0.0000

> <Gold.Chemscore.Hbonds>
donor molecule, donor type, donor heavy atom, donor atom, acceptor molecule, acceptor atom, score
      L1  H     8    27       P1  7948  2.00
      L1  H     8    39       P1  7957  0.99
      P1  H  7989  7998       L1    11  0.32
      P1  H 10752 10763       L1    15  0.35
      L1  C    18    38       P1  7921  1.00

> <Gold.PLP.Chemscore.Internal.Correction>
0.0162

> <Gold.Rescore>
     Score         DG    S(hbond)    S(metal)    S(lipo)     H(rot)  DE(clash)    DE(int)     intcor
     16.88     -18.95       3.04        0.00      69.78       1.89       1.42       0.66       ----

> <Gold.Chemscore.Fitness>
16.8760

> <Gold.Chemscore.DG>
-18.9515

> <Gold.Chemscore.ZeroCoef>
-5.4800

> <Gold.Chemscore.Hbond>
3.0357

> <Gold.Chemscore.Metal>
0.0000

> <Gold.Chemscore.Lipo>
69.7765

> <Gold.Chemscore.Internal_Hbond>
0.0000

> <Gold.Chemscore.DEClash>
1.4198

> <Gold.Chemscore.DEInternal>
0.6556

> <Gold.Chemscore.Rot>
1.8874

> <Gold.Chemscore.Internal.Correction>
   9.000000E+99

> <Gold.Chemscore.Hbonds>
donor molecule, donor type, donor heavy atom, donor atom, acceptor molecule, acceptor atom, score
      L1  H     8    27       P1  7948  0.95
      L1  H     8    39       P1  7957  0.94
      P1  H  7989  7998       L1    11  0.02
      P1  H 10752 10763       L1    15  0.01

> <Gold.Chemscore.Hbond.Weighted>
-10.1393

> <Gold.Chemscore.Metal.Weighted>
-0.0000

> <Gold.Chemscore.Lipo.Weighted>
-8.1638

> <Gold.Chemscore.Internal_Hbond.Weighted>
0.0000

> <Gold.Chemscore.DEClash.Weighted>
1.4198

> <Gold.Chemscore.DEInternal.Weighted>
0.6556

> <Gold.Chemscore.Rot.Weighted>
4.8317

> <Gold.Chemscore.Internal.Correction.Weighted>
   9.000000E+99

> <Gold.Protein.RotatedTorsions>
[ 6907 6896 6895 6894 ] final   17.16 input  -60.11 | X-H torsion
[ 7974 7965 7964 7962 ] final  127.71 input  175.53 | X-H torsion
[ 8008 7997 7996 7995 ] final   93.46 input   59.86 | X-H torsion
[ 10167 10162 10161 10158 ] final  138.08 input  -65.29 | X-H torsion
[ 10718 10713 10712 10709 ] final    6.73 input   66.30 | X-H torsion
[ 10763 10752 10751 10750 ] final   84.47 input  -60.55 | X-H torsion
[ 11005 11000 10999 10996 ] final   78.70 input  -57.11 | X-H torsion

> <Gold.Protein.ActiveResidues>
 VAL166  LYS551  ARG553  GLY616  TRP617  ASP618  TYR619  PRO620  LYS621  CYS622 
 ASP623  PHE694  ASN695  SER759  ASP760  ASP761  ALA762  ILE779  LEU786  VAL792 
 PHE793  MET794  SER795  GLU796  ALA797  LYS798  CYS799  TRP800  GLU811  SER814 

> <Gold.Protein.RotatedAtoms>
  151.8453  135.0576  160.0452 H   0  0  0  0  0  0  0  0  0  0  0  0  # atno 6907 bound_to 6896
  152.2778  133.5437  159.5487 H   0  0  0  0  0  0  0  0  0  0  0  0  # atno 6908 bound_to 6896
  150.7177  134.0523  159.3845 H   0  0  0  0  0  0  0  0  0  0  0  0  # atno 6909 bound_to 6896
  145.0476  139.3910  143.5070 H   0  0  0  0  0  0  0  0  0  0  0  0  # atno 7974 bound_to 7965
  156.0470  140.3312  155.7307 H   0  0  0  0  0  0  0  0  0  0  0  0  # atno 8008 bound_to 7997
  155.5659  140.0623  157.2835 H   0  0  0  0  0  0  0  0  0  0  0  0  # atno 8009 bound_to 7997
  154.4418  140.1869  156.0818 H   0  0  0  0  0  0  0  0  0  0  0  0  # atno 8010 bound_to 7997
  139.5123  144.6374  151.5661 H   0  0  0  0  0  0  0  0  0  0  0  0  # atno 10167 bound_to 10162
  156.9265  130.5810  149.5648 H   0  0  0  0  0  0  0  0  0  0  0  0  # atno 10718 bound_to 10713
  153.1385  135.4653  154.9459 H   0  0  0  0  0  0  0  0  0  0  0  0  # atno 10763 bound_to 10752
  154.7726  135.3163  154.8160 H   0  0  0  0  0  0  0  0  0  0  0  0  # atno 10764 bound_to 10752
  153.8688  135.6905  153.4830 H   0  0  0  0  0  0  0  0  0  0  0  0  # atno 10765 bound_to 10752
  139.9202  134.7784  156.1683 H   0  0  0  0  0  0  0  0  0  0  0  0  # atno 11005 bound_to 11000
  146.3515  140.0110  142.8667 LP  0  0  0  0  0  0  0  0  0  0  0  0  # atno 17320 bound_to 7965
  145.1568  140.9652  143.4400 LP  0  0  0  0  0  0  0  0  0  0  0  0  # atno 17321 bound_to 7965
  140.6128  143.9405  150.6466 LP  0  0  0  0  0  0  0  0  0  0  0  0  # atno 17342 bound_to 10162
  140.2653  143.3494  152.1286 LP  0  0  0  0  0  0  0  0  0  0  0  0  # atno 17343 bound_to 10162
  156.0467  130.5542  150.8896 LP  0  0  0  0  0  0  0  0  0  0  0  0  # atno 17370 bound_to 10713
  157.5874  131.0945  150.9174 LP  0  0  0  0  0  0  0  0  0  0  0  0  # atno 17371 bound_to 10713
  141.0716  133.6794  156.2151 LP  0  0  0  0  0  0  0  0  0  0  0  0  # atno 17394 bound_to 11000
  140.6498  134.5079  157.5576 LP  0  0  0  0  0  0  0  0  0  0  0  0  # atno 17395 bound_to 11000

$$$$
