AV-unprocessed.smi:1130|AV-procd|sdf|4848|dock4
  -GOLD-   22720 3413D 1   1.00000     0.00000
 Structure written by MMmdl.
 36 37  0  0  0  0  0  0  0  0  1 V2000
  147.6455  140.7060  153.2608 C   0  0  0  0  0  0  0  0  0  0  0  0
  148.9643  140.2698  153.8019 C   0  0  0  0  0  0  0  0  0  0  0  0
  149.8309  141.1455  154.2960 N   0  0  0  0  0  0  0  0  0  0  0  0
  150.9120  140.3436  154.6896 O   0  0  0  0  0  0  0  0  0  0  0  0
  150.5690  139.0745  154.3624 C   0  0  0  0  0  0  0  0  0  0  0  0
  151.5033  137.9627  154.7043 C   0  0  0  0  0  0  0  0  0  0  0  0
  150.8004  136.8205  155.4544 C   0  0  0  0  0  0  0  0  0  0  0  0
  149.9849  136.0076  154.5597 N   0  0  0  0  0  0  0  0  0  0  0  0
  149.3296  134.8946  154.9166 C   0  0  0  0  0  0  0  0  0  0  0  0
  149.3483  134.4164  156.0509 O   0  0  0  0  0  0  0  0  0  0  0  0
  148.6528  134.3654  153.8886 N   0  0  0  0  0  0  0  0  0  0  0  0
  147.8395  133.1566  153.9575 C   0  0  0  0  0  0  0  0  0  0  0  0
  147.4356  132.6486  152.5626 C   0  0  2  0  0  0  0  0  0  0  0  0
  146.4859  133.5704  151.7922 C   0  0  0  0  0  0  0  0  0  0  0  0
  145.6460  132.6186  150.9507 C   0  0  0  0  0  0  0  0  0  0  0  0
  146.0767  131.2256  151.4134 C   0  0  0  0  0  0  0  0  0  0  0  0
  146.6924  131.4455  152.6726 O   0  0  0  0  0  0  0  0  0  0  0  0
  149.3580  138.9668  153.8211 N   0  0  0  0  0  0  0  0  0  0  0  0
  147.3309  141.6451  153.7176 H   0  0  0  0  0  0  0  0  0  0  0  0
  146.8828  139.9539  153.4646 H   0  0  0  0  0  0  0  0  0  0  0  0
  147.7117  140.8500  152.1823 H   0  0  0  0  0  0  0  0  0  0  0  0
  151.9503  137.5888  153.7823 H   0  0  0  0  0  0  0  0  0  0  0  0
  152.3182  138.3690  155.3046 H   0  0  0  0  0  0  0  0  0  0  0  0
  151.5311  136.1937  155.9688 H   0  0  0  0  0  0  0  0  0  0  0  0
  150.1468  137.2306  156.2248 H   0  0  0  0  0  0  0  0  0  0  0  0
  149.9073  136.3204  153.6028 H   0  0  0  0  0  0  0  0  0  0  0  0
  148.6999  134.8318  152.9945 H   0  0  0  0  0  0  0  0  0  0  0  0
  148.3737  132.3771  154.5030 H   0  0  0  0  0  0  0  0  0  0  0  0
  146.9474  133.3839  154.5418 H   0  0  0  0  0  0  0  0  0  0  0  0
  148.3236  132.4475  151.9600 H   0  0  0  0  0  0  0  0  0  0  0  0
  145.8392  134.1178  152.4792 H   0  0  0  0  0  0  0  0  0  0  0  0
  147.0258  134.3005  151.1888 H   0  0  0  0  0  0  0  0  0  0  0  0
  144.5852  132.7820  151.1440 H   0  0  0  0  0  0  0  0  0  0  0  0
  145.8165  132.7510  149.8818 H   0  0  0  0  0  0  0  0  0  0  0  0
  145.2406  130.5304  151.4930 H   0  0  0  0  0  0  0  0  0  0  0  0
  146.8095  130.8005  150.7256 H   0  0  0  0  0  0  0  0  0  0  0  0
  1  2  1  0  0  0  0
  1 19  1  0  0  0  0
  1 20  1  0  0  0  0
  1 21  1  0  0  0  0
  2 18  1  0  0  0  0
  2  3  2  0  0  0  0
  3  4  1  0  0  0  0
  4  5  1  0  0  0  0
  5  6  1  0  0  0  0
  5 18  2  0  0  0  0
  6  7  1  0  0  0  0
  6 22  1  0  0  0  0
  6 23  1  0  0  0  0
  7  8  1  0  0  0  0
  7 24  1  0  0  0  0
  7 25  1  0  0  0  0
  8  9  1  0  0  0  0
  8 26  1  0  0  0  0
  9 10  2  0  0  0  0
  9 11  1  0  0  0  0
 11 12  1  0  0  0  0
 11 27  1  0  0  0  0
 12 13  1  0  0  0  0
 12 28  1  0  0  0  0
 12 29  1  0  0  0  0
 13 17  1  0  0  0  0
 13 14  1  0  0  0  0
 13 30  1  0  0  0  0
 14 15  1  0  0  0  0
 14 31  1  0  0  0  0
 14 32  1  0  0  0  0
 15 16  1  0  0  0  0
 15 33  1  0  0  0  0
 15 34  1  0  0  0  0
 16 17  1  0  0  0  0
 16 35  1  0  0  0  0
 16 36  1  0  0  0  0
M  END
> <s_m_source_file>
AV-unprocessed.smi

> <i_m_source_file_index>
1130

> <i_lp_mmshare_version>
43012

> <i_f3d_flags>
0

> <s_epik_input>
W0NIM11jMW5vYyhuMSlbQ0gyXVtDSDJdW05IXUMoPU8pW05IXVtDSDJdW0NAQEhdMltDSDJdW0NIMl1bQ0gyXU8y

> <s_epik_cmdline>
J2VwaWtfcHl0aG9uJywgJy1waCcsICc3LjAnLCAnLXRuJywgJzgnLCAnLW1hJywgJzIwMCcsICctbWV0YWxfYmluZGluZycsICctaW1hZScsICc8aW5maWxlLm1hZT4nLCAnLW9tYWUnLCAnPG91dGZpbGUubWFlPic=

> <r_lp_tautomer_probability>
1

> <r_epik_Ionization_Penalty>
4.67036e-05

> <r_epik_Ionization_Penalty_Charging>
0

> <r_epik_Ionization_Penalty_Neutral>
4.67036e-05

> <r_epik_State_Penalty>
-0

> <r_epik_Charging_Adjusted_Penalty>
0

> <i_epik_Tot_Q>
0

> <i_epik_Tot_abs_Q>
0

> <r_epik_Metal_State_Penalty>
-0

> <b_epik_Metal_Only>
0

> <s_lp_Force_Field>
OPLS_2005

> <r_lp_Energy>
8.95109

> <b_lp_Chiralities_Consistent>
1

> <s_lp_Variant>
AV-unprocessed.smi:1130-1

> <Gold.Version>
5.8.1

> <Gold.Id.Protein>
6NUR|6NUR_protein|mol2

> <Gold.PLP.Fitness>
38.9297

> <Gold.PLP.PLP>
-30.4248

> <Gold.PLP.part.hbond>
-4.7466

> <Gold.PLP.part.metal>
0.0000

> <Gold.PLP.part.buried>
-3.5542

> <Gold.PLP.part.nonpolar>
-22.9751

> <Gold.PLP.part.repulsive>
0.7677

> <Gold.PLP.ligand.clash>
0.0000

> <Gold.PLP.ligand.torsion>
0.2625

> <Gold.PLP.Chemscore.Hbond>
3.0000

> <Gold.PLP.Chemscore.CHOScore>
0.0000

> <Gold.PLP.Chemscore.Metal>
0.0000

> <Gold.Chemscore.Hbonds>
donor molecule, donor type, donor heavy atom, donor atom, acceptor molecule, acceptor atom, score
      L1  H     8    26       P1  7948  0.84
      L1  H    11    27       P1  7948  1.00
      P1  H  7989  7998       L1     4  0.31
      P1  H  8011  8017       L1     3  0.11

> <Gold.PLP.Chemscore.Internal.Correction>
0.0298

> <Gold.Rescore>
     Score         DG    S(hbond)    S(metal)    S(lipo)     H(rot)  DE(clash)    DE(int)     intcor
     10.60     -10.88       1.62        0.00      50.83       2.33       0.02       0.26       ----

> <Gold.Chemscore.Fitness>
10.6039

> <Gold.Chemscore.DG>
-10.8828

> <Gold.Chemscore.ZeroCoef>
-5.4800

> <Gold.Chemscore.Hbond>
1.6221

> <Gold.Chemscore.Metal>
0.0000

> <Gold.Chemscore.Lipo>
50.8261

> <Gold.Chemscore.Internal_Hbond>
0.0000

> <Gold.Chemscore.DEClash>
0.0158

> <Gold.Chemscore.DEInternal>
0.2631

> <Gold.Chemscore.Rot>
2.3288

> <Gold.Chemscore.Internal.Correction>
   9.000000E+99

> <Gold.Chemscore.Hbonds>
donor molecule, donor type, donor heavy atom, donor atom, acceptor molecule, acceptor atom, score
      L1  H     8    26       P1  7948  0.14
      L1  H    11    27       P1  7948  0.30
      P1  H  8011  8017       L1     3  0.01

> <Gold.Chemscore.Hbond.Weighted>
-5.4178

> <Gold.Chemscore.Metal.Weighted>
-0.0000

> <Gold.Chemscore.Lipo.Weighted>
-5.9467

> <Gold.Chemscore.Internal_Hbond.Weighted>
0.0000

> <Gold.Chemscore.DEClash.Weighted>
0.0158

> <Gold.Chemscore.DEInternal.Weighted>
0.2631

> <Gold.Chemscore.Rot.Weighted>
5.9617

> <Gold.Chemscore.Internal.Correction.Weighted>
   9.000000E+99

> <Gold.Protein.RotatedTorsions>
[ 6907 6896 6895 6894 ] final -162.44 input  -60.11 | X-H torsion
[ 7974 7965 7964 7962 ] final  111.86 input  175.53 | X-H torsion
[ 8008 7997 7996 7995 ] final  169.47 input   59.86 | X-H torsion
[ 10167 10162 10161 10158 ] final  174.57 input  -65.29 | X-H torsion
[ 10718 10713 10712 10709 ] final   70.59 input   66.30 | X-H torsion
[ 10763 10752 10751 10750 ] final  176.94 input  -60.55 | X-H torsion
[ 11005 11000 10999 10996 ] final   67.15 input  -57.11 | X-H torsion

> <Gold.Protein.ActiveResidues>
 VAL166  LYS551  ARG553  GLY616  TRP617  ASP618  TYR619  PRO620  LYS621  CYS622 
 ASP623  PHE694  ASN695  SER759  ASP760  ASP761  ALA762  ILE779  LEU786  VAL792 
 PHE793  MET794  SER795  GLU796  ALA797  LYS798  CYS799  TRP800  GLU811  SER814 

> <Gold.Protein.RotatedAtoms>
  151.3804  133.3823  159.2709 H   0  0  0  0  0  0  0  0  0  0  0  0  # atno 6907 bound_to 6896
  150.9582  134.8975  159.7725 H   0  0  0  0  0  0  0  0  0  0  0  0  # atno 6908 bound_to 6896
  152.5139  134.3762  159.9387 H   0  0  0  0  0  0  0  0  0  0  0  0  # atno 6909 bound_to 6896
  145.2369  139.2795  143.4138 H   0  0  0  0  0  0  0  0  0  0  0  0  # atno 7974 bound_to 7965
  156.1454  140.1563  156.8855 H   0  0  0  0  0  0  0  0  0  0  0  0  # atno 8008 bound_to 7997
  154.5023  140.0822  156.7862 H   0  0  0  0  0  0  0  0  0  0  0  0  # atno 8009 bound_to 7997
  155.3999  140.3414  155.4258 H   0  0  0  0  0  0  0  0  0  0  0  0  # atno 8010 bound_to 7997
  139.5146  144.3132  152.0272 H   0  0  0  0  0  0  0  0  0  0  0  0  # atno 10167 bound_to 10162
  157.6408  130.9485  150.0672 H   0  0  0  0  0  0  0  0  0  0  0  0  # atno 10718 bound_to 10713
  154.4878  135.2777  155.1520 H   0  0  0  0  0  0  0  0  0  0  0  0  # atno 10763 bound_to 10752
  154.3204  135.6211  153.5509 H   0  0  0  0  0  0  0  0  0  0  0  0  # atno 10764 bound_to 10752
  152.9884  135.5741  154.5293 H   0  0  0  0  0  0  0  0  0  0  0  0  # atno 10765 bound_to 10752
  139.9788  134.6778  156.0302 H   0  0  0  0  0  0  0  0  0  0  0  0  # atno 11005 bound_to 11000
  146.3339  140.2720  142.8606 LP  0  0  0  0  0  0  0  0  0  0  0  0  # atno 17320 bound_to 7965
  144.9625  140.8289  143.5505 LP  0  0  0  0  0  0  0  0  0  0  0  0  # atno 17321 bound_to 7965
  140.2576  144.4102  150.6198 LP  0  0  0  0  0  0  0  0  0  0  0  0  # atno 17342 bound_to 10162
  140.6180  143.2174  151.6751 LP  0  0  0  0  0  0  0  0  0  0  0  0  # atno 17343 bound_to 10162
  156.1687  130.3646  149.9196 LP  0  0  0  0  0  0  0  0  0  0  0  0  # atno 17370 bound_to 10713
  156.7176  130.8994  151.3615 LP  0  0  0  0  0  0  0  0  0  0  0  0  # atno 17371 bound_to 10713
  141.1463  133.6555  156.3876 LP  0  0  0  0  0  0  0  0  0  0  0  0  # atno 17394 bound_to 11000
  140.5139  134.6369  157.5294 LP  0  0  0  0  0  0  0  0  0  0  0  0  # atno 17395 bound_to 11000

$$$$
