AV-unprocessed.smi:2973|AV-procd|sdf|11349|dock4
  -GOLD-   2272016263D 1   1.00000     0.00000
 Structure written by MMmdl.
 49 51  0  0  0  0  0  0  0  0  3 V2000
  153.0221  138.7745  158.4060 C   0  0  0  0  0  0  0  0  0  0  0  0
  152.5217  140.1492  157.9085 C   0  0  2  0  0  0  0  0  0  0  0  0
  151.7400  140.8620  159.0346 C   0  0  0  0  0  0  0  0  0  0  0  0
  151.2842  142.2678  158.6171 C   0  0  0  0  0  0  0  0  0  0  0  0
  150.4401  142.2209  157.3375 C   0  0  0  0  0  0  0  0  0  0  0  0
  151.2046  141.5258  156.1975 C   0  0  0  0  0  0  0  0  0  0  0  0
  151.7125  140.1063  156.5683 C   0  0  1  0  0  0  0  0  0  0  0  0
  152.5535  139.6207  155.4874 N   0  5  0  0  0  0  0  0  0  0  0  0
  151.9990  138.5052  154.9600 C   0  0  0  0  0  0  0  0  0  0  0  0
  152.4503  137.8233  154.0400 O   0  0  0  0  0  0  0  0  0  0  0  0
  150.8462  138.1977  155.5830 N   0  0  0  0  0  0  0  0  0  0  0  0
  150.0152  137.0256  155.2782 C   0  0  0  0  0  0  0  0  0  0  0  0
  148.5160  137.3519  155.2390 C   0  0  0  0  0  0  0  0  0  0  0  0
  147.8922  137.5947  156.2735 O   0  0  0  0  0  0  0  0  0  0  0  0
  147.9497  137.3692  154.0232 N   0  0  0  0  0  0  0  0  0  0  0  0
  146.5425  137.6455  153.7618 C   0  0  0  0  0  0  0  0  0  0  0  0
  146.2010  137.4838  152.2705 C   0  0  0  0  0  0  0  0  0  0  0  0
  145.6946  136.0924  151.9464 C   0  0  0  0  0  0  0  0  0  0  0  0
  144.3166  135.7981  151.8584 C   0  0  0  0  0  0  0  0  0  0  0  0
  143.9115  134.4843  151.5432 C   0  0  0  0  0  0  0  0  0  0  0  0
  144.8910  133.4941  151.3226 C   0  0  0  0  0  0  0  0  0  0  0  0
  146.2533  133.8434  151.4221 C   0  0  0  0  0  0  0  0  0  0  0  0
  146.6017  135.1132  151.7254 N   0  3  0  0  0  0  0  0  0  0  0  0
  150.5826  139.0784  156.5546 C   0  0  0  0  0  0  0  0  0  0  0  0
  149.6178  139.0730  157.3203 O   0  0  0  0  0  0  0  0  0  0  0  0
  152.1973  138.1123  158.6700 H   0  0  0  0  0  0  0  0  0  0  0  0
  153.6439  138.8874  159.2943 H   0  0  0  0  0  0  0  0  0  0  0  0
  153.6275  138.2689  157.6538 H   0  0  0  0  0  0  0  0  0  0  0  0
  153.4144  140.7490  157.7214 H   0  0  0  0  0  0  0  0  0  0  0  0
  150.8739  140.2690  159.3291 H   0  0  0  0  0  0  0  0  0  0  0  0
  152.3661  140.9409  159.9239 H   0  0  0  0  0  0  0  0  0  0  0  0
  150.7116  142.7275  159.4229 H   0  0  0  0  0  0  0  0  0  0  0  0
  152.1568  142.9019  158.4560 H   0  0  0  0  0  0  0  0  0  0  0  0
  149.5001  141.7056  157.5336 H   0  0  0  0  0  0  0  0  0  0  0  0
  150.1725  143.2338  157.0355 H   0  0  0  0  0  0  0  0  0  0  0  0
  150.5662  141.4836  155.3133 H   0  0  0  0  0  0  0  0  0  0  0  0
  152.0535  142.1524  155.9186 H   0  0  0  0  0  0  0  0  0  0  0  0
  150.3000  136.5980  154.3157 H   0  0  0  0  0  0  0  0  0  0  0  0
  150.2019  136.2427  156.0157 H   0  0  0  0  0  0  0  0  0  0  0  0
  148.5356  137.1677  153.2259 H   0  0  0  0  0  0  0  0  0  0  0  0
  145.9164  136.9910  154.3710 H   0  0  0  0  0  0  0  0  0  0  0  0
  146.3336  138.6654  154.0855 H   0  0  0  0  0  0  0  0  0  0  0  0
  145.4454  138.2142  151.9775 H   0  0  0  0  0  0  0  0  0  0  0  0
  147.0787  137.6888  151.6559 H   0  0  0  0  0  0  0  0  0  0  0  0
  143.5785  136.5691  152.0273 H   0  0  0  0  0  0  0  0  0  0  0  0
  142.8617  134.2394  151.4711 H   0  0  0  0  0  0  0  0  0  0  0  0
  144.6017  132.4819  151.0797 H   0  0  0  0  0  0  0  0  0  0  0  0
  147.0683  133.1512  151.2687 H   0  0  0  0  0  0  0  0  0  0  0  0
  147.5936  135.3431  151.7915 H   0  0  0  0  0  0  0  0  0  0  0  0
  1  2  1  0  0  0  0
  1 26  1  0  0  0  0
  1 27  1  0  0  0  0
  1 28  1  0  0  0  0
  2  7  1  0  0  0  0
  2  3  1  0  0  0  0
  2 29  1  0  0  0  0
  3  4  1  0  0  0  0
  3 30  1  0  0  0  0
  3 31  1  0  0  0  0
  4  5  1  0  0  0  0
  4 32  1  0  0  0  0
  4 33  1  0  0  0  0
  5  6  1  0  0  0  0
  5 34  1  0  0  0  0
  5 35  1  0  0  0  0
  6  7  1  0  0  0  0
  6 36  1  0  0  0  0
  6 37  1  0  0  0  0
  7 24  1  0  0  0  0
  7  8  1  0  0  0  0
  8  9  1  0  0  0  0
  9 10  2  0  0  0  0
  9 11  1  0  0  0  0
 11 12  1  0  0  0  0
 11 24  1  0  0  0  0
 12 13  1  0  0  0  0
 12 38  1  0  0  0  0
 12 39  1  0  0  0  0
 13 14  2  0  0  0  0
 13 15  1  0  0  0  0
 15 16  1  0  0  0  0
 15 40  1  0  0  0  0
 16 17  1  0  0  0  0
 16 41  1  0  0  0  0
 16 42  1  0  0  0  0
 17 18  1  0  0  0  0
 17 43  1  0  0  0  0
 17 44  1  0  0  0  0
 18 23  1  0  0  0  0
 18 19  2  0  0  0  0
 19 20  1  0  0  0  0
 19 45  1  0  0  0  0
 20 21  2  0  0  0  0
 20 46  1  0  0  0  0
 21 22  1  0  0  0  0
 21 47  1  0  0  0  0
 22 23  2  0  0  0  0
 22 48  1  0  0  0  0
 23 49  1  0  0  0  0
 24 25  2  0  0  0  0
M  CHG  1   8  -1
M  CHG  1  23   1
M  END
> <s_m_source_file>
AV-unprocessed.smi

> <i_m_source_file_index>
2973

> <i_lp_mmshare_version>
43012

> <i_f3d_flags>
0

> <s_epik_input>
W0NIMl0xW0NIMl1bQ0gyXVtDSDJdW0NAQEhdKFtDSDNdKVtDQF0xMltOSF1DKD1PKU4oQzI9TylbQ0gyXUMoPU8pW05IXVtDSDJdW0NIMl1jM1tjSF1bY0hdW2NIXVtjSF1uMw==

> <s_epik_cmdline>
J2VwaWtfcHl0aG9uJywgJy1waCcsICc3LjAnLCAnLXRuJywgJzgnLCAnLW1hJywgJzIwMCcsICctbWV0YWxfYmluZGluZycsICctaW1hZScsICc8aW5maWxlLm1hZT4nLCAnLW9tYWUnLCAnPG91dGZpbGUubWFlPic=

> <r_lp_tautomer_probability>
1

> <r_epik_Ionization_Penalty>
7.89073

> <r_epik_Ionization_Penalty_Charging>
7.89073

> <r_epik_Ionization_Penalty_Neutral>
1.56557e-07

> <r_epik_State_Penalty>
8.01193

> <r_epik_Charging_Adjusted_Penalty>
15.9027

> <i_epik_Tot_Q>
0

> <i_epik_Tot_abs_Q>
2

> <r_epik_Metal_State_Penalty>
3.98737

> <b_epik_Metal_Only>
1

> <s_lp_Force_Field>
OPLS_2005

> <r_lp_Energy>
17.4929

> <b_lp_Chiralities_Consistent>
1

> <s_lp_Variant>
AV-unprocessed.smi:2973-13

> <Gold.Version>
5.8.1

> <Gold.Id.Protein>
6NUR|6NUR_protein|mol2

> <Gold.PLP.Fitness>
51.2527

> <Gold.PLP.PLP>
-36.2583

> <Gold.PLP.part.hbond>
-3.9752

> <Gold.PLP.part.metal>
0.0000

> <Gold.PLP.part.buried>
-4.8983

> <Gold.PLP.part.nonpolar>
-27.0619

> <Gold.PLP.part.repulsive>
0.2236

> <Gold.PLP.ligand.clash>
0.0000

> <Gold.PLP.ligand.torsion>
0.8962

> <Gold.PLP.Chemscore.Hbond>
5.5850

> <Gold.PLP.Chemscore.CHOScore>
0.0000

> <Gold.PLP.Chemscore.Metal>
0.0000

> <Gold.Chemscore.Hbonds>
donor molecule, donor type, donor heavy atom, donor atom, acceptor molecule, acceptor atom, score
      L1  H    15    40       P1  7948  1.00
      L1  H    23    49       P1  7948  2.00
      P1  H  7997  8010       L1     8  2.00
      P1  H 10752 10765       L1    10  0.44

> <Gold.PLP.Chemscore.Internal.Correction>
0.0317

> <Gold.Rescore>
     Score         DG    S(hbond)    S(metal)    S(lipo)     H(rot)  DE(clash)    DE(int)     intcor
     16.57     -20.56       3.09        0.00      82.75       1.92       0.12       3.86       ----

> <Gold.Chemscore.Fitness>
16.5741

> <Gold.Chemscore.DG>
-20.5578

> <Gold.Chemscore.ZeroCoef>
-5.4800

> <Gold.Chemscore.Hbond>
3.0852

> <Gold.Chemscore.Metal>
0.0000

> <Gold.Chemscore.Lipo>
82.7530

> <Gold.Chemscore.Internal_Hbond>
0.0000

> <Gold.Chemscore.DEClash>
0.1232

> <Gold.Chemscore.DEInternal>
3.8605

> <Gold.Chemscore.Rot>
1.9175

> <Gold.Chemscore.Internal.Correction>
   9.000000E+99

> <Gold.Chemscore.Hbonds>
donor molecule, donor type, donor heavy atom, donor atom, acceptor molecule, acceptor atom, score
      L1  H    15    40       P1  7948  0.97
      L1  H    23    49       P1  7948  0.92
      P1  H  7997  8010       L1     8  0.34
      P1  H 10752 10765       L1    10  0.43

> <Gold.Chemscore.Hbond.Weighted>
-10.3045

> <Gold.Chemscore.Metal.Weighted>
-0.0000

> <Gold.Chemscore.Lipo.Weighted>
-9.6821

> <Gold.Chemscore.Internal_Hbond.Weighted>
0.0000

> <Gold.Chemscore.DEClash.Weighted>
0.1232

> <Gold.Chemscore.DEInternal.Weighted>
3.8605

> <Gold.Chemscore.Rot.Weighted>
4.9087

> <Gold.Chemscore.Internal.Correction.Weighted>
   9.000000E+99

> <Gold.Protein.RotatedTorsions>
[ 6907 6896 6895 6894 ] final  135.88 input  -60.11 | X-H torsion
[ 7974 7965 7964 7962 ] final  -21.10 input  175.53 | X-H torsion
[ 8008 7997 7996 7995 ] final   90.82 input   59.86 | X-H torsion
[ 10167 10162 10161 10158 ] final   53.81 input  -65.29 | X-H torsion
[ 10718 10713 10712 10709 ] final   53.98 input   66.30 | X-H torsion
[ 10763 10752 10751 10750 ] final  147.31 input  -60.55 | X-H torsion
[ 11005 11000 10999 10996 ] final  129.09 input  -57.11 | X-H torsion

> <Gold.Protein.ActiveResidues>
 VAL166  LYS551  ARG553  GLY616  TRP617  ASP618  TYR619  PRO620  LYS621  CYS622 
 ASP623  PHE694  ASN695  SER759  ASP760  ASP761  ALA762  ILE779  LEU786  VAL792 
 PHE793  MET794  SER795  GLU796  ALA797  LYS798  CYS799  TRP800  GLU811  SER814 

> <Gold.Protein.RotatedAtoms>
  152.2955  133.5603  159.5584 H   0  0  0  0  0  0  0  0  0  0  0  0  # atno 6907 bound_to 6896
  150.7254  134.0367  159.3760 H   0  0  0  0  0  0  0  0  0  0  0  0  # atno 6908 bound_to 6896
  151.8270  135.0634  160.0483 H   0  0  0  0  0  0  0  0  0  0  0  0  # atno 6909 bound_to 6896
  146.1752  140.4294  142.8516 H   0  0  0  0  0  0  0  0  0  0  0  0  # atno 7974 bound_to 7965
  156.0165  140.3345  155.6994 H   0  0  0  0  0  0  0  0  0  0  0  0  # atno 8008 bound_to 7997
  155.6084  140.0663  157.2731 H   0  0  0  0  0  0  0  0  0  0  0  0  # atno 8009 bound_to 7997
  154.4300  140.1798  156.1234 H   0  0  0  0  0  0  0  0  0  0  0  0  # atno 8010 bound_to 7997
  140.2368  144.3627  150.6394 H   0  0  0  0  0  0  0  0  0  0  0  0  # atno 10167 bound_to 10162
  157.5216  130.8568  149.8565 H   0  0  0  0  0  0  0  0  0  0  0  0  # atno 10718 bound_to 10713
  154.0363  135.2893  155.3361 H   0  0  0  0  0  0  0  0  0  0  0  0  # atno 10763 bound_to 10752
  154.6957  135.5209  153.8458 H   0  0  0  0  0  0  0  0  0  0  0  0  # atno 10764 bound_to 10752
  153.0619  135.6617  154.0571 H   0  0  0  0  0  0  0  0  0  0  0  0  # atno 10765 bound_to 10752
  139.9596  134.9605  156.9097 H   0  0  0  0  0  0  0  0  0  0  0  0  # atno 11005 bound_to 11000
  144.8224  140.6573  143.6344 LP  0  0  0  0  0  0  0  0  0  0  0  0  # atno 17320 bound_to 7965
  145.4232  139.1560  143.4063 LP  0  0  0  0  0  0  0  0  0  0  0  0  # atno 17321 bound_to 7965
  140.6143  143.2171  151.6823 LP  0  0  0  0  0  0  0  0  0  0  0  0  # atno 17342 bound_to 10162
  139.5091  144.3589  152.0581 LP  0  0  0  0  0  0  0  0  0  0  0  0  # atno 17343 bound_to 10162
  156.0357  130.3752  150.1567 LP  0  0  0  0  0  0  0  0  0  0  0  0  # atno 17370 bound_to 10713
  156.9755  130.9848  151.3449 LP  0  0  0  0  0  0  0  0  0  0  0  0  # atno 17371 bound_to 10713
  140.5530  134.0608  155.7375 LP  0  0  0  0  0  0  0  0  0  0  0  0  # atno 17394 bound_to 11000
  141.1272  133.9364  157.2611 LP  0  0  0  0  0  0  0  0  0  0  0  0  # atno 17395 bound_to 11000

$$$$
