AV-unprocessed.smi:1644|AV-procd|sdf|6592|dock3
  -GOLD-   22720 7293D 1   1.00000     0.00000
 Structure written by MMmdl.
 48 50  0  0  0  0  0  0  0  0  2 V2000
  152.3167  143.6911  158.7032 C   0  0  0  0  0  0  0  0  0  0  0  0
  152.7844  142.2473  158.4907 C   0  0  0  0  0  0  0  0  0  0  0  0
  151.6040  141.2665  158.3198 C   0  0  0  0  0  0  0  0  0  0  0  0
  151.9429  139.8934  157.6897 C   0  0  2  0  0  0  0  0  0  0  0  0
  152.6273  140.0370  156.4218 N   0  5  0  0  0  0  0  0  0  0  0  0
  151.9189  139.3753  155.4765 C   0  0  0  0  0  0  0  0  0  0  0  0
  152.1917  139.2898  154.2795 O   0  0  0  0  0  0  0  0  0  0  0  0
  150.8196  138.8022  156.0053 N   0  0  0  0  0  0  0  0  0  0  0  0
  149.8156  138.0467  155.2496 C   0  0  0  0  0  0  0  0  0  0  0  0
  150.1831  136.5516  155.1568 C   0  0  2  0  0  0  0  0  0  0  0  0
  151.2636  136.4048  154.2551 O   0  0  0  0  0  0  0  0  0  0  0  0
  149.0032  135.7048  154.6433 C   0  0  0  0  0  0  0  0  0  0  0  0
  149.2279  134.2805  154.8132 N   0  0  0  0  0  0  0  0  0  0  0  0
  150.2321  133.6876  155.4870 C   0  0  0  0  0  0  0  0  0  0  0  0
  150.2482  132.3576  155.5096 N   0  0  0  0  0  0  0  0  0  0  0  0
  149.1204  132.0531  154.7662 C   0  0  0  0  0  0  0  0  0  0  0  0
  148.5651  130.8037  154.4125 C   0  0  0  0  0  0  0  0  0  0  0  0
  147.3855  130.7282  153.6375 C   0  0  0  0  0  0  0  0  0  0  0  0
  146.8190  129.3640  153.2852 C   0  0  0  0  0  0  0  0  0  0  0  0
  146.7449  131.9157  153.2007 C   0  0  0  0  0  0  0  0  0  0  0  0
  145.4736  131.8603  152.3723 C   0  0  0  0  0  0  0  0  0  0  0  0
  147.2899  133.1717  153.5401 C   0  0  0  0  0  0  0  0  0  0  0  0
  148.4612  133.2335  154.3152 C   0  0  0  0  0  0  0  0  0  0  0  0
  150.7320  139.0650  157.3124 C   0  0  0  0  0  0  0  0  0  0  0  0
  149.8416  138.7282  158.0935 O   0  0  0  0  0  0  0  0  0  0  0  0
  153.1685  144.3617  158.8186 H   0  0  0  0  0  0  0  0  0  0  0  0
  151.7013  143.7775  159.5991 H   0  0  0  0  0  0  0  0  0  0  0  0
  151.7276  144.0427  157.8557 H   0  0  0  0  0  0  0  0  0  0  0  0
  153.4336  142.2153  157.6156 H   0  0  0  0  0  0  0  0  0  0  0  0
  153.3984  141.9464  159.3399 H   0  0  0  0  0  0  0  0  0  0  0  0
  151.1397  141.0982  159.2925 H   0  0  0  0  0  0  0  0  0  0  0  0
  150.8366  141.7463  157.7112 H   0  0  0  0  0  0  0  0  0  0  0  0
  152.5369  139.3163  158.3996 H   0  0  0  0  0  0  0  0  0  0  0  0
  148.8575  138.1595  155.7595 H   0  0  0  0  0  0  0  0  0  0  0  0
  149.6587  138.4748  154.2576 H   0  0  0  0  0  0  0  0  0  0  0  0
  150.4891  136.1763  156.1345 H   0  0  0  0  0  0  0  0  0  0  0  0
  150.9114  136.2600  153.3898 H   0  0  0  0  0  0  0  0  0  0  0  0
  148.0915  135.9652  155.1824 H   0  0  0  0  0  0  0  0  0  0  0  0
  148.8130  135.9108  153.5887 H   0  0  0  0  0  0  0  0  0  0  0  0
  150.9936  134.2655  155.9904 H   0  0  0  0  0  0  0  0  0  0  0  0
  149.0538  129.8996  154.7452 H   0  0  0  0  0  0  0  0  0  0  0  0
  146.7635  129.2404  152.2035 H   0  0  0  0  0  0  0  0  0  0  0  0
  145.8173  129.2487  153.6995 H   0  0  0  0  0  0  0  0  0  0  0  0
  147.4401  128.5600  153.6819 H   0  0  0  0  0  0  0  0  0  0  0  0
  145.1219  132.8602  152.1162 H   0  0  0  0  0  0  0  0  0  0  0  0
  144.6796  131.3584  152.9257 H   0  0  0  0  0  0  0  0  0  0  0  0
  145.6451  131.3180  151.4424 H   0  0  0  0  0  0  0  0  0  0  0  0
  146.8131  134.0848  153.2148 H   0  0  0  0  0  0  0  0  0  0  0  0
  1  2  1  0  0  0  0
  1 26  1  0  0  0  0
  1 27  1  0  0  0  0
  1 28  1  0  0  0  0
  2  3  1  0  0  0  0
  2 29  1  0  0  0  0
  2 30  1  0  0  0  0
  3  4  1  0  0  0  0
  3 31  1  0  0  0  0
  3 32  1  0  0  0  0
  4 24  1  0  0  0  0
  4  5  1  0  0  0  0
  4 33  1  0  0  0  0
  5  6  1  0  0  0  0
  6  7  2  0  0  0  0
  6  8  1  0  0  0  0
  8  9  1  0  0  0  0
  8 24  1  0  0  0  0
  9 10  1  0  0  0  0
  9 34  1  0  0  0  0
  9 35  1  0  0  0  0
 10 11  1  0  0  0  0
 10 12  1  0  0  0  0
 10 36  1  0  0  0  0
 11 37  1  0  0  0  0
 12 13  1  0  0  0  0
 12 38  1  0  0  0  0
 12 39  1  0  0  0  0
 13 23  1  0  0  0  0
 13 14  1  0  0  0  0
 14 15  2  0  0  0  0
 14 40  1  0  0  0  0
 15 16  1  0  0  0  0
 16 23  2  0  0  0  0
 16 17  1  0  0  0  0
 17 18  2  0  0  0  0
 17 41  1  0  0  0  0
 18 19  1  0  0  0  0
 18 20  1  0  0  0  0
 19 42  1  0  0  0  0
 19 43  1  0  0  0  0
 19 44  1  0  0  0  0
 20 21  1  0  0  0  0
 20 22  2  0  0  0  0
 21 45  1  0  0  0  0
 21 46  1  0  0  0  0
 21 47  1  0  0  0  0
 22 23  1  0  0  0  0
 22 48  1  0  0  0  0
 24 25  2  0  0  0  0
M  CHG  1   5  -1
M  END
> <s_m_source_file>
AV-unprocessed.smi

> <i_m_source_file_index>
1644

> <i_lp_mmshare_version>
43012

> <i_f3d_flags>
0

> <s_epik_input>
W0NIM11bQ0gyXVtDSDJdW0NAQEhdMVtOSF1DKD1PKU4oQzE9TylbQ0gyXVtDQEhdKFtPSF0pW0NIMl1uKFtjSF1uMiljKGMyMylbY0hdYyhbQ0gzXSljKFtjSF0zKVtDSDNd

> <s_epik_cmdline>
J2VwaWtfcHl0aG9uJywgJy1waCcsICc3LjAnLCAnLXRuJywgJzgnLCAnLW1hJywgJzIwMCcsICctbWV0YWxfYmluZGluZycsICctaW1hZScsICc8aW5maWxlLm1hZT4nLCAnLW9tYWUnLCAnPG91dGZpbGUubWFlPic=

> <r_lp_tautomer_probability>
1

> <r_epik_Ionization_Penalty>
5.95212

> <r_epik_Ionization_Penalty_Charging>
5.84419

> <r_epik_Ionization_Penalty_Neutral>
0.107924

> <r_epik_State_Penalty>
5.94088

> <r_epik_Charging_Adjusted_Penalty>
11.7851

> <i_epik_Tot_Q>
-1

> <i_epik_Tot_abs_Q>
1

> <r_epik_Metal_State_Penalty>
1.99095

> <b_epik_Metal_Only>
1

> <s_lp_Force_Field>
OPLS_2005

> <r_lp_Energy>
19.2974

> <b_lp_Chiralities_Consistent>
1

> <s_lp_Variant>
AV-unprocessed.smi:1644-9

> <Gold.Version>
5.8.1

> <Gold.Id.Protein>
6NUR|6NUR_protein|mol2

> <Gold.PLP.Fitness>
53.8493

> <Gold.PLP.PLP>
-41.0863

> <Gold.PLP.part.hbond>
-4.0000

> <Gold.PLP.part.metal>
0.0000

> <Gold.PLP.part.buried>
-2.0027

> <Gold.PLP.part.nonpolar>
-34.4895

> <Gold.PLP.part.repulsive>
0.0518

> <Gold.PLP.ligand.clash>
0.0000

> <Gold.PLP.ligand.torsion>
0.7012

> <Gold.PLP.Chemscore.Hbond>
4.6920

> <Gold.PLP.Chemscore.CHOScore>
0.0000

> <Gold.PLP.Chemscore.Metal>
0.0000

> <Gold.Chemscore.Hbonds>
donor molecule, donor type, donor heavy atom, donor atom, acceptor molecule, acceptor atom, score
      L1  H    11    37       P1  7949  0.80
      P1  H  7989  7998       L1     7  0.74
      P1  H  7997  8010       L1     5  1.47
      P1  H 10752 10764       L1    11  1.00

> <Gold.PLP.Chemscore.Internal.Correction>
0.0895

> <Gold.Rescore>
     Score         DG    S(hbond)    S(metal)    S(lipo)     H(rot)  DE(clash)    DE(int)     intcor
     16.19     -19.07       2.84        0.00      93.12       2.65       1.83       1.05       ----

> <Gold.Chemscore.Fitness>
16.1924

> <Gold.Chemscore.DG>
-19.0733

> <Gold.Chemscore.ZeroCoef>
-5.4800

> <Gold.Chemscore.Hbond>
2.8380

> <Gold.Chemscore.Metal>
0.0000

> <Gold.Chemscore.Lipo>
93.1181

> <Gold.Chemscore.Internal_Hbond>
0.0000

> <Gold.Chemscore.DEClash>
1.8318

> <Gold.Chemscore.DEInternal>
1.0491

> <Gold.Chemscore.Rot>
2.6486

> <Gold.Chemscore.Internal.Correction>
   9.000000E+99

> <Gold.Chemscore.Hbonds>
donor molecule, donor type, donor heavy atom, donor atom, acceptor molecule, acceptor atom, score
      L1  H    11    37       P1  7949  0.11
      P1  H  7989  7998       L1     7  0.48
      P1  H  7997  8010       L1     5  0.45
      P1  H 10752 10764       L1    11  0.90

> <Gold.Chemscore.Hbond.Weighted>
-9.4789

> <Gold.Chemscore.Metal.Weighted>
-0.0000

> <Gold.Chemscore.Lipo.Weighted>
-10.8948

> <Gold.Chemscore.Internal_Hbond.Weighted>
0.0000

> <Gold.Chemscore.DEClash.Weighted>
1.8318

> <Gold.Chemscore.DEInternal.Weighted>
1.0491

> <Gold.Chemscore.Rot.Weighted>
6.7804

> <Gold.Chemscore.Internal.Correction.Weighted>
   9.000000E+99

> <Gold.Protein.RotatedTorsions>
[ 6907 6896 6895 6894 ] final  -68.68 input  -60.11 | X-H torsion
[ 7974 7965 7964 7962 ] final   34.49 input  175.53 | X-H torsion
[ 8008 7997 7996 7995 ] final   48.46 input   59.86 | X-H torsion
[ 10167 10162 10161 10158 ] final -137.89 input  -65.29 | X-H torsion
[ 10718 10713 10712 10709 ] final   44.88 input   66.30 | X-H torsion
[ 10763 10752 10751 10750 ] final  -56.63 input  -60.55 | X-H torsion
[ 11005 11000 10999 10996 ] final  129.03 input  -57.11 | X-H torsion

> <Gold.Protein.ActiveResidues>
 VAL166  LYS551  ARG553  GLY616  TRP617  ASP618  TYR619  PRO620  LYS621  CYS622 
 ASP623  PHE694  ASN695  SER759  ASP760  ASP761  ALA762  ILE779  LEU786  VAL792 
 PHE793  MET794  SER795  GLU796  ALA797  LYS798  CYS799  TRP800  GLU811  SER814 

> <Gold.Protein.RotatedAtoms>
  150.7344  134.5705  159.5887 H   0  0  0  0  0  0  0  0  0  0  0  0  # atno 6907 bound_to 6896
  152.3145  134.7454  160.0337 H   0  0  0  0  0  0  0  0  0  0  0  0  # atno 6908 bound_to 6896
  151.7990  133.3332  159.3558 H   0  0  0  0  0  0  0  0  0  0  0  0  # atno 6909 bound_to 6896
  146.1349  139.6262  142.9202 H   0  0  0  0  0  0  0  0  0  0  0  0  # atno 7974 bound_to 7965
  155.3860  140.3431  155.4249 H   0  0  0  0  0  0  0  0  0  0  0  0  # atno 8008 bound_to 7997
  156.1584  140.1593  156.8687 H   0  0  0  0  0  0  0  0  0  0  0  0  # atno 8009 bound_to 7997
  154.5116  140.0788  156.7983 H   0  0  0  0  0  0  0  0  0  0  0  0  # atno 8010 bound_to 7997
  139.8532  143.7171  152.2656 H   0  0  0  0  0  0  0  0  0  0  0  0  # atno 10167 bound_to 10162
  157.4316  130.8028  149.7608 H   0  0  0  0  0  0  0  0  0  0  0  0  # atno 10718 bound_to 10713
  154.2097  135.6396  153.5111 H   0  0  0  0  0  0  0  0  0  0  0  0  # atno 10763 bound_to 10752
  152.9993  135.5471  154.6228 H   0  0  0  0  0  0  0  0  0  0  0  0  # atno 10764 bound_to 10752
  154.5662  135.2913  155.0845 H   0  0  0  0  0  0  0  0  0  0  0  0  # atno 10765 bound_to 10752
  139.9593  134.9606  156.9089 H   0  0  0  0  0  0  0  0  0  0  0  0  # atno 11005 bound_to 11000
  145.5178  141.0433  143.2452 LP  0  0  0  0  0  0  0  0  0  0  0  0  # atno 17320 bound_to 7965
  144.7729  139.6694  143.7187 LP  0  0  0  0  0  0  0  0  0  0  0  0  # atno 17321 bound_to 7965
  139.7445  144.7551  151.0601 LP  0  0  0  0  0  0  0  0  0  0  0  0  # atno 17342 bound_to 10162
  140.7785  143.4933  150.9865 LP  0  0  0  0  0  0  0  0  0  0  0  0  # atno 17343 bound_to 10162
  155.9915  130.3937  150.2981 LP  0  0  0  0  0  0  0  0  0  0  0  0  # atno 17370 bound_to 10713
  157.1138  131.0228  151.3037 LP  0  0  0  0  0  0  0  0  0  0  0  0  # atno 17371 bound_to 10713
  140.5537  134.0602  155.7377 LP  0  0  0  0  0  0  0  0  0  0  0  0  # atno 17394 bound_to 11000
  141.1268  133.9369  157.2618 LP  0  0  0  0  0  0  0  0  0  0  0  0  # atno 17395 bound_to 11000

$$$$
