AV-unprocessed.smi:1901|AV-procd|sdf|7716|dock1
  -GOLD-   22720 9453D 1   1.00000     0.00000
 Structure written by MMmdl.
 28 29  0  0  0  0  0  0  0  0  1 V2000
  151.0528  140.7660  155.5158 O   0  0  0  0  0  0  0  0  0  0  0  0
  150.3178  141.7398  155.6836 C   0  0  0  0  0  0  0  0  0  0  0  0
  150.6639  142.8088  156.4151 N   0  0  0  0  0  0  0  0  0  0  0  0
  151.9385  142.9716  157.1061 C   0  0  0  0  0  0  0  0  0  0  0  0
  151.8914  144.1052  158.1482 C   0  0  2  0  0  0  0  0  0  0  0  0
  152.7287  143.8636  159.3887 C   0  0  0  0  0  0  0  0  0  0  0  0
  152.1147  144.8517  160.3745 C   0  0  0  0  0  0  0  0  0  0  0  0
  150.7342  144.9305  160.0324 O   0  0  0  0  0  0  0  0  0  0  0  0
  150.5086  144.3271  158.7612 C   0  0  0  0  0  0  0  0  0  0  0  0
  149.0825  141.8793  155.1717 N   0  0  0  0  0  0  0  0  0  0  0  0
  148.3687  140.9742  154.3429 C   0  0  0  0  0  0  0  0  0  0  0  0
  148.7256  139.7020  154.1314 N   0  0  0  0  0  0  0  0  0  0  0  0
  147.8421  139.0452  153.2710 C   0  0  0  0  0  0  0  0  0  0  0  0
  146.8101  139.8381  152.8348 C   0  0  0  0  0  0  0  0  0  0  0  0
  146.9066  141.4503  153.4917 S   0  0  0  0  0  0  0  0  0  0  0  0
  149.9996  143.5641  156.5015 H   0  0  0  0  0  0  0  0  0  0  0  0
  152.2254  142.0327  157.5826 H   0  0  0  0  0  0  0  0  0  0  0  0
  152.7030  143.1813  156.3573 H   0  0  0  0  0  0  0  0  0  0  0  0
  152.2147  145.0406  157.6877 H   0  0  0  0  0  0  0  0  0  0  0  0
  152.5935  142.8426  159.7486 H   0  0  0  0  0  0  0  0  0  0  0  0
  153.7940  144.0328  159.2289 H   0  0  0  0  0  0  0  0  0  0  0  0
  152.2525  144.5473  161.4122 H   0  0  0  0  0  0  0  0  0  0  0  0
  152.5603  145.8394  160.2487 H   0  0  0  0  0  0  0  0  0  0  0  0
  149.8721  144.9509  158.1332 H   0  0  0  0  0  0  0  0  0  0  0  0
  149.9971  143.3769  158.9208 H   0  0  0  0  0  0  0  0  0  0  0  0
  148.5981  142.7362  155.3946 H   0  0  0  0  0  0  0  0  0  0  0  0
  148.0236  138.0102  153.0211 H   0  0  0  0  0  0  0  0  0  0  0  0
  146.0025  139.5721  152.1692 H   0  0  0  0  0  0  0  0  0  0  0  0
  1  2  2  0  0  0  0
  2  3  1  0  0  0  0
  2 10  1  0  0  0  0
  3  4  1  0  0  0  0
  3 16  1  0  0  0  0
  4  5  1  0  0  0  0
  4 17  1  0  0  0  0
  4 18  1  0  0  0  0
  5  9  1  0  0  0  0
  5  6  1  0  0  0  0
  5 19  1  0  0  0  0
  6  7  1  0  0  0  0
  6 20  1  0  0  0  0
  6 21  1  0  0  0  0
  7  8  1  0  0  0  0
  7 22  1  0  0  0  0
  7 23  1  0  0  0  0
  8  9  1  0  0  0  0
  9 24  1  0  0  0  0
  9 25  1  0  0  0  0
 10 11  1  0  0  0  0
 10 26  1  0  0  0  0
 11 15  1  0  0  0  0
 11 12  2  0  0  0  0
 12 13  1  0  0  0  0
 13 14  2  0  0  0  0
 13 27  1  0  0  0  0
 14 15  1  0  0  0  0
 14 28  1  0  0  0  0
M  END
> <s_m_source_file>
AV-unprocessed.smi

> <i_m_source_file_index>
1901

> <i_lp_mmshare_version>
43012

> <i_f3d_flags>
0

> <s_epik_input>
czFbY0hdW2NIXW5jMVtOSF1DKD1PKVtOSF1bQ0gyXVtDQEBIXTJbQ0gyXVtDSDJdT1tDSDJdMg==

> <s_epik_cmdline>
J2VwaWtfcHl0aG9uJywgJy1waCcsICc3LjAnLCAnLXRuJywgJzgnLCAnLW1hJywgJzIwMCcsICctbWV0YWxfYmluZGluZycsICctaW1hZScsICc8aW5maWxlLm1hZT4nLCAnLW9tYWUnLCAnPG91dGZpbGUubWFlPic=

> <r_lp_tautomer_probability>
0.999

> <r_epik_Ionization_Penalty>
0.000365592

> <r_epik_Ionization_Penalty_Charging>
0

> <r_epik_Ionization_Penalty_Neutral>
0.000365592

> <r_epik_State_Penalty>
0.000177984

> <r_epik_Charging_Adjusted_Penalty>
0.000177984

> <i_epik_Tot_Q>
0

> <i_epik_Tot_abs_Q>
0

> <r_epik_Metal_State_Penalty>
0.00682492

> <b_epik_Metal_Only>
0

> <s_lp_Force_Field>
OPLS_2005

> <r_lp_Energy>
16.9403

> <b_lp_Chiralities_Consistent>
1

> <s_lp_Variant>
AV-unprocessed.smi:1901-1

> <Gold.Version>
5.8.1

> <Gold.Id.Protein>
6NUR|6NUR_protein|mol2

> <Gold.PLP.Fitness>
40.7007

> <Gold.PLP.PLP>
-28.7618

> <Gold.PLP.part.hbond>
-3.0000

> <Gold.PLP.part.metal>
0.0000

> <Gold.PLP.part.buried>
-3.7776

> <Gold.PLP.part.nonpolar>
-22.3131

> <Gold.PLP.part.repulsive>
0.6093

> <Gold.PLP.ligand.clash>
0.0000

> <Gold.PLP.ligand.torsion>
0.5568

> <Gold.PLP.Chemscore.Hbond>
2.4930

> <Gold.PLP.Chemscore.CHOScore>
1.8558

> <Gold.PLP.Chemscore.Metal>
0.0000

> <Gold.Chemscore.Hbonds>
donor molecule, donor type, donor heavy atom, donor atom, acceptor molecule, acceptor atom, score
      L1  H     3    16       P1  8028  0.96
      L1  H    10    26       P1  8028  0.86
      P1  H  7989  7998       L1     1  0.68
      L1  C    13    27       P1  7948  1.00
      L1  C    14    28       P1 10175  0.85

> <Gold.PLP.Chemscore.Internal.Correction>
0.0063

> <Gold.Rescore>
     Score         DG    S(hbond)    S(metal)    S(lipo)     H(rot)  DE(clash)    DE(int)     intcor
     15.13     -19.43       2.32        0.00      81.72       1.32       2.35       1.95       ----

> <Gold.Chemscore.Fitness>
15.1340

> <Gold.Chemscore.DG>
-19.4286

> <Gold.Chemscore.ZeroCoef>
-5.4800

> <Gold.Chemscore.Hbond>
2.3223

> <Gold.Chemscore.Metal>
0.0000

> <Gold.Chemscore.Lipo>
81.7250

> <Gold.Chemscore.Internal_Hbond>
0.0000

> <Gold.Chemscore.DEClash>
2.3473

> <Gold.Chemscore.DEInternal>
1.9473

> <Gold.Chemscore.Rot>
1.3163

> <Gold.Chemscore.Internal.Correction>
   9.000000E+99

> <Gold.Chemscore.Hbonds>
donor molecule, donor type, donor heavy atom, donor atom, acceptor molecule, acceptor atom, score
      L1  H     3    16       P1  8028  0.92
      L1  H    10    26       P1  8028  0.81
      P1  H  7989  7998       L1     1  0.29

> <Gold.Chemscore.Hbond.Weighted>
-7.7566

> <Gold.Chemscore.Metal.Weighted>
-0.0000

> <Gold.Chemscore.Lipo.Weighted>
-9.5618

> <Gold.Chemscore.Internal_Hbond.Weighted>
0.0000

> <Gold.Chemscore.DEClash.Weighted>
2.3473

> <Gold.Chemscore.DEInternal.Weighted>
1.9473

> <Gold.Chemscore.Rot.Weighted>
3.3698

> <Gold.Chemscore.Internal.Correction.Weighted>
   9.000000E+99

> <Gold.Protein.RotatedTorsions>
[ 6907 6896 6895 6894 ] final   71.03 input  -60.11 | X-H torsion
[ 7974 7965 7964 7962 ] final   -4.42 input  175.53 | X-H torsion
[ 8008 7997 7996 7995 ] final  159.08 input   59.86 | X-H torsion
[ 10167 10162 10161 10158 ] final   65.95 input  -65.29 | X-H torsion
[ 10718 10713 10712 10709 ] final    9.65 input   66.30 | X-H torsion
[ 10763 10752 10751 10750 ] final -141.08 input  -60.55 | X-H torsion
[ 11005 11000 10999 10996 ] final  134.89 input  -57.11 | X-H torsion

> <Gold.Protein.ActiveResidues>
 VAL166  LYS551  ARG553  GLY616  TRP617  ASP618  TYR619  PRO620  LYS621  CYS622 
 ASP623  PHE694  ASN695  SER759  ASP760  ASP761  ALA762  ILE779  LEU786  VAL792 
 PHE793  MET794  SER795  GLU796  ALA797  LYS798  CYS799  TRP800  GLU811  SER814 

> <Gold.Protein.RotatedAtoms>
  152.4785  134.4781  159.9656 H   0  0  0  0  0  0  0  0  0  0  0  0  # atno 6907 bound_to 6896
  151.4792  133.3544  159.2843 H   0  0  0  0  0  0  0  0  0  0  0  0  # atno 6908 bound_to 6896
  150.8840  134.8262  159.7307 H   0  0  0  0  0  0  0  0  0  0  0  0  # atno 6909 bound_to 6896
  146.2372  140.1868  142.8332 H   0  0  0  0  0  0  0  0  0  0  0  0  # atno 7974 bound_to 7965
  156.2262  140.1841  156.7358 H   0  0  0  0  0  0  0  0  0  0  0  0  # atno 8008 bound_to 7997
  154.5945  140.0645  156.9312 H   0  0  0  0  0  0  0  0  0  0  0  0  # atno 8009 bound_to 7997
  155.2280  140.3312  155.4309 H   0  0  0  0  0  0  0  0  0  0  0  0  # atno 8010 bound_to 7997
  140.1057  144.4863  150.7009 H   0  0  0  0  0  0  0  0  0  0  0  0  # atno 10167 bound_to 10162
  156.9694  130.5963  149.5667 H   0  0  0  0  0  0  0  0  0  0  0  0  # atno 10718 bound_to 10713
  154.8557  135.3534  154.5810 H   0  0  0  0  0  0  0  0  0  0  0  0  # atno 10763 bound_to 10752
  153.6421  135.6998  153.5242 H   0  0  0  0  0  0  0  0  0  0  0  0  # atno 10764 bound_to 10752
  153.2962  135.4220  155.1171 H   0  0  0  0  0  0  0  0  0  0  0  0  # atno 10765 bound_to 10752
  139.9944  134.9503  156.9930 H   0  0  0  0  0  0  0  0  0  0  0  0  # atno 11005 bound_to 11000
  144.9890  140.8529  143.5351 LP  0  0  0  0  0  0  0  0  0  0  0  0  # atno 17320 bound_to 7965
  145.1871  139.2320  143.5262 LP  0  0  0  0  0  0  0  0  0  0  0  0  # atno 17321 bound_to 7965
  140.6953  143.2400  151.5018 LP  0  0  0  0  0  0  0  0  0  0  0  0  # atno 17342 bound_to 10162
  139.5646  144.2072  152.1745 LP  0  0  0  0  0  0  0  0  0  0  0  0  # atno 17343 bound_to 10162
  156.0289  130.5381  150.8481 LP  0  0  0  0  0  0  0  0  0  0  0  0  # atno 17370 bound_to 10713
  157.5603  131.0945  150.9569 LP  0  0  0  0  0  0  0  0  0  0  0  0  # atno 17371 bound_to 10713
  140.4847  134.1254  155.7222 LP  0  0  0  0  0  0  0  0  0  0  0  0  # atno 17394 bound_to 11000
  141.1592  133.8825  157.1894 LP  0  0  0  0  0  0  0  0  0  0  0  0  # atno 17395 bound_to 11000

$$$$
