AV-unprocessed.smi:912|AV-procd|sdf|4143|dock10
  -GOLD-   22720 2 53D 1   1.00000     0.00000
 Structure written by MMmdl.
 27 27  0  0  0  0  0  0  0  0  2 V2000
  146.2129  137.8067  151.6743 C   0  0  0  0  0  0  0  0  0  0  0  0
  146.1627  136.3782  151.2836 N   0  3  0  0  0  0  0  0  0  0  0  0
  145.2898  135.4622  152.0742 C   0  0  2  0  0  0  0  0  0  0  0  0
  143.9204  136.1385  152.3469 C   0  0  0  0  0  0  0  0  0  0  0  0
  146.0302  135.1206  153.3928 C   0  0  0  0  0  0  0  0  0  0  0  0
  147.2868  135.5583  153.5365 N   0  0  0  0  0  0  0  0  0  0  0  0
  145.4739  134.4812  154.2836 O   0  0  0  0  0  0  0  0  0  0  0  0
  145.0476  134.1511  151.2960 C   0  0  0  0  0  0  0  0  0  0  0  0
  143.7492  133.6362  151.0486 C   0  0  0  0  0  0  0  0  0  0  0  0
  143.6163  132.4291  150.3328 C   0  0  0  0  0  0  0  0  0  0  0  0
  144.6649  131.7234  149.8636 N   0  0  0  0  0  0  0  0  0  0  0  0
  145.9015  132.2069  150.0973 C   0  0  0  0  0  0  0  0  0  0  0  0
  146.1435  133.4030  150.8007 C   0  0  0  0  0  0  0  0  0  0  0  0
  146.9636  138.3175  151.0713 H   0  0  0  0  0  0  0  0  0  0  0  0
  146.4864  137.9370  152.7214 H   0  0  0  0  0  0  0  0  0  0  0  0
  145.2604  138.3050  151.4949 H   0  0  0  0  0  0  0  0  0  0  0  0
  145.8538  136.3382  150.3229 H   0  0  0  0  0  0  0  0  0  0  0  0
  143.2444  135.4848  152.8988 H   0  0  0  0  0  0  0  0  0  0  0  0
  143.4218  136.4028  151.4137 H   0  0  0  0  0  0  0  0  0  0  0  0
  144.0123  137.0497  152.9384 H   0  0  0  0  0  0  0  0  0  0  0  0
  147.7961  135.3819  154.3904 H   0  0  0  0  0  0  0  0  0  0  0  0
  147.7157  136.0925  152.7936 H   0  0  0  0  0  0  0  0  0  0  0  0
  142.8529  134.1327  151.3871 H   0  0  0  0  0  0  0  0  0  0  0  0
  142.6374  132.0197  150.1319 H   0  0  0  0  0  0  0  0  0  0  0  0
  146.7249  131.6243  149.7113 H   0  0  0  0  0  0  0  0  0  0  0  0
  147.1600  133.7364  150.9497 H   0  0  0  0  0  0  0  0  0  0  0  0
  147.1021  136.0104  151.3270 H   0  0  0  0  0  0  0  0  0  0  0  0
  1  2  1  0  0  0  0
  1 14  1  0  0  0  0
  1 15  1  0  0  0  0
  1 16  1  0  0  0  0
  2  3  1  0  0  0  0
  2 17  1  0  0  0  0
  2 27  1  0  0  0  0
  3  4  1  0  0  0  0
  3  5  1  0  0  0  0
  3  8  1  0  0  0  0
  4 18  1  0  0  0  0
  4 19  1  0  0  0  0
  4 20  1  0  0  0  0
  5  6  1  0  0  0  0
  5  7  2  0  0  0  0
  6 21  1  0  0  0  0
  6 22  1  0  0  0  0
  8 13  1  0  0  0  0
  8  9  2  0  0  0  0
  9 10  1  0  0  0  0
  9 23  1  0  0  0  0
 10 11  2  0  0  0  0
 10 24  1  0  0  0  0
 11 12  1  0  0  0  0
 12 13  2  0  0  0  0
 12 25  1  0  0  0  0
 13 26  1  0  0  0  0
M  CHG  1   2   1
M  END
> <s_m_source_file>
AV-unprocessed.smi

> <i_m_source_file_index>
912

> <i_lp_mmshare_version>
43012

> <i_f3d_flags>
0

> <s_epik_input>
W0NIM11bTkhdW0NAQF0oW0NIM10pKEMoPU8pW05IMl0pYzFbY0hdW2NIXW5bY0hdW2NIXTE=

> <s_epik_cmdline>
J2VwaWtfcHl0aG9uJywgJy1waCcsICc3LjAnLCAnLXRuJywgJzgnLCAnLW1hJywgJzIwMCcsICctbWV0YWxfYmluZGluZycsICctaW1hZScsICc8aW5maWxlLm1hZT4nLCAnLW9tYWUnLCAnPG91dGZpbGUubWFlPic=

> <r_epik_Ionization_Penalty>
0.8426

> <r_epik_Ionization_Penalty_Charging>
0.842363

> <r_epik_Ionization_Penalty_Neutral>
0.000236815

> <r_epik_State_Penalty>
0.498415

> <r_epik_Charging_Adjusted_Penalty>
1.34078

> <i_epik_Tot_Q>
1

> <i_epik_Tot_abs_Q>
1

> <r_epik_Metal_State_Penalty>
0.661775

> <b_epik_Metal_Only>
0

> <s_lp_Force_Field>
OPLS_2005

> <r_lp_Energy>
11.5286

> <b_lp_Chiralities_Consistent>
1

> <s_lp_Variant>
AV-unprocessed.smi:912-4

> <Gold.Version>
5.8.1

> <Gold.Id.Protein>
6NUR|6NUR_protein|mol2

> <Gold.PLP.Fitness>
37.0113

> <Gold.PLP.PLP>
-23.0572

> <Gold.PLP.part.hbond>
-2.7318

> <Gold.PLP.part.metal>
0.0000

> <Gold.PLP.part.buried>
-3.3284

> <Gold.PLP.part.nonpolar>
-18.5217

> <Gold.PLP.part.repulsive>
0.3058

> <Gold.PLP.ligand.clash>
0.0000

> <Gold.PLP.ligand.torsion>
0.4727

> <Gold.PLP.Chemscore.Hbond>
2.9636

> <Gold.PLP.Chemscore.CHOScore>
2.0000

> <Gold.PLP.Chemscore.Metal>
0.0000

> <Gold.Chemscore.Hbonds>
donor molecule, donor type, donor heavy atom, donor atom, acceptor molecule, acceptor atom, score
      L1  H     2    27       P1  7948  2.00
      L1  H     6    22       P1  7948  0.91
      P1  H 10785 10796       L1    11  0.01
      L1  C    10    24       P1 10952  1.00
      L1  C    12    25       P1 10747  1.00

> <Gold.PLP.Chemscore.Internal.Correction>
0.0087

> <Gold.Rescore>
     Score         DG    S(hbond)    S(metal)    S(lipo)     H(rot)  DE(clash)    DE(int)     intcor
     13.17     -13.68       1.94        0.00      54.63       1.83       0.01       0.50       ----

> <Gold.Chemscore.Fitness>
13.1713

> <Gold.Chemscore.DG>
-13.6805

> <Gold.Chemscore.ZeroCoef>
-5.4800

> <Gold.Chemscore.Hbond>
1.9418

> <Gold.Chemscore.Metal>
0.0000

> <Gold.Chemscore.Lipo>
54.6320

> <Gold.Chemscore.Internal_Hbond>
0.0000

> <Gold.Chemscore.DEClash>
0.0060

> <Gold.Chemscore.DEInternal>
0.5032

> <Gold.Chemscore.Rot>
1.8270

> <Gold.Chemscore.Internal.Correction>
   9.000000E+99

> <Gold.Chemscore.Hbonds>
donor molecule, donor type, donor heavy atom, donor atom, acceptor molecule, acceptor atom, score
      L1  H     2    27       P1  7948  0.94
      L1  H     6    22       P1  7948  0.84

> <Gold.Chemscore.Hbond.Weighted>
-6.4856

> <Gold.Chemscore.Metal.Weighted>
-0.0000

> <Gold.Chemscore.Lipo.Weighted>
-6.3919

> <Gold.Chemscore.Internal_Hbond.Weighted>
0.0000

> <Gold.Chemscore.DEClash.Weighted>
0.0060

> <Gold.Chemscore.DEInternal.Weighted>
0.5032

> <Gold.Chemscore.Rot.Weighted>
4.6771

> <Gold.Chemscore.Internal.Correction.Weighted>
   9.000000E+99

> <Gold.Protein.RotatedTorsions>
[ 6907 6896 6895 6894 ] final  114.49 input  -60.11 | X-H torsion
[ 7974 7965 7964 7962 ] final  -18.13 input  175.53 | X-H torsion
[ 8008 7997 7996 7995 ] final  -32.94 input   59.86 | X-H torsion
[ 10167 10162 10161 10158 ] final  -46.17 input  -65.29 | X-H torsion
[ 10718 10713 10712 10709 ] final -124.00 input   66.30 | X-H torsion
[ 10763 10752 10751 10750 ] final   61.01 input  -60.55 | X-H torsion
[ 11005 11000 10999 10996 ] final  -52.18 input  -57.11 | X-H torsion

> <Gold.Protein.ActiveResidues>
 VAL166  LYS551  ARG553  GLY616  TRP617  ASP618  TYR619  PRO620  LYS621  CYS622 
 ASP623  PHE694  ASN695  SER759  ASP760  ASP761  ALA762  ILE779  LEU786  VAL792 
 PHE793  MET794  SER795  GLU796  ALA797  LYS798  CYS799  TRP800  GLU811  SER814 

> <Gold.Protein.RotatedAtoms>
  152.4799  133.8229  159.7062 H   0  0  0  0  0  0  0  0  0  0  0  0  # atno 6907 bound_to 6896
  150.8841  133.7322  159.2930 H   0  0  0  0  0  0  0  0  0  0  0  0  # atno 6908 bound_to 6896
  151.4816  135.1056  159.9831 H   0  0  0  0  0  0  0  0  0  0  0  0  # atno 6909 bound_to 6896
  146.1907  140.3877  142.8459 H   0  0  0  0  0  0  0  0  0  0  0  0  # atno 7974 bound_to 7965
  154.4164  140.1724  156.1809 H   0  0  0  0  0  0  0  0  0  0  0  0  # atno 8008 bound_to 7997
  155.9683  140.3388  155.6529 H   0  0  0  0  0  0  0  0  0  0  0  0  # atno 8009 bound_to 7997
  155.6659  140.0706  157.2528 H   0  0  0  0  0  0  0  0  0  0  0  0  # atno 8010 bound_to 7997
  140.6828  143.2844  151.3744 H   0  0  0  0  0  0  0  0  0  0  0  0  # atno 10167 bound_to 10162
  156.1550  130.6561  150.9968 H   0  0  0  0  0  0  0  0  0  0  0  0  # atno 10718 bound_to 10713
  152.9938  135.5516  154.5966 H   0  0  0  0  0  0  0  0  0  0  0  0  # atno 10763 bound_to 10752
  154.5316  135.2814  155.1177 H   0  0  0  0  0  0  0  0  0  0  0  0  # atno 10764 bound_to 10752
  154.2490  135.6402  153.5286 H   0  0  0  0  0  0  0  0  0  0  0  0  # atno 10765 bound_to 10752
  141.0910  133.6632  156.3986 H   0  0  0  0  0  0  0  0  0  0  0  0  # atno 11005 bound_to 11000
  144.8482  140.6961  143.6185 LP  0  0  0  0  0  0  0  0  0  0  0  0  # atno 17320 bound_to 7965
  145.3800  139.1639  143.4285 LP  0  0  0  0  0  0  0  0  0  0  0  0  # atno 17321 bound_to 7965
  139.6164  144.0995  152.2349 LP  0  0  0  0  0  0  0  0  0  0  0  0  # atno 17342 bound_to 10162
  140.0425  144.5996  150.7399 LP  0  0  0  0  0  0  0  0  0  0  0  0  # atno 17343 bound_to 10162
  157.6688  131.0866  150.7664 LP  0  0  0  0  0  0  0  0  0  0  0  0  # atno 17370 bound_to 10713
  156.7730  130.4835  149.5415 LP  0  0  0  0  0  0  0  0  0  0  0  0  # atno 17371 bound_to 10713
  140.5251  134.6267  157.5331 LP  0  0  0  0  0  0  0  0  0  0  0  0  # atno 17394 bound_to 11000
  139.9737  134.7251  155.9992 LP  0  0  0  0  0  0  0  0  0  0  0  0  # atno 17395 bound_to 11000

$$$$
