AV-unprocessed.smi:153|AV-procd|sdf|1252|dock9
  -GOLD-   2262018483D 1   1.00000     0.00000
 Structure written by MMmdl.
 60 63  0  0  0  0  0  0  0  0  2 V2000
  152.1295  144.7810  158.6288 C   0  0  0  0  0  0  0  0  0  0  0  0
  151.6459  143.7525  159.6661 C   0  0  2  0  0  0  0  0  0  0  0  0
  151.6082  144.3457  160.9627 O   0  0  0  0  0  0  0  0  0  0  0  0
  152.5131  143.6750  161.8260 C   0  0  0  0  0  0  0  0  0  0  0  0
  152.5288  142.2462  161.2998 C   0  0  0  0  0  0  0  0  0  0  0  0
  152.4760  142.4481  159.7923 C   0  0  2  0  0  0  0  0  0  0  0  0
  153.8029  142.6487  159.3308 O   0  0  0  0  0  0  0  0  0  0  0  0
  151.8733  141.2289  159.0511 C   0  0  0  0  0  0  0  0  0  0  0  0
  152.7243  140.0506  159.0951 N   0  0  0  0  0  0  0  0  0  0  0  0
  153.6549  139.7423  160.0606 C   0  0  0  0  0  0  0  0  0  0  0  0
  154.2645  138.6007  159.8987 N   0  0  0  0  0  0  0  0  0  0  0  0
  153.7367  138.0925  158.7167 C   0  0  0  0  0  0  0  0  0  0  0  0
  153.9182  136.8864  157.9764 C   0  0  0  0  0  0  0  0  0  0  0  0
  154.7342  135.8671  158.3460 N   0  0  0  0  0  0  0  0  0  0  0  0
  154.7348  134.6427  157.5555 C   0  0  0  0  0  0  0  0  0  0  0  0
  155.9167  136.1921  159.1461 C   0  0  0  0  0  0  0  0  0  0  0  0
  156.3157  135.0724  160.1334 C   0  0  2  0  0  0  0  0  0  0  0  0
  157.0453  134.1116  159.3969 O   0  0  0  0  0  0  0  0  0  0  0  0
  155.1043  134.3624  160.7836 C   0  0  0  0  0  0  0  0  0  0  0  0
  154.5556  135.0798  161.9626 N   0  3  0  0  0  0  0  0  0  0  0  0
  155.4863  135.1153  163.1207 C   0  0  0  0  0  0  0  0  0  0  0  0
  154.8684  135.8918  164.2957 C   0  0  0  0  0  0  0  0  0  0  0  0
  154.5125  137.2009  163.8724 O   0  0  0  0  0  0  0  0  0  0  0  0
  153.5362  137.1729  162.8399 C   0  0  0  0  0  0  0  0  0  0  0  0
  154.1118  136.4508  161.6109 C   0  0  0  0  0  0  0  0  0  0  0  0
  153.1765  136.7275  156.8499 N   0  0  0  0  0  0  0  0  0  0  0  0
  152.3222  137.6779  156.4615 C   0  0  0  0  0  0  0  0  0  0  0  0
  152.0420  138.8389  157.0547 N   0  0  0  0  0  0  0  0  0  0  0  0
  152.7730  139.0018  158.1940 C   0  0  0  0  0  0  0  0  0  0  0  0
  152.2123  144.3317  157.6397 H   0  0  0  0  0  0  0  0  0  0  0  0
  153.1051  145.1893  158.8941 H   0  0  0  0  0  0  0  0  0  0  0  0
  151.4339  145.6173  158.5572 H   0  0  0  0  0  0  0  0  0  0  0  0
  150.6112  143.4961  159.4374 H   0  0  0  0  0  0  0  0  0  0  0  0
  153.5000  144.1316  161.7383 H   0  0  0  0  0  0  0  0  0  0  0  0
  152.1971  143.7390  162.8672 H   0  0  0  0  0  0  0  0  0  0  0  0
  153.3939  141.6742  161.6378 H   0  0  0  0  0  0  0  0  0  0  0  0
  151.6324  141.7296  161.6460 H   0  0  0  0  0  0  0  0  0  0  0  0
  154.2872  143.1105  159.9982 H   0  0  0  0  0  0  0  0  0  0  0  0
  150.9004  140.9698  159.4710 H   0  0  0  0  0  0  0  0  0  0  0  0
  151.6968  141.4757  158.0034 H   0  0  0  0  0  0  0  0  0  0  0  0
  153.8540  140.3846  160.9060 H   0  0  0  0  0  0  0  0  0  0  0  0
  153.7237  134.3766  157.2453 H   0  0  0  0  0  0  0  0  0  0  0  0
  155.1301  133.8136  158.1429 H   0  0  0  0  0  0  0  0  0  0  0  0
  155.3552  134.7521  156.6659 H   0  0  0  0  0  0  0  0  0  0  0  0
  156.7645  136.4601  158.5147 H   0  0  0  0  0  0  0  0  0  0  0  0
  155.6778  137.0955  159.7090 H   0  0  0  0  0  0  0  0  0  0  0  0
  156.9853  135.4907  160.8829 H   0  0  0  0  0  0  0  0  0  0  0  0
  157.1311  133.3268  159.9155 H   0  0  0  0  0  0  0  0  0  0  0  0
  154.2874  134.2399  160.0758 H   0  0  0  0  0  0  0  0  0  0  0  0
  155.4038  133.3525  161.0695 H   0  0  0  0  0  0  0  0  0  0  0  0
  155.7269  134.1067  163.4532 H   0  0  0  0  0  0  0  0  0  0  0  0
  156.4266  135.5811  162.8245 H   0  0  0  0  0  0  0  0  0  0  0  0
  153.9929  135.3722  164.6892 H   0  0  0  0  0  0  0  0  0  0  0  0
  155.5858  135.9687  165.1130 H   0  0  0  0  0  0  0  0  0  0  0  0
  152.6270  136.6829  163.1923 H   0  0  0  0  0  0  0  0  0  0  0  0
  153.2662  138.1969  162.5812 H   0  0  0  0  0  0  0  0  0  0  0  0
  154.9536  137.0166  161.2089 H   0  0  0  0  0  0  0  0  0  0  0  0
  153.3553  136.4042  160.8265 H   0  0  0  0  0  0  0  0  0  0  0  0
  151.7785  137.4745  155.5506 H   0  0  0  0  0  0  0  0  0  0  0  0
  153.7292  134.5784  162.2558 H   0  0  0  0  0  0  0  0  0  0  0  0
  1  2  1  0  0  0  0
  1 30  1  0  0  0  0
  1 31  1  0  0  0  0
  1 32  1  0  0  0  0
  2  6  1  0  0  0  0
  2  3  1  0  0  0  0
  2 33  1  0  0  0  0
  3  4  1  0  0  0  0
  4  5  1  0  0  0  0
  4 34  1  0  0  0  0
  4 35  1  0  0  0  0
  5  6  1  0  0  0  0
  5 36  1  0  0  0  0
  5 37  1  0  0  0  0
  6  7  1  0  0  0  0
  6  8  1  0  0  0  0
  7 38  1  0  0  0  0
  8  9  1  0  0  0  0
  8 39  1  0  0  0  0
  8 40  1  0  0  0  0
  9 29  1  0  0  0  0
  9 10  1  0  0  0  0
 10 11  2  0  0  0  0
 10 41  1  0  0  0  0
 11 12  1  0  0  0  0
 12 29  2  0  0  0  0
 12 13  1  0  0  0  0
 13 14  1  0  0  0  0
 13 26  2  0  0  0  0
 14 15  1  0  0  0  0
 14 16  1  0  0  0  0
 15 42  1  0  0  0  0
 15 43  1  0  0  0  0
 15 44  1  0  0  0  0
 16 17  1  0  0  0  0
 16 45  1  0  0  0  0
 16 46  1  0  0  0  0
 17 18  1  0  0  0  0
 17 19  1  0  0  0  0
 17 47  1  0  0  0  0
 18 48  1  0  0  0  0
 19 20  1  0  0  0  0
 19 49  1  0  0  0  0
 19 50  1  0  0  0  0
 20 25  1  0  0  0  0
 20 21  1  0  0  0  0
 20 60  1  0  0  0  0
 21 22  1  0  0  0  0
 21 51  1  0  0  0  0
 21 52  1  0  0  0  0
 22 23  1  0  0  0  0
 22 53  1  0  0  0  0
 22 54  1  0  0  0  0
 23 24  1  0  0  0  0
 24 25  1  0  0  0  0
 24 55  1  0  0  0  0
 24 56  1  0  0  0  0
 25 57  1  0  0  0  0
 25 58  1  0  0  0  0
 26 27  1  0  0  0  0
 27 28  2  0  0  0  0
 27 59  1  0  0  0  0
 28 29  1  0  0  0  0
M  CHG  1  20   1
M  END
> <s_m_source_file>
AV-unprocessed.smi

> <i_m_source_file_index>
153

> <i_lp_mmshare_version>
43012

> <i_f3d_flags>
0

> <s_epik_input>
W0NIMl0xW0NIMl1PW0NAQEhdKFtDSDNdKVtDQEBdMShbT0hdKVtDSDJdbihbY0hdbjIpYyhjMjMpbltjSF1uYzNOKFtDSDNdKVtDSDJdW0NASF0oW09IXSlbQ0gyXU40W0NIMl1bQ0gyXU9bQ0gyXVtDSDJdNA==

> <s_epik_cmdline>
J2VwaWtfcHl0aG9uJywgJy1waCcsICc3LjAnLCAnLXRuJywgJzgnLCAnLW1hJywgJzIwMCcsICctbWV0YWxfYmluZGluZycsICctaW1hZScsICc8aW5maWxlLm1hZT4nLCAnLW9tYWUnLCAnPG91dGZpbGUubWFlPic=

> <r_lp_tautomer_probability>
1

> <r_epik_Ionization_Penalty>
0.403509

> <r_epik_Ionization_Penalty_Charging>
0.40072

> <r_epik_Ionization_Penalty_Neutral>
0.00278876

> <r_epik_State_Penalty>
0.400058

> <r_epik_Charging_Adjusted_Penalty>
0.800778

> <i_epik_Tot_Q>
1

> <i_epik_Tot_abs_Q>
1

> <r_epik_Metal_State_Penalty>
0.400321

> <b_epik_Metal_Only>
0

> <s_lp_Force_Field>
OPLS_2005

> <r_lp_Energy>
42.6993

> <b_lp_Chiralities_Consistent>
1

> <s_lp_Variant>
AV-unprocessed.smi:153-3

> <Gold.Version>
5.8.1

> <Gold.Id.Protein>
6NUR|6NUR_protein|mol2

> <Gold.PLP.Fitness>
42.6676

> <Gold.PLP.PLP>
-41.6373

> <Gold.PLP.part.hbond>
-1.0000

> <Gold.PLP.part.metal>
0.0000

> <Gold.PLP.part.buried>
-6.1672

> <Gold.PLP.part.nonpolar>
-34.7597

> <Gold.PLP.part.repulsive>
0.2637

> <Gold.PLP.ligand.clash>
0.0000

> <Gold.PLP.ligand.torsion>
1.2241

> <Gold.PLP.Chemscore.Hbond>
0.9672

> <Gold.PLP.Chemscore.CHOScore>
0.0000

> <Gold.PLP.Chemscore.Metal>
0.0000

> <Gold.Chemscore.Hbonds>
donor molecule, donor type, donor heavy atom, donor atom, acceptor molecule, acceptor atom, score
      P1  H 10752 10763       L1    26  0.93

> <Gold.PLP.Chemscore.Internal.Correction>
0.5770

> <Gold.Rescore>
     Score         DG    S(hbond)    S(metal)    S(lipo)     H(rot)  DE(clash)    DE(int)     intcor
      7.01     -11.09       0.72        0.00     106.44       3.62       0.14       3.94       ----

> <Gold.Chemscore.Fitness>
7.0110

> <Gold.Chemscore.DG>
-11.0877

> <Gold.Chemscore.ZeroCoef>
-5.4800

> <Gold.Chemscore.Hbond>
0.7236

> <Gold.Chemscore.Metal>
0.0000

> <Gold.Chemscore.Lipo>
106.4380

> <Gold.Chemscore.Internal_Hbond>
0.0000

> <Gold.Chemscore.DEClash>
0.1407

> <Gold.Chemscore.DEInternal>
3.9360

> <Gold.Chemscore.Rot>
3.6182

> <Gold.Chemscore.Internal.Correction>
   9.000000E+99

> <Gold.Chemscore.Hbonds>
donor molecule, donor type, donor heavy atom, donor atom, acceptor molecule, acceptor atom, score
      P1  H 10752 10763       L1    26  0.67

> <Gold.Chemscore.Hbond.Weighted>
-2.4169

> <Gold.Chemscore.Metal.Weighted>
-0.0000

> <Gold.Chemscore.Lipo.Weighted>
-12.4532

> <Gold.Chemscore.Internal_Hbond.Weighted>
0.0000

> <Gold.Chemscore.DEClash.Weighted>
0.1407

> <Gold.Chemscore.DEInternal.Weighted>
3.9360

> <Gold.Chemscore.Rot.Weighted>
9.2625

> <Gold.Chemscore.Internal.Correction.Weighted>
   9.000000E+99

> <Gold.Protein.RotatedTorsions>
[ 6907 6896 6895 6894 ] final -143.97 input  -60.11 | X-H torsion
[ 7974 7965 7964 7962 ] final  -45.92 input  175.53 | X-H torsion
[ 8008 7997 7996 7995 ] final  -43.66 input   59.86 | X-H torsion
[ 10167 10162 10161 10158 ] final -144.38 input  -65.29 | X-H torsion
[ 10718 10713 10712 10709 ] final   82.03 input   66.30 | X-H torsion
[ 10763 10752 10751 10750 ] final  118.47 input  -60.55 | X-H torsion
[ 11005 11000 10999 10996 ] final  -72.96 input  -57.11 | X-H torsion

> <Gold.Protein.ActiveResidues>
 VAL166  LYS551  ARG553  GLY616  TRP617  ASP618  TYR619  PRO620  LYS621  CYS622 
 ASP623  PHE694  ASN695  SER759  ASP760  ASP761  ALA762  ILE779  LEU786  VAL792 
 PHE793  MET794  SER795  GLU796  ALA797  LYS798  CYS799  TRP800  GLU811  SER814 

> <Gold.Protein.RotatedAtoms>
  151.1076  133.5197  159.2606 H   0  0  0  0  0  0  0  0  0  0  0  0  # atno 6907 bound_to 6896
  151.2003  135.0439  159.8879 H   0  0  0  0  0  0  0  0  0  0  0  0  # atno 6908 bound_to 6896
  152.5448  134.0905  159.8328 H   0  0  0  0  0  0  0  0  0  0  0  0  # atno 6909 bound_to 6896
  145.9771  140.7322  142.9381 H   0  0  0  0  0  0  0  0  0  0  0  0  # atno 7974 bound_to 7965
  154.3997  140.1442  156.3556 H   0  0  0  0  0  0  0  0  0  0  0  0  # atno 8008 bound_to 7997
  155.8229  140.3469  155.5504 H   0  0  0  0  0  0  0  0  0  0  0  0  # atno 8009 bound_to 7997
  155.8269  140.0906  157.1806 H   0  0  0  0  0  0  0  0  0  0  0  0  # atno 8010 bound_to 7997
  139.7904  143.7974  152.2649 H   0  0  0  0  0  0  0  0  0  0  0  0  # atno 10167 bound_to 10162
  157.6847  131.0030  150.2314 H   0  0  0  0  0  0  0  0  0  0  0  0  # atno 10718 bound_to 10713
  153.5681  135.3507  155.2827 H   0  0  0  0  0  0  0  0  0  0  0  0  # atno 10763 bound_to 10752
  154.8686  135.4153  154.2755 H   0  0  0  0  0  0  0  0  0  0  0  0  # atno 10764 bound_to 10752
  153.3515  135.7055  153.6854 H   0  0  0  0  0  0  0  0  0  0  0  0  # atno 10765 bound_to 10752
  141.1616  133.6863  156.7138 H   0  0  0  0  0  0  0  0  0  0  0  0  # atno 11005 bound_to 11000
  144.6852  140.2846  143.7287 LP  0  0  0  0  0  0  0  0  0  0  0  0  # atno 17320 bound_to 7965
  145.7822  139.1896  143.2151 LP  0  0  0  0  0  0  0  0  0  0  0  0  # atno 17321 bound_to 7965
  139.8063  144.7354  150.9756 LP  0  0  0  0  0  0  0  0  0  0  0  0  # atno 17342 bound_to 10162
  140.7820  143.4294  151.0717 LP  0  0  0  0  0  0  0  0  0  0  0  0  # atno 17343 bound_to 10162
  156.2946  130.3750  149.7809 LP  0  0  0  0  0  0  0  0  0  0  0  0  # atno 17370 bound_to 10713
  156.5458  130.8320  151.3283 LP  0  0  0  0  0  0  0  0  0  0  0  0  # atno 17371 bound_to 10713
  140.2867  134.8273  157.3981 LP  0  0  0  0  0  0  0  0  0  0  0  0  # atno 17394 bound_to 11000
  140.1384  134.5004  155.8051 LP  0  0  0  0  0  0  0  0  0  0  0  0  # atno 17395 bound_to 11000

$$$$
