AV-unprocessed.smi:1341|AV-procd|sdf|5505|dock2
  -GOLD-   22720 5 83D 1   1.00000     0.00000
 Structure written by MMmdl.
 34 35  0  0  0  0  0  0  0  0  1 V2000
  144.8796  134.4450  151.1500 C   0  0  0  0  0  0  0  0  0  0  0  0
  145.8895  134.5425  152.0274 C   0  0  0  0  0  0  0  0  0  0  0  0
  146.9819  133.5049  152.1977 C   0  0  0  0  0  0  0  0  0  0  0  0
  148.0322  133.9746  153.0923 N   0  0  0  0  0  0  0  0  0  0  0  0
  148.5619  133.2691  154.1055 C   0  0  0  0  0  0  0  0  0  0  0  0
  148.2152  132.1226  154.3908 O   0  0  0  0  0  0  0  0  0  0  0  0
  149.6551  133.9700  154.8620 C   0  0  0  0  0  0  0  0  0  0  0  0
  149.8042  135.2977  154.6379 N   0  0  0  0  0  0  0  0  0  0  0  0
  150.7444  135.9631  155.3206 C   0  0  0  0  0  0  0  0  0  0  0  0
  150.8819  137.3338  155.0656 N   0  0  0  0  0  0  0  0  0  0  0  0
  152.1736  138.0178  155.1695 C   0  0  0  0  0  0  0  0  0  0  0  0
  151.9850  139.4781  155.6135 C   0  0  0  0  0  0  0  0  0  0  0  0
  151.0904  140.1395  154.7275 O   0  0  0  0  0  0  0  0  0  0  0  0
  149.8034  139.5347  154.7374 C   0  0  0  0  0  0  0  0  0  0  0  0
  149.9089  138.0763  154.2602 C   0  0  0  0  0  0  0  0  0  0  0  0
  151.5624  135.4134  156.2262 N   0  0  0  0  0  0  0  0  0  0  0  0
  151.4318  134.0931  156.4714 C   0  0  0  0  0  0  0  0  0  0  0  0
  150.4746  133.3024  155.8072 C   0  0  0  0  0  0  0  0  0  0  0  0
  150.3694  131.6090  156.1473 Cl  0  0  0  0  0  0  0  0  0  0  0  0
  144.7833  133.5901  150.4968 H   0  0  0  0  0  0  0  0  0  0  0  0
  144.1339  135.2227  151.0746 H   0  0  0  0  0  0  0  0  0  0  0  0
  145.9531  135.4158  152.6605 H   0  0  0  0  0  0  0  0  0  0  0  0
  146.5626  132.5837  152.6036 H   0  0  0  0  0  0  0  0  0  0  0  0
  147.3989  133.2585  151.2200 H   0  0  0  0  0  0  0  0  0  0  0  0
  148.3862  134.9073  152.9348 H   0  0  0  0  0  0  0  0  0  0  0  0
  152.8430  137.5306  155.8778 H   0  0  0  0  0  0  0  0  0  0  0  0
  152.6646  137.9833  154.1965 H   0  0  0  0  0  0  0  0  0  0  0  0
  151.6072  139.5277  156.6361 H   0  0  0  0  0  0  0  0  0  0  0  0
  152.9424  139.9990  155.6031 H   0  0  0  0  0  0  0  0  0  0  0  0
  149.3713  139.5863  155.7383 H   0  0  0  0  0  0  0  0  0  0  0  0
  149.1429  140.0975  154.0775 H   0  0  0  0  0  0  0  0  0  0  0  0
  150.2240  138.0461  153.2166 H   0  0  0  0  0  0  0  0  0  0  0  0
  148.9150  137.6317  154.3026 H   0  0  0  0  0  0  0  0  0  0  0  0
  152.1009  133.6641  157.2024 H   0  0  0  0  0  0  0  0  0  0  0  0
  1  2  2  0  0  0  0
  1 20  1  0  0  0  0
  1 21  1  0  0  0  0
  2  3  1  0  0  0  0
  2 22  1  0  0  0  0
  3  4  1  0  0  0  0
  3 23  1  0  0  0  0
  3 24  1  0  0  0  0
  4  5  1  0  0  0  0
  4 25  1  0  0  0  0
  5  6  2  0  0  0  0
  5  7  1  0  0  0  0
  7 18  1  0  0  0  0
  7  8  2  0  0  0  0
  8  9  1  0  0  0  0
  9 10  1  0  0  0  0
  9 16  2  0  0  0  0
 10 15  1  0  0  0  0
 10 11  1  0  0  0  0
 11 12  1  0  0  0  0
 11 26  1  0  0  0  0
 11 27  1  0  0  0  0
 12 13  1  0  0  0  0
 12 28  1  0  0  0  0
 12 29  1  0  0  0  0
 13 14  1  0  0  0  0
 14 15  1  0  0  0  0
 14 30  1  0  0  0  0
 14 31  1  0  0  0  0
 15 32  1  0  0  0  0
 15 33  1  0  0  0  0
 16 17  1  0  0  0  0
 17 18  2  0  0  0  0
 17 34  1  0  0  0  0
 18 19  1  0  0  0  0
M  END
> <s_m_source_file>
AV-unprocessed.smi

> <i_m_source_file_index>
1341

> <i_lp_mmshare_version>
43012

> <i_f3d_flags>
0

> <s_epik_input>
W0NIMl09W0NIXVtDSDJdW05IXUMoPU8pYzFuYyhuW2NIXWMxQ2wpTjJbQ0gyXVtDSDJdT1tDSDJdW0NIMl0y

> <s_epik_cmdline>
J2VwaWtfcHl0aG9uJywgJy1waCcsICc3LjAnLCAnLXRuJywgJzgnLCAnLW1hJywgJzIwMCcsICctbWV0YWxfYmluZGluZycsICctaW1hZScsICc8aW5maWxlLm1hZT4nLCAnLW9tYWUnLCAnPG91dGZpbGUubWFlPic=

> <r_lp_tautomer_probability>
1

> <r_epik_Ionization_Penalty>
2.38615e-05

> <r_epik_Ionization_Penalty_Charging>
0

> <r_epik_Ionization_Penalty_Neutral>
2.38615e-05

> <r_epik_State_Penalty>
-0

> <r_epik_Charging_Adjusted_Penalty>
0

> <i_epik_Tot_Q>
0

> <i_epik_Tot_abs_Q>
0

> <r_epik_Metal_State_Penalty>
0.0225026

> <b_epik_Metal_Only>
0

> <s_lp_Force_Field>
OPLS_2005

> <r_lp_Energy>
14.7295

> <b_lp_Chiralities_Consistent>
1

> <s_lp_Variant>
AV-unprocessed.smi:1341-1

> <Gold.Version>
5.8.1

> <Gold.Id.Protein>
6NUR|6NUR_protein|mol2

> <Gold.PLP.Fitness>
40.2119

> <Gold.PLP.PLP>
-31.8590

> <Gold.PLP.part.hbond>
-2.9742

> <Gold.PLP.part.metal>
0.0000

> <Gold.PLP.part.buried>
-3.3531

> <Gold.PLP.part.nonpolar>
-26.9609

> <Gold.PLP.part.repulsive>
1.1190

> <Gold.PLP.ligand.clash>
0.0000

> <Gold.PLP.ligand.torsion>
0.3832

> <Gold.PLP.Chemscore.Hbond>
3.0000

> <Gold.PLP.Chemscore.CHOScore>
0.0000

> <Gold.PLP.Chemscore.Metal>
0.0000

> <Gold.Chemscore.Hbonds>
donor molecule, donor type, donor heavy atom, donor atom, acceptor molecule, acceptor atom, score
      L1  H     4    25       P1  7948  1.00
      P1  H  7989  7998       L1    13  0.99
      P1  H 10752 10763       L1    16  1.00

> <Gold.PLP.Chemscore.Internal.Correction>
0.1192

> <Gold.Rescore>
     Score         DG    S(hbond)    S(metal)    S(lipo)     H(rot)  DE(clash)    DE(int)     intcor
     13.83     -15.56       1.79        0.00      60.68       1.16       0.01       1.72       ----

> <Gold.Chemscore.Fitness>
13.8312

> <Gold.Chemscore.DG>
-15.5622

> <Gold.Chemscore.ZeroCoef>
-5.4800

> <Gold.Chemscore.Hbond>
1.7851

> <Gold.Chemscore.Metal>
0.0000

> <Gold.Chemscore.Lipo>
60.6840

> <Gold.Chemscore.Internal_Hbond>
0.0000

> <Gold.Chemscore.DEClash>
0.0089

> <Gold.Chemscore.DEInternal>
1.7221

> <Gold.Chemscore.Rot>
1.1641

> <Gold.Chemscore.Internal.Correction>
   9.000000E+99

> <Gold.Chemscore.Hbonds>
donor molecule, donor type, donor heavy atom, donor atom, acceptor molecule, acceptor atom, score
      L1  H     4    25       P1  7948  0.62
      P1  H  7989  7998       L1    13  0.89
      P1  H 10752 10763       L1    16  0.07

> <Gold.Chemscore.Hbond.Weighted>
-5.9623

> <Gold.Chemscore.Metal.Weighted>
-0.0000

> <Gold.Chemscore.Lipo.Weighted>
-7.1000

> <Gold.Chemscore.Internal_Hbond.Weighted>
0.0000

> <Gold.Chemscore.DEClash.Weighted>
0.0089

> <Gold.Chemscore.DEInternal.Weighted>
1.7221

> <Gold.Chemscore.Rot.Weighted>
2.9802

> <Gold.Chemscore.Internal.Correction.Weighted>
   9.000000E+99

> <Gold.Protein.RotatedTorsions>
[ 6907 6896 6895 6894 ] final    4.83 input  -60.11 | X-H torsion
[ 7974 7965 7964 7962 ] final  -83.95 input  175.53 | X-H torsion
[ 8008 7997 7996 7995 ] final  161.92 input   59.86 | X-H torsion
[ 10167 10162 10161 10158 ] final   84.14 input  -65.29 | X-H torsion
[ 10718 10713 10712 10709 ] final   14.17 input   66.30 | X-H torsion
[ 10763 10752 10751 10750 ] final  103.89 input  -60.55 | X-H torsion
[ 11005 11000 10999 10996 ] final  129.38 input  -57.11 | X-H torsion

> <Gold.Protein.ActiveResidues>
 VAL166  LYS551  ARG553  GLY616  TRP617  ASP618  TYR619  PRO620  LYS621  CYS622 
 ASP623  PHE694  ASN695  SER759  ASP760  ASP761  ALA762  ILE779  LEU786  VAL792 
 PHE793  MET794  SER795  GLU796  ALA797  LYS798  CYS799  TRP800  GLU811  SER814 

> <Gold.Protein.RotatedAtoms>
  151.6477  135.1005  160.0154 H   0  0  0  0  0  0  0  0  0  0  0  0  # atno 6907 bound_to 6896
  152.4018  133.6825  159.6331 H   0  0  0  0  0  0  0  0  0  0  0  0  # atno 6908 bound_to 6896
  150.7917  133.8694  159.3295 H   0  0  0  0  0  0  0  0  0  0  0  0  # atno 6909 bound_to 6896
  145.5131  140.9538  143.1696 H   0  0  0  0  0  0  0  0  0  0  0  0  # atno 7974 bound_to 7965
  156.2069  140.1764  156.7780 H   0  0  0  0  0  0  0  0  0  0  0  0  # atno 8008 bound_to 7997
  154.5667  140.0689  156.8933 H   0  0  0  0  0  0  0  0  0  0  0  0  # atno 8009 bound_to 7997
  155.2747  140.3345  155.4265 H   0  0  0  0  0  0  0  0  0  0  0  0  # atno 8010 bound_to 7997
  139.9111  144.6271  150.8536 H   0  0  0  0  0  0  0  0  0  0  0  0  # atno 10167 bound_to 10162
  157.0352  130.6209  149.5742 H   0  0  0  0  0  0  0  0  0  0  0  0  # atno 10718 bound_to 10713
  153.3587  135.3961  155.1702 H   0  0  0  0  0  0  0  0  0  0  0  0  # atno 10763 bound_to 10752
  154.8675  135.3674  154.5127 H   0  0  0  0  0  0  0  0  0  0  0  0  # atno 10764 bound_to 10752
  153.5585  135.7081  153.5618 H   0  0  0  0  0  0  0  0  0  0  0  0  # atno 10765 bound_to 10752
  139.9612  134.9602  156.9140 H   0  0  0  0  0  0  0  0  0  0  0  0  # atno 11005 bound_to 11000
  144.7716  139.6722  143.7192 LP  0  0  0  0  0  0  0  0  0  0  0  0  # atno 17320 bound_to 7965
  146.2154  139.5539  142.9654 LP  0  0  0  0  0  0  0  0  0  0  0  0  # atno 17321 bound_to 7965
  140.7685  143.3365  151.2298 LP  0  0  0  0  0  0  0  0  0  0  0  0  # atno 17342 bound_to 10162
  139.6942  143.9642  152.2874 LP  0  0  0  0  0  0  0  0  0  0  0  0  # atno 17343 bound_to 10162
  156.0056  130.5142  150.7818 LP  0  0  0  0  0  0  0  0  0  0  0  0  # atno 17370 bound_to 10713
  157.5147  131.0928  151.0154 LP  0  0  0  0  0  0  0  0  0  0  0  0  # atno 17371 bound_to 10713
  140.5496  134.0640  155.7365 LP  0  0  0  0  0  0  0  0  0  0  0  0  # atno 17394 bound_to 11000
  141.1289  133.9335  157.2576 LP  0  0  0  0  0  0  0  0  0  0  0  0  # atno 17395 bound_to 11000

$$$$
