AV-unprocessed.smi:283|AV-procd|sdf|2127|dock8
  -GOLD-   2262021433D 1   1.00000     0.00000
 Structure written by MMmdl.
 48 51  0  0  0  0  0  0  0  0  1 V2000
  151.2383  142.6363  157.7625 C   0  0  0  0  0  0  0  0  0  0  0  0
  152.1234  141.5954  158.4725 C   0  0  2  0  0  0  0  0  0  0  0  0
  151.4642  140.2908  158.5272 N   0  0  0  0  0  0  0  0  0  0  0  0
  151.7352  139.3177  157.6292 C   0  0  0  0  0  0  0  0  0  0  0  0
  152.6726  139.4894  156.6614 N   0  0  0  0  0  0  0  0  0  0  0  0
  152.9206  138.5074  155.7902 C   0  0  0  0  0  0  0  0  0  0  0  0
  152.3583  137.2997  155.7130 N   0  0  0  0  0  0  0  0  0  0  0  0
  151.4182  137.1179  156.6853 C   0  0  0  0  0  0  0  0  0  0  0  0
  151.0549  138.0734  157.6756 C   0  0  0  0  0  0  0  0  0  0  0  0
  150.0704  137.5462  158.5006 N   0  0  0  0  0  0  0  0  0  0  0  0
  149.8663  136.3488  158.0219 C   0  0  0  0  0  0  0  0  0  0  0  0
  150.6339  136.0065  156.9306 N   0  0  0  0  0  0  0  0  0  0  0  0
  150.6089  134.7073  156.1813 C   0  0  1  0  0  0  0  0  0  0  0  0
  149.6680  133.8514  156.7616 O   0  0  0  0  0  0  0  0  0  0  0  0
  148.6559  133.5032  155.8169 C   0  0  2  0  0  0  0  0  0  0  0  0
  148.1421  132.0862  156.1113 C   0  0  0  0  0  0  0  0  0  0  0  0
  147.5662  132.0424  157.3992 O   0  0  0  0  0  0  0  0  0  0  0  0
  149.3861  133.6276  154.4786 C   0  0  1  0  0  0  0  0  0  0  0  0
  148.5149  133.7455  153.3702 O   0  0  0  0  0  0  0  0  0  0  0  0
  150.2437  134.8663  154.6928 C   0  0  1  0  0  0  0  0  0  0  0  0
  149.5464  136.0688  154.4026 O   0  0  0  0  0  0  0  0  0  0  0  0
  152.5244  142.1102  159.8541 C   0  0  0  0  0  0  0  0  0  0  0  0
  151.8609  143.2286  160.4127 C   0  0  0  0  0  0  0  0  0  0  0  0
  152.2253  143.7212  161.6799 C   0  0  0  0  0  0  0  0  0  0  0  0
  153.2627  143.1051  162.4020 C   0  0  0  0  0  0  0  0  0  0  0  0
  153.9378  142.0001  161.8522 C   0  0  0  0  0  0  0  0  0  0  0  0
  153.5782  141.5024  160.5835 C   0  0  0  0  0  0  0  0  0  0  0  0
  154.4569  140.1531  159.9524 Cl  0  0  0  0  0  0  0  0  0  0  0  0
  151.6036  134.2847  156.3289 H   0  0  0  0  0  0  0  0  0  0  0  0
  147.8441  134.2314  155.8562 H   0  0  0  0  0  0  0  0  0  0  0  0
  150.0329  132.7610  154.3327 H   0  0  0  0  0  0  0  0  0  0  0  0
  151.1509  134.8406  154.0881 H   0  0  0  0  0  0  0  0  0  0  0  0
  151.7519  143.5948  157.6820 H   0  0  0  0  0  0  0  0  0  0  0  0
  150.3098  142.8036  158.3091 H   0  0  0  0  0  0  0  0  0  0  0  0
  150.9748  142.3260  156.7517 H   0  0  0  0  0  0  0  0  0  0  0  0
  153.0378  141.4630  157.8954 H   0  0  0  0  0  0  0  0  0  0  0  0
  150.7383  140.2004  159.2231 H   0  0  0  0  0  0  0  0  0  0  0  0
  153.6775  138.7189  155.0495 H   0  0  0  0  0  0  0  0  0  0  0  0
  149.1430  135.6746  158.4571 H   0  0  0  0  0  0  0  0  0  0  0  0
  147.3663  131.8109  155.3964 H   0  0  0  0  0  0  0  0  0  0  0  0
  148.9395  131.3475  156.0252 H   0  0  0  0  0  0  0  0  0  0  0  0
  146.7428  132.5058  157.3741 H   0  0  0  0  0  0  0  0  0  0  0  0
  148.6537  134.5933  152.9751 H   0  0  0  0  0  0  0  0  0  0  0  0
  149.2222  136.0206  153.5162 H   0  0  0  0  0  0  0  0  0  0  0  0
  151.0684  143.7232  159.8710 H   0  0  0  0  0  0  0  0  0  0  0  0
  151.7095  144.5739  162.0964 H   0  0  0  0  0  0  0  0  0  0  0  0
  153.5446  143.4826  163.3737 H   0  0  0  0  0  0  0  0  0  0  0  0
  154.7391  141.5339  162.4068 H   0  0  0  0  0  0  0  0  0  0  0  0
  1  2  1  0  0  0  0
  1 33  1  0  0  0  0
  1 34  1  0  0  0  0
  1 35  1  0  0  0  0
  2  3  1  0  0  0  0
  2 22  1  0  0  0  0
  2 36  1  0  0  0  0
  3  4  1  0  0  0  0
  3 37  1  0  0  0  0
  4  9  1  0  0  0  0
  4  5  2  0  0  0  0
  5  6  1  0  0  0  0
  6  7  2  0  0  0  0
  6 38  1  0  0  0  0
  7  8  1  0  0  0  0
  8 12  1  0  0  0  0
  8  9  2  0  0  0  0
  9 10  1  0  0  0  0
 10 11  2  0  0  0  0
 11 12  1  0  0  0  0
 11 39  1  0  0  0  0
 12 13  1  0  0  0  0
 13 29  1  0  0  0  0
 13 20  1  0  0  0  0
 13 14  1  0  0  0  0
 14 15  1  0  0  0  0
 15 30  1  0  0  0  0
 15 16  1  0  0  0  0
 15 18  1  0  0  0  0
 16 17  1  0  0  0  0
 16 40  1  0  0  0  0
 16 41  1  0  0  0  0
 17 42  1  0  0  0  0
 18 31  1  0  0  0  0
 18 19  1  0  0  0  0
 18 20  1  0  0  0  0
 19 43  1  0  0  0  0
 20 32  1  0  0  0  0
 20 21  1  0  0  0  0
 21 44  1  0  0  0  0
 22 27  1  0  0  0  0
 22 23  2  0  0  0  0
 23 24  1  0  0  0  0
 23 45  1  0  0  0  0
 24 25  2  0  0  0  0
 24 46  1  0  0  0  0
 25 26  1  0  0  0  0
 25 47  1  0  0  0  0
 26 27  2  0  0  0  0
 26 48  1  0  0  0  0
 27 28  1  0  0  0  0
M  END
> <s_m_source_file>
AV-unprocessed.smi

> <i_m_source_file_index>
283

> <i_lp_mmshare_version>
43012

> <i_f3d_flags>
0

> <s_epik_input>
Q2xjMVtjSF1bY0hdW2NIXVtjSF1jMVtDQEhdKFtDSDNdKVtOSF1jKG5bY0hdbjIpYyhjMjMpbltjSF1uM1tDQEBIXTRPW0NASF0oW0NIMl1bT0hdKVtDQEBIXShbT0hdKVtDQEhdNFtPSF0=

> <s_epik_cmdline>
J2VwaWtfcHl0aG9uJywgJy1waCcsICc3LjAnLCAnLXRuJywgJzgnLCAnLW1hJywgJzIwMCcsICctbWV0YWxfYmluZGluZycsICctaW1hZScsICc8aW5maWxlLm1hZT4nLCAnLW9tYWUnLCAnPG91dGZpbGUubWFlPic=

> <r_lp_tautomer_probability>
1

> <r_epik_Ionization_Penalty>
0.000266407

> <r_epik_Ionization_Penalty_Charging>
0

> <r_epik_Ionization_Penalty_Neutral>
0.000266407

> <r_epik_State_Penalty>
-0

> <r_epik_Charging_Adjusted_Penalty>
0

> <i_epik_Tot_Q>
0

> <i_epik_Tot_abs_Q>
0

> <r_epik_Metal_State_Penalty>
-0

> <b_epik_Metal_Only>
0

> <s_epik_Chemistry_Notes>
This compound contains an acetal/aminal-like group ( X-CH(R)-Y where X, Y are N, S, or O) that may be acid/base labile, releasing an aldehyde.

> <s_lp_Force_Field>
OPLS_2005

> <r_lp_Energy>
51.5446

> <b_lp_Chiralities_Consistent>
1

> <s_lp_Variant>
AV-unprocessed.smi:283-3

> <Gold.Version>
5.8.1

> <Gold.Id.Protein>
6NUR|6NUR_protein|mol2

> <Gold.PLP.Fitness>
55.6847

> <Gold.PLP.PLP>
-45.6843

> <Gold.PLP.part.hbond>
-4.0000

> <Gold.PLP.part.metal>
0.0000

> <Gold.PLP.part.buried>
-5.3555

> <Gold.PLP.part.nonpolar>
-34.8258

> <Gold.PLP.part.repulsive>
0.1533

> <Gold.PLP.ligand.clash>
0.0000

> <Gold.PLP.ligand.torsion>
0.5539

> <Gold.PLP.Chemscore.Hbond>
3.6793

> <Gold.PLP.Chemscore.CHOScore>
0.0000

> <Gold.PLP.Chemscore.Metal>
0.0000

> <Gold.Chemscore.Hbonds>
donor molecule, donor type, donor heavy atom, donor atom, acceptor molecule, acceptor atom, score
      L1  H    19    43       P1  7948  0.90
      L1  H    21    44       P1  7948  1.00
      P1  H  7997  8009       L1     5  0.70
      P1  H 10752 10763       L1     7  0.66

> <Gold.PLP.Chemscore.Internal.Correction>
0.0703

> <Gold.Rescore>
     Score         DG    S(hbond)    S(metal)    S(lipo)     H(rot)  DE(clash)    DE(int)     intcor
     16.97     -18.14       3.17        0.00     107.27       4.10       0.28       0.88       ----

> <Gold.Chemscore.Fitness>
16.9731

> <Gold.Chemscore.DG>
-18.1408

> <Gold.Chemscore.ZeroCoef>
-5.4800

> <Gold.Chemscore.Hbond>
3.1730

> <Gold.Chemscore.Metal>
0.0000

> <Gold.Chemscore.Lipo>
107.2717

> <Gold.Chemscore.Internal_Hbond>
0.0000

> <Gold.Chemscore.DEClash>
0.2850

> <Gold.Chemscore.DEInternal>
0.8827

> <Gold.Chemscore.Rot>
4.0968

> <Gold.Chemscore.Internal.Correction>
   9.000000E+99

> <Gold.Chemscore.Hbonds>
donor molecule, donor type, donor heavy atom, donor atom, acceptor molecule, acceptor atom, score
      L1  H    19    43       P1  7948  0.18
      L1  H    21    44       P1  7948  0.82
      P1  H  7997  8009       L1     5  0.10
      P1  H 10752 10763       L1     7  0.54

> <Gold.Chemscore.Hbond.Weighted>
-10.5979

> <Gold.Chemscore.Metal.Weighted>
-0.0000

> <Gold.Chemscore.Lipo.Weighted>
-12.5508

> <Gold.Chemscore.Internal_Hbond.Weighted>
0.0000

> <Gold.Chemscore.DEClash.Weighted>
0.2850

> <Gold.Chemscore.DEInternal.Weighted>
0.8827

> <Gold.Chemscore.Rot.Weighted>
10.4879

> <Gold.Chemscore.Internal.Correction.Weighted>
   9.000000E+99

> <Gold.Protein.RotatedTorsions>
[ 6907 6896 6895 6894 ] final  -32.95 input  -60.11 | X-H torsion
[ 7974 7965 7964 7962 ] final   81.40 input  175.53 | X-H torsion
[ 8008 7997 7996 7995 ] final  162.85 input   59.86 | X-H torsion
[ 10167 10162 10161 10158 ] final  -94.86 input  -65.29 | X-H torsion
[ 10718 10713 10712 10709 ] final -125.08 input   66.30 | X-H torsion
[ 10763 10752 10751 10750 ] final   88.19 input  -60.55 | X-H torsion
[ 11005 11000 10999 10996 ] final  -94.34 input  -57.11 | X-H torsion

> <Gold.Protein.ActiveResidues>
 VAL166  LYS551  ARG553  GLY616  TRP617  ASP618  TYR619  PRO620  LYS621  CYS622 
 ASP623  PHE694  ASN695  SER759  ASP760  ASP761  ALA762  ILE779  LEU786  VAL792 
 PHE793  MET794  SER795  GLU796  ALA797  LYS798  CYS799  TRP800  GLU811  SER814 

> <Gold.Protein.RotatedAtoms>
  151.0720  134.9804  159.8313 H   0  0  0  0  0  0  0  0  0  0  0  0  # atno 6907 bound_to 6896
  152.5409  134.2287  159.8826 H   0  0  0  0  0  0  0  0  0  0  0  0  # atno 6908 bound_to 6896
  151.2312  133.4406  159.2637 H   0  0  0  0  0  0  0  0  0  0  0  0  # atno 6909 bound_to 6896
  145.6387  139.2420  143.2043 H   0  0  0  0  0  0  0  0  0  0  0  0  # atno 7974 bound_to 7965
  156.2001  140.1739  156.7917 H   0  0  0  0  0  0  0  0  0  0  0  0  # atno 8008 bound_to 7997
  154.5580  140.0705  156.8805 H   0  0  0  0  0  0  0  0  0  0  0  0  # atno 8009 bound_to 7997
  155.2901  140.3355  155.4255 H   0  0  0  0  0  0  0  0  0  0  0  0  # atno 8010 bound_to 7997
  140.3100  143.3110  152.0158 H   0  0  0  0  0  0  0  0  0  0  0  0  # atno 10167 bound_to 10162
  156.1643  130.6624  151.0094 H   0  0  0  0  0  0  0  0  0  0  0  0  # atno 10718 bound_to 10713
  153.1744  135.4516  154.9945 H   0  0  0  0  0  0  0  0  0  0  0  0  # atno 10763 bound_to 10752
  154.7988  135.3247  154.7604 H   0  0  0  0  0  0  0  0  0  0  0  0  # atno 10764 bound_to 10752
  153.8076  135.6957  153.4900 H   0  0  0  0  0  0  0  0  0  0  0  0  # atno 10765 bound_to 10752
  141.1473  133.7949  157.0284 H   0  0  0  0  0  0  0  0  0  0  0  0  # atno 11005 bound_to 11000
  146.1298  140.7200  142.9417 LP  0  0  0  0  0  0  0  0  0  0  0  0  # atno 17320 bound_to 7965
  144.7165  140.4229  143.7040 LP  0  0  0  0  0  0  0  0  0  0  0  0  # atno 17321 bound_to 7965
  139.4896  144.6391  151.6914 LP  0  0  0  0  0  0  0  0  0  0  0  0  # atno 17342 bound_to 10162
  140.5576  144.0322  150.6155 LP  0  0  0  0  0  0  0  0  0  0  0  0  # atno 17343 bound_to 10162
  157.6756  131.0851  150.7502 LP  0  0  0  0  0  0  0  0  0  0  0  0  # atno 17370 bound_to 10713
  156.7563  130.4784  149.5446 LP  0  0  0  0  0  0  0  0  0  0  0  0  # atno 17371 bound_to 10713
  140.0770  134.9670  157.1562 LP  0  0  0  0  0  0  0  0  0  0  0  0  # atno 17394 bound_to 11000
  140.3630  134.2473  155.7185 LP  0  0  0  0  0  0  0  0  0  0  0  0  # atno 17395 bound_to 11000

$$$$
