AV-unprocessed.smi:3181|AV-procd|sdf|12139|dock8
  -GOLD-   2272017573D 1   1.00000     0.00000
 Structure written by MMmdl.
 42 43  0  0  0  0  0  0  0  0  2 V2000
  150.2695  141.1736  155.5837 C   0  0  0  0  0  0  0  0  0  0  0  0
  149.5990  141.4967  156.9306 C   0  0  2  0  0  0  0  0  0  0  0  0
  148.0614  141.4004  156.8737 C   0  0  0  0  0  0  0  0  0  0  0  0
  147.5553  141.2488  155.5219 N   0  0  0  0  0  0  0  0  0  0  0  0
  147.6303  142.0672  154.4710 C   0  0  0  0  0  0  0  0  0  0  0  0
  147.0436  141.5931  153.3812 N   0  0  0  0  0  0  0  0  0  0  0  0
  146.6018  140.3931  153.8626 C   0  0  0  0  0  0  0  0  0  0  0  0
  146.8835  140.1373  155.1404 N   0  0  0  0  0  0  0  0  0  0  0  0
  149.9886  142.8541  157.3752 N   0  3  0  0  0  0  0  0  0  0  0  0
  151.4393  143.1590  157.3527 C   0  0  2  0  0  0  0  0  0  0  0  0
  152.2373  142.0285  158.0231 C   0  0  0  0  0  0  0  0  0  0  0  0
  152.0290  141.9997  159.5455 C   0  0  0  0  0  0  0  0  0  0  0  0
  152.3663  143.3514  160.2066 C   0  0  2  0  0  0  0  0  0  0  0  0
  152.1461  143.2559  161.7268 C   0  0  0  0  0  0  0  0  0  0  0  0
  151.5561  144.4998  159.5492 C   0  0  1  0  0  0  0  0  0  0  0  0
  151.8960  145.8833  160.1317 C   0  0  0  0  0  0  0  0  0  0  0  0
  151.7686  144.5108  158.0193 C   0  0  0  0  0  0  0  0  0  0  0  0
  150.0614  140.1512  155.2676 H   0  0  0  0  0  0  0  0  0  0  0  0
  151.3532  141.2740  155.6448 H   0  0  0  0  0  0  0  0  0  0  0  0
  149.9192  141.8425  154.7969 H   0  0  0  0  0  0  0  0  0  0  0  0
  149.9468  140.7651  157.6617 H   0  0  0  0  0  0  0  0  0  0  0  0
  147.7172  140.5455  157.4575 H   0  0  0  0  0  0  0  0  0  0  0  0
  147.6077  142.2862  157.3221 H   0  0  0  0  0  0  0  0  0  0  0  0
  148.1207  143.0293  154.5042 H   0  0  0  0  0  0  0  0  0  0  0  0
  146.0556  139.6876  153.2536 H   0  0  0  0  0  0  0  0  0  0  0  0
  149.5003  143.5380  156.8147 H   0  0  0  0  0  0  0  0  0  0  0  0
  151.7441  143.1985  156.3058 H   0  0  0  0  0  0  0  0  0  0  0  0
  151.9669  141.0645  157.5895 H   0  0  0  0  0  0  0  0  0  0  0  0
  153.2988  142.1670  157.8140 H   0  0  0  0  0  0  0  0  0  0  0  0
  150.9966  141.7277  159.7696 H   0  0  0  0  0  0  0  0  0  0  0  0
  152.6494  141.2125  159.9757 H   0  0  0  0  0  0  0  0  0  0  0  0
  153.4271  143.5456  160.0404 H   0  0  0  0  0  0  0  0  0  0  0  0
  151.0900  143.1327  161.9683 H   0  0  0  0  0  0  0  0  0  0  0  0
  152.5084  144.1428  162.2458 H   0  0  0  0  0  0  0  0  0  0  0  0
  152.6825  142.4043  162.1465 H   0  0  0  0  0  0  0  0  0  0  0  0
  150.4973  144.3205  159.7409 H   0  0  0  0  0  0  0  0  0  0  0  0
  152.9614  146.0996  160.0466 H   0  0  0  0  0  0  0  0  0  0  0  0
  151.6205  145.9592  161.1833 H   0  0  0  0  0  0  0  0  0  0  0  0
  151.3552  146.6719  159.6077 H   0  0  0  0  0  0  0  0  0  0  0  0
  152.8117  144.7541  157.8110 H   0  0  0  0  0  0  0  0  0  0  0  0
  151.1873  145.3120  157.5627 H   0  0  0  0  0  0  0  0  0  0  0  0
  149.6786  142.9529  158.3314 H   0  0  0  0  0  0  0  0  0  0  0  0
  1  2  1  0  0  0  0
  1 18  1  0  0  0  0
  1 19  1  0  0  0  0
  1 20  1  0  0  0  0
  2  3  1  0  0  0  0
  2  9  1  0  0  0  0
  2 21  1  0  0  0  0
  3  4  1  0  0  0  0
  3 22  1  0  0  0  0
  3 23  1  0  0  0  0
  4  8  1  0  0  0  0
  4  5  1  0  0  0  0
  5  6  2  0  0  0  0
  5 24  1  0  0  0  0
  6  7  1  0  0  0  0
  7  8  2  0  0  0  0
  7 25  1  0  0  0  0
  9 10  1  0  0  0  0
  9 26  1  0  0  0  0
  9 42  1  0  0  0  0
 10 17  1  0  0  0  0
 10 11  1  0  0  0  0
 10 27  1  0  0  0  0
 11 12  1  0  0  0  0
 11 28  1  0  0  0  0
 11 29  1  0  0  0  0
 12 13  1  0  0  0  0
 12 30  1  0  0  0  0
 12 31  1  0  0  0  0
 13 14  1  0  0  0  0
 13 15  1  0  0  0  0
 13 32  1  0  0  0  0
 14 33  1  0  0  0  0
 14 34  1  0  0  0  0
 14 35  1  0  0  0  0
 15 16  1  0  0  0  0
 15 17  1  0  0  0  0
 15 36  1  0  0  0  0
 16 37  1  0  0  0  0
 16 38  1  0  0  0  0
 16 39  1  0  0  0  0
 17 40  1  0  0  0  0
 17 41  1  0  0  0  0
M  CHG  1   9   1
M  END
> <s_m_source_file>
AV-unprocessed.smi

> <i_m_source_file_index>
3181

> <i_lp_mmshare_version>
43012

> <i_f3d_flags>
0

> <s_epik_input>
bjFbY0hdbltjSF1uMVtDSDJdW0NAQEhdKFtDSDNdKVtOSF1bQ0BASF0yW0NIMl1bQ0gyXVtDQEBIXShbQ0gzXSlbQ0BASF0oW0NIM10pW0NIMl0y

> <s_epik_cmdline>
J2VwaWtfcHl0aG9uJywgJy1waCcsICc3LjAnLCAnLXRuJywgJzgnLCAnLW1hJywgJzIwMCcsICctbWV0YWxfYmluZGluZycsICctaW1hZScsICc8aW5maWxlLm1hZT4nLCAnLW9tYWUnLCAnPG91dGZpbGUubWFlPic=

> <r_lp_tautomer_probability>
1

> <r_epik_Ionization_Penalty>
0.000617007

> <r_epik_Ionization_Penalty_Charging>
0.000616215

> <r_epik_Ionization_Penalty_Neutral>
7.92544e-07

> <r_epik_State_Penalty>
0.000388807

> <r_epik_Charging_Adjusted_Penalty>
0.00100502

> <i_epik_Tot_Q>
1

> <i_epik_Tot_abs_Q>
1

> <r_epik_Metal_State_Penalty>
-0

> <b_epik_Metal_Only>
0

> <s_lp_Force_Field>
OPLS_2005

> <r_lp_Energy>
23.3583

> <b_lp_Chiralities_Consistent>
1

> <s_lp_Variant>
AV-unprocessed.smi:3181-5

> <Gold.Version>
5.8.1

> <Gold.Id.Protein>
6NUR|6NUR_protein|mol2

> <Gold.PLP.Fitness>
45.8673

> <Gold.PLP.PLP>
-36.2934

> <Gold.PLP.part.hbond>
-1.0000

> <Gold.PLP.part.metal>
0.0000

> <Gold.PLP.part.buried>
-3.2190

> <Gold.PLP.part.nonpolar>
-31.5322

> <Gold.PLP.part.repulsive>
0.2579

> <Gold.PLP.ligand.clash>
0.0000

> <Gold.PLP.ligand.torsion>
0.8136

> <Gold.PLP.Chemscore.Hbond>
2.0000

> <Gold.PLP.Chemscore.CHOScore>
1.7294

> <Gold.PLP.Chemscore.Metal>
0.0000

> <Gold.Chemscore.Hbonds>
donor molecule, donor type, donor heavy atom, donor atom, acceptor molecule, acceptor atom, score
      L1  H     9    26       P1  8028  2.00
      L1  C     5    24       P1  8028  1.00
      L1  C     7    25       P1 10175  0.55

> <Gold.PLP.Chemscore.Internal.Correction>
0.0128

> <Gold.Rescore>
     Score         DG    S(hbond)    S(metal)    S(lipo)     H(rot)  DE(clash)    DE(int)     intcor
     14.29     -15.50       0.94        0.00     104.89       2.11       0.34       0.88       ----

> <Gold.Chemscore.Fitness>
14.2859

> <Gold.Chemscore.DG>
-15.5041

> <Gold.Chemscore.ZeroCoef>
-5.4800

> <Gold.Chemscore.Hbond>
0.9437

> <Gold.Chemscore.Metal>
0.0000

> <Gold.Chemscore.Lipo>
104.8935

> <Gold.Chemscore.Internal_Hbond>
0.0000

> <Gold.Chemscore.DEClash>
0.3429

> <Gold.Chemscore.DEInternal>
0.8753

> <Gold.Chemscore.Rot>
2.1095

> <Gold.Chemscore.Internal.Correction>
   9.000000E+99

> <Gold.Chemscore.Hbonds>
donor molecule, donor type, donor heavy atom, donor atom, acceptor molecule, acceptor atom, score
      L1  H     9    26       P1  8028  0.98

> <Gold.Chemscore.Hbond.Weighted>
-3.1519

> <Gold.Chemscore.Metal.Weighted>
-0.0000

> <Gold.Chemscore.Lipo.Weighted>
-12.2725

> <Gold.Chemscore.Internal_Hbond.Weighted>
0.0000

> <Gold.Chemscore.DEClash.Weighted>
0.3429

> <Gold.Chemscore.DEInternal.Weighted>
0.8753

> <Gold.Chemscore.Rot.Weighted>
5.4003

> <Gold.Chemscore.Internal.Correction.Weighted>
   9.000000E+99

> <Gold.Protein.RotatedTorsions>
[ 6907 6896 6895 6894 ] final  109.63 input  -60.11 | X-H torsion
[ 7974 7965 7964 7962 ] final  -81.92 input  175.53 | X-H torsion
[ 8008 7997 7996 7995 ] final -105.31 input   59.86 | X-H torsion
[ 10167 10162 10161 10158 ] final -114.51 input  -65.29 | X-H torsion
[ 10718 10713 10712 10709 ] final -155.67 input   66.30 | X-H torsion
[ 10763 10752 10751 10750 ] final  -95.12 input  -60.55 | X-H torsion
[ 11005 11000 10999 10996 ] final   74.13 input  -57.11 | X-H torsion

> <Gold.Protein.ActiveResidues>
 VAL166  LYS551  ARG553  GLY616  TRP617  ASP618  TYR619  PRO620  LYS621  CYS622 
 ASP623  PHE694  ASN695  SER759  ASP760  ASP761  ALA762  ILE779  LEU786  VAL792 
 PHE793  MET794  SER795  GLU796  ALA797  LYS798  CYS799  TRP800  GLU811  SER814 

> <Gold.Protein.RotatedAtoms>
  152.5058  133.8916  159.7396 H   0  0  0  0  0  0  0  0  0  0  0  0  # atno 6907 bound_to 6896
  150.9353  133.6710  159.2809 H   0  0  0  0  0  0  0  0  0  0  0  0  # atno 6908 bound_to 6896
  151.4040  135.0980  159.9617 H   0  0  0  0  0  0  0  0  0  0  0  0  # atno 6909 bound_to 6896
  145.5403  140.9510  143.1555 H   0  0  0  0  0  0  0  0  0  0  0  0  # atno 7974 bound_to 7965
  154.8979  140.0414  157.1876 H   0  0  0  0  0  0  0  0  0  0  0  0  # atno 8008 bound_to 7997
  154.8473  140.2924  155.5599 H   0  0  0  0  0  0  0  0  0  0  0  0  # atno 8009 bound_to 7997
  156.2994  140.2471  156.3426 H   0  0  0  0  0  0  0  0  0  0  0  0  # atno 8010 bound_to 7997
  140.1002  143.4620  152.1817 H   0  0  0  0  0  0  0  0  0  0  0  0  # atno 10167 bound_to 10162
  156.5160  130.8456  151.2664 H   0  0  0  0  0  0  0  0  0  0  0  0  # atno 10718 bound_to 10713
  154.7119  135.5132  153.8679 H   0  0  0  0  0  0  0  0  0  0  0  0  # atno 10763 bound_to 10752
  153.0788  135.6625  154.0098 H   0  0  0  0  0  0  0  0  0  0  0  0  # atno 10764 bound_to 10752
  153.9939  135.3017  155.3389 H   0  0  0  0  0  0  0  0  0  0  0  0  # atno 10765 bound_to 10752
  139.9406  134.7406  156.1110 H   0  0  0  0  0  0  0  0  0  0  0  0  # atno 11005 bound_to 11000
  144.7580  139.7025  143.7246 LP  0  0  0  0  0  0  0  0  0  0  0  0  # atno 17320 bound_to 7965
  146.1986  139.5266  142.9758 LP  0  0  0  0  0  0  0  0  0  0  0  0  # atno 17321 bound_to 7965
  139.5675  144.7444  151.3980 LP  0  0  0  0  0  0  0  0  0  0  0  0  # atno 17342 bound_to 10162
  140.6982  143.7697  150.7360 LP  0  0  0  0  0  0  0  0  0  0  0  0  # atno 17343 bound_to 10162
  157.7444  130.9933  150.2668 LP  0  0  0  0  0  0  0  0  0  0  0  0  # atno 17370 bound_to 10713
  156.3194  130.3783  149.7588 LP  0  0  0  0  0  0  0  0  0  0  0  0  # atno 17371 bound_to 10713
  141.1039  133.6667  156.2817 LP  0  0  0  0  0  0  0  0  0  0  0  0  # atno 17394 bound_to 11000
  140.5962  134.5601  157.5509 LP  0  0  0  0  0  0  0  0  0  0  0  0  # atno 17395 bound_to 11000

$$$$
