AV-unprocessed.smi:2505|AV-procd|sdf|9853|dock4
  -GOLD-   2272013483D 1   1.00000     0.00000
 Structure written by MMmdl.
 48 52  0  0  0  0  0  0  0  0  1 V2000
  147.4669  136.0489  155.7268 O   0  0  0  0  0  0  0  0  0  0  0  0
  147.9228  136.1260  154.5884 C   0  0  0  0  0  0  0  0  0  0  0  0
  148.8116  137.0494  154.1766 N   0  0  0  0  0  0  0  0  0  0  0  0
  149.4540  138.0632  154.9352 C   0  0  0  0  0  0  0  0  0  0  0  0
  149.2738  138.2844  156.3229 C   0  0  0  0  0  0  0  0  0  0  0  0
  149.9143  139.2818  156.9706 N   0  0  0  0  0  0  0  0  0  0  0  0
  150.7162  140.0626  156.2413 C   0  0  0  0  0  0  0  0  0  0  0  0
  151.4554  141.1387  156.9742 C   0  0  0  0  0  0  0  0  0  0  0  0
  151.3448  141.2701  158.4796 C   0  0  0  0  0  0  0  0  0  0  0  0
  150.7130  142.3061  157.5921 C   0  0  0  0  0  0  0  0  0  0  0  0
  150.9647  139.9476  154.9339 N   0  0  0  0  0  0  0  0  0  0  0  0
  150.3278  138.9543  154.2780 C   0  0  0  0  0  0  0  0  0  0  0  0
  147.5666  135.2475  153.6360 N   0  0  0  0  0  0  0  0  0  0  0  0
  146.6302  134.1276  153.7468 C   0  0  2  0  0  0  0  0  0  0  0  0
  147.2577  132.8182  153.2663 C   0  0  1  0  0  0  0  0  0  0  0  0
  147.6781  131.5581  153.9352 C   0  0  0  0  0  0  0  0  0  0  0  0
  147.0319  130.5598  152.9383 C   0  0  0  0  0  0  0  0  0  0  0  0
  146.1824  131.3545  152.0755 O   0  0  0  0  0  0  0  0  0  0  0  0
  145.8388  132.4704  152.8716 C   0  0  2  0  0  0  0  0  0  0  0  0
  145.6560  133.9594  152.5147 C   0  0  0  0  0  0  0  0  0  0  0  0
  144.2344  134.5197  152.6617 C   0  0  0  0  0  0  0  0  0  0  0  0
  143.9529  135.4773  151.4980 C   0  0  0  0  0  0  0  0  0  0  0  0
  145.2983  135.7105  150.8219 C   0  0  0  0  0  0  0  0  0  0  0  0
  146.0903  134.4411  151.1185 C   0  0  0  0  0  0  0  0  0  0  0  0
  149.1302  136.9546  153.2232 H   0  0  0  0  0  0  0  0  0  0  0  0
  148.6119  137.6879  156.9305 H   0  0  0  0  0  0  0  0  0  0  0  0
  152.4225  141.3369  156.5161 H   0  0  0  0  0  0  0  0  0  0  0  0
  150.6791  140.5856  159.0020 H   0  0  0  0  0  0  0  0  0  0  0  0
  152.2423  141.5541  159.0249 H   0  0  0  0  0  0  0  0  0  0  0  0
  151.1875  143.2838  157.5428 H   0  0  0  0  0  0  0  0  0  0  0  0
  149.6267  142.3110  157.5250 H   0  0  0  0  0  0  0  0  0  0  0  0
  150.5239  138.8685  153.2193 H   0  0  0  0  0  0  0  0  0  0  0  0
  147.9974  135.3689  152.7308 H   0  0  0  0  0  0  0  0  0  0  0  0
  146.1475  134.0389  154.7245 H   0  0  0  0  0  0  0  0  0  0  0  0
  147.8989  132.9997  152.3982 H   0  0  0  0  0  0  0  0  0  0  0  0
  148.7613  131.4498  153.9935 H   0  0  0  0  0  0  0  0  0  0  0  0
  147.2552  131.4671  154.9367 H   0  0  0  0  0  0  0  0  0  0  0  0
  147.7799  130.0423  152.3372 H   0  0  0  0  0  0  0  0  0  0  0  0
  146.4433  129.8093  153.4672 H   0  0  0  0  0  0  0  0  0  0  0  0
  145.2042  132.1663  153.7121 H   0  0  0  0  0  0  0  0  0  0  0  0
  143.4933  133.7196  152.6668 H   0  0  0  0  0  0  0  0  0  0  0  0
  144.1189  135.0410  153.6113 H   0  0  0  0  0  0  0  0  0  0  0  0
  143.2693  135.0023  150.7934 H   0  0  0  0  0  0  0  0  0  0  0  0
  143.4907  136.4086  151.8271 H   0  0  0  0  0  0  0  0  0  0  0  0
  145.2047  135.9094  149.7540 H   0  0  0  0  0  0  0  0  0  0  0  0
  145.7941  136.5687  151.2771 H   0  0  0  0  0  0  0  0  0  0  0  0
  147.1605  134.6287  151.0319 H   0  0  0  0  0  0  0  0  0  0  0  0
  145.8458  133.6821  150.3744 H   0  0  0  0  0  0  0  0  0  0  0  0
  1  2  2  0  0  0  0
  2  3  1  0  0  0  0
  2 13  1  0  0  0  0
  3  4  1  0  0  0  0
  3 25  1  0  0  0  0
  4 12  1  0  0  0  0
  4  5  2  0  0  0  0
  5  6  1  0  0  0  0
  5 26  1  0  0  0  0
  6  7  2  0  0  0  0
  7  8  1  0  0  0  0
  7 11  1  0  0  0  0
  8 10  1  0  0  0  0
  8  9  1  0  0  0  0
  8 27  1  0  0  0  0
  9 10  1  0  0  0  0
  9 28  1  0  0  0  0
  9 29  1  0  0  0  0
 10 30  1  0  0  0  0
 10 31  1  0  0  0  0
 11 12  2  0  0  0  0
 12 32  1  0  0  0  0
 13 14  1  0  0  0  0
 13 33  1  0  0  0  0
 14 20  1  0  0  0  0
 14 15  1  0  0  0  0
 14 34  1  0  0  0  0
 15 19  1  0  0  0  0
 15 16  1  0  0  0  0
 15 35  1  0  0  0  0
 16 17  1  0  0  0  0
 16 36  1  0  0  0  0
 16 37  1  0  0  0  0
 17 18  1  0  0  0  0
 17 38  1  0  0  0  0
 17 39  1  0  0  0  0
 18 19  1  0  0  0  0
 19 20  1  0  0  0  0
 19 40  1  0  0  0  0
 20 24  1  0  0  0  0
 20 21  1  0  0  0  0
 21 22  1  0  0  0  0
 21 41  1  0  0  0  0
 21 42  1  0  0  0  0
 22 23  1  0  0  0  0
 22 43  1  0  0  0  0
 22 44  1  0  0  0  0
 23 24  1  0  0  0  0
 23 45  1  0  0  0  0
 23 46  1  0  0  0  0
 24 47  1  0  0  0  0
 24 48  1  0  0  0  0
M  END
> <s_m_source_file>
AV-unprocessed.smi

> <i_m_source_file_index>
2505

> <i_lp_mmshare_version>
43012

> <i_f3d_flags>
0

> <s_epik_input>
W0NIMl0xW0NIMl1bQ0hdMWMobltjSF0yKW5bY0hdYzJbTkhdQyg9TylbTkhdW0NAQEhdM1tDQEBIXShbQ0gyXVtDSDJdTzQpW0NASF00QzM1W0NIMl1bQ0gyXVtDSDJdW0NIMl01

> <s_epik_cmdline>
J2VwaWtfcHl0aG9uJywgJy1waCcsICc3LjAnLCAnLXRuJywgJzgnLCAnLW1hJywgJzIwMCcsICctbWV0YWxfYmluZGluZycsICctaW1hZScsICc8aW5maWxlLm1hZT4nLCAnLW9tYWUnLCAnPG91dGZpbGUubWFlPic=

> <r_lp_tautomer_probability>
1

> <r_epik_Ionization_Penalty>
2.6075e-05

> <r_epik_Ionization_Penalty_Charging>
0

> <r_epik_Ionization_Penalty_Neutral>
2.6075e-05

> <r_epik_State_Penalty>
-0

> <r_epik_Charging_Adjusted_Penalty>
0

> <i_epik_Tot_Q>
0

> <i_epik_Tot_abs_Q>
0

> <r_epik_Metal_State_Penalty>
-0

> <b_epik_Metal_Only>
0

> <s_lp_Force_Field>
OPLS_2005

> <r_lp_Energy>
84.8822

> <b_lp_Chiralities_Consistent>
1

> <s_lp_Variant>
AV-unprocessed.smi:2505-1

> <Gold.Version>
5.8.1

> <Gold.Id.Protein>
6NUR|6NUR_protein|mol2

> <Gold.PLP.Fitness>
43.5546

> <Gold.PLP.PLP>
-31.7611

> <Gold.PLP.part.hbond>
-2.4535

> <Gold.PLP.part.metal>
0.0000

> <Gold.PLP.part.buried>
-4.9350

> <Gold.PLP.part.nonpolar>
-25.1541

> <Gold.PLP.part.repulsive>
0.2467

> <Gold.PLP.ligand.clash>
0.0000

> <Gold.PLP.ligand.torsion>
0.2074

> <Gold.PLP.Chemscore.Hbond>
2.9360

> <Gold.PLP.Chemscore.CHOScore>
1.0000

> <Gold.PLP.Chemscore.Metal>
0.0000

> <Gold.Chemscore.Hbonds>
donor molecule, donor type, donor heavy atom, donor atom, acceptor molecule, acceptor atom, score
      L1  H     3    25       P1  7948  0.96
      L1  H    13    33       P1  7948  0.96
      P1  H  7989  7998       L1    11  0.95
      L1  C    12    32       P1  7957  1.00

> <Gold.PLP.Chemscore.Internal.Correction>
0.4003

> <Gold.Rescore>
     Score         DG    S(hbond)    S(metal)    S(lipo)     H(rot)  DE(clash)    DE(int)     intcor
     18.37     -19.83       2.55        0.00      75.46       1.17       0.05       1.41       ----

> <Gold.Chemscore.Fitness>
18.3713

> <Gold.Chemscore.DG>
-19.8297

> <Gold.Chemscore.ZeroCoef>
-5.4800

> <Gold.Chemscore.Hbond>
2.5531

> <Gold.Chemscore.Metal>
0.0000

> <Gold.Chemscore.Lipo>
75.4592

> <Gold.Chemscore.Internal_Hbond>
0.0000

> <Gold.Chemscore.DEClash>
0.0509

> <Gold.Chemscore.DEInternal>
1.4075

> <Gold.Chemscore.Rot>
1.1744

> <Gold.Chemscore.Internal.Correction>
   9.000000E+99

> <Gold.Chemscore.Hbonds>
donor molecule, donor type, donor heavy atom, donor atom, acceptor molecule, acceptor atom, score
      L1  H     3    25       P1  7948  0.86
      L1  H    13    33       P1  7948  0.86
      P1  H  7989  7998       L1    11  0.22

> <Gold.Chemscore.Hbond.Weighted>
-8.5274

> <Gold.Chemscore.Metal.Weighted>
-0.0000

> <Gold.Chemscore.Lipo.Weighted>
-8.8287

> <Gold.Chemscore.Internal_Hbond.Weighted>
0.0000

> <Gold.Chemscore.DEClash.Weighted>
0.0509

> <Gold.Chemscore.DEInternal.Weighted>
1.4075

> <Gold.Chemscore.Rot.Weighted>
3.0064

> <Gold.Chemscore.Internal.Correction.Weighted>
   9.000000E+99

> <Gold.Protein.RotatedTorsions>
[ 6907 6896 6895 6894 ] final  100.44 input  -60.11 | X-H torsion
[ 7974 7965 7964 7962 ] final  131.94 input  175.53 | X-H torsion
[ 8008 7997 7996 7995 ] final   46.73 input   59.86 | X-H torsion
[ 10167 10162 10161 10158 ] final -108.72 input  -65.29 | X-H torsion
[ 10718 10713 10712 10709 ] final -105.32 input   66.30 | X-H torsion
[ 10763 10752 10751 10750 ] final  -49.38 input  -60.55 | X-H torsion
[ 11005 11000 10999 10996 ] final  167.88 input  -57.11 | X-H torsion

> <Gold.Protein.ActiveResidues>
 VAL166  LYS551  ARG553  GLY616  TRP617  ASP618  TYR619  PRO620  LYS621  CYS622 
 ASP623  PHE694  ASN695  SER759  ASP760  ASP761  ALA762  ILE779  LEU786  VAL792 
 PHE793  MET794  SER795  GLU796  ALA797  LYS798  CYS799  TRP800  GLU811  SER814 

> <Gold.Protein.RotatedAtoms>
  152.5372  134.0276  159.8009 H   0  0  0  0  0  0  0  0  0  0  0  0  # atno 6907 bound_to 6896
  151.0452  133.5663  159.2654 H   0  0  0  0  0  0  0  0  0  0  0  0  # atno 6908 bound_to 6896
  151.2618  135.0664  159.9155 H   0  0  0  0  0  0  0  0  0  0  0  0  # atno 6909 bound_to 6896
  145.0020  139.4303  143.5287 H   0  0  0  0  0  0  0  0  0  0  0  0  # atno 7974 bound_to 7965
  155.3573  140.3417  155.4240 H   0  0  0  0  0  0  0  0  0  0  0  0  # atno 8008 bound_to 7997
  156.1732  140.1639  156.8444 H   0  0  0  0  0  0  0  0  0  0  0  0  # atno 8009 bound_to 7997
  154.5255  140.0757  156.8232 H   0  0  0  0  0  0  0  0  0  0  0  0  # atno 8010 bound_to 7997
  140.1631  143.4104  152.1410 H   0  0  0  0  0  0  0  0  0  0  0  0  # atno 10167 bound_to 10162
  156.0341  130.5558  150.7522 H   0  0  0  0  0  0  0  0  0  0  0  0  # atno 10718 bound_to 10713
  154.0932  135.6574  153.4856 H   0  0  0  0  0  0  0  0  0  0  0  0  # atno 10763 bound_to 10752
  153.0314  135.5207  154.7360 H   0  0  0  0  0  0  0  0  0  0  0  0  # atno 10764 bound_to 10752
  154.6490  135.2998  154.9979 H   0  0  0  0  0  0  0  0  0  0  0  0  # atno 10765 bound_to 10752
  140.2814  134.7747  157.3761 H   0  0  0  0  0  0  0  0  0  0  0  0  # atno 11005 bound_to 11000
  146.3454  139.9414  142.8740 LP  0  0  0  0  0  0  0  0  0  0  0  0  # atno 17320 bound_to 7965
  145.2140  140.9907  143.4084 LP  0  0  0  0  0  0  0  0  0  0  0  0  # atno 17321 bound_to 7965
  139.5372  144.7221  151.4854 LP  0  0  0  0  0  0  0  0  0  0  0  0  # atno 17342 bound_to 10162
  140.6630  143.8458  150.6909 LP  0  0  0  0  0  0  0  0  0  0  0  0  # atno 17343 bound_to 10162
  157.5063  131.0922  151.0253 LP  0  0  0  0  0  0  0  0  0  0  0  0  # atno 17370 bound_to 10713
  157.0620  130.5829  149.5387 LP  0  0  0  0  0  0  0  0  0  0  0  0  # atno 17371 bound_to 10713
  140.1280  134.5132  155.8129 LP  0  0  0  0  0  0  0  0  0  0  0  0  # atno 17394 bound_to 11000
  141.2162  133.6779  156.6987 LP  0  0  0  0  0  0  0  0  0  0  0  0  # atno 17395 bound_to 11000

$$$$
