AV-unprocessed.smi:3251|AV-procd|sdf|12438|dock5
  -GOLD-   2272018333D 1   1.00000     0.00000
 Structure written by MMmdl.
 40 41  0  0  0  0  0  0  0  0  1 V2000
  146.7239  138.4228  153.0216 C   0  0  0  0  0  0  0  0  0  0  0  0
  147.3252  139.5562  153.8019 C   0  0  0  0  0  0  0  0  0  0  0  0
  146.6940  140.7611  154.2237 C   0  0  0  0  0  0  0  0  0  0  0  0
  147.5066  141.5596  154.8960 N   0  0  0  0  0  0  0  0  0  0  0  0
  148.6812  140.8953  154.9284 N   0  0  0  0  0  0  0  0  0  0  0  0
  149.8242  141.4841  155.5987 C   0  0  0  0  0  0  0  0  0  0  0  0
  149.5854  141.6252  157.1090 C   0  0  0  0  0  0  0  0  0  0  0  0
  149.8543  143.0012  157.5123 N   0  0  0  0  0  0  0  0  0  0  0  0
  151.2670  143.2488  157.8567 C   0  0  1  0  0  0  0  0  0  0  0  0
  151.9781  143.9036  156.6624 C   0  0  0  0  0  0  0  0  0  0  0  0
  151.4519  144.1230  159.1185 C   0  0  0  0  0  0  0  0  0  0  0  0
  150.9891  145.2651  159.1230 O   0  0  0  0  0  0  0  0  0  0  0  0
  152.1161  143.6227  160.1833 N   0  0  0  0  0  0  0  0  0  0  0  0
  152.6999  142.2821  160.2017 C   0  0  0  0  0  0  0  0  0  0  0  0
  153.5400  142.2095  161.4765 C   0  0  0  0  0  0  0  0  0  0  0  0
  152.8903  143.2244  162.4053 C   0  0  0  0  0  0  0  0  0  0  0  0
  152.3423  144.2957  161.4623 C   0  0  0  0  0  0  0  0  0  0  0  0
  148.6004  139.6837  154.2757 C   0  0  0  0  0  0  0  0  0  0  0  0
  145.6448  138.5332  152.9123 H   0  0  0  0  0  0  0  0  0  0  0  0
  146.9006  137.4621  153.5054 H   0  0  0  0  0  0  0  0  0  0  0  0
  147.1436  138.3600  152.0176 H   0  0  0  0  0  0  0  0  0  0  0  0
  145.6741  141.0775  154.0612 H   0  0  0  0  0  0  0  0  0  0  0  0
  150.6967  140.8578  155.4064 H   0  0  0  0  0  0  0  0  0  0  0  0
  150.0272  142.4577  155.1491 H   0  0  0  0  0  0  0  0  0  0  0  0
  148.5594  141.3417  157.3460 H   0  0  0  0  0  0  0  0  0  0  0  0
  150.2458  140.9487  157.6534 H   0  0  0  0  0  0  0  0  0  0  0  0
  149.5394  143.6277  156.7859 H   0  0  0  0  0  0  0  0  0  0  0  0
  151.7247  142.2724  158.0116 H   0  0  0  0  0  0  0  0  0  0  0  0
  153.0371  144.0644  156.8684 H   0  0  0  0  0  0  0  0  0  0  0  0
  151.5376  144.8706  156.4153 H   0  0  0  0  0  0  0  0  0  0  0  0
  151.9128  143.2738  155.7747 H   0  0  0  0  0  0  0  0  0  0  0  0
  151.8954  141.5457  160.2308 H   0  0  0  0  0  0  0  0  0  0  0  0
  153.3071  142.0866  159.3163 H   0  0  0  0  0  0  0  0  0  0  0  0
  153.5763  141.2066  161.9031 H   0  0  0  0  0  0  0  0  0  0  0  0
  154.5634  142.5176  161.2585 H   0  0  0  0  0  0  0  0  0  0  0  0
  152.0656  142.7523  162.9409 H   0  0  0  0  0  0  0  0  0  0  0  0
  153.5831  143.6260  163.1454 H   0  0  0  0  0  0  0  0  0  0  0  0
  153.0778  145.0892  161.3217 H   0  0  0  0  0  0  0  0  0  0  0  0
  151.4305  144.7388  161.8647 H   0  0  0  0  0  0  0  0  0  0  0  0
  149.4485  139.0187  154.2032 H   0  0  0  0  0  0  0  0  0  0  0  0
  1  2  1  0  0  0  0
  1 19  1  0  0  0  0
  1 20  1  0  0  0  0
  1 21  1  0  0  0  0
  2 18  2  0  0  0  0
  2  3  1  0  0  0  0
  3  4  2  0  0  0  0
  3 22  1  0  0  0  0
  4  5  1  0  0  0  0
  5  6  1  0  0  0  0
  5 18  1  0  0  0  0
  6  7  1  0  0  0  0
  6 23  1  0  0  0  0
  6 24  1  0  0  0  0
  7  8  1  0  0  0  0
  7 25  1  0  0  0  0
  7 26  1  0  0  0  0
  8  9  1  0  0  0  0
  8 27  1  0  0  0  0
  9 10  1  0  0  0  0
  9 11  1  0  0  0  0
  9 28  1  0  0  0  0
 10 29  1  0  0  0  0
 10 30  1  0  0  0  0
 10 31  1  0  0  0  0
 11 12  2  0  0  0  0
 11 13  1  0  0  0  0
 13 17  1  0  0  0  0
 13 14  1  0  0  0  0
 14 15  1  0  0  0  0
 14 32  1  0  0  0  0
 14 33  1  0  0  0  0
 15 16  1  0  0  0  0
 15 34  1  0  0  0  0
 15 35  1  0  0  0  0
 16 17  1  0  0  0  0
 16 36  1  0  0  0  0
 16 37  1  0  0  0  0
 17 38  1  0  0  0  0
 17 39  1  0  0  0  0
 18 40  1  0  0  0  0
M  END
> <s_m_source_file>
AV-unprocessed.smi

> <i_m_source_file_index>
3251

> <i_lp_mmshare_version>
43012

> <i_f3d_flags>
0

> <s_epik_input>
W0NIM11jMVtjSF1ubihbY0hdMSlbQ0gyXVtDSDJdW05IXVtDQEhdKFtDSDNdKUMoPU8pTjJbQ0gyXVtDSDJdW0NIMl1bQ0gyXTI=

> <s_epik_cmdline>
J2VwaWtfcHl0aG9uJywgJy1waCcsICc3LjAnLCAnLXRuJywgJzgnLCAnLW1hJywgJzIwMCcsICctbWV0YWxfYmluZGluZycsICctaW1hZScsICc8aW5maWxlLm1hZT4nLCAnLW9tYWUnLCAnPG91dGZpbGUubWFlPic=

> <r_lp_tautomer_probability>
1

> <r_epik_Ionization_Penalty>
0.734676

> <r_epik_Ionization_Penalty_Charging>
0

> <r_epik_Ionization_Penalty_Neutral>
0.734676

> <r_epik_State_Penalty>
0.75825

> <r_epik_Charging_Adjusted_Penalty>
0.75825

> <i_epik_Tot_Q>
0

> <i_epik_Tot_abs_Q>
0

> <r_epik_Metal_State_Penalty>
0.756914

> <b_epik_Metal_Only>
0

> <s_lp_Force_Field>
OPLS_2005

> <r_lp_Energy>
31.4715

> <b_lp_Chiralities_Consistent>
1

> <s_lp_Variant>
AV-unprocessed.smi:3251-4

> <Gold.Version>
5.8.1

> <Gold.Id.Protein>
6NUR|6NUR_protein|mol2

> <Gold.PLP.Fitness>
48.0772

> <Gold.PLP.PLP>
-43.8036

> <Gold.PLP.part.hbond>
-1.0000

> <Gold.PLP.part.metal>
0.0000

> <Gold.PLP.part.buried>
-1.3359

> <Gold.PLP.part.nonpolar>
-41.7300

> <Gold.PLP.part.repulsive>
0.2830

> <Gold.PLP.ligand.clash>
0.0000

> <Gold.PLP.ligand.torsion>
1.1337

> <Gold.PLP.Chemscore.Hbond>
1.0000

> <Gold.PLP.Chemscore.CHOScore>
1.1654

> <Gold.PLP.Chemscore.Metal>
0.0000

> <Gold.Chemscore.Hbonds>
donor molecule, donor type, donor heavy atom, donor atom, acceptor molecule, acceptor atom, score
      L1  H     8    27       P1  8028  1.00
      L1  C     3    22       P1 10175  0.81

> <Gold.PLP.Chemscore.Internal.Correction>
0.0449

> <Gold.Rescore>
     Score         DG    S(hbond)    S(metal)    S(lipo)     H(rot)  DE(clash)    DE(int)     intcor
     14.95     -17.19       0.94        0.00     110.36       1.70       0.97       1.27       ----

> <Gold.Chemscore.Fitness>
14.9529

> <Gold.Chemscore.DG>
-17.1943

> <Gold.Chemscore.ZeroCoef>
-5.4800

> <Gold.Chemscore.Hbond>
0.9405

> <Gold.Chemscore.Metal>
0.0000

> <Gold.Chemscore.Lipo>
110.3636

> <Gold.Chemscore.Internal_Hbond>
0.0000

> <Gold.Chemscore.DEClash>
0.9729

> <Gold.Chemscore.DEInternal>
1.2685

> <Gold.Chemscore.Rot>
1.6951

> <Gold.Chemscore.Internal.Correction>
   9.000000E+99

> <Gold.Chemscore.Hbonds>
donor molecule, donor type, donor heavy atom, donor atom, acceptor molecule, acceptor atom, score
      L1  H     8    27       P1  8028  0.98

> <Gold.Chemscore.Hbond.Weighted>
-3.1412

> <Gold.Chemscore.Metal.Weighted>
-0.0000

> <Gold.Chemscore.Lipo.Weighted>
-12.9125

> <Gold.Chemscore.Internal_Hbond.Weighted>
0.0000

> <Gold.Chemscore.DEClash.Weighted>
0.9729

> <Gold.Chemscore.DEInternal.Weighted>
1.2685

> <Gold.Chemscore.Rot.Weighted>
4.3395

> <Gold.Chemscore.Internal.Correction.Weighted>
   9.000000E+99

> <Gold.Protein.RotatedTorsions>
[ 6907 6896 6895 6894 ] final -125.43 input  -60.11 | X-H torsion
[ 7974 7965 7964 7962 ] final  168.72 input  175.53 | X-H torsion
[ 8008 7997 7996 7995 ] final  -65.65 input   59.86 | X-H torsion
[ 10167 10162 10161 10158 ] final  -62.89 input  -65.29 | X-H torsion
[ 10718 10713 10712 10709 ] final -165.85 input   66.30 | X-H torsion
[ 10763 10752 10751 10750 ] final -145.74 input  -60.55 | X-H torsion
[ 11005 11000 10999 10996 ] final  174.44 input  -57.11 | X-H torsion

> <Gold.Protein.ActiveResidues>
 VAL166  LYS551  ARG553  GLY616  TRP617  ASP618  TYR619  PRO620  LYS621  CYS622 
 ASP623  PHE694  ASN695  SER759  ASP760  ASP761  ALA762  ILE779  LEU786  VAL792 
 PHE793  MET794  SER795  GLU796  ALA797  LYS798  CYS799  TRP800  GLU811  SER814 

> <Gold.Protein.RotatedAtoms>
  150.8867  133.7299  159.2916 H   0  0  0  0  0  0  0  0  0  0  0  0  # atno 6907 bound_to 6896
  151.4862  135.1053  159.9801 H   0  0  0  0  0  0  0  0  0  0  0  0  # atno 6908 bound_to 6896
  152.4794  133.8171  159.7089 H   0  0  0  0  0  0  0  0  0  0  0  0  # atno 6909 bound_to 6896
  144.7379  139.8948  143.6405 H   0  0  0  0  0  0  0  0  0  0  0  0  # atno 7974 bound_to 7965
  154.4685  140.0929  156.7082 H   0  0  0  0  0  0  0  0  0  0  0  0  # atno 8008 bound_to 7997
  155.4791  140.3467  155.4319 H   0  0  0  0  0  0  0  0  0  0  0  0  # atno 8009 bound_to 7997
  156.0997  140.1419  156.9472 H   0  0  0  0  0  0  0  0  0  0  0  0  # atno 8010 bound_to 7997
  140.5908  143.2341  151.6144 H   0  0  0  0  0  0  0  0  0  0  0  0  # atno 10167 bound_to 10162
  156.6593  130.9039  151.3026 H   0  0  0  0  0  0  0  0  0  0  0  0  # atno 10718 bound_to 10713
  154.8369  135.3405  154.6551 H   0  0  0  0  0  0  0  0  0  0  0  0  # atno 10763 bound_to 10752
  153.7166  135.6961  153.5028 H   0  0  0  0  0  0  0  0  0  0  0  0  # atno 10764 bound_to 10752
  153.2412  135.4384  155.0653 H   0  0  0  0  0  0  0  0  0  0  0  0  # atno 10765 bound_to 10752
  140.3513  134.7192  157.4270 H   0  0  0  0  0  0  0  0  0  0  0  0  # atno 11005 bound_to 11000
  146.1115  139.4120  143.0285 LP  0  0  0  0  0  0  0  0  0  0  0  0  # atno 17320 bound_to 7965
  145.7436  140.9999  143.1288 LP  0  0  0  0  0  0  0  0  0  0  0  0  # atno 17321 bound_to 7965
  139.5226  144.3157  152.0954 LP  0  0  0  0  0  0  0  0  0  0  0  0  # atno 17342 bound_to 10162
  140.2322  144.4357  150.6295 LP  0  0  0  0  0  0  0  0  0  0  0  0  # atno 17343 bound_to 10162
  157.7115  130.9446  150.1105 LP  0  0  0  0  0  0  0  0  0  0  0  0  # atno 17370 bound_to 10713
  156.2023  130.3661  149.8772 LP  0  0  0  0  0  0  0  0  0  0  0  0  # atno 17371 bound_to 10713
  140.0701  134.5875  155.8652 LP  0  0  0  0  0  0  0  0  0  0  0  0  # atno 17394 bound_to 11000
  141.2011  133.6616  156.5933 LP  0  0  0  0  0  0  0  0  0  0  0  0  # atno 17395 bound_to 11000

$$$$
