AV-unprocessed.smi:1815|AV-procd|sdf|7360|dock8
  -GOLD-   22720 9 23D 1   1.00000     0.00000
 Structure written by MMmdl.
 39 40  0  0  0  0  0  0  0  0  3 V2000
  145.5835  132.8618  151.5490 C   0  0  0  0  0  0  0  0  0  0  0  0
  146.1926  134.1742  152.0550 C   0  0  2  0  0  0  0  0  0  0  0  0
  147.0434  133.9654  153.3203 C   0  0  0  0  0  0  0  0  0  0  0  0
  147.5454  135.2637  153.8259 N   0  3  2  0  0  0  0  0  0  0  0  0
  148.4627  135.1074  154.9814 C   0  0  0  0  0  0  0  0  0  0  0  0
  147.7814  134.4208  156.1749 C   0  0  0  0  0  0  0  0  0  0  0  0
  147.5478  135.3791  157.2455 N   0  0  0  0  0  0  0  0  0  0  0  0
  148.1566  135.3636  158.4381 C   0  0  0  0  0  0  0  0  0  0  0  0
  148.9926  134.4922  158.6888 O   0  0  0  0  0  0  0  0  0  0  0  0
  147.7582  136.3574  159.2634 N   0  5  0  0  0  0  0  0  0  0  0  0
  147.6325  136.1274  160.5806 C   0  0  0  0  0  0  0  0  0  0  0  0
  147.5420  137.1077  161.4866 N   0  0  0  0  0  0  0  0  0  0  0  0
  147.4259  136.6428  162.7977 C   0  0  0  0  0  0  0  0  0  0  0  0
  147.4372  135.2766  162.8929 C   0  0  0  0  0  0  0  0  0  0  0  0
  147.5928  134.5287  161.3291 S   0  0  0  0  0  0  0  0  0  0  0  0
  146.4126  136.1854  154.0874 C   0  0  0  0  0  0  0  0  0  0  0  0
  145.5293  136.3496  152.8350 C   0  0  1  0  0  0  0  0  0  0  0  0
  146.1715  137.2191  151.7392 C   0  0  0  0  0  0  0  0  0  0  0  0
  145.1238  135.0715  152.3444 O   0  0  0  0  0  0  0  0  0  0  0  0
  146.3605  132.1391  151.2981 H   0  0  0  0  0  0  0  0  0  0  0  0
  144.9854  133.0300  150.6532 H   0  0  0  0  0  0  0  0  0  0  0  0
  144.9361  132.4100  152.3011 H   0  0  0  0  0  0  0  0  0  0  0  0
  146.8138  134.5854  151.2590 H   0  0  0  0  0  0  0  0  0  0  0  0
  146.4563  133.4736  154.0980 H   0  0  0  0  0  0  0  0  0  0  0  0
  147.8838  133.3091  153.0894 H   0  0  0  0  0  0  0  0  0  0  0  0
  149.3566  134.5611  154.6759 H   0  0  0  0  0  0  0  0  0  0  0  0
  148.7989  136.0936  155.3058 H   0  0  0  0  0  0  0  0  0  0  0  0
  146.8300  133.9863  155.8634 H   0  0  0  0  0  0  0  0  0  0  0  0
  148.3967  133.6104  156.5657 H   0  0  0  0  0  0  0  0  0  0  0  0
  146.8709  136.1092  157.0772 H   0  0  0  0  0  0  0  0  0  0  0  0
  147.3424  137.3568  163.6034 H   0  0  0  0  0  0  0  0  0  0  0  0
  147.3652  134.6675  163.7811 H   0  0  0  0  0  0  0  0  0  0  0  0
  145.8123  135.7860  154.9062 H   0  0  0  0  0  0  0  0  0  0  0  0
  146.7712  137.1620  154.4104 H   0  0  0  0  0  0  0  0  0  0  0  0
  144.6143  136.8577  153.1411 H   0  0  0  0  0  0  0  0  0  0  0  0
  146.3552  138.2289  152.1071 H   0  0  0  0  0  0  0  0  0  0  0  0
  145.5153  137.3000  150.8724 H   0  0  0  0  0  0  0  0  0  0  0  0
  147.1273  136.8211  151.3997 H   0  0  0  0  0  0  0  0  0  0  0  0
  148.0929  135.6677  153.0791 H   0  0  0  0  0  0  0  0  0  0  0  0
  1  2  1  0  0  0  0
  1 20  1  0  0  0  0
  1 21  1  0  0  0  0
  1 22  1  0  0  0  0
  2 19  1  0  0  0  0
  2  3  1  0  0  0  0
  2 23  1  0  0  0  0
  3  4  1  0  0  0  0
  3 24  1  0  0  0  0
  3 25  1  0  0  0  0
  4  5  1  0  0  0  0
  4 16  1  0  0  0  0
  4 39  1  0  0  0  0
  5  6  1  0  0  0  0
  5 26  1  0  0  0  0
  5 27  1  0  0  0  0
  6  7  1  0  0  0  0
  6 28  1  0  0  0  0
  6 29  1  0  0  0  0
  7  8  1  0  0  0  0
  7 30  1  0  0  0  0
  8  9  2  0  0  0  0
  8 10  1  0  0  0  0
 10 11  1  0  0  0  0
 11 15  1  0  0  0  0
 11 12  2  0  0  0  0
 12 13  1  0  0  0  0
 13 14  2  0  0  0  0
 13 31  1  0  0  0  0
 14 15  1  0  0  0  0
 14 32  1  0  0  0  0
 16 17  1  0  0  0  0
 16 33  1  0  0  0  0
 16 34  1  0  0  0  0
 17 18  1  0  0  0  0
 17 19  1  0  0  0  0
 17 35  1  0  0  0  0
 18 36  1  0  0  0  0
 18 37  1  0  0  0  0
 18 38  1  0  0  0  0
M  CHG  1   4   1
M  CHG  1  10  -1
M  END
> <s_m_source_file>
AV-unprocessed.smi

> <i_m_source_file_index>
1815

> <i_lp_mmshare_version>
43012

> <i_f3d_flags>
0

> <s_epik_input>
W0NIM11bQ0BASF0xW0NIMl1OKFtDSDJdW0NASF0oTzEpW0NIM10pW0NIMl1bQ0gyXVtOSF1DKD1PKVtOSF1jMm5bY0hdW2NIXXMy

> <s_epik_cmdline>
J2VwaWtfcHl0aG9uJywgJy1waCcsICc3LjAnLCAnLXRuJywgJzgnLCAnLW1hJywgJzIwMCcsICctbWV0YWxfYmluZGluZycsICctaW1hZScsICc8aW5maWxlLm1hZT4nLCAnLW9tYWUnLCAnPG91dGZpbGUubWFlPic=

> <r_lp_tautomer_probability>
0.999

> <r_epik_Ionization_Penalty>
6.71699

> <r_epik_Ionization_Penalty_Charging>
5.88592

> <r_epik_Ionization_Penalty_Neutral>
0.831074

> <r_epik_State_Penalty>
6.08365

> <r_epik_Charging_Adjusted_Penalty>
11.9696

> <i_epik_Tot_Q>
0

> <i_epik_Tot_abs_Q>
2

> <r_epik_Metal_State_Penalty>
2.0947

> <b_epik_Metal_Only>
1

> <s_lp_Force_Field>
OPLS_2005

> <r_lp_Energy>
8.1919

> <b_lp_Chiralities_Consistent>
1

> <s_lp_Variant>
AV-unprocessed.smi:1815-11

> <Gold.Version>
5.8.1

> <Gold.Id.Protein>
6NUR|6NUR_protein|mol2

> <Gold.PLP.Fitness>
39.5064

> <Gold.PLP.PLP>
-27.1695

> <Gold.PLP.part.hbond>
-4.0000

> <Gold.PLP.part.metal>
0.0000

> <Gold.PLP.part.buried>
-2.0657

> <Gold.PLP.part.nonpolar>
-21.9945

> <Gold.PLP.part.repulsive>
0.0897

> <Gold.PLP.ligand.clash>
0.0000

> <Gold.PLP.ligand.torsion>
0.7012

> <Gold.PLP.Chemscore.Hbond>
4.5744

> <Gold.PLP.Chemscore.CHOScore>
0.0000

> <Gold.PLP.Chemscore.Metal>
0.0000

> <Gold.Chemscore.Hbonds>
donor molecule, donor type, donor heavy atom, donor atom, acceptor molecule, acceptor atom, score
      L1  H     4    39       P1  7948  2.00
      P1  H  6896  6909       L1     9  1.00
      P1  H  6931  6943       L1    12  0.64
      P1  H  6934  6947       L1    12  0.86

> <Gold.PLP.Chemscore.Internal.Correction>
0.0160

> <Gold.Rescore>
     Score         DG    S(hbond)    S(metal)    S(lipo)     H(rot)  DE(clash)    DE(int)     intcor
     16.19     -18.06       2.87        0.00      60.71       1.61       0.03       1.85       ----

> <Gold.Chemscore.Fitness>
16.1907

> <Gold.Chemscore.DG>
-18.0646

> <Gold.Chemscore.ZeroCoef>
-5.4800

> <Gold.Chemscore.Hbond>
2.8722

> <Gold.Chemscore.Metal>
0.0000

> <Gold.Chemscore.Lipo>
60.7061

> <Gold.Chemscore.Internal_Hbond>
0.0000

> <Gold.Chemscore.DEClash>
0.0284

> <Gold.Chemscore.DEInternal>
1.8455

> <Gold.Chemscore.Rot>
1.6060

> <Gold.Chemscore.Internal.Correction>
   9.000000E+99

> <Gold.Chemscore.Hbonds>
donor molecule, donor type, donor heavy atom, donor atom, acceptor molecule, acceptor atom, score
      L1  H     4    39       P1  7948  0.98
      P1  H  6896  6909       L1     9  0.96
      P1  H  6931  6943       L1    12  0.05
      P1  H  6934  6947       L1    12  0.79

> <Gold.Chemscore.Hbond.Weighted>
-9.5932

> <Gold.Chemscore.Metal.Weighted>
-0.0000

> <Gold.Chemscore.Lipo.Weighted>
-7.1026

> <Gold.Chemscore.Internal_Hbond.Weighted>
0.0000

> <Gold.Chemscore.DEClash.Weighted>
0.0284

> <Gold.Chemscore.DEInternal.Weighted>
1.8455

> <Gold.Chemscore.Rot.Weighted>
4.1112

> <Gold.Chemscore.Internal.Correction.Weighted>
   9.000000E+99

> <Gold.Protein.RotatedTorsions>
[ 6907 6896 6895 6894 ] final   12.01 input  -60.11 | X-H torsion
[ 7974 7965 7964 7962 ] final -109.22 input  175.53 | X-H torsion
[ 8008 7997 7996 7995 ] final  148.64 input   59.86 | X-H torsion
[ 10167 10162 10161 10158 ] final   75.53 input  -65.29 | X-H torsion
[ 10718 10713 10712 10709 ] final  110.12 input   66.30 | X-H torsion
[ 10763 10752 10751 10750 ] final -179.98 input  -60.55 | X-H torsion
[ 11005 11000 10999 10996 ] final -177.66 input  -57.11 | X-H torsion

> <Gold.Protein.ActiveResidues>
 VAL166  LYS551  ARG553  GLY616  TRP617  ASP618  TYR619  PRO620  LYS621  CYS622 
 ASP623  PHE694  ASN695  SER759  ASP760  ASP761  ALA762  ILE779  LEU786  VAL792 
 PHE793  MET794  SER795  GLU796  ALA797  LYS798  CYS799  TRP800  GLU811  SER814 

> <Gold.Protein.RotatedAtoms>
  151.7635  135.0804  160.0348 H   0  0  0  0  0  0  0  0  0  0  0  0  # atno 6907 bound_to 6896
  152.3337  133.5983  159.5836 H   0  0  0  0  0  0  0  0  0  0  0  0  # atno 6908 bound_to 6896
  150.7437  133.9745  159.3598 H   0  0  0  0  0  0  0  0  0  0  0  0  # atno 6909 bound_to 6896
  145.1832  140.8980  143.3468 H   0  0  0  0  0  0  0  0  0  0  0  0  # atno 7974 bound_to 7965
  156.2784  140.2123  156.5731 H   0  0  0  0  0  0  0  0  0  0  0  0  # atno 8008 bound_to 7997
  154.7120  140.0511  157.0581 H   0  0  0  0  0  0  0  0  0  0  0  0  # atno 8009 bound_to 7997
  155.0593  140.3165  155.4669 H   0  0  0  0  0  0  0  0  0  0  0  0  # atno 8010 bound_to 7997
  140.0020  144.5679  150.7730 H   0  0  0  0  0  0  0  0  0  0  0  0  # atno 10167 bound_to 10162
  157.6509  131.0927  150.6555 H   0  0  0  0  0  0  0  0  0  0  0  0  # atno 10718 bound_to 10713
  154.5282  135.2798  155.1203 H   0  0  0  0  0  0  0  0  0  0  0  0  # atno 10763 bound_to 10752
  154.2734  135.6299  153.5322 H   0  0  0  0  0  0  0  0  0  0  0  0  # atno 10764 bound_to 10752
  152.9951  135.5634  154.5788 H   0  0  0  0  0  0  0  0  0  0  0  0  # atno 10765 bound_to 10752
  140.4384  134.6454  157.4746 H   0  0  0  0  0  0  0  0  0  0  0  0  # atno 11005 bound_to 11000
  145.0115  139.3505  143.6117 LP  0  0  0  0  0  0  0  0  0  0  0  0  # atno 17320 bound_to 7965
  146.3449  139.9380  142.8745 LP  0  0  0  0  0  0  0  0  0  0  0  0  # atno 17321 bound_to 7965
  140.7415  143.2819  151.3574 LP  0  0  0  0  0  0  0  0  0  0  0  0  # atno 17342 bound_to 10162
  139.6265  144.0803  152.2439 LP  0  0  0  0  0  0  0  0  0  0  0  0  # atno 17343 bound_to 10162
  156.6867  130.4583  149.5612 LP  0  0  0  0  0  0  0  0  0  0  0  0  # atno 17370 bound_to 10713
  156.1891  130.6548  151.1040 LP  0  0  0  0  0  0  0  0  0  0  0  0  # atno 17371 bound_to 10713
  140.0086  134.6725  155.9416 LP  0  0  0  0  0  0  0  0  0  0  0  0  # atno 17394 bound_to 11000
  141.1716  133.6537  156.4672 LP  0  0  0  0  0  0  0  0  0  0  0  0  # atno 17395 bound_to 11000

$$$$
