AV-unprocessed.smi:347|AV-procd|sdf|2394|dock3
  -GOLD-   2262022323D 1   1.00000     0.00000
 Structure written by MMmdl.
 45 46  0  0  0  0  0  0  0  0  2 V2000
  150.8838  140.4479  155.6811 C   0  0  0  0  0  0  0  0  0  0  0  0
  149.7953  139.4767  155.3764 C   0  0  0  0  0  0  0  0  0  0  0  0
  149.4954  138.7336  154.2695 C   0  0  0  0  0  0  0  0  0  0  0  0
  148.3274  138.0287  154.6644 C   0  0  0  0  0  0  0  0  0  0  0  0
  147.6893  137.1241  153.7782 N   0  0  0  0  0  0  0  0  0  0  0  0
  146.5214  137.2944  153.1359 C   0  0  0  0  0  0  0  0  0  0  0  0
  145.8203  138.3048  153.1909 O   0  0  0  0  0  0  0  0  0  0  0  0
  146.2004  136.2091  152.4167 N   0  0  0  0  0  0  0  0  0  0  0  0
  144.9930  136.0485  151.6090 C   0  0  0  0  0  0  0  0  0  0  0  0
  143.6850  136.2642  152.3950 C   0  0  0  0  0  0  0  0  0  0  0  0
  143.2745  135.0951  153.3252 C   0  0  0  0  0  0  0  0  0  0  0  0
  144.0633  135.0963  154.6534 C   0  0  0  0  0  0  0  0  0  0  0  0
  141.7903  135.2827  153.6964 C   0  0  0  0  0  0  0  0  0  0  0  0
  143.3801  133.7841  152.6242 N   0  3  0  0  0  0  0  0  0  0  0  0
  144.5723  133.4811  151.7822 C   0  0  0  0  0  0  0  0  0  0  0  0
  145.7572  132.9778  152.6365 C   0  0  0  0  0  0  0  0  0  0  0  0
  144.1739  132.3162  150.8549 C   0  0  0  0  0  0  0  0  0  0  0  0
  144.9586  134.6902  150.8903 C   0  0  0  0  0  0  0  0  0  0  0  0
  147.9486  138.3145  155.9005 N   0  0  0  0  0  0  0  0  0  0  0  0
  148.8868  139.2450  156.3628 O   0  0  0  0  0  0  0  0  0  0  0  0
  151.7234  140.3177  154.9982 H   0  0  0  0  0  0  0  0  0  0  0  0
  151.2522  140.3133  156.6982 H   0  0  0  0  0  0  0  0  0  0  0  0
  150.5243  141.4724  155.5839 H   0  0  0  0  0  0  0  0  0  0  0  0
  150.0283  138.7023  153.3309 H   0  0  0  0  0  0  0  0  0  0  0  0
  148.1676  136.2481  153.6296 H   0  0  0  0  0  0  0  0  0  0  0  0
  146.8452  135.4321  152.4258 H   0  0  0  0  0  0  0  0  0  0  0  0
  145.0451  136.8164  150.8345 H   0  0  0  0  0  0  0  0  0  0  0  0
  143.7185  137.1993  152.9555 H   0  0  0  0  0  0  0  0  0  0  0  0
  142.8959  136.4086  151.6551 H   0  0  0  0  0  0  0  0  0  0  0  0
  143.8496  135.9978  155.2289 H   0  0  0  0  0  0  0  0  0  0  0  0
  145.1402  135.0724  154.5250 H   0  0  0  0  0  0  0  0  0  0  0  0
  143.7907  134.2439  155.2765 H   0  0  0  0  0  0  0  0  0  0  0  0
  141.6232  136.2360  154.1997 H   0  0  0  0  0  0  0  0  0  0  0  0
  141.4423  134.4949  154.3662 H   0  0  0  0  0  0  0  0  0  0  0  0
  141.1491  135.2642  152.8142 H   0  0  0  0  0  0  0  0  0  0  0  0
  143.2550  133.0410  153.2968 H   0  0  0  0  0  0  0  0  0  0  0  0
  146.5633  132.6091  152.0012 H   0  0  0  0  0  0  0  0  0  0  0  0
  145.4557  132.1541  153.2846 H   0  0  0  0  0  0  0  0  0  0  0  0
  146.1986  133.7410  153.2686 H   0  0  0  0  0  0  0  0  0  0  0  0
  144.9883  132.0456  150.1815 H   0  0  0  0  0  0  0  0  0  0  0  0
  143.3122  132.5719  150.2366 H   0  0  0  0  0  0  0  0  0  0  0  0
  143.9099  131.4238  151.4242 H   0  0  0  0  0  0  0  0  0  0  0  0
  144.2234  134.7767  150.0885 H   0  0  0  0  0  0  0  0  0  0  0  0
  145.9094  134.5047  150.3880 H   0  0  0  0  0  0  0  0  0  0  0  0
  142.5936  133.7574  151.9912 H   0  0  0  0  0  0  0  0  0  0  0  0
  1  2  1  0  0  0  0
  1 21  1  0  0  0  0
  1 22  1  0  0  0  0
  1 23  1  0  0  0  0
  2 20  1  0  0  0  0
  2  3  2  0  0  0  0
  3  4  1  0  0  0  0
  3 24  1  0  0  0  0
  4  5  1  0  0  0  0
  4 19  2  0  0  0  0
  5  6  1  0  0  0  0
  5 25  1  0  0  0  0
  6  7  2  0  0  0  0
  6  8  1  0  0  0  0
  8  9  1  0  0  0  0
  8 26  1  0  0  0  0
  9 18  1  0  0  0  0
  9 10  1  0  0  0  0
  9 27  1  0  0  0  0
 10 11  1  0  0  0  0
 10 28  1  0  0  0  0
 10 29  1  0  0  0  0
 11 12  1  0  0  0  0
 11 13  1  0  0  0  0
 11 14  1  0  0  0  0
 12 30  1  0  0  0  0
 12 31  1  0  0  0  0
 12 32  1  0  0  0  0
 13 33  1  0  0  0  0
 13 34  1  0  0  0  0
 13 35  1  0  0  0  0
 14 15  1  0  0  0  0
 14 36  1  0  0  0  0
 14 45  1  0  0  0  0
 15 16  1  0  0  0  0
 15 17  1  0  0  0  0
 15 18  1  0  0  0  0
 16 37  1  0  0  0  0
 16 38  1  0  0  0  0
 16 39  1  0  0  0  0
 17 40  1  0  0  0  0
 17 41  1  0  0  0  0
 17 42  1  0  0  0  0
 18 43  1  0  0  0  0
 18 44  1  0  0  0  0
 19 20  1  0  0  0  0
M  CHG  1  14   1
M  END
> <s_m_source_file>
AV-unprocessed.smi

> <i_m_source_file_index>
347

> <i_lp_mmshare_version>
43012

> <i_f3d_flags>
0

> <s_epik_input>
W0NIM11jMVtjSF1jKG5vMSlbTkhdQyg9TylbTkhdW0NIXShbQ0gyXUMyKFtDSDNdKVtDSDNdKVtDSDJdQyhbTkhdMikoW0NIM10pW0NIM10=

> <s_epik_cmdline>
J2VwaWtfcHl0aG9uJywgJy1waCcsICc3LjAnLCAnLXRuJywgJzgnLCAnLW1hJywgJzIwMCcsICctbWV0YWxfYmluZGluZycsICctaW1hZScsICc8aW5maWxlLm1hZT4nLCAnLW9tYWUnLCAnPG91dGZpbGUubWFlPic=

> <r_lp_tautomer_probability>
1

> <r_epik_Ionization_Penalty>
0.000125139

> <r_epik_Ionization_Penalty_Charging>
0.000103024

> <r_epik_Ionization_Penalty_Neutral>
2.21147e-05

> <r_epik_State_Penalty>
-0

> <r_epik_Charging_Adjusted_Penalty>
0.000103024

> <i_epik_Tot_Q>
1

> <i_epik_Tot_abs_Q>
1

> <r_epik_Metal_State_Penalty>
-0

> <b_epik_Metal_Only>
0

> <s_lp_Force_Field>
OPLS_2005

> <r_lp_Energy>
23.9758

> <b_lp_Chiralities_Consistent>
1

> <s_lp_Variant>
AV-unprocessed.smi:347-1

> <Gold.Version>
5.8.1

> <Gold.Id.Protein>
6NUR|6NUR_protein|mol2

> <Gold.PLP.Fitness>
33.2370

> <Gold.PLP.PLP>
-27.8642

> <Gold.PLP.part.hbond>
-2.7646

> <Gold.PLP.part.metal>
0.0000

> <Gold.PLP.part.buried>
-3.6892

> <Gold.PLP.part.nonpolar>
-22.6568

> <Gold.PLP.part.repulsive>
0.3035

> <Gold.PLP.ligand.clash>
0.0000

> <Gold.PLP.ligand.torsion>
0.6932

> <Gold.PLP.Chemscore.Hbond>
2.2477

> <Gold.PLP.Chemscore.CHOScore>
0.0000

> <Gold.PLP.Chemscore.Metal>
0.0000

> <Gold.Chemscore.Hbonds>
donor molecule, donor type, donor heavy atom, donor atom, acceptor molecule, acceptor atom, score
      L1  H     5    25       P1  7948  0.21
      L1  H     8    26       P1  7948  0.06
      L1  H    14    36       P1 10957  1.98

> <Gold.PLP.Chemscore.Internal.Correction>
0.0162

> <Gold.Rescore>
     Score         DG    S(hbond)    S(metal)    S(lipo)     H(rot)  DE(clash)    DE(int)     intcor
     15.70     -18.22       2.60        0.00      56.47       1.00       0.13       2.39       ----

> <Gold.Chemscore.Fitness>
15.7013

> <Gold.Chemscore.DG>
-18.2223

> <Gold.Chemscore.ZeroCoef>
-5.4800

> <Gold.Chemscore.Hbond>
2.6032

> <Gold.Chemscore.Metal>
0.0000

> <Gold.Chemscore.Lipo>
56.4748

> <Gold.Chemscore.Internal_Hbond>
0.0000

> <Gold.Chemscore.DEClash>
0.1334

> <Gold.Chemscore.DEInternal>
2.3876

> <Gold.Chemscore.Rot>
1.0000

> <Gold.Chemscore.Internal.Correction>
   9.000000E+99

> <Gold.Chemscore.Hbonds>
donor molecule, donor type, donor heavy atom, donor atom, acceptor molecule, acceptor atom, score
      L1  H     5    25       P1  7948  0.20
      L1  H     8    26       P1  7948  0.06
      L1  H    14    36       P1 10957  0.72

> <Gold.Chemscore.Hbond.Weighted>
-8.6947

> <Gold.Chemscore.Metal.Weighted>
-0.0000

> <Gold.Chemscore.Lipo.Weighted>
-6.6075

> <Gold.Chemscore.Internal_Hbond.Weighted>
0.0000

> <Gold.Chemscore.DEClash.Weighted>
0.1334

> <Gold.Chemscore.DEInternal.Weighted>
2.3876

> <Gold.Chemscore.Rot.Weighted>
2.5600

> <Gold.Chemscore.Internal.Correction.Weighted>
   9.000000E+99

> <Gold.Protein.RotatedTorsions>
[ 6907 6896 6895 6894 ] final    8.85 input  -60.11 | X-H torsion
[ 7974 7965 7964 7962 ] final -148.80 input  175.53 | X-H torsion
[ 8008 7997 7996 7995 ] final  -42.21 input   59.86 | X-H torsion
[ 10167 10162 10161 10158 ] final    1.49 input  -65.29 | X-H torsion
[ 10718 10713 10712 10709 ] final  -65.03 input   66.30 | X-H torsion
[ 10763 10752 10751 10750 ] final   23.14 input  -60.55 | X-H torsion
[ 11005 11000 10999 10996 ] final   57.54 input  -57.11 | X-H torsion

> <Gold.Protein.ActiveResidues>
 VAL166  LYS551  ARG553  GLY616  TRP617  ASP618  TYR619  PRO620  LYS621  CYS622 
 ASP623  PHE694  ASN695  SER759  ASP760  ASP761  ALA762  ILE779  LEU786  VAL792 
 PHE793  MET794  SER795  GLU796  ALA797  LYS798  CYS799  TRP800  GLU811  SER814 

> <Gold.Protein.RotatedAtoms>
  151.7127  135.0909  160.0270 H   0  0  0  0  0  0  0  0  0  0  0  0  # atno 6907 bound_to 6896
  152.3652  133.6343  159.6053 H   0  0  0  0  0  0  0  0  0  0  0  0  # atno 6908 bound_to 6896
  150.7632  133.9276  159.3458 H   0  0  0  0  0  0  0  0  0  0  0  0  # atno 6909 bound_to 6896
  144.8006  140.5148  143.5709 H   0  0  0  0  0  0  0  0  0  0  0  0  # atno 7974 bound_to 7965
  154.4000  140.1479  156.3318 H   0  0  0  0  0  0  0  0  0  0  0  0  # atno 8008 bound_to 7997
  155.8436  140.3461  155.5627 H   0  0  0  0  0  0  0  0  0  0  0  0  # atno 8009 bound_to 7997
  155.8060  140.0877  157.1921 H   0  0  0  0  0  0  0  0  0  0  0  0  # atno 8010 bound_to 7997
  140.6680  143.7126  150.7866 H   0  0  0  0  0  0  0  0  0  0  0  0  # atno 10167 bound_to 10162
  156.0694  130.4241  150.1505 H   0  0  0  0  0  0  0  0  0  0  0  0  # atno 10718 bound_to 10713
  153.0861  135.6633  153.9947 H   0  0  0  0  0  0  0  0  0  0  0  0  # atno 10763 bound_to 10752
  153.9556  135.2979  155.3438 H   0  0  0  0  0  0  0  0  0  0  0  0  # atno 10764 bound_to 10752
  154.7269  135.5140  153.8973 H   0  0  0  0  0  0  0  0  0  0  0  0  # atno 10765 bound_to 10752
  140.0445  134.5826  155.9340 H   0  0  0  0  0  0  0  0  0  0  0  0  # atno 11005 bound_to 11000
  145.5561  139.1478  143.3367 LP  0  0  0  0  0  0  0  0  0  0  0  0  # atno 17320 bound_to 7965
  146.2287  140.5699  142.8985 LP  0  0  0  0  0  0  0  0  0  0  0  0  # atno 17321 bound_to 7965
  140.0806  143.4972  152.2532 LP  0  0  0  0  0  0  0  0  0  0  0  0  # atno 17342 bound_to 10162
  139.5937  144.7559  151.3339 LP  0  0  0  0  0  0  0  0  0  0  0  0  # atno 17343 bound_to 10162
  156.9559  130.9789  151.3489 LP  0  0  0  0  0  0  0  0  0  0  0  0  # atno 17370 bound_to 10713
  157.5755  130.8340  149.8450 LP  0  0  0  0  0  0  0  0  0  0  0  0  # atno 17371 bound_to 10713
  141.1900  133.6567  156.5392 LP  0  0  0  0  0  0  0  0  0  0  0  0  # atno 17394 bound_to 11000
  140.4016  134.7352  157.4783 LP  0  0  0  0  0  0  0  0  0  0  0  0  # atno 17395 bound_to 11000

$$$$
