AV-unprocessed.smi:769|AV-procd|sdf|3675|dock3
  -GOLD-   22720 1 83D 1   1.00000     0.00000
 Structure written by MMmdl.
 50 52  0  0  0  0  0  0  0  0  2 V2000
  146.5310  133.4286  153.8333 O   0  0  0  0  0  0  0  0  0  0  0  0
  147.4745  133.5073  153.0469 C   0  0  0  0  0  0  0  0  0  0  0  0
  148.7236  133.8095  153.4300 N   0  0  0  0  0  0  0  0  0  0  0  0
  149.1347  134.0562  154.8075 C   0  0  0  0  0  0  0  0  0  0  0  0
  148.5999  135.4052  155.3274 C   0  0  0  0  0  0  0  0  0  0  0  0
  149.2931  136.5665  154.7158 N   0  3  0  0  0  0  0  0  0  0  0  0
  148.5934  137.8490  155.0013 C   0  0  0  0  0  0  0  0  0  0  0  0
  149.3216  139.0479  154.3657 C   0  0  0  0  0  0  0  0  0  0  0  0
  150.7117  139.0574  154.8296 N   0  0  0  0  0  0  0  0  0  0  0  0
  151.2105  140.0206  155.6426 C   0  0  0  0  0  0  0  0  0  0  0  0
  152.3519  139.9588  156.1010 O   0  0  0  0  0  0  0  0  0  0  0  0
  150.3374  141.2526  155.9652 C   0  0  0  0  0  0  0  0  0  0  0  0
  150.8799  142.2192  157.0370 C   0  0  0  0  0  0  0  0  0  0  0  0
  149.9150  141.6058  158.0561 C   0  0  0  0  0  0  0  0  0  0  0  0
  149.1526  140.9525  156.8991 C   0  0  0  0  0  0  0  0  0  0  0  0
  151.4185  137.8492  154.3950 C   0  0  0  0  0  0  0  0  0  0  0  0
  150.7477  136.6208  155.0359 C   0  0  0  0  0  0  0  0  0  0  0  0
  147.4037  133.3265  151.7164 N   0  0  0  0  0  0  0  0  0  0  0  0
  146.2771  132.9903  150.9161 C   0  0  0  0  0  0  0  0  0  0  0  0
  145.0099  133.4190  151.3626 C   0  0  0  0  0  0  0  0  0  0  0  0
  143.8750  133.1134  150.5851 C   0  0  0  0  0  0  0  0  0  0  0  0
  143.9347  132.4325  149.4218 N   0  0  0  0  0  0  0  0  0  0  0  0
  145.1491  132.0333  148.9888 C   0  0  0  0  0  0  0  0  0  0  0  0
  146.3459  132.2868  149.6889 C   0  0  0  0  0  0  0  0  0  0  0  0
  149.4418  133.8572  152.7215 H   0  0  0  0  0  0  0  0  0  0  0  0
  148.8004  133.2252  155.4292 H   0  0  0  0  0  0  0  0  0  0  0  0
  150.2244  134.0505  154.8417 H   0  0  0  0  0  0  0  0  0  0  0  0
  147.5360  135.4596  155.0914 H   0  0  0  0  0  0  0  0  0  0  0  0
  148.6764  135.4691  156.4140 H   0  0  0  0  0  0  0  0  0  0  0  0
  147.5716  137.8016  154.6227 H   0  0  0  0  0  0  0  0  0  0  0  0
  148.5259  137.9897  156.0816 H   0  0  0  0  0  0  0  0  0  0  0  0
  149.3052  138.9653  153.2780 H   0  0  0  0  0  0  0  0  0  0  0  0
  148.7862  139.9687  154.6007 H   0  0  0  0  0  0  0  0  0  0  0  0
  150.0525  141.7979  155.0647 H   0  0  0  0  0  0  0  0  0  0  0  0
  151.9317  142.1125  157.3046 H   0  0  0  0  0  0  0  0  0  0  0  0
  150.6440  143.2599  156.8107 H   0  0  0  0  0  0  0  0  0  0  0  0
  150.3990  140.8756  158.7059 H   0  0  0  0  0  0  0  0  0  0  0  0
  149.3367  142.3337  158.6258 H   0  0  0  0  0  0  0  0  0  0  0  0
  148.2517  141.4999  156.6188 H   0  0  0  0  0  0  0  0  0  0  0  0
  148.9387  139.8944  157.0573 H   0  0  0  0  0  0  0  0  0  0  0  0
  151.3594  137.7770  153.3079 H   0  0  0  0  0  0  0  0  0  0  0  0
  152.4834  137.8558  154.6216 H   0  0  0  0  0  0  0  0  0  0  0  0
  150.8806  136.6529  156.1186 H   0  0  0  0  0  0  0  0  0  0  0  0
  151.2477  135.7201  154.6824 H   0  0  0  0  0  0  0  0  0  0  0  0
  148.2575  133.4904  151.2035 H   0  0  0  0  0  0  0  0  0  0  0  0
  144.9025  133.9691  152.2861 H   0  0  0  0  0  0  0  0  0  0  0  0
  142.8928  133.4262  150.9069 H   0  0  0  0  0  0  0  0  0  0  0  0
  145.1694  131.4986  148.0506 H   0  0  0  0  0  0  0  0  0  0  0  0
  147.2782  131.9485  149.2650 H   0  0  0  0  0  0  0  0  0  0  0  0
  149.2275  136.4416  153.7158 H   0  0  0  0  0  0  0  0  0  0  0  0
  1  2  2  0  0  0  0
  2  3  1  0  0  0  0
  2 18  1  0  0  0  0
  3  4  1  0  0  0  0
  3 25  1  0  0  0  0
  4  5  1  0  0  0  0
  4 26  1  0  0  0  0
  4 27  1  0  0  0  0
  5  6  1  0  0  0  0
  5 28  1  0  0  0  0
  5 29  1  0  0  0  0
  6 17  1  0  0  0  0
  6  7  1  0  0  0  0
  6 50  1  0  0  0  0
  7  8  1  0  0  0  0
  7 30  1  0  0  0  0
  7 31  1  0  0  0  0
  8  9  1  0  0  0  0
  8 32  1  0  0  0  0
  8 33  1  0  0  0  0
  9 10  1  0  0  0  0
  9 16  1  0  0  0  0
 10 11  2  0  0  0  0
 10 12  1  0  0  0  0
 12 15  1  0  0  0  0
 12 13  1  0  0  0  0
 12 34  1  0  0  0  0
 13 14  1  0  0  0  0
 13 35  1  0  0  0  0
 13 36  1  0  0  0  0
 14 15  1  0  0  0  0
 14 37  1  0  0  0  0
 14 38  1  0  0  0  0
 15 39  1  0  0  0  0
 15 40  1  0  0  0  0
 16 17  1  0  0  0  0
 16 41  1  0  0  0  0
 16 42  1  0  0  0  0
 17 43  1  0  0  0  0
 17 44  1  0  0  0  0
 18 19  1  0  0  0  0
 18 45  1  0  0  0  0
 19 24  1  0  0  0  0
 19 20  2  0  0  0  0
 20 21  1  0  0  0  0
 20 46  1  0  0  0  0
 21 22  2  0  0  0  0
 21 47  1  0  0  0  0
 22 23  1  0  0  0  0
 23 24  2  0  0  0  0
 23 48  1  0  0  0  0
 24 49  1  0  0  0  0
M  CHG  1   6   1
M  END
> <s_m_source_file>
AV-unprocessed.smi

> <i_m_source_file_index>
769

> <i_lp_mmshare_version>
43012

> <i_f3d_flags>
0

> <s_epik_input>
W2NIXTFbY0hdbltjSF1bY0hdYzFbTkhdQyg9TylbTkhdW0NIMl1bQ0gyXU4yW0NIMl1bQ0gyXU4oW0NIMl1bQ0gyXTIpQyg9TylbQ0hdM1tDSDJdW0NIMl1bQ0gyXTM=

> <s_epik_cmdline>
J2VwaWtfcHl0aG9uJywgJy1waCcsICc3LjAnLCAnLXRuJywgJzgnLCAnLW1hJywgJzIwMCcsICctbWV0YWxfYmluZGluZycsICctaW1hZScsICc8aW5maWxlLm1hZT4nLCAnLW9tYWUnLCAnPG91dGZpbGUubWFlPic=

> <r_epik_Ionization_Penalty>
0.680309

> <r_epik_Ionization_Penalty_Charging>
0.581996

> <r_epik_Ionization_Penalty_Neutral>
0.0983131

> <r_epik_State_Penalty>
0.686881

> <r_epik_Charging_Adjusted_Penalty>
1.26888

> <i_epik_Tot_Q>
1

> <i_epik_Tot_abs_Q>
1

> <r_epik_Metal_State_Penalty>
0.68612

> <b_epik_Metal_Only>
0

> <s_lp_Force_Field>
OPLS_2005

> <r_lp_Energy>
56.1037

> <b_lp_Chiralities_Consistent>
1

> <s_lp_Variant>
AV-unprocessed.smi:769-2

> <Gold.Version>
5.8.1

> <Gold.Id.Protein>
6NUR|6NUR_protein|mol2

> <Gold.PLP.Fitness>
54.0801

> <Gold.PLP.PLP>
-42.9364

> <Gold.PLP.part.hbond>
-3.4080

> <Gold.PLP.part.metal>
0.0000

> <Gold.PLP.part.buried>
-3.0091

> <Gold.PLP.part.nonpolar>
-35.7903

> <Gold.PLP.part.repulsive>
0.3769

> <Gold.PLP.ligand.clash>
0.0000

> <Gold.PLP.ligand.torsion>
0.4947

> <Gold.PLP.Chemscore.Hbond>
3.0000

> <Gold.PLP.Chemscore.CHOScore>
0.9025

> <Gold.PLP.Chemscore.Metal>
0.0000

> <Gold.Chemscore.Hbonds>
donor molecule, donor type, donor heavy atom, donor atom, acceptor molecule, acceptor atom, score
      L1  H     6    50       P1  7948  2.00
      P1  H  7997  8008       L1    11  1.00
      L1  C    21    47       P1 10186  1.00

> <Gold.PLP.Chemscore.Internal.Correction>
0.4256

> <Gold.Rescore>
     Score         DG    S(hbond)    S(metal)    S(lipo)     H(rot)  DE(clash)    DE(int)     intcor
     17.64     -19.79       1.95        0.00     104.16       1.72       0.21       1.95       ----

> <Gold.Chemscore.Fitness>
17.6375

> <Gold.Chemscore.DG>
-19.7905

> <Gold.Chemscore.ZeroCoef>
-5.4800

> <Gold.Chemscore.Hbond>
1.9538

> <Gold.Chemscore.Metal>
0.0000

> <Gold.Chemscore.Lipo>
104.1602

> <Gold.Chemscore.Internal_Hbond>
0.0000

> <Gold.Chemscore.DEClash>
0.2075

> <Gold.Chemscore.DEInternal>
1.9455

> <Gold.Chemscore.Rot>
1.7195

> <Gold.Chemscore.Internal.Correction>
   9.000000E+99

> <Gold.Chemscore.Hbonds>
donor molecule, donor type, donor heavy atom, donor atom, acceptor molecule, acceptor atom, score
      L1  H     6    50       P1  7948  0.94
      P1  H  7997  8008       L1    11  0.94

> <Gold.Chemscore.Hbond.Weighted>
-6.5257

> <Gold.Chemscore.Metal.Weighted>
-0.0000

> <Gold.Chemscore.Lipo.Weighted>
-12.1867

> <Gold.Chemscore.Internal_Hbond.Weighted>
0.0000

> <Gold.Chemscore.DEClash.Weighted>
0.2075

> <Gold.Chemscore.DEInternal.Weighted>
1.9455

> <Gold.Chemscore.Rot.Weighted>
4.4020

> <Gold.Chemscore.Internal.Correction.Weighted>
   9.000000E+99

> <Gold.Protein.RotatedTorsions>
[ 6907 6896 6895 6894 ] final   34.40 input  -60.11 | X-H torsion
[ 7974 7965 7964 7962 ] final  179.28 input  175.53 | X-H torsion
[ 8008 7997 7996 7995 ] final  -48.73 input   59.86 | X-H torsion
[ 10167 10162 10161 10158 ] final -160.58 input  -65.29 | X-H torsion
[ 10718 10713 10712 10709 ] final    2.99 input   66.30 | X-H torsion
[ 10763 10752 10751 10750 ] final  111.74 input  -60.55 | X-H torsion
[ 11005 11000 10999 10996 ] final  -51.95 input  -57.11 | X-H torsion

> <Gold.Protein.ActiveResidues>
 VAL166  LYS551  ARG553  GLY616  TRP617  ASP618  TYR619  PRO620  LYS621  CYS622 
 ASP623  PHE694  ASN695  SER759  ASP760  ASP761  ALA762  ILE779  LEU786  VAL792 
 PHE793  MET794  SER795  GLU796  ALA797  LYS798  CYS799  TRP800  GLU811  SER814 

> <Gold.Protein.RotatedAtoms>
  152.1019  134.9336  160.0569 H   0  0  0  0  0  0  0  0  0  0  0  0  # atno 6907 bound_to 6896
  152.0547  133.4030  159.4400 H   0  0  0  0  0  0  0  0  0  0  0  0  # atno 6908 bound_to 6896
  150.6840  134.3189  159.4821 H   0  0  0  0  0  0  0  0  0  0  0  0  # atno 6909 bound_to 6896
  144.7147  140.0524  143.6435 H   0  0  0  0  0  0  0  0  0  0  0  0  # atno 7974 bound_to 7965
  154.4033  140.1314  156.4386 H   0  0  0  0  0  0  0  0  0  0  0  0  # atno 8008 bound_to 7997
  155.7481  140.3488  155.5117 H   0  0  0  0  0  0  0  0  0  0  0  0  # atno 8009 bound_to 7997
  155.8976  140.1014  157.1364 H   0  0  0  0  0  0  0  0  0  0  0  0  # atno 8010 bound_to 7997
  139.6529  144.0051  152.2174 H   0  0  0  0  0  0  0  0  0  0  0  0  # atno 10167 bound_to 10162
  156.8712  130.5621  149.5657 H   0  0  0  0  0  0  0  0  0  0  0  0  # atno 10718 bound_to 10713
  153.4677  135.3708  155.2373 H   0  0  0  0  0  0  0  0  0  0  0  0  # atno 10763 bound_to 10752
  154.8757  135.3924  154.3850 H   0  0  0  0  0  0  0  0  0  0  0  0  # atno 10764 bound_to 10752
  153.4433  135.7084  153.6220 H   0  0  0  0  0  0  0  0  0  0  0  0  # atno 10765 bound_to 10752
  141.0898  133.6635  156.3952 H   0  0  0  0  0  0  0  0  0  0  0  0  # atno 11005 bound_to 11000
  145.9933  139.3032  143.0972 LP  0  0  0  0  0  0  0  0  0  0  0  0  # atno 17320 bound_to 7965
  145.8878  140.9323  143.0568 LP  0  0  0  0  0  0  0  0  0  0  0  0  # atno 17321 bound_to 7965
  139.9770  144.6454  150.7936 LP  0  0  0  0  0  0  0  0  0  0  0  0  # atno 17342 bound_to 10162
  140.7546  143.3030  151.3033 LP  0  0  0  0  0  0  0  0  0  0  0  0  # atno 17343 bound_to 10162
  156.0725  130.5755  150.9411 LP  0  0  0  0  0  0  0  0  0  0  0  0  # atno 17370 bound_to 10713
  157.6194  131.0931  150.8649 LP  0  0  0  0  0  0  0  0  0  0  0  0  # atno 17371 bound_to 10713
  140.5278  134.6242  157.5340 LP  0  0  0  0  0  0  0  0  0  0  0  0  # atno 17394 bound_to 11000
  139.9722  134.7274  156.0019 LP  0  0  0  0  0  0  0  0  0  0  0  0  # atno 17395 bound_to 11000

$$$$
