AV-unprocessed.smi:1095|AV-procd|sdf|4747|dock7
  -GOLD-   22720 3283D 1   1.00000     0.00000
 Structure written by MMmdl.
 50 51  0  0  0  0  0  0  0  0  1 V2000
  151.5187  145.5824  160.1631 C   0  0  0  0  0  0  0  0  0  0  0  0
  152.0516  144.2323  160.6627 C   0  0  0  0  0  0  0  0  0  0  0  0
  152.1893  143.1629  159.5599 C   0  0  2  0  0  0  0  0  0  0  0  0
  150.8273  142.8841  158.8946 C   0  0  0  0  0  0  0  0  0  0  0  0
  150.9400  141.8296  157.7823 C   0  0  0  0  0  0  0  0  0  0  0  0
  151.5362  140.5095  158.3056 C   0  0  1  0  0  0  0  0  0  0  0  0
  151.6213  139.4605  157.1770 C   0  0  0  0  0  0  0  0  0  0  0  0
  150.2997  139.1217  156.6610 N   0  0  0  0  0  0  0  0  0  0  0  0
  149.8810  139.3062  155.3993 C   0  0  0  0  0  0  0  0  0  0  0  0
  150.5363  139.8938  154.5392 O   0  0  0  0  0  0  0  0  0  0  0  0
  148.5303  138.6891  155.0422 C   0  0  0  0  0  0  0  0  0  0  0  0
  147.5941  139.7864  154.5998 C   0  0  0  0  0  0  0  0  0  0  0  0
  146.8008  139.8328  153.4143 C   0  0  0  0  0  0  0  0  0  0  0  0
  146.6977  138.8128  152.3166 C   0  0  0  0  0  0  0  0  0  0  0  0
  146.1020  140.9512  153.3183 N   0  0  0  0  0  0  0  0  0  0  0  0
  146.4185  141.6517  154.4253 N   0  0  0  0  0  0  0  0  0  0  0  0
  145.8181  142.9544  154.6374 C   0  0  0  0  0  0  0  0  0  0  0  0
  147.3244  140.9769  155.2202 C   0  0  0  0  0  0  0  0  0  0  0  0
  147.8461  141.5499  156.4985 C   0  0  0  0  0  0  0  0  0  0  0  0
  152.8986  140.7809  158.9807 C   0  0  0  0  0  0  0  0  0  0  0  0
  152.7901  141.8430  160.0865 C   0  0  0  0  0  0  0  0  0  0  0  0
  151.3698  146.2688  160.9970 H   0  0  0  0  0  0  0  0  0  0  0  0
  150.5605  145.4654  159.6562 H   0  0  0  0  0  0  0  0  0  0  0  0
  152.2116  146.0593  159.4703 H   0  0  0  0  0  0  0  0  0  0  0  0
  153.0110  144.3795  161.1599 H   0  0  0  0  0  0  0  0  0  0  0  0
  151.3688  143.8650  161.4298 H   0  0  0  0  0  0  0  0  0  0  0  0
  152.8560  143.5580  158.7918 H   0  0  0  0  0  0  0  0  0  0  0  0
  150.1121  142.5452  159.6454 H   0  0  0  0  0  0  0  0  0  0  0  0
  150.4205  143.8057  158.4768 H   0  0  0  0  0  0  0  0  0  0  0  0
  149.9534  141.6487  157.3545 H   0  0  0  0  0  0  0  0  0  0  0  0
  151.5592  142.2197  156.9734 H   0  0  0  0  0  0  0  0  0  0  0  0
  150.8592  140.1201  159.0678 H   0  0  0  0  0  0  0  0  0  0  0  0
  152.2051  139.8590  156.3469 H   0  0  0  0  0  0  0  0  0  0  0  0
  152.1531  138.5729  157.5237 H   0  0  0  0  0  0  0  0  0  0  0  0
  149.6825  138.6307  157.2916 H   0  0  0  0  0  0  0  0  0  0  0  0
  148.6675  137.9379  154.2636 H   0  0  0  0  0  0  0  0  0  0  0  0
  148.1414  138.1540  155.9093 H   0  0  0  0  0  0  0  0  0  0  0  0
  146.8508  137.8039  152.6981 H   0  0  0  0  0  0  0  0  0  0  0  0
  147.4485  138.9943  151.5474 H   0  0  0  0  0  0  0  0  0  0  0  0
  145.7177  138.8365  151.8386 H   0  0  0  0  0  0  0  0  0  0  0  0
  146.5781  143.7283  154.5281 H   0  0  0  0  0  0  0  0  0  0  0  0
  145.3969  143.0067  155.6416 H   0  0  0  0  0  0  0  0  0  0  0  0
  145.0223  143.1347  153.9132 H   0  0  0  0  0  0  0  0  0  0  0  0
  148.7191  141.0005  156.8502 H   0  0  0  0  0  0  0  0  0  0  0  0
  147.0855  141.5094  157.2783 H   0  0  0  0  0  0  0  0  0  0  0  0
  148.1434  142.5905  156.3676 H   0  0  0  0  0  0  0  0  0  0  0  0
  153.2989  139.8660  159.4175 H   0  0  0  0  0  0  0  0  0  0  0  0
  153.6222  141.1060  158.2322 H   0  0  0  0  0  0  0  0  0  0  0  0
  153.7816  142.0150  160.5044 H   0  0  0  0  0  0  0  0  0  0  0  0
  152.1758  141.4562  160.9009 H   0  0  0  0  0  0  0  0  0  0  0  0
  1  2  1  0  0  0  0
  1 22  1  0  0  0  0
  1 23  1  0  0  0  0
  1 24  1  0  0  0  0
  2  3  1  0  0  0  0
  2 25  1  0  0  0  0
  2 26  1  0  0  0  0
  3 21  1  0  0  0  0
  3  4  1  0  0  0  0
  3 27  1  0  0  0  0
  4  5  1  0  0  0  0
  4 28  1  0  0  0  0
  4 29  1  0  0  0  0
  5  6  1  0  0  0  0
  5 30  1  0  0  0  0
  5 31  1  0  0  0  0
  6  7  1  0  0  0  0
  6 20  1  0  0  0  0
  6 32  1  0  0  0  0
  7  8  1  0  0  0  0
  7 33  1  0  0  0  0
  7 34  1  0  0  0  0
  8  9  1  0  0  0  0
  8 35  1  0  0  0  0
  9 10  2  0  0  0  0
  9 11  1  0  0  0  0
 11 12  1  0  0  0  0
 11 36  1  0  0  0  0
 11 37  1  0  0  0  0
 12 18  2  0  0  0  0
 12 13  1  0  0  0  0
 13 14  1  0  0  0  0
 13 15  2  0  0  0  0
 14 38  1  0  0  0  0
 14 39  1  0  0  0  0
 14 40  1  0  0  0  0
 15 16  1  0  0  0  0
 16 17  1  0  0  0  0
 16 18  1  0  0  0  0
 17 41  1  0  0  0  0
 17 42  1  0  0  0  0
 17 43  1  0  0  0  0
 18 19  1  0  0  0  0
 19 44  1  0  0  0  0
 19 45  1  0  0  0  0
 19 46  1  0  0  0  0
 20 21  1  0  0  0  0
 20 47  1  0  0  0  0
 20 48  1  0  0  0  0
 21 49  1  0  0  0  0
 21 50  1  0  0  0  0
M  END
> <s_m_source_file>
AV-unprocessed.smi

> <i_m_source_file_index>
1095

> <i_lp_mmshare_version>
43012

> <i_f3d_flags>
0

> <s_epik_input>
W0NIM11bQ0gyXVtDQEBIXTFbQ0gyXVtDSDJdW0NASF0oW0NIMl1bQ0gyXTEpW0NIMl1bTkhdQyg9TylbQ0gyXWMyYyhbQ0gzXSlubihbQ0gzXSljMltDSDNd

> <s_epik_cmdline>
J2VwaWtfcHl0aG9uJywgJy1waCcsICc3LjAnLCAnLXRuJywgJzgnLCAnLW1hJywgJzIwMCcsICctbWV0YWxfYmluZGluZycsICctaW1hZScsICc8aW5maWxlLm1hZT4nLCAnLW9tYWUnLCAnPG91dGZpbGUubWFlPic=

> <r_lp_tautomer_probability>
1

> <r_epik_Ionization_Penalty>
0.00317479

> <r_epik_Ionization_Penalty_Charging>
0

> <r_epik_Ionization_Penalty_Neutral>
0.00317479

> <r_epik_State_Penalty>
0.00223767

> <r_epik_Charging_Adjusted_Penalty>
0.00223767

> <i_epik_Tot_Q>
0

> <i_epik_Tot_abs_Q>
0

> <r_epik_Metal_State_Penalty>
-0

> <b_epik_Metal_Only>
0

> <s_lp_Force_Field>
OPLS_2005

> <r_lp_Energy>
5.54232

> <b_lp_Chiralities_Consistent>
1

> <s_lp_Variant>
AV-unprocessed.smi:1095-1

> <Gold.Version>
5.8.1

> <Gold.Id.Protein>
6NUR|6NUR_protein|mol2

> <Gold.PLP.Fitness>
44.1479

> <Gold.PLP.PLP>
-41.3433

> <Gold.PLP.part.hbond>
-1.0000

> <Gold.PLP.part.metal>
0.0000

> <Gold.PLP.part.buried>
-2.2869

> <Gold.PLP.part.nonpolar>
-40.1295

> <Gold.PLP.part.repulsive>
1.7977

> <Gold.PLP.ligand.clash>
0.0000

> <Gold.PLP.ligand.torsion>
0.1113

> <Gold.PLP.Chemscore.Hbond>
1.0000

> <Gold.PLP.Chemscore.CHOScore>
0.0000

> <Gold.PLP.Chemscore.Metal>
0.0000

> <Gold.Chemscore.Hbonds>
donor molecule, donor type, donor heavy atom, donor atom, acceptor molecule, acceptor atom, score
      P1  H  7989  7998       L1    10  1.00

> <Gold.PLP.Chemscore.Internal.Correction>
0.0271

> <Gold.Rescore>
     Score         DG    S(hbond)    S(metal)    S(lipo)     H(rot)  DE(clash)    DE(int)     intcor
     17.52     -18.59       1.00        0.00     114.89       1.43       0.99       0.08       ----

> <Gold.Chemscore.Fitness>
17.5247

> <Gold.Chemscore.DG>
-18.5921

> <Gold.Chemscore.ZeroCoef>
-5.4800

> <Gold.Chemscore.Hbond>
0.9999

> <Gold.Chemscore.Metal>
0.0000

> <Gold.Chemscore.Lipo>
114.8912

> <Gold.Chemscore.Internal_Hbond>
0.0000

> <Gold.Chemscore.DEClash>
0.9875

> <Gold.Chemscore.DEInternal>
0.0799

> <Gold.Chemscore.Rot>
1.4336

> <Gold.Chemscore.Internal.Correction>
   9.000000E+99

> <Gold.Chemscore.Hbonds>
donor molecule, donor type, donor heavy atom, donor atom, acceptor molecule, acceptor atom, score
      P1  H  7989  7998       L1    10  1.00

> <Gold.Chemscore.Hbond.Weighted>
-3.3398

> <Gold.Chemscore.Metal.Weighted>
-0.0000

> <Gold.Chemscore.Lipo.Weighted>
-13.4423

> <Gold.Chemscore.Internal_Hbond.Weighted>
0.0000

> <Gold.Chemscore.DEClash.Weighted>
0.9875

> <Gold.Chemscore.DEInternal.Weighted>
0.0799

> <Gold.Chemscore.Rot.Weighted>
3.6700

> <Gold.Chemscore.Internal.Correction.Weighted>
   9.000000E+99

> <Gold.Protein.RotatedTorsions>
[ 6907 6896 6895 6894 ] final   41.99 input  -60.11 | X-H torsion
[ 7974 7965 7964 7962 ] final  -39.07 input  175.53 | X-H torsion
[ 8008 7997 7996 7995 ] final  144.94 input   59.86 | X-H torsion
[ 10167 10162 10161 10158 ] final  -98.93 input  -65.29 | X-H torsion
[ 10718 10713 10712 10709 ] final  -74.16 input   66.30 | X-H torsion
[ 10763 10752 10751 10750 ] final  127.84 input  -60.55 | X-H torsion
[ 11005 11000 10999 10996 ] final  -37.41 input  -57.11 | X-H torsion

> <Gold.Protein.ActiveResidues>
 VAL166  LYS551  ARG553  GLY616  TRP617  ASP618  TYR619  PRO620  LYS621  CYS622 
 ASP623  PHE694  ASN695  SER759  ASP760  ASP761  ALA762  ILE779  LEU786  VAL792 
 PHE793  MET794  SER795  GLU796  ALA797  LYS798  CYS799  TRP800  GLU811  SER814 

> <Gold.Protein.RotatedAtoms>
  152.2023  134.8577  160.0506 H   0  0  0  0  0  0  0  0  0  0  0  0  # atno 6907 bound_to 6896
  151.9426  133.3637  159.3979 H   0  0  0  0  0  0  0  0  0  0  0  0  # atno 6908 bound_to 6896
  150.6957  134.4348  159.5309 H   0  0  0  0  0  0  0  0  0  0  0  0  # atno 6909 bound_to 6896
  146.0429  140.6584  142.9078 H   0  0  0  0  0  0  0  0  0  0  0  0  # atno 7974 bound_to 7965
  156.2896  140.2222  156.5135 H   0  0  0  0  0  0  0  0  0  0  0  0  # atno 8008 bound_to 7997
  154.7589  140.0475  157.0978 H   0  0  0  0  0  0  0  0  0  0  0  0  # atno 8009 bound_to 7997
  155.0016  140.3102  155.4868 H   0  0  0  0  0  0  0  0  0  0  0  0  # atno 8010 bound_to 7997
  140.2678  143.3364  152.0564 H   0  0  0  0  0  0  0  0  0  0  0  0  # atno 10167 bound_to 10162
  156.0253  130.4410  150.2851 H   0  0  0  0  0  0  0  0  0  0  0  0  # atno 10718 bound_to 10713
  153.7158  135.3261  155.3256 H   0  0  0  0  0  0  0  0  0  0  0  0  # atno 10763 bound_to 10752
  154.8371  135.4488  154.1267 H   0  0  0  0  0  0  0  0  0  0  0  0  # atno 10764 bound_to 10752
  153.2374  135.6967  153.7901 H   0  0  0  0  0  0  0  0  0  0  0  0  # atno 10765 bound_to 10752
  140.9950  133.6985  156.1917 H   0  0  0  0  0  0  0  0  0  0  0  0  # atno 11005 bound_to 11000
  144.7083  140.3941  143.7100 LP  0  0  0  0  0  0  0  0  0  0  0  0  # atno 17320 bound_to 7965
  145.6854  139.1627  143.2677 LP  0  0  0  0  0  0  0  0  0  0  0  0  # atno 17321 bound_to 7965
  139.4997  144.6676  151.6319 LP  0  0  0  0  0  0  0  0  0  0  0  0  # atno 17342 bound_to 10162
  140.5914  143.9773  150.6327 LP  0  0  0  0  0  0  0  0  0  0  0  0  # atno 17343 bound_to 10162
  157.0954  131.0181  151.3106 LP  0  0  0  0  0  0  0  0  0  0  0  0  # atno 17370 bound_to 10713
  157.4821  130.7771  149.7424 LP  0  0  0  0  0  0  0  0  0  0  0  0  # atno 17371 bound_to 10713
  140.6981  134.4594  157.5587 LP  0  0  0  0  0  0  0  0  0  0  0  0  # atno 17394 bound_to 11000
  139.9010  134.8556  156.1896 LP  0  0  0  0  0  0  0  0  0  0  0  0  # atno 17395 bound_to 11000

$$$$
