AV-unprocessed.smi:2530|AV-procd|sdf|9963|dock8
  -GOLD-   2272014 03D 1   1.00000     0.00000
 Structure written by MMmdl.
 44 46  0  0  0  0  0  0  0  0  1 V2000
  153.8098  142.1601  161.2005 C   0  0  0  0  0  0  0  0  0  0  0  0
  152.8664  142.0261  160.0232 C   0  0  0  0  0  0  0  0  0  0  0  0
  152.1185  143.1348  159.5852 C   0  0  0  0  0  0  0  0  0  0  0  0
  151.2408  143.0032  158.4942 C   0  0  0  0  0  0  0  0  0  0  0  0
  151.1042  141.7679  157.8252 C   0  0  0  0  0  0  0  0  0  0  0  0
  150.1289  141.6769  156.6640 C   0  0  0  0  0  0  0  0  0  0  0  0
  151.8672  140.6483  158.2517 C   0  0  0  0  0  0  0  0  0  0  0  0
  151.7562  139.2875  157.5629 C   0  0  1  0  0  0  0  0  0  0  0  0
  152.9724  138.9208  156.9388 O   0  0  0  0  0  0  0  0  0  0  0  0
  151.3708  138.1881  158.5780 C   0  0  0  0  0  0  0  0  0  0  0  0
  150.8206  136.9856  157.9287 N   0  0  0  0  0  0  0  0  0  0  0  0
  149.4651  136.7015  158.1840 C   0  0  0  0  0  0  0  0  0  0  0  0
  148.8740  135.6723  157.6655 N   0  0  0  0  0  0  0  0  0  0  0  0
  149.5887  134.8079  156.8284 C   0  0  0  0  0  0  0  0  0  0  0  0
  148.8503  133.5997  156.2687 C   0  0  0  0  0  0  0  0  0  0  0  0
  149.5955  132.2560  156.3401 C   0  0  0  0  0  0  0  0  0  0  0  0
  149.0171  131.9347  154.9577 C   0  0  0  0  0  0  0  0  0  0  0  0
  148.8747  133.4452  154.7390 C   0  0  0  0  0  0  0  0  0  0  0  0
  150.8969  135.0341  156.5607 C   0  0  0  0  0  0  0  0  0  0  0  0
  151.5894  136.1910  157.1283 C   0  0  0  0  0  0  0  0  0  0  0  0
  152.7760  136.4278  156.9027 O   0  0  0  0  0  0  0  0  0  0  0  0
  152.7375  140.7915  159.3575 C   0  0  0  0  0  0  0  0  0  0  0  0
  153.4786  142.9476  161.8782 H   0  0  0  0  0  0  0  0  0  0  0  0
  154.8128  142.4057  160.8515 H   0  0  0  0  0  0  0  0  0  0  0  0
  153.8603  141.2284  161.7649 H   0  0  0  0  0  0  0  0  0  0  0  0
  152.2121  144.0875  160.0860 H   0  0  0  0  0  0  0  0  0  0  0  0
  150.6678  143.8610  158.1737 H   0  0  0  0  0  0  0  0  0  0  0  0
  150.6582  141.4752  155.7326 H   0  0  0  0  0  0  0  0  0  0  0  0
  149.5742  142.6069  156.5366 H   0  0  0  0  0  0  0  0  0  0  0  0
  149.4034  140.8823  156.8359 H   0  0  0  0  0  0  0  0  0  0  0  0
  151.0137  139.3381  156.7684 H   0  0  0  0  0  0  0  0  0  0  0  0
  153.2946  138.1347  157.3529 H   0  0  0  0  0  0  0  0  0  0  0  0
  152.2203  137.9538  159.2231 H   0  0  0  0  0  0  0  0  0  0  0  0
  150.6143  138.5814  159.2595 H   0  0  0  0  0  0  0  0  0  0  0  0
  148.9555  137.4027  158.8470 H   0  0  0  0  0  0  0  0  0  0  0  0
  147.8377  133.5238  156.6691 H   0  0  0  0  0  0  0  0  0  0  0  0
  150.6825  132.3554  156.3201 H   0  0  0  0  0  0  0  0  0  0  0  0
  149.2651  131.5927  157.1399 H   0  0  0  0  0  0  0  0  0  0  0  0
  149.7082  131.4368  154.2769 H   0  0  0  0  0  0  0  0  0  0  0  0
  148.0558  131.4209  155.0087 H   0  0  0  0  0  0  0  0  0  0  0  0
  147.9573  133.7497  154.2345 H   0  0  0  0  0  0  0  0  0  0  0  0
  149.7585  133.8827  154.2707 H   0  0  0  0  0  0  0  0  0  0  0  0
  151.4438  134.3575  155.9204 H   0  0  0  0  0  0  0  0  0  0  0  0
  153.3137  139.9453  159.7031 H   0  0  0  0  0  0  0  0  0  0  0  0
  1  2  1  0  0  0  0
  1 23  1  0  0  0  0
  1 24  1  0  0  0  0
  1 25  1  0  0  0  0
  2 22  1  0  0  0  0
  2  3  2  0  0  0  0
  3  4  1  0  0  0  0
  3 26  1  0  0  0  0
  4  5  2  0  0  0  0
  4 27  1  0  0  0  0
  5  6  1  0  0  0  0
  5  7  1  0  0  0  0
  6 28  1  0  0  0  0
  6 29  1  0  0  0  0
  6 30  1  0  0  0  0
  7  8  1  0  0  0  0
  7 22  2  0  0  0  0
  8  9  1  0  0  0  0
  8 10  1  0  0  0  0
  8 31  1  0  0  0  0
  9 32  1  0  0  0  0
 10 11  1  0  0  0  0
 10 33  1  0  0  0  0
 10 34  1  0  0  0  0
 11 20  1  0  0  0  0
 11 12  1  0  0  0  0
 12 13  2  0  0  0  0
 12 35  1  0  0  0  0
 13 14  1  0  0  0  0
 14 15  1  0  0  0  0
 14 19  2  0  0  0  0
 15 18  1  0  0  0  0
 15 16  1  0  0  0  0
 15 36  1  0  0  0  0
 16 17  1  0  0  0  0
 16 37  1  0  0  0  0
 16 38  1  0  0  0  0
 17 18  1  0  0  0  0
 17 39  1  0  0  0  0
 17 40  1  0  0  0  0
 18 41  1  0  0  0  0
 18 42  1  0  0  0  0
 19 20  1  0  0  0  0
 19 43  1  0  0  0  0
 20 21  2  0  0  0  0
 22 44  1  0  0  0  0
M  END
> <s_m_source_file>
AV-unprocessed.smi

> <i_m_source_file_index>
2530

> <i_lp_mmshare_version>
43012

> <i_f3d_flags>
0

> <s_epik_input>
W0NIM11jMVtjSF1bY0hdYyhbQ0gzXSljKFtjSF0xKVtDQEhdKFtPSF0pW0NIMl1uMltjSF1uYyhbY0hdYzI9TylbQ0hdM1tDSDJdW0NIMl1bQ0gyXTM=

> <s_epik_cmdline>
J2VwaWtfcHl0aG9uJywgJy1waCcsICc3LjAnLCAnLXRuJywgJzgnLCAnLW1hJywgJzIwMCcsICctbWV0YWxfYmluZGluZycsICctaW1hZScsICc8aW5maWxlLm1hZT4nLCAnLW9tYWUnLCAnPG91dGZpbGUubWFlPic=

> <r_lp_tautomer_probability>
1

> <r_epik_Ionization_Penalty>
2.57341e-05

> <r_epik_Ionization_Penalty_Charging>
5.39435e-08

> <r_epik_Ionization_Penalty_Neutral>
2.56801e-05

> <r_epik_State_Penalty>
-0

> <r_epik_Charging_Adjusted_Penalty>
5.39435e-08

> <i_epik_Tot_Q>
0

> <i_epik_Tot_abs_Q>
0

> <r_epik_Metal_State_Penalty>
-0

> <b_epik_Metal_Only>
0

> <s_lp_Force_Field>
OPLS_2005

> <r_lp_Energy>
28.9103

> <b_lp_Chiralities_Consistent>
1

> <s_lp_Variant>
AV-unprocessed.smi:2530-2

> <Gold.Version>
5.8.1

> <Gold.Id.Protein>
6NUR|6NUR_protein|mol2

> <Gold.PLP.Fitness>
45.3970

> <Gold.PLP.PLP>
-39.9028

> <Gold.PLP.part.hbond>
-2.0000

> <Gold.PLP.part.metal>
0.0000

> <Gold.PLP.part.buried>
-4.5969

> <Gold.PLP.part.nonpolar>
-33.5984

> <Gold.PLP.part.repulsive>
0.0000

> <Gold.PLP.ligand.clash>
0.0000

> <Gold.PLP.ligand.torsion>
0.4416

> <Gold.PLP.Chemscore.Hbond>
2.0000

> <Gold.PLP.Chemscore.CHOScore>
0.0000

> <Gold.PLP.Chemscore.Metal>
0.0000

> <Gold.Chemscore.Hbonds>
donor molecule, donor type, donor heavy atom, donor atom, acceptor molecule, acceptor atom, score
      P1  H  7997  8009       L1     9  1.00
      P1  H 10752 10764       L1    21  1.00

> <Gold.PLP.Chemscore.Internal.Correction>
0.3775

> <Gold.Rescore>
     Score         DG    S(hbond)    S(metal)    S(lipo)     H(rot)  DE(clash)    DE(int)     intcor
     16.73     -18.93       1.80        0.00     106.59       1.97       0.01       2.18       ----

> <Gold.Chemscore.Fitness>
16.7333

> <Gold.Chemscore.DG>
-18.9269

> <Gold.Chemscore.ZeroCoef>
-5.4800

> <Gold.Chemscore.Hbond>
1.8008

> <Gold.Chemscore.Metal>
0.0000

> <Gold.Chemscore.Lipo>
106.5936

> <Gold.Chemscore.Internal_Hbond>
0.0000

> <Gold.Chemscore.DEClash>
0.0089

> <Gold.Chemscore.DEInternal>
2.1847

> <Gold.Chemscore.Rot>
1.9684

> <Gold.Chemscore.Internal.Correction>
   9.000000E+99

> <Gold.Chemscore.Hbonds>
donor molecule, donor type, donor heavy atom, donor atom, acceptor molecule, acceptor atom, score
      P1  H  7997  8009       L1     9  0.65
      P1  H 10752 10764       L1    21  0.79

> <Gold.Chemscore.Hbond.Weighted>
-6.0146

> <Gold.Chemscore.Metal.Weighted>
-0.0000

> <Gold.Chemscore.Lipo.Weighted>
-12.4715

> <Gold.Chemscore.Internal_Hbond.Weighted>
0.0000

> <Gold.Chemscore.DEClash.Weighted>
0.0089

> <Gold.Chemscore.DEInternal.Weighted>
2.1847

> <Gold.Chemscore.Rot.Weighted>
5.0391

> <Gold.Chemscore.Internal.Correction.Weighted>
   9.000000E+99

> <Gold.Protein.RotatedTorsions>
[ 6907 6896 6895 6894 ] final -140.78 input  -60.11 | X-H torsion
[ 7974 7965 7964 7962 ] final  174.65 input  175.53 | X-H torsion
[ 8008 7997 7996 7995 ] final  178.05 input   59.86 | X-H torsion
[ 10167 10162 10161 10158 ] final  -23.10 input  -65.29 | X-H torsion
[ 10718 10713 10712 10709 ] final    1.17 input   66.30 | X-H torsion
[ 10763 10752 10751 10750 ] final   -2.88 input  -60.55 | X-H torsion
[ 11005 11000 10999 10996 ] final -178.37 input  -57.11 | X-H torsion

> <Gold.Protein.ActiveResidues>
 VAL166  LYS551  ARG553  GLY616  TRP617  ASP618  TYR619  PRO620  LYS621  CYS622 
 ASP623  PHE694  ASN695  SER759  ASP760  ASP761  ALA762  ILE779  LEU786  VAL792 
 PHE793  MET794  SER795  GLU796  ALA797  LYS798  CYS799  TRP800  GLU811  SER814 

> <Gold.Protein.RotatedAtoms>
  151.0652  133.5511  159.2630 H   0  0  0  0  0  0  0  0  0  0  0  0  # atno 6907 bound_to 6896
  151.2471  135.0608  159.9057 H   0  0  0  0  0  0  0  0  0  0  0  0  # atno 6908 bound_to 6896
  152.5403  134.0418  159.8125 H   0  0  0  0  0  0  0  0  0  0  0  0  # atno 6909 bound_to 6896
  144.7217  139.9829  143.6439 H   0  0  0  0  0  0  0  0  0  0  0  0  # atno 7974 bound_to 7965
  156.0590  140.1343  156.9964 H   0  0  0  0  0  0  0  0  0  0  0  0  # atno 8008 bound_to 7997
  154.4472  140.0995  156.6559 H   0  0  0  0  0  0  0  0  0  0  0  0  # atno 8009 bound_to 7997
  155.5407  140.3461  155.4448 H   0  0  0  0  0  0  0  0  0  0  0  0  # atno 8010 bound_to 7997
  140.7287  143.4474  151.0567 H   0  0  0  0  0  0  0  0  0  0  0  0  # atno 10167 bound_to 10162
  156.8442  130.5531  149.5675 H   0  0  0  0  0  0  0  0  0  0  0  0  # atno 10718 bound_to 10713
  153.3639  135.6991  153.6690 H   0  0  0  0  0  0  0  0  0  0  0  0  # atno 10763 bound_to 10752
  153.5368  135.3581  155.2701 H   0  0  0  0  0  0  0  0  0  0  0  0  # atno 10764 bound_to 10752
  154.8672  135.4194  154.2902 H   0  0  0  0  0  0  0  0  0  0  0  0  # atno 10765 bound_to 10752
  140.4305  134.6523  157.4709 H   0  0  0  0  0  0  0  0  0  0  0  0  # atno 11005 bound_to 11000
  146.0473  139.3478  143.0661 LP  0  0  0  0  0  0  0  0  0  0  0  0  # atno 17320 bound_to 7965
  145.8259  140.9655  143.0874 LP  0  0  0  0  0  0  0  0  0  0  0  0  # atno 17321 bound_to 7965
  139.8147  143.7903  152.3173 LP  0  0  0  0  0  0  0  0  0  0  0  0  # atno 17342 bound_to 10162
  139.7964  144.7391  150.9884 LP  0  0  0  0  0  0  0  0  0  0  0  0  # atno 17343 bound_to 10162
  156.0864  130.5861  150.9655 LP  0  0  0  0  0  0  0  0  0  0  0  0  # atno 17370 bound_to 10713
  157.6339  131.0918  150.8387 LP  0  0  0  0  0  0  0  0  0  0  0  0  # atno 17371 bound_to 10713
  140.0137  134.6651  155.9341 LP  0  0  0  0  0  0  0  0  0  0  0  0  # atno 17394 bound_to 11000
  141.1747  133.6539  156.4785 LP  0  0  0  0  0  0  0  0  0  0  0  0  # atno 17395 bound_to 11000

$$$$
