AV-unprocessed.smi:1225|AV-procd|sdf|5138|dock6
  -GOLD-   22720 4203D 1   1.00000     0.00000
 Structure written by MMmdl.
 49 51  0  0  0  0  0  0  0  0  2 V2000
  149.3030  130.5284  154.1189 C   0  0  0  0  0  0  0  0  0  0  0  0
  148.7121  131.8891  154.2625 C   0  0  0  0  0  0  0  0  0  0  0  0
  147.4307  132.1691  154.0146 N   0  0  0  0  0  0  0  0  0  0  0  0
  147.1290  133.5164  154.2265 C   0  0  0  0  0  0  0  0  0  0  0  0
  148.1995  134.2664  154.6471 C   0  0  0  0  0  0  0  0  0  0  0  0
  148.2190  135.7293  154.9595 C   0  0  0  0  0  0  0  0  0  0  0  0
  149.5652  136.2889  155.0903 N   0  0  0  0  0  0  0  0  0  0  0  0
  150.0683  136.1358  156.4554 C   0  0  0  0  0  0  0  0  0  0  0  0
  149.5792  137.6901  154.6633 C   0  0  0  0  0  0  0  0  0  0  0  0
  150.9771  138.3118  154.4741 C   0  0  2  0  0  0  0  0  0  0  0  0
  151.8505  137.2961  154.0236 O   0  0  0  0  0  0  0  0  0  0  0  0
  151.5350  138.9118  155.7809 C   0  0  0  0  0  0  0  0  0  0  0  0
  151.1249  140.3063  155.9894 N   0  0  0  0  0  0  0  0  0  0  0  0
  150.2898  141.0943  155.2591 C   0  0  0  0  0  0  0  0  0  0  0  0
  150.2392  142.3117  155.8682 N   0  3  0  0  0  0  0  0  0  0  0  0
  151.0572  142.3008  157.0004 C   0  0  0  0  0  0  0  0  0  0  0  0
  151.3335  143.2913  157.9353 C   0  0  0  0  0  0  0  0  0  0  0  0
  152.2207  142.9586  158.9844 C   0  0  0  0  0  0  0  0  0  0  0  0
  152.5437  144.0188  160.0235 C   0  0  0  0  0  0  0  0  0  0  0  0
  152.7987  141.6651  159.0699 C   0  0  0  0  0  0  0  0  0  0  0  0
  153.7508  141.3179  160.2018 C   0  0  0  0  0  0  0  0  0  0  0  0
  152.5055  140.6718  158.1084 C   0  0  0  0  0  0  0  0  0  0  0  0
  151.6292  141.0169  157.0827 C   0  0  0  0  0  0  0  0  0  0  0  0
  149.6411  133.2907  154.7795 S   0  0  0  0  0  0  0  0  0  0  0  0
  148.5788  129.8380  153.6851 H   0  0  0  0  0  0  0  0  0  0  0  0
  149.6059  130.1500  155.0952 H   0  0  0  0  0  0  0  0  0  0  0  0
  150.1787  130.5686  153.4709 H   0  0  0  0  0  0  0  0  0  0  0  0
  146.1190  133.8589  154.0556 H   0  0  0  0  0  0  0  0  0  0  0  0
  147.6874  136.2465  154.1599 H   0  0  0  0  0  0  0  0  0  0  0  0
  147.6489  135.9204  155.8701 H   0  0  0  0  0  0  0  0  0  0  0  0
  151.0987  136.4766  156.5415 H   0  0  0  0  0  0  0  0  0  0  0  0
  150.0608  135.0904  156.7641 H   0  0  0  0  0  0  0  0  0  0  0  0
  149.4616  136.7006  157.1643 H   0  0  0  0  0  0  0  0  0  0  0  0
  149.0488  137.7803  153.7140 H   0  0  0  0  0  0  0  0  0  0  0  0
  149.0099  138.2879  155.3773 H   0  0  0  0  0  0  0  0  0  0  0  0
  150.9527  139.0702  153.6928 H   0  0  0  0  0  0  0  0  0  0  0  0
  151.6432  137.1014  153.1226 H   0  0  0  0  0  0  0  0  0  0  0  0
  151.2182  138.3305  156.6479 H   0  0  0  0  0  0  0  0  0  0  0  0
  152.6256  138.8867  155.7754 H   0  0  0  0  0  0  0  0  0  0  0  0
  149.7621  140.8053  154.3613 H   0  0  0  0  0  0  0  0  0  0  0  0
  150.8899  144.2735  157.8634 H   0  0  0  0  0  0  0  0  0  0  0  0
  152.2182  143.6959  161.0125 H   0  0  0  0  0  0  0  0  0  0  0  0
  152.0449  144.9622  159.7994 H   0  0  0  0  0  0  0  0  0  0  0  0
  153.6166  144.2099  160.0567 H   0  0  0  0  0  0  0  0  0  0  0  0
  154.0835  140.2814  160.1393 H   0  0  0  0  0  0  0  0  0  0  0  0
  153.2642  141.4528  161.1680 H   0  0  0  0  0  0  0  0  0  0  0  0
  154.6350  141.9548  160.1664 H   0  0  0  0  0  0  0  0  0  0  0  0
  152.9452  139.6872  158.1712 H   0  0  0  0  0  0  0  0  0  0  0  0
  149.6877  143.0911  155.5326 H   0  0  0  0  0  0  0  0  0  0  0  0
  1  2  1  0  0  0  0
  1 25  1  0  0  0  0
  1 26  1  0  0  0  0
  1 27  1  0  0  0  0
  2 24  1  0  0  0  0
  2  3  2  0  0  0  0
  3  4  1  0  0  0  0
  4  5  2  0  0  0  0
  4 28  1  0  0  0  0
  5  6  1  0  0  0  0
  5 24  1  0  0  0  0
  6  7  1  0  0  0  0
  6 29  1  0  0  0  0
  6 30  1  0  0  0  0
  7  8  1  0  0  0  0
  7  9  1  0  0  0  0
  8 31  1  0  0  0  0
  8 32  1  0  0  0  0
  8 33  1  0  0  0  0
  9 10  1  0  0  0  0
  9 34  1  0  0  0  0
  9 35  1  0  0  0  0
 10 11  1  0  0  0  0
 10 12  1  0  0  0  0
 10 36  1  0  0  0  0
 11 37  1  0  0  0  0
 12 13  1  0  0  0  0
 12 38  1  0  0  0  0
 12 39  1  0  0  0  0
 13 23  1  0  0  0  0
 13 14  1  0  0  0  0
 14 15  2  0  0  0  0
 14 40  1  0  0  0  0
 15 16  1  0  0  0  0
 15 49  1  0  0  0  0
 16 23  2  0  0  0  0
 16 17  1  0  0  0  0
 17 18  2  0  0  0  0
 17 41  1  0  0  0  0
 18 19  1  0  0  0  0
 18 20  1  0  0  0  0
 19 42  1  0  0  0  0
 19 43  1  0  0  0  0
 19 44  1  0  0  0  0
 20 21  1  0  0  0  0
 20 22  2  0  0  0  0
 21 45  1  0  0  0  0
 21 46  1  0  0  0  0
 21 47  1  0  0  0  0
 22 23  1  0  0  0  0
 22 48  1  0  0  0  0
M  CHG  1  15   1
M  END
> <s_m_source_file>
AV-unprocessed.smi

> <i_m_source_file_index>
1225

> <i_lp_mmshare_version>
43012

> <i_f3d_flags>
0

> <s_epik_input>
W0NIM11jMW5bY0hdYyhzMSlbQ0gyXU4oW0NIM10pW0NIMl1bQ0BIXShbT0hdKVtDSDJdbihbY0hdbjIpYyhjMjMpW2NIXWMoW0NIM10pYyhbY0hdMylbQ0gzXQ==

> <s_epik_cmdline>
J2VwaWtfcHl0aG9uJywgJy1waCcsICc3LjAnLCAnLXRuJywgJzgnLCAnLW1hJywgJzIwMCcsICctbWV0YWxfYmluZGluZycsICctaW1hZScsICc8aW5maWxlLm1hZT4nLCAnLW9tYWUnLCAnPG91dGZpbGUubWFlPic=

> <r_epik_Ionization_Penalty>
1.25968

> <r_epik_Ionization_Penalty_Charging>
1.21782

> <r_epik_Ionization_Penalty_Neutral>
0.0418565

> <r_epik_State_Penalty>
1.29962

> <r_epik_Charging_Adjusted_Penalty>
2.51745

> <i_epik_Tot_Q>
1

> <i_epik_Tot_abs_Q>
1

> <r_epik_Metal_State_Penalty>
1.36802

> <b_epik_Metal_Only>
0

> <s_lp_Force_Field>
OPLS_2005

> <r_lp_Energy>
21.2232

> <b_lp_Chiralities_Consistent>
1

> <s_lp_Variant>
AV-unprocessed.smi:1225-3

> <Gold.Version>
5.8.1

> <Gold.Id.Protein>
6NUR|6NUR_protein|mol2

> <Gold.PLP.Fitness>
55.3060

> <Gold.PLP.PLP>
-45.9559

> <Gold.PLP.part.hbond>
-3.0000

> <Gold.PLP.part.metal>
0.0000

> <Gold.PLP.part.buried>
-4.6203

> <Gold.PLP.part.nonpolar>
-38.5376

> <Gold.PLP.part.repulsive>
0.3282

> <Gold.PLP.ligand.clash>
0.0000

> <Gold.PLP.ligand.torsion>
1.2183

> <Gold.PLP.Chemscore.Hbond>
3.8496

> <Gold.PLP.Chemscore.CHOScore>
0.0000

> <Gold.PLP.Chemscore.Metal>
0.0000

> <Gold.Chemscore.Hbonds>
donor molecule, donor type, donor heavy atom, donor atom, acceptor molecule, acceptor atom, score
      L1  H    11    37       P1  7949  1.00
      L1  H    15    49       P1  8028  2.00
      P1  H 10752 10765       L1    11  0.77

> <Gold.PLP.Chemscore.Internal.Correction>
0.2379

> <Gold.Rescore>
     Score         DG    S(hbond)    S(metal)    S(lipo)     H(rot)  DE(clash)    DE(int)     intcor
     20.14     -21.41       2.27        0.00     123.13       2.36       0.04       1.22       ----

> <Gold.Chemscore.Fitness>
20.1445

> <Gold.Chemscore.DG>
-21.4064

> <Gold.Chemscore.ZeroCoef>
-5.4800

> <Gold.Chemscore.Hbond>
2.2678

> <Gold.Chemscore.Metal>
0.0000

> <Gold.Chemscore.Lipo>
123.1281

> <Gold.Chemscore.Internal_Hbond>
0.0000

> <Gold.Chemscore.DEClash>
0.0392

> <Gold.Chemscore.DEInternal>
1.2228

> <Gold.Chemscore.Rot>
2.3649

> <Gold.Chemscore.Internal.Correction>
   9.000000E+99

> <Gold.Chemscore.Hbonds>
donor molecule, donor type, donor heavy atom, donor atom, acceptor molecule, acceptor atom, score
      L1  H    11    37       P1  7949  0.89
      L1  H    15    49       P1  8028  0.99
      P1  H 10752 10765       L1    11  0.11

> <Gold.Chemscore.Hbond.Weighted>
-7.5745

> <Gold.Chemscore.Metal.Weighted>
-0.0000

> <Gold.Chemscore.Lipo.Weighted>
-14.4060

> <Gold.Chemscore.Internal_Hbond.Weighted>
0.0000

> <Gold.Chemscore.DEClash.Weighted>
0.0392

> <Gold.Chemscore.DEInternal.Weighted>
1.2228

> <Gold.Chemscore.Rot.Weighted>
6.0540

> <Gold.Chemscore.Internal.Correction.Weighted>
   9.000000E+99

> <Gold.Protein.RotatedTorsions>
[ 6907 6896 6895 6894 ] final    3.15 input  -60.11 | X-H torsion
[ 7974 7965 7964 7962 ] final -140.76 input  175.53 | X-H torsion
[ 8008 7997 7996 7995 ] final  -60.05 input   59.86 | X-H torsion
[ 10167 10162 10161 10158 ] final   77.32 input  -65.29 | X-H torsion
[ 10718 10713 10712 10709 ] final  -71.14 input   66.30 | X-H torsion
[ 10763 10752 10751 10750 ] final  167.04 input  -60.55 | X-H torsion
[ 11005 11000 10999 10996 ] final -105.45 input  -57.11 | X-H torsion

> <Gold.Protein.ActiveResidues>
 VAL166  LYS551  ARG553  GLY616  TRP617  ASP618  TYR619  PRO620  LYS621  CYS622 
 ASP623  PHE694  ASN695  SER759  ASP760  ASP761  ALA762  ILE779  LEU786  VAL792 
 PHE793  MET794  SER795  GLU796  ALA797  LYS798  CYS799  TRP800  GLU811  SER814 

> <Gold.Protein.RotatedAtoms>
  151.6205  135.1032  160.0100 H   0  0  0  0  0  0  0  0  0  0  0  0  # atno 6907 bound_to 6896
  152.4160  133.7035  159.6448 H   0  0  0  0  0  0  0  0  0  0  0  0  # atno 6908 bound_to 6896
  150.8048  133.8456  159.3232 H   0  0  0  0  0  0  0  0  0  0  0  0  # atno 6909 bound_to 6896
  144.8572  140.6161  143.5352 H   0  0  0  0  0  0  0  0  0  0  0  0  # atno 7974 bound_to 7965
  154.4381  140.1048  156.6213 H   0  0  0  0  0  0  0  0  0  0  0  0  # atno 8008 bound_to 7997
  155.5704  140.3489  155.4495 H   0  0  0  0  0  0  0  0  0  0  0  0  # atno 8009 bound_to 7997
  156.0394  140.1278  157.0162 H   0  0  0  0  0  0  0  0  0  0  0  0  # atno 8010 bound_to 7997
  139.9828  144.5814  150.7886 H   0  0  0  0  0  0  0  0  0  0  0  0  # atno 10167 bound_to 10162
  156.0376  130.4345  150.2400 H   0  0  0  0  0  0  0  0  0  0  0  0  # atno 10718 bound_to 10713
  154.3479  135.2753  155.2388 H   0  0  0  0  0  0  0  0  0  0  0  0  # atno 10763 bound_to 10752
  154.4630  135.5902  153.6272 H   0  0  0  0  0  0  0  0  0  0  0  0  # atno 10764 bound_to 10752
  152.9852  135.6069  154.3686 H   0  0  0  0  0  0  0  0  0  0  0  0  # atno 10765 bound_to 10752
  141.1053  133.8809  157.1736 H   0  0  0  0  0  0  0  0  0  0  0  0  # atno 11005 bound_to 11000
  145.4384  139.1539  143.3984 LP  0  0  0  0  0  0  0  0  0  0  0  0  # atno 17320 bound_to 7965
  146.2832  140.4504  142.8768 LP  0  0  0  0  0  0  0  0  0  0  0  0  # atno 17321 bound_to 7965
  140.7483  143.2920  151.3305 LP  0  0  0  0  0  0  0  0  0  0  0  0  # atno 17342 bound_to 10162
  139.6397  144.0562  152.2545 LP  0  0  0  0  0  0  0  0  0  0  0  0  # atno 17343 bound_to 10162
  157.0498  131.0059  151.3257 LP  0  0  0  0  0  0  0  0  0  0  0  0  # atno 17370 bound_to 10713
  157.5149  130.7961  149.7745 LP  0  0  0  0  0  0  0  0  0  0  0  0  # atno 17371 bound_to 10713
  139.9920  135.0061  156.9997 LP  0  0  0  0  0  0  0  0  0  0  0  0  # atno 17394 bound_to 11000
  140.4919  134.1185  155.7234 LP  0  0  0  0  0  0  0  0  0  0  0  0  # atno 17395 bound_to 11000

$$$$
