AV-unprocessed.smi:2784|AV-procd|sdf|10738|dock8
  -GOLD-   2272015173D 1   1.00000     0.00000
 Structure written by MMmdl.
 31 32  0  0  0  0  0  0  0  0  1 V2000
  151.9500  141.6872  159.6827 C   0  0  0  0  0  0  0  0  0  0  0  0
  150.7198  141.7693  158.9802 O   0  0  0  0  0  0  0  0  0  0  0  0
  150.5030  143.0288  158.3587 C   0  0  2  0  0  0  0  0  0  0  0  0
  151.7294  143.4019  157.5212 C   0  0  0  0  0  0  0  0  0  0  0  0
  151.7269  144.9262  157.5044 C   0  0  0  0  0  0  0  0  0  0  0  0
  151.2762  145.3072  158.9140 C   0  0  0  0  0  0  0  0  0  0  0  0
  150.3285  144.1815  159.3743 C   0  0  1  0  0  0  0  0  0  0  0  0
  148.9411  144.6393  159.3970 N   0  0  0  0  0  0  0  0  0  0  0  0
  148.1557  144.6924  160.4828 C   0  0  0  0  0  0  0  0  0  0  0  0
  148.5641  144.3471  161.5961 O   0  0  0  0  0  0  0  0  0  0  0  0
  146.8907  145.1411  160.1371 N   0  0  0  0  0  0  0  0  0  0  0  0
  145.8614  144.6647  160.7661 C   0  0  0  0  0  0  0  0  0  0  0  0
  144.5286  144.9968  160.5841 N   0  0  0  0  0  0  0  0  0  0  0  0
  143.7812  144.2463  161.4493 C   0  0  0  0  0  0  0  0  0  0  0  0
  144.6078  143.4720  162.1463 C   0  0  0  0  0  0  0  0  0  0  0  0
  145.8907  143.7036  161.7507 O   0  0  0  0  0  0  0  0  0  0  0  0
  152.0368  140.7068  160.1509 H   0  0  0  0  0  0  0  0  0  0  0  0
  152.0056  142.4403  160.4696 H   0  0  0  0  0  0  0  0  0  0  0  0
  152.8039  141.8146  159.0168 H   0  0  0  0  0  0  0  0  0  0  0  0
  149.6451  142.9729  157.6850 H   0  0  0  0  0  0  0  0  0  0  0  0
  152.6378  143.0497  158.0124 H   0  0  0  0  0  0  0  0  0  0  0  0
  151.7030  142.9677  156.5216 H   0  0  0  0  0  0  0  0  0  0  0  0
  152.6992  145.3464  157.2460 H   0  0  0  0  0  0  0  0  0  0  0  0
  151.0009  145.2857  156.7741 H   0  0  0  0  0  0  0  0  0  0  0  0
  152.1452  145.3340  159.5728 H   0  0  0  0  0  0  0  0  0  0  0  0
  150.8233  146.2992  158.9441 H   0  0  0  0  0  0  0  0  0  0  0  0
  150.6277  143.8486  160.3701 H   0  0  0  0  0  0  0  0  0  0  0  0
  148.5439  144.9270  158.5145 H   0  0  0  0  0  0  0  0  0  0  0  0
  144.1331  145.6661  159.9397 H   0  0  0  0  0  0  0  0  0  0  0  0
  142.7064  144.3496  161.4742 H   0  0  0  0  0  0  0  0  0  0  0  0
  144.4472  142.7383  162.9223 H   0  0  0  0  0  0  0  0  0  0  0  0
  1  2  1  0  0  0  0
  1 17  1  0  0  0  0
  1 18  1  0  0  0  0
  1 19  1  0  0  0  0
  2  3  1  0  0  0  0
  3  7  1  0  0  0  0
  3  4  1  0  0  0  0
  3 20  1  0  0  0  0
  4  5  1  0  0  0  0
  4 21  1  0  0  0  0
  4 22  1  0  0  0  0
  5  6  1  0  0  0  0
  5 23  1  0  0  0  0
  5 24  1  0  0  0  0
  6  7  1  0  0  0  0
  6 25  1  0  0  0  0
  6 26  1  0  0  0  0
  7  8  1  0  0  0  0
  7 27  1  0  0  0  0
  8 28  1  0  0  0  0
  8  9  1  0  0  0  0
  9 11  1  0  0  0  0
  9 10  2  0  0  0  0
 11 12  2  0  0  0  0
 12 16  1  0  0  0  0
 12 13  1  0  0  0  0
 13 29  1  0  0  0  0
 13 14  1  0  0  0  0
 14 30  1  0  0  0  0
 14 15  2  0  0  0  0
 15 31  1  0  0  0  0
 15 16  1  0  0  0  0
M  END
> <s_m_source_file>
AV-unprocessed.smi

> <i_m_source_file_index>
2784

> <i_lp_mmshare_version>
43012

> <i_f3d_flags>
0

> <s_epik_input>
W0NIM11PW0NAQEhdMVtDSDJdW0NIMl1bQ0gyXVtDQEhdMVtOSF1DKD1PKVtOSF1jMm5bY0hdW2NIXW8y

> <s_epik_cmdline>
J2VwaWtfcHl0aG9uJywgJy1waCcsICc3LjAnLCAnLXRuJywgJzgnLCAnLW1hJywgJzIwMCcsICctbWV0YWxfYmluZGluZycsICctaW1hZScsICc8aW5maWxlLm1hZT4nLCAnLW9tYWUnLCAnPG91dGZpbGUubWFlPic=

> <r_lp_tautomer_probability>
0.107061

> <r_epik_Ionization_Penalty>
1.29244

> <r_epik_Ionization_Penalty_Charging>
1.29208

> <r_epik_Ionization_Penalty_Neutral>
0.000359742

> <r_epik_State_Penalty>
2.59896

> <r_epik_Charging_Adjusted_Penalty>
3.89105

> <i_epik_Tot_Q>
0

> <i_epik_Tot_abs_Q>
0

> <r_epik_Metal_State_Penalty>
3.62496

> <b_epik_Metal_Only>
0

> <s_lp_Force_Field>
OPLS_2005

> <r_lp_Energy>
42.0746

> <b_lp_Chiralities_Consistent>
1

> <s_lp_Variant>
AV-unprocessed.smi:2784-13

> <Gold.Version>
5.8.1

> <Gold.Id.Protein>
6NUR|6NUR_protein|mol2

> <Gold.PLP.Fitness>
34.5531

> <Gold.PLP.PLP>
-29.9292

> <Gold.PLP.part.hbond>
-3.3583

> <Gold.PLP.part.metal>
0.0000

> <Gold.PLP.part.buried>
-5.8212

> <Gold.PLP.part.nonpolar>
-20.3054

> <Gold.PLP.part.repulsive>
0.6334

> <Gold.PLP.ligand.clash>
0.0000

> <Gold.PLP.ligand.torsion>
0.2707

> <Gold.PLP.Chemscore.Hbond>
1.7200

> <Gold.PLP.Chemscore.CHOScore>
0.0000

> <Gold.PLP.Chemscore.Metal>
0.0000

> <Gold.Chemscore.Hbonds>
donor molecule, donor type, donor heavy atom, donor atom, acceptor molecule, acceptor atom, score
      L1  H     8    28       P1  8029  1.00
      P1  H  6933  6944       L1    10  0.75

> <Gold.PLP.Chemscore.Internal.Correction>
0.0053

> <Gold.Rescore>
     Score         DG    S(hbond)    S(metal)    S(lipo)     H(rot)  DE(clash)    DE(int)     intcor
     15.00     -16.78       1.83        0.00      73.47       1.32       0.09       1.70       ----

> <Gold.Chemscore.Fitness>
15.0033

> <Gold.Chemscore.DG>
-16.7840

> <Gold.Chemscore.ZeroCoef>
-5.4800

> <Gold.Chemscore.Hbond>
1.8253

> <Gold.Chemscore.Metal>
0.0000

> <Gold.Chemscore.Lipo>
73.4668

> <Gold.Chemscore.Internal_Hbond>
0.0000

> <Gold.Chemscore.DEClash>
0.0855

> <Gold.Chemscore.DEInternal>
1.6952

> <Gold.Chemscore.Rot>
1.3235

> <Gold.Chemscore.Internal.Correction>
   9.000000E+99

> <Gold.Chemscore.Hbonds>
donor molecule, donor type, donor heavy atom, donor atom, acceptor molecule, acceptor atom, score
      L1  H     8    28       P1  8029  0.95
      P1  H  6933  6944       L1    10  0.30

> <Gold.Chemscore.Hbond.Weighted>
-6.0966

> <Gold.Chemscore.Metal.Weighted>
-0.0000

> <Gold.Chemscore.Lipo.Weighted>
-8.5956

> <Gold.Chemscore.Internal_Hbond.Weighted>
0.0000

> <Gold.Chemscore.DEClash.Weighted>
0.0855

> <Gold.Chemscore.DEInternal.Weighted>
1.6952

> <Gold.Chemscore.Rot.Weighted>
3.3882

> <Gold.Chemscore.Internal.Correction.Weighted>
   9.000000E+99

> <Gold.Protein.RotatedTorsions>
[ 6907 6896 6895 6894 ] final  112.99 input  -60.11 | X-H torsion
[ 7974 7965 7964 7962 ] final -166.74 input  175.53 | X-H torsion
[ 8008 7997 7996 7995 ] final    3.78 input   59.86 | X-H torsion
[ 10167 10162 10161 10158 ] final   59.52 input  -65.29 | X-H torsion
[ 10718 10713 10712 10709 ] final -153.58 input   66.30 | X-H torsion
[ 10763 10752 10751 10750 ] final   74.34 input  -60.55 | X-H torsion
[ 11005 11000 10999 10996 ] final -171.29 input  -57.11 | X-H torsion

> <Gold.Protein.ActiveResidues>
 VAL166  LYS551  ARG553  GLY616  TRP617  ASP618  TYR619  PRO620  LYS621  CYS622 
 ASP623  PHE694  ASN695  SER759  ASP760  ASP761  ALA762  ILE779  LEU786  VAL792 
 PHE793  MET794  SER795  GLU796  ALA797  LYS798  CYS799  TRP800  GLU811  SER814 

> <Gold.Protein.RotatedAtoms>
  152.4886  133.8438  159.7166 H   0  0  0  0  0  0  0  0  0  0  0  0  # atno 6907 bound_to 6896
  150.8994  133.7129  159.2889 H   0  0  0  0  0  0  0  0  0  0  0  0  # atno 6908 bound_to 6896
  151.4575  135.1039  159.9767 H   0  0  0  0  0  0  0  0  0  0  0  0  # atno 6909 bound_to 6896
  144.7238  140.2621  143.6263 H   0  0  0  0  0  0  0  0  0  0  0  0  # atno 7974 bound_to 7965
  154.7079  140.2686  155.6657 H   0  0  0  0  0  0  0  0  0  0  0  0  # atno 8008 bound_to 7997
  156.2786  140.2759  156.1635 H   0  0  0  0  0  0  0  0  0  0  0  0  # atno 8009 bound_to 7997
  155.0675  140.0372  157.2587 H   0  0  0  0  0  0  0  0  0  0  0  0  # atno 8010 bound_to 7997
  140.1755  144.4234  150.6640 H   0  0  0  0  0  0  0  0  0  0  0  0  # atno 10167 bound_to 10162
  156.4877  130.8333  151.2557 H   0  0  0  0  0  0  0  0  0  0  0  0  # atno 10718 bound_to 10713
  153.0580  135.5029  154.8028 H   0  0  0  0  0  0  0  0  0  0  0  0  # atno 10763 bound_to 10752
  154.6838  135.2973  154.9578 H   0  0  0  0  0  0  0  0  0  0  0  0  # atno 10764 bound_to 10752
  154.0355  135.6724  153.4837 H   0  0  0  0  0  0  0  0  0  0  0  0  # atno 10765 bound_to 10752
  140.5098  134.5812  157.5015 H   0  0  0  0  0  0  0  0  0  0  0  0  # atno 11005 bound_to 11000
  145.8125  139.2009  143.1985 LP  0  0  0  0  0  0  0  0  0  0  0  0  # atno 17320 bound_to 7965
  146.0583  140.7997  142.9747 LP  0  0  0  0  0  0  0  0  0  0  0  0  # atno 17321 bound_to 7965
  140.6554  143.2236  151.5981 LP  0  0  0  0  0  0  0  0  0  0  0  0  # atno 17342 bound_to 10162
  139.5319  144.2892  152.1166 LP  0  0  0  0  0  0  0  0  0  0  0  0  # atno 17343 bound_to 10162
  157.7477  131.0024  150.2998 LP  0  0  0  0  0  0  0  0  0  0  0  0  # atno 17370 bound_to 10713
  156.3458  130.3823  149.7370 LP  0  0  0  0  0  0  0  0  0  0  0  0  # atno 17371 bound_to 10713
  139.9665  134.7364  156.0128 LP  0  0  0  0  0  0  0  0  0  0  0  0  # atno 17394 bound_to 11000
  141.1391  133.6568  156.3679 LP  0  0  0  0  0  0  0  0  0  0  0  0  # atno 17395 bound_to 11000

$$$$
