AV-unprocessed.smi:1241|AV-procd|sdf|5215|dock10
  -GOLD-   22720 4313D 1   1.00000     0.00000
 Structure written by MMmdl.
 38 39  0  0  0  0  0  0  0  0  1 V2000
  147.3568  142.5458  157.6993 C   0  0  0  0  0  0  0  0  0  0  0  0
  147.7461  140.8893  157.0006 S   0  0  0  0  0  0  0  0  0  0  0  0
  149.2023  140.8018  156.8114 O   0  0  0  0  0  0  0  0  0  0  0  0
  147.0539  139.8747  157.8101 O   0  0  0  0  0  0  0  0  0  0  0  0
  147.0055  140.9104  155.4260 N   0  0  0  0  0  0  0  0  0  0  0  0
  147.8444  141.0355  154.2166 C   0  0  0  0  0  0  0  0  0  0  0  0
  148.0391  139.6809  153.5124 C   0  0  0  0  0  0  0  0  0  0  0  0
  146.6912  139.0023  153.2167 C   0  0  0  0  0  0  0  0  0  0  0  0
  146.8921  137.6865  152.6155 N   0  0  0  0  0  0  0  0  0  0  0  0
  145.9138  136.8227  152.3059 C   0  0  0  0  0  0  0  0  0  0  0  0
  144.7195  137.0551  152.4952 O   0  0  0  0  0  0  0  0  0  0  0  0
  146.4112  135.6958  151.7657 N   0  0  0  0  0  0  0  0  0  0  0  0
  145.7031  134.5379  151.3455 C   0  0  0  0  0  0  0  0  0  0  0  0
  146.5107  133.4836  150.8617 C   0  0  0  0  0  0  0  0  0  0  0  0
  145.9039  132.2893  150.4267 C   0  0  0  0  0  0  0  0  0  0  0  0
  144.5033  132.1792  150.4881 C   0  0  0  0  0  0  0  0  0  0  0  0
  143.7731  133.2755  150.9830 C   0  0  0  0  0  0  0  0  0  0  0  0
  144.3525  134.4212  151.3994 N   0  0  0  0  0  0  0  0  0  0  0  0
  145.8957  138.8656  154.5228 C   0  0  0  0  0  0  0  0  0  0  0  0
  145.7127  140.2296  155.2114 C   0  0  0  0  0  0  0  0  0  0  0  0
  147.7723  142.6137  158.7044 H   0  0  0  0  0  0  0  0  0  0  0  0
  146.2783  142.6821  157.7533 H   0  0  0  0  0  0  0  0  0  0  0  0
  147.8011  143.3232  157.0803 H   0  0  0  0  0  0  0  0  0  0  0  0
  147.3592  141.7332  153.5331 H   0  0  0  0  0  0  0  0  0  0  0  0
  148.8102  141.4738  154.4667 H   0  0  0  0  0  0  0  0  0  0  0  0
  148.5923  139.8342  152.5851 H   0  0  0  0  0  0  0  0  0  0  0  0
  148.6566  139.0272  154.1277 H   0  0  0  0  0  0  0  0  0  0  0  0
  146.1180  139.6286  152.5303 H   0  0  0  0  0  0  0  0  0  0  0  0
  147.8453  137.4149  152.4244 H   0  0  0  0  0  0  0  0  0  0  0  0
  147.4129  135.6568  151.6506 H   0  0  0  0  0  0  0  0  0  0  0  0
  147.5857  133.5843  150.8225 H   0  0  0  0  0  0  0  0  0  0  0  0
  146.5035  131.4722  150.0538 H   0  0  0  0  0  0  0  0  0  0  0  0
  144.0018  131.2791  150.1649 H   0  0  0  0  0  0  0  0  0  0  0  0
  142.6960  133.2315  151.0481 H   0  0  0  0  0  0  0  0  0  0  0  0
  144.9172  138.4295  154.3184 H   0  0  0  0  0  0  0  0  0  0  0  0
  146.4015  138.1743  155.1961 H   0  0  0  0  0  0  0  0  0  0  0  0
  145.1851  140.1087  156.1570 H   0  0  0  0  0  0  0  0  0  0  0  0
  145.0860  140.8701  154.5899 H   0  0  0  0  0  0  0  0  0  0  0  0
  1  2  1  0  0  0  0
  1 21  1  0  0  0  0
  1 22  1  0  0  0  0
  1 23  1  0  0  0  0
  2  3  2  0  0  0  0
  2  4  2  0  0  0  0
  2  5  1  0  0  0  0
  5 20  1  0  0  0  0
  5  6  1  0  0  0  0
  6  7  1  0  0  0  0
  6 24  1  0  0  0  0
  6 25  1  0  0  0  0
  7  8  1  0  0  0  0
  7 26  1  0  0  0  0
  7 27  1  0  0  0  0
  8  9  1  0  0  0  0
  8 19  1  0  0  0  0
  8 28  1  0  0  0  0
  9 10  1  0  0  0  0
  9 29  1  0  0  0  0
 10 11  2  0  0  0  0
 10 12  1  0  0  0  0
 12 13  1  0  0  0  0
 12 30  1  0  0  0  0
 13 18  1  0  0  0  0
 13 14  2  0  0  0  0
 14 15  1  0  0  0  0
 14 31  1  0  0  0  0
 15 16  2  0  0  0  0
 15 32  1  0  0  0  0
 16 17  1  0  0  0  0
 16 33  1  0  0  0  0
 17 18  2  0  0  0  0
 17 34  1  0  0  0  0
 19 20  1  0  0  0  0
 19 35  1  0  0  0  0
 19 36  1  0  0  0  0
 20 37  1  0  0  0  0
 20 38  1  0  0  0  0
M  END
> <s_m_source_file>
AV-unprocessed.smi

> <i_m_source_file_index>
1241

> <i_lp_mmshare_version>
43012

> <i_f3d_flags>
0

> <s_epik_input>
W0NIM11TKD1PKSg9TylOMVtDSDJdW0NIMl1bQ0hdKFtDSDJdW0NIMl0xKVtOSF1DKD1PKVtOSF1jMltjSF1bY0hdW2NIXVtjSF1uMg==

> <s_epik_cmdline>
J2VwaWtfcHl0aG9uJywgJy1waCcsICc3LjAnLCAnLXRuJywgJzgnLCAnLW1hJywgJzIwMCcsICctbWV0YWxfYmluZGluZycsICctaW1hZScsICc8aW5maWxlLm1hZT4nLCAnLW9tYWUnLCAnPG91dGZpbGUubWFlPic=

> <r_lp_tautomer_probability>
1

> <r_epik_Ionization_Penalty>
4.62702e-05

> <r_epik_Ionization_Penalty_Charging>
0

> <r_epik_Ionization_Penalty_Neutral>
4.62702e-05

> <r_epik_State_Penalty>
-0

> <r_epik_Charging_Adjusted_Penalty>
0

> <i_epik_Tot_Q>
0

> <i_epik_Tot_abs_Q>
0

> <r_epik_Metal_State_Penalty>
-0

> <b_epik_Metal_Only>
0

> <s_lp_Force_Field>
OPLS_2005

> <r_lp_Energy>
3.28241

> <b_lp_Chiralities_Consistent>
1

> <s_lp_Variant>
AV-unprocessed.smi:1241-1

> <Gold.Version>
5.8.1

> <Gold.Id.Protein>
6NUR|6NUR_protein|mol2

> <Gold.PLP.Fitness>
35.6182

> <Gold.PLP.PLP>
-26.7045

> <Gold.PLP.part.hbond>
-2.3522

> <Gold.PLP.part.metal>
0.0000

> <Gold.PLP.part.buried>
-3.1706

> <Gold.PLP.part.nonpolar>
-22.0688

> <Gold.PLP.part.repulsive>
0.5246

> <Gold.PLP.ligand.clash>
0.0000

> <Gold.PLP.ligand.torsion>
1.0431

> <Gold.PLP.Chemscore.Hbond>
1.9920

> <Gold.PLP.Chemscore.CHOScore>
0.9905

> <Gold.PLP.Chemscore.Metal>
0.0000

> <Gold.Chemscore.Hbonds>
donor molecule, donor type, donor heavy atom, donor atom, acceptor molecule, acceptor atom, score
      L1  H     9    29       P1  7948  0.99
      L1  H    12    30       P1  7948  1.00
      L1  C    17    34       P1 10186  0.92

> <Gold.PLP.Chemscore.Internal.Correction>
2.0523

> <Gold.Rescore>
     Score         DG    S(hbond)    S(metal)    S(lipo)     H(rot)  DE(clash)    DE(int)     intcor
     11.81     -16.28       1.94        0.00      58.85       1.00       1.03       3.43       ----

> <Gold.Chemscore.Fitness>
11.8125

> <Gold.Chemscore.DG>
-16.2755

> <Gold.Chemscore.ZeroCoef>
-5.4800

> <Gold.Chemscore.Hbond>
1.9373

> <Gold.Chemscore.Metal>
0.0000

> <Gold.Chemscore.Lipo>
58.8458

> <Gold.Chemscore.Internal_Hbond>
0.0000

> <Gold.Chemscore.DEClash>
1.0282

> <Gold.Chemscore.DEInternal>
3.4348

> <Gold.Chemscore.Rot>
1.0000

> <Gold.Chemscore.Internal.Correction>
   9.000000E+99

> <Gold.Chemscore.Hbonds>
donor molecule, donor type, donor heavy atom, donor atom, acceptor molecule, acceptor atom, score
      L1  H     9    29       P1  7948  0.93
      L1  H    12    30       P1  7948  0.97

> <Gold.Chemscore.Hbond.Weighted>
-6.4705

> <Gold.Chemscore.Metal.Weighted>
-0.0000

> <Gold.Chemscore.Lipo.Weighted>
-6.8850

> <Gold.Chemscore.Internal_Hbond.Weighted>
0.0000

> <Gold.Chemscore.DEClash.Weighted>
1.0282

> <Gold.Chemscore.DEInternal.Weighted>
3.4348

> <Gold.Chemscore.Rot.Weighted>
2.5600

> <Gold.Chemscore.Internal.Correction.Weighted>
   9.000000E+99

> <Gold.Protein.RotatedTorsions>
[ 6907 6896 6895 6894 ] final   80.42 input  -60.11 | X-H torsion
[ 7974 7965 7964 7962 ] final  104.01 input  175.53 | X-H torsion
[ 8008 7997 7996 7995 ] final   50.79 input   59.86 | X-H torsion
[ 10167 10162 10161 10158 ] final   83.91 input  -65.29 | X-H torsion
[ 10718 10713 10712 10709 ] final   35.32 input   66.30 | X-H torsion
[ 10763 10752 10751 10750 ] final  137.26 input  -60.55 | X-H torsion
[ 11005 11000 10999 10996 ] final  128.54 input  -57.11 | X-H torsion

> <Gold.Protein.ActiveResidues>
 VAL166  LYS551  ARG553  GLY616  TRP617  ASP618  TYR619  PRO620  LYS621  CYS622 
 ASP623  PHE694  ASN695  SER759  ASP760  ASP761  ALA762  ILE779  LEU786  VAL792 
 PHE793  MET794  SER795  GLU796  ALA797  LYS798  CYS799  TRP800  GLU811  SER814 

> <Gold.Protein.RotatedAtoms>
  152.5234  134.3360  159.9199 H   0  0  0  0  0  0  0  0  0  0  0  0  # atno 6907 bound_to 6896
  151.3309  133.3994  159.2670 H   0  0  0  0  0  0  0  0  0  0  0  0  # atno 6908 bound_to 6896
  150.9881  134.9240  159.7941 H   0  0  0  0  0  0  0  0  0  0  0  0  # atno 6909 bound_to 6896
  145.3384  139.2468  143.3623 H   0  0  0  0  0  0  0  0  0  0  0  0  # atno 7974 bound_to 7965
  155.4246  140.3448  155.4274 H   0  0  0  0  0  0  0  0  0  0  0  0  # atno 8008 bound_to 7997
  156.1373  140.1531  156.9006 H   0  0  0  0  0  0  0  0  0  0  0  0  # atno 8009 bound_to 7997
  154.4942  140.0832  156.7641 H   0  0  0  0  0  0  0  0  0  0  0  0  # atno 8010 bound_to 7997
  139.9135  144.6257  150.8513 H   0  0  0  0  0  0  0  0  0  0  0  0  # atno 10167 bound_to 10162
  157.3212  130.7449  149.6786 H   0  0  0  0  0  0  0  0  0  0  0  0  # atno 10718 bound_to 10713
  153.8701  135.3057  155.3441 H   0  0  0  0  0  0  0  0  0  0  0  0  # atno 10763 bound_to 10752
  154.7810  135.4836  153.9846 H   0  0  0  0  0  0  0  0  0  0  0  0  # atno 10764 bound_to 10752
  153.1411  135.6824  153.9121 H   0  0  0  0  0  0  0  0  0  0  0  0  # atno 10765 bound_to 10752
  139.9566  134.9611  156.9017 H   0  0  0  0  0  0  0  0  0  0  0  0  # atno 11005 bound_to 11000
  146.3017  140.3976  142.8701 LP  0  0  0  0  0  0  0  0  0  0  0  0  # atno 17320 bound_to 7965
  144.8809  140.7399  143.5987 LP  0  0  0  0  0  0  0  0  0  0  0  0  # atno 17321 bound_to 7965
  140.7680  143.3348  151.2332 LP  0  0  0  0  0  0  0  0  0  0  0  0  # atno 17342 bound_to 10162
  139.6922  143.9672  152.2865 LP  0  0  0  0  0  0  0  0  0  0  0  0  # atno 17343 bound_to 10162
  155.9686  130.4222  150.4507 LP  0  0  0  0  0  0  0  0  0  0  0  0  # atno 17370 bound_to 10713
  157.2523  131.0549  151.2372 LP  0  0  0  0  0  0  0  0  0  0  0  0  # atno 17371 bound_to 10713
  140.5595  134.0549  155.7394 LP  0  0  0  0  0  0  0  0  0  0  0  0  # atno 17394 bound_to 11000
  141.1238  133.9416  157.2676 LP  0  0  0  0  0  0  0  0  0  0  0  0  # atno 17395 bound_to 11000

$$$$
