AV-unprocessed.smi:1575|AV-procd|sdf|6341|dock4
  -GOLD-   22720 6553D 1   1.00000     0.00000
 Structure written by MMmdl.
 40 40  0  0  0  0  0  0  0  0  2 V2000
  148.6903  138.8719  154.1359 C   0  0  0  0  0  0  0  0  0  0  0  0
  149.0484  137.4711  154.2947 N   0  0  0  0  0  0  0  0  0  0  0  0
  149.0249  136.8138  155.4631 C   0  0  0  0  0  0  0  0  0  0  0  0
  148.6873  137.3420  156.5242 O   0  0  0  0  0  0  0  0  0  0  0  0
  149.4242  135.3291  155.4161 C   0  0  2  0  0  0  0  0  0  0  0  0
  148.4019  134.5876  154.5209 C   0  0  0  0  0  0  0  0  0  0  0  0
  148.9932  133.4909  153.6037 C   0  0  0  0  0  0  0  0  0  0  0  0
  147.9451  132.8841  152.6567 C   0  0  0  0  0  0  0  0  0  0  0  0
  149.6625  132.3908  154.4412 C   0  0  0  0  0  0  0  0  0  0  0  0
  149.3726  134.7467  156.7544 N   0  0  0  0  0  0  0  0  0  0  0  0
  148.2833  134.6460  157.5345 C   0  0  0  0  0  0  0  0  0  0  0  0
  147.1640  135.0029  157.1678 O   0  0  0  0  0  0  0  0  0  0  0  0
  148.4652  134.0689  158.9490 C   0  0  0  0  0  0  0  0  0  0  0  0
  148.0261  134.9635  160.0367 N   0  0  0  0  0  0  0  0  0  0  0  0
  147.2299  134.4104  161.0552 C   0  0  0  0  0  0  0  0  0  0  0  0
  146.8024  135.1442  162.1003 C   0  0  0  0  0  0  0  0  0  0  0  0
  147.1856  136.5492  162.1604 C   0  0  0  0  0  0  0  0  0  0  0  0
  146.8054  137.2341  163.1081 O   0  0  0  0  0  0  0  0  0  0  0  0
  147.9588  137.0400  161.1479 N   0  5  0  0  0  0  0  0  0  0  0  0
  148.3877  136.2817  160.0918 C   0  0  0  0  0  0  0  0  0  0  0  0
  149.0958  136.7414  159.1955 O   0  0  0  0  0  0  0  0  0  0  0  0
  148.8386  139.1781  153.1006 H   0  0  0  0  0  0  0  0  0  0  0  0
  149.3085  139.5073  154.7717 H   0  0  0  0  0  0  0  0  0  0  0  0
  147.6430  139.0347  154.3933 H   0  0  0  0  0  0  0  0  0  0  0  0
  149.3356  136.9692  153.4669 H   0  0  0  0  0  0  0  0  0  0  0  0
  150.4306  135.2318  155.0056 H   0  0  0  0  0  0  0  0  0  0  0  0
  147.6400  134.1289  155.1546 H   0  0  0  0  0  0  0  0  0  0  0  0
  147.8727  135.3135  153.9014 H   0  0  0  0  0  0  0  0  0  0  0  0
  149.7773  133.9332  152.9881 H   0  0  0  0  0  0  0  0  0  0  0  0
  147.1062  132.4619  153.2104 H   0  0  0  0  0  0  0  0  0  0  0  0
  148.3798  132.0870  152.0529 H   0  0  0  0  0  0  0  0  0  0  0  0
  147.5518  133.6282  151.9646 H   0  0  0  0  0  0  0  0  0  0  0  0
  148.9412  131.8894  155.0869 H   0  0  0  0  0  0  0  0  0  0  0  0
  150.4485  132.8024  155.0751 H   0  0  0  0  0  0  0  0  0  0  0  0
  150.1212  131.6348  153.8031 H   0  0  0  0  0  0  0  0  0  0  0  0
  150.2492  134.4248  157.1391 H   0  0  0  0  0  0  0  0  0  0  0  0
  147.9335  133.1177  159.0089 H   0  0  0  0  0  0  0  0  0  0  0  0
  149.5180  133.8128  159.0746 H   0  0  0  0  0  0  0  0  0  0  0  0
  146.9973  133.3620  160.9392 H   0  0  0  0  0  0  0  0  0  0  0  0
  146.1944  134.7032  162.8764 H   0  0  0  0  0  0  0  0  0  0  0  0
  1  2  1  0  0  0  0
  1 22  1  0  0  0  0
  1 23  1  0  0  0  0
  1 24  1  0  0  0  0
  2  3  1  0  0  0  0
  2 25  1  0  0  0  0
  3  4  2  0  0  0  0
  3  5  1  0  0  0  0
  5  6  1  0  0  0  0
  5 10  1  0  0  0  0
  5 26  1  0  0  0  0
  6  7  1  0  0  0  0
  6 27  1  0  0  0  0
  6 28  1  0  0  0  0
  7  8  1  0  0  0  0
  7  9  1  0  0  0  0
  7 29  1  0  0  0  0
  8 30  1  0  0  0  0
  8 31  1  0  0  0  0
  8 32  1  0  0  0  0
  9 33  1  0  0  0  0
  9 34  1  0  0  0  0
  9 35  1  0  0  0  0
 10 11  1  0  0  0  0
 10 36  1  0  0  0  0
 11 12  2  0  0  0  0
 11 13  1  0  0  0  0
 13 14  1  0  0  0  0
 13 37  1  0  0  0  0
 13 38  1  0  0  0  0
 14 20  1  0  0  0  0
 14 15  1  0  0  0  0
 15 16  2  0  0  0  0
 15 39  1  0  0  0  0
 16 17  1  0  0  0  0
 16 40  1  0  0  0  0
 17 18  2  0  0  0  0
 17 19  1  0  0  0  0
 19 20  1  0  0  0  0
 20 21  2  0  0  0  0
M  CHG  1  19  -1
M  END
> <s_m_source_file>
AV-unprocessed.smi

> <i_m_source_file_index>
1575

> <i_lp_mmshare_version>
43012

> <i_f3d_flags>
0

> <s_epik_input>
W0NIM11bTkhdQyg9TylbQ0BIXShbQ0gyXVtDSF0oW0NIM10pW0NIM10pW05IXUMoPU8pW0NIMl1uMVtjSF1bY0hdYyg9TylbbkhdYzE9Tw==

> <s_epik_cmdline>
J2VwaWtfcHl0aG9uJywgJy1waCcsICc3LjAnLCAnLXRuJywgJzgnLCAnLW1hJywgJzIwMCcsICctbWV0YWxfYmluZGluZycsICctaW1hZScsICc8aW5maWxlLm1hZT4nLCAnLW9tYWUnLCAnPG91dGZpbGUubWFlPic=

> <r_lp_tautomer_probability>
0.999537

> <r_epik_Ionization_Penalty>
3.03017

> <r_epik_Ionization_Penalty_Charging>
2.35557e-08

> <r_epik_Ionization_Penalty_Neutral>
3.03017

> <r_epik_State_Penalty>
3.02913

> <r_epik_Charging_Adjusted_Penalty>
3.02913

> <i_epik_Tot_Q>
-1

> <i_epik_Tot_abs_Q>
1

> <r_epik_Metal_State_Penalty>
0.455824

> <b_epik_Metal_Only>
1

> <s_lp_Force_Field>
OPLS_2005

> <r_lp_Energy>
14.6611

> <b_lp_Chiralities_Consistent>
1

> <s_lp_Variant>
AV-unprocessed.smi:1575-3

> <Gold.Version>
5.8.1

> <Gold.Id.Protein>
6NUR|6NUR_protein|mol2

> <Gold.PLP.Fitness>
39.6361

> <Gold.PLP.PLP>
-27.2655

> <Gold.PLP.part.hbond>
-3.0000

> <Gold.PLP.part.metal>
0.0000

> <Gold.PLP.part.buried>
-2.4270

> <Gold.PLP.part.nonpolar>
-23.2556

> <Gold.PLP.part.repulsive>
0.0631

> <Gold.PLP.ligand.clash>
0.0000

> <Gold.PLP.ligand.torsion>
0.7210

> <Gold.PLP.Chemscore.Hbond>
4.5840

> <Gold.PLP.Chemscore.CHOScore>
0.0000

> <Gold.PLP.Chemscore.Metal>
0.0000

> <Gold.Chemscore.Hbonds>
donor molecule, donor type, donor heavy atom, donor atom, acceptor molecule, acceptor atom, score
      L1  H     2    25       P1  7948  1.00
      P1  H  6931  6943       L1    19  2.00
      P1  H  6934  6947       L1    19  1.15

> <Gold.PLP.Chemscore.Internal.Correction>
0.0605

> <Gold.Rescore>
     Score         DG    S(hbond)    S(metal)    S(lipo)     H(rot)  DE(clash)    DE(int)     intcor
      5.06     -11.22       2.23        0.00      45.33       2.74       0.42       5.74       ----

> <Gold.Chemscore.Fitness>
5.0554

> <Gold.Chemscore.DG>
-11.2175

> <Gold.Chemscore.ZeroCoef>
-5.4800

> <Gold.Chemscore.Hbond>
2.2328

> <Gold.Chemscore.Metal>
0.0000

> <Gold.Chemscore.Lipo>
45.3268

> <Gold.Chemscore.Internal_Hbond>
0.0000

> <Gold.Chemscore.DEClash>
0.4241

> <Gold.Chemscore.DEInternal>
5.7381

> <Gold.Chemscore.Rot>
2.7435

> <Gold.Chemscore.Internal.Correction>
   9.000000E+99

> <Gold.Chemscore.Hbonds>
donor molecule, donor type, donor heavy atom, donor atom, acceptor molecule, acceptor atom, score
      L1  H     2    25       P1  7948  0.92
      P1  H  6931  6943       L1    19  0.53
      P1  H  6934  6947       L1    19  0.19

> <Gold.Chemscore.Hbond.Weighted>
-7.4576

> <Gold.Chemscore.Metal.Weighted>
-0.0000

> <Gold.Chemscore.Lipo.Weighted>
-5.3032

> <Gold.Chemscore.Internal_Hbond.Weighted>
0.0000

> <Gold.Chemscore.DEClash.Weighted>
0.4241

> <Gold.Chemscore.DEInternal.Weighted>
5.7381

> <Gold.Chemscore.Rot.Weighted>
7.0233

> <Gold.Chemscore.Internal.Correction.Weighted>
   9.000000E+99

> <Gold.Protein.RotatedTorsions>
[ 6907 6896 6895 6894 ] final  -20.70 input  -60.11 | X-H torsion
[ 7974 7965 7964 7962 ] final  -30.67 input  175.53 | X-H torsion
[ 8008 7997 7996 7995 ] final  -42.20 input   59.86 | X-H torsion
[ 10167 10162 10161 10158 ] final  113.58 input  -65.29 | X-H torsion
[ 10718 10713 10712 10709 ] final -163.00 input   66.30 | X-H torsion
[ 10763 10752 10751 10750 ] final -179.11 input  -60.55 | X-H torsion
[ 11005 11000 10999 10996 ] final  -93.24 input  -57.11 | X-H torsion

> <Gold.Protein.ActiveResidues>
 VAL166  LYS551  ARG553  GLY616  TRP617  ASP618  TYR619  PRO620  LYS621  CYS622 
 ASP623  PHE694  ASN695  SER759  ASP760  ASP761  ALA762  ILE779  LEU786  VAL792 
 PHE793  MET794  SER795  GLU796  ALA797  LYS798  CYS799  TRP800  GLU811  SER814 

> <Gold.Protein.RotatedAtoms>
  151.2443  135.0600  159.9036 H   0  0  0  0  0  0  0  0  0  0  0  0  # atno 6907 bound_to 6896
  152.5389  134.0400  159.8073 H   0  0  0  0  0  0  0  0  0  0  0  0  # atno 6908 bound_to 6896
  151.0599  133.5504  159.2666 H   0  0  0  0  0  0  0  0  0  0  0  0  # atno 6909 bound_to 6896
  146.1126  140.5569  142.8771 H   0  0  0  0  0  0  0  0  0  0  0  0  # atno 7974 bound_to 7965
  154.4000  140.1479  156.3316 H   0  0  0  0  0  0  0  0  0  0  0  0  # atno 8008 bound_to 7997
  155.8438  140.3461  155.5627 H   0  0  0  0  0  0  0  0  0  0  0  0  # atno 8009 bound_to 7997
  155.8059  140.0877  157.1922 H   0  0  0  0  0  0  0  0  0  0  0  0  # atno 8010 bound_to 7997
  139.6451  144.7126  151.2158 H   0  0  0  0  0  0  0  0  0  0  0  0  # atno 10167 bound_to 10162
  156.6184  130.8880  151.2952 H   0  0  0  0  0  0  0  0  0  0  0  0  # atno 10718 bound_to 10713
  154.5392  135.2805  155.1111 H   0  0  0  0  0  0  0  0  0  0  0  0  # atno 10763 bound_to 10752
  154.2600  135.6323  153.5275 H   0  0  0  0  0  0  0  0  0  0  0  0  # atno 10764 bound_to 10752
  152.9975  135.5603  154.5927 H   0  0  0  0  0  0  0  0  0  0  0  0  # atno 10765 bound_to 10752
  141.1502  133.7875  157.0132 H   0  0  0  0  0  0  0  0  0  0  0  0  # atno 11005 bound_to 11000
  144.7524  140.5225  143.6792 LP  0  0  0  0  0  0  0  0  0  0  0  0  # atno 17320 bound_to 7965
  145.5633  139.1480  143.3329 LP  0  0  0  0  0  0  0  0  0  0  0  0  # atno 17321 bound_to 7965
  140.7510  143.6244  150.8482 LP  0  0  0  0  0  0  0  0  0  0  0  0  # atno 17342 bound_to 10162
  139.9886  143.5871  152.2918 LP  0  0  0  0  0  0  0  0  0  0  0  0  # atno 17343 bound_to 10162
  157.7235  130.9590  150.1534 LP  0  0  0  0  0  0  0  0  0  0  0  0  # atno 17370 bound_to 10713
  156.2332  130.3684  149.8421 LP  0  0  0  0  0  0  0  0  0  0  0  0  # atno 17371 bound_to 10713
  140.0864  134.9618  157.1706 LP  0  0  0  0  0  0  0  0  0  0  0  0  # atno 17394 bound_to 11000
  140.3506  134.2603  155.7199 LP  0  0  0  0  0  0  0  0  0  0  0  0  # atno 17395 bound_to 11000

$$$$
