AV-unprocessed.smi:170|AV-procd|sdf|1406|dock1
  -GOLD-   2262019163D 1   1.00000     0.00000
 Structure written by MMmdl.
 57 61  0  0  0  0  0  0  0  0  1 V2000
  153.6373  140.3172  159.1566 O   0  0  0  0  0  0  0  0  0  0  0  0
  152.3461  140.6935  158.7160 C   0  0  2  0  0  0  0  0  0  0  0  0
  151.9452  139.8198  157.5110 C   0  0  0  0  0  0  0  0  0  0  0  0
  151.4233  138.5239  157.9085 N   0  0  0  0  0  0  0  0  0  0  0  0
  151.5185  137.9414  159.1517 C   0  0  0  0  0  0  0  0  0  0  0  0
  150.9710  136.7612  159.2550 N   0  0  0  0  0  0  0  0  0  0  0  0
  150.4629  136.5095  157.9859 C   0  0  0  0  0  0  0  0  0  0  0  0
  149.7592  135.4242  157.3886 C   0  0  0  0  0  0  0  0  0  0  0  0
  149.4187  134.2763  158.0177 N   0  0  0  0  0  0  0  0  0  0  0  0
  149.5009  133.1413  157.1063 C   0  0  0  0  0  0  0  0  0  0  0  0
  149.3093  131.8280  157.8766 C   0  0  0  0  0  0  0  0  0  0  0  0
  148.0665  131.8720  158.5645 O   0  0  0  0  0  0  0  0  0  0  0  0
  148.0248  132.9249  159.5214 C   0  0  0  0  0  0  0  0  0  0  0  0
  148.1925  134.2964  158.8259 C   0  0  1  0  0  0  0  0  0  0  0  0
  148.1820  135.4604  159.8520 C   0  0  0  0  0  0  0  0  0  0  0  0
  146.9463  135.5031  160.7541 C   0  0  0  0  0  0  0  0  0  0  0  0
  146.8286  136.6111  161.8154 C   0  0  0  0  0  0  0  0  0  0  0  0
  147.3237  135.6073  162.8581 C   0  0  0  0  0  0  0  0  0  0  0  0
  146.8579  134.4975  161.9132 C   0  0  0  0  0  0  0  0  0  0  0  0
  149.3975  135.5406  156.0872 N   0  0  0  0  0  0  0  0  0  0  0  0
  149.7184  136.6411  155.4000 C   0  0  0  0  0  0  0  0  0  0  0  0
  150.3819  137.7223  155.8158 N   0  0  0  0  0  0  0  0  0  0  0  0
  150.7351  137.6124  157.1286 C   0  0  0  0  0  0  0  0  0  0  0  0
  152.3105  142.1977  158.3744 C   0  0  2  0  0  0  0  0  0  0  0  0
  152.7503  143.1768  159.4680 C   0  0  0  0  0  0  0  0  0  0  0  0
  152.0498  144.4419  159.0258 C   0  0  0  0  0  0  0  0  0  0  0  0
  150.7199  143.8980  158.5091 C   0  0  0  0  0  0  0  0  0  0  0  0
  151.0035  142.6053  157.9787 O   0  0  0  0  0  0  0  0  0  0  0  0
  153.7485  140.6226  160.0442 H   0  0  0  0  0  0  0  0  0  0  0  0
  151.6455  140.5058  159.5307 H   0  0  0  0  0  0  0  0  0  0  0  0
  151.1819  140.3233  156.9165 H   0  0  0  0  0  0  0  0  0  0  0  0
  152.7997  139.6628  156.8516 H   0  0  0  0  0  0  0  0  0  0  0  0
  152.0082  138.4233  159.9854 H   0  0  0  0  0  0  0  0  0  0  0  0
  148.7343  133.2356  156.3355 H   0  0  0  0  0  0  0  0  0  0  0  0
  150.4676  133.1337  156.6007 H   0  0  0  0  0  0  0  0  0  0  0  0
  149.3057  130.9835  157.1874 H   0  0  0  0  0  0  0  0  0  0  0  0
  150.1264  131.6644  158.5811 H   0  0  0  0  0  0  0  0  0  0  0  0
  147.0649  132.8648  160.0329 H   0  0  0  0  0  0  0  0  0  0  0  0
  148.7984  132.7716  160.2760 H   0  0  0  0  0  0  0  0  0  0  0  0
  147.3487  134.4180  158.1476 H   0  0  0  0  0  0  0  0  0  0  0  0
  149.0803  135.4006  160.4673 H   0  0  0  0  0  0  0  0  0  0  0  0
  148.2530  136.4156  159.3324 H   0  0  0  0  0  0  0  0  0  0  0  0
  146.0286  135.4507  160.1680 H   0  0  0  0  0  0  0  0  0  0  0  0
  147.4867  137.4684  161.6734 H   0  0  0  0  0  0  0  0  0  0  0  0
  145.7972  136.9229  161.9881 H   0  0  0  0  0  0  0  0  0  0  0  0
  148.4074  135.6300  162.9847 H   0  0  0  0  0  0  0  0  0  0  0  0
  146.8014  135.6447  163.8143 H   0  0  0  0  0  0  0  0  0  0  0  0
  145.8359  134.1733  162.1165 H   0  0  0  0  0  0  0  0  0  0  0  0
  147.5404  133.6500  161.8399 H   0  0  0  0  0  0  0  0  0  0  0  0
  149.4007  136.6558  154.3679 H   0  0  0  0  0  0  0  0  0  0  0  0
  152.9392  142.3673  157.4986 H   0  0  0  0  0  0  0  0  0  0  0  0
  152.3813  142.8816  160.4505 H   0  0  0  0  0  0  0  0  0  0  0  0
  153.8331  143.2874  159.5294 H   0  0  0  0  0  0  0  0  0  0  0  0
  151.9295  145.1709  159.8277 H   0  0  0  0  0  0  0  0  0  0  0  0
  152.6051  144.9132  158.2137 H   0  0  0  0  0  0  0  0  0  0  0  0
  150.0126  143.7848  159.3312 H   0  0  0  0  0  0  0  0  0  0  0  0
  150.2666  144.5477  157.7602 H   0  0  0  0  0  0  0  0  0  0  0  0
  1  2  1  0  0  0  0
  1 29  1  0  0  0  0
  2  3  1  0  0  0  0
  2 24  1  0  0  0  0
  2 30  1  0  0  0  0
  3  4  1  0  0  0  0
  3 31  1  0  0  0  0
  3 32  1  0  0  0  0
  4 23  1  0  0  0  0
  4  5  1  0  0  0  0
  5  6  2  0  0  0  0
  5 33  1  0  0  0  0
  6  7  1  0  0  0  0
  7 23  2  0  0  0  0
  7  8  1  0  0  0  0
  8  9  1  0  0  0  0
  8 20  2  0  0  0  0
  9 14  1  0  0  0  0
  9 10  1  0  0  0  0
 10 11  1  0  0  0  0
 10 34  1  0  0  0  0
 10 35  1  0  0  0  0
 11 12  1  0  0  0  0
 11 36  1  0  0  0  0
 11 37  1  0  0  0  0
 12 13  1  0  0  0  0
 13 14  1  0  0  0  0
 13 38  1  0  0  0  0
 13 39  1  0  0  0  0
 14 15  1  0  0  0  0
 14 40  1  0  0  0  0
 15 16  1  0  0  0  0
 15 41  1  0  0  0  0
 15 42  1  0  0  0  0
 16 19  1  0  0  0  0
 16 17  1  0  0  0  0
 16 43  1  0  0  0  0
 17 18  1  0  0  0  0
 17 44  1  0  0  0  0
 17 45  1  0  0  0  0
 18 19  1  0  0  0  0
 18 46  1  0  0  0  0
 18 47  1  0  0  0  0
 19 48  1  0  0  0  0
 19 49  1  0  0  0  0
 20 21  1  0  0  0  0
 21 22  2  0  0  0  0
 21 50  1  0  0  0  0
 22 23  1  0  0  0  0
 24 28  1  0  0  0  0
 24 25  1  0  0  0  0
 24 51  1  0  0  0  0
 25 26  1  0  0  0  0
 25 52  1  0  0  0  0
 25 53  1  0  0  0  0
 26 27  1  0  0  0  0
 26 54  1  0  0  0  0
 26 55  1  0  0  0  0
 27 28  1  0  0  0  0
 27 56  1  0  0  0  0
 27 57  1  0  0  0  0
M  END
> <s_m_source_file>
AV-unprocessed.smi

> <i_m_source_file_index>
170

> <i_lp_mmshare_version>
43012

> <i_f3d_flags>
0

> <s_epik_input>
TzFbQ0gyXVtDSDJdW0NIMl1bQ0BIXTFbQ0BIXShbT0hdKVtDSDJdbihbY0hdbjIpYyhjMjMpbltjSF1uYzNONFtDSDJdW0NIMl1PW0NIMl1bQ0BIXTRbQ0gyXVtDSF01W0NIMl1bQ0gyXVtDSDJdNQ==

> <s_epik_cmdline>
J2VwaWtfcHl0aG9uJywgJy1waCcsICc3LjAnLCAnLXRuJywgJzgnLCAnLW1hJywgJzIwMCcsICctbWV0YWxfYmluZGluZycsICctaW1hZScsICc8aW5maWxlLm1hZT4nLCAnLW9tYWUnLCAnPG91dGZpbGUubWFlPic=

> <r_lp_tautomer_probability>
1

> <r_epik_Ionization_Penalty>
4.98275e-05

> <r_epik_Ionization_Penalty_Charging>
0

> <r_epik_Ionization_Penalty_Neutral>
4.98275e-05

> <r_epik_State_Penalty>
-0

> <r_epik_Charging_Adjusted_Penalty>
0

> <i_epik_Tot_Q>
0

> <i_epik_Tot_abs_Q>
0

> <r_epik_Metal_State_Penalty>
-0

> <b_epik_Metal_Only>
0

> <s_lp_Force_Field>
OPLS_2005

> <r_lp_Energy>
54.7181

> <b_lp_Chiralities_Consistent>
1

> <s_lp_Variant>
AV-unprocessed.smi:170-1

> <Gold.Version>
5.8.1

> <Gold.Id.Protein>
6NUR|6NUR_protein|mol2

> <Gold.PLP.Fitness>
49.6187

> <Gold.PLP.PLP>
-40.7175

> <Gold.PLP.part.hbond>
-3.0000

> <Gold.PLP.part.metal>
0.0000

> <Gold.PLP.part.buried>
-5.3350

> <Gold.PLP.part.nonpolar>
-31.8458

> <Gold.PLP.part.repulsive>
0.1461

> <Gold.PLP.ligand.clash>
0.0000

> <Gold.PLP.ligand.torsion>
1.1678

> <Gold.PLP.Chemscore.Hbond>
2.7840

> <Gold.PLP.Chemscore.CHOScore>
0.7719

> <Gold.PLP.Chemscore.Metal>
0.0000

> <Gold.Chemscore.Hbonds>
donor molecule, donor type, donor heavy atom, donor atom, acceptor molecule, acceptor atom, score
      P1  H  6896  6908       L1     9  1.00
      P1  H  6896  6909       L1     6  0.91
      P1  H  7997  8008       L1     1  0.33
      L1  C    21    50       P1  7948  0.93

> <Gold.PLP.Chemscore.Internal.Correction>
0.5690

> <Gold.Rescore>
     Score         DG    S(hbond)    S(metal)    S(lipo)     H(rot)  DE(clash)    DE(int)     intcor
     15.79     -17.19       1.58        0.00     112.15       2.61       0.25       1.16       ----

> <Gold.Chemscore.Fitness>
15.7872

> <Gold.Chemscore.DG>
-17.1928

> <Gold.Chemscore.ZeroCoef>
-5.4800

> <Gold.Chemscore.Hbond>
1.5822

> <Gold.Chemscore.Metal>
0.0000

> <Gold.Chemscore.Lipo>
112.1458

> <Gold.Chemscore.Internal_Hbond>
0.0000

> <Gold.Chemscore.DEClash>
0.2483

> <Gold.Chemscore.DEInternal>
1.1573

> <Gold.Chemscore.Rot>
2.6144

> <Gold.Chemscore.Internal.Correction>
   9.000000E+99

> <Gold.Chemscore.Hbonds>
donor molecule, donor type, donor heavy atom, donor atom, acceptor molecule, acceptor atom, score
      P1  H  6896  6908       L1     9  0.09
      P1  H  6896  6909       L1     6  0.62
      P1  H  7997  8008       L1     1  0.15

> <Gold.Chemscore.Hbond.Weighted>
-5.2847

> <Gold.Chemscore.Metal.Weighted>
-0.0000

> <Gold.Chemscore.Lipo.Weighted>
-13.1211

> <Gold.Chemscore.Internal_Hbond.Weighted>
0.0000

> <Gold.Chemscore.DEClash.Weighted>
0.2483

> <Gold.Chemscore.DEInternal.Weighted>
1.1573

> <Gold.Chemscore.Rot.Weighted>
6.6929

> <Gold.Chemscore.Internal.Correction.Weighted>
   9.000000E+99

> <Gold.Protein.RotatedTorsions>
[ 6907 6896 6895 6894 ] final  121.83 input  -60.11 | X-H torsion
[ 7974 7965 7964 7962 ] final   67.08 input  175.53 | X-H torsion
[ 8008 7997 7996 7995 ] final -102.08 input   59.86 | X-H torsion
[ 10167 10162 10161 10158 ] final -129.50 input  -65.29 | X-H torsion
[ 10718 10713 10712 10709 ] final  -46.38 input   66.30 | X-H torsion
[ 10763 10752 10751 10750 ] final   31.62 input  -60.55 | X-H torsion
[ 11005 11000 10999 10996 ] final  168.36 input  -57.11 | X-H torsion

> <Gold.Protein.ActiveResidues>
 VAL166  LYS551  ARG553  GLY616  TRP617  ASP618  TYR619  PRO620  LYS621  CYS622 
 ASP623  PHE694  ASN695  SER759  ASP760  ASP761  ALA762  ILE779  LEU786  VAL792 
 PHE793  MET794  SER795  GLU796  ALA797  LYS798  CYS799  TRP800  GLU811  SER814 

> <Gold.Protein.RotatedAtoms>
  152.4291  133.7246  159.6552 H   0  0  0  0  0  0  0  0  0  0  0  0  # atno 6907 bound_to 6896
  150.8169  133.8311  159.3162 H   0  0  0  0  0  0  0  0  0  0  0  0  # atno 6908 bound_to 6896
  151.6005  135.1050  160.0111 H   0  0  0  0  0  0  0  0  0  0  0  0  # atno 6909 bound_to 6896
  145.8189  139.3074  143.1055 H   0  0  0  0  0  0  0  0  0  0  0  0  # atno 7974 bound_to 7965
  154.8517  140.0430  157.1608 H   0  0  0  0  0  0  0  0  0  0  0  0  # atno 8008 bound_to 7997
  154.8936  140.2990  155.5336 H   0  0  0  0  0  0  0  0  0  0  0  0  # atno 8009 bound_to 7997
  156.2996  140.2389  156.3955 H   0  0  0  0  0  0  0  0  0  0  0  0  # atno 8010 bound_to 7997
  139.9391  143.6184  152.2508 H   0  0  0  0  0  0  0  0  0  0  0  0  # atno 10167 bound_to 10162
  156.2188  130.4165  149.9019 H   0  0  0  0  0  0  0  0  0  0  0  0  # atno 10718 bound_to 10713
  153.0306  135.6434  154.1228 H   0  0  0  0  0  0  0  0  0  0  0  0  # atno 10763 bound_to 10752
  154.0951  135.2863  155.3265 H   0  0  0  0  0  0  0  0  0  0  0  0  # atno 10764 bound_to 10752
  154.6438  135.5450  153.7883 H   0  0  0  0  0  0  0  0  0  0  0  0  # atno 10765 bound_to 10752
  140.2865  134.7708  157.3802 H   0  0  0  0  0  0  0  0  0  0  0  0  # atno 11005 bound_to 11000
  145.9696  140.8771  143.0169 LP  0  0  0  0  0  0  0  0  0  0  0  0  # atno 17320 bound_to 7965
  144.6749  140.1927  143.7395 LP  0  0  0  0  0  0  0  0  0  0  0  0  # atno 17321 bound_to 7965
  139.6719  144.7660  151.1767 LP  0  0  0  0  0  0  0  0  0  0  0  0  # atno 17342 bound_to 10162
  140.7616  143.5852  150.8853 LP  0  0  0  0  0  0  0  0  0  0  0  0  # atno 17343 bound_to 10162
  156.6672  130.8806  151.3556 LP  0  0  0  0  0  0  0  0  0  0  0  0  # atno 17370 bound_to 10713
  157.7077  130.9404  150.0985 LP  0  0  0  0  0  0  0  0  0  0  0  0  # atno 17371 bound_to 10713
  140.1235  134.5188  155.8164 LP  0  0  0  0  0  0  0  0  0  0  0  0  # atno 17394 bound_to 11000
  141.2154  133.6764  156.6909 LP  0  0  0  0  0  0  0  0  0  0  0  0  # atno 17395 bound_to 11000

$$$$
