AV-unprocessed.smi:1624|AV-procd|sdf|6503|dock6
  -GOLD-   22720 7173D 1   1.00000     0.00000
 Structure written by MMmdl.
 36 37  0  0  0  0  0  0  0  0  1 V2000
  149.4321  134.9617  158.2475 O   0  0  0  0  0  0  0  0  0  0  0  0
  149.1315  136.1544  158.1866 C   0  0  0  0  0  0  0  0  0  0  0  0
  149.4523  136.9453  157.1527 N   0  0  0  0  0  0  0  0  0  0  0  0
  150.1872  136.5167  155.9695 C   0  0  0  0  0  0  0  0  0  0  0  0
  151.5162  137.2801  155.8192 C   0  0  0  0  0  0  0  0  0  0  0  0
  151.2784  138.7007  155.5370 N   0  0  0  0  0  0  0  0  0  0  0  0
  150.4018  138.9989  154.3922 C   0  0  0  0  0  0  0  0  0  0  0  0
  149.0216  139.5678  154.7971 C   0  0  0  0  0  0  0  0  0  0  0  0
  148.9747  140.3833  156.1045 C   0  0  0  0  0  0  0  0  0  0  0  0
  150.0077  141.5258  156.1982 C   0  0  0  0  0  0  0  0  0  0  0  0
  151.4877  141.1386  155.9649 C   0  0  0  0  0  0  0  0  0  0  0  0
  151.8199  139.6771  156.3064 C   0  0  0  0  0  0  0  0  0  0  0  0
  152.5553  139.4455  157.2665 O   0  0  0  0  0  0  0  0  0  0  0  0
  148.4507  136.8352  159.1250 N   0  0  0  0  0  0  0  0  0  0  0  0
  147.9371  136.3596  160.3605 C   0  0  0  0  0  0  0  0  0  0  0  0
  147.5580  137.1613  161.3680 N   0  0  0  0  0  0  0  0  0  0  0  0
  147.0920  136.4391  162.4592 N   0  0  0  0  0  0  0  0  0  0  0  0
  147.1376  135.1234  162.2318 C   0  0  0  0  0  0  0  0  0  0  0  0
  147.7541  134.6377  160.6621 S   0  0  0  0  0  0  0  0  0  0  0  0
  149.1666  137.9130  157.1837 H   0  0  0  0  0  0  0  0  0  0  0  0
  150.3665  135.4408  156.0107 H   0  0  0  0  0  0  0  0  0  0  0  0
  149.5513  136.6903  155.1012 H   0  0  0  0  0  0  0  0  0  0  0  0
  152.1121  137.1731  156.7273 H   0  0  0  0  0  0  0  0  0  0  0  0
  152.1210  136.8287  155.0319 H   0  0  0  0  0  0  0  0  0  0  0  0
  150.9083  139.6975  153.7261 H   0  0  0  0  0  0  0  0  0  0  0  0
  150.2432  138.1145  153.7743 H   0  0  0  0  0  0  0  0  0  0  0  0
  148.6358  140.1718  153.9754 H   0  0  0  0  0  0  0  0  0  0  0  0
  148.3239  138.7364  154.9025 H   0  0  0  0  0  0  0  0  0  0  0  0
  147.9747  140.8017  156.2211 H   0  0  0  0  0  0  0  0  0  0  0  0
  149.0978  139.7106  156.9546 H   0  0  0  0  0  0  0  0  0  0  0  0
  149.7376  142.3061  155.4859 H   0  0  0  0  0  0  0  0  0  0  0  0
  149.9170  141.9861  157.1827 H   0  0  0  0  0  0  0  0  0  0  0  0
  151.7678  141.3324  154.9299 H   0  0  0  0  0  0  0  0  0  0  0  0
  152.1268  141.7977  156.5540 H   0  0  0  0  0  0  0  0  0  0  0  0
  148.2771  137.8104  158.9319 H   0  0  0  0  0  0  0  0  0  0  0  0
  146.8056  134.4337  162.9934 H   0  0  0  0  0  0  0  0  0  0  0  0
  1  2  2  0  0  0  0
  2  3  1  0  0  0  0
  2 14  1  0  0  0  0
  3  4  1  0  0  0  0
  3 20  1  0  0  0  0
  4  5  1  0  0  0  0
  4 21  1  0  0  0  0
  4 22  1  0  0  0  0
  5  6  1  0  0  0  0
  5 23  1  0  0  0  0
  5 24  1  0  0  0  0
  6 12  1  0  0  0  0
  6  7  1  0  0  0  0
  7  8  1  0  0  0  0
  7 25  1  0  0  0  0
  7 26  1  0  0  0  0
  8  9  1  0  0  0  0
  8 27  1  0  0  0  0
  8 28  1  0  0  0  0
  9 10  1  0  0  0  0
  9 29  1  0  0  0  0
  9 30  1  0  0  0  0
 10 11  1  0  0  0  0
 10 31  1  0  0  0  0
 10 32  1  0  0  0  0
 11 12  1  0  0  0  0
 11 33  1  0  0  0  0
 11 34  1  0  0  0  0
 12 13  2  0  0  0  0
 14 15  1  0  0  0  0
 14 35  1  0  0  0  0
 15 19  1  0  0  0  0
 15 16  2  0  0  0  0
 16 17  1  0  0  0  0
 17 18  2  0  0  0  0
 18 19  1  0  0  0  0
 18 36  1  0  0  0  0
M  END
> <s_m_source_file>
AV-unprocessed.smi

> <i_m_source_file_index>
1624

> <i_lp_mmshare_version>
43012

> <i_f3d_flags>
0

> <s_epik_input>
czFbY0hdbm5jMVtOSF1DKD1PKVtOSF1bQ0gyXVtDSDJdTjJbQ0gyXVtDSDJdW0NIMl1bQ0gyXVtDSDJdQzI9Tw==

> <s_epik_cmdline>
J2VwaWtfcHl0aG9uJywgJy1waCcsICc3LjAnLCAnLXRuJywgJzgnLCAnLW1hJywgJzIwMCcsICctbWV0YWxfYmluZGluZycsICctaW1hZScsICc8aW5maWxlLm1hZT4nLCAnLW9tYWUnLCAnPG91dGZpbGUubWFlPic=

> <r_lp_tautomer_probability>
1

> <r_epik_Ionization_Penalty>
0.00222419

> <r_epik_Ionization_Penalty_Charging>
0

> <r_epik_Ionization_Penalty_Neutral>
0.00222419

> <r_epik_State_Penalty>
-0

> <r_epik_Charging_Adjusted_Penalty>
0

> <i_epik_Tot_Q>
0

> <i_epik_Tot_abs_Q>
0

> <r_epik_Metal_State_Penalty>
0.3454

> <b_epik_Metal_Only>
0

> <s_lp_Force_Field>
OPLS_2005

> <r_lp_Energy>
20.1162

> <b_lp_Chiralities_Consistent>
1

> <s_lp_Variant>
AV-unprocessed.smi:1624-1

> <Gold.Version>
5.8.1

> <Gold.Id.Protein>
6NUR|6NUR_protein|mol2

> <Gold.PLP.Fitness>
39.4171

> <Gold.PLP.PLP>
-28.1020

> <Gold.PLP.part.hbond>
-4.0000

> <Gold.PLP.part.metal>
0.0000

> <Gold.PLP.part.buried>
-4.4428

> <Gold.PLP.part.nonpolar>
-19.5695

> <Gold.PLP.part.repulsive>
0.1991

> <Gold.PLP.ligand.clash>
0.0000

> <Gold.PLP.ligand.torsion>
0.1079

> <Gold.PLP.Chemscore.Hbond>
3.8400

> <Gold.PLP.Chemscore.CHOScore>
0.0000

> <Gold.PLP.Chemscore.Metal>
0.0000

> <Gold.Chemscore.Hbonds>
donor molecule, donor type, donor heavy atom, donor atom, acceptor molecule, acceptor atom, score
      P1  H  6896  6908       L1     1  1.00
      P1  H  6931  6943       L1    16  0.96
      P1  H  6934  6947       L1    16  0.88
      P1  H  7997  8010       L1    13  0.94

> <Gold.PLP.Chemscore.Internal.Correction>
0.0109

> <Gold.Rescore>
     Score         DG    S(hbond)    S(metal)    S(lipo)     H(rot)  DE(clash)    DE(int)     intcor
     16.39     -18.02       3.21        0.00      53.94       1.76       0.38       1.24       ----

> <Gold.Chemscore.Fitness>
16.3943

> <Gold.Chemscore.DG>
-18.0166

> <Gold.Chemscore.ZeroCoef>
-5.4800

> <Gold.Chemscore.Hbond>
3.2140

> <Gold.Chemscore.Metal>
0.0000

> <Gold.Chemscore.Lipo>
53.9422

> <Gold.Chemscore.Internal_Hbond>
0.0000

> <Gold.Chemscore.DEClash>
0.3789

> <Gold.Chemscore.DEInternal>
1.2434

> <Gold.Chemscore.Rot>
1.7615

> <Gold.Chemscore.Internal.Correction>
   9.000000E+99

> <Gold.Chemscore.Hbonds>
donor molecule, donor type, donor heavy atom, donor atom, acceptor molecule, acceptor atom, score
      P1  H  6896  6908       L1     1  0.98
      P1  H  6931  6943       L1    16  0.51
      P1  H  6934  6947       L1    16  0.82
      P1  H  7997  8010       L1    13  0.23

> <Gold.Chemscore.Hbond.Weighted>
-10.7349

> <Gold.Chemscore.Metal.Weighted>
-0.0000

> <Gold.Chemscore.Lipo.Weighted>
-6.3112

> <Gold.Chemscore.Internal_Hbond.Weighted>
0.0000

> <Gold.Chemscore.DEClash.Weighted>
0.3789

> <Gold.Chemscore.DEInternal.Weighted>
1.2434

> <Gold.Chemscore.Rot.Weighted>
4.5095

> <Gold.Chemscore.Internal.Correction.Weighted>
   9.000000E+99

> <Gold.Protein.RotatedTorsions>
[ 6907 6896 6895 6894 ] final  157.64 input  -60.11 | X-H torsion
[ 7974 7965 7964 7962 ] final  113.77 input  175.53 | X-H torsion
[ 8008 7997 7996 7995 ] final   68.65 input   59.86 | X-H torsion
[ 10167 10162 10161 10158 ] final -115.26 input  -65.29 | X-H torsion
[ 10718 10713 10712 10709 ] final -164.13 input   66.30 | X-H torsion
[ 10763 10752 10751 10750 ] final  -70.78 input  -60.55 | X-H torsion
[ 11005 11000 10999 10996 ] final  120.07 input  -57.11 | X-H torsion

> <Gold.Protein.ActiveResidues>
 VAL166  LYS551  ARG553  GLY616  TRP617  ASP618  TYR619  PRO620  LYS621  CYS622 
 ASP623  PHE694  ASN695  SER759  ASP760  ASP761  ALA762  ILE779  LEU786  VAL792 
 PHE793  MET794  SER795  GLU796  ALA797  LYS798  CYS799  TRP800  GLU811  SER814 

> <Gold.Protein.RotatedAtoms>
  152.0122  133.3865  159.4223 H   0  0  0  0  0  0  0  0  0  0  0  0  # atno 6907 bound_to 6896
  150.6898  134.3718  159.5005 H   0  0  0  0  0  0  0  0  0  0  0  0  # atno 6908 bound_to 6896
  152.1480  134.9010  160.0600 H   0  0  0  0  0  0  0  0  0  0  0  0  # atno 6909 bound_to 6896
  145.2127  139.2898  143.4260 H   0  0  0  0  0  0  0  0  0  0  0  0  # atno 7974 bound_to 7965
  155.7116  140.3494  155.4976 H   0  0  0  0  0  0  0  0  0  0  0  0  # atno 8008 bound_to 7997
  155.9351  140.1091  157.1123 H   0  0  0  0  0  0  0  0  0  0  0  0  # atno 8009 bound_to 7997
  154.4092  140.1223  156.4840 H   0  0  0  0  0  0  0  0  0  0  0  0  # atno 8010 bound_to 7997
  140.0920  143.4691  152.1864 H   0  0  0  0  0  0  0  0  0  0  0  0  # atno 10167 bound_to 10162
  156.6346  130.8944  151.2984 H   0  0  0  0  0  0  0  0  0  0  0  0  # atno 10718 bound_to 10713
  154.4225  135.5983  153.6018 H   0  0  0  0  0  0  0  0  0  0  0  0  # atno 10763 bound_to 10752
  152.9794  135.5955  154.3938 H   0  0  0  0  0  0  0  0  0  0  0  0  # atno 10764 bound_to 10752
  154.3765  135.2841  155.2214 H   0  0  0  0  0  0  0  0  0  0  0  0  # atno 10765 bound_to 10752
  139.9171  134.9632  156.7750 H   0  0  0  0  0  0  0  0  0  0  0  0  # atno 11005 bound_to 11000
  146.3394  140.2408  142.8595 LP  0  0  0  0  0  0  0  0  0  0  0  0  # atno 17320 bound_to 7965
  144.9840  140.8486  143.5380 LP  0  0  0  0  0  0  0  0  0  0  0  0  # atno 17321 bound_to 7965
  139.5719  144.7467  151.3867 LP  0  0  0  0  0  0  0  0  0  0  0  0  # atno 17342 bound_to 10162
  140.7023  143.7600  150.7424 LP  0  0  0  0  0  0  0  0  0  0  0  0  # atno 17343 bound_to 10162
  157.7189  130.9533  150.1363 LP  0  0  0  0  0  0  0  0  0  0  0  0  # atno 17370 bound_to 10713
  156.2207  130.3674  149.8559 LP  0  0  0  0  0  0  0  0  0  0  0  0  # atno 17371 bound_to 10713
  140.6590  133.9662  155.7794 LP  0  0  0  0  0  0  0  0  0  0  0  0  # atno 17394 bound_to 11000
  141.0656  134.0281  157.3598 LP  0  0  0  0  0  0  0  0  0  0  0  0  # atno 17395 bound_to 11000

$$$$
