AV-unprocessed.smi:234|AV-procd|sdf|1789|dock7
  -GOLD-   2262020343D 1   1.00000     0.00000
 Structure written by MMmdl.
 59 62  0  0  0  0  0  0  0  0  1 V2000
  152.2258  144.5295  159.5868 C   0  0  0  0  0  0  0  0  0  0  0  0
  152.9984  143.3398  160.1730 C   0  0  0  0  0  0  0  0  0  0  0  0
  152.8612  142.1866  159.3572 O   0  0  0  0  0  0  0  0  0  0  0  0
  151.5461  141.6389  159.3327 C   0  0  2  0  0  0  0  0  0  0  0  0
  151.6070  140.1336  159.0717 C   0  0  0  0  0  0  0  0  0  0  0  0
  151.5604  140.4818  157.5768 C   0  0  1  0  0  0  0  0  0  0  0  0
  150.7564  139.5590  156.7677 N   0  0  0  0  0  0  0  0  0  0  0  0
  150.9869  139.5383  155.3267 C   0  0  0  0  0  0  0  0  0  0  0  0
  150.5183  138.3185  157.2635 C   0  0  0  0  0  0  0  0  0  0  0  0
  151.4791  137.3582  157.1980 N   0  0  0  0  0  0  0  0  0  0  0  0
  151.2403  136.1330  157.6745 C   0  0  0  0  0  0  0  0  0  0  0  0
  150.1302  135.6612  158.2452 N   0  0  0  0  0  0  0  0  0  0  0  0
  149.1616  136.6194  158.3097 C   0  0  0  0  0  0  0  0  0  0  0  0
  149.2696  137.9591  157.8417 C   0  0  0  0  0  0  0  0  0  0  0  0
  148.0818  138.6412  158.0762 N   0  0  0  0  0  0  0  0  0  0  0  0
  147.3159  137.7555  158.6528 C   0  0  0  0  0  0  0  0  0  0  0  0
  147.8870  136.5166  158.8390 N   0  0  0  0  0  0  0  0  0  0  0  0
  147.2664  135.3568  159.4604 C   0  0  0  0  0  0  0  0  0  0  0  0
  146.9068  135.5798  160.9485 C   0  0  2  0  0  0  0  0  0  0  0  0
  145.7255  136.3635  161.0128 O   0  0  0  0  0  0  0  0  0  0  0  0
  147.9945  136.2762  161.7525 C   0  0  0  0  0  0  0  0  0  0  0  0
  147.6810  135.8428  163.1789 C   0  0  0  0  0  0  0  0  0  0  0  0
  147.2128  134.5059  163.0590 O   0  0  0  0  0  0  0  0  0  0  0  0
  146.7326  134.2633  161.7371 C   0  0  1  0  0  0  0  0  0  0  0  0
  145.3185  133.6615  161.7701 C   0  0  0  0  0  0  0  0  0  0  0  0
  150.8462  141.8086  157.9604 C   0  0  0  0  0  0  0  0  0  0  0  0
  149.3106  141.7976  158.0393 C   0  0  0  0  0  0  0  0  0  0  0  0
  151.2365  143.0565  157.1637 C   0  0  0  0  0  0  0  0  0  0  0  0
  152.3725  145.4224  160.1942 H   0  0  0  0  0  0  0  0  0  0  0  0
  151.1547  144.3339  159.5419 H   0  0  0  0  0  0  0  0  0  0  0  0
  152.5665  144.7545  158.5759 H   0  0  0  0  0  0  0  0  0  0  0  0
  154.0581  143.5910  160.2178 H   0  0  0  0  0  0  0  0  0  0  0  0
  152.6847  143.1290  161.1965 H   0  0  0  0  0  0  0  0  0  0  0  0
  150.9197  141.9039  160.1865 H   0  0  0  0  0  0  0  0  0  0  0  0
  152.5268  139.6492  159.4009 H   0  0  0  0  0  0  0  0  0  0  0  0
  150.7231  139.6033  159.4303 H   0  0  0  0  0  0  0  0  0  0  0  0
  152.5597  140.6581  157.1742 H   0  0  0  0  0  0  0  0  0  0  0  0
  151.3728  138.5748  154.9894 H   0  0  0  0  0  0  0  0  0  0  0  0
  151.7088  140.2985  155.0312 H   0  0  0  0  0  0  0  0  0  0  0  0
  150.0552  139.7363  154.7969 H   0  0  0  0  0  0  0  0  0  0  0  0
  152.0555  135.4303  157.5847 H   0  0  0  0  0  0  0  0  0  0  0  0
  146.3085  137.9846  158.9691 H   0  0  0  0  0  0  0  0  0  0  0  0
  146.3737  135.0965  158.8903 H   0  0  0  0  0  0  0  0  0  0  0  0
  147.9498  134.5127  159.3582 H   0  0  0  0  0  0  0  0  0  0  0  0
  145.7299  136.8425  161.8274 H   0  0  0  0  0  0  0  0  0  0  0  0
  148.9748  135.8897  161.4711 H   0  0  0  0  0  0  0  0  0  0  0  0
  148.0122  137.3595  161.6252 H   0  0  0  0  0  0  0  0  0  0  0  0
  148.5467  135.9064  163.8383 H   0  0  0  0  0  0  0  0  0  0  0  0
  146.8865  136.4595  163.6010 H   0  0  0  0  0  0  0  0  0  0  0  0
  147.4086  133.5163  161.3188 H   0  0  0  0  0  0  0  0  0  0  0  0
  144.9456  133.4803  160.7619 H   0  0  0  0  0  0  0  0  0  0  0  0
  144.6123  134.3173  162.2797 H   0  0  0  0  0  0  0  0  0  0  0  0
  145.3179  132.7088  162.2995 H   0  0  0  0  0  0  0  0  0  0  0  0
  148.8535  141.7961  157.0496 H   0  0  0  0  0  0  0  0  0  0  0  0
  148.9354  142.6745  158.5674 H   0  0  0  0  0  0  0  0  0  0  0  0
  148.9328  140.9218  158.5672 H   0  0  0  0  0  0  0  0  0  0  0  0
  150.7264  143.1010  156.2015 H   0  0  0  0  0  0  0  0  0  0  0  0
  152.3069  143.0851  156.9587 H   0  0  0  0  0  0  0  0  0  0  0  0
  150.9875  143.9680  157.7076 H   0  0  0  0  0  0  0  0  0  0  0  0
  1  2  1  0  0  0  0
  1 29  1  0  0  0  0
  1 30  1  0  0  0  0
  1 31  1  0  0  0  0
  2  3  1  0  0  0  0
  2 32  1  0  0  0  0
  2 33  1  0  0  0  0
  3  4  1  0  0  0  0
  4 26  1  0  0  0  0
  4  5  1  0  0  0  0
  4 34  1  0  0  0  0
  5  6  1  0  0  0  0
  5 35  1  0  0  0  0
  5 36  1  0  0  0  0
  6  7  1  0  0  0  0
  6 26  1  0  0  0  0
  6 37  1  0  0  0  0
  7  8  1  0  0  0  0
  7  9  1  0  0  0  0
  8 38  1  0  0  0  0
  8 39  1  0  0  0  0
  8 40  1  0  0  0  0
  9 14  1  0  0  0  0
  9 10  2  0  0  0  0
 10 11  1  0  0  0  0
 11 12  2  0  0  0  0
 11 41  1  0  0  0  0
 12 13  1  0  0  0  0
 13 17  1  0  0  0  0
 13 14  2  0  0  0  0
 14 15  1  0  0  0  0
 15 16  2  0  0  0  0
 16 17  1  0  0  0  0
 16 42  1  0  0  0  0
 17 18  1  0  0  0  0
 18 19  1  0  0  0  0
 18 43  1  0  0  0  0
 18 44  1  0  0  0  0
 19 24  1  0  0  0  0
 19 20  1  0  0  0  0
 19 21  1  0  0  0  0
 20 45  1  0  0  0  0
 21 22  1  0  0  0  0
 21 46  1  0  0  0  0
 21 47  1  0  0  0  0
 22 23  1  0  0  0  0
 22 48  1  0  0  0  0
 22 49  1  0  0  0  0
 23 24  1  0  0  0  0
 24 25  1  0  0  0  0
 24 50  1  0  0  0  0
 25 51  1  0  0  0  0
 25 52  1  0  0  0  0
 25 53  1  0  0  0  0
 26 27  1  0  0  0  0
 26 28  1  0  0  0  0
 27 54  1  0  0  0  0
 27 55  1  0  0  0  0
 27 56  1  0  0  0  0
 28 57  1  0  0  0  0
 28 58  1  0  0  0  0
 28 59  1  0  0  0  0
M  END
> <s_m_source_file>
AV-unprocessed.smi

> <i_m_source_file_index>
234

> <i_lp_mmshare_version>
43012

> <i_f3d_flags>
0

> <s_epik_input>
W0NIM11bQ0gyXU9bQ0BASF0oQzEoW0NIM10pW0NIM10pW0NIMl1bQ0BIXTFOKFtDSDNdKWMobltjSF1uMiljKGMyMyluW2NIXW4zW0NIMl1bQ0BAXTQoW09IXSlbQ0gyXVtDSDJdT1tDQEhdNFtDSDNd

> <s_epik_cmdline>
J2VwaWtfcHl0aG9uJywgJy1waCcsICc3LjAnLCAnLXRuJywgJzgnLCAnLW1hJywgJzIwMCcsICctbWV0YWxfYmluZGluZycsICctaW1hZScsICc8aW5maWxlLm1hZT4nLCAnLW9tYWUnLCAnPG91dGZpbGUubWFlPic=

> <r_lp_tautomer_probability>
1

> <r_epik_Ionization_Penalty>
0.00349132

> <r_epik_Ionization_Penalty_Charging>
0

> <r_epik_Ionization_Penalty_Neutral>
0.00349132

> <r_epik_State_Penalty>
0.00242418

> <r_epik_Charging_Adjusted_Penalty>
0.00242418

> <i_epik_Tot_Q>
0

> <i_epik_Tot_abs_Q>
0

> <r_epik_Metal_State_Penalty>
-0

> <b_epik_Metal_Only>
0

> <s_lp_Force_Field>
OPLS_2005

> <r_lp_Energy>
49.8598

> <b_lp_Chiralities_Consistent>
1

> <s_lp_Variant>
AV-unprocessed.smi:234-5

> <Gold.Version>
5.8.1

> <Gold.Id.Protein>
6NUR|6NUR_protein|mol2

> <Gold.PLP.Fitness>
41.7902

> <Gold.PLP.PLP>
-42.0597

> <Gold.PLP.part.hbond>
-1.3887

> <Gold.PLP.part.metal>
0.0000

> <Gold.PLP.part.buried>
-5.2719

> <Gold.PLP.part.nonpolar>
-34.7813

> <Gold.PLP.part.repulsive>
0.0045

> <Gold.PLP.ligand.clash>
0.0000

> <Gold.PLP.ligand.torsion>
2.0562

> <Gold.PLP.Chemscore.Hbond>
0.9120

> <Gold.PLP.Chemscore.CHOScore>
0.0000

> <Gold.PLP.Chemscore.Metal>
0.0000

> <Gold.Chemscore.Hbonds>
donor molecule, donor type, donor heavy atom, donor atom, acceptor molecule, acceptor atom, score
      P1  H  6896  6909       L1    12  0.88

> <Gold.PLP.Chemscore.Internal.Correction>
1.1069

> <Gold.Rescore>
     Score         DG    S(hbond)    S(metal)    S(lipo)     H(rot)  DE(clash)    DE(int)     intcor
     12.22     -14.36       0.61        0.00     115.89       2.62       0.08       2.06       ----

> <Gold.Chemscore.Fitness>
12.2194

> <Gold.Chemscore.DG>
-14.3625

> <Gold.Chemscore.ZeroCoef>
-5.4800

> <Gold.Chemscore.Hbond>
0.6093

> <Gold.Chemscore.Metal>
0.0000

> <Gold.Chemscore.Lipo>
115.8922

> <Gold.Chemscore.Internal_Hbond>
0.0000

> <Gold.Chemscore.DEClash>
0.0814

> <Gold.Chemscore.DEInternal>
2.0617

> <Gold.Chemscore.Rot>
2.6219

> <Gold.Chemscore.Internal.Correction>
   9.000000E+99

> <Gold.Chemscore.Hbonds>
donor molecule, donor type, donor heavy atom, donor atom, acceptor molecule, acceptor atom, score
      P1  H  6896  6909       L1    12  0.43

> <Gold.Chemscore.Hbond.Weighted>
-2.0352

> <Gold.Chemscore.Metal.Weighted>
-0.0000

> <Gold.Chemscore.Lipo.Weighted>
-13.5594

> <Gold.Chemscore.Internal_Hbond.Weighted>
0.0000

> <Gold.Chemscore.DEClash.Weighted>
0.0814

> <Gold.Chemscore.DEInternal.Weighted>
2.0617

> <Gold.Chemscore.Rot.Weighted>
6.7121

> <Gold.Chemscore.Internal.Correction.Weighted>
   9.000000E+99

> <Gold.Protein.RotatedTorsions>
[ 6907 6896 6895 6894 ] final   50.95 input  -60.11 | X-H torsion
[ 7974 7965 7964 7962 ] final   -3.14 input  175.53 | X-H torsion
[ 8008 7997 7996 7995 ] final  -10.18 input   59.86 | X-H torsion
[ 10167 10162 10161 10158 ] final   70.61 input  -65.29 | X-H torsion
[ 10718 10713 10712 10709 ] final  -28.36 input   66.30 | X-H torsion
[ 10763 10752 10751 10750 ] final  -21.22 input  -60.55 | X-H torsion
[ 11005 11000 10999 10996 ] final -106.85 input  -57.11 | X-H torsion

> <Gold.Protein.ActiveResidues>
 VAL166  LYS551  ARG553  GLY616  TRP617  ASP618  TYR619  PRO620  LYS621  CYS622 
 ASP623  PHE694  ASN695  SER759  ASP760  ASP761  ALA762  ILE779  LEU786  VAL792 
 PHE793  MET794  SER795  GLU796  ALA797  LYS798  CYS799  TRP800  GLU811  SER814 

> <Gold.Protein.RotatedAtoms>
  152.3074  134.7538  160.0343 H   0  0  0  0  0  0  0  0  0  0  0  0  # atno 6907 bound_to 6896
  151.8031  133.3367  159.3541 H   0  0  0  0  0  0  0  0  0  0  0  0  # atno 6908 bound_to 6896
  150.7303  134.5665  159.5913 H   0  0  0  0  0  0  0  0  0  0  0  0  # atno 6909 bound_to 6896
  146.2394  140.1676  142.8332 H   0  0  0  0  0  0  0  0  0  0  0  0  # atno 7974 bound_to 7965
  154.5578  140.2335  155.8383 H   0  0  0  0  0  0  0  0  0  0  0  0  # atno 8008 bound_to 7997
  156.2003  140.3054  155.9472 H   0  0  0  0  0  0  0  0  0  0  0  0  # atno 8009 bound_to 7997
  155.2947  140.0428  157.3016 H   0  0  0  0  0  0  0  0  0  0  0  0  # atno 8010 bound_to 7997
  140.0551  144.5280  150.7335 H   0  0  0  0  0  0  0  0  0  0  0  0  # atno 10167 bound_to 10162
  156.4263  130.4436  149.7149 H   0  0  0  0  0  0  0  0  0  0  0  0  # atno 10718 bound_to 10713
  153.6327  135.6988  153.5269 H   0  0  0  0  0  0  0  0  0  0  0  0  # atno 10763 bound_to 10752
  153.2846  135.4175  155.1110 H   0  0  0  0  0  0  0  0  0  0  0  0  # atno 10764 bound_to 10752
  154.8518  135.3610  154.5870 H   0  0  0  0  0  0  0  0  0  0  0  0  # atno 10765 bound_to 10752
  141.0984  133.8929  157.1906 H   0  0  0  0  0  0  0  0  0  0  0  0  # atno 11005 bound_to 11000
  145.0038  140.8655  143.5266 LP  0  0  0  0  0  0  0  0  0  0  0  0  # atno 17320 bound_to 7965
  145.1699  139.2410  143.5347 LP  0  0  0  0  0  0  0  0  0  0  0  0  # atno 17321 bound_to 7965
  140.7199  143.2578  151.4314 LP  0  0  0  0  0  0  0  0  0  0  0  0  # atno 17342 bound_to 10162
  139.5929  144.1460  152.2109 LP  0  0  0  0  0  0  0  0  0  0  0  0  # atno 17343 bound_to 10162
  156.4069  130.7703  151.2714 LP  0  0  0  0  0  0  0  0  0  0  0  0  # atno 17370 bound_to 10713
  157.7508  131.0223  150.3786 LP  0  0  0  0  0  0  0  0  0  0  0  0  # atno 17371 bound_to 10713
  139.9827  135.0092  156.9789 LP  0  0  0  0  0  0  0  0  0  0  0  0  # atno 17394 bound_to 11000
  140.5084  134.1027  155.7265 LP  0  0  0  0  0  0  0  0  0  0  0  0  # atno 17395 bound_to 11000

$$$$
