AV-unprocessed.smi:21|AV-procd|sdf|158|dock3
  -GOLD-   2262015393D 1   1.00000     0.00000
 Structure written by MMmdl.
 61 64  0  0  0  0  0  0  0  0  1 V2000
  152.3796  143.3812  161.5398 C   0  0  0  0  0  0  0  0  0  0  0  0
  153.1017  142.1706  161.3799 O   0  0  0  0  0  0  0  0  0  0  0  0
  153.4002  141.8664  160.0248 C   0  0  2  0  0  0  0  0  0  0  0  0
  152.1437  141.7597  159.1408 C   0  0  0  0  0  0  0  0  0  0  0  0
  152.1597  140.3158  158.6137 C   0  0  1  0  0  0  0  0  0  0  0  0
  151.5098  140.1610  157.2203 C   0  0  0  0  0  0  0  0  0  0  0  0
  151.7527  138.8515  156.6148 N   0  0  0  0  0  0  0  0  0  0  0  0
  152.2672  138.8167  155.2465 C   0  0  0  0  0  0  0  0  0  0  0  0
  151.1547  137.7328  157.1223 C   0  0  0  0  0  0  0  0  0  0  0  0
  150.6494  137.7879  158.3851 N   0  0  0  0  0  0  0  0  0  0  0  0
  150.0666  136.7237  158.9413 C   0  0  0  0  0  0  0  0  0  0  0  0
  149.8760  135.5125  158.4206 N   0  0  0  0  0  0  0  0  0  0  0  0
  150.3651  135.4407  157.1508 C   0  0  0  0  0  0  0  0  0  0  0  0
  151.0119  136.4886  156.4303 C   0  0  0  0  0  0  0  0  0  0  0  0
  151.3580  136.0245  155.1645 N   0  0  0  0  0  0  0  0  0  0  0  0
  150.9503  134.7865  155.1416 C   0  0  0  0  0  0  0  0  0  0  0  0
  150.3332  134.3561  156.2914 N   0  0  0  0  0  0  0  0  0  0  0  0
  149.7794  133.0340  156.5304 C   0  0  0  0  0  0  0  0  0  0  0  0
  150.3617  131.9528  155.5877 C   0  0  1  0  0  0  0  0  0  0  0  0
  150.6542  130.6484  156.3658 C   0  0  0  0  0  0  0  0  0  0  0  0
  151.3628  129.7355  155.5536 O   0  0  0  0  0  0  0  0  0  0  0  0
  149.4914  131.7363  154.3175 C   0  0  2  0  0  0  0  0  0  0  0  0
  149.3538  132.9431  153.3923 C   0  0  0  0  0  0  0  0  0  0  0  0
  147.9615  132.7580  152.8053 C   0  0  0  0  0  0  0  0  0  0  0  0
  147.2244  132.2702  153.9127 O   0  0  0  0  0  0  0  0  0  0  0  0
  148.0350  131.3146  154.5851 C   0  0  0  0  0  0  0  0  0  0  0  0
  153.5538  139.9093  158.6794 N   0  0  0  0  0  0  0  0  0  0  0  0
  153.7472  138.4665  158.6177 C   0  0  0  0  0  0  0  0  0  0  0  0
  154.0173  140.4686  159.9339 C   0  0  0  0  0  0  0  0  0  0  0  0
  154.0976  142.5940  159.6053 H   0  0  0  0  0  0  0  0  0  0  0  0
  151.6029  139.7086  159.3294 H   0  0  0  0  0  0  0  0  0  0  0  0
  152.1848  143.5521  162.5984 H   0  0  0  0  0  0  0  0  0  0  0  0
  151.4193  143.3501  161.0247 H   0  0  0  0  0  0  0  0  0  0  0  0
  152.9495  144.2314  161.1631 H   0  0  0  0  0  0  0  0  0  0  0  0
  151.2213  141.9639  159.6855 H   0  0  0  0  0  0  0  0  0  0  0  0
  152.2118  142.4782  158.3230 H   0  0  0  0  0  0  0  0  0  0  0  0
  150.4345  140.3158  157.3136 H   0  0  0  0  0  0  0  0  0  0  0  0
  151.8364  140.9416  156.5369 H   0  0  0  0  0  0  0  0  0  0  0  0
  152.9736  137.9954  155.1197 H   0  0  0  0  0  0  0  0  0  0  0  0
  152.7915  139.7394  154.9979 H   0  0  0  0  0  0  0  0  0  0  0  0
  151.4547  138.6903  154.5301 H   0  0  0  0  0  0  0  0  0  0  0  0
  149.7014  136.8631  159.9482 H   0  0  0  0  0  0  0  0  0  0  0  0
  151.0815  134.1517  154.2773 H   0  0  0  0  0  0  0  0  0  0  0  0
  149.9779  132.7794  157.5720 H   0  0  0  0  0  0  0  0  0  0  0  0
  148.6947  133.0815  156.4293 H   0  0  0  0  0  0  0  0  0  0  0  0
  151.3219  132.3265  155.2280 H   0  0  0  0  0  0  0  0  0  0  0  0
  151.2409  130.8448  157.2632 H   0  0  0  0  0  0  0  0  0  0  0  0
  149.7359  130.1589  156.6879 H   0  0  0  0  0  0  0  0  0  0  0  0
  151.8063  129.1163  156.1134 H   0  0  0  0  0  0  0  0  0  0  0  0
  149.9271  130.9264  153.7312 H   0  0  0  0  0  0  0  0  0  0  0  0
  149.3830  133.8812  153.9448 H   0  0  0  0  0  0  0  0  0  0  0  0
  150.1289  132.9832  152.6273 H   0  0  0  0  0  0  0  0  0  0  0  0
  147.5398  133.6846  152.4156 H   0  0  0  0  0  0  0  0  0  0  0  0
  147.9664  132.0138  152.0071 H   0  0  0  0  0  0  0  0  0  0  0  0
  147.8436  130.3266  154.1637 H   0  0  0  0  0  0  0  0  0  0  0  0
  147.7770  131.2705  155.6429 H   0  0  0  0  0  0  0  0  0  0  0  0
  154.8032  138.2171  158.7255 H   0  0  0  0  0  0  0  0  0  0  0  0
  153.4116  138.0666  157.6612 H   0  0  0  0  0  0  0  0  0  0  0  0
  153.1963  137.9581  159.4102 H   0  0  0  0  0  0  0  0  0  0  0  0
  155.1062  140.4910  159.9886 H   0  0  0  0  0  0  0  0  0  0  0  0
  153.6569  139.8593  160.7650 H   0  0  0  0  0  0  0  0  0  0  0  0
  1  2  1  0  0  0  0
  1 32  1  0  0  0  0
  1 33  1  0  0  0  0
  1 34  1  0  0  0  0
  2  3  1  0  0  0  0
  3 30  1  0  0  0  0
  3 29  1  0  0  0  0
  3  4  1  0  0  0  0
  4  5  1  0  0  0  0
  4 35  1  0  0  0  0
  4 36  1  0  0  0  0
  5 31  1  0  0  0  0
  5  6  1  0  0  0  0
  5 27  1  0  0  0  0
  6  7  1  0  0  0  0
  6 37  1  0  0  0  0
  6 38  1  0  0  0  0
  7  8  1  0  0  0  0
  7  9  1  0  0  0  0
  8 39  1  0  0  0  0
  8 40  1  0  0  0  0
  8 41  1  0  0  0  0
  9 14  1  0  0  0  0
  9 10  2  0  0  0  0
 10 11  1  0  0  0  0
 11 12  2  0  0  0  0
 11 42  1  0  0  0  0
 12 13  1  0  0  0  0
 13 17  1  0  0  0  0
 13 14  2  0  0  0  0
 14 15  1  0  0  0  0
 15 16  2  0  0  0  0
 16 17  1  0  0  0  0
 16 43  1  0  0  0  0
 17 18  1  0  0  0  0
 18 19  1  0  0  0  0
 18 44  1  0  0  0  0
 18 45  1  0  0  0  0
 19 20  1  0  0  0  0
 19 22  1  0  0  0  0
 19 46  1  0  0  0  0
 20 21  1  0  0  0  0
 20 47  1  0  0  0  0
 20 48  1  0  0  0  0
 21 49  1  0  0  0  0
 22 26  1  0  0  0  0
 22 23  1  0  0  0  0
 22 50  1  0  0  0  0
 23 24  1  0  0  0  0
 23 51  1  0  0  0  0
 23 52  1  0  0  0  0
 24 25  1  0  0  0  0
 24 53  1  0  0  0  0
 24 54  1  0  0  0  0
 25 26  1  0  0  0  0
 26 55  1  0  0  0  0
 26 56  1  0  0  0  0
 27 28  1  0  0  0  0
 27 29  1  0  0  0  0
 28 57  1  0  0  0  0
 28 58  1  0  0  0  0
 28 59  1  0  0  0  0
 29 60  1  0  0  0  0
 29 61  1  0  0  0  0
M  END
> <s_m_source_file>
AV-unprocessed.smi

> <i_m_source_file_index>
21

> <i_lp_mmshare_version>
43012

> <i_f3d_flags>
0

> <s_epik_input>
W0NIM11PW0NASF0xW0NIMl1bQ0BIXShOKFtDSDNdKVtDSDJdMSlbQ0gyXU4oW0NIM10pYyhuW2NIXW4yKWMoYzIzKW5bY0hdbjNbQ0gyXVtDQEhdKFtDSDJdW09IXSlbQ0BASF00W0NIMl1bQ0gyXU9bQ0gyXTQ=

> <s_epik_cmdline>
J2VwaWtfcHl0aG9uJywgJy1waCcsICc3LjAnLCAnLXRuJywgJzgnLCAnLW1hJywgJzIwMCcsICctbWV0YWxfYmluZGluZycsICctaW1hZScsICc8aW5maWxlLm1hZT4nLCAnLW9tYWUnLCAnPG91dGZpbGUubWFlPic=

> <r_lp_tautomer_probability>
1

> <r_epik_Ionization_Penalty>
2.17574

> <r_epik_Ionization_Penalty_Charging>
0

> <r_epik_Ionization_Penalty_Neutral>
2.17574

> <r_epik_State_Penalty>
2.31336

> <r_epik_Charging_Adjusted_Penalty>
2.31336

> <i_epik_Tot_Q>
0

> <i_epik_Tot_abs_Q>
0

> <r_epik_Metal_State_Penalty>
2.31025

> <b_epik_Metal_Only>
0

> <s_lp_Force_Field>
OPLS_2005

> <r_lp_Energy>
69.5253

> <b_lp_Chiralities_Consistent>
1

> <s_lp_Variant>
AV-unprocessed.smi:21-38

> <Gold.Version>
5.8.1

> <Gold.Id.Protein>
6NUR|6NUR_protein|mol2

> <Gold.PLP.Fitness>
49.4187

> <Gold.PLP.PLP>
-43.0082

> <Gold.PLP.part.hbond>
-3.0000

> <Gold.PLP.part.metal>
0.0000

> <Gold.PLP.part.buried>
-6.8219

> <Gold.PLP.part.nonpolar>
-34.4710

> <Gold.PLP.part.repulsive>
0.2440

> <Gold.PLP.ligand.clash>
0.0000

> <Gold.PLP.ligand.torsion>
1.1156

> <Gold.PLP.Chemscore.Hbond>
2.6913

> <Gold.PLP.Chemscore.CHOScore>
0.0000

> <Gold.PLP.Chemscore.Metal>
0.0000

> <Gold.Chemscore.Hbonds>
donor molecule, donor type, donor heavy atom, donor atom, acceptor molecule, acceptor atom, score
      P1  H  6896  6908       L1    12  1.00
      P1  H  7997  8008       L1    27  0.34
      P1  H 10752 10764       L1    15  0.65

> <Gold.PLP.Chemscore.Internal.Correction>
0.5680

> <Gold.Rescore>
     Score         DG    S(hbond)    S(metal)    S(lipo)     H(rot)  DE(clash)    DE(int)     intcor
      8.76     -13.61       1.27        0.00      98.96       3.00       0.04       4.81       ----

> <Gold.Chemscore.Fitness>
8.7555

> <Gold.Chemscore.DG>
-13.6090

> <Gold.Chemscore.ZeroCoef>
-5.4800

> <Gold.Chemscore.Hbond>
1.2690

> <Gold.Chemscore.Metal>
0.0000

> <Gold.Chemscore.Lipo>
98.9626

> <Gold.Chemscore.Internal_Hbond>
0.0000

> <Gold.Chemscore.DEClash>
0.0405

> <Gold.Chemscore.DEInternal>
4.8129

> <Gold.Chemscore.Rot>
3.0031

> <Gold.Chemscore.Internal.Correction>
   9.000000E+99

> <Gold.Chemscore.Hbonds>
donor molecule, donor type, donor heavy atom, donor atom, acceptor molecule, acceptor atom, score
      P1  H  6896  6908       L1    12  0.36
      P1  H  7997  8008       L1    27  0.01
      P1  H 10752 10764       L1    15  0.06

> <Gold.Chemscore.Hbond.Weighted>
-4.2383

> <Gold.Chemscore.Metal.Weighted>
-0.0000

> <Gold.Chemscore.Lipo.Weighted>
-11.5786

> <Gold.Chemscore.Internal_Hbond.Weighted>
0.0000

> <Gold.Chemscore.DEClash.Weighted>
0.0405

> <Gold.Chemscore.DEInternal.Weighted>
4.8129

> <Gold.Chemscore.Rot.Weighted>
7.6880

> <Gold.Chemscore.Internal.Correction.Weighted>
   9.000000E+99

> <Gold.Protein.RotatedTorsions>
[ 6907 6896 6895 6894 ] final  162.35 input  -60.11 | X-H torsion
[ 7974 7965 7964 7962 ] final -163.88 input  175.53 | X-H torsion
[ 8008 7997 7996 7995 ] final -110.21 input   59.86 | X-H torsion
[ 10167 10162 10161 10158 ] final -174.78 input  -65.29 | X-H torsion
[ 10718 10713 10712 10709 ] final  129.02 input   66.30 | X-H torsion
[ 10763 10752 10751 10750 ] final  -69.23 input  -60.55 | X-H torsion
[ 11005 11000 10999 10996 ] final  173.47 input  -57.11 | X-H torsion

> <Gold.Protein.ActiveResidues>
 VAL166  LYS551  ARG553  GLY616  TRP617  ASP618  TYR619  PRO620  LYS621  CYS622 
 ASP623  PHE694  ASN695  SER759  ASP760  ASP761  ALA762  ILE779  LEU786  VAL792 
 PHE793  MET794  SER795  GLU796  ALA797  LYS798  CYS799  TRP800  GLU811  SER814 

> <Gold.Protein.RotatedAtoms>
  151.9418  133.3640  159.3967 H   0  0  0  0  0  0  0  0  0  0  0  0  # atno 6907 bound_to 6896
  150.6997  134.4431  159.5311 H   0  0  0  0  0  0  0  0  0  0  0  0  # atno 6908 bound_to 6896
  152.2089  134.8519  160.0550 H   0  0  0  0  0  0  0  0  0  0  0  0  # atno 6909 bound_to 6896
  144.7313  140.3043  143.6199 H   0  0  0  0  0  0  0  0  0  0  0  0  # atno 7974 bound_to 7965
  154.9710  140.0397  157.2234 H   0  0  0  0  0  0  0  0  0  0  0  0  # atno 8008 bound_to 7997
  154.7801  140.2817  155.6048 H   0  0  0  0  0  0  0  0  0  0  0  0  # atno 8009 bound_to 7997
  156.2935  140.2593  156.2624 H   0  0  0  0  0  0  0  0  0  0  0  0  # atno 8010 bound_to 7997
  139.5615  144.1858  152.1246 H   0  0  0  0  0  0  0  0  0  0  0  0  # atno 10167 bound_to 10162
  157.5192  131.1098  150.9179 H   0  0  0  0  0  0  0  0  0  0  0  0  # atno 10718 bound_to 10713
  154.4004  135.6032  153.5894 H   0  0  0  0  0  0  0  0  0  0  0  0  # atno 10763 bound_to 10752
  152.9788  135.5905  154.4191 H   0  0  0  0  0  0  0  0  0  0  0  0  # atno 10764 bound_to 10752
  154.3989  135.2842  155.2087 H   0  0  0  0  0  0  0  0  0  0  0  0  # atno 10765 bound_to 10752
  140.3408  134.7278  157.4201 H   0  0  0  0  0  0  0  0  0  0  0  0  # atno 11005 bound_to 11000
  145.7729  139.1864  143.2202 LP  0  0  0  0  0  0  0  0  0  0  0  0  # atno 17320 bound_to 7965
  146.0896  140.7671  142.9602 LP  0  0  0  0  0  0  0  0  0  0  0  0  # atno 17321 bound_to 7965
  140.1372  144.5235  150.6766 LP  0  0  0  0  0  0  0  0  0  0  0  0  # atno 17342 bound_to 10162
  140.6895  143.2368  151.5169 LP  0  0  0  0  0  0  0  0  0  0  0  0  # atno 17343 bound_to 10162
  156.9795  130.5522  149.5295 LP  0  0  0  0  0  0  0  0  0  0  0  0  # atno 17370 bound_to 10713
  156.0341  130.5430  150.8609 LP  0  0  0  0  0  0  0  0  0  0  0  0  # atno 17371 bound_to 10713
  140.0783  134.5767  155.8568 LP  0  0  0  0  0  0  0  0  0  0  0  0  # atno 17394 bound_to 11000
  141.2039  133.6635  156.6089 LP  0  0  0  0  0  0  0  0  0  0  0  0  # atno 17395 bound_to 11000

$$$$
