AV-unprocessed.smi:1284|AV-procd|sdf|5366|dock3
  -GOLD-   22720 4503D 1   1.00000     0.00000
 Structure written by MMmdl.
 40 42  0  0  0  0  0  0  0  0  2 V2000
  150.7627  144.6804  161.0534 N   0  0  0  0  0  0  0  0  0  0  0  0
  151.4404  145.1065  159.9846 C   0  0  0  0  0  0  0  0  0  0  0  0
  151.8944  146.2470  159.9119 O   0  0  0  0  0  0  0  0  0  0  0  0
  151.6274  144.1085  158.8373 C   0  0  0  0  0  0  0  0  0  0  0  0
  152.2724  142.8434  159.3150 C   0  0  0  0  0  0  0  0  0  0  0  0
  153.2859  142.7607  160.2235 N   0  3  0  0  0  0  0  0  0  0  0  0
  153.6322  141.4248  160.4265 C   0  0  0  0  0  0  0  0  0  0  0  0
  154.5947  140.8503  161.2509 C   0  0  0  0  0  0  0  0  0  0  0  0
  154.6909  139.4437  161.2267 C   0  0  0  0  0  0  0  0  0  0  0  0
  153.8516  138.6653  160.4040 C   0  0  0  0  0  0  0  0  0  0  0  0
  152.8826  139.2597  159.5698 C   0  0  0  0  0  0  0  0  0  0  0  0
  152.7905  140.6515  159.6009 C   0  0  0  0  0  0  0  0  0  0  0  0
  151.9639  141.5680  158.9378 N   0  0  0  0  0  0  0  0  0  0  0  0
  150.9462  141.0810  157.9914 C   0  0  0  0  0  0  0  0  0  0  0  0
  151.5098  140.8587  156.5729 C   0  0  1  0  0  0  0  0  0  0  0  0
  152.5441  139.9001  156.6566 O   0  0  0  0  0  0  0  0  0  0  0  0
  150.4341  140.4635  155.5707 C   0  0  0  0  0  0  0  0  0  0  0  0
  150.4071  139.1658  155.0128 C   0  0  0  0  0  0  0  0  0  0  0  0
  149.3906  138.8036  154.1076 C   0  0  0  0  0  0  0  0  0  0  0  0
  148.3959  139.7356  153.7547 C   0  0  0  0  0  0  0  0  0  0  0  0
  148.4181  141.0304  154.3069 C   0  0  0  0  0  0  0  0  0  0  0  0
  149.4347  141.3935  155.2113 C   0  0  0  0  0  0  0  0  0  0  0  0
  150.6096  145.3078  161.8301 H   0  0  0  0  0  0  0  0  0  0  0  0
  150.3989  143.7388  161.0825 H   0  0  0  0  0  0  0  0  0  0  0  0
  150.6655  143.8673  158.3826 H   0  0  0  0  0  0  0  0  0  0  0  0
  152.2396  144.5677  158.0613 H   0  0  0  0  0  0  0  0  0  0  0  0
  155.2388  141.4446  161.8823 H   0  0  0  0  0  0  0  0  0  0  0  0
  155.4227  138.9521  161.8512 H   0  0  0  0  0  0  0  0  0  0  0  0
  153.9518  137.5897  160.4119 H   0  0  0  0  0  0  0  0  0  0  0  0
  152.2450  138.6497  158.9478 H   0  0  0  0  0  0  0  0  0  0  0  0
  150.5704  140.1388  158.3920 H   0  0  0  0  0  0  0  0  0  0  0  0
  150.0950  141.7620  157.9827 H   0  0  0  0  0  0  0  0  0  0  0  0
  151.9775  141.7815  156.2279 H   0  0  0  0  0  0  0  0  0  0  0  0
  152.2993  139.1486  156.1384 H   0  0  0  0  0  0  0  0  0  0  0  0
  151.1603  138.4406  155.2844 H   0  0  0  0  0  0  0  0  0  0  0  0
  149.3729  137.8096  153.6854 H   0  0  0  0  0  0  0  0  0  0  0  0
  147.6162  139.4575  153.0610 H   0  0  0  0  0  0  0  0  0  0  0  0
  147.6545  141.7452  154.0376 H   0  0  0  0  0  0  0  0  0  0  0  0
  149.4395  142.3866  155.6362 H   0  0  0  0  0  0  0  0  0  0  0  0
  153.7111  143.5633  160.6692 H   0  0  0  0  0  0  0  0  0  0  0  0
  1  2  1  0  0  0  0
  1 23  1  0  0  0  0
  1 24  1  0  0  0  0
  2  3  2  0  0  0  0
  2  4  1  0  0  0  0
  4  5  1  0  0  0  0
  4 25  1  0  0  0  0
  4 26  1  0  0  0  0
  5 13  1  0  0  0  0
  5  6  2  0  0  0  0
  6  7  1  0  0  0  0
  6 40  1  0  0  0  0
  7 12  2  0  0  0  0
  7  8  1  0  0  0  0
  8  9  2  0  0  0  0
  8 27  1  0  0  0  0
  9 10  1  0  0  0  0
  9 28  1  0  0  0  0
 10 11  2  0  0  0  0
 10 29  1  0  0  0  0
 11 12  1  0  0  0  0
 11 30  1  0  0  0  0
 12 13  1  0  0  0  0
 13 14  1  0  0  0  0
 14 15  1  0  0  0  0
 14 31  1  0  0  0  0
 14 32  1  0  0  0  0
 15 16  1  0  0  0  0
 15 17  1  0  0  0  0
 15 33  1  0  0  0  0
 16 34  1  0  0  0  0
 17 22  1  0  0  0  0
 17 18  2  0  0  0  0
 18 19  1  0  0  0  0
 18 35  1  0  0  0  0
 19 20  2  0  0  0  0
 19 36  1  0  0  0  0
 20 21  1  0  0  0  0
 20 37  1  0  0  0  0
 21 22  2  0  0  0  0
 21 38  1  0  0  0  0
 22 39  1  0  0  0  0
M  CHG  1   6   1
M  END
> <s_m_source_file>
AV-unprocessed.smi

> <i_m_source_file_index>
1284

> <i_lp_mmshare_version>
43012

> <i_f3d_flags>
0

> <s_epik_input>
W2NIXTFbY0hdW2NIXVtjSF1jKGMxMiluKGMobjIpW0NIMl1DKD1PKVtOSDJdKVtDSDJdW0NASF0oW09IXSljM1tjSF1bY0hdW2NIXVtjSF1bY0hdMw==

> <s_epik_cmdline>
J2VwaWtfcHl0aG9uJywgJy1waCcsICc3LjAnLCAnLXRuJywgJzgnLCAnLW1hJywgJzIwMCcsICctbWV0YWxfYmluZGluZycsICctaW1hZScsICc8aW5maWxlLm1hZT4nLCAnLW9tYWUnLCAnPG91dGZpbGUubWFlPic=

> <r_epik_Ionization_Penalty>
1.66646

> <r_epik_Ionization_Penalty_Charging>
1.66645

> <r_epik_Ionization_Penalty_Neutral>
1.67657e-06

> <r_epik_State_Penalty>
1.76975

> <r_epik_Charging_Adjusted_Penalty>
3.43621

> <i_epik_Tot_Q>
1

> <i_epik_Tot_abs_Q>
1

> <r_epik_Metal_State_Penalty>
1.80493

> <b_epik_Metal_Only>
0

> <s_lp_Force_Field>
OPLS_2005

> <r_lp_Energy>
14.9388

> <b_lp_Chiralities_Consistent>
1

> <s_lp_Variant>
AV-unprocessed.smi:1284-4

> <Gold.Version>
5.8.1

> <Gold.Id.Protein>
6NUR|6NUR_protein|mol2

> <Gold.PLP.Fitness>
50.5590

> <Gold.PLP.PLP>
-49.1618

> <Gold.PLP.part.hbond>
-3.4763

> <Gold.PLP.part.metal>
0.0000

> <Gold.PLP.part.buried>
-3.6986

> <Gold.PLP.part.nonpolar>
-42.6478

> <Gold.PLP.part.repulsive>
0.3852

> <Gold.PLP.ligand.clash>
0.0000

> <Gold.PLP.ligand.torsion>
0.8186

> <Gold.PLP.Chemscore.Hbond>
1.0000

> <Gold.PLP.Chemscore.CHOScore>
0.0000

> <Gold.PLP.Chemscore.Metal>
0.0000

> <Gold.Chemscore.Hbonds>
donor molecule, donor type, donor heavy atom, donor atom, acceptor molecule, acceptor atom, score
      P1  H  7997  8010       L1    16  1.00

> <Gold.PLP.Chemscore.Internal.Correction>
0.0343

> <Gold.Rescore>
     Score         DG    S(hbond)    S(metal)    S(lipo)     H(rot)  DE(clash)    DE(int)     intcor
     12.31     -13.30       0.90        0.00     105.03       2.92       0.34       0.65       ----

> <Gold.Chemscore.Fitness>
12.3101

> <Gold.Chemscore.DG>
-13.2971

> <Gold.Chemscore.ZeroCoef>
-5.4800

> <Gold.Chemscore.Hbond>
0.9012

> <Gold.Chemscore.Metal>
0.0000

> <Gold.Chemscore.Lipo>
105.0286

> <Gold.Chemscore.Internal_Hbond>
0.0000

> <Gold.Chemscore.DEClash>
0.3390

> <Gold.Chemscore.DEInternal>
0.6481

> <Gold.Chemscore.Rot>
2.9223

> <Gold.Chemscore.Internal.Correction>
   9.000000E+99

> <Gold.Chemscore.Hbonds>
donor molecule, donor type, donor heavy atom, donor atom, acceptor molecule, acceptor atom, score
      P1  H  7997  8010       L1    16  0.50

> <Gold.Chemscore.Hbond.Weighted>
-3.0100

> <Gold.Chemscore.Metal.Weighted>
-0.0000

> <Gold.Chemscore.Lipo.Weighted>
-12.2884

> <Gold.Chemscore.Internal_Hbond.Weighted>
0.0000

> <Gold.Chemscore.DEClash.Weighted>
0.3390

> <Gold.Chemscore.DEInternal.Weighted>
0.6481

> <Gold.Chemscore.Rot.Weighted>
7.4812

> <Gold.Chemscore.Internal.Correction.Weighted>
   9.000000E+99

> <Gold.Protein.RotatedTorsions>
[ 6907 6896 6895 6894 ] final  -95.59 input  -60.11 | X-H torsion
[ 7974 7965 7964 7962 ] final  109.13 input  175.53 | X-H torsion
[ 8008 7997 7996 7995 ] final   78.62 input   59.86 | X-H torsion
[ 10167 10162 10161 10158 ] final  115.28 input  -65.29 | X-H torsion
[ 10718 10713 10712 10709 ] final  147.09 input   66.30 | X-H torsion
[ 10763 10752 10751 10750 ] final  -74.25 input  -60.55 | X-H torsion
[ 11005 11000 10999 10996 ] final   61.59 input  -57.11 | X-H torsion

> <Gold.Protein.ActiveResidues>
 VAL166  LYS551  ARG553  GLY616  TRP617  ASP618  TYR619  PRO620  LYS621  CYS622 
 ASP623  PHE694  ASN695  SER759  ASP760  ASP761  ALA762  ILE779  LEU786  VAL792 
 PHE793  MET794  SER795  GLU796  ALA797  LYS798  CYS799  TRP800  GLU811  SER814 

> <Gold.Protein.RotatedAtoms>
  150.6967  134.1633  159.4184 H   0  0  0  0  0  0  0  0  0  0  0  0  # atno 6907 bound_to 6896
  151.9613  135.0120  160.0557 H   0  0  0  0  0  0  0  0  0  0  0  0  # atno 6908 bound_to 6896
  152.1924  133.4747  159.5052 H   0  0  0  0  0  0  0  0  0  0  0  0  # atno 6909 bound_to 6896
  145.2718  139.2664  143.3962 H   0  0  0  0  0  0  0  0  0  0  0  0  # atno 7974 bound_to 7965
  155.8583  140.3455  155.5739 H   0  0  0  0  0  0  0  0  0  0  0  0  # atno 8008 bound_to 7997
  155.7962  140.0878  157.2001 H   0  0  0  0  0  0  0  0  0  0  0  0  # atno 8009 bound_to 7997
  154.4010  140.1474  156.3208 H   0  0  0  0  0  0  0  0  0  0  0  0  # atno 8010 bound_to 7997
  139.6328  144.7117  151.2396 H   0  0  0  0  0  0  0  0  0  0  0  0  # atno 10167 bound_to 10162
  157.3252  131.0911  151.1208 H   0  0  0  0  0  0  0  0  0  0  0  0  # atno 10718 bound_to 10713
  154.4705  135.5870  153.6318 H   0  0  0  0  0  0  0  0  0  0  0  0  # atno 10763 bound_to 10752
  152.9834  135.6066  154.3372 H   0  0  0  0  0  0  0  0  0  0  0  0  # atno 10764 bound_to 10752
  154.3253  135.2843  155.2478 H   0  0  0  0  0  0  0  0  0  0  0  0  # atno 10765 bound_to 10752
  140.0150  134.6238  155.9723 H   0  0  0  0  0  0  0  0  0  0  0  0  # atno 11005 bound_to 11000
  146.3244  140.3163  142.8630 LP  0  0  0  0  0  0  0  0  0  0  0  0  # atno 17320 bound_to 7965
  144.9328  140.7994  143.5678 LP  0  0  0  0  0  0  0  0  0  0  0  0  # atno 17321 bound_to 7965
  140.7449  143.6449  150.8301 LP  0  0  0  0  0  0  0  0  0  0  0  0  # atno 17342 bound_to 10162
  140.0076  143.5677  152.2851 LP  0  0  0  0  0  0  0  0  0  0  0  0  # atno 17343 bound_to 10162
  157.2478  130.6599  149.5918 LP  0  0  0  0  0  0  0  0  0  0  0  0  # atno 17370 bound_to 10713
  155.9690  130.4548  150.5864 LP  0  0  0  0  0  0  0  0  0  0  0  0  # atno 17371 bound_to 10713
  141.1737  133.6539  156.4746 LP  0  0  0  0  0  0  0  0  0  0  0  0  # atno 17394 bound_to 11000
  140.4486  134.6949  157.5028 LP  0  0  0  0  0  0  0  0  0  0  0  0  # atno 17395 bound_to 11000

$$$$
