AV-unprocessed.smi:2476|AV-procd|sdf|9758|dock7
  -GOLD-   2272013403D 1   1.00000     0.00000
 Structure written by MMmdl.
 34 35  0  0  0  0  0  0  0  0  1 V2000
  148.4800  141.6255  154.1094 C   0  0  0  0  0  0  0  0  0  0  0  0
  149.3997  140.5973  154.7598 C   0  0  0  0  0  0  0  0  0  0  0  0
  150.3821  140.1796  154.1480 O   0  0  0  0  0  0  0  0  0  0  0  0
  149.0717  140.1971  155.9976 N   0  0  0  0  0  0  0  0  0  0  0  0
  149.8222  139.2309  156.7931 C   0  0  0  0  0  0  0  0  0  0  0  0
  151.1240  139.8219  157.3650 C   0  0  1  0  0  0  0  0  0  0  0  0
  150.9089  141.1679  158.0901 C   0  0  0  0  0  0  0  0  0  0  0  0
  152.1571  141.6197  158.6918 N   0  0  0  0  0  0  0  0  0  0  0  0
  152.0750  142.8980  159.2637 C   0  0  0  0  0  0  0  0  0  0  0  0
  152.1613  143.0034  160.6125 N   0  0  0  0  0  0  0  0  0  0  0  0
  152.0856  144.2333  161.1651 C   0  0  0  0  0  0  0  0  0  0  0  0
  151.9208  145.4114  160.4106 C   0  0  0  0  0  0  0  0  0  0  0  0
  151.8300  145.3003  159.0101 C   0  0  0  0  0  0  0  0  0  0  0  0
  151.9082  144.0219  158.4242 C   0  0  0  0  0  0  0  0  0  0  0  0
  151.8249  143.8806  157.0793 F   0  0  0  0  0  0  0  0  0  0  0  0
  152.7428  140.6216  159.5768 C   0  0  0  0  0  0  0  0  0  0  0  0
  152.9154  139.2922  158.8240 C   0  0  0  0  0  0  0  0  0  0  0  0
  151.6592  138.8799  158.2927 O   0  0  0  0  0  0  0  0  0  0  0  0
  147.8872  142.1571  154.8548 H   0  0  0  0  0  0  0  0  0  0  0  0
  147.7993  141.1346  153.4138 H   0  0  0  0  0  0  0  0  0  0  0  0
  149.0653  142.3599  153.5556 H   0  0  0  0  0  0  0  0  0  0  0  0
  148.2439  140.5915  156.4204 H   0  0  0  0  0  0  0  0  0  0  0  0
  149.1808  138.8914  157.6070 H   0  0  0  0  0  0  0  0  0  0  0  0
  150.0428  138.3493  156.1888 H   0  0  0  0  0  0  0  0  0  0  0  0
  151.8404  139.9552  156.5521 H   0  0  0  0  0  0  0  0  0  0  0  0
  150.5522  141.9240  157.3896 H   0  0  0  0  0  0  0  0  0  0  0  0
  150.1466  141.0567  158.8626 H   0  0  0  0  0  0  0  0  0  0  0  0
  152.1595  144.2802  162.2417 H   0  0  0  0  0  0  0  0  0  0  0  0
  151.8656  146.3753  160.8944 H   0  0  0  0  0  0  0  0  0  0  0  0
  151.7032  146.1798  158.3963 H   0  0  0  0  0  0  0  0  0  0  0  0
  153.7076  140.9730  159.9446 H   0  0  0  0  0  0  0  0  0  0  0  0
  152.0989  140.4741  160.4451 H   0  0  0  0  0  0  0  0  0  0  0  0
  153.6484  139.3908  158.0216 H   0  0  0  0  0  0  0  0  0  0  0  0
  153.2848  138.5222  159.5010 H   0  0  0  0  0  0  0  0  0  0  0  0
  1  2  1  0  0  0  0
  1 19  1  0  0  0  0
  1 20  1  0  0  0  0
  1 21  1  0  0  0  0
  2  3  2  0  0  0  0
  2  4  1  0  0  0  0
  4  5  1  0  0  0  0
  4 22  1  0  0  0  0
  5  6  1  0  0  0  0
  5 23  1  0  0  0  0
  5 24  1  0  0  0  0
  6 18  1  0  0  0  0
  6  7  1  0  0  0  0
  6 25  1  0  0  0  0
  7  8  1  0  0  0  0
  7 26  1  0  0  0  0
  7 27  1  0  0  0  0
  8  9  1  0  0  0  0
  8 16  1  0  0  0  0
  9 14  1  0  0  0  0
  9 10  2  0  0  0  0
 10 11  1  0  0  0  0
 11 12  2  0  0  0  0
 11 28  1  0  0  0  0
 12 13  1  0  0  0  0
 12 29  1  0  0  0  0
 13 14  2  0  0  0  0
 13 30  1  0  0  0  0
 14 15  1  0  0  0  0
 16 17  1  0  0  0  0
 16 31  1  0  0  0  0
 16 32  1  0  0  0  0
 17 18  1  0  0  0  0
 17 33  1  0  0  0  0
 17 34  1  0  0  0  0
M  END
> <s_m_source_file>
AV-unprocessed.smi

> <i_m_source_file_index>
2476

> <i_lp_mmshare_version>
43012

> <i_f3d_flags>
0

> <s_epik_input>
W0NIM11DKD1PKVtOSF1bQ0gyXVtDQEBIXTFbQ0gyXU4oW0NIMl1bQ0gyXU8xKWMybltjSF1bY0hdW2NIXWMyRg==

> <s_epik_cmdline>
J2VwaWtfcHl0aG9uJywgJy1waCcsICc3LjAnLCAnLXRuJywgJzgnLCAnLW1hJywgJzIwMCcsICctbWV0YWxfYmluZGluZycsICctaW1hZScsICc8aW5maWxlLm1hZT4nLCAnLW9tYWUnLCAnPG91dGZpbGUubWFlPic=

> <r_lp_tautomer_probability>
1

> <r_epik_Ionization_Penalty>
1.69306e-05

> <r_epik_Ionization_Penalty_Charging>
0

> <r_epik_Ionization_Penalty_Neutral>
1.69306e-05

> <r_epik_State_Penalty>
-0

> <r_epik_Charging_Adjusted_Penalty>
0

> <i_epik_Tot_Q>
0

> <i_epik_Tot_abs_Q>
0

> <r_epik_Metal_State_Penalty>
-0

> <b_epik_Metal_Only>
0

> <s_lp_Force_Field>
OPLS_2005

> <r_lp_Energy>
19.3351

> <b_lp_Chiralities_Consistent>
1

> <s_lp_Variant>
AV-unprocessed.smi:2476-2

> <Gold.Version>
5.8.1

> <Gold.Id.Protein>
6NUR|6NUR_protein|mol2

> <Gold.PLP.Fitness>
39.8097

> <Gold.PLP.PLP>
-37.6175

> <Gold.PLP.part.hbond>
-0.8982

> <Gold.PLP.part.metal>
0.0000

> <Gold.PLP.part.buried>
-5.4602

> <Gold.PLP.part.nonpolar>
-31.9344

> <Gold.PLP.part.repulsive>
0.5040

> <Gold.PLP.ligand.clash>
0.0000

> <Gold.PLP.ligand.torsion>
0.4573

> <Gold.PLP.Chemscore.Hbond>
1.0000

> <Gold.PLP.Chemscore.CHOScore>
0.0000

> <Gold.PLP.Chemscore.Metal>
0.0000

> <Gold.Chemscore.Hbonds>
donor molecule, donor type, donor heavy atom, donor atom, acceptor molecule, acceptor atom, score
      P1  H  7989  7998       L1     3  1.00

> <Gold.PLP.Chemscore.Internal.Correction>
0.1068

> <Gold.Rescore>
     Score         DG    S(hbond)    S(metal)    S(lipo)     H(rot)  DE(clash)    DE(int)     intcor
     13.64     -14.52       0.99        0.00      84.15       1.61       0.27       0.61       ----

> <Gold.Chemscore.Fitness>
13.6394

> <Gold.Chemscore.DG>
-14.5201

> <Gold.Chemscore.ZeroCoef>
-5.4800

> <Gold.Chemscore.Hbond>
0.9913

> <Gold.Chemscore.Metal>
0.0000

> <Gold.Chemscore.Lipo>
84.1454

> <Gold.Chemscore.Internal_Hbond>
0.0000

> <Gold.Chemscore.DEClash>
0.2739

> <Gold.Chemscore.DEInternal>
0.6068

> <Gold.Chemscore.Rot>
1.6078

> <Gold.Chemscore.Internal.Correction>
   9.000000E+99

> <Gold.Chemscore.Hbonds>
donor molecule, donor type, donor heavy atom, donor atom, acceptor molecule, acceptor atom, score
      P1  H  7989  7998       L1     3  0.92

> <Gold.Chemscore.Hbond.Weighted>
-3.3110

> <Gold.Chemscore.Metal.Weighted>
-0.0000

> <Gold.Chemscore.Lipo.Weighted>
-9.8450

> <Gold.Chemscore.Internal_Hbond.Weighted>
0.0000

> <Gold.Chemscore.DEClash.Weighted>
0.2739

> <Gold.Chemscore.DEInternal.Weighted>
0.6068

> <Gold.Chemscore.Rot.Weighted>
4.1159

> <Gold.Chemscore.Internal.Correction.Weighted>
   9.000000E+99

> <Gold.Protein.RotatedTorsions>
[ 6907 6896 6895 6894 ] final   37.25 input  -60.11 | X-H torsion
[ 7974 7965 7964 7962 ] final   84.43 input  175.53 | X-H torsion
[ 8008 7997 7996 7995 ] final  156.11 input   59.86 | X-H torsion
[ 10167 10162 10161 10158 ] final   97.90 input  -65.29 | X-H torsion
[ 10718 10713 10712 10709 ] final   44.30 input   66.30 | X-H torsion
[ 10763 10752 10751 10750 ] final -103.00 input  -60.55 | X-H torsion
[ 11005 11000 10999 10996 ] final   30.33 input  -57.11 | X-H torsion

> <Gold.Protein.ActiveResidues>
 VAL166  LYS551  ARG553  GLY616  TRP617  ASP618  TYR619  PRO620  LYS621  CYS622 
 ASP623  PHE694  ASN695  SER759  ASP760  ASP761  ALA762  ILE779  LEU786  VAL792 
 PHE793  MET794  SER795  GLU796  ALA797  LYS798  CYS799  TRP800  GLU811  SER814 

> <Gold.Protein.RotatedAtoms>
  152.1407  134.9064  160.0553 H   0  0  0  0  0  0  0  0  0  0  0  0  # atno 6907 bound_to 6896
  152.0134  133.3865  159.4237 H   0  0  0  0  0  0  0  0  0  0  0  0  # atno 6908 bound_to 6896
  150.6865  134.3627  159.5001 H   0  0  0  0  0  0  0  0  0  0  0  0  # atno 6909 bound_to 6896
  145.5989  139.2349  143.2257 H   0  0  0  0  0  0  0  0  0  0  0  0  # atno 7974 bound_to 7965
  156.2441  140.1921  156.6904 H   0  0  0  0  0  0  0  0  0  0  0  0  # atno 8008 bound_to 7997
  154.6256  140.0602  156.9695 H   0  0  0  0  0  0  0  0  0  0  0  0  # atno 8009 bound_to 7997
  155.1793  140.3275  155.4381 H   0  0  0  0  0  0  0  0  0  0  0  0  # atno 8010 bound_to 7997
  139.7758  144.6906  151.0092 H   0  0  0  0  0  0  0  0  0  0  0  0  # atno 10167 bound_to 10162
  157.4253  130.7993  149.7553 H   0  0  0  0  0  0  0  0  0  0  0  0  # atno 10718 bound_to 10713
  154.7775  135.4840  153.9775 H   0  0  0  0  0  0  0  0  0  0  0  0  # atno 10763 bound_to 10752
  153.1448  135.6780  153.8978 H   0  0  0  0  0  0  0  0  0  0  0  0  # atno 10764 bound_to 10752
  153.8641  135.3151  155.3417 H   0  0  0  0  0  0  0  0  0  0  0  0  # atno 10765 bound_to 10752
  140.2955  134.2816  155.7766 H   0  0  0  0  0  0  0  0  0  0  0  0  # atno 11005 bound_to 11000
  146.1591  140.6814  142.9286 LP  0  0  0  0  0  0  0  0  0  0  0  0  # atno 17320 bound_to 7965
  144.7319  140.4695  143.6932 LP  0  0  0  0  0  0  0  0  0  0  0  0  # atno 17321 bound_to 7965
  140.7816  143.4538  151.0375 LP  0  0  0  0  0  0  0  0  0  0  0  0  # atno 17342 bound_to 10162
  139.8220  143.7807  152.3177 LP  0  0  0  0  0  0  0  0  0  0  0  0  # atno 17343 bound_to 10162
  155.9894  130.3952  150.3073 LP  0  0  0  0  0  0  0  0  0  0  0  0  # atno 17370 bound_to 10713
  157.1225  131.0250  151.3003 LP  0  0  0  0  0  0  0  0  0  0  0  0  # atno 17371 bound_to 10713
  141.2138  133.7612  156.9689 LP  0  0  0  0  0  0  0  0  0  0  0  0  # atno 17394 bound_to 11000
  140.1156  134.9449  157.2129 LP  0  0  0  0  0  0  0  0  0  0  0  0  # atno 17395 bound_to 11000

$$$$
