AV-unprocessed.smi:234|AV-procd|sdf|1789|dock6
  -GOLD-   2262020343D 1   1.00000     0.00000
 Structure written by MMmdl.
 59 62  0  0  0  0  0  0  0  0  1 V2000
  152.1207  145.9872  159.6984 C   0  0  0  0  0  0  0  0  0  0  0  0
  151.1414  144.9054  160.1745 C   0  0  0  0  0  0  0  0  0  0  0  0
  151.8264  143.8370  160.8100 O   0  0  0  0  0  0  0  0  0  0  0  0
  152.9399  143.3356  160.0760 C   0  0  2  0  0  0  0  0  0  0  0  0
  152.4782  142.7943  158.7226 C   0  0  0  0  0  0  0  0  0  0  0  0
  152.2600  141.4516  159.4352 C   0  0  1  0  0  0  0  0  0  0  0  0
  152.6246  140.2778  158.6340 N   0  0  0  0  0  0  0  0  0  0  0  0
  152.6326  138.9770  159.2957 C   0  0  0  0  0  0  0  0  0  0  0  0
  152.1516  140.2008  157.3644 C   0  0  0  0  0  0  0  0  0  0  0  0
  152.8096  139.4616  156.4315 N   0  0  0  0  0  0  0  0  0  0  0  0
  152.3512  139.3962  155.1783 C   0  0  0  0  0  0  0  0  0  0  0  0
  151.2741  139.9824  154.6520 N   0  0  0  0  0  0  0  0  0  0  0  0
  150.6126  140.7286  155.5825 C   0  0  0  0  0  0  0  0  0  0  0  0
  150.9827  140.8951  156.9467 C   0  0  0  0  0  0  0  0  0  0  0  0
  150.0719  141.7259  157.5878 N   0  0  0  0  0  0  0  0  0  0  0  0
  149.2104  142.0312  156.6560 C   0  0  0  0  0  0  0  0  0  0  0  0
  149.4546  141.4694  155.4228 N   0  0  0  0  0  0  0  0  0  0  0  0
  148.6552  141.6327  154.2185 C   0  0  0  0  0  0  0  0  0  0  0  0
  147.1340  141.5114  154.4734 C   0  0  2  0  0  0  0  0  0  0  0  0
  146.4941  141.2162  153.2416 O   0  0  0  0  0  0  0  0  0  0  0  0
  146.5009  142.7642  155.0601 C   0  0  0  0  0  0  0  0  0  0  0  0
  145.2526  142.2170  155.7405 C   0  0  0  0  0  0  0  0  0  0  0  0
  145.6417  140.9484  156.2502 O   0  0  0  0  0  0  0  0  0  0  0  0
  146.7777  140.4541  155.5414 C   0  0  1  0  0  0  0  0  0  0  0  0
  146.5291  139.0230  155.0385 C   0  0  0  0  0  0  0  0  0  0  0  0
  153.3270  141.8897  160.4778 C   0  0  0  0  0  0  0  0  0  0  0  0
  154.7956  141.5360  160.1904 C   0  0  0  0  0  0  0  0  0  0  0  0
  153.0609  141.5104  161.9371 C   0  0  0  0  0  0  0  0  0  0  0  0
  151.5842  146.8244  159.2522 H   0  0  0  0  0  0  0  0  0  0  0  0
  152.8144  145.6041  158.9504 H   0  0  0  0  0  0  0  0  0  0  0  0
  152.7082  146.3739  160.5313 H   0  0  0  0  0  0  0  0  0  0  0  0
  150.4567  145.3407  160.9024 H   0  0  0  0  0  0  0  0  0  0  0  0
  150.5277  144.5362  159.3515 H   0  0  0  0  0  0  0  0  0  0  0  0
  153.7884  144.0181  160.0011 H   0  0  0  0  0  0  0  0  0  0  0  0
  151.5724  143.2571  158.3298 H   0  0  0  0  0  0  0  0  0  0  0  0
  153.2754  142.7754  157.9774 H   0  0  0  0  0  0  0  0  0  0  0  0
  151.2626  141.3875  159.8744 H   0  0  0  0  0  0  0  0  0  0  0  0
  151.8824  138.3029  158.8787 H   0  0  0  0  0  0  0  0  0  0  0  0
  152.4254  139.0742  160.3606 H   0  0  0  0  0  0  0  0  0  0  0  0
  153.6104  138.5082  159.1855 H   0  0  0  0  0  0  0  0  0  0  0  0
  152.9312  138.7876  154.5004 H   0  0  0  0  0  0  0  0  0  0  0  0
  148.3614  142.6720  156.8448 H   0  0  0  0  0  0  0  0  0  0  0  0
  148.8888  142.6030  153.7785 H   0  0  0  0  0  0  0  0  0  0  0  0
  148.9788  140.8841  153.4941 H   0  0  0  0  0  0  0  0  0  0  0  0
  145.5622  141.1745  153.3928 H   0  0  0  0  0  0  0  0  0  0  0  0
  147.1569  143.1972  155.8164 H   0  0  0  0  0  0  0  0  0  0  0  0
  146.2854  143.5372  154.3211 H   0  0  0  0  0  0  0  0  0  0  0  0
  144.8833  142.8703  156.5311 H   0  0  0  0  0  0  0  0  0  0  0  0
  144.4510  142.0759  155.0143 H   0  0  0  0  0  0  0  0  0  0  0  0
  147.5822  140.4194  156.2772 H   0  0  0  0  0  0  0  0  0  0  0  0
  147.3923  138.6440  154.4912 H   0  0  0  0  0  0  0  0  0  0  0  0
  145.6613  138.9710  154.3807 H   0  0  0  0  0  0  0  0  0  0  0  0
  146.3445  138.3480  155.8741 H   0  0  0  0  0  0  0  0  0  0  0  0
  155.0014  140.4807  160.3704 H   0  0  0  0  0  0  0  0  0  0  0  0
  155.4720  142.1099  160.8242 H   0  0  0  0  0  0  0  0  0  0  0  0
  155.0736  141.7442  159.1570 H   0  0  0  0  0  0  0  0  0  0  0  0
  153.3336  140.4757  162.1447 H   0  0  0  0  0  0  0  0  0  0  0  0
  152.0078  141.6206  162.1964 H   0  0  0  0  0  0  0  0  0  0  0  0
  153.6294  142.1413  162.6207 H   0  0  0  0  0  0  0  0  0  0  0  0
  1  2  1  0  0  0  0
  1 29  1  0  0  0  0
  1 30  1  0  0  0  0
  1 31  1  0  0  0  0
  2  3  1  0  0  0  0
  2 32  1  0  0  0  0
  2 33  1  0  0  0  0
  3  4  1  0  0  0  0
  4 26  1  0  0  0  0
  4  5  1  0  0  0  0
  4 34  1  0  0  0  0
  5  6  1  0  0  0  0
  5 35  1  0  0  0  0
  5 36  1  0  0  0  0
  6  7  1  0  0  0  0
  6 26  1  0  0  0  0
  6 37  1  0  0  0  0
  7  8  1  0  0  0  0
  7  9  1  0  0  0  0
  8 38  1  0  0  0  0
  8 39  1  0  0  0  0
  8 40  1  0  0  0  0
  9 14  1  0  0  0  0
  9 10  2  0  0  0  0
 10 11  1  0  0  0  0
 11 12  2  0  0  0  0
 11 41  1  0  0  0  0
 12 13  1  0  0  0  0
 13 17  1  0  0  0  0
 13 14  2  0  0  0  0
 14 15  1  0  0  0  0
 15 16  2  0  0  0  0
 16 17  1  0  0  0  0
 16 42  1  0  0  0  0
 17 18  1  0  0  0  0
 18 19  1  0  0  0  0
 18 43  1  0  0  0  0
 18 44  1  0  0  0  0
 19 24  1  0  0  0  0
 19 20  1  0  0  0  0
 19 21  1  0  0  0  0
 20 45  1  0  0  0  0
 21 22  1  0  0  0  0
 21 46  1  0  0  0  0
 21 47  1  0  0  0  0
 22 23  1  0  0  0  0
 22 48  1  0  0  0  0
 22 49  1  0  0  0  0
 23 24  1  0  0  0  0
 24 25  1  0  0  0  0
 24 50  1  0  0  0  0
 25 51  1  0  0  0  0
 25 52  1  0  0  0  0
 25 53  1  0  0  0  0
 26 27  1  0  0  0  0
 26 28  1  0  0  0  0
 27 54  1  0  0  0  0
 27 55  1  0  0  0  0
 27 56  1  0  0  0  0
 28 57  1  0  0  0  0
 28 58  1  0  0  0  0
 28 59  1  0  0  0  0
M  END
> <s_m_source_file>
AV-unprocessed.smi

> <i_m_source_file_index>
234

> <i_lp_mmshare_version>
43012

> <i_f3d_flags>
0

> <s_epik_input>
W0NIM11bQ0gyXU9bQ0BASF0oQzEoW0NIM10pW0NIM10pW0NIMl1bQ0BIXTFOKFtDSDNdKWMobltjSF1uMiljKGMyMyluW2NIXW4zW0NIMl1bQ0BAXTQoW09IXSlbQ0gyXVtDSDJdT1tDQEhdNFtDSDNd

> <s_epik_cmdline>
J2VwaWtfcHl0aG9uJywgJy1waCcsICc3LjAnLCAnLXRuJywgJzgnLCAnLW1hJywgJzIwMCcsICctbWV0YWxfYmluZGluZycsICctaW1hZScsICc8aW5maWxlLm1hZT4nLCAnLW9tYWUnLCAnPG91dGZpbGUubWFlPic=

> <r_lp_tautomer_probability>
1

> <r_epik_Ionization_Penalty>
0.00349132

> <r_epik_Ionization_Penalty_Charging>
0

> <r_epik_Ionization_Penalty_Neutral>
0.00349132

> <r_epik_State_Penalty>
0.00242418

> <r_epik_Charging_Adjusted_Penalty>
0.00242418

> <i_epik_Tot_Q>
0

> <i_epik_Tot_abs_Q>
0

> <r_epik_Metal_State_Penalty>
-0

> <b_epik_Metal_Only>
0

> <s_lp_Force_Field>
OPLS_2005

> <r_lp_Energy>
49.8598

> <b_lp_Chiralities_Consistent>
1

> <s_lp_Variant>
AV-unprocessed.smi:234-5

> <Gold.Version>
5.8.1

> <Gold.Id.Protein>
6NUR|6NUR_protein|mol2

> <Gold.PLP.Fitness>
58.3995

> <Gold.PLP.PLP>
-49.3040

> <Gold.PLP.part.hbond>
-3.0000

> <Gold.PLP.part.metal>
0.0000

> <Gold.PLP.part.buried>
-3.8431

> <Gold.PLP.part.nonpolar>
-43.6022

> <Gold.PLP.part.repulsive>
0.3015

> <Gold.PLP.ligand.clash>
0.0146

> <Gold.PLP.ligand.torsion>
1.2749

> <Gold.PLP.Chemscore.Hbond>
2.9750

> <Gold.PLP.Chemscore.CHOScore>
0.5427

> <Gold.PLP.Chemscore.Metal>
0.0000

> <Gold.Chemscore.Hbonds>
donor molecule, donor type, donor heavy atom, donor atom, acceptor molecule, acceptor atom, score
      L1  H    20    45       P1 10175  0.51
      P1  H  7989  7998       L1    12  0.91
      P1  H  7997  8010       L1    10  1.00
      L1  C    16    42       P1  8028  0.50

> <Gold.PLP.Chemscore.Internal.Correction>
1.1069

> <Gold.Rescore>
     Score         DG    S(hbond)    S(metal)    S(lipo)     H(rot)  DE(clash)    DE(int)     intcor
     14.38     -17.18       1.50        0.00     114.43       2.62       0.58       2.22       ----

> <Gold.Chemscore.Fitness>
14.3808

> <Gold.Chemscore.DG>
-17.1783

> <Gold.Chemscore.ZeroCoef>
-5.4800

> <Gold.Chemscore.Hbond>
1.5035

> <Gold.Chemscore.Metal>
0.0000

> <Gold.Chemscore.Lipo>
114.4346

> <Gold.Chemscore.Internal_Hbond>
0.0000

> <Gold.Chemscore.DEClash>
0.5791

> <Gold.Chemscore.DEInternal>
2.2184

> <Gold.Chemscore.Rot>
2.6219

> <Gold.Chemscore.Internal.Correction>
   9.000000E+99

> <Gold.Chemscore.Hbonds>
donor molecule, donor type, donor heavy atom, donor atom, acceptor molecule, acceptor atom, score
      L1  H    20    45       P1 10175  0.20
      P1  H  7989  7998       L1    12  0.49
      P1  H  7997  8010       L1    10  0.31

> <Gold.Chemscore.Hbond.Weighted>
-5.0215

> <Gold.Chemscore.Metal.Weighted>
-0.0000

> <Gold.Chemscore.Lipo.Weighted>
-13.3888

> <Gold.Chemscore.Internal_Hbond.Weighted>
0.0000

> <Gold.Chemscore.DEClash.Weighted>
0.5791

> <Gold.Chemscore.DEInternal.Weighted>
2.2184

> <Gold.Chemscore.Rot.Weighted>
6.7121

> <Gold.Chemscore.Internal.Correction.Weighted>
   9.000000E+99

> <Gold.Protein.RotatedTorsions>
[ 6907 6896 6895 6894 ] final   88.75 input  -60.11 | X-H torsion
[ 7974 7965 7964 7962 ] final -171.99 input  175.53 | X-H torsion
[ 8008 7997 7996 7995 ] final   73.79 input   59.86 | X-H torsion
[ 10167 10162 10161 10158 ] final -112.44 input  -65.29 | X-H torsion
[ 10718 10713 10712 10709 ] final  149.01 input   66.30 | X-H torsion
[ 10763 10752 10751 10750 ] final -138.55 input  -60.55 | X-H torsion
[ 11005 11000 10999 10996 ] final -158.61 input  -57.11 | X-H torsion

> <Gold.Protein.ActiveResidues>
 VAL166  LYS551  ARG553  GLY616  TRP617  ASP618  TYR619  PRO620  LYS621  CYS622 
 ASP623  PHE694  ASN695  SER759  ASP760  ASP761  ALA762  ILE779  LEU786  VAL792 
 PHE793  MET794  SER795  GLU796  ALA797  LYS798  CYS799  TRP800  GLU811  SER814 

> <Gold.Protein.RotatedAtoms>
  152.5429  134.2073  159.8735 H   0  0  0  0  0  0  0  0  0  0  0  0  # atno 6907 bound_to 6896
  151.2058  133.4577  159.2604 H   0  0  0  0  0  0  0  0  0  0  0  0  # atno 6908 bound_to 6896
  151.0944  134.9948  159.8474 H   0  0  0  0  0  0  0  0  0  0  0  0  # atno 6909 bound_to 6896
  144.7151  140.1839  143.6355 H   0  0  0  0  0  0  0  0  0  0  0  0  # atno 7974 bound_to 7965
  155.7889  140.3480  155.5338 H   0  0  0  0  0  0  0  0  0  0  0  0  # atno 8008 bound_to 7997
  155.8654  140.0978  157.1606 H   0  0  0  0  0  0  0  0  0  0  0  0  # atno 8009 bound_to 7997
  154.4014  140.1350  156.3999 H   0  0  0  0  0  0  0  0  0  0  0  0  # atno 8010 bound_to 7997
  140.1227  143.4429  152.1680 H   0  0  0  0  0  0  0  0  0  0  0  0  # atno 10167 bound_to 10162
  157.3014  131.0871  151.1387 H   0  0  0  0  0  0  0  0  0  0  0  0  # atno 10718 bound_to 10713
  154.8634  135.3609  154.5403 H   0  0  0  0  0  0  0  0  0  0  0  0  # atno 10763 bound_to 10752
  153.6025  135.7012  153.5384 H   0  0  0  0  0  0  0  0  0  0  0  0  # atno 10764 bound_to 10752
  153.3279  135.4133  155.1432 H   0  0  0  0  0  0  0  0  0  0  0  0  # atno 10765 bound_to 10752
  140.6517  134.4443  157.5235 H   0  0  0  0  0  0  0  0  0  0  0  0  # atno 11005 bound_to 11000
  145.8831  139.2334  143.1593 LP  0  0  0  0  0  0  0  0  0  0  0  0  # atno 17320 bound_to 7965
  145.9975  140.8549  143.0035 LP  0  0  0  0  0  0  0  0  0  0  0  0  # atno 17321 bound_to 7965
  139.5560  144.7373  151.4293 LP  0  0  0  0  0  0  0  0  0  0  0  0  # atno 17342 bound_to 10162
  140.6863  143.7967  150.7190 LP  0  0  0  0  0  0  0  0  0  0  0  0  # atno 17343 bound_to 10162
  157.2744  130.6720  149.6035 LP  0  0  0  0  0  0  0  0  0  0  0  0  # atno 17370 bound_to 10713
  155.9672  130.4469  150.5559 LP  0  0  0  0  0  0  0  0  0  0  0  0  # atno 17371 bound_to 10713
  139.9043  134.8484  156.1767 LP  0  0  0  0  0  0  0  0  0  0  0  0  # atno 17394 bound_to 11000
  141.0531  133.6878  156.1810 LP  0  0  0  0  0  0  0  0  0  0  0  0  # atno 17395 bound_to 11000

$$$$
