AV-unprocessed.smi:1492|AV-procd|sdf|6039|dock6
  -GOLD-   22720 6143D 1   1.00000     0.00000
 Structure written by MMmdl.
 53 54  0  0  0  0  0  0  0  0  2 V2000
  143.3253  137.9496  151.3975 C   0  0  0  0  0  0  0  0  0  0  0  0
  143.9949  136.6635  151.9145 C   0  0  0  0  0  0  0  0  0  0  0  0
  145.5470  136.7235  152.0606 C   0  0  2  0  0  0  0  0  0  0  0  0
  146.0021  135.3850  152.6996 C   0  0  0  0  0  0  0  0  0  0  0  0
  145.9278  137.9056  153.0055 C   0  0  0  0  0  0  0  0  0  0  0  0
  147.3496  137.9471  153.3423 N   0  0  0  0  0  0  0  0  0  0  0  0
  147.9395  138.8246  154.1684 C   0  0  0  0  0  0  0  0  0  0  0  0
  147.3348  139.7260  154.7479 O   0  0  0  0  0  0  0  0  0  0  0  0
  149.4490  138.6675  154.3546 C   0  0  0  0  0  0  0  0  0  0  0  0
  150.0402  139.3957  155.5603 C   0  0  0  0  0  0  0  0  0  0  0  0
  149.7125  139.0864  156.8489 C   0  0  0  0  0  0  0  0  0  0  0  0
  148.7251  137.9892  157.2064 C   0  0  0  0  0  0  0  0  0  0  0  0
  150.2730  139.7734  157.9348 N   0  0  0  0  0  0  0  0  0  0  0  0
  151.1186  140.7222  157.7007 C   0  0  0  0  0  0  0  0  0  0  0  0
  151.7951  141.5368  158.7831 C   0  0  0  0  0  0  0  0  0  0  0  0
  151.4958  141.0876  156.4094 N   0  0  0  0  0  0  0  0  0  0  0  0
  151.0135  140.4755  155.3050 C   0  0  0  0  0  0  0  0  0  0  0  0
  151.3955  140.8176  154.1867 O   0  0  0  0  0  0  0  0  0  0  0  0
  146.1922  136.8938  150.7076 N   0  3  0  0  0  0  0  0  0  0  0  0
  145.7239  135.9642  149.6406 C   0  0  0  0  0  0  0  0  0  0  0  0
  146.6057  136.0955  148.3888 C   0  0  0  0  0  0  0  0  0  0  0  0
  146.5720  137.4374  147.9243 O   0  0  0  0  0  0  0  0  0  0  0  0
  147.0887  138.3409  148.8913 C   0  0  0  0  0  0  0  0  0  0  0  0
  146.2356  138.2837  150.1704 C   0  0  0  0  0  0  0  0  0  0  0  0
  152.1640  141.8347  156.2878 H   0  0  0  0  0  0  0  0  0  0  0  0
  142.2459  137.8135  151.3279 H   0  0  0  0  0  0  0  0  0  0  0  0
  143.6801  138.2202  150.4035 H   0  0  0  0  0  0  0  0  0  0  0  0
  143.5018  138.7965  152.0606 H   0  0  0  0  0  0  0  0  0  0  0  0
  143.5331  136.3800  152.8598 H   0  0  0  0  0  0  0  0  0  0  0  0
  143.7229  135.8580  151.2313 H   0  0  0  0  0  0  0  0  0  0  0  0
  145.3822  135.1141  153.5549 H   0  0  0  0  0  0  0  0  0  0  0  0
  147.0264  135.4350  153.0694 H   0  0  0  0  0  0  0  0  0  0  0  0
  145.9484  134.5578  151.9915 H   0  0  0  0  0  0  0  0  0  0  0  0
  145.6206  138.8616  152.5806 H   0  0  0  0  0  0  0  0  0  0  0  0
  145.4009  137.8207  153.9552 H   0  0  0  0  0  0  0  0  0  0  0  0
  147.9369  137.2479  152.9096 H   0  0  0  0  0  0  0  0  0  0  0  0
  149.6847  137.6032  154.4003 H   0  0  0  0  0  0  0  0  0  0  0  0
  149.9465  139.0170  153.4497 H   0  0  0  0  0  0  0  0  0  0  0  0
  147.7289  138.2370  156.8396 H   0  0  0  0  0  0  0  0  0  0  0  0
  148.6585  137.8528  158.2864 H   0  0  0  0  0  0  0  0  0  0  0  0
  149.0298  137.0381  156.7696 H   0  0  0  0  0  0  0  0  0  0  0  0
  152.3750  140.8842  159.4360 H   0  0  0  0  0  0  0  0  0  0  0  0
  151.0484  142.0511  159.3886 H   0  0  0  0  0  0  0  0  0  0  0  0
  152.4686  142.2852  158.3634 H   0  0  0  0  0  0  0  0  0  0  0  0
  145.7590  134.9271  149.9675 H   0  0  0  0  0  0  0  0  0  0  0  0
  144.6902  136.1834  149.3723 H   0  0  0  0  0  0  0  0  0  0  0  0
  147.6324  135.7923  148.6006 H   0  0  0  0  0  0  0  0  0  0  0  0
  146.2367  135.4400  147.5997 H   0  0  0  0  0  0  0  0  0  0  0  0
  148.1315  138.1031  149.1083 H   0  0  0  0  0  0  0  0  0  0  0  0
  147.0731  139.3481  148.4748 H   0  0  0  0  0  0  0  0  0  0  0  0
  145.2275  138.6364  149.9511 H   0  0  0  0  0  0  0  0  0  0  0  0
  146.6712  138.9793  150.8853 H   0  0  0  0  0  0  0  0  0  0  0  0
  147.1592  136.6481  150.8637 H   0  0  0  0  0  0  0  0  0  0  0  0
  1  2  1  0  0  0  0
  1 26  1  0  0  0  0
  1 27  1  0  0  0  0
  1 28  1  0  0  0  0
  2  3  1  0  0  0  0
  2 29  1  0  0  0  0
  2 30  1  0  0  0  0
  3  4  1  0  0  0  0
  3  5  1  0  0  0  0
  3 19  1  0  0  0  0
  4 31  1  0  0  0  0
  4 32  1  0  0  0  0
  4 33  1  0  0  0  0
  5  6  1  0  0  0  0
  5 34  1  0  0  0  0
  5 35  1  0  0  0  0
  6  7  1  0  0  0  0
  6 36  1  0  0  0  0
  7  8  2  0  0  0  0
  7  9  1  0  0  0  0
  9 10  1  0  0  0  0
  9 37  1  0  0  0  0
  9 38  1  0  0  0  0
 10 17  1  0  0  0  0
 10 11  2  0  0  0  0
 11 12  1  0  0  0  0
 11 13  1  0  0  0  0
 12 39  1  0  0  0  0
 12 40  1  0  0  0  0
 12 41  1  0  0  0  0
 13 14  2  0  0  0  0
 14 15  1  0  0  0  0
 14 16  1  0  0  0  0
 15 42  1  0  0  0  0
 15 43  1  0  0  0  0
 15 44  1  0  0  0  0
 16 25  1  0  0  0  0
 16 17  1  0  0  0  0
 17 18  2  0  0  0  0
 19 24  1  0  0  0  0
 19 20  1  0  0  0  0
 19 53  1  0  0  0  0
 20 21  1  0  0  0  0
 20 45  1  0  0  0  0
 20 46  1  0  0  0  0
 21 22  1  0  0  0  0
 21 47  1  0  0  0  0
 21 48  1  0  0  0  0
 22 23  1  0  0  0  0
 23 24  1  0  0  0  0
 23 49  1  0  0  0  0
 23 50  1  0  0  0  0
 24 51  1  0  0  0  0
 24 52  1  0  0  0  0
M  CHG  1  19   1
M  END
> <s_m_source_file>
AV-unprocessed.smi

> <i_m_source_file_index>
1492

> <i_lp_mmshare_version>
43012

> <i_f3d_flags>
0

> <s_epik_input>
W0NIMl0xW0NIMl1PW0NIMl1bQ0gyXU4xW0NAQF0oW0NIM10pKFtDSDJdW0NIM10pW0NIMl1bTkhdQyg9TylbQ0gyXWMyYyhbQ0gzXSluYyhbQ0gzXSlbbkhdYzI9Tw==

> <s_epik_cmdline>
J2VwaWtfcHl0aG9uJywgJy1waCcsICc3LjAnLCAnLXRuJywgJzgnLCAnLW1hJywgJzIwMCcsICctbWV0YWxfYmluZGluZycsICctaW1hZScsICc8aW5maWxlLm1hZT4nLCAnLW9tYWUnLCAnPG91dGZpbGUubWFlPic=

> <r_lp_tautomer_probability>
0.839158

> <r_epik_Ionization_Penalty>
0.506959

> <r_epik_Ionization_Penalty_Charging>
0.506936

> <r_epik_Ionization_Penalty_Neutral>
2.27768e-05

> <r_epik_State_Penalty>
0.6046

> <r_epik_Charging_Adjusted_Penalty>
1.11154

> <i_epik_Tot_Q>
1

> <i_epik_Tot_abs_Q>
1

> <r_epik_Metal_State_Penalty>
0.783136

> <b_epik_Metal_Only>
0

> <s_lp_Force_Field>
OPLS_2005

> <r_lp_Energy>
29.7621

> <b_lp_Chiralities_Consistent>
1

> <s_lp_Variant>
AV-unprocessed.smi:1492-4

> <Gold.Version>
5.8.1

> <Gold.Id.Protein>
6NUR|6NUR_protein|mol2

> <Gold.PLP.Fitness>
47.5607

> <Gold.PLP.PLP>
-34.6022

> <Gold.PLP.part.hbond>
-4.0000

> <Gold.PLP.part.metal>
0.0000

> <Gold.PLP.part.buried>
-3.2331

> <Gold.PLP.part.nonpolar>
-26.9269

> <Gold.PLP.part.repulsive>
0.9149

> <Gold.PLP.ligand.clash>
0.0000

> <Gold.PLP.ligand.torsion>
0.6515

> <Gold.PLP.Chemscore.Hbond>
4.7114

> <Gold.PLP.Chemscore.CHOScore>
0.0000

> <Gold.PLP.Chemscore.Metal>
0.0000

> <Gold.Chemscore.Hbonds>
donor molecule, donor type, donor heavy atom, donor atom, acceptor molecule, acceptor atom, score
      L1  H     6    36       P1  7948  1.00
      L1  H    19    53       P1  7948  1.95

> <Gold.PLP.Chemscore.Internal.Correction>
0.1274

> <Gold.Rescore>
     Score         DG    S(hbond)    S(metal)    S(lipo)     H(rot)  DE(clash)    DE(int)     intcor
     18.91     -19.55       3.41        0.00      70.87       2.19       0.05       0.59       ----

> <Gold.Chemscore.Fitness>
18.9098

> <Gold.Chemscore.DG>
-19.5484

> <Gold.Chemscore.ZeroCoef>
-5.4800

> <Gold.Chemscore.Hbond>
3.4099

> <Gold.Chemscore.Metal>
0.0000

> <Gold.Chemscore.Lipo>
70.8738

> <Gold.Chemscore.Internal_Hbond>
0.0000

> <Gold.Chemscore.DEClash>
0.0503

> <Gold.Chemscore.DEInternal>
0.5883

> <Gold.Chemscore.Rot>
2.1926

> <Gold.Chemscore.Internal.Correction>
   9.000000E+99

> <Gold.Chemscore.Hbonds>
donor molecule, donor type, donor heavy atom, donor atom, acceptor molecule, acceptor atom, score
      L1  H     6    36       P1  7948  1.00
      L1  H    19    53       P1  7948  0.90

> <Gold.Chemscore.Hbond.Weighted>
-11.3891

> <Gold.Chemscore.Metal.Weighted>
-0.0000

> <Gold.Chemscore.Lipo.Weighted>
-8.2922

> <Gold.Chemscore.Internal_Hbond.Weighted>
0.0000

> <Gold.Chemscore.DEClash.Weighted>
0.0503

> <Gold.Chemscore.DEInternal.Weighted>
0.5883

> <Gold.Chemscore.Rot.Weighted>
5.6129

> <Gold.Chemscore.Internal.Correction.Weighted>
   9.000000E+99

> <Gold.Protein.RotatedTorsions>
[ 6907 6896 6895 6894 ] final -119.08 input  -60.11 | X-H torsion
[ 7974 7965 7964 7962 ] final    2.26 input  175.53 | X-H torsion
[ 8008 7997 7996 7995 ] final   55.06 input   59.86 | X-H torsion
[ 10167 10162 10161 10158 ] final  146.82 input  -65.29 | X-H torsion
[ 10718 10713 10712 10709 ] final -117.51 input   66.30 | X-H torsion
[ 10763 10752 10751 10750 ] final  -33.30 input  -60.55 | X-H torsion
[ 11005 11000 10999 10996 ] final    8.16 input  -57.11 | X-H torsion

> <Gold.Protein.ActiveResidues>
 VAL166  LYS551  ARG553  GLY616  TRP617  ASP618  TYR619  PRO620  LYS621  CYS622 
 ASP623  PHE694  ASN695  SER759  ASP760  ASP761  ALA762  ILE779  LEU786  VAL792 
 PHE793  MET794  SER795  GLU796  ALA797  LYS798  CYS799  TRP800  GLU811  SER814 

> <Gold.Protein.RotatedAtoms>
  150.8274  133.8148  159.3112 H   0  0  0  0  0  0  0  0  0  0  0  0  # atno 6907 bound_to 6896
  151.5889  135.1053  160.0044 H   0  0  0  0  0  0  0  0  0  0  0  0  # atno 6908 bound_to 6896
  152.4358  133.7316  159.6647 H   0  0  0  0  0  0  0  0  0  0  0  0  # atno 6909 bound_to 6896
  146.2443  140.0863  142.8354 H   0  0  0  0  0  0  0  0  0  0  0  0  # atno 7974 bound_to 7965
  155.4949  140.3472  155.4361 H   0  0  0  0  0  0  0  0  0  0  0  0  # atno 8008 bound_to 7997
  156.0952  140.1421  156.9567 H   0  0  0  0  0  0  0  0  0  0  0  0  # atno 8009 bound_to 7997
  154.4659  140.0917  156.6997 H   0  0  0  0  0  0  0  0  0  0  0  0  # atno 8010 bound_to 7997
  139.4900  144.5801  151.6888 H   0  0  0  0  0  0  0  0  0  0  0  0  # atno 10167 bound_to 10162
  156.1039  130.6194  150.9174 H   0  0  0  0  0  0  0  0  0  0  0  0  # atno 10718 bound_to 10713
  153.8279  135.6868  153.4818 H   0  0  0  0  0  0  0  0  0  0  0  0  # atno 10763 bound_to 10752
  153.1529  135.4611  154.9660 H   0  0  0  0  0  0  0  0  0  0  0  0  # atno 10764 bound_to 10752
  154.7899  135.3298  154.7745 H   0  0  0  0  0  0  0  0  0  0  0  0  # atno 10765 bound_to 10752
  140.5401  134.0382  155.7901 H   0  0  0  0  0  0  0  0  0  0  0  0  # atno 11005 bound_to 11000
  145.0689  140.9141  143.4894 LP  0  0  0  0  0  0  0  0  0  0  0  0  # atno 17320 bound_to 7965
  145.0993  139.2834  143.5694 LP  0  0  0  0  0  0  0  0  0  0  0  0  # atno 17321 bound_to 7965
  140.5405  144.0586  150.6087 LP  0  0  0  0  0  0  0  0  0  0  0  0  # atno 17342 bound_to 10162
  140.3607  143.2910  152.0387 LP  0  0  0  0  0  0  0  0  0  0  0  0  # atno 17343 bound_to 10162
  157.6213  131.0929  150.8616 LP  0  0  0  0  0  0  0  0  0  0  0  0  # atno 17370 bound_to 10713
  156.8739  130.5155  149.5295 LP  0  0  0  0  0  0  0  0  0  0  0  0  # atno 17371 bound_to 10713
  141.1232  133.9427  157.2688 LP  0  0  0  0  0  0  0  0  0  0  0  0  # atno 17394 bound_to 11000
  139.9508  135.0175  156.8989 LP  0  0  0  0  0  0  0  0  0  0  0  0  # atno 17395 bound_to 11000

$$$$
