AV-unprocessed.smi:1047|AV-procd|sdf|4591|dock6
  -GOLD-   22720 3 73D 1   1.00000     0.00000
 Structure written by MMmdl.
 57 59  0  0  0  0  0  0  0  0  3 V2000
  143.0940  146.8539  155.6668 C   0  0  0  0  0  0  0  0  0  0  0  0
  142.3656  145.5362  155.3647 C   0  0  0  0  0  0  0  0  0  0  0  0
  143.1500  144.3272  155.6109 N   0  0  0  0  0  0  0  0  0  0  0  0
  143.6847  144.3186  156.9681 C   0  0  0  0  0  0  0  0  0  0  0  0
  144.5187  143.0573  157.2489 C   0  0  0  0  0  0  0  0  0  0  0  0
  145.5622  142.9540  156.2855 O   0  0  0  0  0  0  0  0  0  0  0  0
  145.0795  142.9003  154.9451 C   0  0  2  0  0  0  0  0  0  0  0  0
  146.2867  142.7825  154.0049 C   0  0  0  0  0  0  0  0  0  0  0  0
  147.4480  142.1944  154.7010 N   0  3  0  0  0  0  0  0  0  0  0  0
  148.1583  141.1613  153.9204 C   0  0  0  0  0  0  0  0  0  0  0  0
  149.2904  140.5192  154.7396 C   0  0  1  0  0  0  0  0  0  0  0  0
  150.2126  139.9167  153.8519 O   0  0  0  0  0  0  0  0  0  0  0  0
  150.0195  141.5502  155.6243 C   0  0  0  0  0  0  0  0  0  0  0  0
  150.8845  140.9235  156.6349 N   0  0  0  0  0  0  0  0  0  0  0  0
  151.4632  139.6916  156.6353 C   0  0  0  0  0  0  0  0  0  0  0  0
  152.1736  139.5705  157.7902 N   0  3  0  0  0  0  0  0  0  0  0  0
  152.0473  140.7413  158.5400 C   0  0  0  0  0  0  0  0  0  0  0  0
  152.5823  141.0918  159.7738 C   0  0  0  0  0  0  0  0  0  0  0  0
  152.2633  142.3740  160.2745 C   0  0  0  0  0  0  0  0  0  0  0  0
  152.8326  142.7893  161.6205 C   0  0  0  0  0  0  0  0  0  0  0  0
  151.4306  143.2574  159.5402 C   0  0  0  0  0  0  0  0  0  0  0  0
  151.0941  144.6338  160.0887 C   0  0  0  0  0  0  0  0  0  0  0  0
  150.8964  142.8823  158.2864 C   0  0  0  0  0  0  0  0  0  0  0  0
  151.2201  141.6147  157.8065 C   0  0  0  0  0  0  0  0  0  0  0  0
  144.2530  144.1721  154.6659 C   0  0  0  0  0  0  0  0  0  0  0  0
  142.4879  147.7053  155.3568 H   0  0  0  0  0  0  0  0  0  0  0  0
  144.0418  146.9111  155.1308 H   0  0  0  0  0  0  0  0  0  0  0  0
  143.2981  146.9740  156.7305 H   0  0  0  0  0  0  0  0  0  0  0  0
  141.4341  145.4966  155.9311 H   0  0  0  0  0  0  0  0  0  0  0  0
  142.0755  145.5581  154.3134 H   0  0  0  0  0  0  0  0  0  0  0  0
  144.3047  145.2023  157.1276 H   0  0  0  0  0  0  0  0  0  0  0  0
  142.8678  144.3773  157.6884 H   0  0  0  0  0  0  0  0  0  0  0  0
  144.9567  143.1056  158.2459 H   0  0  0  0  0  0  0  0  0  0  0  0
  143.8930  142.1640  157.2165 H   0  0  0  0  0  0  0  0  0  0  0  0
  144.4410  142.0230  154.8250 H   0  0  0  0  0  0  0  0  0  0  0  0
  146.0320  142.1468  153.1559 H   0  0  0  0  0  0  0  0  0  0  0  0
  146.5519  143.7626  153.6060 H   0  0  0  0  0  0  0  0  0  0  0  0
  148.0972  142.9367  154.9199 H   0  0  0  0  0  0  0  0  0  0  0  0
  147.4533  140.4015  153.5795 H   0  0  0  0  0  0  0  0  0  0  0  0
  148.5733  141.6334  153.0289 H   0  0  0  0  0  0  0  0  0  0  0  0
  148.8749  139.7390  155.3793 H   0  0  0  0  0  0  0  0  0  0  0  0
  149.8115  139.8446  152.9992 H   0  0  0  0  0  0  0  0  0  0  0  0
  150.6057  142.2466  155.0244 H   0  0  0  0  0  0  0  0  0  0  0  0
  149.2898  142.1553  156.1639 H   0  0  0  0  0  0  0  0  0  0  0  0
  151.3758  138.9443  155.8597 H   0  0  0  0  0  0  0  0  0  0  0  0
  153.2158  140.4140  160.3273 H   0  0  0  0  0  0  0  0  0  0  0  0
  152.0295  142.9801  162.3327 H   0  0  0  0  0  0  0  0  0  0  0  0
  153.4314  143.6950  161.5212 H   0  0  0  0  0  0  0  0  0  0  0  0
  153.4726  142.0125  162.0400 H   0  0  0  0  0  0  0  0  0  0  0  0
  150.4266  145.1787  159.4207 H   0  0  0  0  0  0  0  0  0  0  0  0
  151.9998  145.2282  160.2121 H   0  0  0  0  0  0  0  0  0  0  0  0
  150.5995  144.5501  161.0568 H   0  0  0  0  0  0  0  0  0  0  0  0
  150.2657  143.5591  157.7303 H   0  0  0  0  0  0  0  0  0  0  0  0
  143.8690  144.1208  153.6472 H   0  0  0  0  0  0  0  0  0  0  0  0
  144.9030  145.0477  154.7111 H   0  0  0  0  0  0  0  0  0  0  0  0
  147.1314  141.7804  155.5665 H   0  0  0  0  0  0  0  0  0  0  0  0
  152.7053  138.7482  158.0459 H   0  0  0  0  0  0  0  0  0  0  0  0
  1  2  1  0  0  0  0
  1 26  1  0  0  0  0
  1 27  1  0  0  0  0
  1 28  1  0  0  0  0
  2  3  1  0  0  0  0
  2 29  1  0  0  0  0
  2 30  1  0  0  0  0
  3 25  1  0  0  0  0
  3  4  1  0  0  0  0
  4  5  1  0  0  0  0
  4 31  1  0  0  0  0
  4 32  1  0  0  0  0
  5  6  1  0  0  0  0
  5 33  1  0  0  0  0
  5 34  1  0  0  0  0
  6  7  1  0  0  0  0
  7  8  1  0  0  0  0
  7 25  1  0  0  0  0
  7 35  1  0  0  0  0
  8  9  1  0  0  0  0
  8 36  1  0  0  0  0
  8 37  1  0  0  0  0
  9 10  1  0  0  0  0
  9 38  1  0  0  0  0
  9 56  1  0  0  0  0
 10 11  1  0  0  0  0
 10 39  1  0  0  0  0
 10 40  1  0  0  0  0
 11 12  1  0  0  0  0
 11 13  1  0  0  0  0
 11 41  1  0  0  0  0
 12 42  1  0  0  0  0
 13 14  1  0  0  0  0
 13 43  1  0  0  0  0
 13 44  1  0  0  0  0
 14 24  1  0  0  0  0
 14 15  1  0  0  0  0
 15 16  2  0  0  0  0
 15 45  1  0  0  0  0
 16 17  1  0  0  0  0
 16 57  1  0  0  0  0
 17 24  2  0  0  0  0
 17 18  1  0  0  0  0
 18 19  2  0  0  0  0
 18 46  1  0  0  0  0
 19 20  1  0  0  0  0
 19 21  1  0  0  0  0
 20 47  1  0  0  0  0
 20 48  1  0  0  0  0
 20 49  1  0  0  0  0
 21 22  1  0  0  0  0
 21 23  2  0  0  0  0
 22 50  1  0  0  0  0
 22 51  1  0  0  0  0
 22 52  1  0  0  0  0
 23 24  1  0  0  0  0
 23 53  1  0  0  0  0
 25 54  1  0  0  0  0
 25 55  1  0  0  0  0
M  CHG  1   9   1
M  CHG  1  16   1
M  END
> <s_m_source_file>
AV-unprocessed.smi

> <i_m_source_file_index>
1047

> <i_lp_mmshare_version>
43012

> <i_f3d_flags>
0

> <s_epik_input>
W0NIM11bQ0gyXU4xW0NIMl1bQ0gyXU9bQ0BIXShbQ0gyXTEpW0NIMl1bTkhdW0NIMl1bQ0BIXShbT0hdKVtDSDJdbihbY0hdbjIpYyhjMjMpW2NIXWMoW0NIM10pYyhbY0hdMylbQ0gzXQ==

> <s_epik_cmdline>
J2VwaWtfcHl0aG9uJywgJy1waCcsICc3LjAnLCAnLXRuJywgJzgnLCAnLW1hJywgJzIwMCcsICctbWV0YWxfYmluZGluZycsICctaW1hZScsICc8aW5maWxlLm1hZT4nLCAnLW9tYWUnLCAnPG91dGZpbGUubWFlPic=

> <r_epik_Ionization_Penalty>
1.75732

> <r_epik_Ionization_Penalty_Charging>
1.18089

> <r_epik_Ionization_Penalty_Neutral>
0.576429

> <r_epik_State_Penalty>
1.69377

> <r_epik_Charging_Adjusted_Penalty>
2.87466

> <i_epik_Tot_Q>
2

> <i_epik_Tot_abs_Q>
2

> <r_epik_Metal_State_Penalty>
5.70174

> <b_epik_Metal_Only>
0

> <s_lp_Force_Field>
OPLS_2005

> <r_lp_Energy>
38.6305

> <b_lp_Chiralities_Consistent>
1

> <s_lp_Variant>
AV-unprocessed.smi:1047-32

> <Gold.Version>
5.8.1

> <Gold.Id.Protein>
6NUR|6NUR_protein|mol2

> <Gold.PLP.Fitness>
63.4224

> <Gold.PLP.PLP>
-54.4312

> <Gold.PLP.part.hbond>
-3.0000

> <Gold.PLP.part.metal>
0.0000

> <Gold.PLP.part.buried>
-7.5423

> <Gold.PLP.part.nonpolar>
-44.6233

> <Gold.PLP.part.repulsive>
0.4172

> <Gold.PLP.ligand.clash>
0.0000

> <Gold.PLP.ligand.torsion>
1.4628

> <Gold.PLP.Chemscore.Hbond>
3.9120

> <Gold.PLP.Chemscore.CHOScore>
0.0000

> <Gold.PLP.Chemscore.Metal>
0.0000

> <Gold.Chemscore.Hbonds>
donor molecule, donor type, donor heavy atom, donor atom, acceptor molecule, acceptor atom, score
      L1  H     9    38       P1  8028  1.85
      L1  H    12    42       P1  7957  1.00
      P1  H  7989  7998       L1    12  0.93

> <Gold.PLP.Chemscore.Internal.Correction>
0.1809

> <Gold.Rescore>
     Score         DG    S(hbond)    S(metal)    S(lipo)     H(rot)  DE(clash)    DE(int)     intcor
     21.23     -22.94       2.51        0.00     136.59       2.69       0.12       1.60       ----

> <Gold.Chemscore.Fitness>
21.2275

> <Gold.Chemscore.DG>
-22.9448

> <Gold.Chemscore.ZeroCoef>
-5.4800

> <Gold.Chemscore.Hbond>
2.5073

> <Gold.Chemscore.Metal>
0.0000

> <Gold.Chemscore.Lipo>
136.5899

> <Gold.Chemscore.Internal_Hbond>
0.0000

> <Gold.Chemscore.DEClash>
0.1156

> <Gold.Chemscore.DEInternal>
1.6017

> <Gold.Chemscore.Rot>
2.6917

> <Gold.Chemscore.Internal.Correction>
   9.000000E+99

> <Gold.Chemscore.Hbonds>
donor molecule, donor type, donor heavy atom, donor atom, acceptor molecule, acceptor atom, score
      L1  H     9    38       P1  8028  0.86
      L1  H    12    42       P1  7957  0.99
      P1  H  7989  7998       L1    12  0.21

> <Gold.Chemscore.Hbond.Weighted>
-8.3744

> <Gold.Chemscore.Metal.Weighted>
-0.0000

> <Gold.Chemscore.Lipo.Weighted>
-15.9810

> <Gold.Chemscore.Internal_Hbond.Weighted>
0.0000

> <Gold.Chemscore.DEClash.Weighted>
0.1156

> <Gold.Chemscore.DEInternal.Weighted>
1.6017

> <Gold.Chemscore.Rot.Weighted>
6.8907

> <Gold.Chemscore.Internal.Correction.Weighted>
   9.000000E+99

> <Gold.Protein.RotatedTorsions>
[ 6907 6896 6895 6894 ] final  -59.54 input  -60.11 | X-H torsion
[ 7974 7965 7964 7962 ] final  116.79 input  175.53 | X-H torsion
[ 8008 7997 7996 7995 ] final   94.26 input   59.86 | X-H torsion
[ 10167 10162 10161 10158 ] final -139.40 input  -65.29 | X-H torsion
[ 10718 10713 10712 10709 ] final -175.34 input   66.30 | X-H torsion
[ 10763 10752 10751 10750 ] final -119.61 input  -60.55 | X-H torsion
[ 11005 11000 10999 10996 ] final -117.84 input  -57.11 | X-H torsion

> <Gold.Protein.ActiveResidues>
 VAL166  LYS551  ARG553  GLY616  TRP617  ASP618  TYR619  PRO620  LYS621  CYS622 
 ASP623  PHE694  ASN695  SER759  ASP760  ASP761  ALA762  ILE779  LEU786  VAL792 
 PHE793  MET794  SER795  GLU796  ALA797  LYS798  CYS799  TRP800  GLU811  SER814 

> <Gold.Protein.RotatedAtoms>
  150.7923  134.6955  159.6520 H   0  0  0  0  0  0  0  0  0  0  0  0  # atno 6907 bound_to 6896
  152.4030  134.6251  160.0071 H   0  0  0  0  0  0  0  0  0  0  0  0  # atno 6908 bound_to 6896
  151.6517  133.3284  159.3189 H   0  0  0  0  0  0  0  0  0  0  0  0  # atno 6909 bound_to 6896
  145.1753  139.3079  143.4446 H   0  0  0  0  0  0  0  0  0  0  0  0  # atno 7974 bound_to 7965
  156.0560  140.3302  155.7405 H   0  0  0  0  0  0  0  0  0  0  0  0  # atno 8008 bound_to 7997
  155.5529  140.0612  157.2863 H   0  0  0  0  0  0  0  0  0  0  0  0  # atno 8009 bound_to 7997
  154.4458  140.1891  156.0693 H   0  0  0  0  0  0  0  0  0  0  0  0  # atno 8010 bound_to 7997
  139.8383  143.7355  152.2664 H   0  0  0  0  0  0  0  0  0  0  0  0  # atno 10167 bound_to 10162
  156.7985  130.9543  151.3119 H   0  0  0  0  0  0  0  0  0  0  0  0  # atno 10718 bound_to 10713
  154.8622  135.4232  154.2326 H   0  0  0  0  0  0  0  0  0  0  0  0  # atno 10763 bound_to 10752
  153.3308  135.6988  153.6955 H   0  0  0  0  0  0  0  0  0  0  0  0  # atno 10764 bound_to 10752
  153.5973  135.3543  155.2906 H   0  0  0  0  0  0  0  0  0  0  0  0  # atno 10765 bound_to 10752
  141.0327  133.9956  157.3118 H   0  0  0  0  0  0  0  0  0  0  0  0  # atno 11005 bound_to 11000
  146.3462  140.1913  142.8589 LP  0  0  0  0  0  0  0  0  0  0  0  0  # atno 17320 bound_to 7965
  145.0191  140.8779  143.5177 LP  0  0  0  0  0  0  0  0  0  0  0  0  # atno 17321 bound_to 7965
  139.7584  144.7514  151.0400 LP  0  0  0  0  0  0  0  0  0  0  0  0  # atno 17342 bound_to 10162
  140.7800  143.4779  151.0058 LP  0  0  0  0  0  0  0  0  0  0  0  0  # atno 17343 bound_to 10162
  157.6565  130.8929  149.9741 LP  0  0  0  0  0  0  0  0  0  0  0  0  # atno 17370 bound_to 10713
  156.1116  130.3650  150.0040 LP  0  0  0  0  0  0  0  0  0  0  0  0  # atno 17371 bound_to 10713
  139.9219  135.0200  156.8095 LP  0  0  0  0  0  0  0  0  0  0  0  0  # atno 17394 bound_to 11000
  140.6377  133.9847  155.7692 LP  0  0  0  0  0  0  0  0  0  0  0  0  # atno 17395 bound_to 11000

$$$$
