AV-unprocessed.smi:2043|AV-procd|sdf|8296|dock6
  -GOLD-   2272010563D 1   1.00000     0.00000
 Structure written by MMmdl.
 29 30  0  0  0  0  0  0  0  0  1 V2000
  146.7293  138.9340  152.3931 C   0  0  0  0  0  0  0  0  0  0  0  0
  147.6903  139.6032  153.3153 C   0  0  0  0  0  0  0  0  0  0  0  0
  148.6478  138.9368  153.9716 N   0  0  0  0  0  0  0  0  0  0  0  0
  149.4150  139.7713  154.7727 N   0  0  0  0  0  0  0  0  0  0  0  0
  149.0101  141.0466  154.6977 C   0  0  0  0  0  0  0  0  0  0  0  0
  149.6159  142.1112  155.4158 N   0  0  0  0  0  0  0  0  0  0  0  0
  150.6925  142.0680  156.2205 C   0  0  0  0  0  0  0  0  0  0  0  0
  151.3582  141.0615  156.4653 O   0  0  0  0  0  0  0  0  0  0  0  0
  150.9609  143.2772  156.7344 N   0  0  0  0  0  0  0  0  0  0  0  0
  152.0620  143.5835  157.6406 C   0  0  0  0  0  0  0  0  0  0  0  0
  151.5657  143.7961  159.0687 C   0  0  0  0  0  0  0  0  0  0  0  0
  151.5127  145.2108  159.6678 C   0  0  0  0  0  0  0  0  0  0  0  0
  151.8879  144.6022  161.0214 C   0  0  0  0  0  0  0  0  0  0  0  0
  152.4754  143.4192  160.2476 C   0  0  0  0  0  0  0  0  0  0  0  0
  147.6461  141.3335  153.6308 S   0  0  0  0  0  0  0  0  0  0  0  0
  147.1248  137.9747  152.0580 H   0  0  0  0  0  0  0  0  0  0  0  0
  146.5501  139.5605  151.5192 H   0  0  0  0  0  0  0  0  0  0  0  0
  145.7816  138.7640  152.9040 H   0  0  0  0  0  0  0  0  0  0  0  0
  149.1741  143.0119  155.3073 H   0  0  0  0  0  0  0  0  0  0  0  0
  150.3601  144.0466  156.4775 H   0  0  0  0  0  0  0  0  0  0  0  0
  152.7608  142.7475  157.6101 H   0  0  0  0  0  0  0  0  0  0  0  0
  152.6186  144.4533  157.2876 H   0  0  0  0  0  0  0  0  0  0  0  0
  150.5955  143.3163  159.2157 H   0  0  0  0  0  0  0  0  0  0  0  0
  152.2898  145.8682  159.2738 H   0  0  0  0  0  0  0  0  0  0  0  0
  150.5312  145.6846  159.6334 H   0  0  0  0  0  0  0  0  0  0  0  0
  152.6130  145.1777  161.5974 H   0  0  0  0  0  0  0  0  0  0  0  0
  151.0172  144.3277  161.6191 H   0  0  0  0  0  0  0  0  0  0  0  0
  152.2739  142.4411  160.6855 H   0  0  0  0  0  0  0  0  0  0  0  0
  153.5358  143.5489  160.0241 H   0  0  0  0  0  0  0  0  0  0  0  0
  1  2  1  0  0  0  0
  1 16  1  0  0  0  0
  1 17  1  0  0  0  0
  1 18  1  0  0  0  0
  2 15  1  0  0  0  0
  2  3  2  0  0  0  0
  3  4  1  0  0  0  0
  4  5  2  0  0  0  0
  5  6  1  0  0  0  0
  5 15  1  0  0  0  0
  6  7  1  0  0  0  0
  6 19  1  0  0  0  0
  7  8  2  0  0  0  0
  7  9  1  0  0  0  0
  9 10  1  0  0  0  0
  9 20  1  0  0  0  0
 10 11  1  0  0  0  0
 10 21  1  0  0  0  0
 10 22  1  0  0  0  0
 11 14  1  0  0  0  0
 11 12  1  0  0  0  0
 11 23  1  0  0  0  0
 12 13  1  0  0  0  0
 12 24  1  0  0  0  0
 12 25  1  0  0  0  0
 13 14  1  0  0  0  0
 13 26  1  0  0  0  0
 13 27  1  0  0  0  0
 14 28  1  0  0  0  0
 14 29  1  0  0  0  0
M  END
> <s_m_source_file>
AV-unprocessed.smi

> <i_m_source_file_index>
2043

> <i_lp_mmshare_version>
43012

> <i_f3d_flags>
0

> <s_epik_input>
W0NIM11jMW5uYyhzMSlbTkhdQyg9TylbTkhdW0NIMl1bQ0hdMltDSDJdW0NIMl1bQ0gyXTI=

> <s_epik_cmdline>
J2VwaWtfcHl0aG9uJywgJy1waCcsICc3LjAnLCAnLXRuJywgJzgnLCAnLW1hJywgJzIwMCcsICctbWV0YWxfYmluZGluZycsICctaW1hZScsICc8aW5maWxlLm1hZT4nLCAnLW9tYWUnLCAnPG91dGZpbGUubWFlPic=

> <r_lp_tautomer_probability>
1

> <r_epik_Ionization_Penalty>
0.000387707

> <r_epik_Ionization_Penalty_Charging>
0

> <r_epik_Ionization_Penalty_Neutral>
0.000387707

> <r_epik_State_Penalty>
-0

> <r_epik_Charging_Adjusted_Penalty>
0

> <i_epik_Tot_Q>
0

> <i_epik_Tot_abs_Q>
0

> <r_epik_Metal_State_Penalty>
0.190371

> <b_epik_Metal_Only>
0

> <s_lp_Force_Field>
OPLS_2005

> <r_lp_Energy>
11.3872

> <b_lp_Chiralities_Consistent>
1

> <s_lp_Variant>
AV-unprocessed.smi:2043-1

> <Gold.Version>
5.8.1

> <Gold.Id.Protein>
6NUR|6NUR_protein|mol2

> <Gold.PLP.Fitness>
38.5561

> <Gold.PLP.PLP>
-33.7294

> <Gold.PLP.part.hbond>
-2.0000

> <Gold.PLP.part.metal>
0.0000

> <Gold.PLP.part.buried>
-3.6070

> <Gold.PLP.part.nonpolar>
-28.6636

> <Gold.PLP.part.repulsive>
0.9128

> <Gold.PLP.ligand.clash>
0.0000

> <Gold.PLP.ligand.torsion>
0.6156

> <Gold.PLP.Chemscore.Hbond>
2.0000

> <Gold.PLP.Chemscore.CHOScore>
0.0000

> <Gold.PLP.Chemscore.Metal>
0.0000

> <Gold.Chemscore.Hbonds>
donor molecule, donor type, donor heavy atom, donor atom, acceptor molecule, acceptor atom, score
      L1  H     6    19       P1  8028  1.00
      L1  H     9    20       P1  8028  1.00

> <Gold.PLP.Chemscore.Internal.Correction>
0.0580

> <Gold.Rescore>
     Score         DG    S(hbond)    S(metal)    S(lipo)     H(rot)  DE(clash)    DE(int)     intcor
     15.92     -18.46       1.96        0.00      82.97       1.27       0.73       1.80       ----

> <Gold.Chemscore.Fitness>
15.9235

> <Gold.Chemscore.DG>
-18.4603

> <Gold.Chemscore.ZeroCoef>
-5.4800

> <Gold.Chemscore.Hbond>
1.9570

> <Gold.Chemscore.Metal>
0.0000

> <Gold.Chemscore.Lipo>
82.9739

> <Gold.Chemscore.Internal_Hbond>
0.0000

> <Gold.Chemscore.DEClash>
0.7341

> <Gold.Chemscore.DEInternal>
1.8027

> <Gold.Chemscore.Rot>
1.2750

> <Gold.Chemscore.Internal.Correction>
   9.000000E+99

> <Gold.Chemscore.Hbonds>
donor molecule, donor type, donor heavy atom, donor atom, acceptor molecule, acceptor atom, score
      L1  H     6    19       P1  8028  0.99
      L1  H     9    20       P1  8028  0.97

> <Gold.Chemscore.Hbond.Weighted>
-6.5364

> <Gold.Chemscore.Metal.Weighted>
-0.0000

> <Gold.Chemscore.Lipo.Weighted>
-9.7079

> <Gold.Chemscore.Internal_Hbond.Weighted>
0.0000

> <Gold.Chemscore.DEClash.Weighted>
0.7341

> <Gold.Chemscore.DEInternal.Weighted>
1.8027

> <Gold.Chemscore.Rot.Weighted>
3.2640

> <Gold.Chemscore.Internal.Correction.Weighted>
   9.000000E+99

> <Gold.Protein.RotatedTorsions>
[ 6907 6896 6895 6894 ] final -154.66 input  -60.11 | X-H torsion
[ 7974 7965 7964 7962 ] final -131.17 input  175.53 | X-H torsion
[ 8008 7997 7996 7995 ] final  168.39 input   59.86 | X-H torsion
[ 10167 10162 10161 10158 ] final  -95.60 input  -65.29 | X-H torsion
[ 10718 10713 10712 10709 ] final -164.84 input   66.30 | X-H torsion
[ 10763 10752 10751 10750 ] final  -65.48 input  -60.55 | X-H torsion
[ 11005 11000 10999 10996 ] final   86.96 input  -57.11 | X-H torsion

> <Gold.Protein.ActiveResidues>
 VAL166  LYS551  ARG553  GLY616  TRP617  ASP618  TYR619  PRO620  LYS621  CYS622 
 ASP623  PHE694  ASN695  SER759  ASP760  ASP761  ALA762  ILE779  LEU786  VAL792 
 PHE793  MET794  SER795  GLU796  ALA797  LYS798  CYS799  TRP800  GLU811  SER814 

> <Gold.Protein.RotatedAtoms>
  151.2608  133.4303  159.2615 H   0  0  0  0  0  0  0  0  0  0  0  0  # atno 6907 bound_to 6896
  151.0533  134.9688  159.8233 H   0  0  0  0  0  0  0  0  0  0  0  0  # atno 6908 bound_to 6896
  152.5386  134.2561  159.8970 H   0  0  0  0  0  0  0  0  0  0  0  0  # atno 6909 bound_to 6896
  144.9405  140.7233  143.4850 H   0  0  0  0  0  0  0  0  0  0  0  0  # atno 7974 bound_to 7965
  156.1551  140.1591  156.8706 H   0  0  0  0  0  0  0  0  0  0  0  0  # atno 8008 bound_to 7997
  154.5107  140.0802  156.8020 H   0  0  0  0  0  0  0  0  0  0  0  0  # atno 8009 bound_to 7997
  155.3820  140.3405  155.4249 H   0  0  0  0  0  0  0  0  0  0  0  0  # atno 8010 bound_to 7997
  140.3025  143.3154  152.0233 H   0  0  0  0  0  0  0  0  0  0  0  0  # atno 10167 bound_to 10162
  156.6448  130.8983  151.3002 H   0  0  0  0  0  0  0  0  0  0  0  0  # atno 10718 bound_to 10713
  154.3456  135.6147  153.5618 H   0  0  0  0  0  0  0  0  0  0  0  0  # atno 10763 bound_to 10752
  152.9801  135.5780  154.4802 H   0  0  0  0  0  0  0  0  0  0  0  0  # atno 10764 bound_to 10752
  154.4514  135.2853  155.1755 H   0  0  0  0  0  0  0  0  0  0  0  0  # atno 10765 bound_to 10752
  139.8931  134.8390  156.2794 H   0  0  0  0  0  0  0  0  0  0  0  0  # atno 11005 bound_to 11000
  145.2999  139.1854  143.4695 LP  0  0  0  0  0  0  0  0  0  0  0  0  # atno 17320 bound_to 7965
  146.3284  140.2988  142.8619 LP  0  0  0  0  0  0  0  0  0  0  0  0  # atno 17321 bound_to 7965
  139.4912  144.6445  151.6807 LP  0  0  0  0  0  0  0  0  0  0  0  0  # atno 17342 bound_to 10162
  140.5638  144.0223  150.6183 LP  0  0  0  0  0  0  0  0  0  0  0  0  # atno 17343 bound_to 10162
  157.7159  130.9497  150.1256 LP  0  0  0  0  0  0  0  0  0  0  0  0  # atno 17370 bound_to 10713
  156.2130  130.3668  149.8647 LP  0  0  0  0  0  0  0  0  0  0  0  0  # atno 17371 bound_to 10713
  141.0049  133.7129  156.1018 LP  0  0  0  0  0  0  0  0  0  0  0  0  # atno 17394 bound_to 11000
  140.7447  134.4111  157.5550 LP  0  0  0  0  0  0  0  0  0  0  0  0  # atno 17395 bound_to 11000

$$$$
