AV-unprocessed.smi:2495|AV-procd|sdf|9823|dock1
  -GOLD-   2272013453D 1   1.00000     0.00000
 Structure written by MMmdl.
 33 34  0  0  0  0  0  0  0  0  1 V2000
  146.4330  141.4078  154.3299 C   0  0  0  0  0  0  0  0  0  0  0  0
  147.5399  140.6401  154.8788 N   0  0  0  0  0  0  0  0  0  0  0  0
  148.8312  140.8565  154.5863 C   0  0  0  0  0  0  0  0  0  0  0  0
  149.2013  141.7496  153.8231 O   0  0  0  0  0  0  0  0  0  0  0  0
  149.8562  139.9430  155.2751 C   0  0  2  0  0  0  0  0  0  0  0  0
  150.6905  140.6907  156.3408 C   0  0  0  0  0  0  0  0  0  0  0  0
  151.7339  139.8246  156.8859 N   0  0  0  0  0  0  0  0  0  0  0  0
  152.3863  140.3037  158.0429 C   0  0  0  0  0  0  0  0  0  0  0  0
  151.9615  141.4953  158.6790 C   0  0  0  0  0  0  0  0  0  0  0  0
  152.6747  141.8959  159.8281 C   0  0  0  0  0  0  0  0  0  0  0  0
  152.3064  143.1548  160.5846 C   0  0  0  0  0  0  0  0  0  0  0  0
  153.7168  141.1825  160.3050 N   0  0  0  0  0  0  0  0  0  0  0  0
  154.0341  140.0720  159.6372 C   0  0  0  0  0  0  0  0  0  0  0  0
  153.4300  139.5976  158.5454 N   0  0  0  0  0  0  0  0  0  0  0  0
  152.5514  139.1794  155.8612 C   0  0  0  0  0  0  0  0  0  0  0  0
  151.6571  138.4720  154.8318 C   0  0  0  0  0  0  0  0  0  0  0  0
  150.7325  139.4046  154.2847 O   0  0  0  0  0  0  0  0  0  0  0  0
  145.4952  141.0826  154.7801 H   0  0  0  0  0  0  0  0  0  0  0  0
  146.3618  141.2643  153.2512 H   0  0  0  0  0  0  0  0  0  0  0  0
  146.5568  142.4724  154.5323 H   0  0  0  0  0  0  0  0  0  0  0  0
  147.3139  139.8886  155.5149 H   0  0  0  0  0  0  0  0  0  0  0  0
  149.3033  139.1278  155.7453 H   0  0  0  0  0  0  0  0  0  0  0  0
  151.1634  141.5708  155.9025 H   0  0  0  0  0  0  0  0  0  0  0  0
  150.0246  141.0470  157.1254 H   0  0  0  0  0  0  0  0  0  0  0  0
  151.1227  142.0738  158.3216 H   0  0  0  0  0  0  0  0  0  0  0  0
  151.2634  143.4214  160.4111 H   0  0  0  0  0  0  0  0  0  0  0  0
  152.9321  143.9855  160.2580 H   0  0  0  0  0  0  0  0  0  0  0  0
  152.4462  143.0189  161.6575 H   0  0  0  0  0  0  0  0  0  0  0  0
  154.8652  139.4978  160.0190 H   0  0  0  0  0  0  0  0  0  0  0  0
  153.1699  139.9299  155.3667 H   0  0  0  0  0  0  0  0  0  0  0  0
  153.2227  138.4495  156.3155 H   0  0  0  0  0  0  0  0  0  0  0  0
  152.2653  138.0610  154.0261 H   0  0  0  0  0  0  0  0  0  0  0  0
  151.1233  137.6360  155.2866 H   0  0  0  0  0  0  0  0  0  0  0  0
  1  2  1  0  0  0  0
  1 18  1  0  0  0  0
  1 19  1  0  0  0  0
  1 20  1  0  0  0  0
  2  3  1  0  0  0  0
  2 21  1  0  0  0  0
  3  4  2  0  0  0  0
  3  5  1  0  0  0  0
  5 17  1  0  0  0  0
  5  6  1  0  0  0  0
  5 22  1  0  0  0  0
  6  7  1  0  0  0  0
  6 23  1  0  0  0  0
  6 24  1  0  0  0  0
  7  8  1  0  0  0  0
  7 15  1  0  0  0  0
  8 14  1  0  0  0  0
  8  9  2  0  0  0  0
  9 10  1  0  0  0  0
  9 25  1  0  0  0  0
 10 11  1  0  0  0  0
 10 12  2  0  0  0  0
 11 26  1  0  0  0  0
 11 27  1  0  0  0  0
 11 28  1  0  0  0  0
 12 13  1  0  0  0  0
 13 14  2  0  0  0  0
 13 29  1  0  0  0  0
 15 16  1  0  0  0  0
 15 30  1  0  0  0  0
 15 31  1  0  0  0  0
 16 17  1  0  0  0  0
 16 32  1  0  0  0  0
 16 33  1  0  0  0  0
M  END
> <s_m_source_file>
AV-unprocessed.smi

> <i_m_source_file_index>
2495

> <i_lp_mmshare_version>
43012

> <i_f3d_flags>
0

> <s_epik_input>
W0NIM11bTkhdQyg9TylbQ0BASF0xW0NIMl1OKFtDSDJdW0NIMl1PMSljMltjSF1jKFtDSDNdKW5bY0hdbjI=

> <s_epik_cmdline>
J2VwaWtfcHl0aG9uJywgJy1waCcsICc3LjAnLCAnLXRuJywgJzgnLCAnLW1hJywgJzIwMCcsICctbWV0YWxfYmluZGluZycsICctaW1hZScsICc8aW5maWxlLm1hZT4nLCAnLW9tYWUnLCAnPG91dGZpbGUubWFlPic=

> <r_lp_tautomer_probability>
1

> <r_epik_Ionization_Penalty>
0.000466083

> <r_epik_Ionization_Penalty_Charging>
0

> <r_epik_Ionization_Penalty_Neutral>
0.000466083

> <r_epik_State_Penalty>
0.000259726

> <r_epik_Charging_Adjusted_Penalty>
0.000259726

> <i_epik_Tot_Q>
0

> <i_epik_Tot_abs_Q>
0

> <r_epik_Metal_State_Penalty>
-0

> <b_epik_Metal_Only>
0

> <s_lp_Force_Field>
OPLS_2005

> <r_lp_Energy>
12.0364

> <b_lp_Chiralities_Consistent>
1

> <s_lp_Variant>
AV-unprocessed.smi:2495-1

> <Gold.Version>
5.8.1

> <Gold.Id.Protein>
6NUR|6NUR_protein|mol2

> <Gold.PLP.Fitness>
38.4298

> <Gold.PLP.PLP>
-31.3199

> <Gold.PLP.part.hbond>
-3.8695

> <Gold.PLP.part.metal>
0.0000

> <Gold.PLP.part.buried>
-2.0232

> <Gold.PLP.part.nonpolar>
-25.1059

> <Gold.PLP.part.repulsive>
0.3960

> <Gold.PLP.ligand.clash>
0.0000

> <Gold.PLP.ligand.torsion>
0.5303

> <Gold.PLP.Chemscore.Hbond>
2.6080

> <Gold.PLP.Chemscore.CHOScore>
0.0000

> <Gold.PLP.Chemscore.Metal>
0.0000

> <Gold.Chemscore.Hbonds>
donor molecule, donor type, donor heavy atom, donor atom, acceptor molecule, acceptor atom, score
      P1  H  7989  7998       L1    17  1.00
      P1  H  7997  8009       L1    14  0.95
      P1  H  8011  8017       L1     4  0.61

> <Gold.PLP.Chemscore.Internal.Correction>
0.3465

> <Gold.Rescore>
     Score         DG    S(hbond)    S(metal)    S(lipo)     H(rot)  DE(clash)    DE(int)     intcor
     13.41     -15.42       1.92        0.00      60.22       1.37       1.41       0.59       ----

> <Gold.Chemscore.Fitness>
13.4131

> <Gold.Chemscore.DG>
-15.4152

> <Gold.Chemscore.ZeroCoef>
-5.4800

> <Gold.Chemscore.Hbond>
1.9157

> <Gold.Chemscore.Metal>
0.0000

> <Gold.Chemscore.Lipo>
60.2177

> <Gold.Chemscore.Internal_Hbond>
0.0000

> <Gold.Chemscore.DEClash>
1.4099

> <Gold.Chemscore.DEInternal>
0.5922

> <Gold.Chemscore.Rot>
1.3706

> <Gold.Chemscore.Internal.Correction>
   9.000000E+99

> <Gold.Chemscore.Hbonds>
donor molecule, donor type, donor heavy atom, donor atom, acceptor molecule, acceptor atom, score
      P1  H  7989  7998       L1    17  0.47
      P1  H  7997  8009       L1    14  0.05
      P1  H  8011  8017       L1     4  0.60

> <Gold.Chemscore.Hbond.Weighted>
-6.3984

> <Gold.Chemscore.Metal.Weighted>
-0.0000

> <Gold.Chemscore.Lipo.Weighted>
-7.0455

> <Gold.Chemscore.Internal_Hbond.Weighted>
0.0000

> <Gold.Chemscore.DEClash.Weighted>
1.4099

> <Gold.Chemscore.DEInternal.Weighted>
0.5922

> <Gold.Chemscore.Rot.Weighted>
3.5087

> <Gold.Chemscore.Internal.Correction.Weighted>
   9.000000E+99

> <Gold.Protein.RotatedTorsions>
[ 6907 6896 6895 6894 ] final  -26.22 input  -60.11 | X-H torsion
[ 7974 7965 7964 7962 ] final   35.91 input  175.53 | X-H torsion
[ 8008 7997 7996 7995 ] final  140.90 input   59.86 | X-H torsion
[ 10167 10162 10161 10158 ] final  -84.83 input  -65.29 | X-H torsion
[ 10718 10713 10712 10709 ] final  -92.25 input   66.30 | X-H torsion
[ 10763 10752 10751 10750 ] final  140.33 input  -60.55 | X-H torsion
[ 11005 11000 10999 10996 ] final  178.61 input  -57.11 | X-H torsion

> <Gold.Protein.ActiveResidues>
 VAL166  LYS551  ARG553  GLY616  TRP617  ASP618  TYR619  PRO620  LYS621  CYS622 
 ASP623  PHE694  ASN695  SER759  ASP760  ASP761  ALA762  ILE779  LEU786  VAL792 
 PHE793  MET794  SER795  GLU796  ALA797  LYS798  CYS799  TRP800  GLU811  SER814 

> <Gold.Protein.RotatedAtoms>
  151.1641  135.0287  159.8722 H   0  0  0  0  0  0  0  0  0  0  0  0  # atno 6907 bound_to 6896
  152.5451  134.1246  159.8423 H   0  0  0  0  0  0  0  0  0  0  0  0  # atno 6908 bound_to 6896
  151.1344  133.4968  159.2631 H   0  0  0  0  0  0  0  0  0  0  0  0  # atno 6909 bound_to 6896
  146.1249  139.6083  142.9265 H   0  0  0  0  0  0  0  0  0  0  0  0  # atno 7974 bound_to 7965
  156.2973  140.2329  156.4476 H   0  0  0  0  0  0  0  0  0  0  0  0  # atno 8008 bound_to 7997
  154.8130  140.0442  157.1377 H   0  0  0  0  0  0  0  0  0  0  0  0  # atno 8009 bound_to 7997
  154.9401  140.3028  155.5128 H   0  0  0  0  0  0  0  0  0  0  0  0  # atno 8010 bound_to 7997
  140.4095  143.2628  151.9036 H   0  0  0  0  0  0  0  0  0  0  0  0  # atno 10167 bound_to 10162
  156.0000  130.4980  150.5597 H   0  0  0  0  0  0  0  0  0  0  0  0  # atno 10718 bound_to 10713
  153.9209  135.3000  155.3447 H   0  0  0  0  0  0  0  0  0  0  0  0  # atno 10763 bound_to 10752
  154.7576  135.4950  153.9406 H   0  0  0  0  0  0  0  0  0  0  0  0  # atno 10764 bound_to 10752
  153.1142  135.6766  153.9550 H   0  0  0  0  0  0  0  0  0  0  0  0  # atno 10765 bound_to 10752
  140.3970  134.6811  157.4540 H   0  0  0  0  0  0  0  0  0  0  0  0  # atno 11005 bound_to 11000
  145.5387  141.0422  143.2343 LP  0  0  0  0  0  0  0  0  0  0  0  0  # atno 17320 bound_to 7965
  144.7633  139.6906  143.7225 LP  0  0  0  0  0  0  0  0  0  0  0  0  # atno 17321 bound_to 7965
  139.4783  144.5551  151.8326 LP  0  0  0  0  0  0  0  0  0  0  0  0  # atno 17342 bound_to 10162
  140.4653  144.1664  150.5911 LP  0  0  0  0  0  0  0  0  0  0  0  0  # atno 17343 bound_to 10162
  157.3508  131.0733  151.1714 LP  0  0  0  0  0  0  0  0  0  0  0  0  # atno 17370 bound_to 10713
  157.2531  130.6623  149.5940 LP  0  0  0  0  0  0  0  0  0  0  0  0  # atno 17371 bound_to 10713
  140.0364  134.6331  155.9038 LP  0  0  0  0  0  0  0  0  0  0  0  0  # atno 17394 bound_to 11000
  141.1870  133.6559  156.5264 LP  0  0  0  0  0  0  0  0  0  0  0  0  # atno 17395 bound_to 11000

$$$$
