AV-unprocessed.smi:561|AV-procd|sdf|2941|dock9
  -GOLD-   2262023443D 1   1.00000     0.00000
 Structure written by MMmdl.
 36 37  0  0  0  0  0  0  0  0  3 V2000
  154.2545  141.3479  161.3298 C   0  0  0  0  0  0  0  0  0  0  0  0
  152.9517  141.8716  160.7102 C   0  0  1  0  0  0  0  0  0  0  0  0
  153.2069  143.1371  159.8507 C   0  0  0  0  0  0  0  0  0  0  0  0
  152.0232  143.9977  159.6674 N   0  0  0  0  0  0  0  0  0  0  0  0
  151.6514  145.0707  160.4399 C   0  0  0  0  0  0  0  0  0  0  0  0
  150.4966  145.5676  159.8937 C   0  0  0  0  0  0  0  0  0  0  0  0
  150.2022  144.7716  158.8196 N   0  3  0  0  0  0  0  0  0  0  0  0
  151.1255  143.8139  158.6876 C   0  0  0  0  0  0  0  0  0  0  0  0
  152.3628  140.8109  159.8846 N   0  5  0  0  0  0  0  0  0  0  0  0
  152.9565  140.2251  158.8024 C   0  0  0  0  0  0  0  0  0  0  0  0
  154.0770  139.6967  158.7820 O   0  0  0  0  0  0  0  0  0  0  0  0
  152.1909  140.1886  157.5216 C   0  0  0  0  0  0  0  0  0  0  0  0
  152.5334  139.3281  156.6147 N   0  0  0  0  0  0  0  0  0  0  0  0
  151.8873  139.2419  155.3990 N   0  0  0  0  0  0  0  0  0  0  0  0
  152.5661  138.4168  154.4019 C   0  0  0  0  0  0  0  0  0  0  0  0
  150.6980  139.8275  155.1146 C   0  0  0  0  0  0  0  0  0  0  0  0
  150.1388  139.7460  154.0208 O   0  0  0  0  0  0  0  0  0  0  0  0
  150.0263  140.5967  156.2547 C   0  0  0  0  0  0  0  0  0  0  0  0
  151.0471  141.1565  157.2648 C   0  0  0  0  0  0  0  0  0  0  0  0
  154.7205  142.1065  161.9593 H   0  0  0  0  0  0  0  0  0  0  0  0
  154.9767  141.0641  160.5632 H   0  0  0  0  0  0  0  0  0  0  0  0
  154.0698  140.4735  161.9548 H   0  0  0  0  0  0  0  0  0  0  0  0
  152.2971  142.1554  161.5357 H   0  0  0  0  0  0  0  0  0  0  0  0
  153.9854  143.7491  160.3082 H   0  0  0  0  0  0  0  0  0  0  0  0
  153.5729  142.8607  158.8607 H   0  0  0  0  0  0  0  0  0  0  0  0
  152.2341  145.3991  161.2885 H   0  0  0  0  0  0  0  0  0  0  0  0
  149.8801  146.4066  160.1809 H   0  0  0  0  0  0  0  0  0  0  0  0
  151.1524  143.0515  157.9297 H   0  0  0  0  0  0  0  0  0  0  0  0
  151.9554  137.5511  154.1415 H   0  0  0  0  0  0  0  0  0  0  0  0
  153.5275  138.0468  154.7626 H   0  0  0  0  0  0  0  0  0  0  0  0
  152.7553  138.9886  153.4921 H   0  0  0  0  0  0  0  0  0  0  0  0
  149.4092  141.4011  155.8536 H   0  0  0  0  0  0  0  0  0  0  0  0
  149.3519  139.9057  156.7615 H   0  0  0  0  0  0  0  0  0  0  0  0
  150.5114  141.3818  158.1876 H   0  0  0  0  0  0  0  0  0  0  0  0
  151.4512  142.1027  156.9036 H   0  0  0  0  0  0  0  0  0  0  0  0
  149.4050  144.8915  158.2077 H   0  0  0  0  0  0  0  0  0  0  0  0
  1  2  1  0  0  0  0
  1 20  1  0  0  0  0
  1 21  1  0  0  0  0
  1 22  1  0  0  0  0
  2  3  1  0  0  0  0
  2  9  1  0  0  0  0
  2 23  1  0  0  0  0
  3  4  1  0  0  0  0
  3 24  1  0  0  0  0
  3 25  1  0  0  0  0
  4  8  1  0  0  0  0
  4  5  1  0  0  0  0
  5  6  2  0  0  0  0
  5 26  1  0  0  0  0
  6  7  1  0  0  0  0
  6 27  1  0  0  0  0
  7  8  2  0  0  0  0
  7 36  1  0  0  0  0
  8 28  1  0  0  0  0
  9 10  1  0  0  0  0
 10 11  2  0  0  0  0
 10 12  1  0  0  0  0
 12 19  1  0  0  0  0
 12 13  2  0  0  0  0
 13 14  1  0  0  0  0
 14 15  1  0  0  0  0
 14 16  1  0  0  0  0
 15 29  1  0  0  0  0
 15 30  1  0  0  0  0
 15 31  1  0  0  0  0
 16 17  2  0  0  0  0
 16 18  1  0  0  0  0
 18 19  1  0  0  0  0
 18 32  1  0  0  0  0
 18 33  1  0  0  0  0
 19 34  1  0  0  0  0
 19 35  1  0  0  0  0
M  CHG  1   7   1
M  CHG  1   9  -1
M  END
> <s_m_source_file>
AV-unprocessed.smi

> <i_m_source_file_index>
561

> <i_lp_mmshare_version>
43012

> <i_f3d_flags>
0

> <s_epik_input>
W2NIXTFuW2NIXVtjSF1uMVtDSDJdW0NAQEhdKFtDSDNdKVtOSF1DKD1PKUMyPU5OKFtDSDNdKUMoPU8pW0NIMl1bQ0gyXTI=

> <s_epik_cmdline>
J2VwaWtfcHl0aG9uJywgJy1waCcsICc3LjAnLCAnLXRuJywgJzgnLCAnLW1hJywgJzIwMCcsICctbWV0YWxfYmluZGluZycsICctaW1hZScsICc8aW5maWxlLm1hZT4nLCAnLW9tYWUnLCAnPG91dGZpbGUubWFlPic=

> <r_lp_tautomer_probability>
1

> <r_epik_Ionization_Penalty>
5.37239

> <r_epik_Ionization_Penalty_Charging>
5.18263

> <r_epik_Ionization_Penalty_Neutral>
0.189756

> <r_epik_State_Penalty>
5.53772

> <r_epik_Charging_Adjusted_Penalty>
10.7204

> <i_epik_Tot_Q>
0

> <i_epik_Tot_abs_Q>
2

> <r_epik_Metal_State_Penalty>
1.80836

> <b_epik_Metal_Only>
1

> <s_epik_Chemistry_Notes>
This compound has an imine and may undergo hydrolysis.

> <s_lp_Force_Field>
OPLS_2005

> <r_lp_Energy>
21.245

> <b_lp_Chiralities_Consistent>
1

> <s_lp_Variant>
AV-unprocessed.smi:561-6

> <Gold.Version>
5.8.1

> <Gold.Id.Protein>
6NUR|6NUR_protein|mol2

> <Gold.PLP.Fitness>
47.8297

> <Gold.PLP.PLP>
-40.8618

> <Gold.PLP.part.hbond>
-4.0000

> <Gold.PLP.part.metal>
0.0000

> <Gold.PLP.part.buried>
-2.3657

> <Gold.PLP.part.nonpolar>
-36.2902

> <Gold.PLP.part.repulsive>
1.7151

> <Gold.PLP.ligand.clash>
0.0000

> <Gold.PLP.ligand.torsion>
1.2640

> <Gold.PLP.Chemscore.Hbond>
3.1500

> <Gold.PLP.Chemscore.CHOScore>
0.0000

> <Gold.PLP.Chemscore.Metal>
0.0000

> <Gold.Chemscore.Hbonds>
donor molecule, donor type, donor heavy atom, donor atom, acceptor molecule, acceptor atom, score
      L1  H     7    36       P1  8029  1.89
      P1  H  7989  7998       L1    17  0.15
      P1  H  7997  8009       L1    11  1.00

> <Gold.PLP.Chemscore.Internal.Correction>
0.0459

> <Gold.Rescore>
     Score         DG    S(hbond)    S(metal)    S(lipo)     H(rot)  DE(clash)    DE(int)     intcor
     12.52     -15.34       1.53        0.00      78.33       1.73       0.61       2.21       ----

> <Gold.Chemscore.Fitness>
12.5180

> <Gold.Chemscore.DG>
-15.3423

> <Gold.Chemscore.ZeroCoef>
-5.4800

> <Gold.Chemscore.Hbond>
1.5350

> <Gold.Chemscore.Metal>
0.0000

> <Gold.Chemscore.Lipo>
78.3256

> <Gold.Chemscore.Internal_Hbond>
0.0000

> <Gold.Chemscore.DEClash>
0.6116

> <Gold.Chemscore.DEInternal>
2.2127

> <Gold.Chemscore.Rot>
1.7299

> <Gold.Chemscore.Internal.Correction>
   9.000000E+99

> <Gold.Chemscore.Hbonds>
donor molecule, donor type, donor heavy atom, donor atom, acceptor molecule, acceptor atom, score
      L1  H     7    36       P1  8029  0.31
      P1  H  7997  8009       L1    11  0.65

> <Gold.Chemscore.Hbond.Weighted>
-5.1268

> <Gold.Chemscore.Metal.Weighted>
-0.0000

> <Gold.Chemscore.Lipo.Weighted>
-9.1641

> <Gold.Chemscore.Internal_Hbond.Weighted>
0.0000

> <Gold.Chemscore.DEClash.Weighted>
0.6116

> <Gold.Chemscore.DEInternal.Weighted>
2.2127

> <Gold.Chemscore.Rot.Weighted>
4.4286

> <Gold.Chemscore.Internal.Correction.Weighted>
   9.000000E+99

> <Gold.Protein.RotatedTorsions>
[ 6907 6896 6895 6894 ] final -109.81 input  -60.11 | X-H torsion
[ 7974 7965 7964 7962 ] final -179.89 input  175.53 | X-H torsion
[ 8008 7997 7996 7995 ] final  139.98 input   59.86 | X-H torsion
[ 10167 10162 10161 10158 ] final    0.88 input  -65.29 | X-H torsion
[ 10718 10713 10712 10709 ] final  -43.15 input   66.30 | X-H torsion
[ 10763 10752 10751 10750 ] final -126.90 input  -60.55 | X-H torsion
[ 11005 11000 10999 10996 ] final  -12.66 input  -57.11 | X-H torsion

> <Gold.Protein.ActiveResidues>
 VAL166  LYS551  ARG553  GLY616  TRP617  ASP618  TYR619  PRO620  LYS621  CYS622 
 ASP623  PHE694  ASN695  SER759  ASP760  ASP761  ALA762  ILE779  LEU786  VAL792 
 PHE793  MET794  SER795  GLU796  ALA797  LYS798  CYS799  TRP800  GLU811  SER814 

> <Gold.Protein.RotatedAtoms>
  150.7585  133.9475  159.3474 H   0  0  0  0  0  0  0  0  0  0  0  0  # atno 6907 bound_to 6896
  151.7389  135.0856  160.0322 H   0  0  0  0  0  0  0  0  0  0  0  0  # atno 6908 bound_to 6896
  152.3541  133.6178  159.6002 H   0  0  0  0  0  0  0  0  0  0  0  0  # atno 6909 bound_to 6896
  144.7140  140.0650  143.6431 H   0  0  0  0  0  0  0  0  0  0  0  0  # atno 7974 bound_to 7965
  156.2984  140.2353  156.4326 H   0  0  0  0  0  0  0  0  0  0  0  0  # atno 8008 bound_to 7997
  154.8257  140.0435  157.1462 H   0  0  0  0  0  0  0  0  0  0  0  0  # atno 8009 bound_to 7997
  154.9264  140.3010  155.5193 H   0  0  0  0  0  0  0  0  0  0  0  0  # atno 8010 bound_to 7997
  140.6708  143.7053  150.7920 H   0  0  0  0  0  0  0  0  0  0  0  0  # atno 10167 bound_to 10162
  156.2521  130.4189  149.8638 H   0  0  0  0  0  0  0  0  0  0  0  0  # atno 10718 bound_to 10713
  154.8749  135.3980  154.3507 H   0  0  0  0  0  0  0  0  0  0  0  0  # atno 10763 bound_to 10752
  153.4293  135.7025  153.6247 H   0  0  0  0  0  0  0  0  0  0  0  0  # atno 10764 bound_to 10752
  153.4875  135.3755  155.2444 H   0  0  0  0  0  0  0  0  0  0  0  0  # atno 10765 bound_to 10752
  140.7680  133.8461  155.9182 H   0  0  0  0  0  0  0  0  0  0  0  0  # atno 11005 bound_to 11000
  145.9832  139.2957  143.1029 LP  0  0  0  0  0  0  0  0  0  0  0  0  # atno 17320 bound_to 7965
  145.8987  140.9257  143.0514 LP  0  0  0  0  0  0  0  0  0  0  0  0  # atno 17321 bound_to 7965
  140.0738  143.5035  152.2566 LP  0  0  0  0  0  0  0  0  0  0  0  0  # atno 17342 bound_to 10162
  139.5976  144.7572  151.3248 LP  0  0  0  0  0  0  0  0  0  0  0  0  # atno 17343 bound_to 10162
  156.6183  130.8616  151.3470 LP  0  0  0  0  0  0  0  0  0  0  0  0  # atno 17370 bound_to 10713
  157.7218  130.9569  150.1470 LP  0  0  0  0  0  0  0  0  0  0  0  0  # atno 17371 bound_to 10713
  140.9600  134.1667  157.4661 LP  0  0  0  0  0  0  0  0  0  0  0  0  # atno 17394 bound_to 11000
  139.8760  134.9941  156.5678 LP  0  0  0  0  0  0  0  0  0  0  0  0  # atno 17395 bound_to 11000

$$$$
