AV-unprocessed.smi:145|AV-procd|sdf|1198|dock1
  -GOLD-   2262018353D 1   1.00000     0.00000
 Structure written by MMmdl.
 40 42  0  0  0  0  0  0  0  0  1 V2000
  153.2300  139.0740  156.8213 O   0  0  0  0  0  0  0  0  0  0  0  0
  152.2553  139.4635  156.1765 C   0  0  0  0  0  0  0  0  0  0  0  0
  151.8493  138.7585  154.8721 C   0  0  0  0  0  0  0  0  0  0  0  0
  150.4696  138.2246  154.8919 N   0  0  0  0  0  0  0  0  0  0  0  0
  149.3866  139.1258  154.7412 C   0  0  0  0  0  0  0  0  0  0  0  0
  149.5769  140.3329  154.5874 O   0  0  0  0  0  0  0  0  0  0  0  0
  148.0576  138.5264  154.7870 C   0  0  0  0  0  0  0  0  0  0  0  0
  146.9718  139.3041  154.6377 F   0  0  0  0  0  0  0  0  0  0  0  0
  147.8987  137.2002  154.9756 C   0  0  0  0  0  0  0  0  0  0  0  0
  148.9653  136.3342  155.1398 N   0  0  0  0  0  0  0  0  0  0  0  0
  148.7710  134.8482  155.3573 C   0  0  1  0  0  0  0  0  0  0  0  0
  149.6276  134.0378  154.3656 C   0  0  0  0  0  0  0  0  0  0  0  0
  150.3693  133.0753  155.2715 C   0  0  0  0  0  0  0  0  0  0  0  0
  150.4675  133.8718  156.5637 C   0  0  0  0  0  0  0  0  0  0  0  0
  149.1928  134.4959  156.6445 O   0  0  0  0  0  0  0  0  0  0  0  0
  150.2840  136.8364  155.0944 C   0  0  0  0  0  0  0  0  0  0  0  0
  151.2483  136.0809  155.2360 O   0  0  0  0  0  0  0  0  0  0  0  0
  151.4861  140.5124  156.5203 N   0  0  0  0  0  0  0  0  0  0  0  0
  151.6002  141.3571  157.6572 C   0  0  0  0  0  0  0  0  0  0  0  0
  150.9319  142.6002  157.7747 C   0  0  0  0  0  0  0  0  0  0  0  0
  151.1096  143.3947  158.9243 C   0  0  0  0  0  0  0  0  0  0  0  0
  151.9601  142.9612  159.9587 C   0  0  0  0  0  0  0  0  0  0  0  0
  152.6403  141.7346  159.8402 C   0  0  0  0  0  0  0  0  0  0  0  0
  153.9143  141.0926  161.3690 I   0  0  0  0  0  0  0  0  0  0  0  0
  152.4647  140.9397  158.6908 C   0  0  0  0  0  0  0  0  0  0  0  0
  151.9897  139.4583  154.0471 H   0  0  0  0  0  0  0  0  0  0  0  0
  152.5668  137.9624  154.6657 H   0  0  0  0  0  0  0  0  0  0  0  0
  146.8888  136.8207  154.9956 H   0  0  0  0  0  0  0  0  0  0  0  0
  147.6972  134.6747  155.2676 H   0  0  0  0  0  0  0  0  0  0  0  0
  149.0021  133.5377  153.6257 H   0  0  0  0  0  0  0  0  0  0  0  0
  150.3317  134.6931  153.8499 H   0  0  0  0  0  0  0  0  0  0  0  0
  149.7739  132.1755  155.4315 H   0  0  0  0  0  0  0  0  0  0  0  0
  151.3413  132.7789  154.8768 H   0  0  0  0  0  0  0  0  0  0  0  0
  150.6633  133.2444  157.4334 H   0  0  0  0  0  0  0  0  0  0  0  0
  151.2533  134.6256  156.4971 H   0  0  0  0  0  0  0  0  0  0  0  0
  150.7802  140.7804  155.8499 H   0  0  0  0  0  0  0  0  0  0  0  0
  150.2906  142.9702  156.9896 H   0  0  0  0  0  0  0  0  0  0  0  0
  150.5963  144.3410  159.0096 H   0  0  0  0  0  0  0  0  0  0  0  0
  152.0948  143.5727  160.8388 H   0  0  0  0  0  0  0  0  0  0  0  0
  152.9930  140.0009  158.6089 H   0  0  0  0  0  0  0  0  0  0  0  0
  1  2  2  0  0  0  0
  2  3  1  0  0  0  0
  2 18  1  0  0  0  0
  3  4  1  0  0  0  0
  3 26  1  0  0  0  0
  3 27  1  0  0  0  0
  4 16  1  0  0  0  0
  4  5  1  0  0  0  0
  5  6  2  0  0  0  0
  5  7  1  0  0  0  0
  7  8  1  0  0  0  0
  7  9  2  0  0  0  0
  9 10  1  0  0  0  0
  9 28  1  0  0  0  0
 10 11  1  0  0  0  0
 10 16  1  0  0  0  0
 11 15  1  0  0  0  0
 11 12  1  0  0  0  0
 11 29  1  0  0  0  0
 12 13  1  0  0  0  0
 12 30  1  0  0  0  0
 12 31  1  0  0  0  0
 13 14  1  0  0  0  0
 13 32  1  0  0  0  0
 13 33  1  0  0  0  0
 14 15  1  0  0  0  0
 14 34  1  0  0  0  0
 14 35  1  0  0  0  0
 16 17  2  0  0  0  0
 18 19  1  0  0  0  0
 18 36  1  0  0  0  0
 19 25  1  0  0  0  0
 19 20  2  0  0  0  0
 20 21  1  0  0  0  0
 20 37  1  0  0  0  0
 21 22  2  0  0  0  0
 21 38  1  0  0  0  0
 22 23  1  0  0  0  0
 22 39  1  0  0  0  0
 23 24  1  0  0  0  0
 23 25  2  0  0  0  0
 25 40  1  0  0  0  0
M  END
> <s_m_source_file>
AV-unprocessed.smi

> <i_m_source_file_index>
145

> <i_lp_mmshare_version>
43012

> <i_f3d_flags>
0

> <s_epik_input>
SWMoW2NIXTEpW2NIXVtjSF1bY0hdYzFbTkhdQyg9TylbQ0gyXW4yYyg9TyljKEYpW2NIXW4oYzI9TylbQ0BASF0zW0NIMl1bQ0gyXVtDSDJdTzM=

> <s_epik_cmdline>
J2VwaWtfcHl0aG9uJywgJy1waCcsICc3LjAnLCAnLXRuJywgJzgnLCAnLW1hJywgJzIwMCcsICctbWV0YWxfYmluZGluZycsICctaW1hZScsICc8aW5maWxlLm1hZT4nLCAnLW9tYWUnLCAnPG91dGZpbGUubWFlPic=

> <r_lp_tautomer_probability>
1

> <r_epik_Ionization_Penalty>
9.72367e-07

> <r_epik_Ionization_Penalty_Charging>
3.88729e-08

> <r_epik_Ionization_Penalty_Neutral>
9.33494e-07

> <r_epik_State_Penalty>
-0

> <r_epik_Charging_Adjusted_Penalty>
3.88729e-08

> <i_epik_Tot_Q>
0

> <i_epik_Tot_abs_Q>
0

> <r_epik_Metal_State_Penalty>
-0

> <b_epik_Metal_Only>
0

> <s_epik_Chemistry_Notes>
This compound contains an acetal/aminal-like group ( X-CH(R)-Y where X, Y are N, S, or O) that may be acid/base labile, releasing an aldehyde.

> <s_lp_Force_Field>
OPLS_2005

> <r_lp_Energy>
33.5039

> <b_lp_Chiralities_Consistent>
1

> <s_lp_Variant>
AV-unprocessed.smi:145-2

> <Gold.Version>
5.8.1

> <Gold.Id.Protein>
6NUR|6NUR_protein|mol2

> <Gold.PLP.Fitness>
48.0308

> <Gold.PLP.PLP>
-42.5022

> <Gold.PLP.part.hbond>
-2.7654

> <Gold.PLP.part.metal>
0.0000

> <Gold.PLP.part.buried>
-4.1151

> <Gold.PLP.part.nonpolar>
-36.4205

> <Gold.PLP.part.repulsive>
0.4243

> <Gold.PLP.ligand.clash>
2.0814

> <Gold.PLP.ligand.torsion>
0.3848

> <Gold.PLP.Chemscore.Hbond>
2.7840

> <Gold.PLP.Chemscore.CHOScore>
0.0000

> <Gold.PLP.Chemscore.Metal>
0.0000

> <Gold.Chemscore.Hbonds>
donor molecule, donor type, donor heavy atom, donor atom, acceptor molecule, acceptor atom, score
      P1  H  7989  7998       L1     6  0.11
      P1  H  7997  8008       L1     1  0.98
      P1  H 10752 10764       L1    17  1.00

> <Gold.PLP.Chemscore.Internal.Correction>
0.0274

> <Gold.Rescore>
     Score         DG    S(hbond)    S(metal)    S(lipo)     H(rot)  DE(clash)    DE(int)     intcor
     14.05     -19.89       2.29        0.00      94.07       1.66       0.65       5.19       ----

> <Gold.Chemscore.Fitness>
14.0483

> <Gold.Chemscore.DG>
-19.8907

> <Gold.Chemscore.ZeroCoef>
-5.4800

> <Gold.Chemscore.Hbond>
2.2934

> <Gold.Chemscore.Metal>
0.0000

> <Gold.Chemscore.Lipo>
94.0659

> <Gold.Chemscore.Internal_Hbond>
0.0000

> <Gold.Chemscore.DEClash>
0.6549

> <Gold.Chemscore.DEInternal>
5.1875

> <Gold.Chemscore.Rot>
1.6621

> <Gold.Chemscore.Internal.Correction>
   9.000000E+99

> <Gold.Chemscore.Hbonds>
donor molecule, donor type, donor heavy atom, donor atom, acceptor molecule, acceptor atom, score
      P1  H  7989  7998       L1     6  0.12
      P1  H  7997  8008       L1     1  0.28
      P1  H 10752 10764       L1    17  1.00

> <Gold.Chemscore.Hbond.Weighted>
-7.6599

> <Gold.Chemscore.Metal.Weighted>
-0.0000

> <Gold.Chemscore.Lipo.Weighted>
-11.0057

> <Gold.Chemscore.Internal_Hbond.Weighted>
0.0000

> <Gold.Chemscore.DEClash.Weighted>
0.6549

> <Gold.Chemscore.DEInternal.Weighted>
5.1875

> <Gold.Chemscore.Rot.Weighted>
4.2550

> <Gold.Chemscore.Internal.Correction.Weighted>
   9.000000E+99

> <Gold.Protein.RotatedTorsions>
[ 6907 6896 6895 6894 ] final  -76.70 input  -60.11 | X-H torsion
[ 7974 7965 7964 7962 ] final -135.15 input  175.53 | X-H torsion
[ 8008 7997 7996 7995 ] final  -41.39 input   59.86 | X-H torsion
[ 10167 10162 10161 10158 ] final  131.34 input  -65.29 | X-H torsion
[ 10718 10713 10712 10709 ] final   98.69 input   66.30 | X-H torsion
[ 10763 10752 10751 10750 ] final  -49.04 input  -60.55 | X-H torsion
[ 11005 11000 10999 10996 ] final   61.14 input  -57.11 | X-H torsion

> <Gold.Protein.ActiveResidues>
 VAL166  LYS551  ARG553  GLY616  TRP617  ASP618  TYR619  PRO620  LYS621  CYS622 
 ASP623  PHE694  ASN695  SER759  ASP760  ASP761  ALA762  ILE779  LEU786  VAL792 
 PHE793  MET794  SER795  GLU796  ALA797  LYS798  CYS799  TRP800  GLU811  SER814 

> <Gold.Protein.RotatedAtoms>
  150.7020  134.4533  159.5345 H   0  0  0  0  0  0  0  0  0  0  0  0  # atno 6907 bound_to 6896
  152.2221  134.8400  160.0493 H   0  0  0  0  0  0  0  0  0  0  0  0  # atno 6908 bound_to 6896
  151.9247  133.3560  159.3946 H   0  0  0  0  0  0  0  0  0  0  0  0  # atno 6909 bound_to 6896
  144.9039  140.6807  143.5067 H   0  0  0  0  0  0  0  0  0  0  0  0  # atno 7974 bound_to 7965
  154.4004  140.1500  156.3183 H   0  0  0  0  0  0  0  0  0  0  0  0  # atno 8008 bound_to 7997
  155.8553  140.3456  155.5699 H   0  0  0  0  0  0  0  0  0  0  0  0  # atno 8009 bound_to 7997
  155.7939  140.0860  157.1984 H   0  0  0  0  0  0  0  0  0  0  0  0  # atno 8010 bound_to 7997
  139.5388  144.6710  151.4693 H   0  0  0  0  0  0  0  0  0  0  0  0  # atno 10167 bound_to 10162
  157.6891  131.0647  150.4834 H   0  0  0  0  0  0  0  0  0  0  0  0  # atno 10718 bound_to 10713
  154.0876  135.6582  153.4847 H   0  0  0  0  0  0  0  0  0  0  0  0  # atno 10763 bound_to 10752
  153.0333  135.5195  154.7412 H   0  0  0  0  0  0  0  0  0  0  0  0  # atno 10764 bound_to 10752
  154.6526  135.3003  154.9936 H   0  0  0  0  0  0  0  0  0  0  0  0  # atno 10765 bound_to 10752
  140.0182  134.6193  155.9678 H   0  0  0  0  0  0  0  0  0  0  0  0  # atno 11005 bound_to 11000
  145.3569  139.1691  143.4404 LP  0  0  0  0  0  0  0  0  0  0  0  0  # atno 17320 bound_to 7965
  146.3123  140.3627  142.8666 LP  0  0  0  0  0  0  0  0  0  0  0  0  # atno 17321 bound_to 7965
  140.6609  143.8501  150.6886 LP  0  0  0  0  0  0  0  0  0  0  0  0  # atno 17342 bound_to 10162
  140.1895  143.4048  152.1873 LP  0  0  0  0  0  0  0  0  0  0  0  0  # atno 17343 bound_to 10162
  156.5165  130.4151  149.6273 LP  0  0  0  0  0  0  0  0  0  0  0  0  # atno 17370 bound_to 10713
  156.3193  130.7272  151.2180 LP  0  0  0  0  0  0  0  0  0  0  0  0  # atno 17371 bound_to 10713
  141.1757  133.6540  156.4819 LP  0  0  0  0  0  0  0  0  0  0  0  0  # atno 17394 bound_to 11000
  140.4433  134.6995  157.5003 LP  0  0  0  0  0  0  0  0  0  0  0  0  # atno 17395 bound_to 11000

$$$$
