AV-unprocessed.smi:3287|AV-procd|sdf|12596|dock5
  -GOLD-   2272018523D 1   1.00000     0.00000
 Structure written by MMmdl.
 43 44  0  0  0  0  0  0  0  0  2 V2000
  153.7151  142.7454  159.4936 C   0  0  0  0  0  0  0  0  0  0  0  0
  152.2344  142.3615  159.3231 C   0  0  2  0  0  0  0  0  0  0  0  0
  152.1222  141.0811  158.4710 C   0  0  0  0  0  0  0  0  0  0  0  0
  150.6631  140.6421  158.2779 C   0  0  0  0  0  0  0  0  0  0  0  0
  149.8050  141.7605  157.6552 C   0  0  2  0  0  0  0  0  0  0  0  0
  150.1680  142.0338  156.2453 N   0  3  0  0  0  0  0  0  0  0  0  0
  149.6973  141.0374  155.2591 C   0  0  0  0  0  0  0  0  0  0  0  0
  148.2290  141.2851  154.8726 C   0  0  1  0  0  0  0  0  0  0  0  0
  148.1513  142.4891  154.1339 O   0  0  0  0  0  0  0  0  0  0  0  0
  147.6593  140.1091  154.0954 C   0  0  0  0  0  0  0  0  0  0  0  0
  147.1424  140.2751  152.7920 C   0  0  0  0  0  0  0  0  0  0  0  0
  146.6326  139.1461  152.1202 C   0  0  0  0  0  0  0  0  0  0  0  0
  146.6147  137.9084  152.6593 N   0  0  0  0  0  0  0  0  0  0  0  0
  147.1123  137.7545  153.9047 C   0  0  0  0  0  0  0  0  0  0  0  0
  147.6452  138.8172  154.6618 C   0  0  0  0  0  0  0  0  0  0  0  0
  149.9198  143.0446  158.4971 C   0  0  0  0  0  0  0  0  0  0  0  0
  151.3796  143.5040  158.7131 C   0  0  1  0  0  0  0  0  0  0  0  0
  151.3991  144.7857  159.5652 C   0  0  0  0  0  0  0  0  0  0  0  0
  154.1562  143.0584  158.5467 H   0  0  0  0  0  0  0  0  0  0  0  0
  154.2971  141.9020  159.8662 H   0  0  0  0  0  0  0  0  0  0  0  0
  153.8438  143.5569  160.2092 H   0  0  0  0  0  0  0  0  0  0  0  0
  151.8391  142.1337  160.3144 H   0  0  0  0  0  0  0  0  0  0  0  0
  152.5890  141.2410  157.4981 H   0  0  0  0  0  0  0  0  0  0  0  0
  152.6788  140.2717  158.9448 H   0  0  0  0  0  0  0  0  0  0  0  0
  150.6214  139.7311  157.6819 H   0  0  0  0  0  0  0  0  0  0  0  0
  150.2455  140.3753  159.2497 H   0  0  0  0  0  0  0  0  0  0  0  0
  148.7593  141.4497  157.6679 H   0  0  0  0  0  0  0  0  0  0  0  0
  149.7634  142.9233  155.9904 H   0  0  0  0  0  0  0  0  0  0  0  0
  150.3243  141.0599  154.3677 H   0  0  0  0  0  0  0  0  0  0  0  0
  149.7981  140.0429  155.6960 H   0  0  0  0  0  0  0  0  0  0  0  0
  147.6351  141.4201  155.7780 H   0  0  0  0  0  0  0  0  0  0  0  0
  148.0970  143.2110  154.7424 H   0  0  0  0  0  0  0  0  0  0  0  0
  147.1348  141.2435  152.3131 H   0  0  0  0  0  0  0  0  0  0  0  0
  146.2300  139.2397  151.1226 H   0  0  0  0  0  0  0  0  0  0  0  0
  147.0859  136.7541  154.3108 H   0  0  0  0  0  0  0  0  0  0  0  0
  148.0321  138.6376  155.6542 H   0  0  0  0  0  0  0  0  0  0  0  0
  149.3408  143.8424  158.0297 H   0  0  0  0  0  0  0  0  0  0  0  0
  149.4555  142.8697  159.4689 H   0  0  0  0  0  0  0  0  0  0  0  0
  151.7996  143.7579  157.7389 H   0  0  0  0  0  0  0  0  0  0  0  0
  151.0625  144.5904  160.5838 H   0  0  0  0  0  0  0  0  0  0  0  0
  150.7445  145.5478  159.1414 H   0  0  0  0  0  0  0  0  0  0  0  0
  152.3960  145.2221  159.6190 H   0  0  0  0  0  0  0  0  0  0  0  0
  151.1731  142.1109  156.1779 H   0  0  0  0  0  0  0  0  0  0  0  0
  1  2  1  0  0  0  0
  1 19  1  0  0  0  0
  1 20  1  0  0  0  0
  1 21  1  0  0  0  0
  2 17  1  0  0  0  0
  2  3  1  0  0  0  0
  2 22  1  0  0  0  0
  3  4  1  0  0  0  0
  3 23  1  0  0  0  0
  3 24  1  0  0  0  0
  4  5  1  0  0  0  0
  4 25  1  0  0  0  0
  4 26  1  0  0  0  0
  5  6  1  0  0  0  0
  5 16  1  0  0  0  0
  5 27  1  0  0  0  0
  6  7  1  0  0  0  0
  6 28  1  0  0  0  0
  6 43  1  0  0  0  0
  7  8  1  0  0  0  0
  7 29  1  0  0  0  0
  7 30  1  0  0  0  0
  8  9  1  0  0  0  0
  8 10  1  0  0  0  0
  8 31  1  0  0  0  0
  9 32  1  0  0  0  0
 10 15  1  0  0  0  0
 10 11  2  0  0  0  0
 11 12  1  0  0  0  0
 11 33  1  0  0  0  0
 12 13  2  0  0  0  0
 12 34  1  0  0  0  0
 13 14  1  0  0  0  0
 14 15  2  0  0  0  0
 14 35  1  0  0  0  0
 15 36  1  0  0  0  0
 16 17  1  0  0  0  0
 16 37  1  0  0  0  0
 16 38  1  0  0  0  0
 17 18  1  0  0  0  0
 17 39  1  0  0  0  0
 18 40  1  0  0  0  0
 18 41  1  0  0  0  0
 18 42  1  0  0  0  0
M  CHG  1   6   1
M  END
> <s_m_source_file>
AV-unprocessed.smi

> <i_m_source_file_index>
3287

> <i_lp_mmshare_version>
43012

> <i_f3d_flags>
0

> <s_epik_input>
W0NIM11bQ0BASF0xW0NIMl1bQ0gyXVtDQEhdKFtDSDJdW0NASF0xW0NIM10pW05IXVtDSDJdW0NASF0oW09IXSljMltjSF1bY0hdbltjSF1bY0hdMg==

> <s_epik_cmdline>
J2VwaWtfcHl0aG9uJywgJy1waCcsICc3LjAnLCAnLXRuJywgJzgnLCAnLW1hJywgJzIwMCcsICctbWV0YWxfYmluZGluZycsICctaW1hZScsICc8aW5maWxlLm1hZT4nLCAnLW9tYWUnLCAnPG91dGZpbGUubWFlPic=

> <r_lp_tautomer_probability>
1

> <r_epik_Ionization_Penalty>
0.00537262

> <r_epik_Ionization_Penalty_Charging>
0.00321624

> <r_epik_Ionization_Penalty_Neutral>
0.00215638

> <r_epik_State_Penalty>
-0

> <r_epik_Charging_Adjusted_Penalty>
0.00321624

> <i_epik_Tot_Q>
1

> <i_epik_Tot_abs_Q>
1

> <r_epik_Metal_State_Penalty>
-0

> <b_epik_Metal_Only>
0

> <s_lp_Force_Field>
OPLS_2005

> <r_lp_Energy>
19.2096

> <b_lp_Chiralities_Consistent>
1

> <s_lp_Variant>
AV-unprocessed.smi:3287-7

> <Gold.Version>
5.8.1

> <Gold.Id.Protein>
6NUR|6NUR_protein|mol2

> <Gold.PLP.Fitness>
44.2856

> <Gold.PLP.PLP>
-34.1874

> <Gold.PLP.part.hbond>
-3.7628

> <Gold.PLP.part.metal>
0.0000

> <Gold.PLP.part.buried>
-2.3762

> <Gold.PLP.part.nonpolar>
-29.4025

> <Gold.PLP.part.repulsive>
0.3826

> <Gold.PLP.ligand.clash>
0.0000

> <Gold.PLP.ligand.torsion>
0.3056

> <Gold.PLP.Chemscore.Hbond>
3.0078

> <Gold.PLP.Chemscore.CHOScore>
0.5577

> <Gold.PLP.Chemscore.Metal>
0.0000

> <Gold.Chemscore.Hbonds>
donor molecule, donor type, donor heavy atom, donor atom, acceptor molecule, acceptor atom, score
      L1  H     6    28       P1  8028  2.00
      L1  H     9    32       P1  8028  1.00
      P1  H  8011  8017       L1     9  0.01
      L1  C    12    34       P1 10171  0.45

> <Gold.PLP.Chemscore.Internal.Correction>
0.0129

> <Gold.Rescore>
     Score         DG    S(hbond)    S(metal)    S(lipo)     H(rot)  DE(clash)    DE(int)     intcor
     19.16     -19.57       1.95        0.00     106.38       1.90       0.05       0.36       ----

> <Gold.Chemscore.Fitness>
19.1623

> <Gold.Chemscore.DG>
-19.5732

> <Gold.Chemscore.ZeroCoef>
-5.4800

> <Gold.Chemscore.Hbond>
1.9519

> <Gold.Chemscore.Metal>
0.0000

> <Gold.Chemscore.Lipo>
106.3820

> <Gold.Chemscore.Internal_Hbond>
0.0000

> <Gold.Chemscore.DEClash>
0.0502

> <Gold.Chemscore.DEInternal>
0.3606

> <Gold.Chemscore.Rot>
1.9035

> <Gold.Chemscore.Internal.Correction>
   9.000000E+99

> <Gold.Chemscore.Hbonds>
donor molecule, donor type, donor heavy atom, donor atom, acceptor molecule, acceptor atom, score
      L1  H     6    28       P1  8028  0.93
      L1  H     9    32       P1  8028  0.91
      P1  H  8011  8017       L1     9  0.01

> <Gold.Chemscore.Hbond.Weighted>
-6.5194

> <Gold.Chemscore.Metal.Weighted>
-0.0000

> <Gold.Chemscore.Lipo.Weighted>
-12.4467

> <Gold.Chemscore.Internal_Hbond.Weighted>
0.0000

> <Gold.Chemscore.DEClash.Weighted>
0.0502

> <Gold.Chemscore.DEInternal.Weighted>
0.3606

> <Gold.Chemscore.Rot.Weighted>
4.8729

> <Gold.Chemscore.Internal.Correction.Weighted>
   9.000000E+99

> <Gold.Protein.RotatedTorsions>
[ 6907 6896 6895 6894 ] final   -0.51 input  -60.11 | X-H torsion
[ 7974 7965 7964 7962 ] final -132.73 input  175.53 | X-H torsion
[ 8008 7997 7996 7995 ] final  -71.16 input   59.86 | X-H torsion
[ 10167 10162 10161 10158 ] final  -71.97 input  -65.29 | X-H torsion
[ 10718 10713 10712 10709 ] final   80.00 input   66.30 | X-H torsion
[ 10763 10752 10751 10750 ] final  166.22 input  -60.55 | X-H torsion
[ 11005 11000 10999 10996 ] final  154.61 input  -57.11 | X-H torsion

> <Gold.Protein.ActiveResidues>
 VAL166  LYS551  ARG553  GLY616  TRP617  ASP618  TYR619  PRO620  LYS621  CYS622 
 ASP623  PHE694  ASN695  SER759  ASP760  ASP761  ALA762  ILE779  LEU786  VAL792 
 PHE793  MET794  SER795  GLU796  ALA797  LYS798  CYS799  TRP800  GLU811  SER814 

> <Gold.Protein.RotatedAtoms>
  151.5611  135.1065  159.9972 H   0  0  0  0  0  0  0  0  0  0  0  0  # atno 6907 bound_to 6896
  152.4446  133.7507  159.6703 H   0  0  0  0  0  0  0  0  0  0  0  0  # atno 6908 bound_to 6896
  150.8358  133.7947  159.3104 H   0  0  0  0  0  0  0  0  0  0  0  0  # atno 6909 bound_to 6896
  144.9258  140.7070  143.4936 H   0  0  0  0  0  0  0  0  0  0  0  0  # atno 7974 bound_to 7965
  154.5066  140.0821  156.7907 H   0  0  0  0  0  0  0  0  0  0  0  0  # atno 8008 bound_to 7997
  155.3879  140.3431  155.4231 H   0  0  0  0  0  0  0  0  0  0  0  0  # atno 8009 bound_to 7997
  156.1523  140.1562  156.8737 H   0  0  0  0  0  0  0  0  0  0  0  0  # atno 8010 bound_to 7997
  140.5230  143.2329  151.7396 H   0  0  0  0  0  0  0  0  0  0  0  0  # atno 10167 bound_to 10162
  157.6793  130.9940  150.2015 H   0  0  0  0  0  0  0  0  0  0  0  0  # atno 10718 bound_to 10713
  154.3358  135.2754  155.2448 H   0  0  0  0  0  0  0  0  0  0  0  0  # atno 10763 bound_to 10752
  154.4740  135.5875  153.6345 H   0  0  0  0  0  0  0  0  0  0  0  0  # atno 10764 bound_to 10752
  152.9862  135.6095  154.3554 H   0  0  0  0  0  0  0  0  0  0  0  0  # atno 10765 bound_to 10752
  140.1505  134.8678  157.2448 H   0  0  0  0  0  0  0  0  0  0  0  0  # atno 11005 bound_to 11000
  145.3221  139.1785  143.4582 LP  0  0  0  0  0  0  0  0  0  0  0  0  # atno 17320 bound_to 7965
  146.3225  140.3240  142.8635 LP  0  0  0  0  0  0  0  0  0  0  0  0  # atno 17321 bound_to 7965
  139.4929  144.4226  151.9960 LP  0  0  0  0  0  0  0  0  0  0  0  0  # atno 17342 bound_to 10162
  140.3324  144.3300  150.5984 LP  0  0  0  0  0  0  0  0  0  0  0  0  # atno 17343 bound_to 10162
  156.2705  130.3721  149.8036 LP  0  0  0  0  0  0  0  0  0  0  0  0  # atno 17370 bound_to 10713
  156.5755  130.8443  151.3368 LP  0  0  0  0  0  0  0  0  0  0  0  0  # atno 17371 bound_to 10713
  140.2611  134.3571  155.7406 LP  0  0  0  0  0  0  0  0  0  0  0  0  # atno 17394 bound_to 11000
  141.2198  133.7370  156.9081 LP  0  0  0  0  0  0  0  0  0  0  0  0  # atno 17395 bound_to 11000

$$$$
