AV-unprocessed.smi:2497|AV-procd|sdf|9829|dock9
  -GOLD-   2272013463D 1   1.00000     0.00000
 Structure written by MMmdl.
 47 48  0  0  0  0  0  0  0  0  1 V2000
  152.3153  142.5805  159.4198 C   0  0  0  0  0  0  0  0  0  0  0  0
  151.9189  143.3928  158.1751 C   0  0  0  0  0  0  0  0  0  0  0  0
  151.2785  144.7263  158.5897 C   0  0  0  0  0  0  0  0  0  0  0  0
  150.9814  142.6074  157.2364 C   0  0  0  0  0  0  0  0  0  0  0  0
  151.5740  141.2847  156.7204 C   0  0  0  0  0  0  0  0  0  0  0  0
  150.6647  140.6195  155.8086 N   0  0  0  0  0  0  0  0  0  0  0  0
  149.6956  141.1797  155.0012 C   0  0  0  0  0  0  0  0  0  0  0  0
  149.0791  140.1604  154.3329 C   0  0  0  0  0  0  0  0  0  0  0  0
  149.7526  138.9991  154.8176 C   0  0  0  0  0  0  0  0  0  0  0  0
  149.4962  137.6615  154.4228 N   0  0  0  0  0  0  0  0  0  0  0  0
  149.4192  136.5669  155.1975 C   0  0  0  0  0  0  0  0  0  0  0  0
  149.5904  136.5495  156.4160 O   0  0  0  0  0  0  0  0  0  0  0  0
  149.1399  135.4786  154.4601 N   0  0  0  0  0  0  0  0  0  0  0  0
  148.9770  134.0865  154.9056 C   0  0  0  0  0  0  0  0  0  0  0  0
  150.1905  133.6688  155.7638 C   0  0  0  0  0  0  0  0  0  0  0  0
  147.6552  133.8795  155.6855 C   0  0  0  0  0  0  0  0  0  0  0  0
  146.4205  134.0796  154.7890 C   0  0  0  0  0  0  0  0  0  0  0  0
  146.4793  133.1872  153.6826 O   0  0  0  0  0  0  0  0  0  0  0  0
  147.6102  133.4121  152.8495 C   0  0  0  0  0  0  0  0  0  0  0  0
  148.9097  133.1930  153.6479 C   0  0  0  0  0  0  0  0  0  0  0  0
  150.7065  139.2751  155.6893 N   0  0  0  0  0  0  0  0  0  0  0  0
  151.4378  142.2848  159.9958 H   0  0  0  0  0  0  0  0  0  0  0  0
  152.9612  143.1631  160.0774 H   0  0  0  0  0  0  0  0  0  0  0  0
  152.8613  141.6755  159.1553 H   0  0  0  0  0  0  0  0  0  0  0  0
  152.8298  143.6296  157.6237 H   0  0  0  0  0  0  0  0  0  0  0  0
  150.3520  144.5659  159.1421 H   0  0  0  0  0  0  0  0  0  0  0  0
  151.0451  145.3392  157.7187 H   0  0  0  0  0  0  0  0  0  0  0  0
  151.9492  145.3043  159.2260 H   0  0  0  0  0  0  0  0  0  0  0  0
  150.0337  142.4171  157.7425 H   0  0  0  0  0  0  0  0  0  0  0  0
  150.7412  143.2307  156.3737 H   0  0  0  0  0  0  0  0  0  0  0  0
  152.5149  141.4667  156.1997 H   0  0  0  0  0  0  0  0  0  0  0  0
  151.7931  140.6041  157.5432 H   0  0  0  0  0  0  0  0  0  0  0  0
  149.5265  142.2460  154.9706 H   0  0  0  0  0  0  0  0  0  0  0  0
  148.2777  140.2475  153.6147 H   0  0  0  0  0  0  0  0  0  0  0  0
  149.3900  137.5179  153.4295 H   0  0  0  0  0  0  0  0  0  0  0  0
  149.0255  135.6274  153.4682 H   0  0  0  0  0  0  0  0  0  0  0  0
  150.1435  132.6113  156.0259 H   0  0  0  0  0  0  0  0  0  0  0  0
  150.2413  134.2264  156.6990 H   0  0  0  0  0  0  0  0  0  0  0  0
  151.1278  133.8312  155.2305 H   0  0  0  0  0  0  0  0  0  0  0  0
  147.6287  132.8643  156.0834 H   0  0  0  0  0  0  0  0  0  0  0  0
  147.5954  134.5345  156.5542 H   0  0  0  0  0  0  0  0  0  0  0  0
  145.5120  133.8746  155.3553 H   0  0  0  0  0  0  0  0  0  0  0  0
  146.3479  135.1104  154.4392 H   0  0  0  0  0  0  0  0  0  0  0  0
  147.5674  132.7179  152.0101 H   0  0  0  0  0  0  0  0  0  0  0  0
  147.5696  134.4176  152.4278 H   0  0  0  0  0  0  0  0  0  0  0  0
  149.7743  133.3688  153.0064 H   0  0  0  0  0  0  0  0  0  0  0  0
  148.9597  132.1433  153.9416 H   0  0  0  0  0  0  0  0  0  0  0  0
  1  2  1  0  0  0  0
  1 22  1  0  0  0  0
  1 23  1  0  0  0  0
  1 24  1  0  0  0  0
  2  3  1  0  0  0  0
  2  4  1  0  0  0  0
  2 25  1  0  0  0  0
  3 26  1  0  0  0  0
  3 27  1  0  0  0  0
  3 28  1  0  0  0  0
  4  5  1  0  0  0  0
  4 29  1  0  0  0  0
  4 30  1  0  0  0  0
  5  6  1  0  0  0  0
  5 31  1  0  0  0  0
  5 32  1  0  0  0  0
  6 21  1  0  0  0  0
  6  7  1  0  0  0  0
  7  8  2  0  0  0  0
  7 33  1  0  0  0  0
  8  9  1  0  0  0  0
  8 34  1  0  0  0  0
  9 10  1  0  0  0  0
  9 21  2  0  0  0  0
 10 11  1  0  0  0  0
 10 35  1  0  0  0  0
 11 12  2  0  0  0  0
 11 13  1  0  0  0  0
 13 14  1  0  0  0  0
 13 36  1  0  0  0  0
 14 20  1  0  0  0  0
 14 15  1  0  0  0  0
 14 16  1  0  0  0  0
 15 37  1  0  0  0  0
 15 38  1  0  0  0  0
 15 39  1  0  0  0  0
 16 17  1  0  0  0  0
 16 40  1  0  0  0  0
 16 41  1  0  0  0  0
 17 18  1  0  0  0  0
 17 42  1  0  0  0  0
 17 43  1  0  0  0  0
 18 19  1  0  0  0  0
 19 20  1  0  0  0  0
 19 44  1  0  0  0  0
 19 45  1  0  0  0  0
 20 46  1  0  0  0  0
 20 47  1  0  0  0  0
M  END
> <s_m_source_file>
AV-unprocessed.smi

> <i_m_source_file_index>
2497

> <i_lp_mmshare_version>
43012

> <i_f3d_flags>
0

> <s_epik_input>
W0NIM11bQ0hdKFtDSDNdKVtDSDJdW0NIMl1uMVtjSF1bY0hdYyhuMSlbTkhdQyg9TylbTkhdQzIoW0NIM10pW0NIMl1bQ0gyXU9bQ0gyXVtDSDJdMg==

> <s_epik_cmdline>
J2VwaWtfcHl0aG9uJywgJy1waCcsICc3LjAnLCAnLXRuJywgJzgnLCAnLW1hJywgJzIwMCcsICctbWV0YWxfYmluZGluZycsICctaW1hZScsICc8aW5maWxlLm1hZT4nLCAnLW9tYWUnLCAnPG91dGZpbGUubWFlPic=

> <r_lp_tautomer_probability>
1

> <r_epik_Ionization_Penalty>
3.57775e-05

> <r_epik_Ionization_Penalty_Charging>
0

> <r_epik_Ionization_Penalty_Neutral>
3.57775e-05

> <r_epik_State_Penalty>
-0

> <r_epik_Charging_Adjusted_Penalty>
0

> <i_epik_Tot_Q>
0

> <i_epik_Tot_abs_Q>
0

> <r_epik_Metal_State_Penalty>
-0

> <b_epik_Metal_Only>
0

> <s_lp_Force_Field>
OPLS_2005

> <r_lp_Energy>
13.1227

> <b_lp_Chiralities_Consistent>
1

> <s_lp_Variant>
AV-unprocessed.smi:2497-1

> <Gold.Version>
5.8.1

> <Gold.Id.Protein>
6NUR|6NUR_protein|mol2

> <Gold.PLP.Fitness>
44.7023

> <Gold.PLP.PLP>
-38.1738

> <Gold.PLP.part.hbond>
-2.0000

> <Gold.PLP.part.metal>
0.0000

> <Gold.PLP.part.buried>
-4.4038

> <Gold.PLP.part.nonpolar>
-32.0557

> <Gold.PLP.part.repulsive>
0.1470

> <Gold.PLP.ligand.clash>
0.0000

> <Gold.PLP.ligand.torsion>
0.8680

> <Gold.PLP.Chemscore.Hbond>
1.9833

> <Gold.PLP.Chemscore.CHOScore>
0.7619

> <Gold.PLP.Chemscore.Metal>
0.0000

> <Gold.Chemscore.Hbonds>
donor molecule, donor type, donor heavy atom, donor atom, acceptor molecule, acceptor atom, score
      L1  H    10    35       P1  7948  0.95
      L1  H    13    36       P1  7948  1.00
      L1  C     7    33       P1  8028  0.73

> <Gold.PLP.Chemscore.Internal.Correction>
0.0288

> <Gold.Rescore>
     Score         DG    S(hbond)    S(metal)    S(lipo)     H(rot)  DE(clash)    DE(int)     intcor
     15.31     -18.04       1.78        0.00      88.60       1.47       0.00       2.73       ----

> <Gold.Chemscore.Fitness>
15.3119

> <Gold.Chemscore.DG>
-18.0387

> <Gold.Chemscore.ZeroCoef>
-5.4800

> <Gold.Chemscore.Hbond>
1.7828

> <Gold.Chemscore.Metal>
0.0000

> <Gold.Chemscore.Lipo>
88.6046

> <Gold.Chemscore.Internal_Hbond>
0.0000

> <Gold.Chemscore.DEClash>
0.0000

> <Gold.Chemscore.DEInternal>
2.7268

> <Gold.Chemscore.Rot>
1.4698

> <Gold.Chemscore.Internal.Correction>
   9.000000E+99

> <Gold.Chemscore.Hbonds>
donor molecule, donor type, donor heavy atom, donor atom, acceptor molecule, acceptor atom, score
      L1  H    10    35       P1  7948  0.82
      L1  H    13    36       P1  7948  0.78

> <Gold.Chemscore.Hbond.Weighted>
-5.9547

> <Gold.Chemscore.Metal.Weighted>
-0.0000

> <Gold.Chemscore.Lipo.Weighted>
-10.3667

> <Gold.Chemscore.Internal_Hbond.Weighted>
0.0000

> <Gold.Chemscore.DEClash.Weighted>
0.0000

> <Gold.Chemscore.DEInternal.Weighted>
2.7268

> <Gold.Chemscore.Rot.Weighted>
3.7628

> <Gold.Chemscore.Internal.Correction.Weighted>
   9.000000E+99

> <Gold.Protein.RotatedTorsions>
[ 6907 6896 6895 6894 ] final  -77.34 input  -60.11 | X-H torsion
[ 7974 7965 7964 7962 ] final  -36.96 input  175.53 | X-H torsion
[ 8008 7997 7996 7995 ] final  -84.80 input   59.86 | X-H torsion
[ 10167 10162 10161 10158 ] final   10.50 input  -65.29 | X-H torsion
[ 10718 10713 10712 10709 ] final -173.95 input   66.30 | X-H torsion
[ 10763 10752 10751 10750 ] final -158.50 input  -60.55 | X-H torsion
[ 11005 11000 10999 10996 ] final   -5.48 input  -57.11 | X-H torsion

> <Gold.Protein.ActiveResidues>
 VAL166  LYS551  ARG553  GLY616  TRP617  ASP618  TYR619  PRO620  LYS621  CYS622 
 ASP623  PHE694  ASN695  SER759  ASP760  ASP761  ALA762  ILE779  LEU786  VAL792 
 PHE793  MET794  SER795  GLU796  ALA797  LYS798  CYS799  TRP800  GLU811  SER814 

> <Gold.Protein.RotatedAtoms>
  150.7001  134.4437  159.5303 H   0  0  0  0  0  0  0  0  0  0  0  0  # atno 6907 bound_to 6896
  152.2142  134.8470  160.0503 H   0  0  0  0  0  0  0  0  0  0  0  0  # atno 6908 bound_to 6896
  151.9344  133.3585  159.3979 H   0  0  0  0  0  0  0  0  0  0  0  0  # atno 6909 bound_to 6896
  146.0617  140.6339  142.8994 H   0  0  0  0  0  0  0  0  0  0  0  0  # atno 7974 bound_to 7965
  154.6338  140.0600  156.9764 H   0  0  0  0  0  0  0  0  0  0  0  0  # atno 8008 bound_to 7997
  155.1624  140.3284  155.4390 H   0  0  0  0  0  0  0  0  0  0  0  0  # atno 8009 bound_to 7997
  156.2496  140.1928  156.6730 H   0  0  0  0  0  0  0  0  0  0  0  0  # atno 8010 bound_to 7997
  140.6190  143.8246  150.7152 H   0  0  0  0  0  0  0  0  0  0  0  0  # atno 10167 bound_to 10162
  156.7778  130.9472  151.3120 H   0  0  0  0  0  0  0  0  0  0  0  0  # atno 10718 bound_to 10713
  154.7551  135.3102  154.8485 H   0  0  0  0  0  0  0  0  0  0  0  0  # atno 10763 bound_to 10752
  153.9261  135.6790  153.4750 H   0  0  0  0  0  0  0  0  0  0  0  0  # atno 10764 bound_to 10752
  153.1148  135.4849  154.9027 H   0  0  0  0  0  0  0  0  0  0  0  0  # atno 10765 bound_to 10752
  140.6917  133.9066  155.8622 H   0  0  0  0  0  0  0  0  0  0  0  0  # atno 11005 bound_to 11000
  144.7178  140.4272  143.7031 LP  0  0  0  0  0  0  0  0  0  0  0  0  # atno 17320 bound_to 7965
  145.6549  139.1571  143.2841 LP  0  0  0  0  0  0  0  0  0  0  0  0  # atno 17321 bound_to 7965
  140.1831  143.4098  152.1918 LP  0  0  0  0  0  0  0  0  0  0  0  0  # atno 17342 bound_to 10162
  139.5422  144.7267  151.4696 LP  0  0  0  0  0  0  0  0  0  0  0  0  # atno 17343 bound_to 10162
  157.6660  130.9008  149.9934 LP  0  0  0  0  0  0  0  0  0  0  0  0  # atno 17370 bound_to 10713
  156.1237  130.3645  149.9845 LP  0  0  0  0  0  0  0  0  0  0  0  0  # atno 17371 bound_to 10713
  141.0236  134.0854  157.4093 LP  0  0  0  0  0  0  0  0  0  0  0  0  # atno 17394 bound_to 11000
  139.8922  135.0123  156.6831 LP  0  0  0  0  0  0  0  0  0  0  0  0  # atno 17395 bound_to 11000

$$$$
