AV-unprocessed.smi:2272|AV-procd|sdf|9163|dock2
  -GOLD-   2272012373D 1   1.00000     0.00000
 Structure written by MMmdl.
 41 42  0  0  0  0  0  0  0  0  1 V2000
  152.2015  143.2735  160.9223 C   0  0  0  0  0  0  0  0  0  0  0  0
  151.9995  142.5423  159.6070 C   0  0  0  0  0  0  0  0  0  0  0  0
  151.1791  143.1872  158.6767 N   0  0  0  0  0  0  0  0  0  0  0  0
  150.9486  142.6367  157.5297 C   0  0  0  0  0  0  0  0  0  0  0  0
  151.5069  141.3964  157.1814 N   0  0  0  0  0  0  0  0  0  0  0  0
  151.1542  140.8730  155.8519 C   0  0  0  0  0  0  0  0  0  0  0  0
  149.7807  141.3972  155.3733 C   0  0  1  0  0  0  0  0  0  0  0  0
  149.6124  141.0550  154.0123 O   0  0  0  0  0  0  0  0  0  0  0  0
  148.6151  140.7664  156.1488 C   0  0  0  0  0  0  0  0  0  0  0  0
  147.3989  141.1181  155.5050 O   0  0  0  0  0  0  0  0  0  0  0  0
  146.6036  142.0404  156.2355 C   0  0  0  0  0  0  0  0  0  0  0  0
  145.8019  142.9767  155.3460 C   0  0  0  0  0  0  0  0  0  0  0  0
  146.1954  143.1850  154.0069 C   0  0  0  0  0  0  0  0  0  0  0  0
  145.4602  144.0556  153.1791 C   0  0  0  0  0  0  0  0  0  0  0  0
  144.3311  144.7254  153.6878 C   0  0  0  0  0  0  0  0  0  0  0  0
  143.9387  144.5259  155.0253 C   0  0  0  0  0  0  0  0  0  0  0  0
  144.6727  143.6557  155.8551 C   0  0  0  0  0  0  0  0  0  0  0  0
  144.2868  143.4759  157.1411 F   0  0  0  0  0  0  0  0  0  0  0  0
  152.3106  140.6954  158.0329 C   0  0  0  0  0  0  0  0  0  0  0  0
  152.7799  139.5984  157.7239 O   0  0  0  0  0  0  0  0  0  0  0  0
  152.5668  141.3358  159.3330 C   0  0  0  0  0  0  0  0  0  0  0  0
  153.4654  140.5855  160.3085 C   0  0  0  0  0  0  0  0  0  0  0  0
  153.2583  143.4890  161.0818 H   0  0  0  0  0  0  0  0  0  0  0  0
  151.8385  142.6690  161.7540 H   0  0  0  0  0  0  0  0  0  0  0  0
  151.6619  144.2214  160.9379 H   0  0  0  0  0  0  0  0  0  0  0  0
  150.3101  143.0937  156.7717 H   0  0  0  0  0  0  0  0  0  0  0  0
  151.9282  141.0774  155.1090 H   0  0  0  0  0  0  0  0  0  0  0  0
  151.1327  139.7833  155.9098 H   0  0  0  0  0  0  0  0  0  0  0  0
  149.7175  142.4823  155.4670 H   0  0  0  0  0  0  0  0  0  0  0  0
  148.8523  140.4988  153.9344 H   0  0  0  0  0  0  0  0  0  0  0  0
  148.7102  139.6791  156.1557 H   0  0  0  0  0  0  0  0  0  0  0  0
  148.6266  141.1030  157.1867 H   0  0  0  0  0  0  0  0  0  0  0  0
  145.8998  141.4698  156.8419 H   0  0  0  0  0  0  0  0  0  0  0  0
  147.2260  142.6029  156.9334 H   0  0  0  0  0  0  0  0  0  0  0  0
  147.0608  142.6760  153.6084 H   0  0  0  0  0  0  0  0  0  0  0  0
  145.7632  144.2098  152.1540 H   0  0  0  0  0  0  0  0  0  0  0  0
  143.7676  145.3933  153.0532 H   0  0  0  0  0  0  0  0  0  0  0  0
  143.0741  145.0420  155.4160 H   0  0  0  0  0  0  0  0  0  0  0  0
  153.0231  139.6210  160.5604 H   0  0  0  0  0  0  0  0  0  0  0  0
  153.6325  141.1233  161.2401 H   0  0  0  0  0  0  0  0  0  0  0  0
  154.4411  140.4031  159.8571 H   0  0  0  0  0  0  0  0  0  0  0  0
  1  2  1  0  0  0  0
  1 23  1  0  0  0  0
  1 24  1  0  0  0  0
  1 25  1  0  0  0  0
  2 21  2  0  0  0  0
  2  3  1  0  0  0  0
  3  4  2  0  0  0  0
  4  5  1  0  0  0  0
  4 26  1  0  0  0  0
  5  6  1  0  0  0  0
  5 19  1  0  0  0  0
  6  7  1  0  0  0  0
  6 27  1  0  0  0  0
  6 28  1  0  0  0  0
  7  8  1  0  0  0  0
  7  9  1  0  0  0  0
  7 29  1  0  0  0  0
  8 30  1  0  0  0  0
  9 10  1  0  0  0  0
  9 31  1  0  0  0  0
  9 32  1  0  0  0  0
 10 11  1  0  0  0  0
 11 12  1  0  0  0  0
 11 33  1  0  0  0  0
 11 34  1  0  0  0  0
 12 17  1  0  0  0  0
 12 13  2  0  0  0  0
 13 14  1  0  0  0  0
 13 35  1  0  0  0  0
 14 15  2  0  0  0  0
 14 36  1  0  0  0  0
 15 16  1  0  0  0  0
 15 37  1  0  0  0  0
 16 17  2  0  0  0  0
 16 38  1  0  0  0  0
 17 18  1  0  0  0  0
 19 20  2  0  0  0  0
 19 21  1  0  0  0  0
 21 22  1  0  0  0  0
 22 39  1  0  0  0  0
 22 40  1  0  0  0  0
 22 41  1  0  0  0  0
M  END
> <s_m_source_file>
AV-unprocessed.smi

> <i_m_source_file_index>
2272

> <i_lp_mmshare_version>
43012

> <i_f3d_flags>
0

> <s_epik_input>
W0NIM11jMW5bY0hdbihjKD1PKWMxW0NIM10pW0NIMl1bQ0BIXShbT0hdKVtDSDJdT1tDSDJdYzJbY0hdW2NIXVtjSF1bY0hdYzJG

> <s_epik_cmdline>
J2VwaWtfcHl0aG9uJywgJy1waCcsICc3LjAnLCAnLXRuJywgJzgnLCAnLW1hJywgJzIwMCcsICctbWV0YWxfYmluZGluZycsICctaW1hZScsICc8aW5maWxlLm1hZT4nLCAnLW9tYWUnLCAnPG91dGZpbGUubWFlPic=

> <r_lp_tautomer_probability>
1

> <r_epik_Ionization_Penalty>
5.35985e-05

> <r_epik_Ionization_Penalty_Charging>
1.17753e-07

> <r_epik_Ionization_Penalty_Neutral>
5.34808e-05

> <r_epik_State_Penalty>
-0

> <r_epik_Charging_Adjusted_Penalty>
1.17753e-07

> <i_epik_Tot_Q>
0

> <i_epik_Tot_abs_Q>
0

> <r_epik_Metal_State_Penalty>
-0

> <b_epik_Metal_Only>
0

> <s_lp_Force_Field>
OPLS_2005

> <r_lp_Energy>
21.4702

> <b_lp_Chiralities_Consistent>
1

> <s_lp_Variant>
AV-unprocessed.smi:2272-2

> <Gold.Version>
5.8.1

> <Gold.Id.Protein>
6NUR|6NUR_protein|mol2

> <Gold.PLP.Fitness>
51.0110

> <Gold.PLP.PLP>
-45.0571

> <Gold.PLP.part.hbond>
-3.8790

> <Gold.PLP.part.metal>
0.0000

> <Gold.PLP.part.buried>
-5.0503

> <Gold.PLP.part.nonpolar>
-35.9297

> <Gold.PLP.part.repulsive>
0.1479

> <Gold.PLP.ligand.clash>
0.0816

> <Gold.PLP.ligand.torsion>
1.3195

> <Gold.PLP.Chemscore.Hbond>
1.8466

> <Gold.PLP.Chemscore.CHOScore>
1.0000

> <Gold.PLP.Chemscore.Metal>
0.0000

> <Gold.Chemscore.Hbonds>
donor molecule, donor type, donor heavy atom, donor atom, acceptor molecule, acceptor atom, score
      P1  H  7989  7998       L1     8  0.36
      P1  H  7997  8010       L1    20  1.00
      P1  H  8011  8017       L1     8  0.56
      L1  C     4    26       P1  8028  1.00

> <Gold.PLP.Chemscore.Internal.Correction>
0.1346

> <Gold.Rescore>
     Score         DG    S(hbond)    S(metal)    S(lipo)     H(rot)  DE(clash)    DE(int)     intcor
     12.68     -14.39       1.34        0.00      96.69       2.69       0.50       1.20       ----

> <Gold.Chemscore.Fitness>
12.6801

> <Gold.Chemscore.DG>
-14.3856

> <Gold.Chemscore.ZeroCoef>
-5.4800

> <Gold.Chemscore.Hbond>
1.3378

> <Gold.Chemscore.Metal>
0.0000

> <Gold.Chemscore.Lipo>
96.6915

> <Gold.Chemscore.Internal_Hbond>
0.0000

> <Gold.Chemscore.DEClash>
0.5024

> <Gold.Chemscore.DEInternal>
1.2032

> <Gold.Chemscore.Rot>
2.6857

> <Gold.Chemscore.Internal.Correction>
   9.000000E+99

> <Gold.Chemscore.Hbonds>
donor molecule, donor type, donor heavy atom, donor atom, acceptor molecule, acceptor atom, score
      P1  H  7989  7998       L1     8  0.08
      P1  H  7997  8010       L1    20  0.39
      P1  H  8011  8017       L1     8  0.46

> <Gold.Chemscore.Hbond.Weighted>
-4.4682

> <Gold.Chemscore.Metal.Weighted>
-0.0000

> <Gold.Chemscore.Lipo.Weighted>
-11.3129

> <Gold.Chemscore.Internal_Hbond.Weighted>
0.0000

> <Gold.Chemscore.DEClash.Weighted>
0.5024

> <Gold.Chemscore.DEInternal.Weighted>
1.2032

> <Gold.Chemscore.Rot.Weighted>
6.8755

> <Gold.Chemscore.Internal.Correction.Weighted>
   9.000000E+99

> <Gold.Protein.RotatedTorsions>
[ 6907 6896 6895 6894 ] final -134.43 input  -60.11 | X-H torsion
[ 7974 7965 7964 7962 ] final  -86.79 input  175.53 | X-H torsion
[ 8008 7997 7996 7995 ] final   52.84 input   59.86 | X-H torsion
[ 10167 10162 10161 10158 ] final  136.08 input  -65.29 | X-H torsion
[ 10718 10713 10712 10709 ] final  -31.01 input   66.30 | X-H torsion
[ 10763 10752 10751 10750 ] final -146.47 input  -60.55 | X-H torsion
[ 11005 11000 10999 10996 ] final -153.89 input  -57.11 | X-H torsion

> <Gold.Protein.ActiveResidues>
 VAL166  LYS551  ARG553  GLY616  TRP617  ASP618  TYR619  PRO620  LYS621  CYS622 
 ASP623  PHE694  ASN695  SER759  ASP760  ASP761  ALA762  ILE779  LEU786  VAL792 
 PHE793  MET794  SER795  GLU796  ALA797  LYS798  CYS799  TRP800  GLU811  SER814 

> <Gold.Protein.RotatedAtoms>
  150.9858  133.6199  159.2715 H   0  0  0  0  0  0  0  0  0  0  0  0  # atno 6907 bound_to 6896
  151.3438  135.0868  159.9389 H   0  0  0  0  0  0  0  0  0  0  0  0  # atno 6908 bound_to 6896
  152.5230  133.9464  159.7705 H   0  0  0  0  0  0  0  0  0  0  0  0  # atno 6909 bound_to 6896
  145.4751  140.9558  143.1895 H   0  0  0  0  0  0  0  0  0  0  0  0  # atno 7974 bound_to 7965
  155.4584  140.3461  155.4309 H   0  0  0  0  0  0  0  0  0  0  0  0  # atno 8008 bound_to 7997
  156.1176  140.1478  156.9279 H   0  0  0  0  0  0  0  0  0  0  0  0  # atno 8009 bound_to 7997
  154.4800  140.0872  156.7334 H   0  0  0  0  0  0  0  0  0  0  0  0  # atno 8010 bound_to 7997
  139.5193  144.6483  151.5375 H   0  0  0  0  0  0  0  0  0  0  0  0  # atno 10167 bound_to 10162
  156.3926  130.4375  149.7383 H   0  0  0  0  0  0  0  0  0  0  0  0  # atno 10718 bound_to 10713
  154.8334  135.3386  154.6666 H   0  0  0  0  0  0  0  0  0  0  0  0  # atno 10763 bound_to 10752
  153.7283  135.6953  153.5000 H   0  0  0  0  0  0  0  0  0  0  0  0  # atno 10764 bound_to 10752
  153.2331  135.4410  155.0569 H   0  0  0  0  0  0  0  0  0  0  0  0  # atno 10765 bound_to 10752
  140.7032  134.3914  157.5207 H   0  0  0  0  0  0  0  0  0  0  0  0  # atno 11005 bound_to 11000
  144.7922  139.6306  143.7108 LP  0  0  0  0  0  0  0  0  0  0  0  0  # atno 17320 bound_to 7965
  146.2374  139.5932  142.9514 LP  0  0  0  0  0  0  0  0  0  0  0  0  # atno 17321 bound_to 7965
  140.6278  143.9135  150.6579 LP  0  0  0  0  0  0  0  0  0  0  0  0  # atno 17342 bound_to 10162
  140.2429  143.3650  152.1471 LP  0  0  0  0  0  0  0  0  0  0  0  0  # atno 17343 bound_to 10162
  156.4431  130.7870  151.2892 LP  0  0  0  0  0  0  0  0  0  0  0  0  # atno 17370 bound_to 10713
  157.7500  131.0119  150.3362 LP  0  0  0  0  0  0  0  0  0  0  0  0  # atno 17371 bound_to 10713
  139.8891  134.8839  156.2438 LP  0  0  0  0  0  0  0  0  0  0  0  0  # atno 17394 bound_to 11000
  141.0146  133.7076  156.1168 LP  0  0  0  0  0  0  0  0  0  0  0  0  # atno 17395 bound_to 11000

$$$$
