AV-unprocessed.smi:1019|AV-procd|sdf|4448|dock7
  -GOLD-   22720 2413D 1   1.00000     0.00000
 Structure written by MMmdl.
 45 47  0  0  0  0  0  0  0  0  3 V2000
  149.5508  142.3354  158.3152 C   0  0  0  0  0  0  0  0  0  0  0  0
  150.9898  142.3039  157.9657 N   0  3  2  0  0  0  0  0  0  0  0  0
  151.7180  143.4702  158.5249 C   0  0  0  0  0  0  0  0  0  0  0  0
  152.2294  143.2038  159.9309 C   0  0  0  0  0  0  0  0  0  0  0  0
  151.9810  144.1359  160.9608 C   0  0  0  0  0  0  0  0  0  0  0  0
  152.4415  143.8855  162.2681 C   0  0  0  0  0  0  0  0  0  0  0  0
  153.1552  142.7049  162.5498 C   0  0  0  0  0  0  0  0  0  0  0  0
  153.4101  141.7750  161.5238 C   0  0  0  0  0  0  0  0  0  0  0  0
  152.9494  142.0239  160.2165 C   0  0  0  0  0  0  0  0  0  0  0  0
  151.2232  142.0933  156.5116 C   0  0  0  0  0  0  0  0  0  0  0  0
  150.4232  140.8946  155.9672 C   0  0  2  0  0  0  0  0  0  0  0  0
  151.2807  140.1048  155.1651 O   0  0  0  0  0  0  0  0  0  0  0  0
  149.2073  141.3466  155.1344 C   0  0  0  0  0  0  0  0  0  0  0  0
  148.3993  140.2193  154.6472 N   0  0  0  0  0  0  0  0  0  0  0  0
  148.7515  139.1934  153.8250 C   0  0  0  0  0  0  0  0  0  0  0  0
  147.6579  138.3983  153.6651 N   0  3  0  0  0  0  0  0  0  0  0  0
  146.5899  138.9215  154.3963 C   0  0  0  0  0  0  0  0  0  0  0  0
  145.2822  138.4701  154.5454 C   0  0  0  0  0  0  0  0  0  0  0  0
  144.4360  139.2425  155.3674 C   0  0  0  0  0  0  0  0  0  0  0  0
  144.8988  140.4128  156.0034 C   0  0  0  0  0  0  0  0  0  0  0  0
  146.2270  140.8609  155.8456 C   0  0  0  0  0  0  0  0  0  0  0  0
  147.0584  140.0918  155.0314 C   0  0  0  0  0  0  0  0  0  0  0  0
  149.0617  143.2056  157.8756 H   0  0  0  0  0  0  0  0  0  0  0  0
  149.4187  142.3819  159.3966 H   0  0  0  0  0  0  0  0  0  0  0  0
  149.0361  141.4418  157.9637 H   0  0  0  0  0  0  0  0  0  0  0  0
  152.5385  143.7497  157.8618 H   0  0  0  0  0  0  0  0  0  0  0  0
  151.0507  144.3320  158.5766 H   0  0  0  0  0  0  0  0  0  0  0  0
  151.4319  145.0426  160.7526 H   0  0  0  0  0  0  0  0  0  0  0  0
  152.2473  144.5990  163.0555 H   0  0  0  0  0  0  0  0  0  0  0  0
  153.5087  142.5136  163.5525 H   0  0  0  0  0  0  0  0  0  0  0  0
  153.9594  140.8704  161.7395 H   0  0  0  0  0  0  0  0  0  0  0  0
  153.1476  141.3039  159.4359 H   0  0  0  0  0  0  0  0  0  0  0  0
  150.9667  143.0050  155.9700 H   0  0  0  0  0  0  0  0  0  0  0  0
  152.2792  141.9177  156.3064 H   0  0  0  0  0  0  0  0  0  0  0  0
  150.0688  140.2762  156.7919 H   0  0  0  0  0  0  0  0  0  0  0  0
  151.1905  139.1999  155.4229 H   0  0  0  0  0  0  0  0  0  0  0  0
  148.5502  141.9653  155.7468 H   0  0  0  0  0  0  0  0  0  0  0  0
  149.5091  141.9674  154.2904 H   0  0  0  0  0  0  0  0  0  0  0  0
  149.7234  139.0372  153.3793 H   0  0  0  0  0  0  0  0  0  0  0  0
  144.9248  137.5741  154.0591 H   0  0  0  0  0  0  0  0  0  0  0  0
  143.4115  138.9313  155.5125 H   0  0  0  0  0  0  0  0  0  0  0  0
  144.2205  140.9790  156.6250 H   0  0  0  0  0  0  0  0  0  0  0  0
  146.5666  141.7601  156.3368 H   0  0  0  0  0  0  0  0  0  0  0  0
  151.3796  141.4959  158.4306 H   0  0  0  0  0  0  0  0  0  0  0  0
  147.6443  137.5600  153.0983 H   0  0  0  0  0  0  0  0  0  0  0  0
  1  2  1  0  0  0  0
  1 23  1  0  0  0  0
  1 24  1  0  0  0  0
  1 25  1  0  0  0  0
  2  3  1  0  0  0  0
  2 10  1  0  0  0  0
  2 44  1  0  0  0  0
  3  4  1  0  0  0  0
  3 26  1  0  0  0  0
  3 27  1  0  0  0  0
  4  9  1  0  0  0  0
  4  5  2  0  0  0  0
  5  6  1  0  0  0  0
  5 28  1  0  0  0  0
  6  7  2  0  0  0  0
  6 29  1  0  0  0  0
  7  8  1  0  0  0  0
  7 30  1  0  0  0  0
  8  9  2  0  0  0  0
  8 31  1  0  0  0  0
  9 32  1  0  0  0  0
 10 11  1  0  0  0  0
 10 33  1  0  0  0  0
 10 34  1  0  0  0  0
 11 12  1  0  0  0  0
 11 13  1  0  0  0  0
 11 35  1  0  0  0  0
 12 36  1  0  0  0  0
 13 14  1  0  0  0  0
 13 37  1  0  0  0  0
 13 38  1  0  0  0  0
 14 22  1  0  0  0  0
 14 15  1  0  0  0  0
 15 16  2  0  0  0  0
 15 39  1  0  0  0  0
 16 17  1  0  0  0  0
 16 45  1  0  0  0  0
 17 22  2  0  0  0  0
 17 18  1  0  0  0  0
 18 19  2  0  0  0  0
 18 40  1  0  0  0  0
 19 20  1  0  0  0  0
 19 41  1  0  0  0  0
 20 21  2  0  0  0  0
 20 42  1  0  0  0  0
 21 22  1  0  0  0  0
 21 43  1  0  0  0  0
M  CHG  1   2   1
M  CHG  1  16   1
M  END
> <s_m_source_file>
AV-unprocessed.smi

> <i_m_source_file_index>
1019

> <i_lp_mmshare_version>
43012

> <i_f3d_flags>
0

> <s_epik_input>
W2NIXTFbY0hdW2NIXVtjSF1bY0hdYzFbQ0gyXU4oW0NIM10pW0NIMl1bQ0BIXShbT0hdKVtDSDJdbihbY0hdbjIpYyhjMjMpW2NIXVtjSF1bY0hdW2NIXTM=

> <s_epik_cmdline>
J2VwaWtfcHl0aG9uJywgJy1waCcsICc3LjAnLCAnLXRuJywgJzgnLCAnLW1hJywgJzIwMCcsICctbWV0YWxfYmluZGluZycsICctaW1hZScsICc8aW5maWxlLm1hZT4nLCAnLW9tYWUnLCAnPG91dGZpbGUubWFlPic=

> <r_epik_Ionization_Penalty>
1.5198

> <r_epik_Ionization_Penalty_Charging>
1.5198

> <r_epik_Ionization_Penalty_Neutral>
3.13312e-06

> <r_epik_State_Penalty>
1.624

> <r_epik_Charging_Adjusted_Penalty>
3.1438

> <i_epik_Tot_Q>
2

> <i_epik_Tot_abs_Q>
2

> <r_epik_Metal_State_Penalty>
5.67392

> <b_epik_Metal_Only>
0

> <s_lp_Force_Field>
OPLS_2005

> <r_lp_Energy>
24.0682

> <b_lp_Chiralities_Consistent>
1

> <s_lp_Variant>
AV-unprocessed.smi:1019-6

> <Gold.Version>
5.8.1

> <Gold.Id.Protein>
6NUR|6NUR_protein|mol2

> <Gold.PLP.Fitness>
50.5085

> <Gold.PLP.PLP>
-42.2738

> <Gold.PLP.part.hbond>
-2.0000

> <Gold.PLP.part.metal>
0.0000

> <Gold.PLP.part.buried>
-3.4131

> <Gold.PLP.part.nonpolar>
-37.2349

> <Gold.PLP.part.repulsive>
0.0654

> <Gold.PLP.ligand.clash>
0.0000

> <Gold.PLP.ligand.torsion>
1.2051

> <Gold.PLP.Chemscore.Hbond>
2.9840

> <Gold.PLP.Chemscore.CHOScore>
0.4954

> <Gold.PLP.Chemscore.Metal>
0.0000

> <Gold.Chemscore.Hbonds>
donor molecule, donor type, donor heavy atom, donor atom, acceptor molecule, acceptor atom, score
      L1  H    16    45       P1  7948  0.85
      P1  H  7989  7998       L1    12  1.00
      L1  C    15    39       P1  7957  0.53

> <Gold.PLP.Chemscore.Internal.Correction>
0.2067

> <Gold.Rescore>
     Score         DG    S(hbond)    S(metal)    S(lipo)     H(rot)  DE(clash)    DE(int)     intcor
     15.40     -18.70       1.83        0.00     114.34       2.46       1.05       2.25       ----

> <Gold.Chemscore.Fitness>
15.4021

> <Gold.Chemscore.DG>
-18.7004

> <Gold.Chemscore.ZeroCoef>
-5.4800

> <Gold.Chemscore.Hbond>
1.8346

> <Gold.Chemscore.Metal>
0.0000

> <Gold.Chemscore.Lipo>
114.3441

> <Gold.Chemscore.Internal_Hbond>
0.0000

> <Gold.Chemscore.DEClash>
1.0474

> <Gold.Chemscore.DEInternal>
2.2509

> <Gold.Chemscore.Rot>
2.4552

> <Gold.Chemscore.Internal.Correction>
   9.000000E+99

> <Gold.Chemscore.Hbonds>
donor molecule, donor type, donor heavy atom, donor atom, acceptor molecule, acceptor atom, score
      L1  H    16    45       P1  7948  0.41
      P1  H  7989  7998       L1    12  0.84

> <Gold.Chemscore.Hbond.Weighted>
-6.1276

> <Gold.Chemscore.Metal.Weighted>
-0.0000

> <Gold.Chemscore.Lipo.Weighted>
-13.3783

> <Gold.Chemscore.Internal_Hbond.Weighted>
0.0000

> <Gold.Chemscore.DEClash.Weighted>
1.0474

> <Gold.Chemscore.DEInternal.Weighted>
2.2509

> <Gold.Chemscore.Rot.Weighted>
6.2854

> <Gold.Chemscore.Internal.Correction.Weighted>
   9.000000E+99

> <Gold.Protein.RotatedTorsions>
[ 6907 6896 6895 6894 ] final   71.34 input  -60.11 | X-H torsion
[ 7974 7965 7964 7962 ] final  -35.34 input  175.53 | X-H torsion
[ 8008 7997 7996 7995 ] final  -83.82 input   59.86 | X-H torsion
[ 10167 10162 10161 10158 ] final   67.52 input  -65.29 | X-H torsion
[ 10718 10713 10712 10709 ] final   -2.45 input   66.30 | X-H torsion
[ 10763 10752 10751 10750 ] final  162.59 input  -60.55 | X-H torsion
[ 11005 11000 10999 10996 ] final  -90.52 input  -57.11 | X-H torsion

> <Gold.Protein.ActiveResidues>
 VAL166  LYS551  ARG553  GLY616  TRP617  ASP618  TYR619  PRO620  LYS621  CYS622 
 ASP623  PHE694  ASN695  SER759  ASP760  ASP761  ALA762  ILE779  LEU786  VAL792 
 PHE793  MET794  SER795  GLU796  ALA797  LYS798  CYS799  TRP800  GLU811  SER814 

> <Gold.Protein.RotatedAtoms>
  152.4804  134.4735  159.9642 H   0  0  0  0  0  0  0  0  0  0  0  0  # atno 6907 bound_to 6896
  151.4742  133.3556  159.2836 H   0  0  0  0  0  0  0  0  0  0  0  0  # atno 6908 bound_to 6896
  150.8872  134.8297  159.7328 H   0  0  0  0  0  0  0  0  0  0  0  0  # atno 6909 bound_to 6896
  146.0754  140.6148  142.8933 H   0  0  0  0  0  0  0  0  0  0  0  0  # atno 7974 bound_to 7965
  154.6232  140.0613  156.9640 H   0  0  0  0  0  0  0  0  0  0  0  0  # atno 8008 bound_to 7997
  155.1785  140.3297  155.4361 H   0  0  0  0  0  0  0  0  0  0  0  0  # atno 8009 bound_to 7997
  156.2443  140.1902  156.6882 H   0  0  0  0  0  0  0  0  0  0  0  0  # atno 8010 bound_to 7997
  140.0887  144.5007  150.7113 H   0  0  0  0  0  0  0  0  0  0  0  0  # atno 10167 bound_to 10162
  156.7907  130.5360  149.5736 H   0  0  0  0  0  0  0  0  0  0  0  0  # atno 10718 bound_to 10713
  154.2807  135.2763  155.2698 H   0  0  0  0  0  0  0  0  0  0  0  0  # atno 10763 bound_to 10752
  154.5221  135.5753  153.6692 H   0  0  0  0  0  0  0  0  0  0  0  0  # atno 10764 bound_to 10752
  152.9929  135.6207  154.2966 H   0  0  0  0  0  0  0  0  0  0  0  0  # atno 10765 bound_to 10752
  141.1564  133.7697  156.9750 H   0  0  0  0  0  0  0  0  0  0  0  0  # atno 11005 bound_to 11000
  144.7258  140.4520  143.6974 LP  0  0  0  0  0  0  0  0  0  0  0  0  # atno 17320 bound_to 7965
  145.6315  139.1537  143.2966 LP  0  0  0  0  0  0  0  0  0  0  0  0  # atno 17321 bound_to 7965
  140.7040  143.2455  151.4781 LP  0  0  0  0  0  0  0  0  0  0  0  0  # atno 17342 bound_to 10162
  139.5737  144.1868  152.1873 LP  0  0  0  0  0  0  0  0  0  0  0  0  # atno 17343 bound_to 10162
  156.1161  130.6076  151.0122 LP  0  0  0  0  0  0  0  0  0  0  0  0  # atno 17370 bound_to 10713
  157.6602  131.0882  150.7856 LP  0  0  0  0  0  0  0  0  0  0  0  0  # atno 17371 bound_to 10713
  140.1104  134.9480  157.2057 LP  0  0  0  0  0  0  0  0  0  0  0  0  # atno 17394 bound_to 11000
  140.3201  134.2926  155.7248 LP  0  0  0  0  0  0  0  0  0  0  0  0  # atno 17395 bound_to 11000

$$$$
