AV-unprocessed.smi:716|AV-procd|sdf|3487|dock4
  -GOLD-   22720 0483D 1   1.00000     0.00000
 Structure written by MMmdl.
 48 50  0  0  0  0  0  0  0  0  1 V2000
  151.4618  144.1714  160.4016 C   0  0  0  0  0  0  0  0  0  0  0  0
  152.1281  142.9570  159.7520 C   0  0  0  0  0  0  0  0  0  0  0  0
  151.3082  142.4974  158.6902 O   0  0  0  0  0  0  0  0  0  0  0  0
  151.6401  141.1883  158.2532 C   0  0  1  0  0  0  0  0  0  0  0  0
  151.1772  140.1215  159.2477 C   0  0  0  0  0  0  0  0  0  0  0  0
  150.9036  139.2536  158.0203 C   0  0  1  0  0  0  0  0  0  0  0  0
  149.7240  138.4103  158.1779 N   0  0  0  0  0  0  0  0  0  0  0  0
  149.6155  137.4209  159.0753 C   0  0  0  0  0  0  0  0  0  0  0  0
  150.5137  137.1317  159.8677 O   0  0  0  0  0  0  0  0  0  0  0  0
  148.2947  136.6383  159.0479 C   0  0  0  0  0  0  0  0  0  0  0  0
  148.0152  135.9087  160.2931 N   0  0  0  0  0  0  0  0  0  0  0  0
  147.7927  136.7269  161.3886 N   0  0  0  0  0  0  0  0  0  0  0  0
  147.5187  136.2272  162.5488 C   0  0  0  0  0  0  0  0  0  0  0  0
  147.2900  137.1855  163.6798 C   0  0  0  0  0  0  0  0  0  0  0  0
  147.4455  134.7874  162.7076 C   0  0  0  0  0  0  0  0  0  0  0  0
  147.6654  133.9918  161.6389 C   0  0  0  0  0  0  0  0  0  0  0  0
  147.9747  134.5434  160.3214 C   0  0  0  0  0  0  0  0  0  0  0  0
  148.1771  133.8460  159.3277 O   0  0  0  0  0  0  0  0  0  0  0  0
  150.6809  140.5596  157.2077 C   0  0  0  0  0  0  0  0  0  0  0  0
  151.1219  140.5422  155.7453 C   0  0  0  0  0  0  0  0  0  0  0  0
  149.8734  140.3377  154.8790 C   0  0  0  0  0  0  0  0  0  0  0  0
  148.6717  140.6498  155.7748 C   0  0  0  0  0  0  0  0  0  0  0  0
  149.2582  141.1303  157.1035 C   0  0  0  0  0  0  0  0  0  0  0  0
  152.0607  144.5460  161.2321 H   0  0  0  0  0  0  0  0  0  0  0  0
  150.4751  143.9159  160.7888 H   0  0  0  0  0  0  0  0  0  0  0  0
  151.3411  144.9826  159.6832 H   0  0  0  0  0  0  0  0  0  0  0  0
  153.1152  143.2333  159.3812 H   0  0  0  0  0  0  0  0  0  0  0  0
  152.2613  142.1663  160.4920 H   0  0  0  0  0  0  0  0  0  0  0  0
  152.6963  141.0669  158.0004 H   0  0  0  0  0  0  0  0  0  0  0  0
  151.9566  139.7445  159.9104 H   0  0  0  0  0  0  0  0  0  0  0  0
  150.2783  140.4071  159.7977 H   0  0  0  0  0  0  0  0  0  0  0  0
  151.8003  138.7098  157.7119 H   0  0  0  0  0  0  0  0  0  0  0  0
  148.9455  138.5859  157.5593 H   0  0  0  0  0  0  0  0  0  0  0  0
  147.4781  137.3256  158.8192 H   0  0  0  0  0  0  0  0  0  0  0  0
  148.3308  135.9399  158.2097 H   0  0  0  0  0  0  0  0  0  0  0  0
  147.0903  136.6559  164.6117 H   0  0  0  0  0  0  0  0  0  0  0  0
  146.4364  137.8322  163.4737 H   0  0  0  0  0  0  0  0  0  0  0  0
  148.1645  137.8177  163.8365 H   0  0  0  0  0  0  0  0  0  0  0  0
  147.2169  134.3638  163.6746 H   0  0  0  0  0  0  0  0  0  0  0  0
  147.6105  132.9197  161.7582 H   0  0  0  0  0  0  0  0  0  0  0  0
  151.5906  141.4906  155.4829 H   0  0  0  0  0  0  0  0  0  0  0  0
  151.8633  139.7674  155.5477 H   0  0  0  0  0  0  0  0  0  0  0  0
  149.8978  140.9835  154.0007 H   0  0  0  0  0  0  0  0  0  0  0  0
  149.8169  139.3083  154.5238 H   0  0  0  0  0  0  0  0  0  0  0  0
  148.0132  141.3976  155.3321 H   0  0  0  0  0  0  0  0  0  0  0  0
  148.0808  139.7462  155.9284 H   0  0  0  0  0  0  0  0  0  0  0  0
  148.6216  140.8547  157.9446 H   0  0  0  0  0  0  0  0  0  0  0  0
  149.2903  142.2198  157.0911 H   0  0  0  0  0  0  0  0  0  0  0  0
  1  2  1  0  0  0  0
  1 24  1  0  0  0  0
  1 25  1  0  0  0  0
  1 26  1  0  0  0  0
  2  3  1  0  0  0  0
  2 27  1  0  0  0  0
  2 28  1  0  0  0  0
  3  4  1  0  0  0  0
  4 19  1  0  0  0  0
  4  5  1  0  0  0  0
  4 29  1  0  0  0  0
  5  6  1  0  0  0  0
  5 30  1  0  0  0  0
  5 31  1  0  0  0  0
  6  7  1  0  0  0  0
  6 19  1  0  0  0  0
  6 32  1  0  0  0  0
  7  8  1  0  0  0  0
  7 33  1  0  0  0  0
  8  9  2  0  0  0  0
  8 10  1  0  0  0  0
 10 11  1  0  0  0  0
 10 34  1  0  0  0  0
 10 35  1  0  0  0  0
 11 17  1  0  0  0  0
 11 12  1  0  0  0  0
 12 13  2  0  0  0  0
 13 14  1  0  0  0  0
 13 15  1  0  0  0  0
 14 36  1  0  0  0  0
 14 37  1  0  0  0  0
 14 38  1  0  0  0  0
 15 16  2  0  0  0  0
 15 39  1  0  0  0  0
 16 17  1  0  0  0  0
 16 40  1  0  0  0  0
 17 18  2  0  0  0  0
 19 23  1  0  0  0  0
 19 20  1  0  0  0  0
 20 21  1  0  0  0  0
 20 41  1  0  0  0  0
 20 42  1  0  0  0  0
 21 22  1  0  0  0  0
 21 43  1  0  0  0  0
 21 44  1  0  0  0  0
 22 23  1  0  0  0  0
 22 45  1  0  0  0  0
 22 46  1  0  0  0  0
 23 47  1  0  0  0  0
 23 48  1  0  0  0  0
M  END
> <s_m_source_file>
AV-unprocessed.smi

> <i_m_source_file_index>
716

> <i_lp_mmshare_version>
43012

> <i_f3d_flags>
0

> <s_epik_input>
W0NIMl0xW0NIMl1bQ0gyXVtDSDJdQzEyW0NASF0oT1tDSDJdW0NIM10pW0NIMl1bQ0BIXTJbTkhdQyg9TylbQ0gyXW4zbmMoW0NIM10pW2NIXVtjSF1jMz1P

> <s_epik_cmdline>
J2VwaWtfcHl0aG9uJywgJy1waCcsICc3LjAnLCAnLXRuJywgJzgnLCAnLW1hJywgJzIwMCcsICctbWV0YWxfYmluZGluZycsICctaW1hZScsICc8aW5maWxlLm1hZT4nLCAnLW9tYWUnLCAnPG91dGZpbGUubWFlPic=

> <r_lp_tautomer_probability>
1

> <r_epik_Ionization_Penalty>
4.75561e-08

> <r_epik_Ionization_Penalty_Charging>
2.86617e-08

> <r_epik_Ionization_Penalty_Neutral>
1.88944e-08

> <r_epik_State_Penalty>
-0

> <r_epik_Charging_Adjusted_Penalty>
2.86617e-08

> <i_epik_Tot_Q>
0

> <i_epik_Tot_abs_Q>
0

> <r_epik_Metal_State_Penalty>
-0

> <b_epik_Metal_Only>
0

> <s_lp_Force_Field>
OPLS_2005

> <r_lp_Energy>
50.2142

> <b_lp_Chiralities_Consistent>
1

> <s_lp_Variant>
AV-unprocessed.smi:716-2

> <Gold.Version>
5.8.1

> <Gold.Id.Protein>
6NUR|6NUR_protein|mol2

> <Gold.PLP.Fitness>
51.3367

> <Gold.PLP.PLP>
-45.0021

> <Gold.PLP.part.hbond>
-3.1371

> <Gold.PLP.part.metal>
0.0000

> <Gold.PLP.part.buried>
-2.0190

> <Gold.PLP.part.nonpolar>
-40.3131

> <Gold.PLP.part.repulsive>
0.1182

> <Gold.PLP.ligand.clash>
0.0000

> <Gold.PLP.ligand.torsion>
0.5575

> <Gold.PLP.Chemscore.Hbond>
2.3742

> <Gold.PLP.Chemscore.CHOScore>
0.0000

> <Gold.PLP.Chemscore.Metal>
0.0000

> <Gold.Chemscore.Hbonds>
donor molecule, donor type, donor heavy atom, donor atom, acceptor molecule, acceptor atom, score
      P1  H  6896  6908       L1     9  0.73
      P1  H  6931  6943       L1    12  1.00
      P1  H  6934  6947       L1    12  0.03

> <Gold.PLP.Chemscore.Internal.Correction>
0.3271

> <Gold.Rescore>
     Score         DG    S(hbond)    S(metal)    S(lipo)     H(rot)  DE(clash)    DE(int)     intcor
     17.55     -19.81       1.70        0.00     111.78       1.73       0.96       1.30       ----

> <Gold.Chemscore.Fitness>
17.5490

> <Gold.Chemscore.DG>
-19.8108

> <Gold.Chemscore.ZeroCoef>
-5.4800

> <Gold.Chemscore.Hbond>
1.7048

> <Gold.Chemscore.Metal>
0.0000

> <Gold.Chemscore.Lipo>
111.7784

> <Gold.Chemscore.Internal_Hbond>
0.0000

> <Gold.Chemscore.DEClash>
0.9576

> <Gold.Chemscore.DEInternal>
1.3043

> <Gold.Chemscore.Rot>
1.7348

> <Gold.Chemscore.Internal.Correction>
   9.000000E+99

> <Gold.Chemscore.Hbonds>
donor molecule, donor type, donor heavy atom, donor atom, acceptor molecule, acceptor atom, score
      P1  H  6896  6908       L1     9  0.72
      P1  H  6931  6943       L1    12  0.28
      P1  H  6934  6947       L1    12  0.07

> <Gold.Chemscore.Hbond.Weighted>
-5.6939

> <Gold.Chemscore.Metal.Weighted>
-0.0000

> <Gold.Chemscore.Lipo.Weighted>
-13.0781

> <Gold.Chemscore.Internal_Hbond.Weighted>
0.0000

> <Gold.Chemscore.DEClash.Weighted>
0.9576

> <Gold.Chemscore.DEInternal.Weighted>
1.3043

> <Gold.Chemscore.Rot.Weighted>
4.4411

> <Gold.Chemscore.Internal.Correction.Weighted>
   9.000000E+99

> <Gold.Protein.RotatedTorsions>
[ 6907 6896 6895 6894 ] final -134.40 input  -60.11 | X-H torsion
[ 7974 7965 7964 7962 ] final -144.64 input  175.53 | X-H torsion
[ 8008 7997 7996 7995 ] final   63.09 input   59.86 | X-H torsion
[ 10167 10162 10161 10158 ] final  -55.78 input  -65.29 | X-H torsion
[ 10718 10713 10712 10709 ] final  -62.94 input   66.30 | X-H torsion
[ 10763 10752 10751 10750 ] final    5.48 input  -60.55 | X-H torsion
[ 11005 11000 10999 10996 ] final  177.18 input  -57.11 | X-H torsion

> <Gold.Protein.ActiveResidues>
 VAL166  LYS551  ARG553  GLY616  TRP617  ASP618  TYR619  PRO620  LYS621  CYS622 
 ASP623  PHE694  ASN695  SER759  ASP760  ASP761  ALA762  ILE779  LEU786  VAL792 
 PHE793  MET794  SER795  GLU796  ALA797  LYS798  CYS799  TRP800  GLU811  SER814 

> <Gold.Protein.RotatedAtoms>
  150.9854  133.6203  159.2715 H   0  0  0  0  0  0  0  0  0  0  0  0  # atno 6907 bound_to 6896
  151.3442  135.0869  159.9391 H   0  0  0  0  0  0  0  0  0  0  0  0  # atno 6908 bound_to 6896
  152.5229  133.9459  159.7703 H   0  0  0  0  0  0  0  0  0  0  0  0  # atno 6909 bound_to 6896
  144.8283  140.5684  143.5532 H   0  0  0  0  0  0  0  0  0  0  0  0  # atno 7974 bound_to 7965
  155.6247  140.3496  155.4663 H   0  0  0  0  0  0  0  0  0  0  0  0  # atno 8008 bound_to 7997
  156.0051  140.1221  157.0533 H   0  0  0  0  0  0  0  0  0  0  0  0  # atno 8009 bound_to 7997
  154.4262  140.1092  156.5737 H   0  0  0  0  0  0  0  0  0  0  0  0  # atno 8010 bound_to 7997
  140.6355  143.2480  151.5130 H   0  0  0  0  0  0  0  0  0  0  0  0  # atno 10167 bound_to 10162
  156.0823  130.4215  150.1206 H   0  0  0  0  0  0  0  0  0  0  0  0  # atno 10718 bound_to 10713
  153.2589  135.6921  153.7599 H   0  0  0  0  0  0  0  0  0  0  0  0  # atno 10763 bound_to 10752
  153.6665  135.3351  155.3142 H   0  0  0  0  0  0  0  0  0  0  0  0  # atno 10764 bound_to 10752
  154.8423  135.4489  154.1573 H   0  0  0  0  0  0  0  0  0  0  0  0  # atno 10765 bound_to 10752
  140.3813  134.6944  157.4452 H   0  0  0  0  0  0  0  0  0  0  0  0  # atno 11005 bound_to 11000
  145.4952  139.1486  143.3688 LP  0  0  0  0  0  0  0  0  0  0  0  0  # atno 17320 bound_to 7965
  146.2587  140.5091  142.8862 LP  0  0  0  0  0  0  0  0  0  0  0  0  # atno 17321 bound_to 7965
  139.5566  144.2261  152.1621 LP  0  0  0  0  0  0  0  0  0  0  0  0  # atno 17342 bound_to 10162
  140.1517  144.5109  150.6684 LP  0  0  0  0  0  0  0  0  0  0  0  0  # atno 17343 bound_to 10162
  156.9235  130.9690  151.3545 LP  0  0  0  0  0  0  0  0  0  0  0  0  # atno 17370 bound_to 10713
  157.5944  130.8467  149.8707 LP  0  0  0  0  0  0  0  0  0  0  0  0  # atno 17371 bound_to 10713
  140.0476  134.6176  155.8901 LP  0  0  0  0  0  0  0  0  0  0  0  0  # atno 17394 bound_to 11000
  141.1922  133.6574  156.5493 LP  0  0  0  0  0  0  0  0  0  0  0  0  # atno 17395 bound_to 11000

$$$$
