AV-unprocessed.smi:1576|AV-procd|sdf|6345|dock1
  -GOLD-   22720 6563D 1   1.00000     0.00000
 Structure written by MMmdl.
 46 48  0  0  0  0  0  0  0  0  2 V2000
  150.8003  136.4607  156.7774 O   0  0  0  0  0  0  0  0  0  0  0  0
  150.6187  136.8004  155.6085 C   0  0  0  0  0  0  0  0  0  0  0  0
  150.6122  138.0676  155.1599 N   0  0  0  0  0  0  0  0  0  0  0  0
  150.7692  139.2693  155.9021 C   0  0  0  0  0  0  0  0  0  0  0  0
  150.7110  140.5661  155.3362 C   0  0  0  0  0  0  0  0  0  0  0  0
  150.8967  141.6951  156.1606 C   0  0  0  0  0  0  0  0  0  0  0  0
  151.1465  141.5293  157.5465 C   0  0  0  0  0  0  0  0  0  0  0  0
  151.3497  142.6008  158.4460 N   0  0  0  0  0  0  0  0  0  0  0  0
  151.3406  143.9474  157.8644 C   0  0  0  0  0  0  0  0  0  0  0  0
  151.1463  145.0269  158.9426 C   0  0  0  0  0  0  0  0  0  0  0  0
  152.1753  144.8740  160.0706 C   0  0  0  0  0  0  0  0  0  0  0  0
  152.0989  143.4570  160.6540 C   0  0  0  0  0  0  0  0  0  0  0  0
  152.2796  142.3924  159.5583 C   0  0  0  0  0  0  0  0  0  0  0  0
  151.2071  140.2657  158.0331 N   0  3  0  0  0  0  0  0  0  0  0  0
  151.0366  139.1576  157.2810 C   0  0  0  0  0  0  0  0  0  0  0  0
  150.4172  135.9298  154.6095 N   0  0  0  0  0  0  0  0  0  0  0  0
  150.3778  134.4781  154.7596 C   0  0  2  0  0  0  0  0  0  0  0  0
  148.9948  134.0070  155.2461 C   0  0  0  0  0  0  0  0  0  0  0  0
  149.1110  132.5541  155.7226 C   0  0  0  0  0  0  0  0  0  0  0  0
  150.8104  132.3719  156.3848 S   0  0  0  0  0  0  0  0  0  0  0  0
  150.7728  132.4078  157.8545 O   0  0  0  0  0  0  0  0  0  0  0  0
  151.4860  131.2782  155.6707 O   0  0  0  0  0  0  0  0  0  0  0  0
  151.4292  133.9816  155.7651 C   0  0  0  0  0  0  0  0  0  0  0  0
  150.5346  138.1831  154.1599 H   0  0  0  0  0  0  0  0  0  0  0  0
  150.5396  140.7215  154.2824 H   0  0  0  0  0  0  0  0  0  0  0  0
  150.8364  142.6726  155.7069 H   0  0  0  0  0  0  0  0  0  0  0  0
  152.2868  144.1069  157.3457 H   0  0  0  0  0  0  0  0  0  0  0  0
  150.5522  144.0612  157.1208 H   0  0  0  0  0  0  0  0  0  0  0  0
  151.2265  146.0180  158.4952 H   0  0  0  0  0  0  0  0  0  0  0  0
  150.1389  144.9542  159.3549 H   0  0  0  0  0  0  0  0  0  0  0  0
  153.1783  145.0632  159.6862 H   0  0  0  0  0  0  0  0  0  0  0  0
  151.9928  145.6135  160.8508 H   0  0  0  0  0  0  0  0  0  0  0  0
  152.8574  143.3286  161.4266 H   0  0  0  0  0  0  0  0  0  0  0  0
  151.1337  143.3170  161.1427 H   0  0  0  0  0  0  0  0  0  0  0  0
  152.1192  141.4119  160.0073 H   0  0  0  0  0  0  0  0  0  0  0  0
  153.3016  142.4148  159.1781 H   0  0  0  0  0  0  0  0  0  0  0  0
  151.1145  138.2177  157.8087 H   0  0  0  0  0  0  0  0  0  0  0  0
  150.2827  136.2940  153.6775 H   0  0  0  0  0  0  0  0  0  0  0  0
  150.5683  134.0049  153.7942 H   0  0  0  0  0  0  0  0  0  0  0  0
  148.6806  134.6244  156.0889 H   0  0  0  0  0  0  0  0  0  0  0  0
  148.2339  134.1138  154.4723 H   0  0  0  0  0  0  0  0  0  0  0  0
  148.3778  132.2951  156.4864 H   0  0  0  0  0  0  0  0  0  0  0  0
  149.0013  131.8636  154.8861 H   0  0  0  0  0  0  0  0  0  0  0  0
  152.4177  133.8581  155.3222 H   0  0  0  0  0  0  0  0  0  0  0  0
  151.5120  134.6554  156.6185 H   0  0  0  0  0  0  0  0  0  0  0  0
  151.3963  140.1438  159.0282 H   0  0  0  0  0  0  0  0  0  0  0  0
  1  2  2  0  0  0  0
  2  3  1  0  0  0  0
  2 16  1  0  0  0  0
  3  4  1  0  0  0  0
  3 24  1  0  0  0  0
  4 15  1  0  0  0  0
  4  5  2  0  0  0  0
  5  6  1  0  0  0  0
  5 25  1  0  0  0  0
  6  7  2  0  0  0  0
  6 26  1  0  0  0  0
  7  8  1  0  0  0  0
  7 14  1  0  0  0  0
  8 13  1  0  0  0  0
  8  9  1  0  0  0  0
  9 10  1  0  0  0  0
  9 27  1  0  0  0  0
  9 28  1  0  0  0  0
 10 11  1  0  0  0  0
 10 29  1  0  0  0  0
 10 30  1  0  0  0  0
 11 12  1  0  0  0  0
 11 31  1  0  0  0  0
 11 32  1  0  0  0  0
 12 13  1  0  0  0  0
 12 33  1  0  0  0  0
 12 34  1  0  0  0  0
 13 35  1  0  0  0  0
 13 36  1  0  0  0  0
 14 15  2  0  0  0  0
 14 46  1  0  0  0  0
 15 37  1  0  0  0  0
 16 17  1  0  0  0  0
 16 38  1  0  0  0  0
 17 23  1  0  0  0  0
 17 18  1  0  0  0  0
 17 39  1  0  0  0  0
 18 19  1  0  0  0  0
 18 40  1  0  0  0  0
 18 41  1  0  0  0  0
 19 20  1  0  0  0  0
 19 42  1  0  0  0  0
 19 43  1  0  0  0  0
 20 21  2  0  0  0  0
 20 22  2  0  0  0  0
 20 23  1  0  0  0  0
 23 44  1  0  0  0  0
 23 45  1  0  0  0  0
M  CHG  1  14   1
M  END
> <s_m_source_file>
AV-unprocessed.smi

> <i_m_source_file_index>
1576

> <i_lp_mmshare_version>
43012

> <i_f3d_flags>
0

> <s_epik_input>
Tz1TMSg9TylbQ0gyXVtDSDJdW0NASF0oW0NIMl0xKVtOSF1DKD1PKVtOSF1jMltjSF1bY0hdYyhuW2NIXTIpTjNbQ0gyXVtDSDJdW0NIMl1bQ0gyXVtDSDJdMw==

> <s_epik_cmdline>
J2VwaWtfcHl0aG9uJywgJy1waCcsICc3LjAnLCAnLXRuJywgJzgnLCAnLW1hJywgJzIwMCcsICctbWV0YWxfYmluZGluZycsICctaW1hZScsICc8aW5maWxlLm1hZT4nLCAnLW9tYWUnLCAnPG91dGZpbGUubWFlPic=

> <r_lp_tautomer_probability>
0.999994

> <r_epik_Ionization_Penalty>
1.19724

> <r_epik_Ionization_Penalty_Charging>
1.19722

> <r_epik_Ionization_Penalty_Neutral>
2.11505e-05

> <r_epik_State_Penalty>
1.26251

> <r_epik_Charging_Adjusted_Penalty>
2.45973

> <i_epik_Tot_Q>
1

> <i_epik_Tot_abs_Q>
1

> <r_epik_Metal_State_Penalty>
1.33857

> <b_epik_Metal_Only>
0

> <s_lp_Force_Field>
OPLS_2005

> <r_lp_Energy>
26.9885

> <b_lp_Chiralities_Consistent>
1

> <s_lp_Variant>
AV-unprocessed.smi:1576-3

> <Gold.Version>
5.8.1

> <Gold.Id.Protein>
6NUR|6NUR_protein|mol2

> <Gold.PLP.Fitness>
41.9213

> <Gold.PLP.PLP>
-36.8210

> <Gold.PLP.part.hbond>
-2.0000

> <Gold.PLP.part.metal>
0.0000

> <Gold.PLP.part.buried>
-5.4749

> <Gold.PLP.part.nonpolar>
-30.1386

> <Gold.PLP.part.repulsive>
0.2509

> <Gold.PLP.ligand.clash>
0.0000

> <Gold.PLP.ligand.torsion>
0.6767

> <Gold.PLP.Chemscore.Hbond>
1.9760

> <Gold.PLP.Chemscore.CHOScore>
0.0000

> <Gold.PLP.Chemscore.Metal>
0.0000

> <Gold.Chemscore.Hbonds>
donor molecule, donor type, donor heavy atom, donor atom, acceptor molecule, acceptor atom, score
      L1  H    16    38       P1  7948  0.26
      P1  H  6896  6908       L1    21  1.00

> <Gold.PLP.Chemscore.Internal.Correction>
0.5258

> <Gold.Rescore>
     Score         DG    S(hbond)    S(metal)    S(lipo)     H(rot)  DE(clash)    DE(int)     intcor
     16.50     -20.06       1.90        0.00      97.54       1.25       0.01       3.55       ----

> <Gold.Chemscore.Fitness>
16.4990

> <Gold.Chemscore.DG>
-20.0593

> <Gold.Chemscore.ZeroCoef>
-5.4800

> <Gold.Chemscore.Hbond>
1.9044

> <Gold.Chemscore.Metal>
0.0000

> <Gold.Chemscore.Lipo>
97.5363

> <Gold.Chemscore.Internal_Hbond>
0.0000

> <Gold.Chemscore.DEClash>
0.0127

> <Gold.Chemscore.DEInternal>
3.5476

> <Gold.Chemscore.Rot>
1.2473

> <Gold.Chemscore.Internal.Correction>
   9.000000E+99

> <Gold.Chemscore.Hbonds>
donor molecule, donor type, donor heavy atom, donor atom, acceptor molecule, acceptor atom, score
      L1  H    16    38       P1  7948  0.01
      P1  H  6896  6908       L1    21  1.00

> <Gold.Chemscore.Hbond.Weighted>
-6.3607

> <Gold.Chemscore.Metal.Weighted>
-0.0000

> <Gold.Chemscore.Lipo.Weighted>
-11.4117

> <Gold.Chemscore.Internal_Hbond.Weighted>
0.0000

> <Gold.Chemscore.DEClash.Weighted>
0.0127

> <Gold.Chemscore.DEInternal.Weighted>
3.5476

> <Gold.Chemscore.Rot.Weighted>
3.1931

> <Gold.Chemscore.Internal.Correction.Weighted>
   9.000000E+99

> <Gold.Protein.RotatedTorsions>
[ 6907 6896 6895 6894 ] final   90.97 input  -60.11 | X-H torsion
[ 7974 7965 7964 7962 ] final   77.46 input  175.53 | X-H torsion
[ 8008 7997 7996 7995 ] final   99.24 input   59.86 | X-H torsion
[ 10167 10162 10161 10158 ] final  100.43 input  -65.29 | X-H torsion
[ 10718 10713 10712 10709 ] final  -70.68 input   66.30 | X-H torsion
[ 10763 10752 10751 10750 ] final -103.05 input  -60.55 | X-H torsion
[ 11005 11000 10999 10996 ] final   20.18 input  -57.11 | X-H torsion

> <Gold.Protein.ActiveResidues>
 VAL166  LYS551  ARG553  GLY616  TRP617  ASP618  TYR619  PRO620  LYS621  CYS622 
 ASP623  PHE694  ASN695  SER759  ASP760  ASP761  ALA762  ILE779  LEU786  VAL792 
 PHE793  MET794  SER795  GLU796  ALA797  LYS798  CYS799  TRP800  GLU811  SER814 

> <Gold.Protein.RotatedAtoms>
  152.5447  134.1730  159.8604 H   0  0  0  0  0  0  0  0  0  0  0  0  # atno 6907 bound_to 6896
  151.1738  133.4760  159.2601 H   0  0  0  0  0  0  0  0  0  0  0  0  # atno 6908 bound_to 6896
  151.1248  135.0110  159.8610 H   0  0  0  0  0  0  0  0  0  0  0  0  # atno 6909 bound_to 6896
  145.6897  139.2549  143.1766 H   0  0  0  0  0  0  0  0  0  0  0  0  # atno 7974 bound_to 7965
  156.1086  140.3231  155.8040 H   0  0  0  0  0  0  0  0  0  0  0  0  # atno 8008 bound_to 7997
  155.4713  140.0547  157.2996 H   0  0  0  0  0  0  0  0  0  0  0  0  # atno 8009 bound_to 7997
  154.4744  140.2026  155.9929 H   0  0  0  0  0  0  0  0  0  0  0  0  # atno 8010 bound_to 7997
  139.7527  144.6979  151.0407 H   0  0  0  0  0  0  0  0  0  0  0  0  # atno 10167 bound_to 10162
  156.0396  130.4336  150.2332 H   0  0  0  0  0  0  0  0  0  0  0  0  # atno 10718 bound_to 10713
  154.7779  135.4838  153.9782 H   0  0  0  0  0  0  0  0  0  0  0  0  # atno 10763 bound_to 10752
  153.1453  135.6781  153.8971 H   0  0  0  0  0  0  0  0  0  0  0  0  # atno 10764 bound_to 10752
  153.8632  135.3152  155.3417 H   0  0  0  0  0  0  0  0  0  0  0  0  # atno 10765 bound_to 10752
  140.4054  134.1674  155.7665 H   0  0  0  0  0  0  0  0  0  0  0  0  # atno 11005 bound_to 11000
  146.0892  140.7675  142.9603 LP  0  0  0  0  0  0  0  0  0  0  0  0  # atno 17320 bound_to 7965
  144.7000  140.3610  143.7164 LP  0  0  0  0  0  0  0  0  0  0  0  0  # atno 17321 bound_to 7965
  140.7799  143.4789  151.0045 LP  0  0  0  0  0  0  0  0  0  0  0  0  # atno 17342 bound_to 10162
  139.8476  143.7480  152.3179 LP  0  0  0  0  0  0  0  0  0  0  0  0  # atno 17343 bound_to 10162
  157.0428  131.0040  151.3278 LP  0  0  0  0  0  0  0  0  0  0  0  0  # atno 17370 bound_to 10713
  157.5197  130.7990  149.7795 LP  0  0  0  0  0  0  0  0  0  0  0  0  # atno 17371 bound_to 10713
  141.1841  133.8351  157.1152 LP  0  0  0  0  0  0  0  0  0  0  0  0  # atno 17394 bound_to 11000
  140.0305  134.9903  157.0772 LP  0  0  0  0  0  0  0  0  0  0  0  0  # atno 17395 bound_to 11000

$$$$
