AV-unprocessed.smi:1224|AV-procd|sdf|5128|dock5
  -GOLD-   22720 4183D 1   1.00000     0.00000
 Structure written by MMmdl.
 44 46  0  0  0  0  0  0  0  0  2 V2000
  152.7949  143.2572  161.4653 C   0  0  0  0  0  0  0  0  0  0  0  0
  152.2577  142.8057  160.1188 C   0  0  0  0  0  0  0  0  0  0  0  0
  152.2819  141.4302  159.7957 C   0  0  0  0  0  0  0  0  0  0  0  0
  151.7858  140.9685  158.5570 C   0  0  0  0  0  0  0  0  0  0  0  0
  151.7089  139.6867  158.0400 N   0  0  0  0  0  0  0  0  0  0  0  0
  151.1475  139.9079  156.8552 C   0  0  0  0  0  0  0  0  0  0  0  0
  150.8442  141.1836  156.5458 N   0  0  0  0  0  0  0  0  0  0  0  0
  150.2190  141.6669  155.3277 C   0  0  0  0  0  0  0  0  0  0  0  0
  149.3109  140.6060  154.6759 C   0  0  2  0  0  0  0  0  0  0  0  0
  150.0966  139.7513  153.8667 O   0  0  0  0  0  0  0  0  0  0  0  0
  148.2184  141.2400  153.8009 C   0  0  0  0  0  0  0  0  0  0  0  0
  147.4928  142.2960  154.5389 N   0  3  0  0  0  0  0  0  0  0  0  0
  146.3467  142.8876  153.8187 C   0  0  0  0  0  0  0  0  0  0  0  0
  145.3812  143.5578  154.7418 C   0  0  0  0  0  0  0  0  0  0  0  0
  144.3549  144.4071  154.4132 C   0  0  0  0  0  0  0  0  0  0  0  0
  143.6133  144.8541  155.5460 C   0  0  0  0  0  0  0  0  0  0  0  0
  144.0836  144.3399  156.7250 C   0  0  0  0  0  0  0  0  0  0  0  0
  145.4526  143.2944  156.4665 S   0  0  0  0  0  0  0  0  0  0  0  0
  151.2590  141.9284  157.6442 C   0  0  0  0  0  0  0  0  0  0  0  0
  151.2344  143.3002  157.9515 C   0  0  0  0  0  0  0  0  0  0  0  0
  151.7346  143.7443  159.1932 C   0  0  0  0  0  0  0  0  0  0  0  0
  151.7018  145.2275  159.5172 C   0  0  0  0  0  0  0  0  0  0  0  0
  153.1998  142.4193  162.0336 H   0  0  0  0  0  0  0  0  0  0  0  0
  152.0012  143.7119  162.0584 H   0  0  0  0  0  0  0  0  0  0  0  0
  153.5927  143.9886  161.3353 H   0  0  0  0  0  0  0  0  0  0  0  0
  152.6811  140.7153  160.5002 H   0  0  0  0  0  0  0  0  0  0  0  0
  150.9361  139.0947  156.1761 H   0  0  0  0  0  0  0  0  0  0  0  0
  149.6427  142.5598  155.5734 H   0  0  0  0  0  0  0  0  0  0  0  0
  151.0004  141.9802  154.6335 H   0  0  0  0  0  0  0  0  0  0  0  0
  148.8459  140.0046  155.4585 H   0  0  0  0  0  0  0  0  0  0  0  0
  149.6929  139.6901  153.0136 H   0  0  0  0  0  0  0  0  0  0  0  0
  148.6669  141.6882  152.9132 H   0  0  0  0  0  0  0  0  0  0  0  0
  147.5260  140.4715  153.4545 H   0  0  0  0  0  0  0  0  0  0  0  0
  147.1554  141.9023  155.4061 H   0  0  0  0  0  0  0  0  0  0  0  0
  146.7324  143.6176  153.1068 H   0  0  0  0  0  0  0  0  0  0  0  0
  145.8458  142.1163  153.2321 H   0  0  0  0  0  0  0  0  0  0  0  0
  144.1103  144.7189  153.4085 H   0  0  0  0  0  0  0  0  0  0  0  0
  142.7730  145.5270  155.4578 H   0  0  0  0  0  0  0  0  0  0  0  0
  143.7117  144.5109  157.7249 H   0  0  0  0  0  0  0  0  0  0  0  0
  150.8327  144.0043  157.2382 H   0  0  0  0  0  0  0  0  0  0  0  0
  151.2556  145.8028  158.7055 H   0  0  0  0  0  0  0  0  0  0  0  0
  152.7117  145.6050  159.6785 H   0  0  0  0  0  0  0  0  0  0  0  0
  151.1155  145.4094  160.4181 H   0  0  0  0  0  0  0  0  0  0  0  0
  148.1482  143.0333  154.7552 H   0  0  0  0  0  0  0  0  0  0  0  0
  1  2  1  0  0  0  0
  1 23  1  0  0  0  0
  1 24  1  0  0  0  0
  1 25  1  0  0  0  0
  2 21  1  0  0  0  0
  2  3  2  0  0  0  0
  3  4  1  0  0  0  0
  3 26  1  0  0  0  0
  4 19  2  0  0  0  0
  4  5  1  0  0  0  0
  5  6  2  0  0  0  0
  6  7  1  0  0  0  0
  6 27  1  0  0  0  0
  7  8  1  0  0  0  0
  7 19  1  0  0  0  0
  8  9  1  0  0  0  0
  8 28  1  0  0  0  0
  8 29  1  0  0  0  0
  9 10  1  0  0  0  0
  9 11  1  0  0  0  0
  9 30  1  0  0  0  0
 10 31  1  0  0  0  0
 11 12  1  0  0  0  0
 11 32  1  0  0  0  0
 11 33  1  0  0  0  0
 12 13  1  0  0  0  0
 12 34  1  0  0  0  0
 12 44  1  0  0  0  0
 13 14  1  0  0  0  0
 13 35  1  0  0  0  0
 13 36  1  0  0  0  0
 14 18  1  0  0  0  0
 14 15  2  0  0  0  0
 15 16  1  0  0  0  0
 15 37  1  0  0  0  0
 16 17  2  0  0  0  0
 16 38  1  0  0  0  0
 17 18  1  0  0  0  0
 17 39  1  0  0  0  0
 19 20  1  0  0  0  0
 20 21  2  0  0  0  0
 20 40  1  0  0  0  0
 21 22  1  0  0  0  0
 22 41  1  0  0  0  0
 22 42  1  0  0  0  0
 22 43  1  0  0  0  0
M  CHG  1  12   1
M  END
> <s_m_source_file>
AV-unprocessed.smi

> <i_m_source_file_index>
1224

> <i_lp_mmshare_version>
43012

> <i_f3d_flags>
0

> <s_epik_input>
W0NIM11jKFtjSF0xKWMoW0NIM10pW2NIXWMoYzEyKW4oW2NIXW4yKVtDSDJdW0NASF0oW09IXSlbQ0gyXVtOSF1bQ0gyXWMzW2NIXVtjSF1bY0hdczM=

> <s_epik_cmdline>
J2VwaWtfcHl0aG9uJywgJy1waCcsICc3LjAnLCAnLXRuJywgJzgnLCAnLW1hJywgJzIwMCcsICctbWV0YWxfYmluZGluZycsICctaW1hZScsICc8aW5maWxlLm1hZT4nLCAnLW9tYWUnLCAnPG91dGZpbGUubWFlPic=

> <r_epik_Ionization_Penalty>
0.145091

> <r_epik_Ionization_Penalty_Charging>
0.0551904

> <r_epik_Ionization_Penalty_Neutral>
0.0899003

> <r_epik_State_Penalty>
0.131364

> <r_epik_Charging_Adjusted_Penalty>
0.186554

> <i_epik_Tot_Q>
1

> <i_epik_Tot_abs_Q>
1

> <r_epik_Metal_State_Penalty>
0.0472291

> <b_epik_Metal_Only>
0

> <s_lp_Force_Field>
OPLS_2005

> <r_lp_Energy>
7.24279

> <b_lp_Chiralities_Consistent>
1

> <s_lp_Variant>
AV-unprocessed.smi:1224-1

> <Gold.Version>
5.8.1

> <Gold.Id.Protein>
6NUR|6NUR_protein|mol2

> <Gold.PLP.Fitness>
61.9536

> <Gold.PLP.PLP>
-51.9022

> <Gold.PLP.part.hbond>
-3.0000

> <Gold.PLP.part.metal>
0.0000

> <Gold.PLP.part.buried>
-6.4471

> <Gold.PLP.part.nonpolar>
-41.2629

> <Gold.PLP.part.repulsive>
0.1426

> <Gold.PLP.ligand.clash>
0.0000

> <Gold.PLP.ligand.torsion>
0.9434

> <Gold.PLP.Chemscore.Hbond>
3.9440

> <Gold.PLP.Chemscore.CHOScore>
0.0000

> <Gold.PLP.Chemscore.Metal>
0.0000

> <Gold.Chemscore.Hbonds>
donor molecule, donor type, donor heavy atom, donor atom, acceptor molecule, acceptor atom, score
      L1  H    10    31       P1  7957  1.00
      L1  H    12    44       P1  8028  2.00
      P1  H  7989  7998       L1    10  0.93

> <Gold.PLP.Chemscore.Internal.Correction>
0.1061

> <Gold.Rescore>
     Score         DG    S(hbond)    S(metal)    S(lipo)     H(rot)  DE(clash)    DE(int)     intcor
     20.58     -21.66       2.00        0.00     134.16       2.42       0.27       0.80       ----

> <Gold.Chemscore.Fitness>
20.5844

> <Gold.Chemscore.DG>
-21.6558

> <Gold.Chemscore.ZeroCoef>
-5.4800

> <Gold.Chemscore.Hbond>
2.0013

> <Gold.Chemscore.Metal>
0.0000

> <Gold.Chemscore.Lipo>
134.1623

> <Gold.Chemscore.Internal_Hbond>
0.0000

> <Gold.Chemscore.DEClash>
0.2700

> <Gold.Chemscore.DEInternal>
0.8014

> <Gold.Chemscore.Rot>
2.4240

> <Gold.Chemscore.Internal.Correction>
   9.000000E+99

> <Gold.Chemscore.Hbonds>
donor molecule, donor type, donor heavy atom, donor atom, acceptor molecule, acceptor atom, score
      L1  H    10    31       P1  7957  0.97
      L1  H    12    44       P1  8028  0.92
      P1  H  7989  7998       L1    10  0.09

> <Gold.Chemscore.Hbond.Weighted>
-6.6843

> <Gold.Chemscore.Metal.Weighted>
-0.0000

> <Gold.Chemscore.Lipo.Weighted>
-15.6970

> <Gold.Chemscore.Internal_Hbond.Weighted>
0.0000

> <Gold.Chemscore.DEClash.Weighted>
0.2700

> <Gold.Chemscore.DEInternal.Weighted>
0.8014

> <Gold.Chemscore.Rot.Weighted>
6.2055

> <Gold.Chemscore.Internal.Correction.Weighted>
   9.000000E+99

> <Gold.Protein.RotatedTorsions>
[ 6907 6896 6895 6894 ] final -110.38 input  -60.11 | X-H torsion
[ 7974 7965 7964 7962 ] final  149.62 input  175.53 | X-H torsion
[ 8008 7997 7996 7995 ] final   73.33 input   59.86 | X-H torsion
[ 10167 10162 10161 10158 ] final  -57.62 input  -65.29 | X-H torsion
[ 10718 10713 10712 10709 ] final   86.20 input   66.30 | X-H torsion
[ 10763 10752 10751 10750 ] final   29.11 input  -60.55 | X-H torsion
[ 11005 11000 10999 10996 ] final  -89.00 input  -57.11 | X-H torsion

> <Gold.Protein.ActiveResidues>
 VAL166  LYS551  ARG553  GLY616  TRP617  ASP618  TYR619  PRO620  LYS621  CYS622 
 ASP623  PHE694  ASN695  SER759  ASP760  ASP761  ALA762  ILE779  LEU786  VAL792 
 PHE793  MET794  SER795  GLU796  ALA797  LYS798  CYS799  TRP800  GLU811  SER814 

> <Gold.Protein.RotatedAtoms>
  150.7621  133.9390  159.3449 H   0  0  0  0  0  0  0  0  0  0  0  0  # atno 6907 bound_to 6896
  151.7296  135.0875  160.0307 H   0  0  0  0  0  0  0  0  0  0  0  0  # atno 6908 bound_to 6896
  152.3598  133.6245  159.6042 H   0  0  0  0  0  0  0  0  0  0  0  0  # atno 6909 bound_to 6896
  144.8425  139.6303  143.6010 H   0  0  0  0  0  0  0  0  0  0  0  0  # atno 7974 bound_to 7965
  155.7820  140.3481  155.5303 H   0  0  0  0  0  0  0  0  0  0  0  0  # atno 8008 bound_to 7997
  155.8719  140.0988  157.1565 H   0  0  0  0  0  0  0  0  0  0  0  0  # atno 8009 bound_to 7997
  154.4018  140.1339  156.4076 H   0  0  0  0  0  0  0  0  0  0  0  0  # atno 8010 bound_to 7997
  140.6247  143.2433  151.5393 H   0  0  0  0  0  0  0  0  0  0  0  0  # atno 10167 bound_to 10162
  157.6925  131.0206  150.2938 H   0  0  0  0  0  0  0  0  0  0  0  0  # atno 10718 bound_to 10713
  153.0450  135.6497  154.0840 H   0  0  0  0  0  0  0  0  0  0  0  0  # atno 10763 bound_to 10752
  154.0539  135.2893  155.3337 H   0  0  0  0  0  0  0  0  0  0  0  0  # atno 10764 bound_to 10752
  154.6702  135.5359  153.8193 H   0  0  0  0  0  0  0  0  0  0  0  0  # atno 10765 bound_to 10752
  141.1592  133.7603  156.9531 H   0  0  0  0  0  0  0  0  0  0  0  0  # atno 11005 bound_to 11000
  146.2715  139.6647  142.9293 LP  0  0  0  0  0  0  0  0  0  0  0  0  # atno 17320 bound_to 7965
  145.4665  141.0435  143.2722 LP  0  0  0  0  0  0  0  0  0  0  0  0  # atno 17321 bound_to 7965
  139.5469  144.2497  152.1459 LP  0  0  0  0  0  0  0  0  0  0  0  0  # atno 17342 bound_to 10162
  140.1725  144.4922  150.6571 LP  0  0  0  0  0  0  0  0  0  0  0  0  # atno 17343 bound_to 10162
  156.3464  130.3824  149.7365 LP  0  0  0  0  0  0  0  0  0  0  0  0  # atno 17370 bound_to 10713
  156.4857  130.8062  151.3074 LP  0  0  0  0  0  0  0  0  0  0  0  0  # atno 17371 bound_to 10713
  140.1243  134.9397  157.2248 LP  0  0  0  0  0  0  0  0  0  0  0  0  # atno 17394 bound_to 11000
  140.3032  134.3108  155.7284 LP  0  0  0  0  0  0  0  0  0  0  0  0  # atno 17395 bound_to 11000

$$$$
