AV-unprocessed.smi:2647|AV-procd|sdf|10283|dock3
  -GOLD-   2272014293D 1   1.00000     0.00000
 Structure written by MMmdl.
 32 33  0  0  0  0  0  0  0  0  1 V2000
  144.9433  137.6513  152.6692 O   0  0  0  0  0  0  0  0  0  0  0  0
  146.0767  137.3182  152.3217 C   0  0  0  0  0  0  0  0  0  0  0  0
  147.1598  138.0883  152.4981 N   0  0  0  0  0  0  0  0  0  0  0  0
  147.1570  139.4072  153.1227 C   0  0  0  0  0  0  0  0  0  0  0  0
  148.3071  139.5809  154.1301 C   0  0  0  0  0  0  0  0  0  0  0  0
  148.4953  141.0337  154.6066 C   0  0  0  0  0  0  0  0  0  0  0  0
  149.4608  141.1121  155.7070 N   0  0  0  0  0  0  0  0  0  0  0  0
  149.2005  141.6727  156.8965 C   0  0  0  0  0  0  0  0  0  0  0  0
  148.1444  142.2061  157.2351 O   0  0  0  0  0  0  0  0  0  0  0  0
  150.4020  141.5655  157.8259 C   0  0  0  0  0  0  0  0  0  0  0  0
  151.4359  140.8254  156.9710 C   0  0  0  0  0  0  0  0  0  0  0  0
  150.6987  140.5997  155.6577 C   0  0  0  0  0  0  0  0  0  0  0  0
  151.2077  140.0137  154.7026 O   0  0  0  0  0  0  0  0  0  0  0  0
  146.3987  136.1557  151.7277 N   0  0  0  0  0  0  0  0  0  0  0  0
  145.5386  135.0886  151.3567 C   0  0  0  0  0  0  0  0  0  0  0  0
  145.9755  133.8899  150.9395 N   0  0  0  0  0  0  0  0  0  0  0  0
  144.9268  133.0280  150.6453 N   0  0  0  0  0  0  0  0  0  0  0  0
  143.7419  133.6098  150.8512 C   0  0  0  0  0  0  0  0  0  0  0  0
  143.7912  135.2677  151.4255 S   0  0  0  0  0  0  0  0  0  0  0  0
  148.0519  137.7369  152.1825 H   0  0  0  0  0  0  0  0  0  0  0  0
  147.2381  140.1573  152.3356 H   0  0  0  0  0  0  0  0  0  0  0  0
  146.1986  139.5816  153.6147 H   0  0  0  0  0  0  0  0  0  0  0  0
  148.1118  138.9428  154.9926 H   0  0  0  0  0  0  0  0  0  0  0  0
  149.2361  139.2148  153.6907 H   0  0  0  0  0  0  0  0  0  0  0  0
  148.8282  141.6638  153.7802 H   0  0  0  0  0  0  0  0  0  0  0  0
  147.5359  141.4480  154.9218 H   0  0  0  0  0  0  0  0  0  0  0  0
  150.7498  142.5570  158.1177 H   0  0  0  0  0  0  0  0  0  0  0  0
  150.1414  141.0048  158.7242 H   0  0  0  0  0  0  0  0  0  0  0  0
  152.3327  141.4241  156.8085 H   0  0  0  0  0  0  0  0  0  0  0  0
  151.7239  139.8724  157.4161 H   0  0  0  0  0  0  0  0  0  0  0  0
  147.3746  136.0201  151.5093 H   0  0  0  0  0  0  0  0  0  0  0  0
  142.8321  133.0591  150.6639 H   0  0  0  0  0  0  0  0  0  0  0  0
  1  2  2  0  0  0  0
  2  3  1  0  0  0  0
  2 14  1  0  0  0  0
  3  4  1  0  0  0  0
  3 20  1  0  0  0  0
  4  5  1  0  0  0  0
  4 21  1  0  0  0  0
  4 22  1  0  0  0  0
  5  6  1  0  0  0  0
  5 23  1  0  0  0  0
  5 24  1  0  0  0  0
  6  7  1  0  0  0  0
  6 25  1  0  0  0  0
  6 26  1  0  0  0  0
  7 12  1  0  0  0  0
  7  8  1  0  0  0  0
  8  9  2  0  0  0  0
  8 10  1  0  0  0  0
 10 11  1  0  0  0  0
 10 27  1  0  0  0  0
 10 28  1  0  0  0  0
 11 12  1  0  0  0  0
 11 29  1  0  0  0  0
 11 30  1  0  0  0  0
 12 13  2  0  0  0  0
 14 15  1  0  0  0  0
 14 31  1  0  0  0  0
 15 19  1  0  0  0  0
 15 16  2  0  0  0  0
 16 17  1  0  0  0  0
 17 18  2  0  0  0  0
 18 19  1  0  0  0  0
 18 32  1  0  0  0  0
M  END
> <s_m_source_file>
AV-unprocessed.smi

> <i_m_source_file_index>
2647

> <i_lp_mmshare_version>
43012

> <i_f3d_flags>
0

> <s_epik_input>
czFbY0hdbm5jMVtOSF1DKD1PKVtOSF1bQ0gyXVtDSDJdW0NIMl1OMkMoPU8pW0NIMl1bQ0gyXUMyPU8=

> <s_epik_cmdline>
J2VwaWtfcHl0aG9uJywgJy1waCcsICc3LjAnLCAnLXRuJywgJzgnLCAnLW1hJywgJzIwMCcsICctbWV0YWxfYmluZGluZycsICctaW1hZScsICc8aW5maWxlLm1hZT4nLCAnLW9tYWUnLCAnPG91dGZpbGUubWFlPic=

> <r_lp_tautomer_probability>
1

> <r_epik_Ionization_Penalty>
0.00175263

> <r_epik_Ionization_Penalty_Charging>
0

> <r_epik_Ionization_Penalty_Neutral>
0.00175263

> <r_epik_State_Penalty>
-0

> <r_epik_Charging_Adjusted_Penalty>
0

> <i_epik_Tot_Q>
0

> <i_epik_Tot_abs_Q>
0

> <r_epik_Metal_State_Penalty>
0.330668

> <b_epik_Metal_Only>
0

> <s_lp_Force_Field>
OPLS_2005

> <r_lp_Energy>
10.1998

> <b_lp_Chiralities_Consistent>
1

> <s_lp_Variant>
AV-unprocessed.smi:2647-1

> <Gold.Version>
5.8.1

> <Gold.Id.Protein>
6NUR|6NUR_protein|mol2

> <Gold.PLP.Fitness>
38.1611

> <Gold.PLP.PLP>
-27.7813

> <Gold.PLP.part.hbond>
-2.9317

> <Gold.PLP.part.metal>
0.0000

> <Gold.PLP.part.buried>
-3.7399

> <Gold.PLP.part.nonpolar>
-23.1904

> <Gold.PLP.part.repulsive>
1.7852

> <Gold.PLP.ligand.clash>
0.0000

> <Gold.PLP.ligand.torsion>
0.1991

> <Gold.PLP.Chemscore.Hbond>
2.8800

> <Gold.PLP.Chemscore.CHOScore>
0.6946

> <Gold.PLP.Chemscore.Metal>
0.0000

> <Gold.Chemscore.Hbonds>
donor molecule, donor type, donor heavy atom, donor atom, acceptor molecule, acceptor atom, score
      L1  H     3    20       P1  7948  0.88
      L1  H    14    31       P1  7948  1.00
      P1  H  7989  7998       L1    13  1.00
      L1  C    18    32       P1 10186  0.69

> <Gold.PLP.Chemscore.Internal.Correction>
0.0542

> <Gold.Rescore>
     Score         DG    S(hbond)    S(metal)    S(lipo)     H(rot)  DE(clash)    DE(int)     intcor
     12.41     -13.80       2.94        0.00      38.77       2.36       0.00       1.38       ----

> <Gold.Chemscore.Fitness>
12.4118

> <Gold.Chemscore.DG>
-13.8002

> <Gold.Chemscore.ZeroCoef>
-5.4800

> <Gold.Chemscore.Hbond>
2.9442

> <Gold.Chemscore.Metal>
0.0000

> <Gold.Chemscore.Lipo>
38.7669

> <Gold.Chemscore.Internal_Hbond>
0.0000

> <Gold.Chemscore.DEClash>
0.0048

> <Gold.Chemscore.DEInternal>
1.3836

> <Gold.Chemscore.Rot>
2.3629

> <Gold.Chemscore.Internal.Correction>
   9.000000E+99

> <Gold.Chemscore.Hbonds>
donor molecule, donor type, donor heavy atom, donor atom, acceptor molecule, acceptor atom, score
      L1  H     3    20       P1  7948  0.87
      L1  H    14    31       P1  7948  0.95
      P1  H  7989  7998       L1    13  0.88

> <Gold.Chemscore.Hbond.Weighted>
-9.8335

> <Gold.Chemscore.Metal.Weighted>
-0.0000

> <Gold.Chemscore.Lipo.Weighted>
-4.5357

> <Gold.Chemscore.Internal_Hbond.Weighted>
0.0000

> <Gold.Chemscore.DEClash.Weighted>
0.0048

> <Gold.Chemscore.DEInternal.Weighted>
1.3836

> <Gold.Chemscore.Rot.Weighted>
6.0490

> <Gold.Chemscore.Internal.Correction.Weighted>
   9.000000E+99

> <Gold.Protein.RotatedTorsions>
[ 6907 6896 6895 6894 ] final   36.36 input  -60.11 | X-H torsion
[ 7974 7965 7964 7962 ] final  139.47 input  175.53 | X-H torsion
[ 8008 7997 7996 7995 ] final  -94.07 input   59.86 | X-H torsion
[ 10167 10162 10161 10158 ] final   95.14 input  -65.29 | X-H torsion
[ 10718 10713 10712 10709 ] final -104.78 input   66.30 | X-H torsion
[ 10763 10752 10751 10750 ] final  -33.12 input  -60.55 | X-H torsion
[ 11005 11000 10999 10996 ] final  -40.17 input  -57.11 | X-H torsion

> <Gold.Protein.ActiveResidues>
 VAL166  LYS551  ARG553  GLY616  TRP617  ASP618  TYR619  PRO620  LYS621  CYS622 
 ASP623  PHE694  ASN695  SER759  ASP760  ASP761  ALA762  ILE779  LEU786  VAL792 
 PHE793  MET794  SER795  GLU796  ALA797  LYS798  CYS799  TRP800  GLU811  SER814 

> <Gold.Protein.RotatedAtoms>
  152.1287  134.9151  160.0559 H   0  0  0  0  0  0  0  0  0  0  0  0  # atno 6907 bound_to 6896
  152.0264  133.3914  159.4287 H   0  0  0  0  0  0  0  0  0  0  0  0  # atno 6908 bound_to 6896
  150.6854  134.3490  159.4944 H   0  0  0  0  0  0  0  0  0  0  0  0  # atno 6909 bound_to 6896
  144.9276  139.5088  143.5633 H   0  0  0  0  0  0  0  0  0  0  0  0  # atno 7974 bound_to 7965
  154.7437  140.0493  157.0833 H   0  0  0  0  0  0  0  0  0  0  0  0  # atno 8008 bound_to 7997
  155.0145  140.3140  155.4797 H   0  0  0  0  0  0  0  0  0  0  0  0  # atno 8009 bound_to 7997
  156.2870  140.2178  156.5261 H   0  0  0  0  0  0  0  0  0  0  0  0  # atno 8010 bound_to 7997
  139.8017  144.6811  150.9757 H   0  0  0  0  0  0  0  0  0  0  0  0  # atno 10167 bound_to 10162
  156.0318  130.5531  150.7445 H   0  0  0  0  0  0  0  0  0  0  0  0  # atno 10718 bound_to 10713
  153.8250  135.6871  153.4822 H   0  0  0  0  0  0  0  0  0  0  0  0  # atno 10763 bound_to 10752
  153.1546  135.4604  154.9683 H   0  0  0  0  0  0  0  0  0  0  0  0  # atno 10764 bound_to 10752
  154.7911  135.3302  154.7719 H   0  0  0  0  0  0  0  0  0  0  0  0  # atno 10765 bound_to 10752
  141.0155  133.6887  156.2285 H   0  0  0  0  0  0  0  0  0  0  0  0  # atno 11005 bound_to 11000
  146.3233  139.8202  142.8928 LP  0  0  0  0  0  0  0  0  0  0  0  0  # atno 17320 bound_to 7965
  145.3194  141.0240  143.3509 LP  0  0  0  0  0  0  0  0  0  0  0  0  # atno 17321 bound_to 7965
  140.7820  143.4275  151.0745 LP  0  0  0  0  0  0  0  0  0  0  0  0  # atno 17342 bound_to 10162
  139.7947  143.8169  152.3156 LP  0  0  0  0  0  0  0  0  0  0  0  0  # atno 17343 bound_to 10162
  157.5005  131.0918  151.0320 LP  0  0  0  0  0  0  0  0  0  0  0  0  # atno 17370 bound_to 10713
  157.0702  130.5861  149.5401 LP  0  0  0  0  0  0  0  0  0  0  0  0  # atno 17371 bound_to 10713
  140.6662  134.4916  157.5585 LP  0  0  0  0  0  0  0  0  0  0  0  0  # atno 17394 bound_to 11000
  139.9114  134.8336  156.1514 LP  0  0  0  0  0  0  0  0  0  0  0  0  # atno 17395 bound_to 11000

$$$$
