AV-unprocessed.smi:1049|AV-procd|sdf|4610|dock8
  -GOLD-   22720 3103D 1   1.00000     0.00000
 Structure written by MMmdl.
 41 42  0  0  0  0  0  0  0  0  2 V2000
  145.7772  138.2836  153.6268 C   0  0  0  0  0  0  0  0  0  0  0  0
  146.5417  139.4961  154.1755 C   0  0  2  0  0  0  0  0  0  0  0  0
  145.5908  140.6747  154.4798 C   0  0  0  0  0  0  0  0  0  0  0  0
  146.3558  141.9428  154.9040 C   0  0  0  0  0  0  0  0  0  0  0  0
  147.4804  142.2656  153.9042 C   0  0  0  0  0  0  0  0  0  0  0  0
  148.3658  141.0930  153.7985 N   0  0  0  0  0  0  0  0  0  0  0  0
  149.5894  140.9608  154.3702 C   0  0  0  0  0  0  0  0  0  0  0  0
  150.3893  140.0770  154.0605 O   0  0  0  0  0  0  0  0  0  0  0  0
  149.8726  141.8789  155.3093 N   0  0  0  0  0  0  0  0  0  0  0  0
  151.0957  141.9283  156.1045 C   0  0  0  0  0  0  0  0  0  0  0  0
  150.8386  141.8638  157.6255 C   0  0  0  0  0  0  0  0  0  0  0  0
  151.2402  143.0957  158.3837 C   0  0  0  0  0  0  0  0  0  0  0  0
  150.8315  144.3382  158.0981 N   0  3  0  0  0  0  0  0  0  0  0  0
  151.3875  145.2371  158.9656 C   0  0  0  0  0  0  0  0  0  0  0  0
  152.1701  144.5109  159.8240 C   0  0  0  0  0  0  0  0  0  0  0  0
  152.0626  143.1972  159.4431 N   0  0  0  0  0  0  0  0  0  0  0  0
  152.7186  142.0570  160.0918 C   0  0  0  0  0  0  0  0  0  0  0  0
  154.0245  142.0602  159.8253 F   0  0  0  0  0  0  0  0  0  0  0  0
  152.5121  142.0808  161.4074 F   0  0  0  0  0  0  0  0  0  0  0  0
  147.6588  139.9480  153.2104 C   0  0  0  0  0  0  0  0  0  0  0  0
  145.2865  138.5188  152.6818 H   0  0  0  0  0  0  0  0  0  0  0  0
  145.0099  137.9529  154.3274 H   0  0  0  0  0  0  0  0  0  0  0  0
  146.4488  137.4425  153.4518 H   0  0  0  0  0  0  0  0  0  0  0  0
  147.0111  139.1917  155.1125 H   0  0  0  0  0  0  0  0  0  0  0  0
  145.0024  140.9008  153.5892 H   0  0  0  0  0  0  0  0  0  0  0  0
  144.8771  140.3942  155.2552 H   0  0  0  0  0  0  0  0  0  0  0  0
  145.6673  142.7848  154.9805 H   0  0  0  0  0  0  0  0  0  0  0  0
  146.7807  141.7994  155.8978 H   0  0  0  0  0  0  0  0  0  0  0  0
  147.0539  142.4816  152.9234 H   0  0  0  0  0  0  0  0  0  0  0  0
  147.9898  143.1819  154.2022 H   0  0  0  0  0  0  0  0  0  0  0  0
  149.1788  142.5884  155.4966 H   0  0  0  0  0  0  0  0  0  0  0  0
  151.7762  141.1317  155.8005 H   0  0  0  0  0  0  0  0  0  0  0  0
  151.5954  142.8639  155.8563 H   0  0  0  0  0  0  0  0  0  0  0  0
  149.7757  141.7178  157.8216 H   0  0  0  0  0  0  0  0  0  0  0  0
  151.3553  141.0131  158.0684 H   0  0  0  0  0  0  0  0  0  0  0  0
  151.1877  146.2973  158.9094 H   0  0  0  0  0  0  0  0  0  0  0  0
  152.7796  144.8246  160.6590 H   0  0  0  0  0  0  0  0  0  0  0  0
  152.2990  141.1279  159.7048 H   0  0  0  0  0  0  0  0  0  0  0  0
  148.3288  139.1154  152.9904 H   0  0  0  0  0  0  0  0  0  0  0  0
  147.2333  140.2410  152.2493 H   0  0  0  0  0  0  0  0  0  0  0  0
  150.2001  144.5751  157.3430 H   0  0  0  0  0  0  0  0  0  0  0  0
  1  2  1  0  0  0  0
  1 21  1  0  0  0  0
  1 22  1  0  0  0  0
  1 23  1  0  0  0  0
  2 20  1  0  0  0  0
  2  3  1  0  0  0  0
  2 24  1  0  0  0  0
  3  4  1  0  0  0  0
  3 25  1  0  0  0  0
  3 26  1  0  0  0  0
  4  5  1  0  0  0  0
  4 27  1  0  0  0  0
  4 28  1  0  0  0  0
  5  6  1  0  0  0  0
  5 29  1  0  0  0  0
  5 30  1  0  0  0  0
  6  7  1  0  0  0  0
  6 20  1  0  0  0  0
  7  8  2  0  0  0  0
  7  9  1  0  0  0  0
  9 10  1  0  0  0  0
  9 31  1  0  0  0  0
 10 11  1  0  0  0  0
 10 32  1  0  0  0  0
 10 33  1  0  0  0  0
 11 12  1  0  0  0  0
 11 34  1  0  0  0  0
 11 35  1  0  0  0  0
 12 16  1  0  0  0  0
 12 13  2  0  0  0  0
 13 14  1  0  0  0  0
 13 41  1  0  0  0  0
 14 15  2  0  0  0  0
 14 36  1  0  0  0  0
 15 16  1  0  0  0  0
 15 37  1  0  0  0  0
 16 17  1  0  0  0  0
 17 18  1  0  0  0  0
 17 19  1  0  0  0  0
 17 38  1  0  0  0  0
 20 39  1  0  0  0  0
 20 40  1  0  0  0  0
M  CHG  1  13   1
M  END
> <s_m_source_file>
AV-unprocessed.smi

> <i_m_source_file_index>
1049

> <i_lp_mmshare_version>
43012

> <i_f3d_flags>
0

> <s_epik_input>
W0NIM11bQ0BASF0xW0NIMl1bQ0gyXVtDSDJdTihbQ0gyXTEpQyg9TylbTkhdW0NIMl1bQ0gyXWMybltjSF1bY0hdbjJbQ0hdKEYpRg==

> <s_epik_cmdline>
J2VwaWtfcHl0aG9uJywgJy1waCcsICc3LjAnLCAnLXRuJywgJzgnLCAnLW1hJywgJzIwMCcsICctbWV0YWxfYmluZGluZycsICctaW1hZScsICc8aW5maWxlLm1hZT4nLCAnLW9tYWUnLCAnPG91dGZpbGUubWFlPic=

> <r_lp_tautomer_probability>
1

> <r_epik_Ionization_Penalty>
1.09766

> <r_epik_Ionization_Penalty_Charging>
0

> <r_epik_Ionization_Penalty_Neutral>
1.09766

> <r_epik_State_Penalty>
1.15444

> <r_epik_Charging_Adjusted_Penalty>
1.15444

> <i_epik_Tot_Q>
1

> <i_epik_Tot_abs_Q>
1

> <r_epik_Metal_State_Penalty>
1.24204

> <b_epik_Metal_Only>
0

> <s_lp_Force_Field>
OPLS_2005

> <r_lp_Energy>
36.2432

> <b_lp_Chiralities_Consistent>
1

> <s_lp_Variant>
AV-unprocessed.smi:1049-3

> <Gold.Version>
5.8.1

> <Gold.Id.Protein>
6NUR|6NUR_protein|mol2

> <Gold.PLP.Fitness>
54.9148

> <Gold.PLP.PLP>
-45.2274

> <Gold.PLP.part.hbond>
-3.0869

> <Gold.PLP.part.metal>
0.0000

> <Gold.PLP.part.buried>
-2.5469

> <Gold.PLP.part.nonpolar>
-38.4041

> <Gold.PLP.part.repulsive>
0.3854

> <Gold.PLP.ligand.clash>
0.0000

> <Gold.PLP.ligand.torsion>
0.8076

> <Gold.PLP.Chemscore.Hbond>
3.7426

> <Gold.PLP.Chemscore.CHOScore>
0.0000

> <Gold.PLP.Chemscore.Metal>
0.0000

> <Gold.Chemscore.Hbonds>
donor molecule, donor type, donor heavy atom, donor atom, acceptor molecule, acceptor atom, score
      L1  H     9    31       P1  8028  0.60
      L1  H    13    41       P1  8028  1.62
      P1  H  7989  7998       L1     8  1.00

> <Gold.PLP.Chemscore.Internal.Correction>
0.0749

> <Gold.Rescore>
     Score         DG    S(hbond)    S(metal)    S(lipo)     H(rot)  DE(clash)    DE(int)     intcor
     14.51     -15.53       1.56        0.00      76.36       1.61       0.57       0.45       ----

> <Gold.Chemscore.Fitness>
14.5104

> <Gold.Chemscore.DG>
-15.5264

> <Gold.Chemscore.ZeroCoef>
-5.4800

> <Gold.Chemscore.Hbond>
1.5633

> <Gold.Chemscore.Metal>
0.0000

> <Gold.Chemscore.Lipo>
76.3606

> <Gold.Chemscore.Internal_Hbond>
0.0000

> <Gold.Chemscore.DEClash>
0.5656

> <Gold.Chemscore.DEInternal>
0.4504

> <Gold.Chemscore.Rot>
1.6051

> <Gold.Chemscore.Internal.Correction>
   9.000000E+99

> <Gold.Chemscore.Hbonds>
donor molecule, donor type, donor heavy atom, donor atom, acceptor molecule, acceptor atom, score
      L1  H     9    31       P1  8028  0.58
      L1  H    13    41       P1  8028  0.32
      P1  H  7989  7998       L1     8  0.42

> <Gold.Chemscore.Hbond.Weighted>
-5.2214

> <Gold.Chemscore.Metal.Weighted>
-0.0000

> <Gold.Chemscore.Lipo.Weighted>
-8.9342

> <Gold.Chemscore.Internal_Hbond.Weighted>
0.0000

> <Gold.Chemscore.DEClash.Weighted>
0.5656

> <Gold.Chemscore.DEInternal.Weighted>
0.4504

> <Gold.Chemscore.Rot.Weighted>
4.1092

> <Gold.Chemscore.Internal.Correction.Weighted>
   9.000000E+99

> <Gold.Protein.RotatedTorsions>
[ 6907 6896 6895 6894 ] final  167.81 input  -60.11 | X-H torsion
[ 7974 7965 7964 7962 ] final  -27.47 input  175.53 | X-H torsion
[ 8008 7997 7996 7995 ] final -160.06 input   59.86 | X-H torsion
[ 10167 10162 10161 10158 ] final   41.53 input  -65.29 | X-H torsion
[ 10718 10713 10712 10709 ] final   84.29 input   66.30 | X-H torsion
[ 10763 10752 10751 10750 ] final  -28.77 input  -60.55 | X-H torsion
[ 11005 11000 10999 10996 ] final  -57.70 input  -57.11 | X-H torsion

> <Gold.Protein.ActiveResidues>
 VAL166  LYS551  ARG553  GLY616  TRP617  ASP618  TYR619  PRO620  LYS621  CYS622 
 ASP623  PHE694  ASN695  SER759  ASP760  ASP761  ALA762  ILE779  LEU786  VAL792 
 PHE793  MET794  SER795  GLU796  ALA797  LYS798  CYS799  TRP800  GLU811  SER814 

> <Gold.Protein.RotatedAtoms>
  151.8575  133.3451  159.3692 H   0  0  0  0  0  0  0  0  0  0  0  0  # atno 6907 bound_to 6896
  150.7188  134.5239  159.5676 H   0  0  0  0  0  0  0  0  0  0  0  0  # atno 6908 bound_to 6896
  152.2745  134.7897  160.0459 H   0  0  0  0  0  0  0  0  0  0  0  0  # atno 6909 bound_to 6896
  146.1355  140.5156  142.8674 H   0  0  0  0  0  0  0  0  0  0  0  0  # atno 7974 bound_to 7965
  155.7719  140.0853  157.2103 H   0  0  0  0  0  0  0  0  0  0  0  0  # atno 8008 bound_to 7997
  154.3995  140.1524  156.3009 H   0  0  0  0  0  0  0  0  0  0  0  0  # atno 8009 bound_to 7997
  155.8739  140.3424  155.5843 H   0  0  0  0  0  0  0  0  0  0  0  0  # atno 8010 bound_to 7997
  140.3634  144.2199  150.6137 H   0  0  0  0  0  0  0  0  0  0  0  0  # atno 10167 bound_to 10162
  157.6895  131.0127  150.2650 H   0  0  0  0  0  0  0  0  0  0  0  0  # atno 10718 bound_to 10713
  153.7537  135.6924  153.4940 H   0  0  0  0  0  0  0  0  0  0  0  0  # atno 10763 bound_to 10752
  153.1985  135.4445  155.0236 H   0  0  0  0  0  0  0  0  0  0  0  0  # atno 10764 bound_to 10752
  154.8178  135.3407  154.7057 H   0  0  0  0  0  0  0  0  0  0  0  0  # atno 10765 bound_to 10752
  141.1176  133.6611  156.4809 H   0  0  0  0  0  0  0  0  0  0  0  0  # atno 11005 bound_to 11000
  144.7736  140.5690  143.6653 LP  0  0  0  0  0  0  0  0  0  0  0  0  # atno 17320 bound_to 7965
  145.5165  139.1478  143.3576 LP  0  0  0  0  0  0  0  0  0  0  0  0  # atno 17321 bound_to 7965
  140.5104  143.2292  151.8543 LP  0  0  0  0  0  0  0  0  0  0  0  0  # atno 17342 bound_to 10162
  139.4811  144.4956  151.9128 LP  0  0  0  0  0  0  0  0  0  0  0  0  # atno 17343 bound_to 10162
  156.3223  130.3787  149.7564 LP  0  0  0  0  0  0  0  0  0  0  0  0  # atno 17370 bound_to 10713
  156.5130  130.8181  151.3176 LP  0  0  0  0  0  0  0  0  0  0  0  0  # atno 17371 bound_to 10713
  140.4601  134.6849  157.5081 LP  0  0  0  0  0  0  0  0  0  0  0  0  # atno 17394 bound_to 11000
  140.0109  134.6692  155.9382 LP  0  0  0  0  0  0  0  0  0  0  0  0  # atno 17395 bound_to 11000

$$$$
