AV-unprocessed.smi:1990|AV-procd|sdf|8066|dock3
  -GOLD-   2272010273D 1   1.00000     0.00000
 Structure written by MMmdl.
 46 47  0  0  0  0  0  0  0  0  1 V2000
  152.2033  145.3179  158.8586 C   0  0  0  0  0  0  0  0  0  0  0  0
  152.0844  143.8647  158.3874 C   0  0  1  0  0  0  0  0  0  0  0  0
  152.5407  142.8702  159.4705 C   0  0  0  0  0  0  0  0  0  0  0  0
  152.2913  141.4988  159.0385 N   0  0  0  0  0  0  0  0  0  0  0  0
  152.9533  140.4923  159.7740 C   0  0  0  0  0  0  0  0  0  0  0  0
  153.8357  140.8420  160.8230 C   0  0  0  0  0  0  0  0  0  0  0  0
  154.4889  139.8237  161.5434 C   0  0  0  0  0  0  0  0  0  0  0  0
  154.2517  138.4752  161.1905 C   0  0  0  0  0  0  0  0  0  0  0  0
  154.8317  137.3604  161.8525 N   0  0  0  0  0  0  0  0  0  0  0  0
  154.7335  136.0549  161.5391 C   0  0  0  0  0  0  0  0  0  0  0  0
  154.0507  135.6115  160.6159 O   0  0  0  0  0  0  0  0  0  0  0  0
  155.5177  135.0927  162.4423 C   0  0  1  0  0  0  0  0  0  0  0  0
  157.0369  135.2810  162.2979 C   0  0  0  0  0  0  0  0  0  0  0  0
  155.0168  135.3350  164.2110 S   0  0  0  0  0  0  0  0  0  0  0  0
  154.2614  133.7150  164.6583 C   0  0  0  0  0  0  0  0  0  0  0  0
  156.2395  135.5071  165.0104 O   0  0  0  0  0  0  0  0  0  0  0  0
  153.9647  136.3612  164.2743 O   0  0  0  0  0  0  0  0  0  0  0  0
  153.3479  138.2250  160.1394 C   0  0  0  0  0  0  0  0  0  0  0  0
  152.7216  139.1977  159.4454 N   0  0  0  0  0  0  0  0  0  0  0  0
  150.9037  141.2630  158.6455 C   0  0  0  0  0  0  0  0  0  0  0  0
  150.4416  142.2946  157.5977 C   0  0  2  0  0  0  0  0  0  0  0  0
  151.0089  142.0354  156.1906 C   0  0  0  0  0  0  0  0  0  0  0  0
  150.7181  143.6201  158.0556 O   0  0  0  0  0  0  0  0  0  0  0  0
  153.2343  145.5650  159.1129 H   0  0  0  0  0  0  0  0  0  0  0  0
  151.5880  145.4986  159.7405 H   0  0  0  0  0  0  0  0  0  0  0  0
  151.8788  146.0077  158.0790 H   0  0  0  0  0  0  0  0  0  0  0  0
  152.7051  143.7477  157.4987 H   0  0  0  0  0  0  0  0  0  0  0  0
  153.5942  143.0398  159.6891 H   0  0  0  0  0  0  0  0  0  0  0  0
  151.9941  143.0475  160.3977 H   0  0  0  0  0  0  0  0  0  0  0  0
  154.0273  141.8742  161.0756 H   0  0  0  0  0  0  0  0  0  0  0  0
  155.1459  140.0973  162.3542 H   0  0  0  0  0  0  0  0  0  0  0  0
  155.3428  137.5773  162.6958 H   0  0  0  0  0  0  0  0  0  0  0  0
  155.2696  134.0645  162.1768 H   0  0  0  0  0  0  0  0  0  0  0  0
  157.3539  135.1748  161.2598 H   0  0  0  0  0  0  0  0  0  0  0  0
  157.5768  134.5361  162.8829 H   0  0  0  0  0  0  0  0  0  0  0  0
  157.3545  136.2643  162.6473 H   0  0  0  0  0  0  0  0  0  0  0  0
  154.0068  133.7185  165.7181 H   0  0  0  0  0  0  0  0  0  0  0  0
  154.9716  132.9124  164.4616 H   0  0  0  0  0  0  0  0  0  0  0  0
  153.3540  133.5537  164.0769 H   0  0  0  0  0  0  0  0  0  0  0  0
  153.1224  137.2120  159.8392 H   0  0  0  0  0  0  0  0  0  0  0  0
  150.7835  140.2555  158.2450 H   0  0  0  0  0  0  0  0  0  0  0  0
  150.2727  141.3339  159.5327 H   0  0  0  0  0  0  0  0  0  0  0  0
  149.3567  142.2219  157.5175 H   0  0  0  0  0  0  0  0  0  0  0  0
  150.6659  141.0737  155.8082 H   0  0  0  0  0  0  0  0  0  0  0  0
  152.0983  142.0156  156.1803 H   0  0  0  0  0  0  0  0  0  0  0  0
  150.6801  142.8043  155.4912 H   0  0  0  0  0  0  0  0  0  0  0  0
  1  2  1  0  0  0  0
  1 24  1  0  0  0  0
  1 25  1  0  0  0  0
  1 26  1  0  0  0  0
  2 23  1  0  0  0  0
  2  3  1  0  0  0  0
  2 27  1  0  0  0  0
  3  4  1  0  0  0  0
  3 28  1  0  0  0  0
  3 29  1  0  0  0  0
  4  5  1  0  0  0  0
  4 20  1  0  0  0  0
  5 19  1  0  0  0  0
  5  6  2  0  0  0  0
  6  7  1  0  0  0  0
  6 30  1  0  0  0  0
  7  8  2  0  0  0  0
  7 31  1  0  0  0  0
  8  9  1  0  0  0  0
  8 18  1  0  0  0  0
  9 10  1  0  0  0  0
  9 32  1  0  0  0  0
 10 11  2  0  0  0  0
 10 12  1  0  0  0  0
 12 13  1  0  0  0  0
 12 14  1  0  0  0  0
 12 33  1  0  0  0  0
 13 34  1  0  0  0  0
 13 35  1  0  0  0  0
 13 36  1  0  0  0  0
 14 15  1  0  0  0  0
 14 16  2  0  0  0  0
 14 17  2  0  0  0  0
 15 37  1  0  0  0  0
 15 38  1  0  0  0  0
 15 39  1  0  0  0  0
 18 19  2  0  0  0  0
 18 40  1  0  0  0  0
 20 21  1  0  0  0  0
 20 41  1  0  0  0  0
 20 42  1  0  0  0  0
 21 22  1  0  0  0  0
 21 23  1  0  0  0  0
 21 43  1  0  0  0  0
 22 44  1  0  0  0  0
 22 45  1  0  0  0  0
 22 46  1  0  0  0  0
M  END
> <s_m_source_file>
AV-unprocessed.smi

> <i_m_source_file_index>
1990

> <i_lp_mmshare_version>
43012

> <i_f3d_flags>
0

> <s_epik_input>
W0NIM11bQ0BASF0xW0NIMl1OKFtDSDJdW0NASF0oTzEpW0NIM10pYzJbY0hdW2NIXWMoW2NIXW4yKVtOSF1DKD1PKVtDQEhdKFtDSDNdKVMoPU8pKD1PKVtDSDNd

> <s_epik_cmdline>
J2VwaWtfcHl0aG9uJywgJy1waCcsICc3LjAnLCAnLXRuJywgJzgnLCAnLW1hJywgJzIwMCcsICctbWV0YWxfYmluZGluZycsICctaW1hZScsICc8aW5maWxlLm1hZT4nLCAnLW9tYWUnLCAnPG91dGZpbGUubWFlPic=

> <r_lp_tautomer_probability>
1

> <r_epik_Ionization_Penalty>
0.000334888

> <r_epik_Ionization_Penalty_Charging>
0

> <r_epik_Ionization_Penalty_Neutral>
0.000334888

> <r_epik_State_Penalty>
0.000200905

> <r_epik_Charging_Adjusted_Penalty>
0.000200905

> <i_epik_Tot_Q>
0

> <i_epik_Tot_abs_Q>
0

> <r_epik_Metal_State_Penalty>
-0

> <b_epik_Metal_Only>
0

> <s_lp_Force_Field>
OPLS_2005

> <r_lp_Energy>
21.2348

> <b_lp_Chiralities_Consistent>
1

> <s_lp_Variant>
AV-unprocessed.smi:1990-6

> <Gold.Version>
5.8.1

> <Gold.Id.Protein>
6NUR|6NUR_protein|mol2

> <Gold.PLP.Fitness>
42.2457

> <Gold.PLP.PLP>
-39.7089

> <Gold.PLP.part.hbond>
-1.0000

> <Gold.PLP.part.metal>
0.0000

> <Gold.PLP.part.buried>
-7.0044

> <Gold.PLP.part.nonpolar>
-31.4224

> <Gold.PLP.part.repulsive>
0.3319

> <Gold.PLP.ligand.clash>
0.0712

> <Gold.PLP.ligand.torsion>
0.4424

> <Gold.PLP.Chemscore.Hbond>
1.0000

> <Gold.PLP.Chemscore.CHOScore>
0.0000

> <Gold.PLP.Chemscore.Metal>
0.0000

> <Gold.Chemscore.Hbonds>
donor molecule, donor type, donor heavy atom, donor atom, acceptor molecule, acceptor atom, score
      P1  H  6896  6909       L1    11  1.00

> <Gold.PLP.Chemscore.Internal.Correction>
0.4928

> <Gold.Rescore>
     Score         DG    S(hbond)    S(metal)    S(lipo)     H(rot)  DE(clash)    DE(int)     intcor
     13.73     -16.96       0.99        0.00     103.21       1.52       0.15       3.07       ----

> <Gold.Chemscore.Fitness>
13.7334

> <Gold.Chemscore.DG>
-16.9607

> <Gold.Chemscore.ZeroCoef>
-5.4800

> <Gold.Chemscore.Hbond>
0.9850

> <Gold.Chemscore.Metal>
0.0000

> <Gold.Chemscore.Lipo>
103.2136

> <Gold.Chemscore.Internal_Hbond>
0.0000

> <Gold.Chemscore.DEClash>
0.1529

> <Gold.Chemscore.DEInternal>
3.0744

> <Gold.Chemscore.Rot>
1.5177

> <Gold.Chemscore.Internal.Correction>
   9.000000E+99

> <Gold.Chemscore.Hbonds>
donor molecule, donor type, donor heavy atom, donor atom, acceptor molecule, acceptor atom, score
      P1  H  6896  6909       L1    11  0.91

> <Gold.Chemscore.Hbond.Weighted>
-3.2900

> <Gold.Chemscore.Metal.Weighted>
-0.0000

> <Gold.Chemscore.Lipo.Weighted>
-12.0760

> <Gold.Chemscore.Internal_Hbond.Weighted>
0.0000

> <Gold.Chemscore.DEClash.Weighted>
0.1529

> <Gold.Chemscore.DEInternal.Weighted>
3.0744

> <Gold.Chemscore.Rot.Weighted>
3.8853

> <Gold.Chemscore.Internal.Correction.Weighted>
   9.000000E+99

> <Gold.Protein.RotatedTorsions>
[ 6907 6896 6895 6894 ] final  161.31 input  -60.11 | X-H torsion
[ 7974 7965 7964 7962 ] final   22.72 input  175.53 | X-H torsion
[ 8008 7997 7996 7995 ] final  -81.77 input   59.86 | X-H torsion
[ 10167 10162 10161 10158 ] final   50.77 input  -65.29 | X-H torsion
[ 10718 10713 10712 10709 ] final   35.69 input   66.30 | X-H torsion
[ 10763 10752 10751 10750 ] final   53.53 input  -60.55 | X-H torsion
[ 11005 11000 10999 10996 ] final -125.27 input  -57.11 | X-H torsion

> <Gold.Protein.ActiveResidues>
 VAL166  LYS551  ARG553  GLY616  TRP617  ASP618  TYR619  PRO620  LYS621  CYS622 
 ASP623  PHE694  ASN695  SER759  ASP760  ASP761  ALA762  ILE779  LEU786  VAL792 
 PHE793  MET794  SER795  GLU796  ALA797  LYS798  CYS799  TRP800  GLU811  SER814 

> <Gold.Protein.RotatedAtoms>
  151.9575  133.3685  159.4022 H   0  0  0  0  0  0  0  0  0  0  0  0  # atno 6907 bound_to 6896
  150.6970  134.4276  159.5242 H   0  0  0  0  0  0  0  0  0  0  0  0  # atno 6908 bound_to 6896
  152.1959  134.8631  160.0563 H   0  0  0  0  0  0  0  0  0  0  0  0  # atno 6909 bound_to 6896
  146.2016  139.7845  142.8757 H   0  0  0  0  0  0  0  0  0  0  0  0  # atno 7974 bound_to 7965
  154.6017  140.0643  156.9377 H   0  0  0  0  0  0  0  0  0  0  0  0  # atno 8008 bound_to 7997
  155.2121  140.3323  155.4309 H   0  0  0  0  0  0  0  0  0  0  0  0  # atno 8009 bound_to 7997
  156.2322  140.1846  156.7196 H   0  0  0  0  0  0  0  0  0  0  0  0  # atno 8010 bound_to 7997
  140.2689  144.3288  150.6296 H   0  0  0  0  0  0  0  0  0  0  0  0  # atno 10167 bound_to 10162
  157.3258  130.7472  149.6814 H   0  0  0  0  0  0  0  0  0  0  0  0  # atno 10718 bound_to 10713
  152.9796  135.5775  154.4757 H   0  0  0  0  0  0  0  0  0  0  0  0  # atno 10763 bound_to 10752
  154.4313  135.2773  155.1912 H   0  0  0  0  0  0  0  0  0  0  0  0  # atno 10764 bound_to 10752
  154.3620  135.6186  153.5749 H   0  0  0  0  0  0  0  0  0  0  0  0  # atno 10765 bound_to 10752
  140.9775  134.0720  157.3802 H   0  0  0  0  0  0  0  0  0  0  0  0  # atno 11005 bound_to 11000
  145.3463  141.0298  143.3363 LP  0  0  0  0  0  0  0  0  0  0  0  0  # atno 17320 bound_to 7965
  144.8697  139.5056  143.6773 LP  0  0  0  0  0  0  0  0  0  0  0  0  # atno 17321 bound_to 7965
  140.5906  143.2168  151.7260 LP  0  0  0  0  0  0  0  0  0  0  0  0  # atno 17342 bound_to 10162
  139.4995  144.3945  152.0245 LP  0  0  0  0  0  0  0  0  0  0  0  0  # atno 17343 bound_to 10162
  155.9690  130.4210  150.4448 LP  0  0  0  0  0  0  0  0  0  0  0  0  # atno 17370 bound_to 10713
  157.2471  131.0538  151.2402 LP  0  0  0  0  0  0  0  0  0  0  0  0  # atno 17371 bound_to 10713
  139.8936  135.0131  156.6909 LP  0  0  0  0  0  0  0  0  0  0  0  0  # atno 17394 bound_to 11000
  140.7237  133.9119  155.8164 LP  0  0  0  0  0  0  0  0  0  0  0  0  # atno 17395 bound_to 11000

$$$$
