AV-unprocessed.smi:912|AV-procd|sdf|4145|dock10
  -GOLD-   22720 2 53D 1   1.00000     0.00000
 Structure written by MMmdl.
 27 27  0  0  0  0  0  0  0  0  2 V2000
  148.7851  134.7733  154.7152 C   0  0  0  0  0  0  0  0  0  0  0  0
  147.7213  134.8473  153.7159 N   0  0  0  0  0  0  0  0  0  0  0  0
  146.8687  133.6651  153.4944 C   0  0  2  0  0  0  0  0  0  0  0  0
  146.2282  133.3401  154.8690 C   0  0  0  0  0  0  0  0  0  0  0  0
  147.6986  132.4644  152.9628 C   0  0  0  0  0  0  0  0  0  0  0  0
  148.2493  132.5829  151.7492 N   0  0  0  0  0  0  0  0  0  0  0  0
  147.8389  131.4410  153.6302 O   0  0  0  0  0  0  0  0  0  0  0  0
  145.7428  133.9495  152.4773 C   0  0  0  0  0  0  0  0  0  0  0  0
  145.6461  135.1804  151.7755 C   0  0  0  0  0  0  0  0  0  0  0  0
  144.5917  135.3869  150.8626 C   0  0  0  0  0  0  0  0  0  0  0  0
  143.6776  134.4162  150.6565 N   0  3  0  0  0  0  0  0  0  0  0  0
  143.7208  133.2290  151.2957 C   0  0  0  0  0  0  0  0  0  0  0  0
  144.7512  132.9677  152.2207 C   0  0  0  0  0  0  0  0  0  0  0  0
  149.2069  135.7678  154.8594 H   0  0  0  0  0  0  0  0  0  0  0  0
  149.6001  134.1227  154.3979 H   0  0  0  0  0  0  0  0  0  0  0  0
  148.4213  134.4298  155.6827 H   0  0  0  0  0  0  0  0  0  0  0  0
  148.0707  135.2062  152.8396 H   0  0  0  0  0  0  0  0  0  0  0  0
  145.5500  132.4880  154.8148 H   0  0  0  0  0  0  0  0  0  0  0  0
  145.6477  134.1854  155.2410 H   0  0  0  0  0  0  0  0  0  0  0  0
  146.9688  133.0961  155.6305 H   0  0  0  0  0  0  0  0  0  0  0  0
  148.7851  131.8215  151.3595 H   0  0  0  0  0  0  0  0  0  0  0  0
  148.1141  133.4328  151.2205 H   0  0  0  0  0  0  0  0  0  0  0  0
  146.3600  135.9771  151.9207 H   0  0  0  0  0  0  0  0  0  0  0  0
  144.4538  136.2957  150.2953 H   0  0  0  0  0  0  0  0  0  0  0  0
  142.9360  132.5283  151.0502 H   0  0  0  0  0  0  0  0  0  0  0  0
  144.7778  132.0131  152.7260 H   0  0  0  0  0  0  0  0  0  0  0  0
  142.9231  134.5871  149.9912 H   0  0  0  0  0  0  0  0  0  0  0  0
  1  2  1  0  0  0  0
  1 14  1  0  0  0  0
  1 15  1  0  0  0  0
  1 16  1  0  0  0  0
  2  3  1  0  0  0  0
  2 17  1  0  0  0  0
  3  4  1  0  0  0  0
  3  5  1  0  0  0  0
  3  8  1  0  0  0  0
  4 18  1  0  0  0  0
  4 19  1  0  0  0  0
  4 20  1  0  0  0  0
  5  6  1  0  0  0  0
  5  7  2  0  0  0  0
  6 21  1  0  0  0  0
  6 22  1  0  0  0  0
  8 13  1  0  0  0  0
  8  9  2  0  0  0  0
  9 10  1  0  0  0  0
  9 23  1  0  0  0  0
 10 11  2  0  0  0  0
 10 24  1  0  0  0  0
 11 12  1  0  0  0  0
 11 27  1  0  0  0  0
 12 13  2  0  0  0  0
 12 25  1  0  0  0  0
 13 26  1  0  0  0  0
M  CHG  1  11   1
M  END
> <s_m_source_file>
AV-unprocessed.smi

> <i_m_source_file_index>
912

> <i_lp_mmshare_version>
43012

> <i_f3d_flags>
0

> <s_epik_input>
W0NIM11bTkhdW0NAQF0oW0NIM10pKEMoPU8pW05IMl0pYzFbY0hdW2NIXW5bY0hdW2NIXTE=

> <s_epik_cmdline>
J2VwaWtfcHl0aG9uJywgJy1waCcsICc3LjAnLCAnLXRuJywgJzgnLCAnLW1hJywgJzIwMCcsICctbWV0YWxfYmluZGluZycsICctaW1hZScsICc8aW5maWxlLm1hZT4nLCAnLW9tYWUnLCAnPG91dGZpbGUubWFlPic=

> <r_epik_Ionization_Penalty>
0.562542

> <r_epik_Ionization_Penalty_Charging>
0.554844

> <r_epik_Ionization_Penalty_Neutral>
0.00769834

> <r_epik_State_Penalty>
1.39075

> <r_epik_Charging_Adjusted_Penalty>
1.94559

> <i_epik_Tot_Q>
1

> <i_epik_Tot_abs_Q>
1

> <r_epik_Metal_State_Penalty>
1.55563

> <b_epik_Metal_Only>
0

> <s_lp_Force_Field>
OPLS_2005

> <r_lp_Energy>
18.1992

> <b_lp_Chiralities_Consistent>
1

> <s_lp_Variant>
AV-unprocessed.smi:912-6

> <Gold.Version>
5.8.1

> <Gold.Id.Protein>
6NUR|6NUR_protein|mol2

> <Gold.PLP.Fitness>
30.4324

> <Gold.PLP.PLP>
-18.7106

> <Gold.PLP.part.hbond>
-2.7430

> <Gold.PLP.part.metal>
0.0000

> <Gold.PLP.part.buried>
-2.2844

> <Gold.PLP.part.nonpolar>
-13.7064

> <Gold.PLP.part.repulsive>
0.1389

> <Gold.PLP.ligand.clash>
0.0000

> <Gold.PLP.ligand.torsion>
0.0925

> <Gold.PLP.Chemscore.Hbond>
3.9600

> <Gold.PLP.Chemscore.CHOScore>
0.0000

> <Gold.PLP.Chemscore.Metal>
0.0000

> <Gold.Chemscore.Hbonds>
donor molecule, donor type, donor heavy atom, donor atom, acceptor molecule, acceptor atom, score
      L1  H     2    17       P1  7948  1.00
      L1  H     6    21       P1 10747  0.77
      L1  H    11    27       P1 10186  1.95

> <Gold.PLP.Chemscore.Internal.Correction>
0.0268

> <Gold.Rescore>
     Score         DG    S(hbond)    S(metal)    S(lipo)     H(rot)  DE(clash)    DE(int)     intcor
     13.99     -14.12       2.78        0.00      34.43       1.82       0.01       0.12       ----

> <Gold.Chemscore.Fitness>
13.9863

> <Gold.Chemscore.DG>
-14.1210

> <Gold.Chemscore.ZeroCoef>
-5.4800

> <Gold.Chemscore.Hbond>
2.7781

> <Gold.Chemscore.Metal>
0.0000

> <Gold.Chemscore.Lipo>
34.4268

> <Gold.Chemscore.Internal_Hbond>
0.0000

> <Gold.Chemscore.DEClash>
0.0130

> <Gold.Chemscore.DEInternal>
0.1217

> <Gold.Chemscore.Rot>
1.8226

> <Gold.Chemscore.Internal.Correction>
   9.000000E+99

> <Gold.Chemscore.Hbonds>
donor molecule, donor type, donor heavy atom, donor atom, acceptor molecule, acceptor atom, score
      L1  H     2    17       P1  7948  0.97
      L1  H     6    21       P1 10747  0.74
      L1  H    11    27       P1 10186  0.72

> <Gold.Chemscore.Hbond.Weighted>
-9.2789

> <Gold.Chemscore.Metal.Weighted>
-0.0000

> <Gold.Chemscore.Lipo.Weighted>
-4.0279

> <Gold.Chemscore.Internal_Hbond.Weighted>
0.0000

> <Gold.Chemscore.DEClash.Weighted>
0.0130

> <Gold.Chemscore.DEInternal.Weighted>
0.1217

> <Gold.Chemscore.Rot.Weighted>
4.6659

> <Gold.Chemscore.Internal.Correction.Weighted>
   9.000000E+99

> <Gold.Protein.RotatedTorsions>
[ 6907 6896 6895 6894 ] final  161.69 input  -60.11 | X-H torsion
[ 7974 7965 7964 7962 ] final  159.52 input  175.53 | X-H torsion
[ 8008 7997 7996 7995 ] final -169.12 input   59.86 | X-H torsion
[ 10167 10162 10161 10158 ] final  169.47 input  -65.29 | X-H torsion
[ 10718 10713 10712 10709 ] final   40.87 input   66.30 | X-H torsion
[ 10763 10752 10751 10750 ] final  177.47 input  -60.55 | X-H torsion
[ 11005 11000 10999 10996 ] final -108.26 input  -57.11 | X-H torsion

> <Gold.Protein.ActiveResidues>
 VAL166  LYS551  ARG553  GLY616  TRP617  ASP618  TYR619  PRO620  LYS621  CYS622 
 ASP623  PHE694  ASN695  SER759  ASP760  ASP761  ALA762  ILE779  LEU786  VAL792 
 PHE793  MET794  SER795  GLU796  ALA797  LYS798  CYS799  TRP800  GLU811  SER814 

> <Gold.Protein.RotatedAtoms>
  151.9517  133.3668  159.4002 H   0  0  0  0  0  0  0  0  0  0  0  0  # atno 6907 bound_to 6896
  150.6979  134.4333  159.5268 H   0  0  0  0  0  0  0  0  0  0  0  0  # atno 6908 bound_to 6896
  152.2007  134.8590  160.0559 H   0  0  0  0  0  0  0  0  0  0  0  0  # atno 6909 bound_to 6896
  144.7786  139.7629  143.6269 H   0  0  0  0  0  0  0  0  0  0  0  0  # atno 7974 bound_to 7965
  155.9007  140.1040  157.1352 H   0  0  0  0  0  0  0  0  0  0  0  0  # atno 8008 bound_to 7997
  154.4026  140.1293  156.4496 H   0  0  0  0  0  0  0  0  0  0  0  0  # atno 8009 bound_to 7997
  155.7426  140.3466  155.5114 H   0  0  0  0  0  0  0  0  0  0  0  0  # atno 8010 bound_to 7997
  139.4993  144.3702  151.9732 H   0  0  0  0  0  0  0  0  0  0  0  0  # atno 10167 bound_to 10162
  157.3871  130.7786  149.7239 H   0  0  0  0  0  0  0  0  0  0  0  0  # atno 10718 bound_to 10713
  154.4950  135.2781  155.1467 H   0  0  0  0  0  0  0  0  0  0  0  0  # atno 10763 bound_to 10752
  154.3123  135.6226  153.5475 H   0  0  0  0  0  0  0  0  0  0  0  0  # atno 10764 bound_to 10752
  152.9893  135.5723  154.5379 H   0  0  0  0  0  0  0  0  0  0  0  0  # atno 10765 bound_to 10752
  141.0911  133.9053  157.2073 H   0  0  0  0  0  0  0  0  0  0  0  0  # atno 11005 bound_to 11000
  146.1980  139.5258  142.9762 LP  0  0  0  0  0  0  0  0  0  0  0  0  # atno 17320 bound_to 7965
  145.6115  141.0338  143.1964 LP  0  0  0  0  0  0  0  0  0  0  0  0  # atno 17321 bound_to 7965
  140.3138  144.3507  150.6027 LP  0  0  0  0  0  0  0  0  0  0  0  0  # atno 17342 bound_to 10162
  140.5777  143.2175  151.7485 LP  0  0  0  0  0  0  0  0  0  0  0  0  # atno 17343 bound_to 10162
  155.9789  130.4046  150.3618 LP  0  0  0  0  0  0  0  0  0  0  0  0  # atno 17370 bound_to 10713
  157.1729  131.0373  151.2786 LP  0  0  0  0  0  0  0  0  0  0  0  0  # atno 17371 bound_to 10713
  139.9737  135.0120  156.9577 LP  0  0  0  0  0  0  0  0  0  0  0  0  # atno 17394 bound_to 11000
  140.5250  134.0870  155.7301 LP  0  0  0  0  0  0  0  0  0  0  0  0  # atno 17395 bound_to 11000

$$$$
