AV-unprocessed.smi:244|AV-procd|sdf|1870|dock8
  -GOLD-   2262020513D 1   1.00000     0.00000
 Structure written by MMmdl.
 57 61  0  0  0  0  0  0  0  0  2 V2000
  145.7475  138.3397  153.0147 C   0  0  0  0  0  0  0  0  0  0  0  0
  144.5101  138.4576  153.8205 N   0  3  1  0  0  0  0  0  0  0  0  0
  143.7692  137.1771  153.9638 C   0  0  0  0  0  0  0  0  0  0  0  0
  144.4222  136.2395  154.9968 C   0  0  0  0  0  0  0  0  0  0  0  0
  144.5832  136.9530  156.3450 C   0  0  1  0  0  0  0  0  0  0  0  0
  145.2393  136.0927  157.2696 O   0  0  0  0  0  0  0  0  0  0  0  0
  145.3515  136.6914  158.5570 C   0  0  0  0  0  0  0  0  0  0  0  0
  146.1843  137.9793  158.4514 C   0  0  0  0  0  0  0  0  0  0  0  0
  145.6021  138.8838  157.4638 N   0  0  0  0  0  0  0  0  0  0  0  0
  146.2460  140.0718  157.4202 C   0  0  0  0  0  0  0  0  0  0  0  0
  145.6195  141.2035  157.8379 N   0  0  0  0  0  0  0  0  0  0  0  0
  146.2726  142.3698  157.8219 C   0  0  0  0  0  0  0  0  0  0  0  0
  147.5302  142.6173  157.4478 N   0  0  0  0  0  0  0  0  0  0  0  0
  148.1593  141.4794  157.0347 C   0  0  0  0  0  0  0  0  0  0  0  0
  147.5913  140.1766  156.9835 C   0  0  0  0  0  0  0  0  0  0  0  0
  148.5244  139.2640  156.5106 N   0  0  0  0  0  0  0  0  0  0  0  0
  149.5875  139.9888  156.2905 C   0  0  0  0  0  0  0  0  0  0  0  0
  149.4635  141.3258  156.5985 N   0  0  0  0  0  0  0  0  0  0  0  0
  150.4895  142.3489  156.4680 C   0  0  0  0  0  0  0  0  0  0  0  0
  150.7830  143.1311  157.7740 C   0  0  0  0  0  0  0  0  0  0  0  0
  149.6239  143.9085  158.0133 O   0  0  0  0  0  0  0  0  0  0  0  0
  151.0090  142.2072  158.9904 C   0  0  0  0  0  0  0  0  0  0  0  0
  151.3905  143.0020  160.2521 C   0  0  0  0  0  0  0  0  0  0  0  0
  152.5391  143.8014  159.9941 O   0  0  0  0  0  0  0  0  0  0  0  0
  152.3173  144.7780  158.9835 C   0  0  0  0  0  0  0  0  0  0  0  0
  151.9900  144.0866  157.6476 C   0  0  0  0  0  0  0  0  0  0  0  0
  145.4122  138.2418  156.1608 C   0  0  2  0  0  0  0  0  0  0  0  0
  144.7117  139.1519  155.1192 C   0  0  0  0  0  0  0  0  0  0  0  0
  146.4888  137.7021  153.4964 H   0  0  0  0  0  0  0  0  0  0  0  0
  146.1963  139.3209  152.8580 H   0  0  0  0  0  0  0  0  0  0  0  0
  145.5255  137.9189  152.0336 H   0  0  0  0  0  0  0  0  0  0  0  0
  142.7503  137.4070  154.2783 H   0  0  0  0  0  0  0  0  0  0  0  0
  143.6856  136.6818  152.9956 H   0  0  0  0  0  0  0  0  0  0  0  0
  143.8123  135.3443  155.1208 H   0  0  0  0  0  0  0  0  0  0  0  0
  145.3939  135.9004  154.6365 H   0  0  0  0  0  0  0  0  0  0  0  0
  143.5914  137.1985  156.7313 H   0  0  0  0  0  0  0  0  0  0  0  0
  144.3606  136.9008  158.9629 H   0  0  0  0  0  0  0  0  0  0  0  0
  145.8316  135.9873  159.2366 H   0  0  0  0  0  0  0  0  0  0  0  0
  146.2314  138.4718  159.4239 H   0  0  0  0  0  0  0  0  0  0  0  0
  147.2073  137.7283  158.1674 H   0  0  0  0  0  0  0  0  0  0  0  0
  145.7087  143.2264  158.1611 H   0  0  0  0  0  0  0  0  0  0  0  0
  150.5041  139.5631  155.9081 H   0  0  0  0  0  0  0  0  0  0  0  0
  151.3992  141.8658  156.1082 H   0  0  0  0  0  0  0  0  0  0  0  0
  150.1820  143.0376  155.6795 H   0  0  0  0  0  0  0  0  0  0  0  0
  149.3642  144.3178  157.2020 H   0  0  0  0  0  0  0  0  0  0  0  0
  150.1231  141.6000  159.1808 H   0  0  0  0  0  0  0  0  0  0  0  0
  151.8197  141.5100  158.7802 H   0  0  0  0  0  0  0  0  0  0  0  0
  150.5642  143.6296  160.5894 H   0  0  0  0  0  0  0  0  0  0  0  0
  151.6180  142.3167  161.0687 H   0  0  0  0  0  0  0  0  0  0  0  0
  151.5178  145.4564  159.2848 H   0  0  0  0  0  0  0  0  0  0  0  0
  153.2185  145.3822  158.8783 H   0  0  0  0  0  0  0  0  0  0  0  0
  152.8746  143.5292  157.3408 H   0  0  0  0  0  0  0  0  0  0  0  0
  151.8110  144.8314  156.8713 H   0  0  0  0  0  0  0  0  0  0  0  0
  146.3988  137.9665  155.7847 H   0  0  0  0  0  0  0  0  0  0  0  0
  145.2763  140.0678  154.9415 H   0  0  0  0  0  0  0  0  0  0  0  0
  143.7375  139.4625  155.4998 H   0  0  0  0  0  0  0  0  0  0  0  0
  143.9083  139.0620  153.2794 H   0  0  0  0  0  0  0  0  0  0  0  0
  1  2  1  0  0  0  0
  1 29  1  0  0  0  0
  1 30  1  0  0  0  0
  1 31  1  0  0  0  0
  2 28  1  0  0  0  0
  2  3  1  0  0  0  0
  2 57  1  0  0  0  0
  3  4  1  0  0  0  0
  3 32  1  0  0  0  0
  3 33  1  0  0  0  0
  4  5  1  0  0  0  0
  4 34  1  0  0  0  0
  4 35  1  0  0  0  0
  5 27  1  0  0  0  0
  5  6  1  0  0  0  0
  5 36  1  0  0  0  0
  6  7  1  0  0  0  0
  7  8  1  0  0  0  0
  7 37  1  0  0  0  0
  7 38  1  0  0  0  0
  8  9  1  0  0  0  0
  8 39  1  0  0  0  0
  8 40  1  0  0  0  0
  9 10  1  0  0  0  0
  9 27  1  0  0  0  0
 10 15  1  0  0  0  0
 10 11  2  0  0  0  0
 11 12  1  0  0  0  0
 12 13  2  0  0  0  0
 12 41  1  0  0  0  0
 13 14  1  0  0  0  0
 14 18  1  0  0  0  0
 14 15  2  0  0  0  0
 15 16  1  0  0  0  0
 16 17  2  0  0  0  0
 17 18  1  0  0  0  0
 17 42  1  0  0  0  0
 18 19  1  0  0  0  0
 19 20  1  0  0  0  0
 19 43  1  0  0  0  0
 19 44  1  0  0  0  0
 20 26  1  0  0  0  0
 20 21  1  0  0  0  0
 20 22  1  0  0  0  0
 21 45  1  0  0  0  0
 22 23  1  0  0  0  0
 22 46  1  0  0  0  0
 22 47  1  0  0  0  0
 23 24  1  0  0  0  0
 23 48  1  0  0  0  0
 23 49  1  0  0  0  0
 24 25  1  0  0  0  0
 25 26  1  0  0  0  0
 25 50  1  0  0  0  0
 25 51  1  0  0  0  0
 26 52  1  0  0  0  0
 26 53  1  0  0  0  0
 27 28  1  0  0  0  0
 27 54  1  0  0  0  0
 28 55  1  0  0  0  0
 28 56  1  0  0  0  0
M  CHG  1   2   1
M  END
> <s_m_source_file>
AV-unprocessed.smi

> <i_m_source_file_index>
244

> <i_lp_mmshare_version>
43012

> <i_f3d_flags>
0

> <s_epik_input>
W0NIMl0xW0NIMl1OKFtDSDNdKVtDSDJdW0NAQEhdKFtDQEhdMTIpTihbQ0gyXVtDSDJdTzIpYyhuW2NIXW4zKWMoYzM0KW5bY0hdbjRbQ0gyXUM1KFtPSF0pW0NIMl1bQ0gyXU9bQ0gyXVtDSDJdNQ==

> <s_epik_cmdline>
J2VwaWtfcHl0aG9uJywgJy1waCcsICc3LjAnLCAnLXRuJywgJzgnLCAnLW1hJywgJzIwMCcsICctbWV0YWxfYmluZGluZycsICctaW1hZScsICc8aW5maWxlLm1hZT4nLCAnLW9tYWUnLCAnPG91dGZpbGUubWFlPic=

> <r_lp_tautomer_probability>
1

> <r_epik_Ionization_Penalty>
0.0136215

> <r_epik_Ionization_Penalty_Charging>
0.0131385

> <r_epik_Ionization_Penalty_Neutral>
0.000483022

> <r_epik_State_Penalty>
0.0104001

> <r_epik_Charging_Adjusted_Penalty>
0.0235387

> <i_epik_Tot_Q>
1

> <i_epik_Tot_abs_Q>
1

> <r_epik_Metal_State_Penalty>
0.0104469

> <b_epik_Metal_Only>
0

> <s_lp_Force_Field>
OPLS_2005

> <r_lp_Energy>
43.6006

> <b_lp_Chiralities_Consistent>
1

> <s_lp_Variant>
AV-unprocessed.smi:244-7

> <Gold.Version>
5.8.1

> <Gold.Id.Protein>
6NUR|6NUR_protein|mol2

> <Gold.PLP.Fitness>
42.3272

> <Gold.PLP.PLP>
-33.4979

> <Gold.PLP.part.hbond>
-2.1080

> <Gold.PLP.part.metal>
0.0000

> <Gold.PLP.part.buried>
-2.8088

> <Gold.PLP.part.nonpolar>
-28.8626

> <Gold.PLP.part.repulsive>
0.2368

> <Gold.PLP.ligand.clash>
0.0000

> <Gold.PLP.ligand.torsion>
0.1380

> <Gold.PLP.Chemscore.Hbond>
3.0000

> <Gold.PLP.Chemscore.CHOScore>
0.0000

> <Gold.PLP.Chemscore.Metal>
0.0000

> <Gold.Chemscore.Hbonds>
donor molecule, donor type, donor heavy atom, donor atom, acceptor molecule, acceptor atom, score
      L1  H     2    57       P1 10175  2.00
      L1  H    21    45       P1  8028  0.80

> <Gold.PLP.Chemscore.Internal.Correction>
0.1053

> <Gold.Rescore>
     Score         DG    S(hbond)    S(metal)    S(lipo)     H(rot)  DE(clash)    DE(int)     intcor
     14.65     -15.87       1.64        0.00      87.71       2.09       0.17       1.05       ----

> <Gold.Chemscore.Fitness>
14.6474

> <Gold.Chemscore.DG>
-15.8699

> <Gold.Chemscore.ZeroCoef>
-5.4800

> <Gold.Chemscore.Hbond>
1.6409

> <Gold.Chemscore.Metal>
0.0000

> <Gold.Chemscore.Lipo>
87.7131

> <Gold.Chemscore.Internal_Hbond>
0.0000

> <Gold.Chemscore.DEClash>
0.1701

> <Gold.Chemscore.DEInternal>
1.0525

> <Gold.Chemscore.Rot>
2.0911

> <Gold.Chemscore.Internal.Correction>
   9.000000E+99

> <Gold.Chemscore.Hbonds>
donor molecule, donor type, donor heavy atom, donor atom, acceptor molecule, acceptor atom, score
      L1  H     2    57       P1 10175  0.95
      L1  H    21    45       P1  8028  0.12

> <Gold.Chemscore.Hbond.Weighted>
-5.4806

> <Gold.Chemscore.Metal.Weighted>
-0.0000

> <Gold.Chemscore.Lipo.Weighted>
-10.2624

> <Gold.Chemscore.Internal_Hbond.Weighted>
0.0000

> <Gold.Chemscore.DEClash.Weighted>
0.1701

> <Gold.Chemscore.DEInternal.Weighted>
1.0525

> <Gold.Chemscore.Rot.Weighted>
5.3531

> <Gold.Chemscore.Internal.Correction.Weighted>
   9.000000E+99

> <Gold.Protein.RotatedTorsions>
[ 6907 6896 6895 6894 ] final -169.60 input  -60.11 | X-H torsion
[ 7974 7965 7964 7962 ] final -161.91 input  175.53 | X-H torsion
[ 8008 7997 7996 7995 ] final   11.16 input   59.86 | X-H torsion
[ 10167 10162 10161 10158 ] final  120.50 input  -65.29 | X-H torsion
[ 10718 10713 10712 10709 ] final  -25.93 input   66.30 | X-H torsion
[ 10763 10752 10751 10750 ] final -162.85 input  -60.55 | X-H torsion
[ 11005 11000 10999 10996 ] final   81.72 input  -57.11 | X-H torsion

> <Gold.Protein.ActiveResidues>
 VAL166  LYS551  ARG553  GLY616  TRP617  ASP618  TYR619  PRO620  LYS621  CYS622 
 ASP623  PHE694  ASN695  SER759  ASP760  ASP761  ALA762  ILE779  LEU786  VAL792 
 PHE793  MET794  SER795  GLU796  ALA797  LYS798  CYS799  TRP800  GLU811  SER814 

> <Gold.Protein.RotatedAtoms>
  151.4942  133.3518  159.2858 H   0  0  0  0  0  0  0  0  0  0  0  0  # atno 6907 bound_to 6896
  150.8815  134.8209  159.7239 H   0  0  0  0  0  0  0  0  0  0  0  0  # atno 6908 bound_to 6896
  152.4765  134.4840  159.9726 H   0  0  0  0  0  0  0  0  0  0  0  0  # atno 6909 bound_to 6896
  144.7375  140.3330  143.6149 H   0  0  0  0  0  0  0  0  0  0  0  0  # atno 7974 bound_to 7965
  154.8032  140.2855  155.5906 H   0  0  0  0  0  0  0  0  0  0  0  0  # atno 8008 bound_to 7997
  156.2979  140.2582  156.2834 H   0  0  0  0  0  0  0  0  0  0  0  0  # atno 8009 bound_to 7997
  154.9534  140.0379  157.2144 H   0  0  0  0  0  0  0  0  0  0  0  0  # atno 8010 bound_to 7997
  139.5978  144.7047  151.3135 H   0  0  0  0  0  0  0  0  0  0  0  0  # atno 10167 bound_to 10162
  156.4579  130.4497  149.6948 H   0  0  0  0  0  0  0  0  0  0  0  0  # atno 10718 bound_to 10713
  154.7176  135.3019  154.9099 H   0  0  0  0  0  0  0  0  0  0  0  0  # atno 10763 bound_to 10752
  153.9981  135.6710  153.4761 H   0  0  0  0  0  0  0  0  0  0  0  0  # atno 10764 bound_to 10752
  153.0806  135.5011  154.8412 H   0  0  0  0  0  0  0  0  0  0  0  0  # atno 10765 bound_to 10752
  139.9088  134.8018  156.2079 H   0  0  0  0  0  0  0  0  0  0  0  0  # atno 11005 bound_to 11000
  145.7453  139.1776  143.2353 LP  0  0  0  0  0  0  0  0  0  0  0  0  # atno 17320 bound_to 7965
  146.1103  140.7437  142.9506 LP  0  0  0  0  0  0  0  0  0  0  0  0  # atno 17321 bound_to 7965
  140.7226  143.7095  150.7781 LP  0  0  0  0  0  0  0  0  0  0  0  0  # atno 17342 bound_to 10162
  140.0664  143.5104  152.2602 LP  0  0  0  0  0  0  0  0  0  0  0  0  # atno 17343 bound_to 10162
  156.3747  130.7549  151.2535 LP  0  0  0  0  0  0  0  0  0  0  0  0  # atno 17370 bound_to 10713
  157.7499  131.0313  150.4174 LP  0  0  0  0  0  0  0  0  0  0  0  0  # atno 17371 bound_to 10713
  141.0484  133.6901  156.1726 LP  0  0  0  0  0  0  0  0  0  0  0  0  # atno 17394 bound_to 11000
  140.6848  134.4728  157.5589 LP  0  0  0  0  0  0  0  0  0  0  0  0  # atno 17395 bound_to 11000

$$$$
