AV-unprocessed.smi:109|AV-procd|sdf|1045|dock7
  -GOLD-   2262018 83D 1   1.00000     0.00000
 Structure written by MMmdl.
 58 61  0  0  0  0  0  0  0  0  1 V2000
  148.4015  142.0072  155.4233 O   0  0  0  0  0  0  0  0  0  0  0  0
  148.5005  141.1180  156.5146 C   0  0  0  0  0  0  0  0  0  0  0  0
  149.7359  140.2170  156.3447 C   0  0  0  0  0  0  0  0  0  0  0  0
  150.6328  140.1225  157.6038 C   0  0  2  0  0  0  0  0  0  0  0  0
  150.0043  139.2357  158.5861 N   0  0  0  0  0  0  0  0  0  0  0  0
  149.8564  137.9086  158.3742 C   0  0  0  0  0  0  0  0  0  0  0  0
  150.5096  137.2708  157.3680 N   0  0  0  0  0  0  0  0  0  0  0  0
  150.3363  135.9588  157.1815 C   0  0  0  0  0  0  0  0  0  0  0  0
  149.5718  135.1108  157.8735 N   0  0  0  0  0  0  0  0  0  0  0  0
  148.9169  135.7477  158.8868 C   0  0  0  0  0  0  0  0  0  0  0  0
  149.0034  137.1322  159.2001 C   0  0  0  0  0  0  0  0  0  0  0  0
  148.1935  137.4189  160.2921 N   0  0  0  0  0  0  0  0  0  0  0  0
  147.6626  136.2663  160.6029 C   0  0  0  0  0  0  0  0  0  0  0  0
  148.0453  135.2088  159.8060 N   0  0  0  0  0  0  0  0  0  0  0  0
  147.6252  133.7766  159.8814 C   0  0  1  0  0  0  0  0  0  0  0  0
  146.7383  133.6474  160.9420 O   0  0  0  0  0  0  0  0  0  0  0  0
  145.9378  132.5027  160.6993 C   0  0  1  0  0  0  0  0  0  0  0  0
  144.6816  132.5449  161.5824 C   0  0  0  0  0  0  0  0  0  0  0  0
  143.8947  131.3954  161.3567 O   0  0  0  0  0  0  0  0  0  0  0  0
  145.6377  132.6154  159.1983 C   0  0  2  0  0  0  0  0  0  0  0  0
  145.4615  131.3278  158.6414 O   0  0  0  0  0  0  0  0  0  0  0  0
  146.8825  133.2897  158.6187 C   0  0  1  0  0  0  0  0  0  0  0  0
  146.5254  134.3245  157.7187 O   0  0  0  0  0  0  0  0  0  0  0  0
  150.9234  141.4998  158.2669 C   0  0  0  0  0  0  0  0  0  0  0  0
  151.3026  142.6043  157.2484 C   0  0  0  0  0  0  0  0  0  0  0  0
  151.6268  143.9451  157.9282 C   0  0  0  0  0  0  0  0  0  0  0  0
  152.7394  143.7919  158.9718 C   0  0  0  0  0  0  0  0  0  0  0  0
  152.3654  142.7224  160.0047 C   0  0  0  0  0  0  0  0  0  0  0  0
  152.0510  141.3808  159.3248 C   0  0  0  0  0  0  0  0  0  0  0  0
  148.5366  133.2130  160.0867 H   0  0  0  0  0  0  0  0  0  0  0  0
  146.5310  131.6068  160.8975 H   0  0  0  0  0  0  0  0  0  0  0  0
  144.7487  133.2267  159.0330 H   0  0  0  0  0  0  0  0  0  0  0  0
  147.5314  132.5802  158.1027 H   0  0  0  0  0  0  0  0  0  0  0  0
  148.4779  142.8914  155.7477 H   0  0  0  0  0  0  0  0  0  0  0  0
  148.5602  141.7036  157.4320 H   0  0  0  0  0  0  0  0  0  0  0  0
  147.5914  140.5182  156.5658 H   0  0  0  0  0  0  0  0  0  0  0  0
  149.3655  139.2281  156.0808 H   0  0  0  0  0  0  0  0  0  0  0  0
  150.3284  140.5610  155.4957 H   0  0  0  0  0  0  0  0  0  0  0  0
  151.5972  139.7243  157.2893 H   0  0  0  0  0  0  0  0  0  0  0  0
  149.6907  139.6856  159.4343 H   0  0  0  0  0  0  0  0  0  0  0  0
  150.8894  135.5273  156.3604 H   0  0  0  0  0  0  0  0  0  0  0  0
  146.9698  136.1566  161.4247 H   0  0  0  0  0  0  0  0  0  0  0  0
  144.9403  132.6290  162.6384 H   0  0  0  0  0  0  0  0  0  0  0  0
  144.0722  133.4122  161.3270 H   0  0  0  0  0  0  0  0  0  0  0  0
  143.2661  131.5885  160.6780 H   0  0  0  0  0  0  0  0  0  0  0  0
  144.6201  131.2973  158.2120 H   0  0  0  0  0  0  0  0  0  0  0  0
  145.5881  134.4393  157.7516 H   0  0  0  0  0  0  0  0  0  0  0  0
  150.0157  141.8236  158.7791 H   0  0  0  0  0  0  0  0  0  0  0  0
  152.1581  142.2803  156.6542 H   0  0  0  0  0  0  0  0  0  0  0  0
  150.4874  142.7846  156.5496 H   0  0  0  0  0  0  0  0  0  0  0  0
  151.9212  144.6794  157.1780 H   0  0  0  0  0  0  0  0  0  0  0  0
  150.7288  144.3372  158.4072 H   0  0  0  0  0  0  0  0  0  0  0  0
  153.6720  143.5171  158.4775 H   0  0  0  0  0  0  0  0  0  0  0  0
  152.9195  144.7453  159.4694 H   0  0  0  0  0  0  0  0  0  0  0  0
  153.1807  142.5948  160.7176 H   0  0  0  0  0  0  0  0  0  0  0  0
  151.5000  143.0531  160.5803 H   0  0  0  0  0  0  0  0  0  0  0  0
  151.7822  140.6613  160.0981 H   0  0  0  0  0  0  0  0  0  0  0  0
  152.9554  140.9946  158.8524 H   0  0  0  0  0  0  0  0  0  0  0  0
  1  2  1  0  0  0  0
  1 34  1  0  0  0  0
  2  3  1  0  0  0  0
  2 35  1  0  0  0  0
  2 36  1  0  0  0  0
  3  4  1  0  0  0  0
  3 37  1  0  0  0  0
  3 38  1  0  0  0  0
  4  5  1  0  0  0  0
  4 24  1  0  0  0  0
  4 39  1  0  0  0  0
  5  6  1  0  0  0  0
  5 40  1  0  0  0  0
  6 11  1  0  0  0  0
  6  7  2  0  0  0  0
  7  8  1  0  0  0  0
  8  9  2  0  0  0  0
  8 41  1  0  0  0  0
  9 10  1  0  0  0  0
 10 14  1  0  0  0  0
 10 11  2  0  0  0  0
 11 12  1  0  0  0  0
 12 13  2  0  0  0  0
 13 14  1  0  0  0  0
 13 42  1  0  0  0  0
 14 15  1  0  0  0  0
 15 30  1  0  0  0  0
 15 22  1  0  0  0  0
 15 16  1  0  0  0  0
 16 17  1  0  0  0  0
 17 31  1  0  0  0  0
 17 18  1  0  0  0  0
 17 20  1  0  0  0  0
 18 19  1  0  0  0  0
 18 43  1  0  0  0  0
 18 44  1  0  0  0  0
 19 45  1  0  0  0  0
 20 32  1  0  0  0  0
 20 21  1  0  0  0  0
 20 22  1  0  0  0  0
 21 46  1  0  0  0  0
 22 33  1  0  0  0  0
 22 23  1  0  0  0  0
 23 47  1  0  0  0  0
 24 29  1  0  0  0  0
 24 25  1  0  0  0  0
 24 48  1  0  0  0  0
 25 26  1  0  0  0  0
 25 49  1  0  0  0  0
 25 50  1  0  0  0  0
 26 27  1  0  0  0  0
 26 51  1  0  0  0  0
 26 52  1  0  0  0  0
 27 28  1  0  0  0  0
 27 53  1  0  0  0  0
 27 54  1  0  0  0  0
 28 29  1  0  0  0  0
 28 55  1  0  0  0  0
 28 56  1  0  0  0  0
 29 57  1  0  0  0  0
 29 58  1  0  0  0  0
M  END
> <s_m_source_file>
AV-unprocessed.smi

> <i_m_source_file_index>
109

> <i_lp_mmshare_version>
43012

> <i_f3d_flags>
0

> <s_epik_input>
W0NIMl0xW0NIMl1bQ0gyXVtDSDJdW0NIMl1bQ0hdMVtDQEhdKFtDSDJdW0NIMl1bT0hdKVtOSF1jKG5bY0hdbjIpYyhjMjMpbltjSF1uM1tDQEBIXTRPW0NASF0oW0NIMl1bT0hdKVtDQEBIXShbT0hdKVtDQEhdNFtPSF0=

> <s_epik_cmdline>
J2VwaWtfcHl0aG9uJywgJy1waCcsICc3LjAnLCAnLXRuJywgJzgnLCAnLW1hJywgJzIwMCcsICctbWV0YWxfYmluZGluZycsICctaW1hZScsICc8aW5maWxlLm1hZT4nLCAnLW9tYWUnLCAnPG91dGZpbGUubWFlPic=

> <r_lp_tautomer_probability>
1

> <r_epik_Ionization_Penalty>
0.000793976

> <r_epik_Ionization_Penalty_Charging>
0

> <r_epik_Ionization_Penalty_Neutral>
0.000793976

> <r_epik_State_Penalty>
-0

> <r_epik_Charging_Adjusted_Penalty>
0

> <i_epik_Tot_Q>
0

> <i_epik_Tot_abs_Q>
0

> <r_epik_Metal_State_Penalty>
-0

> <b_epik_Metal_Only>
0

> <s_epik_Chemistry_Notes>
This compound contains an acetal/aminal-like group ( X-CH(R)-Y where X, Y are N, S, or O) that may be acid/base labile, releasing an aldehyde.

> <s_lp_Force_Field>
OPLS_2005

> <r_lp_Energy>
53.6553

> <b_lp_Chiralities_Consistent>
1

> <s_lp_Variant>
AV-unprocessed.smi:109-15

> <Gold.Version>
5.8.1

> <Gold.Id.Protein>
6NUR|6NUR_protein|mol2

> <Gold.PLP.Fitness>
42.8284

> <Gold.PLP.PLP>
-36.6371

> <Gold.PLP.part.hbond>
-5.0000

> <Gold.PLP.part.metal>
0.0000

> <Gold.PLP.part.buried>
-4.7710

> <Gold.PLP.part.nonpolar>
-28.2895

> <Gold.PLP.part.repulsive>
0.2137

> <Gold.PLP.ligand.clash>
0.0000

> <Gold.PLP.ligand.torsion>
0.7542

> <Gold.PLP.Chemscore.Hbond>
2.5101

> <Gold.PLP.Chemscore.CHOScore>
0.0000

> <Gold.PLP.Chemscore.Metal>
0.0000

> <Gold.Chemscore.Hbonds>
donor molecule, donor type, donor heavy atom, donor atom, acceptor molecule, acceptor atom, score
      L1  H     1    34       P1  8028  1.00
      P1  H  6896  6908       L1     9  0.30
      P1  H  6931  6943       L1    12  0.58
      P1  H  6934  6947       L1    12  0.61

> <Gold.PLP.Chemscore.Internal.Correction>
0.1695

> <Gold.Rescore>
     Score         DG    S(hbond)    S(metal)    S(lipo)     H(rot)  DE(clash)    DE(int)     intcor
      6.73      -8.53       2.06        0.00      86.87       5.47       0.10       1.70       ----

> <Gold.Chemscore.Fitness>
6.7254

> <Gold.Chemscore.DG>
-8.5309

> <Gold.Chemscore.ZeroCoef>
-5.4800

> <Gold.Chemscore.Hbond>
2.0601

> <Gold.Chemscore.Metal>
0.0000

> <Gold.Chemscore.Lipo>
86.8683

> <Gold.Chemscore.Internal_Hbond>
0.0000

> <Gold.Chemscore.DEClash>
0.1023

> <Gold.Chemscore.DEInternal>
1.7032

> <Gold.Chemscore.Rot>
5.4662

> <Gold.Chemscore.Internal.Correction>
   9.000000E+99

> <Gold.Chemscore.Hbonds>
donor molecule, donor type, donor heavy atom, donor atom, acceptor molecule, acceptor atom, score
      L1  H     1    34       P1  8028  0.98
      P1  H  6896  6908       L1     9  0.01
      P1  H  6931  6943       L1    12  0.42
      P1  H  6934  6947       L1    12  0.54

> <Gold.Chemscore.Hbond.Weighted>
-6.8808

> <Gold.Chemscore.Metal.Weighted>
-0.0000

> <Gold.Chemscore.Lipo.Weighted>
-10.1636

> <Gold.Chemscore.Internal_Hbond.Weighted>
0.0000

> <Gold.Chemscore.DEClash.Weighted>
0.1023

> <Gold.Chemscore.DEInternal.Weighted>
1.7032

> <Gold.Chemscore.Rot.Weighted>
13.9935

> <Gold.Chemscore.Internal.Correction.Weighted>
   9.000000E+99

> <Gold.Protein.RotatedTorsions>
[ 6907 6896 6895 6894 ] final  134.62 input  -60.11 | X-H torsion
[ 7974 7965 7964 7962 ] final -158.22 input  175.53 | X-H torsion
[ 8008 7997 7996 7995 ] final  171.19 input   59.86 | X-H torsion
[ 10167 10162 10161 10158 ] final  -45.50 input  -65.29 | X-H torsion
[ 10718 10713 10712 10709 ] final   21.24 input   66.30 | X-H torsion
[ 10763 10752 10751 10750 ] final  -39.74 input  -60.55 | X-H torsion
[ 11005 11000 10999 10996 ] final -143.01 input  -57.11 | X-H torsion

> <Gold.Protein.ActiveResidues>
 VAL166  LYS551  ARG553  GLY616  TRP617  ASP618  TYR619  PRO620  LYS621  CYS622 
 ASP623  PHE694  ASN695  SER759  ASP760  ASP761  ALA762  ILE779  LEU786  VAL792 
 PHE793  MET794  SER795  GLU796  ALA797  LYS798  CYS799  TRP800  GLU811  SER814 

> <Gold.Protein.RotatedAtoms>
  152.3094  133.5736  159.5670 H   0  0  0  0  0  0  0  0  0  0  0  0  # atno 6907 bound_to 6896
  150.7315  134.0175  159.3699 H   0  0  0  0  0  0  0  0  0  0  0  0  # atno 6908 bound_to 6896
  151.8069  135.0693  160.0458 H   0  0  0  0  0  0  0  0  0  0  0  0  # atno 6909 bound_to 6896
  144.7515  140.3859  143.6044 H   0  0  0  0  0  0  0  0  0  0  0  0  # atno 7974 bound_to 7965
  156.1295  140.1518  156.9087 H   0  0  0  0  0  0  0  0  0  0  0  0  # atno 8008 bound_to 7997
  154.4897  140.0855  156.7607 H   0  0  0  0  0  0  0  0  0  0  0  0  # atno 8009 bound_to 7997
  155.4283  140.3426  155.4280 H   0  0  0  0  0  0  0  0  0  0  0  0  # atno 8010 bound_to 7997
  140.6855  143.2876  151.3648 H   0  0  0  0  0  0  0  0  0  0  0  0  # atno 10167 bound_to 10162
  157.1357  130.6610  149.5965 H   0  0  0  0  0  0  0  0  0  0  0  0  # atno 10718 bound_to 10713
  153.9344  135.6768  153.4745 H   0  0  0  0  0  0  0  0  0  0  0  0  # atno 10763 bound_to 10752
  153.0963  135.4850  154.8781 H   0  0  0  0  0  0  0  0  0  0  0  0  # atno 10764 bound_to 10752
  154.7410  135.3161  154.8685 H   0  0  0  0  0  0  0  0  0  0  0  0  # atno 10765 bound_to 10752
  140.8168  134.2678  157.4917 H   0  0  0  0  0  0  0  0  0  0  0  0  # atno 11005 bound_to 11000
  145.6928  139.1643  143.2637 LP  0  0  0  0  0  0  0  0  0  0  0  0  # atno 17320 bound_to 7965
  146.1471  140.6978  142.9340 LP  0  0  0  0  0  0  0  0  0  0  0  0  # atno 17321 bound_to 7965
  139.6211  144.0905  152.2392 LP  0  0  0  0  0  0  0  0  0  0  0  0  # atno 17342 bound_to 10162
  140.0350  144.6052  150.7457 LP  0  0  0  0  0  0  0  0  0  0  0  0  # atno 17343 bound_to 10162
  155.9798  130.4795  150.6739 LP  0  0  0  0  0  0  0  0  0  0  0  0  # atno 17370 bound_to 10713
  157.4352  131.0854  151.0999 LP  0  0  0  0  0  0  0  0  0  0  0  0  # atno 17371 bound_to 10713
  139.8710  134.9514  156.4083 LP  0  0  0  0  0  0  0  0  0  0  0  0  # atno 17394 bound_to 11000
  140.9140  133.7691  155.9826 LP  0  0  0  0  0  0  0  0  0  0  0  0  # atno 17395 bound_to 11000

$$$$
