AV-unprocessed.smi:1974|AV-procd|sdf|7980|dock6
  -GOLD-   2272010163D 1   1.00000     0.00000
 Structure written by MMmdl.
 34 35  0  0  0  0  0  0  0  0  1 V2000
  151.0906  138.4659  156.0376 C   0  0  0  0  0  0  0  0  0  0  0  0
  150.3246  139.7420  155.6554 C   0  0  2  0  0  0  0  0  0  0  0  0
  150.1007  139.8287  154.1331 C   0  0  0  0  0  0  0  0  0  0  0  0
  149.0293  140.7430  153.7797 N   0  0  0  0  0  0  0  0  0  0  0  0
  148.9953  142.1157  153.9095 C   0  0  0  0  0  0  0  0  0  0  0  0
  147.7823  142.5375  153.4455 C   0  0  0  0  0  0  0  0  0  0  0  0
  147.1363  141.3341  153.0461 C   0  0  0  0  0  0  0  0  0  0  0  0
  147.8856  140.2620  153.2465 N   0  0  0  0  0  0  0  0  0  0  0  0
  151.0558  140.9185  156.1222 N   0  0  0  0  0  0  0  0  0  0  0  0
  150.4999  142.0329  156.6211 C   0  0  0  0  0  0  0  0  0  0  0  0
  149.2834  142.1945  156.7251 O   0  0  0  0  0  0  0  0  0  0  0  0
  151.4736  143.1380  157.0471 C   0  0  0  0  0  0  0  0  0  0  0  0
  151.9977  142.9355  158.3981 N   0  0  0  0  0  0  0  0  0  0  0  0
  152.1490  144.0833  159.2825 C   0  0  0  0  0  0  0  0  0  0  0  0
  152.3224  143.5552  160.7079 C   0  0  0  0  0  0  0  0  0  0  0  0
  152.9531  141.8691  160.5922 S   0  0  0  0  0  0  0  0  0  0  0  0
  152.4223  141.7061  158.8846 C   0  0  0  0  0  0  0  0  0  0  0  0
  152.4524  140.6321  158.2862 O   0  0  0  0  0  0  0  0  0  0  0  0
  150.5543  137.5749  155.7103 H   0  0  0  0  0  0  0  0  0  0  0  0
  151.2203  138.3897  157.1177 H   0  0  0  0  0  0  0  0  0  0  0  0
  152.0807  138.4452  155.5809 H   0  0  0  0  0  0  0  0  0  0  0  0
  149.3475  139.7077  156.1416 H   0  0  0  0  0  0  0  0  0  0  0  0
  151.0140  140.1461  153.6278 H   0  0  0  0  0  0  0  0  0  0  0  0
  149.8507  138.8451  153.7326 H   0  0  0  0  0  0  0  0  0  0  0  0
  149.8267  142.6708  154.3182 H   0  0  0  0  0  0  0  0  0  0  0  0
  147.4124  143.5511  153.3978 H   0  0  0  0  0  0  0  0  0  0  0  0
  146.1523  141.2086  152.6191 H   0  0  0  0  0  0  0  0  0  0  0  0
  152.0631  140.8777  156.0679 H   0  0  0  0  0  0  0  0  0  0  0  0
  152.3051  143.1939  156.3419 H   0  0  0  0  0  0  0  0  0  0  0  0
  150.9565  144.0966  156.9895 H   0  0  0  0  0  0  0  0  0  0  0  0
  153.0343  144.6412  158.9745 H   0  0  0  0  0  0  0  0  0  0  0  0
  151.2924  144.7550  159.2128 H   0  0  0  0  0  0  0  0  0  0  0  0
  152.9839  144.1843  161.3040 H   0  0  0  0  0  0  0  0  0  0  0  0
  151.3555  143.5178  161.2108 H   0  0  0  0  0  0  0  0  0  0  0  0
  1  2  1  0  0  0  0
  1 19  1  0  0  0  0
  1 20  1  0  0  0  0
  1 21  1  0  0  0  0
  2  3  1  0  0  0  0
  2  9  1  0  0  0  0
  2 22  1  0  0  0  0
  3  4  1  0  0  0  0
  3 23  1  0  0  0  0
  3 24  1  0  0  0  0
  4  8  1  0  0  0  0
  4  5  1  0  0  0  0
  5  6  2  0  0  0  0
  5 25  1  0  0  0  0
  6  7  1  0  0  0  0
  6 26  1  0  0  0  0
  7  8  2  0  0  0  0
  7 27  1  0  0  0  0
  9 10  1  0  0  0  0
  9 28  1  0  0  0  0
 10 11  2  0  0  0  0
 10 12  1  0  0  0  0
 12 13  1  0  0  0  0
 12 29  1  0  0  0  0
 12 30  1  0  0  0  0
 13 17  1  0  0  0  0
 13 14  1  0  0  0  0
 14 15  1  0  0  0  0
 14 31  1  0  0  0  0
 14 32  1  0  0  0  0
 15 16  1  0  0  0  0
 15 33  1  0  0  0  0
 15 34  1  0  0  0  0
 16 17  1  0  0  0  0
 17 18  2  0  0  0  0
M  END
> <s_m_source_file>
AV-unprocessed.smi

> <i_m_source_file_index>
1974

> <i_lp_mmshare_version>
43012

> <i_f3d_flags>
0

> <s_epik_input>
bjFbY0hdW2NIXVtjSF1uMVtDSDJdW0NAQEhdKFtDSDNdKVtOSF1DKD1PKVtDSDJdTjJbQ0gyXVtDSDJdU0MyPU8=

> <s_epik_cmdline>
J2VwaWtfcHl0aG9uJywgJy1waCcsICc3LjAnLCAnLXRuJywgJzgnLCAnLW1hJywgJzIwMCcsICctbWV0YWxfYmluZGluZycsICctaW1hZScsICc8aW5maWxlLm1hZT4nLCAnLW9tYWUnLCAnPG91dGZpbGUubWFlPic=

> <r_lp_tautomer_probability>
1

> <r_epik_Ionization_Penalty>
0.000283364

> <r_epik_Ionization_Penalty_Charging>
0

> <r_epik_Ionization_Penalty_Neutral>
0.000283364

> <r_epik_State_Penalty>
-0

> <r_epik_Charging_Adjusted_Penalty>
0

> <i_epik_Tot_Q>
0

> <i_epik_Tot_abs_Q>
0

> <r_epik_Metal_State_Penalty>
-0

> <b_epik_Metal_Only>
0

> <s_lp_Force_Field>
OPLS_2005

> <r_lp_Energy>
2.8686

> <b_lp_Chiralities_Consistent>
1

> <s_lp_Variant>
AV-unprocessed.smi:1974-1

> <Gold.Version>
5.8.1

> <Gold.Id.Protein>
6NUR|6NUR_protein|mol2

> <Gold.PLP.Fitness>
42.5343

> <Gold.PLP.PLP>
-37.9324

> <Gold.PLP.part.hbond>
-1.0000

> <Gold.PLP.part.metal>
0.0000

> <Gold.PLP.part.buried>
-0.2653

> <Gold.PLP.part.nonpolar>
-36.6346

> <Gold.PLP.part.repulsive>
0.3971

> <Gold.PLP.ligand.clash>
0.0000

> <Gold.PLP.ligand.torsion>
1.1387

> <Gold.PLP.Chemscore.Hbond>
0.4137

> <Gold.PLP.Chemscore.CHOScore>
1.8648

> <Gold.PLP.Chemscore.Metal>
0.0000

> <Gold.Chemscore.Hbonds>
donor molecule, donor type, donor heavy atom, donor atom, acceptor molecule, acceptor atom, score
      L1  C     5    25       P1  8028  0.46
      L1  C     7    27       P1 10175  0.62

> <Gold.PLP.Chemscore.Internal.Correction>
0.0439

> <Gold.Rescore>
     Score         DG    S(hbond)    S(metal)    S(lipo)     H(rot)  DE(clash)    DE(int)     intcor
      6.89     -12.19       0.54        0.00      86.58       2.04       0.47       4.83       ----

> <Gold.Chemscore.Fitness>
6.8918

> <Gold.Chemscore.DG>
-12.1925

> <Gold.Chemscore.ZeroCoef>
-5.4800

> <Gold.Chemscore.Hbond>
0.5408

> <Gold.Chemscore.Metal>
0.0000

> <Gold.Chemscore.Lipo>
86.5801

> <Gold.Chemscore.Internal_Hbond>
0.0000

> <Gold.Chemscore.DEClash>
0.4742

> <Gold.Chemscore.DEInternal>
4.8265

> <Gold.Chemscore.Rot>
2.0405

> <Gold.Chemscore.Internal.Correction>
   9.000000E+99

> <Gold.Chemscore.Hbond.Weighted>
-1.8063

> <Gold.Chemscore.Metal.Weighted>
-0.0000

> <Gold.Chemscore.Lipo.Weighted>
-10.1299

> <Gold.Chemscore.Internal_Hbond.Weighted>
0.0000

> <Gold.Chemscore.DEClash.Weighted>
0.4742

> <Gold.Chemscore.DEInternal.Weighted>
4.8265

> <Gold.Chemscore.Rot.Weighted>
5.2237

> <Gold.Chemscore.Internal.Correction.Weighted>
   9.000000E+99

> <Gold.Protein.RotatedTorsions>
[ 6907 6896 6895 6894 ] final   20.46 input  -60.11 | X-H torsion
[ 7974 7965 7964 7962 ] final   51.42 input  175.53 | X-H torsion
[ 8008 7997 7996 7995 ] final   40.36 input   59.86 | X-H torsion
[ 10167 10162 10161 10158 ] final    2.82 input  -65.29 | X-H torsion
[ 10718 10713 10712 10709 ] final  139.89 input   66.30 | X-H torsion
[ 10763 10752 10751 10750 ] final  139.95 input  -60.55 | X-H torsion
[ 11005 11000 10999 10996 ] final   13.28 input  -57.11 | X-H torsion

> <Gold.Protein.ActiveResidues>
 VAL166  LYS551  ARG553  GLY616  TRP617  ASP618  TYR619  PRO620  LYS621  CYS622 
 ASP623  PHE694  ASN695  SER759  ASP760  ASP761  ALA762  ILE779  LEU786  VAL792 
 PHE793  MET794  SER795  GLU796  ALA797  LYS798  CYS799  TRP800  GLU811  SER814 

> <Gold.Protein.RotatedAtoms>
  151.8968  135.0394  160.0502 H   0  0  0  0  0  0  0  0  0  0  0  0  # atno 6907 bound_to 6896
  152.2391  133.5116  159.5268 H   0  0  0  0  0  0  0  0  0  0  0  0  # atno 6908 bound_to 6896
  150.7048  134.1029  159.4015 H   0  0  0  0  0  0  0  0  0  0  0  0  # atno 6909 bound_to 6896
  145.9915  139.4344  143.0071 H   0  0  0  0  0  0  0  0  0  0  0  0  # atno 7974 bound_to 7965
  155.2518  140.3353  155.4281 H   0  0  0  0  0  0  0  0  0  0  0  0  # atno 8008 bound_to 7997
  156.2212  140.1810  156.7515 H   0  0  0  0  0  0  0  0  0  0  0  0  # atno 8009 bound_to 7997
  154.5829  140.0650  156.9114 H   0  0  0  0  0  0  0  0  0  0  0  0  # atno 8010 bound_to 7997
  140.6616  143.7289  150.7749 H   0  0  0  0  0  0  0  0  0  0  0  0  # atno 10167 bound_to 10162
  157.4094  131.1026  151.0470 H   0  0  0  0  0  0  0  0  0  0  0  0  # atno 10718 bound_to 10713
  153.9146  135.3007  155.3448 H   0  0  0  0  0  0  0  0  0  0  0  0  # atno 10763 bound_to 10752
  154.7606  135.4936  153.9460 H   0  0  0  0  0  0  0  0  0  0  0  0  # atno 10764 bound_to 10752
  153.1174  135.6774  153.9496 H   0  0  0  0  0  0  0  0  0  0  0  0  # atno 10765 bound_to 10752
  140.4825  134.0921  155.7754 H   0  0  0  0  0  0  0  0  0  0  0  0  # atno 11005 bound_to 11000
  145.7623  140.9930  143.1193 LP  0  0  0  0  0  0  0  0  0  0  0  0  # atno 17320 bound_to 7965
  144.6890  139.9346  143.7473 LP  0  0  0  0  0  0  0  0  0  0  0  0  # atno 17321 bound_to 7965
  140.0958  143.4834  152.2453 LP  0  0  0  0  0  0  0  0  0  0  0  0  # atno 17342 bound_to 10162
  139.5852  144.7528  151.3539 LP  0  0  0  0  0  0  0  0  0  0  0  0  # atno 17343 bound_to 10162
  157.1440  130.6155  149.5563 LP  0  0  0  0  0  0  0  0  0  0  0  0  # atno 17370 bound_to 10713
  155.9846  130.4872  150.6991 LP  0  0  0  0  0  0  0  0  0  0  0  0  # atno 17371 bound_to 10713
  141.1524  133.8944  157.2064 LP  0  0  0  0  0  0  0  0  0  0  0  0  # atno 17394 bound_to 11000
  139.9818  135.0095  156.9767 LP  0  0  0  0  0  0  0  0  0  0  0  0  # atno 17395 bound_to 11000

$$$$
