AV-unprocessed.smi:3218|AV-procd|sdf|12294|dock5
  -GOLD-   2272018133D 1   1.00000     0.00000
 Structure written by MMmdl.
 37 38  0  0  0  0  0  0  0  0  1 V2000
  143.1318  143.9419  160.8929 C   0  0  0  0  0  0  0  0  0  0  0  0
  144.5906  143.9341  160.5371 C   0  0  0  0  0  0  0  0  0  0  0  0
  145.6212  143.1258  161.0964 C   0  0  0  0  0  0  0  0  0  0  0  0
  146.8088  143.3656  160.5650 N   0  0  0  0  0  0  0  0  0  0  0  0
  146.5790  144.3298  159.6488 N   0  0  0  0  0  0  0  0  0  0  0  0
  147.6788  144.8545  158.8637 C   0  0  0  0  0  0  0  0  0  0  0  0
  148.9785  144.0875  159.1410 C   0  0  0  0  0  0  0  0  0  0  0  0
  150.1037  144.8042  158.5642 N   0  0  0  0  0  0  0  0  0  0  0  0
  151.3482  144.1634  158.9538 C   0  0  0  0  0  0  0  0  0  0  0  0
  151.3044  142.6761  158.5725 C   0  0  0  0  0  0  0  0  0  0  0  0
  152.0809  141.8695  159.5089 N   0  0  0  0  0  0  0  0  0  0  0  0
  152.7218  142.4792  160.6619 C   0  0  0  0  0  0  0  0  0  0  0  0
  153.6129  141.3753  161.2489 C   0  0  0  0  0  0  0  0  0  0  0  0
  153.1320  140.0694  160.6069 C   0  0  0  0  0  0  0  0  0  0  0  0
  152.2678  140.5456  159.4516 C   0  0  0  0  0  0  0  0  0  0  0  0
  151.8180  139.7851  158.5957 O   0  0  0  0  0  0  0  0  0  0  0  0
  145.2496  144.6930  159.6115 C   0  0  0  0  0  0  0  0  0  0  0  0
  142.7688  142.9413  161.1283 H   0  0  0  0  0  0  0  0  0  0  0  0
  142.5175  144.3221  160.0765 H   0  0  0  0  0  0  0  0  0  0  0  0
  142.9352  144.5684  161.7630 H   0  0  0  0  0  0  0  0  0  0  0  0
  145.5418  142.3768  161.8704 H   0  0  0  0  0  0  0  0  0  0  0  0
  147.4142  144.7957  157.8065 H   0  0  0  0  0  0  0  0  0  0  0  0
  147.7997  145.9121  159.1030 H   0  0  0  0  0  0  0  0  0  0  0  0
  149.1245  143.9767  160.2165 H   0  0  0  0  0  0  0  0  0  0  0  0
  148.9232  143.0861  158.7117 H   0  0  0  0  0  0  0  0  0  0  0  0
  150.0999  145.7619  158.8852 H   0  0  0  0  0  0  0  0  0  0  0  0
  152.1840  144.6587  158.4577 H   0  0  0  0  0  0  0  0  0  0  0  0
  151.4951  144.2683  160.0298 H   0  0  0  0  0  0  0  0  0  0  0  0
  150.2726  142.3214  158.5620 H   0  0  0  0  0  0  0  0  0  0  0  0
  151.6917  142.5300  157.5625 H   0  0  0  0  0  0  0  0  0  0  0  0
  153.3007  143.3588  160.3774 H   0  0  0  0  0  0  0  0  0  0  0  0
  151.9581  142.7876  161.3771 H   0  0  0  0  0  0  0  0  0  0  0  0
  154.6551  141.5555  160.9816 H   0  0  0  0  0  0  0  0  0  0  0  0
  153.5543  141.3436  162.3374 H   0  0  0  0  0  0  0  0  0  0  0  0
  153.9594  139.4498  160.2595 H   0  0  0  0  0  0  0  0  0  0  0  0
  152.5226  139.4867  161.2985 H   0  0  0  0  0  0  0  0  0  0  0  0
  144.8870  145.4557  158.9379 H   0  0  0  0  0  0  0  0  0  0  0  0
  1  2  1  0  0  0  0
  1 18  1  0  0  0  0
  1 19  1  0  0  0  0
  1 20  1  0  0  0  0
  2 17  2  0  0  0  0
  2  3  1  0  0  0  0
  3  4  2  0  0  0  0
  3 21  1  0  0  0  0
  4  5  1  0  0  0  0
  5  6  1  0  0  0  0
  5 17  1  0  0  0  0
  6  7  1  0  0  0  0
  6 22  1  0  0  0  0
  6 23  1  0  0  0  0
  7  8  1  0  0  0  0
  7 24  1  0  0  0  0
  7 25  1  0  0  0  0
  8  9  1  0  0  0  0
  8 26  1  0  0  0  0
  9 10  1  0  0  0  0
  9 27  1  0  0  0  0
  9 28  1  0  0  0  0
 10 11  1  0  0  0  0
 10 29  1  0  0  0  0
 10 30  1  0  0  0  0
 11 15  1  0  0  0  0
 11 12  1  0  0  0  0
 12 13  1  0  0  0  0
 12 31  1  0  0  0  0
 12 32  1  0  0  0  0
 13 14  1  0  0  0  0
 13 33  1  0  0  0  0
 13 34  1  0  0  0  0
 14 15  1  0  0  0  0
 14 35  1  0  0  0  0
 14 36  1  0  0  0  0
 15 16  2  0  0  0  0
 17 37  1  0  0  0  0
M  END
> <s_m_source_file>
AV-unprocessed.smi

> <i_m_source_file_index>
3218

> <i_lp_mmshare_version>
43012

> <i_f3d_flags>
0

> <s_epik_input>
W0NIM11jMVtjSF1ubihbY0hdMSlbQ0gyXVtDSDJdW05IXVtDSDJdW0NIMl1OMltDSDJdW0NIMl1bQ0gyXUMyPU8=

> <s_epik_cmdline>
J2VwaWtfcHl0aG9uJywgJy1waCcsICc3LjAnLCAnLXRuJywgJzgnLCAnLW1hJywgJzIwMCcsICctbWV0YWxfYmluZGluZycsICctaW1hZScsICc8aW5maWxlLm1hZT4nLCAnLW9tYWUnLCAnPG91dGZpbGUubWFlPic=

> <r_lp_tautomer_probability>
1

> <r_epik_Ionization_Penalty>
2.53806

> <r_epik_Ionization_Penalty_Charging>
0

> <r_epik_Ionization_Penalty_Neutral>
2.53806

> <r_epik_State_Penalty>
2.70334

> <r_epik_Charging_Adjusted_Penalty>
2.70334

> <i_epik_Tot_Q>
0

> <i_epik_Tot_abs_Q>
0

> <r_epik_Metal_State_Penalty>
2.70114

> <b_epik_Metal_Only>
0

> <s_lp_Force_Field>
OPLS_2005

> <r_lp_Energy>
17.5506

> <b_lp_Chiralities_Consistent>
1

> <s_lp_Variant>
AV-unprocessed.smi:3218-2

> <Gold.Version>
5.8.1

> <Gold.Id.Protein>
6NUR|6NUR_protein|mol2

> <Gold.PLP.Fitness>
48.9285

> <Gold.PLP.PLP>
-46.4224

> <Gold.PLP.part.hbond>
-3.0000

> <Gold.PLP.part.metal>
0.0000

> <Gold.PLP.part.buried>
-4.4439

> <Gold.PLP.part.nonpolar>
-39.9523

> <Gold.PLP.part.repulsive>
0.0583

> <Gold.PLP.ligand.clash>
0.0000

> <Gold.PLP.ligand.torsion>
0.2841

> <Gold.PLP.Chemscore.Hbond>
1.0000

> <Gold.PLP.Chemscore.CHOScore>
0.0000

> <Gold.PLP.Chemscore.Metal>
0.0000

> <Gold.Chemscore.Hbonds>
donor molecule, donor type, donor heavy atom, donor atom, acceptor molecule, acceptor atom, score
      P1  H  6933  6944       L1     4  0.70

> <Gold.PLP.Chemscore.Internal.Correction>
0.0742

> <Gold.Rescore>
     Score         DG    S(hbond)    S(metal)    S(lipo)     H(rot)  DE(clash)    DE(int)     intcor
     13.31     -14.03       0.94        0.00      88.94       1.95       0.12       0.60       ----

> <Gold.Chemscore.Fitness>
13.3102

> <Gold.Chemscore.DG>
-14.0292

> <Gold.Chemscore.ZeroCoef>
-5.4800

> <Gold.Chemscore.Hbond>
0.9360

> <Gold.Chemscore.Metal>
0.0000

> <Gold.Chemscore.Lipo>
88.9359

> <Gold.Chemscore.Internal_Hbond>
0.0000

> <Gold.Chemscore.DEClash>
0.1240

> <Gold.Chemscore.DEInternal>
0.5950

> <Gold.Chemscore.Rot>
1.9463

> <Gold.Chemscore.Internal.Correction>
   9.000000E+99

> <Gold.Chemscore.Hbonds>
donor molecule, donor type, donor heavy atom, donor atom, acceptor molecule, acceptor atom, score
      P1  H  6933  6944       L1     4  0.66

> <Gold.Chemscore.Hbond.Weighted>
-3.1261

> <Gold.Chemscore.Metal.Weighted>
-0.0000

> <Gold.Chemscore.Lipo.Weighted>
-10.4055

> <Gold.Chemscore.Internal_Hbond.Weighted>
0.0000

> <Gold.Chemscore.DEClash.Weighted>
0.1240

> <Gold.Chemscore.DEInternal.Weighted>
0.5950

> <Gold.Chemscore.Rot.Weighted>
4.9824

> <Gold.Chemscore.Internal.Correction.Weighted>
   9.000000E+99

> <Gold.Protein.RotatedTorsions>
[ 6907 6896 6895 6894 ] final  -26.55 input  -60.11 | X-H torsion
[ 7974 7965 7964 7962 ] final  -22.29 input  175.53 | X-H torsion
[ 8008 7997 7996 7995 ] final  121.13 input   59.86 | X-H torsion
[ 10167 10162 10161 10158 ] final    4.84 input  -65.29 | X-H torsion
[ 10718 10713 10712 10709 ] final  170.04 input   66.30 | X-H torsion
[ 10763 10752 10751 10750 ] final  -47.34 input  -60.55 | X-H torsion
[ 11005 11000 10999 10996 ] final -152.80 input  -57.11 | X-H torsion

> <Gold.Protein.ActiveResidues>
 VAL166  LYS551  ARG553  GLY616  TRP617  ASP618  TYR619  PRO620  LYS621  CYS622 
 ASP623  PHE694  ASN695  SER759  ASP760  ASP761  ALA762  ILE779  LEU786  VAL792 
 PHE793  MET794  SER795  GLU796  ALA797  LYS798  CYS799  TRP800  GLU811  SER814 

> <Gold.Protein.RotatedAtoms>
  151.1593  135.0265  159.8702 H   0  0  0  0  0  0  0  0  0  0  0  0  # atno 6907 bound_to 6896
  152.5452  134.1297  159.8444 H   0  0  0  0  0  0  0  0  0  0  0  0  # atno 6908 bound_to 6896
  151.1391  133.4938  159.2630 H   0  0  0  0  0  0  0  0  0  0  0  0  # atno 6909 bound_to 6896
  146.1684  140.4459  142.8542 H   0  0  0  0  0  0  0  0  0  0  0  0  # atno 7974 bound_to 7965
  156.2673  140.2815  156.1259 H   0  0  0  0  0  0  0  0  0  0  0  0  # atno 8008 bound_to 7997
  155.1106  140.0391  157.2740 H   0  0  0  0  0  0  0  0  0  0  0  0  # atno 8009 bound_to 7997
  154.6745  140.2595  155.6978 H   0  0  0  0  0  0  0  0  0  0  0  0  # atno 8010 bound_to 7997
  140.6514  143.7536  150.7581 H   0  0  0  0  0  0  0  0  0  0  0  0  # atno 10167 bound_to 10162
  157.0138  131.0212  151.2795 H   0  0  0  0  0  0  0  0  0  0  0  0  # atno 10718 bound_to 10713
  154.0598  135.6619  153.4810 H   0  0  0  0  0  0  0  0  0  0  0  0  # atno 10763 bound_to 10752
  153.0431  135.5132  154.7670 H   0  0  0  0  0  0  0  0  0  0  0  0  # atno 10764 bound_to 10752
  154.6702  135.3028  154.9718 H   0  0  0  0  0  0  0  0  0  0  0  0  # atno 10765 bound_to 10752
  140.7150  134.3791  157.5192 H   0  0  0  0  0  0  0  0  0  0  0  0  # atno 11005 bound_to 11000
  144.8126  140.6412  143.6405 LP  0  0  0  0  0  0  0  0  0  0  0  0  # atno 17320 bound_to 7965
  145.4406  139.1536  143.3972 LP  0  0  0  0  0  0  0  0  0  0  0  0  # atno 17321 bound_to 7965
  140.1187  143.4632  152.2326 LP  0  0  0  0  0  0  0  0  0  0  0  0  # atno 17342 bound_to 10162
  139.5729  144.7472  151.3841 LP  0  0  0  0  0  0  0  0  0  0  0  0  # atno 17343 bound_to 10162
  157.5300  130.8052  149.7906 LP  0  0  0  0  0  0  0  0  0  0  0  0  # atno 17370 bound_to 10713
  156.0126  130.3826  150.2213 LP  0  0  0  0  0  0  0  0  0  0  0  0  # atno 17371 bound_to 10713
  139.8862  134.8916  156.2598 LP  0  0  0  0  0  0  0  0  0  0  0  0  # atno 17394 bound_to 11000
  141.0052  133.7128  156.1023 LP  0  0  0  0  0  0  0  0  0  0  0  0  # atno 17395 bound_to 11000

$$$$
