AV-unprocessed.smi:2410|AV-procd|sdf|9529|dock10
  -GOLD-   2272013163D 1   1.00000     0.00000
 Structure written by MMmdl.
 47 49  0  0  0  0  0  0  0  0  2 V2000
  152.5617  143.8000  161.1966 C   0  0  0  0  0  0  0  0  0  0  0  0
  152.2719  142.9550  159.9679 C   0  0  0  0  0  0  0  0  0  0  0  0
  151.3749  143.4591  158.9987 C   0  0  0  0  0  0  0  0  0  0  0  0
  151.1309  142.6634  157.8855 C   0  0  0  0  0  0  0  0  0  0  0  0
  150.3126  142.8693  156.7722 N   0  3  0  0  0  0  0  0  0  0  0  0
  150.4029  141.7970  155.9368 C   0  0  0  0  0  0  0  0  0  0  0  0
  151.2662  140.9101  156.5017 N   0  0  0  0  0  0  0  0  0  0  0  0
  151.7237  139.5967  156.0314 C   0  0  0  0  0  0  0  0  0  0  0  0
  150.8547  139.0430  154.8856 C   0  0  1  0  0  0  0  0  0  0  0  0
  151.4988  137.9008  154.3553 O   0  0  0  0  0  0  0  0  0  0  0  0
  149.4449  138.6452  155.3740 C   0  0  0  0  0  0  0  0  0  0  0  0
  148.4989  139.7707  155.3021 N   0  0  0  0  0  0  0  0  0  0  0  0
  148.3011  140.3385  154.0333 C   0  0  0  0  0  0  0  0  0  0  0  0
  147.4910  141.3296  153.8520 N   0  0  0  0  0  0  0  0  0  0  0  0
  146.7899  141.8649  154.9366 C   0  0  0  0  0  0  0  0  0  0  0  0
  145.8624  143.0220  154.6107 C   0  0  0  0  0  0  0  0  0  0  0  0
  146.9453  141.3672  156.1939 C   0  0  0  0  0  0  0  0  0  0  0  0
  146.2103  141.9107  157.4127 C   0  0  0  0  0  0  0  0  0  0  0  0
  147.8680  140.2425  156.4167 C   0  0  0  0  0  0  0  0  0  0  0  0
  148.0712  139.7529  157.5301 O   0  0  0  0  0  0  0  0  0  0  0  0
  151.7450  141.4076  157.7177 C   0  0  0  0  0  0  0  0  0  0  0  0
  152.6299  140.8945  158.6628 C   0  0  0  0  0  0  0  0  0  0  0  0
  152.8901  141.6881  159.8026 C   0  0  0  0  0  0  0  0  0  0  0  0
  153.8518  141.1545  160.8506 C   0  0  0  0  0  0  0  0  0  0  0  0
  152.0326  144.7529  161.1600 H   0  0  0  0  0  0  0  0  0  0  0  0
  153.6279  144.0151  161.2720 H   0  0  0  0  0  0  0  0  0  0  0  0
  152.2477  143.2789  162.1013 H   0  0  0  0  0  0  0  0  0  0  0  0
  150.8997  144.4218  159.1183 H   0  0  0  0  0  0  0  0  0  0  0  0
  149.8822  141.6723  154.9983 H   0  0  0  0  0  0  0  0  0  0  0  0
  152.7630  139.6970  155.7150 H   0  0  0  0  0  0  0  0  0  0  0  0
  151.7243  138.9170  156.8845 H   0  0  0  0  0  0  0  0  0  0  0  0
  150.7856  139.7939  154.0981 H   0  0  0  0  0  0  0  0  0  0  0  0
  151.0296  137.1312  154.6394 H   0  0  0  0  0  0  0  0  0  0  0  0
  149.0858  137.7621  154.8410 H   0  0  0  0  0  0  0  0  0  0  0  0
  149.4981  138.3211  156.4150 H   0  0  0  0  0  0  0  0  0  0  0  0
  148.8764  139.8894  153.2219 H   0  0  0  0  0  0  0  0  0  0  0  0
  144.8320  142.7682  154.8608 H   0  0  0  0  0  0  0  0  0  0  0  0
  145.8967  143.2723  153.5496 H   0  0  0  0  0  0  0  0  0  0  0  0
  146.1494  143.9118  155.1720 H   0  0  0  0  0  0  0  0  0  0  0  0
  146.9259  142.2622  158.1569 H   0  0  0  0  0  0  0  0  0  0  0  0
  145.6054  141.1257  157.8679 H   0  0  0  0  0  0  0  0  0  0  0  0
  145.5464  142.7414  157.1788 H   0  0  0  0  0  0  0  0  0  0  0  0
  153.0990  139.9295  158.5364 H   0  0  0  0  0  0  0  0  0  0  0  0
  154.2089  140.1570  160.5926 H   0  0  0  0  0  0  0  0  0  0  0  0
  153.3646  141.0913  161.8238 H   0  0  0  0  0  0  0  0  0  0  0  0
  154.7201  141.8077  160.9385 H   0  0  0  0  0  0  0  0  0  0  0  0
  149.7335  143.6799  156.5937 H   0  0  0  0  0  0  0  0  0  0  0  0
  1  2  1  0  0  0  0
  1 25  1  0  0  0  0
  1 26  1  0  0  0  0
  1 27  1  0  0  0  0
  2 23  1  0  0  0  0
  2  3  2  0  0  0  0
  3  4  1  0  0  0  0
  3 28  1  0  0  0  0
  4 21  2  0  0  0  0
  4  5  1  0  0  0  0
  5  6  2  0  0  0  0
  5 47  1  0  0  0  0
  6  7  1  0  0  0  0
  6 29  1  0  0  0  0
  7  8  1  0  0  0  0
  7 21  1  0  0  0  0
  8  9  1  0  0  0  0
  8 30  1  0  0  0  0
  8 31  1  0  0  0  0
  9 10  1  0  0  0  0
  9 11  1  0  0  0  0
  9 32  1  0  0  0  0
 10 33  1  0  0  0  0
 11 12  1  0  0  0  0
 11 34  1  0  0  0  0
 11 35  1  0  0  0  0
 12 19  1  0  0  0  0
 12 13  1  0  0  0  0
 13 14  2  0  0  0  0
 13 36  1  0  0  0  0
 14 15  1  0  0  0  0
 15 16  1  0  0  0  0
 15 17  2  0  0  0  0
 16 37  1  0  0  0  0
 16 38  1  0  0  0  0
 16 39  1  0  0  0  0
 17 18  1  0  0  0  0
 17 19  1  0  0  0  0
 18 40  1  0  0  0  0
 18 41  1  0  0  0  0
 18 42  1  0  0  0  0
 19 20  2  0  0  0  0
 21 22  1  0  0  0  0
 22 23  2  0  0  0  0
 22 43  1  0  0  0  0
 23 24  1  0  0  0  0
 24 44  1  0  0  0  0
 24 45  1  0  0  0  0
 24 46  1  0  0  0  0
M  CHG  1   5   1
M  END
> <s_m_source_file>
AV-unprocessed.smi

> <i_m_source_file_index>
2410

> <i_lp_mmshare_version>
43012

> <i_f3d_flags>
0

> <s_epik_input>
W0NIM11jKFtjSF0xKWMoW0NIM10pW2NIXWMoYzEyKW4oW2NIXW4yKVtDSDJdW0NASF0oW09IXSlbQ0gyXW4zW2NIXW5jKFtDSDNdKWMoW0NIM10pYzM9Tw==

> <s_epik_cmdline>
J2VwaWtfcHl0aG9uJywgJy1waCcsICc3LjAnLCAnLXRuJywgJzgnLCAnLW1hJywgJzIwMCcsICctbWV0YWxfYmluZGluZycsICctaW1hZScsICc8aW5maWxlLm1hZT4nLCAnLW9tYWUnLCAnPG91dGZpbGUubWFlPic=

> <r_lp_tautomer_probability>
1

> <r_epik_Ionization_Penalty>
1.03571

> <r_epik_Ionization_Penalty_Charging>
1.03568

> <r_epik_Ionization_Penalty_Neutral>
3.18232e-05

> <r_epik_State_Penalty>
1.08724

> <r_epik_Charging_Adjusted_Penalty>
2.12292

> <i_epik_Tot_Q>
1

> <i_epik_Tot_abs_Q>
1

> <r_epik_Metal_State_Penalty>
1.18374

> <b_epik_Metal_Only>
0

> <s_lp_Force_Field>
OPLS_2005

> <r_lp_Energy>
24.5117

> <b_lp_Chiralities_Consistent>
1

> <s_lp_Variant>
AV-unprocessed.smi:2410-4

> <Gold.Version>
5.8.1

> <Gold.Id.Protein>
6NUR|6NUR_protein|mol2

> <Gold.PLP.Fitness>
53.9504

> <Gold.PLP.PLP>
-46.0837

> <Gold.PLP.part.hbond>
-1.0000

> <Gold.PLP.part.metal>
0.0000

> <Gold.PLP.part.buried>
-6.6076

> <Gold.PLP.part.nonpolar>
-38.9604

> <Gold.PLP.part.repulsive>
0.2176

> <Gold.PLP.ligand.clash>
0.0000

> <Gold.PLP.ligand.torsion>
0.5723

> <Gold.PLP.Chemscore.Hbond>
2.0000

> <Gold.PLP.Chemscore.CHOScore>
1.0000

> <Gold.PLP.Chemscore.Metal>
0.0000

> <Gold.Chemscore.Hbonds>
donor molecule, donor type, donor heavy atom, donor atom, acceptor molecule, acceptor atom, score
      L1  H     5    47       P1  8028  2.00
      L1  C    13    36       P1  7957  1.00

> <Gold.PLP.Chemscore.Internal.Correction>
0.0114

> <Gold.Rescore>
     Score         DG    S(hbond)    S(metal)    S(lipo)     H(rot)  DE(clash)    DE(int)     intcor
     13.78     -15.62       0.97        0.00     111.56       2.41       0.04       1.79       ----

> <Gold.Chemscore.Fitness>
13.7839

> <Gold.Chemscore.DG>
-15.6157

> <Gold.Chemscore.ZeroCoef>
-5.4800

> <Gold.Chemscore.Hbond>
0.9701

> <Gold.Chemscore.Metal>
0.0000

> <Gold.Chemscore.Lipo>
111.5617

> <Gold.Chemscore.Internal_Hbond>
0.0000

> <Gold.Chemscore.DEClash>
0.0416

> <Gold.Chemscore.DEInternal>
1.7902

> <Gold.Chemscore.Rot>
2.4052

> <Gold.Chemscore.Internal.Correction>
   9.000000E+99

> <Gold.Chemscore.Hbonds>
donor molecule, donor type, donor heavy atom, donor atom, acceptor molecule, acceptor atom, score
      L1  H     5    47       P1  8028  0.98

> <Gold.Chemscore.Hbond.Weighted>
-3.2403

> <Gold.Chemscore.Metal.Weighted>
-0.0000

> <Gold.Chemscore.Lipo.Weighted>
-13.0527

> <Gold.Chemscore.Internal_Hbond.Weighted>
0.0000

> <Gold.Chemscore.DEClash.Weighted>
0.0416

> <Gold.Chemscore.DEInternal.Weighted>
1.7902

> <Gold.Chemscore.Rot.Weighted>
6.1573

> <Gold.Chemscore.Internal.Correction.Weighted>
   9.000000E+99

> <Gold.Protein.RotatedTorsions>
[ 6907 6896 6895 6894 ] final -123.21 input  -60.11 | X-H torsion
[ 7974 7965 7964 7962 ] final -159.27 input  175.53 | X-H torsion
[ 8008 7997 7996 7995 ] final   44.97 input   59.86 | X-H torsion
[ 10167 10162 10161 10158 ] final  120.35 input  -65.29 | X-H torsion
[ 10718 10713 10712 10709 ] final  -38.17 input   66.30 | X-H torsion
[ 10763 10752 10751 10750 ] final   55.20 input  -60.55 | X-H torsion
[ 11005 11000 10999 10996 ] final -172.48 input  -57.11 | X-H torsion

> <Gold.Protein.ActiveResidues>
 VAL166  LYS551  ARG553  GLY616  TRP617  ASP618  TYR619  PRO620  LYS621  CYS622 
 ASP623  PHE694  ASN695  SER759  ASP760  ASP761  ALA762  ILE779  LEU786  VAL792 
 PHE793  MET794  SER795  GLU796  ALA797  LYS798  CYS799  TRP800  GLU811  SER814 

> <Gold.Protein.RotatedAtoms>
  150.8649  133.7589  159.2979 H   0  0  0  0  0  0  0  0  0  0  0  0  # atno 6907 bound_to 6896
  151.5220  135.1066  159.9890 H   0  0  0  0  0  0  0  0  0  0  0  0  # atno 6908 bound_to 6896
  152.4653  133.7866  159.6935 H   0  0  0  0  0  0  0  0  0  0  0  0  # atno 6909 bound_to 6896
  144.7472  140.3709  143.6076 H   0  0  0  0  0  0  0  0  0  0  0  0  # atno 7974 bound_to 7965
  155.3282  140.3401  155.4240 H   0  0  0  0  0  0  0  0  0  0  0  0  # atno 8008 bound_to 7997
  156.1875  140.1686  156.8193 H   0  0  0  0  0  0  0  0  0  0  0  0  # atno 8009 bound_to 7997
  154.5403  140.0726  156.8482 H   0  0  0  0  0  0  0  0  0  0  0  0  # atno 8010 bound_to 7997
  139.5988  144.7050  151.3113 H   0  0  0  0  0  0  0  0  0  0  0  0  # atno 10167 bound_to 10162
  156.3068  130.4247  149.8089 H   0  0  0  0  0  0  0  0  0  0  0  0  # atno 10718 bound_to 10713
  152.9814  135.5719  154.5027 H   0  0  0  0  0  0  0  0  0  0  0  0  # atno 10763 bound_to 10752
  154.4544  135.2779  155.1760 H   0  0  0  0  0  0  0  0  0  0  0  0  # atno 10764 bound_to 10752
  154.3374  135.6236  153.5633 H   0  0  0  0  0  0  0  0  0  0  0  0  # atno 10765 bound_to 10752
  140.4965  134.5934  157.4973 H   0  0  0  0  0  0  0  0  0  0  0  0  # atno 11005 bound_to 11000
  145.7079  139.1677  143.2555 LP  0  0  0  0  0  0  0  0  0  0  0  0  # atno 17320 bound_to 7965
  146.1368  140.7111  142.9386 LP  0  0  0  0  0  0  0  0  0  0  0  0  # atno 17321 bound_to 7965
  140.7233  143.7075  150.7796 LP  0  0  0  0  0  0  0  0  0  0  0  0  # atno 17342 bound_to 10162
  140.0647  143.5120  152.2610 LP  0  0  0  0  0  0  0  0  0  0  0  0  # atno 17343 bound_to 10162
  156.5447  130.8315  151.3280 LP  0  0  0  0  0  0  0  0  0  0  0  0  # atno 17370 bound_to 10713
  157.7381  130.9808  150.2235 LP  0  0  0  0  0  0  0  0  0  0  0  0  # atno 17371 bound_to 10713
  139.9738  134.7249  155.9989 LP  0  0  0  0  0  0  0  0  0  0  0  0  # atno 17394 bound_to 11000
  141.1457  133.6556  156.3861 LP  0  0  0  0  0  0  0  0  0  0  0  0  # atno 17395 bound_to 11000

$$$$
