AV-unprocessed.smi:54|AV-procd|sdf|533|dock1
  -GOLD-   2262016413D 1   1.00000     0.00000
 Structure written by MMmdl.
 44 46  0  0  0  0  0  0  0  0  1 V2000
  152.8336  143.5223  159.6949 C   0  0  0  0  0  0  0  0  0  0  0  0
  152.4738  142.3400  160.6092 C   0  0  0  0  0  0  0  0  0  0  0  0
  153.2947  142.3690  161.9088 C   0  0  0  0  0  0  0  0  0  0  0  0
  152.6732  141.0097  159.8747 C   0  0  0  0  0  0  0  0  0  0  0  0
  153.6032  140.2496  160.1427 O   0  0  0  0  0  0  0  0  0  0  0  0
  151.6849  140.7044  158.8583 N   0  0  0  0  0  0  0  0  0  0  0  0
  151.6355  139.6065  158.0699 C   0  0  0  0  0  0  0  0  0  0  0  0
  151.0688  139.5971  156.8712 N   0  0  0  0  0  0  0  0  0  0  0  0
  151.0940  138.3841  156.2378 C   0  0  0  0  0  0  0  0  0  0  0  0
  151.6465  137.2175  156.7277 C   0  0  0  0  0  0  0  0  0  0  0  0
  151.4926  136.1868  155.8083 N   0  0  0  0  0  0  0  0  0  0  0  0
  150.8588  136.7431  154.8152 C   0  0  0  0  0  0  0  0  0  0  0  0
  150.5698  138.0738  154.9974 N   0  0  0  0  0  0  0  0  0  0  0  0
  149.8493  138.9815  154.0554 C   0  0  2  0  0  0  0  0  0  0  0  0
  150.0305  140.2926  154.4820 O   0  0  0  0  0  0  0  0  0  0  0  0
  148.8925  141.0433  154.0856 C   0  0  2  0  0  0  0  0  0  0  0  0
  148.8250  142.3945  154.8182 C   0  0  0  0  0  0  0  0  0  0  0  0
  147.8201  143.2051  154.2471 O   0  0  0  0  0  0  0  0  0  0  0  0
  147.7328  140.0706  154.3541 C   0  0  2  0  0  0  0  0  0  0  0  0
  147.3038  140.1288  155.7012 O   0  0  0  0  0  0  0  0  0  0  0  0
  148.3357  138.7005  154.0421 C   0  0  1  0  0  0  0  0  0  0  0  0
  147.9086  138.2858  152.7594 O   0  0  0  0  0  0  0  0  0  0  0  0
  152.2615  137.2129  158.0234 C   0  0  0  0  0  0  0  0  0  0  0  0
  152.7966  136.2745  158.6098 O   0  0  0  0  0  0  0  0  0  0  0  0
  152.2052  138.4686  158.6390 N   0  0  0  0  0  0  0  0  0  0  0  0
  150.3312  138.8305  153.0880 H   0  0  0  0  0  0  0  0  0  0  0  0
  148.9488  141.2086  153.0074 H   0  0  0  0  0  0  0  0  0  0  0  0
  146.8700  140.3035  153.7283 H   0  0  0  0  0  0  0  0  0  0  0  0
  148.0623  137.9447  154.7804 H   0  0  0  0  0  0  0  0  0  0  0  0
  152.2581  143.4974  158.7687 H   0  0  0  0  0  0  0  0  0  0  0  0
  153.8918  143.5179  159.4298 H   0  0  0  0  0  0  0  0  0  0  0  0
  152.6209  144.4722  160.1859 H   0  0  0  0  0  0  0  0  0  0  0  0
  151.4191  142.4279  160.8740 H   0  0  0  0  0  0  0  0  0  0  0  0
  153.0418  141.5284  162.5561 H   0  0  0  0  0  0  0  0  0  0  0  0
  153.1013  143.2830  162.4707 H   0  0  0  0  0  0  0  0  0  0  0  0
  154.3663  142.3258  161.7092 H   0  0  0  0  0  0  0  0  0  0  0  0
  150.9297  141.3668  158.7623 H   0  0  0  0  0  0  0  0  0  0  0  0
  150.5790  136.1958  153.9268 H   0  0  0  0  0  0  0  0  0  0  0  0
  148.5652  142.2442  155.8664 H   0  0  0  0  0  0  0  0  0  0  0  0
  149.7829  142.9118  154.7878 H   0  0  0  0  0  0  0  0  0  0  0  0
  147.0284  142.6945  154.1724 H   0  0  0  0  0  0  0  0  0  0  0  0
  147.1135  139.2519  155.9969 H   0  0  0  0  0  0  0  0  0  0  0  0
  148.1731  137.3879  152.6309 H   0  0  0  0  0  0  0  0  0  0  0  0
  152.6150  138.5387  159.5585 H   0  0  0  0  0  0  0  0  0  0  0  0
  1  2  1  0  0  0  0
  1 30  1  0  0  0  0
  1 31  1  0  0  0  0
  1 32  1  0  0  0  0
  2  3  1  0  0  0  0
  2  4  1  0  0  0  0
  2 33  1  0  0  0  0
  3 34  1  0  0  0  0
  3 35  1  0  0  0  0
  3 36  1  0  0  0  0
  4  5  2  0  0  0  0
  4  6  1  0  0  0  0
  6 37  1  0  0  0  0
  6  7  1  0  0  0  0
  7 25  1  0  0  0  0
  7  8  2  0  0  0  0
  8  9  1  0  0  0  0
  9 13  1  0  0  0  0
  9 10  2  0  0  0  0
 10 11  1  0  0  0  0
 10 23  1  0  0  0  0
 11 12  2  0  0  0  0
 12 13  1  0  0  0  0
 12 38  1  0  0  0  0
 13 14  1  0  0  0  0
 14 26  1  0  0  0  0
 14 21  1  0  0  0  0
 14 15  1  0  0  0  0
 15 16  1  0  0  0  0
 16 27  1  0  0  0  0
 16 17  1  0  0  0  0
 16 19  1  0  0  0  0
 17 18  1  0  0  0  0
 17 39  1  0  0  0  0
 17 40  1  0  0  0  0
 18 41  1  0  0  0  0
 19 28  1  0  0  0  0
 19 20  1  0  0  0  0
 19 21  1  0  0  0  0
 20 42  1  0  0  0  0
 21 29  1  0  0  0  0
 21 22  1  0  0  0  0
 22 43  1  0  0  0  0
 23 24  2  0  0  0  0
 23 25  1  0  0  0  0
 25 44  1  0  0  0  0
M  END
> <s_m_source_file>
AV-unprocessed.smi

> <i_m_source_file_index>
54

> <i_lp_mmshare_version>
43012

> <i_f3d_flags>
0

> <s_epik_input>
W0NIM11bQ0hdKFtDSDNdKUMoPU8pW05IXWMobjEpW25IXWMoPU8pYyhjMTIpbltjSF1uMltDQEBIXTNPW0NASF0oW0NIMl1bT0hdKVtDQEBIXShbT0hdKVtDQEhdM1tPSF0=

> <s_epik_cmdline>
J2VwaWtfcHl0aG9uJywgJy1waCcsICc3LjAnLCAnLXRuJywgJzgnLCAnLW1hJywgJzIwMCcsICctbWV0YWxfYmluZGluZycsICctaW1hZScsICc8aW5maWxlLm1hZT4nLCAnLW9tYWUnLCAnPG91dGZpbGUubWFlPic=

> <r_lp_tautomer_probability>
0.85571

> <r_epik_Ionization_Penalty>
0.0316551

> <r_epik_Ionization_Penalty_Charging>
0.0316043

> <r_epik_Ionization_Penalty_Neutral>
5.07097e-05

> <r_epik_State_Penalty>
3.15494e-07

> <r_epik_Charging_Adjusted_Penalty>
0.0316047

> <i_epik_Tot_Q>
0

> <i_epik_Tot_abs_Q>
0

> <r_epik_Metal_State_Penalty>
0.421206

> <b_epik_Metal_Only>
0

> <s_epik_Chemistry_Notes>
This compound contains an acetal/aminal-like group ( X-CH(R)-Y where X, Y are N, S, or O) that may be acid/base labile, releasing an aldehyde.

> <s_lp_Force_Field>
OPLS_2005

> <r_lp_Energy>
38.1022

> <b_lp_Chiralities_Consistent>
1

> <s_lp_Variant>
AV-unprocessed.smi:54-5

> <Gold.Version>
5.8.1

> <Gold.Id.Protein>
6NUR|6NUR_protein|mol2

> <Gold.PLP.Fitness>
48.9163

> <Gold.PLP.PLP>
-34.6876

> <Gold.PLP.part.hbond>
-6.7218

> <Gold.PLP.part.metal>
0.0000

> <Gold.PLP.part.buried>
2.7039

> <Gold.PLP.part.nonpolar>
-30.7965

> <Gold.PLP.part.repulsive>
0.3738

> <Gold.PLP.ligand.clash>
0.0000

> <Gold.PLP.ligand.torsion>
0.9066

> <Gold.PLP.Chemscore.Hbond>
4.5497

> <Gold.PLP.Chemscore.CHOScore>
0.7683

> <Gold.PLP.Chemscore.Metal>
0.0000

> <Gold.Chemscore.Hbonds>
donor molecule, donor type, donor heavy atom, donor atom, acceptor molecule, acceptor atom, score
      L1  H    22    43       P1  7948  1.00
      P1  H  6896  6907       L1    24  0.61
      P1  H  7989  7998       L1    15  0.96
      P1  H  8022  8030       L1    18  0.85
      P1  H 10752 10764       L1    11  0.94
      L1  C    12    38       P1  7948  0.32
      L1  C    12    38       P1  7949  0.51

> <Gold.PLP.Chemscore.Internal.Correction>
0.0881

> <Gold.Rescore>
     Score         DG    S(hbond)    S(metal)    S(lipo)     H(rot)  DE(clash)    DE(int)     intcor
      7.86     -12.95       3.01        0.00      66.39       4.05       2.46       2.63       ----

> <Gold.Chemscore.Fitness>
7.8590

> <Gold.Chemscore.DG>
-12.9465

> <Gold.Chemscore.ZeroCoef>
-5.4800

> <Gold.Chemscore.Hbond>
3.0137

> <Gold.Chemscore.Metal>
0.0000

> <Gold.Chemscore.Lipo>
66.3858

> <Gold.Chemscore.Internal_Hbond>
0.0000

> <Gold.Chemscore.DEClash>
2.4562

> <Gold.Chemscore.DEInternal>
2.6313

> <Gold.Chemscore.Rot>
4.0493

> <Gold.Chemscore.Internal.Correction>
   9.000000E+99

> <Gold.Chemscore.Hbonds>
donor molecule, donor type, donor heavy atom, donor atom, acceptor molecule, acceptor atom, score
      L1  H    22    43       P1  7948  0.94
      P1  H  6896  6907       L1    24  0.59
      P1  H  7989  7998       L1    15  0.27
      P1  H  8022  8030       L1    18  0.63
      P1  H 10752 10764       L1    11  0.55

> <Gold.Chemscore.Hbond.Weighted>
-10.0656

> <Gold.Chemscore.Metal.Weighted>
-0.0000

> <Gold.Chemscore.Lipo.Weighted>
-7.7671

> <Gold.Chemscore.Internal_Hbond.Weighted>
0.0000

> <Gold.Chemscore.DEClash.Weighted>
2.4562

> <Gold.Chemscore.DEInternal.Weighted>
2.6313

> <Gold.Chemscore.Rot.Weighted>
10.3662

> <Gold.Chemscore.Internal.Correction.Weighted>
   9.000000E+99

> <Gold.Protein.RotatedTorsions>
[ 6907 6896 6895 6894 ] final   25.24 input  -60.11 | X-H torsion
[ 7974 7965 7964 7962 ] final   -1.46 input  175.53 | X-H torsion
[ 8008 7997 7996 7995 ] final -174.50 input   59.86 | X-H torsion
[ 10167 10162 10161 10158 ] final  -93.03 input  -65.29 | X-H torsion
[ 10718 10713 10712 10709 ] final   50.79 input   66.30 | X-H torsion
[ 10763 10752 10751 10750 ] final  -18.93 input  -60.55 | X-H torsion
[ 11005 11000 10999 10996 ] final  145.19 input  -57.11 | X-H torsion

> <Gold.Protein.ActiveResidues>
 VAL166  LYS551  ARG553  GLY616  TRP617  ASP618  TYR619  PRO620  LYS621  CYS622 
 ASP623  PHE694  ASN695  SER759  ASP760  ASP761  ALA762  ILE779  LEU786  VAL792 
 PHE793  MET794  SER795  GLU796  ALA797  LYS798  CYS799  TRP800  GLU811  SER814 

> <Gold.Protein.RotatedAtoms>
  151.9695  135.0084  160.0551 H   0  0  0  0  0  0  0  0  0  0  0  0  # atno 6907 bound_to 6896
  152.1796  133.4693  159.4959 H   0  0  0  0  0  0  0  0  0  0  0  0  # atno 6908 bound_to 6896
  150.6915  134.1768  159.4276 H   0  0  0  0  0  0  0  0  0  0  0  0  # atno 6909 bound_to 6896
  146.2417  140.1424  142.8335 H   0  0  0  0  0  0  0  0  0  0  0  0  # atno 7974 bound_to 7965
  155.9709  140.1162  157.0813 H   0  0  0  0  0  0  0  0  0  0  0  0  # atno 8008 bound_to 7997
  154.4156  140.1163  156.5372 H   0  0  0  0  0  0  0  0  0  0  0  0  # atno 8009 bound_to 7997
  155.6598  140.3473  155.4780 H   0  0  0  0  0  0  0  0  0  0  0  0  # atno 8010 bound_to 7997
  140.3288  143.3006  151.9964 H   0  0  0  0  0  0  0  0  0  0  0  0  # atno 10167 bound_to 10162
  157.4919  130.8381  149.8212 H   0  0  0  0  0  0  0  0  0  0  0  0  # atno 10718 bound_to 10713
  153.5970  135.7000  153.5400 H   0  0  0  0  0  0  0  0  0  0  0  0  # atno 10763 bound_to 10752
  153.3129  135.4096  155.1351 H   0  0  0  0  0  0  0  0  0  0  0  0  # atno 10764 bound_to 10752
  154.8590  135.3676  154.5504 H   0  0  0  0  0  0  0  0  0  0  0  0  # atno 10765 bound_to 10752
  140.0693  134.9161  157.1317 H   0  0  0  0  0  0  0  0  0  0  0  0  # atno 11005 bound_to 11000
  145.0236  140.8813  143.5152 LP  0  0  0  0  0  0  0  0  0  0  0  0  # atno 17320 bound_to 7965
  145.1476  139.2534  143.5457 LP  0  0  0  0  0  0  0  0  0  0  0  0  # atno 17321 bound_to 7965
  139.4860  144.6251  151.7179 LP  0  0  0  0  0  0  0  0  0  0  0  0  # atno 17342 bound_to 10162
  140.5416  144.0570  150.6090 LP  0  0  0  0  0  0  0  0  0  0  0  0  # atno 17343 bound_to 10162
  156.0178  130.3807  150.2056 LP  0  0  0  0  0  0  0  0  0  0  0  0  # atno 17370 bound_to 10713
  157.0245  130.9989  151.3330 LP  0  0  0  0  0  0  0  0  0  0  0  0  # atno 17371 bound_to 10713
  140.3652  134.2451  155.7183 LP  0  0  0  0  0  0  0  0  0  0  0  0  # atno 17394 bound_to 11000
  141.2005  133.7985  157.0485 LP  0  0  0  0  0  0  0  0  0  0  0  0  # atno 17395 bound_to 11000

$$$$
