AV-unprocessed.smi:2707|AV-procd|sdf|10457|dock3
  -GOLD-   2272014493D 1   1.00000     0.00000
 Structure written by MMmdl.
 44 45  0  0  0  0  0  0  0  0  1 V2000
  140.5347  139.4108  155.9080 C   0  0  0  0  0  0  0  0  0  0  0  0
  140.4444  139.7822  154.4104 C   0  0  2  0  0  0  0  0  0  0  0  0
  141.5593  139.1760  153.6730 N   0  0  0  0  0  0  0  0  0  0  0  0
  141.7609  137.8728  153.4158 C   0  0  0  0  0  0  0  0  0  0  0  0
  140.9914  136.9782  153.7663 O   0  0  0  0  0  0  0  0  0  0  0  0
  142.9048  137.6871  152.7344 N   0  0  0  0  0  0  0  0  0  0  0  0
  143.4767  136.4611  152.3038 C   0  0  0  0  0  0  0  0  0  0  0  0
  144.6944  136.5748  151.6031 C   0  0  0  0  0  0  0  0  0  0  0  0
  145.3220  135.4002  151.1557 C   0  0  0  0  0  0  0  0  0  0  0  0
  144.6891  134.1680  151.4361 C   0  0  0  0  0  0  0  0  0  0  0  0
  145.2704  132.8065  151.0138 C   0  0  0  0  0  0  0  0  0  0  0  0
  144.2965  132.1003  150.0479 C   0  0  0  0  0  0  0  0  0  0  0  0
  145.5002  131.9302  152.2628 C   0  0  0  0  0  0  0  0  0  0  0  0
  146.6278  132.9432  150.2876 C   0  0  0  0  0  0  0  0  0  0  0  0
  143.5140  134.1237  152.1102 N   0  0  0  0  0  0  0  0  0  0  0  0
  142.9226  135.2444  152.5336 N   0  0  0  0  0  0  0  0  0  0  0  0
  140.5326  141.3194  154.2498 C   0  0  0  0  0  0  0  0  0  0  0  0
  139.1825  141.9660  154.5915 C   0  0  0  0  0  0  0  0  0  0  0  0
  137.9049  140.7189  154.1886 S   0  0  0  0  0  0  0  0  0  0  0  0
  137.1595  140.3891  155.4128 O   0  0  0  0  0  0  0  0  0  0  0  0
  137.2031  141.1091  152.9564 O   0  0  0  0  0  0  0  0  0  0  0  0
  139.0823  139.3681  153.8081 C   0  0  0  0  0  0  0  0  0  0  0  0
  139.7593  139.9039  156.4944 H   0  0  0  0  0  0  0  0  0  0  0  0
  141.4970  139.7025  156.3300 H   0  0  0  0  0  0  0  0  0  0  0  0
  140.4186  138.3388  156.0680 H   0  0  0  0  0  0  0  0  0  0  0  0
  142.2587  139.8204  153.3345 H   0  0  0  0  0  0  0  0  0  0  0  0
  143.4367  138.5156  152.5130 H   0  0  0  0  0  0  0  0  0  0  0  0
  145.1436  137.5391  151.4143 H   0  0  0  0  0  0  0  0  0  0  0  0
  146.2563  135.4695  150.6207 H   0  0  0  0  0  0  0  0  0  0  0  0
  144.6916  131.1387  149.7185 H   0  0  0  0  0  0  0  0  0  0  0  0
  144.1149  132.7040  149.1581 H   0  0  0  0  0  0  0  0  0  0  0  0
  143.3306  131.9067  150.5157 H   0  0  0  0  0  0  0  0  0  0  0  0
  144.5701  131.7320  152.7963 H   0  0  0  0  0  0  0  0  0  0  0  0
  146.1834  132.4124  152.9627 H   0  0  0  0  0  0  0  0  0  0  0  0
  145.9299  130.9636  151.9975 H   0  0  0  0  0  0  0  0  0  0  0  0
  147.0204  131.9675  149.9982 H   0  0  0  0  0  0  0  0  0  0  0  0
  147.3801  133.4120  150.9234 H   0  0  0  0  0  0  0  0  0  0  0  0
  146.5401  133.5343  149.3752 H   0  0  0  0  0  0  0  0  0  0  0  0
  141.3409  141.7494  154.8426 H   0  0  0  0  0  0  0  0  0  0  0  0
  140.7579  141.5542  153.2081 H   0  0  0  0  0  0  0  0  0  0  0  0
  139.1136  142.1875  155.6566 H   0  0  0  0  0  0  0  0  0  0  0  0
  139.0004  142.8849  154.0339 H   0  0  0  0  0  0  0  0  0  0  0  0
  139.1414  139.2875  152.7222 H   0  0  0  0  0  0  0  0  0  0  0  0
  138.7018  138.4232  154.1975 H   0  0  0  0  0  0  0  0  0  0  0  0
  1  2  1  0  0  0  0
  1 23  1  0  0  0  0
  1 24  1  0  0  0  0
  1 25  1  0  0  0  0
  2 22  1  0  0  0  0
  2  3  1  0  0  0  0
  2 17  1  0  0  0  0
  3  4  1  0  0  0  0
  3 26  1  0  0  0  0
  4  5  2  0  0  0  0
  4  6  1  0  0  0  0
  6  7  1  0  0  0  0
  6 27  1  0  0  0  0
  7 16  1  0  0  0  0
  7  8  2  0  0  0  0
  8  9  1  0  0  0  0
  8 28  1  0  0  0  0
  9 10  2  0  0  0  0
  9 29  1  0  0  0  0
 10 11  1  0  0  0  0
 10 15  1  0  0  0  0
 11 12  1  0  0  0  0
 11 13  1  0  0  0  0
 11 14  1  0  0  0  0
 12 30  1  0  0  0  0
 12 31  1  0  0  0  0
 12 32  1  0  0  0  0
 13 33  1  0  0  0  0
 13 34  1  0  0  0  0
 13 35  1  0  0  0  0
 14 36  1  0  0  0  0
 14 37  1  0  0  0  0
 14 38  1  0  0  0  0
 15 16  2  0  0  0  0
 17 18  1  0  0  0  0
 17 39  1  0  0  0  0
 17 40  1  0  0  0  0
 18 19  1  0  0  0  0
 18 41  1  0  0  0  0
 18 42  1  0  0  0  0
 19 20  2  0  0  0  0
 19 21  2  0  0  0  0
 19 22  1  0  0  0  0
 22 43  1  0  0  0  0
 22 44  1  0  0  0  0
M  END
> <s_m_source_file>
AV-unprocessed.smi

> <i_m_source_file_index>
2707

> <i_lp_mmshare_version>
43012

> <i_f3d_flags>
0

> <s_epik_input>
Tz1TKD1PKShbQ0gyXTEpW0NIMl1bQ0gyXVtDQEBdMShbQ0gzXSlbTkhdQyg9TylbTkhdYzJbY0hdW2NIXWMobm4yKUMoW0NIM10pKFtDSDNdKVtDSDNd

> <s_epik_cmdline>
J2VwaWtfcHl0aG9uJywgJy1waCcsICc3LjAnLCAnLXRuJywgJzgnLCAnLW1hJywgJzIwMCcsICctbWV0YWxfYmluZGluZycsICctaW1hZScsICc8aW5maWxlLm1hZT4nLCAnLW9tYWUnLCAnPG91dGZpbGUubWFlPic=

> <r_lp_tautomer_probability>
1

> <r_epik_Ionization_Penalty>
0.00910408

> <r_epik_Ionization_Penalty_Charging>
0

> <r_epik_Ionization_Penalty_Neutral>
0.00910408

> <r_epik_State_Penalty>
-0

> <r_epik_Charging_Adjusted_Penalty>
0

> <i_epik_Tot_Q>
0

> <i_epik_Tot_abs_Q>
0

> <r_epik_Metal_State_Penalty>
-0

> <b_epik_Metal_Only>
0

> <s_lp_Force_Field>
OPLS_2005

> <r_lp_Energy>
10.6556

> <b_lp_Chiralities_Consistent>
1

> <s_lp_Variant>
AV-unprocessed.smi:2707-2

> <Gold.Version>
5.8.1

> <Gold.Id.Protein>
6NUR|6NUR_protein|mol2

> <Gold.PLP.Fitness>
36.9984

> <Gold.PLP.PLP>
-31.1795

> <Gold.PLP.part.hbond>
-2.7139

> <Gold.PLP.part.metal>
0.0000

> <Gold.PLP.part.buried>
-1.9835

> <Gold.PLP.part.nonpolar>
-26.8231

> <Gold.PLP.part.repulsive>
0.5698

> <Gold.PLP.ligand.clash>
0.0000

> <Gold.PLP.ligand.torsion>
0.0971

> <Gold.PLP.Chemscore.Hbond>
2.0000

> <Gold.PLP.Chemscore.CHOScore>
0.0000

> <Gold.PLP.Chemscore.Metal>
0.0000

> <Gold.Chemscore.Hbonds>
donor molecule, donor type, donor heavy atom, donor atom, acceptor molecule, acceptor atom, score
      L1  H     3    26       P1 10175  1.00
      L1  H     6    27       P1 10175  1.00

> <Gold.PLP.Chemscore.Internal.Correction>
0.0132

> <Gold.Rescore>
     Score         DG    S(hbond)    S(metal)    S(lipo)     H(rot)  DE(clash)    DE(int)     intcor
     13.98     -16.41       1.87        0.00      66.94       1.22       1.11       1.33       ----

> <Gold.Chemscore.Fitness>
13.9753

> <Gold.Chemscore.DG>
-16.4095

> <Gold.Chemscore.ZeroCoef>
-5.4800

> <Gold.Chemscore.Hbond>
1.8656

> <Gold.Chemscore.Metal>
0.0000

> <Gold.Chemscore.Lipo>
66.9442

> <Gold.Chemscore.Internal_Hbond>
0.0000

> <Gold.Chemscore.DEClash>
1.1070

> <Gold.Chemscore.DEInternal>
1.3272

> <Gold.Chemscore.Rot>
1.2242

> <Gold.Chemscore.Internal.Correction>
   9.000000E+99

> <Gold.Chemscore.Hbonds>
donor molecule, donor type, donor heavy atom, donor atom, acceptor molecule, acceptor atom, score
      L1  H     3    26       P1 10175  0.88
      L1  H     6    27       P1 10175  0.95

> <Gold.Chemscore.Hbond.Weighted>
-6.2311

> <Gold.Chemscore.Metal.Weighted>
-0.0000

> <Gold.Chemscore.Lipo.Weighted>
-7.8325

> <Gold.Chemscore.Internal_Hbond.Weighted>
0.0000

> <Gold.Chemscore.DEClash.Weighted>
1.1070

> <Gold.Chemscore.DEInternal.Weighted>
1.3272

> <Gold.Chemscore.Rot.Weighted>
3.1340

> <Gold.Chemscore.Internal.Correction.Weighted>
   9.000000E+99

> <Gold.Protein.RotatedTorsions>
[ 6907 6896 6895 6894 ] final   31.38 input  -60.11 | X-H torsion
[ 7974 7965 7964 7962 ] final -109.50 input  175.53 | X-H torsion
[ 8008 7997 7996 7995 ] final  -95.91 input   59.86 | X-H torsion
[ 10167 10162 10161 10158 ] final  135.04 input  -65.29 | X-H torsion
[ 10718 10713 10712 10709 ] final  -28.64 input   66.30 | X-H torsion
[ 10763 10752 10751 10750 ] final  -46.27 input  -60.55 | X-H torsion
[ 11005 11000 10999 10996 ] final -107.32 input  -57.11 | X-H torsion

> <Gold.Protein.ActiveResidues>
 VAL166  LYS551  ARG553  GLY616  TRP617  ASP618  TYR619  PRO620  LYS621  CYS622 
 ASP623  PHE694  ASN695  SER759  ASP760  ASP761  ALA762  ILE779  LEU786  VAL792 
 PHE793  MET794  SER795  GLU796  ALA797  LYS798  CYS799  TRP800  GLU811  SER814 

> <Gold.Protein.RotatedAtoms>
  152.0595  134.9603  160.0574 H   0  0  0  0  0  0  0  0  0  0  0  0  # atno 6907 bound_to 6896
  152.0972  133.4226  159.4579 H   0  0  0  0  0  0  0  0  0  0  0  0  # atno 6908 bound_to 6896
  150.6838  134.2721  159.4636 H   0  0  0  0  0  0  0  0  0  0  0  0  # atno 6909 bound_to 6896
  145.1798  140.8965  143.3487 H   0  0  0  0  0  0  0  0  0  0  0  0  # atno 7974 bound_to 7965
  154.7675  140.0476  157.1024 H   0  0  0  0  0  0  0  0  0  0  0  0  # atno 8008 bound_to 7997
  154.9861  140.3107  155.4906 H   0  0  0  0  0  0  0  0  0  0  0  0  # atno 8009 bound_to 7997
  156.2915  140.2227  156.4963 H   0  0  0  0  0  0  0  0  0  0  0  0  # atno 8010 bound_to 7997
  139.5232  144.6537  151.5226 H   0  0  0  0  0  0  0  0  0  0  0  0  # atno 10167 bound_to 10162
  156.4226  130.4429  149.7173 H   0  0  0  0  0  0  0  0  0  0  0  0  # atno 10718 bound_to 10713
  154.0422  135.6642  153.4791 H   0  0  0  0  0  0  0  0  0  0  0  0  # atno 10763 bound_to 10752
  153.0497  135.5092  154.7831 H   0  0  0  0  0  0  0  0  0  0  0  0  # atno 10764 bound_to 10752
  154.6811  135.3045  154.9578 H   0  0  0  0  0  0  0  0  0  0  0  0  # atno 10765 bound_to 10752
  141.0960  133.8970  157.1961 H   0  0  0  0  0  0  0  0  0  0  0  0  # atno 11005 bound_to 11000
  145.0148  139.3477  143.6102 LP  0  0  0  0  0  0  0  0  0  0  0  0  # atno 17320 bound_to 7965
  146.3455  139.9425  142.8739 LP  0  0  0  0  0  0  0  0  0  0  0  0  # atno 17321 bound_to 7965
  140.6353  143.8996  150.6642 LP  0  0  0  0  0  0  0  0  0  0  0  0  # atno 17342 bound_to 10162
  140.2313  143.3733  152.1563 LP  0  0  0  0  0  0  0  0  0  0  0  0  # atno 17343 bound_to 10162
  156.4107  130.7721  151.2734 LP  0  0  0  0  0  0  0  0  0  0  0  0  # atno 17370 bound_to 10713
  157.7508  131.0212  150.3740 LP  0  0  0  0  0  0  0  0  0  0  0  0  # atno 17371 bound_to 10713
  139.9797  135.0102  156.9719 LP  0  0  0  0  0  0  0  0  0  0  0  0  # atno 17394 bound_to 11000
  140.5139  134.0975  155.7276 LP  0  0  0  0  0  0  0  0  0  0  0  0  # atno 17395 bound_to 11000

$$$$
