AV-unprocessed.smi:1385|AV-procd|sdf|5629|dock8
  -GOLD-   22720 5243D 1   1.00000     0.00000
 Structure written by MMmdl.
 39 40  0  0  0  0  0  0  0  0  2 V2000
  153.2726  142.3690  160.8331 C   0  0  0  0  0  0  0  0  0  0  0  0
  153.0241  141.3597  159.7649 C   0  0  0  0  0  0  0  0  0  0  0  0
  153.9495  140.4737  159.3774 N   0  0  0  0  0  0  0  0  0  0  0  0
  153.4876  139.6371  158.3708 N   0  0  0  0  0  0  0  0  0  0  0  0
  152.2219  139.9163  158.0302 C   0  0  0  0  0  0  0  0  0  0  0  0
  151.5010  139.2142  157.0280 N   0  0  0  0  0  0  0  0  0  0  0  0
  150.1823  139.2561  156.7676 C   0  0  0  0  0  0  0  0  0  0  0  0
  149.3555  139.9312  157.3815 O   0  0  0  0  0  0  0  0  0  0  0  0
  149.8638  138.4584  155.7374 N   0  0  0  0  0  0  0  0  0  0  0  0
  148.5195  138.2899  155.1928 C   0  0  2  0  0  0  0  0  0  0  0  0
  148.1823  136.7992  155.0085 C   0  0  0  0  0  0  0  0  0  0  0  0
  146.8044  136.6223  154.3502 C   0  0  0  0  0  0  0  0  0  0  0  0
  146.7380  137.3348  153.0461 N   0  3  1  0  0  0  0  0  0  0  0  0
  145.4728  137.0835  152.3084 C   0  0  0  0  0  0  0  0  0  0  0  0
  145.5908  135.9510  151.2829 C   0  0  0  0  0  0  0  0  0  0  0  0
  145.3180  136.2584  150.0129 N   0  0  0  0  0  0  0  0  0  0  0  0
  145.9361  134.8212  151.6245 O   0  0  0  0  0  0  0  0  0  0  0  0
  147.0253  138.7839  153.2016 C   0  0  0  0  0  0  0  0  0  0  0  0
  148.4058  139.0129  153.8410 C   0  0  0  0  0  0  0  0  0  0  0  0
  151.4850  141.2371  158.9211 S   0  0  0  0  0  0  0  0  0  0  0  0
  154.3303  142.6317  160.8712 H   0  0  0  0  0  0  0  0  0  0  0  0
  152.9751  141.9662  161.8014 H   0  0  0  0  0  0  0  0  0  0  0  0
  152.6968  143.2735  160.6372 H   0  0  0  0  0  0  0  0  0  0  0  0
  152.0566  138.6107  156.4402 H   0  0  0  0  0  0  0  0  0  0  0  0
  150.6058  137.9373  155.2932 H   0  0  0  0  0  0  0  0  0  0  0  0
  147.7981  138.7364  155.8803 H   0  0  0  0  0  0  0  0  0  0  0  0
  148.9432  136.3178  154.3922 H   0  0  0  0  0  0  0  0  0  0  0  0
  148.1949  136.2865  155.9711 H   0  0  0  0  0  0  0  0  0  0  0  0
  146.6108  135.5585  154.2097 H   0  0  0  0  0  0  0  0  0  0  0  0
  146.0229  136.9990  155.0122 H   0  0  0  0  0  0  0  0  0  0  0  0
  144.6627  136.8819  153.0115 H   0  0  0  0  0  0  0  0  0  0  0  0
  145.1889  137.9776  151.7515 H   0  0  0  0  0  0  0  0  0  0  0  0
  145.3767  135.5510  149.2944 H   0  0  0  0  0  0  0  0  0  0  0  0
  145.0495  137.2023  149.7727 H   0  0  0  0  0  0  0  0  0  0  0  0
  146.9992  139.2714  152.2263 H   0  0  0  0  0  0  0  0  0  0  0  0
  146.2465  139.2473  153.8097 H   0  0  0  0  0  0  0  0  0  0  0  0
  148.5768  140.0820  153.9730 H   0  0  0  0  0  0  0  0  0  0  0  0
  149.1825  138.6570  153.1619 H   0  0  0  0  0  0  0  0  0  0  0  0
  147.4762  136.9592  152.4675 H   0  0  0  0  0  0  0  0  0  0  0  0
  1  2  1  0  0  0  0
  1 21  1  0  0  0  0
  1 22  1  0  0  0  0
  1 23  1  0  0  0  0
  2 20  1  0  0  0  0
  2  3  2  0  0  0  0
  3  4  1  0  0  0  0
  4  5  2  0  0  0  0
  5  6  1  0  0  0  0
  5 20  1  0  0  0  0
  6  7  1  0  0  0  0
  6 24  1  0  0  0  0
  7  8  2  0  0  0  0
  7  9  1  0  0  0  0
  9 10  1  0  0  0  0
  9 25  1  0  0  0  0
 10 19  1  0  0  0  0
 10 11  1  0  0  0  0
 10 26  1  0  0  0  0
 11 12  1  0  0  0  0
 11 27  1  0  0  0  0
 11 28  1  0  0  0  0
 12 13  1  0  0  0  0
 12 29  1  0  0  0  0
 12 30  1  0  0  0  0
 13 14  1  0  0  0  0
 13 18  1  0  0  0  0
 13 39  1  0  0  0  0
 14 15  1  0  0  0  0
 14 31  1  0  0  0  0
 14 32  1  0  0  0  0
 15 16  1  0  0  0  0
 15 17  2  0  0  0  0
 16 33  1  0  0  0  0
 16 34  1  0  0  0  0
 18 19  1  0  0  0  0
 18 35  1  0  0  0  0
 18 36  1  0  0  0  0
 19 37  1  0  0  0  0
 19 38  1  0  0  0  0
M  CHG  1  13   1
M  END
> <s_m_source_file>
AV-unprocessed.smi

> <i_m_source_file_index>
1385

> <i_lp_mmshare_version>
43012

> <i_f3d_flags>
0

> <s_epik_input>
W0NIM11jMW5uYyhzMSlbTkhdQyg9TylbTkhdW0NIXTJbQ0gyXVtDSDJdTihbQ0gyXVtDSDJdMilbQ0gyXUMoPU8pW05IMl0=

> <s_epik_cmdline>
J2VwaWtfcHl0aG9uJywgJy1waCcsICc3LjAnLCAnLXRuJywgJzgnLCAnLW1hJywgJzIwMCcsICctbWV0YWxfYmluZGluZycsICctaW1hZScsICc8aW5maWxlLm1hZT4nLCAnLW9tYWUnLCAnPG91dGZpbGUubWFlPic=

> <r_lp_tautomer_probability>
1

> <r_epik_Ionization_Penalty>
0.866317

> <r_epik_Ionization_Penalty_Charging>
0.862349

> <r_epik_Ionization_Penalty_Neutral>
0.00396799

> <r_epik_State_Penalty>
0.898939

> <r_epik_Charging_Adjusted_Penalty>
1.76129

> <i_epik_Tot_Q>
1

> <i_epik_Tot_abs_Q>
1

> <r_epik_Metal_State_Penalty>
1.25402

> <b_epik_Metal_Only>
0

> <s_lp_Force_Field>
OPLS_2005

> <r_lp_Energy>
10.5623

> <b_lp_Chiralities_Consistent>
1

> <s_lp_Variant>
AV-unprocessed.smi:1385-2

> <Gold.Version>
5.8.1

> <Gold.Id.Protein>
6NUR|6NUR_protein|mol2

> <Gold.PLP.Fitness>
40.0106

> <Gold.PLP.PLP>
-26.4413

> <Gold.PLP.part.hbond>
-4.4817

> <Gold.PLP.part.metal>
0.0000

> <Gold.PLP.part.buried>
-3.8587

> <Gold.PLP.part.nonpolar>
-18.9029

> <Gold.PLP.part.repulsive>
0.3881

> <Gold.PLP.ligand.clash>
0.0000

> <Gold.PLP.ligand.torsion>
0.7246

> <Gold.PLP.Chemscore.Hbond>
5.0000

> <Gold.PLP.Chemscore.CHOScore>
0.0000

> <Gold.PLP.Chemscore.Metal>
0.0000

> <Gold.Chemscore.Hbonds>
donor molecule, donor type, donor heavy atom, donor atom, acceptor molecule, acceptor atom, score
      L1  H    13    39       P1  7948  2.00
      L1  H    16    33       P1  7921  1.00
      L1  H    16    34       P1 10171  1.00
      P1  H  7997  8010       L1     4  1.00

> <Gold.PLP.Chemscore.Internal.Correction>
0.0184

> <Gold.Rescore>
     Score         DG    S(hbond)    S(metal)    S(lipo)     H(rot)  DE(clash)    DE(int)     intcor
     16.03     -18.51       3.69        0.00      51.11       2.07       0.48       2.00       ----

> <Gold.Chemscore.Fitness>
16.0271

> <Gold.Chemscore.DG>
-18.5074

> <Gold.Chemscore.ZeroCoef>
-5.4800

> <Gold.Chemscore.Hbond>
3.6929

> <Gold.Chemscore.Metal>
0.0000

> <Gold.Chemscore.Lipo>
51.1070

> <Gold.Chemscore.Internal_Hbond>
0.0000

> <Gold.Chemscore.DEClash>
0.4792

> <Gold.Chemscore.DEInternal>
2.0012

> <Gold.Chemscore.Rot>
2.0650

> <Gold.Chemscore.Internal.Correction>
   9.000000E+99

> <Gold.Chemscore.Hbonds>
donor molecule, donor type, donor heavy atom, donor atom, acceptor molecule, acceptor atom, score
      L1  H    13    39       P1  7948  1.00
      L1  H    16    33       P1  7921  0.94
      L1  H    16    34       P1 10171  0.96
      P1  H  7997  8010       L1     4  0.26

> <Gold.Chemscore.Hbond.Weighted>
-12.3343

> <Gold.Chemscore.Metal.Weighted>
-0.0000

> <Gold.Chemscore.Lipo.Weighted>
-5.9795

> <Gold.Chemscore.Internal_Hbond.Weighted>
0.0000

> <Gold.Chemscore.DEClash.Weighted>
0.4792

> <Gold.Chemscore.DEInternal.Weighted>
2.0012

> <Gold.Chemscore.Rot.Weighted>
5.2864

> <Gold.Chemscore.Internal.Correction.Weighted>
   9.000000E+99

> <Gold.Protein.RotatedTorsions>
[ 6907 6896 6895 6894 ] final  126.89 input  -60.11 | X-H torsion
[ 7974 7965 7964 7962 ] final  -64.33 input  175.53 | X-H torsion
[ 8008 7997 7996 7995 ] final   35.10 input   59.86 | X-H torsion
[ 10167 10162 10161 10158 ] final  -76.95 input  -65.29 | X-H torsion
[ 10718 10713 10712 10709 ] final   35.28 input   66.30 | X-H torsion
[ 10763 10752 10751 10750 ] final -179.73 input  -60.55 | X-H torsion
[ 11005 11000 10999 10996 ] final  -52.93 input  -57.11 | X-H torsion

> <Gold.Protein.ActiveResidues>
 VAL166  LYS551  ARG553  GLY616  TRP617  ASP618  TYR619  PRO620  LYS621  CYS622 
 ASP623  PHE694  ASN695  SER759  ASP760  ASP761  ALA762  ILE779  LEU786  VAL792 
 PHE793  MET794  SER795  GLU796  ALA797  LYS798  CYS799  TRP800  GLU811  SER814 

> <Gold.Protein.RotatedAtoms>
  152.3863  133.6615  159.6200 H   0  0  0  0  0  0  0  0  0  0  0  0  # atno 6907 bound_to 6896
  150.7781  133.9030  159.3356 H   0  0  0  0  0  0  0  0  0  0  0  0  # atno 6908 bound_to 6896
  151.6826  135.0961  160.0270 H   0  0  0  0  0  0  0  0  0  0  0  0  # atno 6909 bound_to 6896
  145.7680  140.8827  143.0395 H   0  0  0  0  0  0  0  0  0  0  0  0  # atno 7974 bound_to 7965
  155.1656  140.3287  155.4403 H   0  0  0  0  0  0  0  0  0  0  0  0  # atno 8008 bound_to 7997
  156.2528  140.1952  156.6712 H   0  0  0  0  0  0  0  0  0  0  0  0  # atno 8009 bound_to 7997
  154.6374  140.0574  156.9791 H   0  0  0  0  0  0  0  0  0  0  0  0  # atno 8010 bound_to 7997
  140.4812  143.2402  151.8055 H   0  0  0  0  0  0  0  0  0  0  0  0  # atno 10167 bound_to 10162
  157.3208  130.7447  149.6784 H   0  0  0  0  0  0  0  0  0  0  0  0  # atno 10718 bound_to 10713
  154.5314  135.2800  155.1177 H   0  0  0  0  0  0  0  0  0  0  0  0  # atno 10763 bound_to 10752
  154.2696  135.6306  153.5309 H   0  0  0  0  0  0  0  0  0  0  0  0  # atno 10764 bound_to 10752
  152.9957  135.5625  154.5828 H   0  0  0  0  0  0  0  0  0  0  0  0  # atno 10765 bound_to 10752
  141.0950  133.6626  156.4097 H   0  0  0  0  0  0  0  0  0  0  0  0  # atno 11005 bound_to 11000
  144.6818  139.9816  143.7483 LP  0  0  0  0  0  0  0  0  0  0  0  0  # atno 17320 bound_to 7965
  146.0198  139.3241  143.0820 LP  0  0  0  0  0  0  0  0  0  0  0  0  # atno 17321 bound_to 7965
  139.4834  144.4770  151.9355 LP  0  0  0  0  0  0  0  0  0  0  0  0  # atno 17342 bound_to 10162
  140.3855  144.2682  150.5904 LP  0  0  0  0  0  0  0  0  0  0  0  0  # atno 17343 bound_to 10162
  155.9685  130.4224  150.4513 LP  0  0  0  0  0  0  0  0  0  0  0  0  # atno 17370 bound_to 10713
  157.2528  131.0550  151.2369 LP  0  0  0  0  0  0  0  0  0  0  0  0  # atno 17371 bound_to 10713
  140.5162  134.6348  157.5302 LP  0  0  0  0  0  0  0  0  0  0  0  0  # atno 17394 bound_to 11000
  139.9784  134.7177  155.9905 LP  0  0  0  0  0  0  0  0  0  0  0  0  # atno 17395 bound_to 11000

$$$$
