AV-unprocessed.smi:3016|AV-procd|sdf|11474|dock3
  -GOLD-   2272016413D 1   1.00000     0.00000
 Structure written by MMmdl.
 34 35  0  0  0  0  0  0  0  0  1 V2000
  152.4298  138.0630  154.5391 C   0  0  0  0  0  0  0  0  0  0  0  0
  150.9517  137.6877  154.6939 C   0  0  0  0  0  0  0  0  0  0  0  0
  150.0908  138.8613  154.6612 N   0  0  0  0  0  0  0  0  0  0  0  0
  148.8221  138.8101  154.0936 C   0  0  0  0  0  0  0  0  0  0  0  0
  147.9614  139.8459  154.0755 C   0  0  0  0  0  0  0  0  0  0  0  0
  148.3579  141.1272  154.6934 C   0  0  0  0  0  0  0  0  0  0  0  0
  147.5976  142.0956  154.6900 O   0  0  0  0  0  0  0  0  0  0  0  0
  149.7098  141.1793  155.3111 C   0  0  0  0  0  0  0  0  0  0  0  0
  150.0754  142.4029  155.8973 N   0  0  0  0  0  0  0  0  0  0  0  0
  150.9780  142.6549  156.8632 C   0  0  0  0  0  0  0  0  0  0  0  0
  151.6716  141.8189  157.4414 O   0  0  0  0  0  0  0  0  0  0  0  0
  151.0308  143.9664  157.1348 N   0  0  0  0  0  0  0  0  0  0  0  0
  151.8880  144.5773  158.1423 C   0  0  0  0  0  0  0  0  0  0  0  0
  151.6061  144.1415  159.5675 C   0  0  0  0  0  0  0  0  0  0  0  0
  150.4947  144.7923  160.3574 C   0  0  0  0  0  0  0  0  0  0  0  0
  151.9340  145.0367  160.7403 C   0  0  0  0  0  0  0  0  0  0  0  0
  150.4776  140.0605  155.2567 C   0  0  0  0  0  0  0  0  0  0  0  0
  153.0601  137.1743  154.5657 H   0  0  0  0  0  0  0  0  0  0  0  0
  152.7539  138.7257  155.3422 H   0  0  0  0  0  0  0  0  0  0  0  0
  152.6100  138.5706  153.5910 H   0  0  0  0  0  0  0  0  0  0  0  0
  150.6597  136.9992  153.8999 H   0  0  0  0  0  0  0  0  0  0  0  0
  150.8014  137.1526  155.6323 H   0  0  0  0  0  0  0  0  0  0  0  0
  148.5702  137.8572  153.6510 H   0  0  0  0  0  0  0  0  0  0  0  0
  146.9858  139.7607  153.6198 H   0  0  0  0  0  0  0  0  0  0  0  0
  149.5736  143.2015  155.5371 H   0  0  0  0  0  0  0  0  0  0  0  0
  150.4267  144.5861  156.6148 H   0  0  0  0  0  0  0  0  0  0  0  0
  152.9374  144.3968  157.9024 H   0  0  0  0  0  0  0  0  0  0  0  0
  151.7443  145.6562  158.0840 H   0  0  0  0  0  0  0  0  0  0  0  0
  151.7274  143.0720  159.7295 H   0  0  0  0  0  0  0  0  0  0  0  0
  149.9541  145.6140  159.8917 H   0  0  0  0  0  0  0  0  0  0  0  0
  149.9017  144.1543  161.0097 H   0  0  0  0  0  0  0  0  0  0  0  0
  152.3034  144.5602  161.6459 H   0  0  0  0  0  0  0  0  0  0  0  0
  152.3506  146.0195  160.5279 H   0  0  0  0  0  0  0  0  0  0  0  0
  151.4728  140.0087  155.6676 H   0  0  0  0  0  0  0  0  0  0  0  0
  1  2  1  0  0  0  0
  1 18  1  0  0  0  0
  1 19  1  0  0  0  0
  1 20  1  0  0  0  0
  2  3  1  0  0  0  0
  2 21  1  0  0  0  0
  2 22  1  0  0  0  0
  3 17  1  0  0  0  0
  3  4  1  0  0  0  0
  4  5  2  0  0  0  0
  4 23  1  0  0  0  0
  5  6  1  0  0  0  0
  5 24  1  0  0  0  0
  6  7  2  0  0  0  0
  6  8  1  0  0  0  0
  8  9  1  0  0  0  0
  8 17  2  0  0  0  0
  9 10  1  0  0  0  0
  9 25  1  0  0  0  0
 10 11  2  0  0  0  0
 10 12  1  0  0  0  0
 12 13  1  0  0  0  0
 12 26  1  0  0  0  0
 13 14  1  0  0  0  0
 13 27  1  0  0  0  0
 13 28  1  0  0  0  0
 14 16  1  0  0  0  0
 14 15  1  0  0  0  0
 14 29  1  0  0  0  0
 15 16  1  0  0  0  0
 15 30  1  0  0  0  0
 15 31  1  0  0  0  0
 16 32  1  0  0  0  0
 16 33  1  0  0  0  0
 17 34  1  0  0  0  0
M  END
> <s_m_source_file>
AV-unprocessed.smi

> <i_m_source_file_index>
3016

> <i_lp_mmshare_version>
43012

> <i_f3d_flags>
0

> <s_epik_input>
W0NIM11bQ0gyXW4xW2NIXVtjSF1jKD1PKWMoW2NIXTEpW05IXUMoPU8pW05IXVtDSDJdW0NIXTJbQ0gyXVtDSDJdMg==

> <s_epik_cmdline>
J2VwaWtfcHl0aG9uJywgJy1waCcsICc3LjAnLCAnLXRuJywgJzgnLCAnLW1hJywgJzIwMCcsICctbWV0YWxfYmluZGluZycsICctaW1hZScsICc8aW5maWxlLm1hZT4nLCAnLW9tYWUnLCAnPG91dGZpbGUubWFlPic=

> <r_lp_tautomer_probability>
1

> <r_epik_Ionization_Penalty>
0.00140323

> <r_epik_Ionization_Penalty_Charging>
0.00138172

> <r_epik_Ionization_Penalty_Neutral>
2.15082e-05

> <r_epik_State_Penalty>
0.000920559

> <r_epik_Charging_Adjusted_Penalty>
0.00230228

> <i_epik_Tot_Q>
0

> <i_epik_Tot_abs_Q>
0

> <r_epik_Metal_State_Penalty>
-0

> <b_epik_Metal_Only>
0

> <s_lp_Force_Field>
OPLS_2005

> <r_lp_Energy>
6.69626

> <b_lp_Chiralities_Consistent>
1

> <s_lp_Variant>
AV-unprocessed.smi:3016-1

> <Gold.Version>
5.8.1

> <Gold.Id.Protein>
6NUR|6NUR_protein|mol2

> <Gold.PLP.Fitness>
45.9419

> <Gold.PLP.PLP>
-37.9357

> <Gold.PLP.part.hbond>
-2.0000

> <Gold.PLP.part.metal>
0.0000

> <Gold.PLP.part.buried>
-3.2354

> <Gold.PLP.part.nonpolar>
-34.5362

> <Gold.PLP.part.repulsive>
0.6739

> <Gold.PLP.ligand.clash>
0.0000

> <Gold.PLP.ligand.torsion>
0.7328

> <Gold.PLP.Chemscore.Hbond>
1.9760

> <Gold.PLP.Chemscore.CHOScore>
1.0000

> <Gold.PLP.Chemscore.Metal>
0.0000

> <Gold.Chemscore.Hbonds>
donor molecule, donor type, donor heavy atom, donor atom, acceptor molecule, acceptor atom, score
      L1  H     9    25       P1  8028  1.00
      L1  H    12    26       P1  8028  0.94
      L1  C     4    23       P1  7948  1.00

> <Gold.PLP.Chemscore.Internal.Correction>
0.5437

> <Gold.Rescore>
     Score         DG    S(hbond)    S(metal)    S(lipo)     H(rot)  DE(clash)    DE(int)     intcor
     17.04     -18.46       1.92        0.00      85.93       1.36       0.09       1.33       ----

> <Gold.Chemscore.Fitness>
17.0430

> <Gold.Chemscore.DG>
-18.4640

> <Gold.Chemscore.ZeroCoef>
-5.4800

> <Gold.Chemscore.Hbond>
1.9172

> <Gold.Chemscore.Metal>
0.0000

> <Gold.Chemscore.Lipo>
85.9328

> <Gold.Chemscore.Internal_Hbond>
0.0000

> <Gold.Chemscore.DEClash>
0.0931

> <Gold.Chemscore.DEInternal>
1.3279

> <Gold.Chemscore.Rot>
1.3569

> <Gold.Chemscore.Internal.Correction>
   9.000000E+99

> <Gold.Chemscore.Hbonds>
donor molecule, donor type, donor heavy atom, donor atom, acceptor molecule, acceptor atom, score
      L1  H     9    25       P1  8028  0.97
      L1  H    12    26       P1  8028  0.86

> <Gold.Chemscore.Hbond.Weighted>
-6.4036

> <Gold.Chemscore.Metal.Weighted>
-0.0000

> <Gold.Chemscore.Lipo.Weighted>
-10.0541

> <Gold.Chemscore.Internal_Hbond.Weighted>
0.0000

> <Gold.Chemscore.DEClash.Weighted>
0.0931

> <Gold.Chemscore.DEInternal.Weighted>
1.3279

> <Gold.Chemscore.Rot.Weighted>
3.4737

> <Gold.Chemscore.Internal.Correction.Weighted>
   9.000000E+99

> <Gold.Protein.RotatedTorsions>
[ 6907 6896 6895 6894 ] final -138.78 input  -60.11 | X-H torsion
[ 7974 7965 7964 7962 ] final  -67.61 input  175.53 | X-H torsion
[ 8008 7997 7996 7995 ] final -178.10 input   59.86 | X-H torsion
[ 10167 10162 10161 10158 ] final  -58.42 input  -65.29 | X-H torsion
[ 10718 10713 10712 10709 ] final    7.89 input   66.30 | X-H torsion
[ 10763 10752 10751 10750 ] final  165.15 input  -60.55 | X-H torsion
[ 11005 11000 10999 10996 ] final  -71.02 input  -57.11 | X-H torsion

> <Gold.Protein.ActiveResidues>
 VAL166  LYS551  ARG553  GLY616  TRP617  ASP618  TYR619  PRO620  LYS621  CYS622 
 ASP623  PHE694  ASN695  SER759  ASP760  ASP761  ALA762  ILE779  LEU786  VAL792 
 PHE793  MET794  SER795  GLU796  ALA797  LYS798  CYS799  TRP800  GLU811  SER814 

> <Gold.Protein.RotatedAtoms>
  151.0393  133.5720  159.2652 H   0  0  0  0  0  0  0  0  0  0  0  0  # atno 6907 bound_to 6896
  151.2772  135.0702  159.9166 H   0  0  0  0  0  0  0  0  0  0  0  0  # atno 6908 bound_to 6896
  152.5361  134.0114  159.7994 H   0  0  0  0  0  0  0  0  0  0  0  0  # atno 6909 bound_to 6896
  145.7270  140.9014  143.0600 H   0  0  0  0  0  0  0  0  0  0  0  0  # atno 7974 bound_to 7965
  156.0148  140.1248  157.0418 H   0  0  0  0  0  0  0  0  0  0  0  0  # atno 8008 bound_to 7997
  154.4289  140.1080  156.5950 H   0  0  0  0  0  0  0  0  0  0  0  0  # atno 8009 bound_to 7997
  155.6029  140.3470  155.4601 H   0  0  0  0  0  0  0  0  0  0  0  0  # atno 8010 bound_to 7997
  140.6198  143.2415  151.5508 H   0  0  0  0  0  0  0  0  0  0  0  0  # atno 10167 bound_to 10162
  156.9436  130.5870  149.5653 H   0  0  0  0  0  0  0  0  0  0  0  0  # atno 10718 bound_to 10713
  154.3196  135.2756  155.2526 H   0  0  0  0  0  0  0  0  0  0  0  0  # atno 10763 bound_to 10752
  154.4885  135.5840  153.6445 H   0  0  0  0  0  0  0  0  0  0  0  0  # atno 10764 bound_to 10752
  152.9878  135.6129  154.3380 H   0  0  0  0  0  0  0  0  0  0  0  0  # atno 10765 bound_to 10752
  141.1585  133.6806  156.6841 H   0  0  0  0  0  0  0  0  0  0  0  0  # atno 11005 bound_to 11000
  144.6902  139.9279  143.7470 LP  0  0  0  0  0  0  0  0  0  0  0  0  # atno 17320 bound_to 7965
  146.0573  139.3569  143.0603 LP  0  0  0  0  0  0  0  0  0  0  0  0  # atno 17321 bound_to 7965
  139.5429  144.2598  152.1386 LP  0  0  0  0  0  0  0  0  0  0  0  0  # atno 17342 bound_to 10162
  140.1816  144.4839  150.6525 LP  0  0  0  0  0  0  0  0  0  0  0  0  # atno 17343 bound_to 10162
  156.0394  130.5478  150.8733 LP  0  0  0  0  0  0  0  0  0  0  0  0  # atno 17370 bound_to 10713
  157.5769  131.0946  150.9332 LP  0  0  0  0  0  0  0  0  0  0  0  0  # atno 17371 bound_to 10713
  140.3080  134.8110  157.4152 LP  0  0  0  0  0  0  0  0  0  0  0  0  # atno 17394 bound_to 11000
  140.1204  134.5228  155.8189 LP  0  0  0  0  0  0  0  0  0  0  0  0  # atno 17395 bound_to 11000

$$$$
