AV-unprocessed.smi:453|AV-procd|sdf|2611|dock4
  -GOLD-   2262023 13D 1   1.00000     0.00000
 Structure written by MMmdl.
 43 44  0  0  0  0  0  0  0  0  1 V2000
  152.9786  144.5576  158.2148 C   0  0  0  0  0  0  0  0  0  0  0  0
  152.0027  144.7539  159.3898 C   0  0  0  0  0  0  0  0  0  0  0  0
  152.4861  143.9709  160.6203 C   0  0  0  0  0  0  0  0  0  0  0  0
  150.5443  144.3733  159.0442 C   0  0  0  0  0  0  0  0  0  0  0  0
  149.5631  144.5716  160.2042 C   0  0  0  0  0  0  0  0  0  0  0  0
  149.8117  144.1011  161.3140 O   0  0  0  0  0  0  0  0  0  0  0  0
  148.4624  145.2918  159.9386 N   0  0  0  0  0  0  0  0  0  0  0  0
  147.4110  145.6013  160.9026 C   0  0  0  0  0  0  0  0  0  0  0  0
  146.1307  144.7947  160.7307 C   0  0  0  0  0  0  0  0  0  0  0  0
  145.5611  144.1353  161.8374 C   0  0  0  0  0  0  0  0  0  0  0  0
  144.3869  143.3800  161.6571 C   0  0  0  0  0  0  0  0  0  0  0  0
  143.8105  143.2970  160.3675 C   0  0  0  0  0  0  0  0  0  0  0  0
  142.6365  142.5400  160.1621 N   0  0  0  0  0  0  0  0  0  0  0  0
  142.7537  141.0828  160.1538 C   0  0  0  0  0  0  0  0  0  0  0  0
  141.4528  140.4433  159.6404 C   0  0  0  0  0  0  0  0  0  0  0  0
  140.3534  140.9007  160.4208 O   0  0  0  0  0  0  0  0  0  0  0  0
  140.1891  142.3117  160.3272 C   0  0  0  0  0  0  0  0  0  0  0  0
  141.4464  143.0202  160.8605 C   0  0  0  0  0  0  0  0  0  0  0  0
  144.3593  143.9348  159.3041 N   0  0  0  0  0  0  0  0  0  0  0  0
  145.4855  144.6569  159.4825 C   0  0  0  0  0  0  0  0  0  0  0  0
  152.9717  143.5253  157.8631 H   0  0  0  0  0  0  0  0  0  0  0  0
  153.9996  144.7998  158.5108 H   0  0  0  0  0  0  0  0  0  0  0  0
  152.7326  145.2008  157.3701 H   0  0  0  0  0  0  0  0  0  0  0  0
  152.0206  145.8114  159.6580 H   0  0  0  0  0  0  0  0  0  0  0  0
  152.4980  142.8977  160.4271 H   0  0  0  0  0  0  0  0  0  0  0  0
  151.8386  144.1474  161.4796 H   0  0  0  0  0  0  0  0  0  0  0  0
  153.4955  144.2691  160.9055 H   0  0  0  0  0  0  0  0  0  0  0  0
  150.1992  144.9597  158.1914 H   0  0  0  0  0  0  0  0  0  0  0  0
  150.5000  143.3301  158.7270 H   0  0  0  0  0  0  0  0  0  0  0  0
  148.3418  145.6462  159.0007 H   0  0  0  0  0  0  0  0  0  0  0  0
  147.8025  145.4059  161.9011 H   0  0  0  0  0  0  0  0  0  0  0  0
  147.1806  146.6676  160.8672 H   0  0  0  0  0  0  0  0  0  0  0  0
  146.0150  144.2078  162.8149 H   0  0  0  0  0  0  0  0  0  0  0  0
  143.9387  142.8871  162.5067 H   0  0  0  0  0  0  0  0  0  0  0  0
  143.5836  140.7742  159.5167 H   0  0  0  0  0  0  0  0  0  0  0  0
  142.9684  140.7314  161.1640 H   0  0  0  0  0  0  0  0  0  0  0  0
  141.2907  140.6822  158.5880 H   0  0  0  0  0  0  0  0  0  0  0  0
  141.5138  139.3574  159.7145 H   0  0  0  0  0  0  0  0  0  0  0  0
  139.9907  142.5980  159.2930 H   0  0  0  0  0  0  0  0  0  0  0  0
  139.3170  142.6065  160.9112 H   0  0  0  0  0  0  0  0  0  0  0  0
  141.5614  142.8216  161.9270 H   0  0  0  0  0  0  0  0  0  0  0  0
  141.3192  144.0963  160.7512 H   0  0  0  0  0  0  0  0  0  0  0  0
  145.8799  145.1302  158.5956 H   0  0  0  0  0  0  0  0  0  0  0  0
  1  2  1  0  0  0  0
  1 21  1  0  0  0  0
  1 22  1  0  0  0  0
  1 23  1  0  0  0  0
  2  3  1  0  0  0  0
  2  4  1  0  0  0  0
  2 24  1  0  0  0  0
  3 25  1  0  0  0  0
  3 26  1  0  0  0  0
  3 27  1  0  0  0  0
  4  5  1  0  0  0  0
  4 28  1  0  0  0  0
  4 29  1  0  0  0  0
  5  6  2  0  0  0  0
  5  7  1  0  0  0  0
  7  8  1  0  0  0  0
  7 30  1  0  0  0  0
  8  9  1  0  0  0  0
  8 31  1  0  0  0  0
  8 32  1  0  0  0  0
  9 20  1  0  0  0  0
  9 10  2  0  0  0  0
 10 11  1  0  0  0  0
 10 33  1  0  0  0  0
 11 12  2  0  0  0  0
 11 34  1  0  0  0  0
 12 13  1  0  0  0  0
 12 19  1  0  0  0  0
 13 18  1  0  0  0  0
 13 14  1  0  0  0  0
 14 15  1  0  0  0  0
 14 35  1  0  0  0  0
 14 36  1  0  0  0  0
 15 16  1  0  0  0  0
 15 37  1  0  0  0  0
 15 38  1  0  0  0  0
 16 17  1  0  0  0  0
 17 18  1  0  0  0  0
 17 39  1  0  0  0  0
 17 40  1  0  0  0  0
 18 41  1  0  0  0  0
 18 42  1  0  0  0  0
 19 20  2  0  0  0  0
 20 43  1  0  0  0  0
M  END
> <s_m_source_file>
AV-unprocessed.smi

> <i_m_source_file_index>
453

> <i_lp_mmshare_version>
43012

> <i_f3d_flags>
0

> <s_epik_input>
W0NIM11bQ0hdKFtDSDNdKVtDSDJdQyg9TylbTkhdW0NIMl1jMVtjSF1bY0hdYyhuW2NIXTEpTjJbQ0gyXVtDSDJdT1tDSDJdW0NIMl0y

> <s_epik_cmdline>
J2VwaWtfcHl0aG9uJywgJy1waCcsICc3LjAnLCAnLXRuJywgJzgnLCAnLW1hJywgJzIwMCcsICctbWV0YWxfYmluZGluZycsICctaW1hZScsICc8aW5maWxlLm1hZT4nLCAnLW9tYWUnLCAnPG91dGZpbGUubWFlPic=

> <r_lp_tautomer_probability>
1

> <r_epik_Ionization_Penalty>
0.00505548

> <r_epik_Ionization_Penalty_Charging>
0

> <r_epik_Ionization_Penalty_Neutral>
0.00505548

> <r_epik_State_Penalty>
0.00367784

> <r_epik_Charging_Adjusted_Penalty>
0.00367784

> <i_epik_Tot_Q>
0

> <i_epik_Tot_abs_Q>
0

> <r_epik_Metal_State_Penalty>
-0

> <b_epik_Metal_Only>
0

> <s_lp_Force_Field>
OPLS_2005

> <r_lp_Energy>
17.3119

> <b_lp_Chiralities_Consistent>
1

> <s_lp_Variant>
AV-unprocessed.smi:453-1

> <Gold.Version>
5.8.1

> <Gold.Id.Protein>
6NUR|6NUR_protein|mol2

> <Gold.PLP.Fitness>
40.5568

> <Gold.PLP.PLP>
-34.7367

> <Gold.PLP.part.hbond>
-2.0000

> <Gold.PLP.part.metal>
0.0000

> <Gold.PLP.part.buried>
-7.1145

> <Gold.PLP.part.nonpolar>
-26.8083

> <Gold.PLP.part.repulsive>
0.4564

> <Gold.PLP.ligand.clash>
0.0000

> <Gold.PLP.ligand.torsion>
0.4678

> <Gold.PLP.Chemscore.Hbond>
1.1342

> <Gold.PLP.Chemscore.CHOScore>
1.0000

> <Gold.PLP.Chemscore.Metal>
0.0000

> <Gold.Chemscore.Hbonds>
donor molecule, donor type, donor heavy atom, donor atom, acceptor molecule, acceptor atom, score
      L1  H     7    30       P1  8029  1.00
      P1  H  6933  6944       L1     6  0.13
      L1  C    20    43       P1  8029  1.00

> <Gold.PLP.Chemscore.Internal.Correction>
0.3533

> <Gold.Rescore>
     Score         DG    S(hbond)    S(metal)    S(lipo)     H(rot)  DE(clash)    DE(int)     intcor
     13.48     -15.21       1.36        0.00      80.50       1.65       0.03       1.70       ----

> <Gold.Chemscore.Fitness>
13.4769

> <Gold.Chemscore.DG>
-15.2051

> <Gold.Chemscore.ZeroCoef>
-5.4800

> <Gold.Chemscore.Hbond>
1.3554

> <Gold.Chemscore.Metal>
0.0000

> <Gold.Chemscore.Lipo>
80.5022

> <Gold.Chemscore.Internal_Hbond>
0.0000

> <Gold.Chemscore.DEClash>
0.0300

> <Gold.Chemscore.DEInternal>
1.6982

> <Gold.Chemscore.Rot>
1.6488

> <Gold.Chemscore.Internal.Correction>
   9.000000E+99

> <Gold.Chemscore.Hbonds>
donor molecule, donor type, donor heavy atom, donor atom, acceptor molecule, acceptor atom, score
      L1  H     7    30       P1  8029  1.00
      P1  H  6933  6944       L1     6  0.07

> <Gold.Chemscore.Hbond.Weighted>
-4.5271

> <Gold.Chemscore.Metal.Weighted>
-0.0000

> <Gold.Chemscore.Lipo.Weighted>
-9.4188

> <Gold.Chemscore.Internal_Hbond.Weighted>
0.0000

> <Gold.Chemscore.DEClash.Weighted>
0.0300

> <Gold.Chemscore.DEInternal.Weighted>
1.6982

> <Gold.Chemscore.Rot.Weighted>
4.2208

> <Gold.Chemscore.Internal.Correction.Weighted>
   9.000000E+99

> <Gold.Protein.RotatedTorsions>
[ 6907 6896 6895 6894 ] final -165.82 input  -60.11 | X-H torsion
[ 7974 7965 7964 7962 ] final -139.51 input  175.53 | X-H torsion
[ 8008 7997 7996 7995 ] final -152.49 input   59.86 | X-H torsion
[ 10167 10162 10161 10158 ] final  162.55 input  -65.29 | X-H torsion
[ 10718 10713 10712 10709 ] final   32.26 input   66.30 | X-H torsion
[ 10763 10752 10751 10750 ] final  161.56 input  -60.55 | X-H torsion
[ 11005 11000 10999 10996 ] final   79.87 input  -57.11 | X-H torsion

> <Gold.Protein.ActiveResidues>
 VAL166  LYS551  ARG553  GLY616  TRP617  ASP618  TYR619  PRO620  LYS621  CYS622 
 ASP623  PHE694  ASN695  SER759  ASP760  ASP761  ALA762  ILE779  LEU786  VAL792 
 PHE793  MET794  SER795  GLU796  ALA797  LYS798  CYS799  TRP800  GLU811  SER814 

> <Gold.Protein.RotatedAtoms>
  151.4337  133.3663  159.2771 H   0  0  0  0  0  0  0  0  0  0  0  0  # atno 6907 bound_to 6896
  150.9207  134.8626  159.7497 H   0  0  0  0  0  0  0  0  0  0  0  0  # atno 6908 bound_to 6896
  152.4980  134.4275  159.9553 H   0  0  0  0  0  0  0  0  0  0  0  0  # atno 6909 bound_to 6896
  144.8671  140.6310  143.5291 H   0  0  0  0  0  0  0  0  0  0  0  0  # atno 7974 bound_to 7965
  155.6560  140.0717  157.2570 H   0  0  0  0  0  0  0  0  0  0  0  0  # atno 8008 bound_to 7997
  154.4152  140.1725  156.1775 H   0  0  0  0  0  0  0  0  0  0  0  0  # atno 8009 bound_to 7997
  155.9737  140.3360  155.6602 H   0  0  0  0  0  0  0  0  0  0  0  0  # atno 8010 bound_to 7997
  139.4862  144.4426  151.8932 H   0  0  0  0  0  0  0  0  0  0  0  0  # atno 10167 bound_to 10162
  157.2830  130.7264  149.6567 H   0  0  0  0  0  0  0  0  0  0  0  0  # atno 10718 bound_to 10713
  154.2648  135.2767  155.2763 H   0  0  0  0  0  0  0  0  0  0  0  0  # atno 10763 bound_to 10752
  154.5352  135.5718  153.6796 H   0  0  0  0  0  0  0  0  0  0  0  0  # atno 10764 bound_to 10752
  152.9955  135.6237  154.2800 H   0  0  0  0  0  0  0  0  0  0  0  0  # atno 10765 bound_to 10752
  139.9156  134.7876  156.1835 H   0  0  0  0  0  0  0  0  0  0  0  0  # atno 11005 bound_to 11000
  145.4201  139.1565  143.4079 LP  0  0  0  0  0  0  0  0  0  0  0  0  # atno 17320 bound_to 7965
  146.2903  140.4311  142.8742 LP  0  0  0  0  0  0  0  0  0  0  0  0  # atno 17321 bound_to 7965
  140.3879  144.2653  150.5902 LP  0  0  0  0  0  0  0  0  0  0  0  0  # atno 17342 bound_to 10162
  140.5173  143.2274  151.8443 LP  0  0  0  0  0  0  0  0  0  0  0  0  # atno 17343 bound_to 10162
  155.9665  130.4332  150.4997 LP  0  0  0  0  0  0  0  0  0  0  0  0  # atno 17370 bound_to 10713
  157.2945  131.0633  151.2111 LP  0  0  0  0  0  0  0  0  0  0  0  0  # atno 17371 bound_to 10713
  141.0628  133.6834  156.1985 LP  0  0  0  0  0  0  0  0  0  0  0  0  # atno 17394 bound_to 11000
  140.6634  134.4944  157.5584 LP  0  0  0  0  0  0  0  0  0  0  0  0  # atno 17395 bound_to 11000

$$$$
