AV-unprocessed.smi:2517|AV-procd|sdf|9900|dock1
  -GOLD-   2272013533D 1   1.00000     0.00000
 Structure written by MMmdl.
 41 42  0  0  0  0  0  0  0  0  1 V2000
  144.4924  134.3223  151.1975 C   0  0  0  0  0  0  0  0  0  0  0  0
  145.9755  134.0309  150.9434 C   0  0  0  0  0  0  0  0  0  0  0  0
  146.4543  132.8343  151.7188 C   0  0  0  0  0  0  0  0  0  0  0  0
  145.8912  131.6498  151.5221 N   0  0  0  0  0  0  0  0  0  0  0  0
  146.5464  130.8025  152.3511 N   0  0  0  0  0  0  0  0  0  0  0  0
  146.1674  129.4063  152.3805 C   0  0  0  0  0  0  0  0  0  0  0  0
  147.5305  131.4392  153.0792 C   0  0  0  0  0  0  0  0  0  0  0  0
  147.4916  132.7473  152.6864 C   0  0  0  0  0  0  0  0  0  0  0  0
  148.2985  133.8338  153.1111 N   0  0  0  0  0  0  0  0  0  0  0  0
  149.0277  133.9195  154.2353 C   0  0  0  0  0  0  0  0  0  0  0  0
  149.0888  133.0546  155.1093 O   0  0  0  0  0  0  0  0  0  0  0  0
  149.6922  135.0798  154.2958 N   0  0  0  0  0  0  0  0  0  0  0  0
  150.5817  135.4656  155.3831 C   0  0  0  0  0  0  0  0  0  0  0  0
  151.0523  136.9162  155.2105 C   0  0  0  0  0  0  0  0  0  0  0  0
  152.1145  137.0226  154.2620 O   0  0  0  0  0  0  0  0  0  0  0  0
  152.6900  138.3141  154.1139 C   0  0  0  0  0  0  0  0  0  0  0  0
  149.9922  137.9772  154.8589 C   0  0  0  0  0  0  0  0  0  0  0  0
  149.9426  138.3631  156.3381 C   0  0  0  0  0  0  0  0  0  0  0  0
  151.3408  137.7576  156.4701 C   0  0  0  0  0  0  0  0  0  0  0  0
  144.1636  135.1904  150.6263 H   0  0  0  0  0  0  0  0  0  0  0  0
  144.3052  134.5270  152.2519 H   0  0  0  0  0  0  0  0  0  0  0  0
  143.8712  133.4756  150.9045 H   0  0  0  0  0  0  0  0  0  0  0  0
  146.1352  133.8730  149.8766 H   0  0  0  0  0  0  0  0  0  0  0  0
  146.5672  134.9081  151.2078 H   0  0  0  0  0  0  0  0  0  0  0  0
  146.8233  128.8544  153.0545 H   0  0  0  0  0  0  0  0  0  0  0  0
  146.2484  128.9802  151.3800 H   0  0  0  0  0  0  0  0  0  0  0  0
  145.1389  129.3111  152.7293 H   0  0  0  0  0  0  0  0  0  0  0  0
  148.1525  130.9121  153.7873 H   0  0  0  0  0  0  0  0  0  0  0  0
  148.3315  134.6264  152.4867 H   0  0  0  0  0  0  0  0  0  0  0  0
  149.5906  135.7353  153.5349 H   0  0  0  0  0  0  0  0  0  0  0  0
  150.0432  135.3504  156.3248 H   0  0  0  0  0  0  0  0  0  0  0  0
  151.4291  134.7813  155.4376 H   0  0  0  0  0  0  0  0  0  0  0  0
  153.4026  138.2952  153.2894 H   0  0  0  0  0  0  0  0  0  0  0  0
  153.2364  138.6182  155.0065 H   0  0  0  0  0  0  0  0  0  0  0  0
  151.9399  139.0715  153.8859 H   0  0  0  0  0  0  0  0  0  0  0  0
  150.3792  138.7820  154.2308 H   0  0  0  0  0  0  0  0  0  0  0  0
  149.0554  137.5814  154.4660 H   0  0  0  0  0  0  0  0  0  0  0  0
  149.8881  139.4351  156.5296 H   0  0  0  0  0  0  0  0  0  0  0  0
  149.1853  137.8103  156.8961 H   0  0  0  0  0  0  0  0  0  0  0  0
  151.4981  137.1790  157.3807 H   0  0  0  0  0  0  0  0  0  0  0  0
  152.1285  138.4993  156.3253 H   0  0  0  0  0  0  0  0  0  0  0  0
  1  2  1  0  0  0  0
  1 20  1  0  0  0  0
  1 21  1  0  0  0  0
  1 22  1  0  0  0  0
  2  3  1  0  0  0  0
  2 23  1  0  0  0  0
  2 24  1  0  0  0  0
  3  8  1  0  0  0  0
  3  4  2  0  0  0  0
  4  5  1  0  0  0  0
  5  6  1  0  0  0  0
  5  7  1  0  0  0  0
  6 25  1  0  0  0  0
  6 26  1  0  0  0  0
  6 27  1  0  0  0  0
  7  8  2  0  0  0  0
  7 28  1  0  0  0  0
  8  9  1  0  0  0  0
  9 10  1  0  0  0  0
  9 29  1  0  0  0  0
 10 11  2  0  0  0  0
 10 12  1  0  0  0  0
 12 13  1  0  0  0  0
 12 30  1  0  0  0  0
 13 14  1  0  0  0  0
 13 31  1  0  0  0  0
 13 32  1  0  0  0  0
 14 19  1  0  0  0  0
 14 15  1  0  0  0  0
 14 17  1  0  0  0  0
 15 16  1  0  0  0  0
 16 33  1  0  0  0  0
 16 34  1  0  0  0  0
 16 35  1  0  0  0  0
 17 18  1  0  0  0  0
 17 36  1  0  0  0  0
 17 37  1  0  0  0  0
 18 19  1  0  0  0  0
 18 38  1  0  0  0  0
 18 39  1  0  0  0  0
 19 40  1  0  0  0  0
 19 41  1  0  0  0  0
M  END
> <s_m_source_file>
AV-unprocessed.smi

> <i_m_source_file_index>
2517

> <i_lp_mmshare_version>
43012

> <i_f3d_flags>
0

> <s_epik_input>
W0NIM11bQ0gyXWMxbm4oW0NIM10pW2NIXWMxW05IXUMoPU8pW05IXVtDSDJdQzIoT1tDSDNdKVtDSDJdW0NIMl1bQ0gyXTI=

> <s_epik_cmdline>
J2VwaWtfcHl0aG9uJywgJy1waCcsICc3LjAnLCAnLXRuJywgJzgnLCAnLW1hJywgJzIwMCcsICctbWV0YWxfYmluZGluZycsICctaW1hZScsICc8aW5maWxlLm1hZT4nLCAnLW9tYWUnLCAnPG91dGZpbGUubWFlPic=

> <r_lp_tautomer_probability>
1

> <r_epik_Ionization_Penalty>
0.000729918

> <r_epik_Ionization_Penalty_Charging>
0

> <r_epik_Ionization_Penalty_Neutral>
0.000729918

> <r_epik_State_Penalty>
-0

> <r_epik_Charging_Adjusted_Penalty>
0

> <i_epik_Tot_Q>
0

> <i_epik_Tot_abs_Q>
0

> <r_epik_Metal_State_Penalty>
-0

> <b_epik_Metal_Only>
0

> <s_lp_Force_Field>
OPLS_2005

> <r_lp_Energy>
14.833

> <b_lp_Chiralities_Consistent>
1

> <s_lp_Variant>
AV-unprocessed.smi:2517-1

> <Gold.Version>
5.8.1

> <Gold.Id.Protein>
6NUR|6NUR_protein|mol2

> <Gold.PLP.Fitness>
38.8922

> <Gold.PLP.PLP>
-30.6548

> <Gold.PLP.part.hbond>
-3.0000

> <Gold.PLP.part.metal>
0.0000

> <Gold.PLP.part.buried>
-4.8113

> <Gold.PLP.part.nonpolar>
-22.1915

> <Gold.PLP.part.repulsive>
0.3088

> <Gold.PLP.ligand.clash>
0.0000

> <Gold.PLP.ligand.torsion>
0.5605

> <Gold.PLP.Chemscore.Hbond>
3.0000

> <Gold.PLP.Chemscore.CHOScore>
0.0000

> <Gold.PLP.Chemscore.Metal>
0.0000

> <Gold.Chemscore.Hbonds>
donor molecule, donor type, donor heavy atom, donor atom, acceptor molecule, acceptor atom, score
      L1  H     9    29       P1  7948  0.95
      L1  H    12    30       P1  7948  0.90
      P1  H 10752 10764       L1    15  0.94

> <Gold.PLP.Chemscore.Internal.Correction>
0.3585

> <Gold.Rescore>
     Score         DG    S(hbond)    S(metal)    S(lipo)     H(rot)  DE(clash)    DE(int)     intcor
     16.02     -16.88       2.38        0.00      63.38       1.55       0.03       0.83       ----

> <Gold.Chemscore.Fitness>
16.0180

> <Gold.Chemscore.DG>
-16.8786

> <Gold.Chemscore.ZeroCoef>
-5.4800

> <Gold.Chemscore.Hbond>
2.3801

> <Gold.Chemscore.Metal>
0.0000

> <Gold.Chemscore.Lipo>
63.3777

> <Gold.Chemscore.Internal_Hbond>
0.0000

> <Gold.Chemscore.DEClash>
0.0296

> <Gold.Chemscore.DEInternal>
0.8311

> <Gold.Chemscore.Rot>
1.5493

> <Gold.Chemscore.Internal.Correction>
   9.000000E+99

> <Gold.Chemscore.Hbonds>
donor molecule, donor type, donor heavy atom, donor atom, acceptor molecule, acceptor atom, score
      L1  H     9    29       P1  7948  0.21
      L1  H    12    30       P1  7948  0.17
      P1  H 10752 10764       L1    15  0.54

> <Gold.Chemscore.Hbond.Weighted>
-7.9495

> <Gold.Chemscore.Metal.Weighted>
-0.0000

> <Gold.Chemscore.Lipo.Weighted>
-7.4152

> <Gold.Chemscore.Internal_Hbond.Weighted>
0.0000

> <Gold.Chemscore.DEClash.Weighted>
0.0296

> <Gold.Chemscore.DEInternal.Weighted>
0.8311

> <Gold.Chemscore.Rot.Weighted>
3.9661

> <Gold.Chemscore.Internal.Correction.Weighted>
   9.000000E+99

> <Gold.Protein.RotatedTorsions>
[ 6907 6896 6895 6894 ] final  165.01 input  -60.11 | X-H torsion
[ 7974 7965 7964 7962 ] final  -79.08 input  175.53 | X-H torsion
[ 8008 7997 7996 7995 ] final  -15.49 input   59.86 | X-H torsion
[ 10167 10162 10161 10158 ] final  126.67 input  -65.29 | X-H torsion
[ 10718 10713 10712 10709 ] final  130.57 input   66.30 | X-H torsion
[ 10763 10752 10751 10750 ] final  -74.09 input  -60.55 | X-H torsion
[ 11005 11000 10999 10996 ] final   77.60 input  -57.11 | X-H torsion

> <Gold.Protein.ActiveResidues>
 VAL166  LYS551  ARG553  GLY616  TRP617  ASP618  TYR619  PRO620  LYS621  CYS622 
 ASP623  PHE694  ASN695  SER759  ASP760  ASP761  ALA762  ILE779  LEU786  VAL792 
 PHE793  MET794  SER795  GLU796  ALA797  LYS798  CYS799  TRP800  GLU811  SER814 

> <Gold.Protein.RotatedAtoms>
  151.9010  133.3538  159.3830 H   0  0  0  0  0  0  0  0  0  0  0  0  # atno 6907 bound_to 6896
  150.7080  134.4828  159.5488 H   0  0  0  0  0  0  0  0  0  0  0  0  # atno 6908 bound_to 6896
  152.2416  134.8223  160.0510 H   0  0  0  0  0  0  0  0  0  0  0  0  # atno 6909 bound_to 6896
  145.5779  140.9454  143.1360 H   0  0  0  0  0  0  0  0  0  0  0  0  # atno 7974 bound_to 7965
  154.5126  140.2195  155.9127 H   0  0  0  0  0  0  0  0  0  0  0  0  # atno 8008 bound_to 7997
  156.1570  140.3150  155.8708 H   0  0  0  0  0  0  0  0  0  0  0  0  # atno 8009 bound_to 7997
  155.3827  140.0473  157.3034 H   0  0  0  0  0  0  0  0  0  0  0  0  # atno 8010 bound_to 7997
  139.5618  144.6887  151.4020 H   0  0  0  0  0  0  0  0  0  0  0  0  # atno 10167 bound_to 10162
  157.5049  131.1095  150.9374 H   0  0  0  0  0  0  0  0  0  0  0  0  # atno 10718 bound_to 10713
  154.4683  135.5876  153.6304 H   0  0  0  0  0  0  0  0  0  0  0  0  # atno 10763 bound_to 10752
  152.9831  135.6060  154.3398 H   0  0  0  0  0  0  0  0  0  0  0  0  # atno 10764 bound_to 10752
  154.3278  135.2843  155.2466 H   0  0  0  0  0  0  0  0  0  0  0  0  # atno 10765 bound_to 10752
  139.9248  134.7695  156.1542 H   0  0  0  0  0  0  0  0  0  0  0  0  # atno 11005 bound_to 11000
  144.7407  139.7457  143.7312 LP  0  0  0  0  0  0  0  0  0  0  0  0  # atno 17320 bound_to 7965
  146.1737  139.4898  142.9911 LP  0  0  0  0  0  0  0  0  0  0  0  0  # atno 17321 bound_to 7965
  140.6899  143.7886  150.7240 LP  0  0  0  0  0  0  0  0  0  0  0  0  # atno 17342 bound_to 10162
  140.1365  143.4479  152.2221 LP  0  0  0  0  0  0  0  0  0  0  0  0  # atno 17343 bound_to 10162
  157.0033  130.5608  149.5313 LP  0  0  0  0  0  0  0  0  0  0  0  0  # atno 17370 bound_to 10713
  156.0252  130.5346  150.8387 LP  0  0  0  0  0  0  0  0  0  0  0  0  # atno 17371 bound_to 10713
  141.0797  133.6760  156.2310 LP  0  0  0  0  0  0  0  0  0  0  0  0  # atno 17394 bound_to 11000
  140.6369  134.5206  157.5565 LP  0  0  0  0  0  0  0  0  0  0  0  0  # atno 17395 bound_to 11000

$$$$
