AV-unprocessed.smi:1235|AV-procd|sdf|5178|dock1
  -GOLD-   22720 4253D 1   1.00000     0.00000
 Structure written by MMmdl.
 50 51  0  0  0  0  0  0  0  0  2 V2000
  146.5543  142.0517  153.6659 C   0  0  0  0  0  0  0  0  0  0  0  0
  147.8687  142.1019  154.1924 O   0  0  0  0  0  0  0  0  0  0  0  0
  148.6002  140.9148  153.9384 C   0  0  0  0  0  0  0  0  0  0  0  0
  148.5998  140.0494  155.2079 C   0  0  0  0  0  0  0  0  0  0  0  0
  149.4554  138.8683  155.0543 N   0  0  0  0  0  0  0  0  0  0  0  0
  148.7843  137.6634  155.1835 N   0  0  0  0  0  0  0  0  0  0  0  0
  149.4287  136.5463  155.0784 C   0  0  0  0  0  0  0  0  0  0  0  0
  148.7455  135.2289  155.2061 C   0  0  0  0  0  0  0  0  0  0  0  0
  148.5750  134.6873  156.2998 O   0  0  0  0  0  0  0  0  0  0  0  0
  148.3364  134.6734  154.0509 N   0  0  0  0  0  0  0  0  0  0  0  0
  147.6554  133.3886  153.9364 C   0  0  0  0  0  0  0  0  0  0  0  0
  147.5770  132.9222  152.4668 C   0  0  0  0  0  0  0  0  0  0  0  0
  146.1876  132.9005  151.9238 N   0  3  1  0  0  0  0  0  0  0  0  0
  145.9030  134.1035  151.0878 C   0  0  0  0  0  0  0  0  0  0  0  0
  144.4418  134.1536  150.6205 C   0  0  0  0  0  0  0  0  0  0  0  0
  144.0868  132.8909  149.8377 C   0  0  0  0  0  0  0  0  0  0  0  0
  144.3726  131.6649  150.7067 C   0  0  0  0  0  0  0  0  0  0  0  0
  145.8352  131.6309  151.2040 C   0  0  2  0  0  0  0  0  0  0  0  0
  146.0248  130.3651  152.0668 C   0  0  0  0  0  0  0  0  0  0  0  0
  150.8598  136.5334  154.8258 C   0  0  0  0  0  0  0  0  0  0  0  0
  151.5006  137.7165  154.7039 C   0  0  0  0  0  0  0  0  0  0  0  0
  150.7966  138.9944  154.8202 C   0  0  0  0  0  0  0  0  0  0  0  0
  151.3592  140.0843  154.7212 O   0  0  0  0  0  0  0  0  0  0  0  0
  146.0361  142.9851  153.8853 H   0  0  0  0  0  0  0  0  0  0  0  0
  145.9816  141.2368  154.1106 H   0  0  0  0  0  0  0  0  0  0  0  0
  146.5671  141.9204  152.5829 H   0  0  0  0  0  0  0  0  0  0  0  0
  148.1489  140.3715  153.1067 H   0  0  0  0  0  0  0  0  0  0  0  0
  149.6243  141.1628  153.6541 H   0  0  0  0  0  0  0  0  0  0  0  0
  148.9415  140.6484  156.0539 H   0  0  0  0  0  0  0  0  0  0  0  0
  147.5799  139.7515  155.4574 H   0  0  0  0  0  0  0  0  0  0  0  0
  148.5096  135.1807  153.1944 H   0  0  0  0  0  0  0  0  0  0  0  0
  148.1613  132.6418  154.5508 H   0  0  0  0  0  0  0  0  0  0  0  0
  146.6632  133.5261  154.3629 H   0  0  0  0  0  0  0  0  0  0  0  0
  148.2088  133.5462  151.8327 H   0  0  0  0  0  0  0  0  0  0  0  0
  148.0070  131.9248  152.4374 H   0  0  0  0  0  0  0  0  0  0  0  0
  146.0997  135.0174  151.6446 H   0  0  0  0  0  0  0  0  0  0  0  0
  146.5703  134.1118  150.2245 H   0  0  0  0  0  0  0  0  0  0  0  0
  143.7807  134.2548  151.4823 H   0  0  0  0  0  0  0  0  0  0  0  0
  144.2788  135.0345  149.9988 H   0  0  0  0  0  0  0  0  0  0  0  0
  143.0369  132.9101  149.5432 H   0  0  0  0  0  0  0  0  0  0  0  0
  144.6716  132.8428  148.9182 H   0  0  0  0  0  0  0  0  0  0  0  0
  143.6927  131.6602  151.5602 H   0  0  0  0  0  0  0  0  0  0  0  0
  144.1505  130.7634  150.1342 H   0  0  0  0  0  0  0  0  0  0  0  0
  146.4883  131.5478  150.3334 H   0  0  0  0  0  0  0  0  0  0  0  0
  145.5922  129.4923  151.5765 H   0  0  0  0  0  0  0  0  0  0  0  0
  145.5397  130.4675  153.0378 H   0  0  0  0  0  0  0  0  0  0  0  0
  147.0740  130.1225  152.2309 H   0  0  0  0  0  0  0  0  0  0  0  0
  151.4057  135.6055  154.7360 H   0  0  0  0  0  0  0  0  0  0  0  0
  152.5642  137.7218  154.5155 H   0  0  0  0  0  0  0  0  0  0  0  0
  145.5700  132.9481  152.7216 H   0  0  0  0  0  0  0  0  0  0  0  0
  1  2  1  0  0  0  0
  1 24  1  0  0  0  0
  1 25  1  0  0  0  0
  1 26  1  0  0  0  0
  2  3  1  0  0  0  0
  3  4  1  0  0  0  0
  3 27  1  0  0  0  0
  3 28  1  0  0  0  0
  4  5  1  0  0  0  0
  4 29  1  0  0  0  0
  4 30  1  0  0  0  0
  5 22  1  0  0  0  0
  5  6  1  0  0  0  0
  6  7  2  0  0  0  0
  7  8  1  0  0  0  0
  7 20  1  0  0  0  0
  8  9  2  0  0  0  0
  8 10  1  0  0  0  0
 10 11  1  0  0  0  0
 10 31  1  0  0  0  0
 11 12  1  0  0  0  0
 11 32  1  0  0  0  0
 11 33  1  0  0  0  0
 12 13  1  0  0  0  0
 12 34  1  0  0  0  0
 12 35  1  0  0  0  0
 13 18  1  0  0  0  0
 13 14  1  0  0  0  0
 13 50  1  0  0  0  0
 14 15  1  0  0  0  0
 14 36  1  0  0  0  0
 14 37  1  0  0  0  0
 15 16  1  0  0  0  0
 15 38  1  0  0  0  0
 15 39  1  0  0  0  0
 16 17  1  0  0  0  0
 16 40  1  0  0  0  0
 16 41  1  0  0  0  0
 17 18  1  0  0  0  0
 17 42  1  0  0  0  0
 17 43  1  0  0  0  0
 18 19  1  0  0  0  0
 18 44  1  0  0  0  0
 19 45  1  0  0  0  0
 19 46  1  0  0  0  0
 19 47  1  0  0  0  0
 20 21  2  0  0  0  0
 20 48  1  0  0  0  0
 21 22  1  0  0  0  0
 21 49  1  0  0  0  0
 22 23  2  0  0  0  0
M  CHG  1  13   1
M  END
> <s_m_source_file>
AV-unprocessed.smi

> <i_m_source_file_index>
1235

> <i_lp_mmshare_version>
43012

> <i_f3d_flags>
0

> <s_epik_input>
W0NIM11PW0NIMl1bQ0gyXW4xbmMoW2NIXVtjSF1jMT1PKUMoPU8pW05IXVtDSDJdW0NIMl1OMltDSDJdW0NIMl1bQ0gyXVtDSDJdW0NASF0yW0NIM10=

> <s_epik_cmdline>
J2VwaWtfcHl0aG9uJywgJy1waCcsICc3LjAnLCAnLXRuJywgJzgnLCAnLW1hJywgJzIwMCcsICctbWV0YWxfYmluZGluZycsICctaW1hZScsICc8aW5maWxlLm1hZT4nLCAnLW9tYWUnLCAnPG91dGZpbGUubWFlPic=

> <r_lp_tautomer_probability>
1

> <r_epik_Ionization_Penalty>
0.00271975

> <r_epik_Ionization_Penalty_Charging>
0.00271407

> <r_epik_Ionization_Penalty_Neutral>
5.6803e-06

> <r_epik_State_Penalty>
0.00189271

> <r_epik_Charging_Adjusted_Penalty>
0.00460678

> <i_epik_Tot_Q>
1

> <i_epik_Tot_abs_Q>
1

> <r_epik_Metal_State_Penalty>
-0

> <b_epik_Metal_Only>
0

> <s_lp_Force_Field>
OPLS_2005

> <r_lp_Energy>
40.1633

> <b_lp_Chiralities_Consistent>
1

> <s_lp_Variant>
AV-unprocessed.smi:1235-4

> <Gold.Version>
5.8.1

> <Gold.Id.Protein>
6NUR|6NUR_protein|mol2

> <Gold.PLP.Fitness>
41.1595

> <Gold.PLP.PLP>
-40.5500

> <Gold.PLP.part.hbond>
-1.9760

> <Gold.PLP.part.metal>
0.0000

> <Gold.PLP.part.buried>
-5.6850

> <Gold.PLP.part.nonpolar>
-34.5876

> <Gold.PLP.part.repulsive>
0.7893

> <Gold.PLP.ligand.clash>
0.0000

> <Gold.PLP.ligand.torsion>
2.8324

> <Gold.PLP.Chemscore.Hbond>
2.0000

> <Gold.PLP.Chemscore.CHOScore>
0.0000

> <Gold.PLP.Chemscore.Metal>
0.0000

> <Gold.Chemscore.Hbonds>
donor molecule, donor type, donor heavy atom, donor atom, acceptor molecule, acceptor atom, score
      L1  H    10    31       P1  7948  1.00
      P1  H  7989  7998       L1    23  0.86

> <Gold.PLP.Chemscore.Internal.Correction>
0.2742

> <Gold.Rescore>
     Score         DG    S(hbond)    S(metal)    S(lipo)     H(rot)  DE(clash)    DE(int)     intcor
     15.23     -18.43       1.92        0.00      99.58       2.00       0.10       3.10       ----

> <Gold.Chemscore.Fitness>
15.2259

> <Gold.Chemscore.DG>
-18.4297

> <Gold.Chemscore.ZeroCoef>
-5.4800

> <Gold.Chemscore.Hbond>
1.9233

> <Gold.Chemscore.Metal>
0.0000

> <Gold.Chemscore.Lipo>
99.5814

> <Gold.Chemscore.Internal_Hbond>
0.0000

> <Gold.Chemscore.DEClash>
0.1045

> <Gold.Chemscore.DEInternal>
3.0993

> <Gold.Chemscore.Rot>
2.0020

> <Gold.Chemscore.Internal.Correction>
   9.000000E+99

> <Gold.Chemscore.Hbonds>
donor molecule, donor type, donor heavy atom, donor atom, acceptor molecule, acceptor atom, score
      L1  H    10    31       P1  7948  0.88
      P1  H  7989  7998       L1    23  0.84

> <Gold.Chemscore.Hbond.Weighted>
-6.4239

> <Gold.Chemscore.Metal.Weighted>
-0.0000

> <Gold.Chemscore.Lipo.Weighted>
-11.6510

> <Gold.Chemscore.Internal_Hbond.Weighted>
0.0000

> <Gold.Chemscore.DEClash.Weighted>
0.1045

> <Gold.Chemscore.DEInternal.Weighted>
3.0993

> <Gold.Chemscore.Rot.Weighted>
5.1252

> <Gold.Chemscore.Internal.Correction.Weighted>
   9.000000E+99

> <Gold.Protein.RotatedTorsions>
[ 6907 6896 6895 6894 ] final -152.29 input  -60.11 | X-H torsion
[ 7974 7965 7964 7962 ] final  177.97 input  175.53 | X-H torsion
[ 8008 7997 7996 7995 ] final   11.19 input   59.86 | X-H torsion
[ 10167 10162 10161 10158 ] final   75.69 input  -65.29 | X-H torsion
[ 10718 10713 10712 10709 ] final  157.07 input   66.30 | X-H torsion
[ 10763 10752 10751 10750 ] final   76.47 input  -60.55 | X-H torsion
[ 11005 11000 10999 10996 ] final   47.00 input  -57.11 | X-H torsion

> <Gold.Protein.ActiveResidues>
 VAL166  LYS551  ARG553  GLY616  TRP617  ASP618  TYR619  PRO620  LYS621  CYS622 
 ASP623  PHE694  ASN695  SER759  ASP760  ASP761  ALA762  ILE779  LEU786  VAL792 
 PHE793  MET794  SER795  GLU796  ALA797  LYS798  CYS799  TRP800  GLU811  SER814 

> <Gold.Protein.RotatedAtoms>
  151.2256  133.4478  159.2601 H   0  0  0  0  0  0  0  0  0  0  0  0  # atno 6907 bound_to 6896
  151.0843  134.9877  159.8381 H   0  0  0  0  0  0  0  0  0  0  0  0  # atno 6908 bound_to 6896
  152.5428  134.2194  159.8834 H   0  0  0  0  0  0  0  0  0  0  0  0  # atno 6909 bound_to 6896
  144.7162  140.0326  143.6439 H   0  0  0  0  0  0  0  0  0  0  0  0  # atno 7974 bound_to 7965
  154.8035  140.2856  155.5904 H   0  0  0  0  0  0  0  0  0  0  0  0  # atno 8008 bound_to 7997
  156.2980  140.2582  156.2838 H   0  0  0  0  0  0  0  0  0  0  0  0  # atno 8009 bound_to 7997
  154.9530  140.0379  157.2143 H   0  0  0  0  0  0  0  0  0  0  0  0  # atno 8010 bound_to 7997
  140.0003  144.5691  150.7743 H   0  0  0  0  0  0  0  0  0  0  0  0  # atno 10167 bound_to 10162
  157.1964  131.0666  151.2050 H   0  0  0  0  0  0  0  0  0  0  0  0  # atno 10718 bound_to 10713
  153.0728  135.4950  154.8341 H   0  0  0  0  0  0  0  0  0  0  0  0  # atno 10763 bound_to 10752
  154.7046  135.3008  154.9292 H   0  0  0  0  0  0  0  0  0  0  0  0  # atno 10764 bound_to 10752
  154.0005  135.6767  153.4812 H   0  0  0  0  0  0  0  0  0  0  0  0  # atno 10765 bound_to 10752
  140.1318  134.4695  155.8515 H   0  0  0  0  0  0  0  0  0  0  0  0  # atno 11005 bound_to 11000
  146.0089  139.3153  143.0882 LP  0  0  0  0  0  0  0  0  0  0  0  0  # atno 17320 bound_to 7965
  145.8705  140.9423  143.0653 LP  0  0  0  0  0  0  0  0  0  0  0  0  # atno 17321 bound_to 7965
  140.7421  143.2828  151.3550 LP  0  0  0  0  0  0  0  0  0  0  0  0  # atno 17342 bound_to 10162
  139.6277  144.0783  152.2448 LP  0  0  0  0  0  0  0  0  0  0  0  0  # atno 17343 bound_to 10162
  157.3810  130.7231  149.6630 LP  0  0  0  0  0  0  0  0  0  0  0  0  # atno 17370 bound_to 10713
  155.9705  130.4172  150.4270 LP  0  0  0  0  0  0  0  0  0  0  0  0  # atno 17371 bound_to 10713
  141.2171  133.6799  156.7084 LP  0  0  0  0  0  0  0  0  0  0  0  0  # atno 17394 bound_to 11000
  140.2832  134.8300  157.3952 LP  0  0  0  0  0  0  0  0  0  0  0  0  # atno 17395 bound_to 11000

$$$$
