AV-unprocessed.smi:498|AV-procd|sdf|2728|dock6
  -GOLD-   2262023173D 1   1.00000     0.00000
 Structure written by MMmdl.
 42 44  0  0  0  0  0  0  0  0  1 V2000
  147.6798  141.5620  154.3486 C   0  0  0  0  0  0  0  0  0  0  0  0
  148.6200  140.3562  154.2949 C   0  0  0  0  0  0  0  0  0  0  0  0
  149.9343  140.7904  154.5963 O   0  0  0  0  0  0  0  0  0  0  0  0
  150.1787  140.8768  155.9908 C   0  0  0  0  0  0  0  0  0  0  0  0
  151.1970  141.9907  156.2705 C   0  0  0  0  0  0  0  0  0  0  0  0
  151.6567  141.9846  157.6529 N   0  0  0  0  0  0  0  0  0  0  0  0
  152.0921  140.9375  158.4013 C   0  0  0  0  0  0  0  0  0  0  0  0
  152.1590  139.5287  157.8790 C   0  0  0  0  0  0  0  0  0  0  0  0
  153.1597  138.7945  158.6482 N   0  0  0  0  0  0  0  0  0  0  0  0
  152.9761  137.6092  159.2502 C   0  0  0  0  0  0  0  0  0  0  0  0
  151.9391  136.9528  159.1633 O   0  0  0  0  0  0  0  0  0  0  0  0
  154.1161  137.1095  160.0414 C   0  0  0  0  0  0  0  0  0  0  0  0
  154.8945  137.7145  160.9934 C   0  0  0  0  0  0  0  0  0  0  0  0
  155.8374  136.7418  161.4268 C   0  0  0  0  0  0  0  0  0  0  0  0
  155.5670  135.6115  160.7107 C   0  0  0  0  0  0  0  0  0  0  0  0
  154.5209  135.8180  159.8654 O   0  0  0  0  0  0  0  0  0  0  0  0
  152.4747  141.2390  159.6449 N   0  0  0  0  0  0  0  0  0  0  0  0
  152.2442  142.5977  159.7177 C   0  0  0  0  0  0  0  0  0  0  0  0
  152.4395  143.5059  160.7827 C   0  0  0  0  0  0  0  0  0  0  0  0
  152.1242  144.8712  160.6233 C   0  0  0  0  0  0  0  0  0  0  0  0
  151.6098  145.3462  159.3996 C   0  0  0  0  0  0  0  0  0  0  0  0
  151.4100  144.4577  158.3256 C   0  0  0  0  0  0  0  0  0  0  0  0
  151.7283  143.0958  158.4888 C   0  0  0  0  0  0  0  0  0  0  0  0
  146.6553  141.2675  154.1202 H   0  0  0  0  0  0  0  0  0  0  0  0
  147.9788  142.3235  153.6278 H   0  0  0  0  0  0  0  0  0  0  0  0
  147.6846  142.0171  155.3394 H   0  0  0  0  0  0  0  0  0  0  0  0
  148.2976  139.6027  155.0154 H   0  0  0  0  0  0  0  0  0  0  0  0
  148.5912  139.9022  153.3032 H   0  0  0  0  0  0  0  0  0  0  0  0
  149.2497  141.0859  156.5183 H   0  0  0  0  0  0  0  0  0  0  0  0
  150.5536  139.9236  156.3655 H   0  0  0  0  0  0  0  0  0  0  0  0
  152.0533  141.9147  155.6005 H   0  0  0  0  0  0  0  0  0  0  0  0
  150.7420  142.9596  156.0633 H   0  0  0  0  0  0  0  0  0  0  0  0
  151.1888  139.0346  157.9114 H   0  0  0  0  0  0  0  0  0  0  0  0
  152.4667  139.5559  156.8337 H   0  0  0  0  0  0  0  0  0  0  0  0
  154.0491  139.2538  158.7800 H   0  0  0  0  0  0  0  0  0  0  0  0
  154.7977  138.7329  161.3395 H   0  0  0  0  0  0  0  0  0  0  0  0
  156.6135  136.8540  162.1694 H   0  0  0  0  0  0  0  0  0  0  0  0
  155.9966  134.6210  160.6800 H   0  0  0  0  0  0  0  0  0  0  0  0
  152.8312  143.1515  161.7246 H   0  0  0  0  0  0  0  0  0  0  0  0
  152.2765  145.5565  161.4442 H   0  0  0  0  0  0  0  0  0  0  0  0
  151.3685  146.3930  159.2852 H   0  0  0  0  0  0  0  0  0  0  0  0
  151.0132  144.8192  157.3888 H   0  0  0  0  0  0  0  0  0  0  0  0
  1  2  1  0  0  0  0
  1 24  1  0  0  0  0
  1 25  1  0  0  0  0
  1 26  1  0  0  0  0
  2  3  1  0  0  0  0
  2 27  1  0  0  0  0
  2 28  1  0  0  0  0
  3  4  1  0  0  0  0
  4  5  1  0  0  0  0
  4 29  1  0  0  0  0
  4 30  1  0  0  0  0
  5  6  1  0  0  0  0
  5 31  1  0  0  0  0
  5 32  1  0  0  0  0
  6 23  1  0  0  0  0
  6  7  1  0  0  0  0
  7  8  1  0  0  0  0
  7 17  2  0  0  0  0
  8  9  1  0  0  0  0
  8 33  1  0  0  0  0
  8 34  1  0  0  0  0
  9 10  1  0  0  0  0
  9 35  1  0  0  0  0
 10 11  2  0  0  0  0
 10 12  1  0  0  0  0
 12 16  1  0  0  0  0
 12 13  2  0  0  0  0
 13 14  1  0  0  0  0
 13 36  1  0  0  0  0
 14 15  2  0  0  0  0
 14 37  1  0  0  0  0
 15 16  1  0  0  0  0
 15 38  1  0  0  0  0
 17 18  1  0  0  0  0
 18 23  2  0  0  0  0
 18 19  1  0  0  0  0
 19 20  2  0  0  0  0
 19 39  1  0  0  0  0
 20 21  1  0  0  0  0
 20 40  1  0  0  0  0
 21 22  2  0  0  0  0
 21 41  1  0  0  0  0
 22 23  1  0  0  0  0
 22 42  1  0  0  0  0
M  END
> <s_m_source_file>
AV-unprocessed.smi

> <i_m_source_file_index>
498

> <i_lp_mmshare_version>
43012

> <i_f3d_flags>
0

> <s_epik_input>
W0NIM11bQ0gyXU9bQ0gyXVtDSDJdbihjKGMxMilbY0hdW2NIXVtjSF1bY0hdMiljKG4xKVtDSDJdW05IXUMoPU8pYzNbY0hdW2NIXVtjSF1vMw==

> <s_epik_cmdline>
J2VwaWtfcHl0aG9uJywgJy1waCcsICc3LjAnLCAnLXRuJywgJzgnLCAnLW1hJywgJzIwMCcsICctbWV0YWxfYmluZGluZycsICctaW1hZScsICc8aW5maWxlLm1hZT4nLCAnLW9tYWUnLCAnPG91dGZpbGUubWFlPic=

> <r_epik_Ionization_Penalty>
0.0701438

> <r_epik_Ionization_Penalty_Charging>
0

> <r_epik_Ionization_Penalty_Neutral>
0.0701438

> <r_epik_State_Penalty>
0.061475

> <r_epik_Charging_Adjusted_Penalty>
0.061475

> <i_epik_Tot_Q>
0

> <i_epik_Tot_abs_Q>
0

> <r_epik_Metal_State_Penalty>
0.0666689

> <b_epik_Metal_Only>
0

> <s_lp_Force_Field>
OPLS_2005

> <r_lp_Energy>
6.14226

> <b_lp_Chiralities_Consistent>
1

> <s_lp_Variant>
AV-unprocessed.smi:498-1

> <Gold.Version>
5.8.1

> <Gold.Id.Protein>
6NUR|6NUR_protein|mol2

> <Gold.PLP.Fitness>
50.5862

> <Gold.PLP.PLP>
-46.9398

> <Gold.PLP.part.hbond>
-3.0000

> <Gold.PLP.part.metal>
0.0000

> <Gold.PLP.part.buried>
-7.4602

> <Gold.PLP.part.nonpolar>
-36.5381

> <Gold.PLP.part.repulsive>
0.2023

> <Gold.PLP.ligand.clash>
0.0000

> <Gold.PLP.ligand.torsion>
1.6823

> <Gold.PLP.Chemscore.Hbond>
2.3200

> <Gold.PLP.Chemscore.CHOScore>
0.0000

> <Gold.PLP.Chemscore.Metal>
0.0000

> <Gold.Chemscore.Hbonds>
donor molecule, donor type, donor heavy atom, donor atom, acceptor molecule, acceptor atom, score
      P1  H  6896  6908       L1    11  0.40
      P1  H  7989  7998       L1     3  0.74

> <Gold.PLP.Chemscore.Internal.Correction>
0.0510

> <Gold.Rescore>
     Score         DG    S(hbond)    S(metal)    S(lipo)     H(rot)  DE(clash)    DE(int)     intcor
     20.52     -21.97       2.31        0.00     118.23       1.98       0.05       1.40       ----

> <Gold.Chemscore.Fitness>
20.5188

> <Gold.Chemscore.DG>
-21.9702

> <Gold.Chemscore.ZeroCoef>
-5.4800

> <Gold.Chemscore.Hbond>
2.3140

> <Gold.Chemscore.Metal>
0.0000

> <Gold.Chemscore.Lipo>
118.2338

> <Gold.Chemscore.Internal_Hbond>
0.0000

> <Gold.Chemscore.DEClash>
0.0544

> <Gold.Chemscore.DEInternal>
1.3970

> <Gold.Chemscore.Rot>
1.9813

> <Gold.Chemscore.Internal.Correction>
   9.000000E+99

> <Gold.Chemscore.Hbonds>
donor molecule, donor type, donor heavy atom, donor atom, acceptor molecule, acceptor atom, score
      P1  H  6896  6908       L1    11  0.39
      P1  H  6896  6909       L1    16  0.02
      P1  H  7989  7998       L1     3  0.58

> <Gold.Chemscore.Hbond.Weighted>
-7.7289

> <Gold.Chemscore.Metal.Weighted>
-0.0000

> <Gold.Chemscore.Lipo.Weighted>
-13.8334

> <Gold.Chemscore.Internal_Hbond.Weighted>
0.0000

> <Gold.Chemscore.DEClash.Weighted>
0.0544

> <Gold.Chemscore.DEInternal.Weighted>
1.3970

> <Gold.Chemscore.Rot.Weighted>
5.0720

> <Gold.Chemscore.Internal.Correction.Weighted>
   9.000000E+99

> <Gold.Protein.RotatedTorsions>
[ 6907 6896 6895 6894 ] final -151.72 input  -60.11 | X-H torsion
[ 7974 7965 7964 7962 ] final   -3.89 input  175.53 | X-H torsion
[ 8008 7997 7996 7995 ] final -177.28 input   59.86 | X-H torsion
[ 10167 10162 10161 10158 ] final   11.72 input  -65.29 | X-H torsion
[ 10718 10713 10712 10709 ] final   96.73 input   66.30 | X-H torsion
[ 10763 10752 10751 10750 ] final  168.97 input  -60.55 | X-H torsion
[ 11005 11000 10999 10996 ] final  -91.29 input  -57.11 | X-H torsion

> <Gold.Protein.ActiveResidues>
 VAL166  LYS551  ARG553  GLY616  TRP617  ASP618  TYR619  PRO620  LYS621  CYS622 
 ASP623  PHE694  ASN695  SER759  ASP760  ASP761  ALA762  ILE779  LEU786  VAL792 
 PHE793  MET794  SER795  GLU796  ALA797  LYS798  CYS799  TRP800  GLU811  SER814 

> <Gold.Protein.RotatedAtoms>
  151.2173  133.4522  159.2599 H   0  0  0  0  0  0  0  0  0  0  0  0  # atno 6907 bound_to 6896
  151.0919  134.9921  159.8417 H   0  0  0  0  0  0  0  0  0  0  0  0  # atno 6908 bound_to 6896
  152.5435  134.2106  159.8801 H   0  0  0  0  0  0  0  0  0  0  0  0  # atno 6909 bound_to 6896
  146.2382  140.1789  142.8332 H   0  0  0  0  0  0  0  0  0  0  0  0  # atno 7974 bound_to 7965
  156.0050  140.1228  157.0510 H   0  0  0  0  0  0  0  0  0  0  0  0  # atno 8008 bound_to 7997
  154.4256  140.1099  156.5819 H   0  0  0  0  0  0  0  0  0  0  0  0  # atno 8009 bound_to 7997
  155.6159  140.3472  155.4639 H   0  0  0  0  0  0  0  0  0  0  0  0  # atno 8010 bound_to 7997
  140.6114  143.8400  150.7069 H   0  0  0  0  0  0  0  0  0  0  0  0  # atno 10167 bound_to 10162
  157.6923  131.0587  150.4535 H   0  0  0  0  0  0  0  0  0  0  0  0  # atno 10718 bound_to 10713
  154.3764  135.2753  155.2237 H   0  0  0  0  0  0  0  0  0  0  0  0  # atno 10763 bound_to 10752
  154.4362  135.5965  153.6103 H   0  0  0  0  0  0  0  0  0  0  0  0  # atno 10764 bound_to 10752
  152.9836  135.6007  154.4001 H   0  0  0  0  0  0  0  0  0  0  0  0  # atno 10765 bound_to 10752
  141.1548  133.7746  156.9858 H   0  0  0  0  0  0  0  0  0  0  0  0  # atno 11005 bound_to 11000
  144.9950  140.8581  143.5316 LP  0  0  0  0  0  0  0  0  0  0  0  0  # atno 17320 bound_to 7965
  145.1800  139.2357  143.5297 LP  0  0  0  0  0  0  0  0  0  0  0  0  # atno 17321 bound_to 7965
  140.1970  143.3990  152.1821 LP  0  0  0  0  0  0  0  0  0  0  0  0  # atno 17342 bound_to 10162
  139.5364  144.7213  151.4880 LP  0  0  0  0  0  0  0  0  0  0  0  0  # atno 17343 bound_to 10162
  156.4885  130.4090  149.6420 LP  0  0  0  0  0  0  0  0  0  0  0  0  # atno 17370 bound_to 10713
  156.3440  130.7397  151.2346 LP  0  0  0  0  0  0  0  0  0  0  0  0  # atno 17371 bound_to 10713
  140.1035  134.9520  157.1959 LP  0  0  0  0  0  0  0  0  0  0  0  0  # atno 17394 bound_to 11000
  140.3286  134.2835  155.7232 LP  0  0  0  0  0  0  0  0  0  0  0  0  # atno 17395 bound_to 11000

$$$$
