AV-unprocessed.smi:1005|AV-procd|sdf|4377|dock5
  -GOLD-   22720 2293D 1   1.00000     0.00000
 Structure written by MMmdl.
 57 59  0  0  0  0  0  0  0  0  3 V2000
  152.0544  145.0077  160.7192 C   0  0  0  0  0  0  0  0  0  0  0  0
  151.9451  143.8609  159.7289 C   0  0  0  0  0  0  0  0  0  0  0  0
  151.1892  144.0566  158.5512 C   0  0  0  0  0  0  0  0  0  0  0  0
  151.1064  142.9888  157.6656 C   0  0  0  0  0  0  0  0  0  0  0  0
  150.4459  142.8671  156.4414 N   0  3  0  0  0  0  0  0  0  0  0  0
  150.6516  141.6196  155.9363 C   0  0  0  0  0  0  0  0  0  0  0  0
  151.4335  140.9418  156.8199 N   0  0  0  0  0  0  0  0  0  0  0  0
  151.9435  139.5652  156.7480 C   0  0  0  0  0  0  0  0  0  0  0  0
  151.2478  138.7258  155.6586 C   0  0  1  0  0  0  0  0  0  0  0  0
  151.6524  139.2375  154.4056 O   0  0  0  0  0  0  0  0  0  0  0  0
  151.6013  137.2226  155.7183 C   0  0  0  0  0  0  0  0  0  0  0  0
  150.5313  136.3385  156.1827 N   0  0  0  0  0  0  0  0  0  0  0  0
  150.0908  136.6508  157.5410 C   0  0  0  0  0  0  0  0  0  0  0  0
  148.9942  135.6870  158.0240 C   0  0  0  0  0  0  0  0  0  0  0  0
  149.4599  134.3453  157.9256 O   0  0  0  0  0  0  0  0  0  0  0  0
  149.8378  133.9833  156.5999 C   0  0  2  0  0  0  0  0  0  0  0  0
  150.3140  132.5197  156.6178 C   0  0  0  0  0  0  0  0  0  0  0  0
  150.6262  131.9997  155.2618 N   0  3  0  0  0  0  0  0  0  0  0  0
  151.0415  130.5777  155.2543 C   0  0  0  0  0  0  0  0  0  0  0  0
  149.5246  132.2468  154.3054 C   0  0  0  0  0  0  0  0  0  0  0  0
  150.9510  134.9421  156.1322 C   0  0  0  0  0  0  0  0  0  0  0  0
  151.7449  141.7579  157.9149 C   0  0  0  0  0  0  0  0  0  0  0  0
  152.4945  141.5494  159.0709 C   0  0  0  0  0  0  0  0  0  0  0  0
  152.5889  142.6227  159.9854 C   0  0  0  0  0  0  0  0  0  0  0  0
  153.3966  142.4218  161.2567 C   0  0  0  0  0  0  0  0  0  0  0  0
  151.4970  145.8817  160.3809 H   0  0  0  0  0  0  0  0  0  0  0  0
  153.0955  145.3058  160.8465 H   0  0  0  0  0  0  0  0  0  0  0  0
  151.6558  144.7148  161.6907 H   0  0  0  0  0  0  0  0  0  0  0  0
  150.6956  144.9962  158.3493 H   0  0  0  0  0  0  0  0  0  0  0  0
  150.2638  141.2368  155.0030 H   0  0  0  0  0  0  0  0  0  0  0  0
  153.0112  139.6361  156.5346 H   0  0  0  0  0  0  0  0  0  0  0  0
  151.8617  139.0935  157.7272 H   0  0  0  0  0  0  0  0  0  0  0  0
  150.1730  138.8755  155.7530 H   0  0  0  0  0  0  0  0  0  0  0  0
  152.0772  138.5474  153.9195 H   0  0  0  0  0  0  0  0  0  0  0  0
  151.9161  136.9133  154.7205 H   0  0  0  0  0  0  0  0  0  0  0  0
  152.4708  137.0769  156.3593 H   0  0  0  0  0  0  0  0  0  0  0  0
  150.9390  136.6039  158.2257 H   0  0  0  0  0  0  0  0  0  0  0  0
  149.7026  137.6669  157.5933 H   0  0  0  0  0  0  0  0  0  0  0  0
  148.7332  135.8991  159.0608 H   0  0  0  0  0  0  0  0  0  0  0  0
  148.0848  135.8084  157.4334 H   0  0  0  0  0  0  0  0  0  0  0  0
  148.9807  134.0947  155.9353 H   0  0  0  0  0  0  0  0  0  0  0  0
  151.1895  132.4089  157.2593 H   0  0  0  0  0  0  0  0  0  0  0  0
  149.5265  131.9115  157.0654 H   0  0  0  0  0  0  0  0  0  0  0  0
  150.2498  129.9365  155.6440 H   0  0  0  0  0  0  0  0  0  0  0  0
  151.9383  130.4169  155.8512 H   0  0  0  0  0  0  0  0  0  0  0  0
  151.2708  130.2524  154.2390 H   0  0  0  0  0  0  0  0  0  0  0  0
  148.6230  131.7083  154.6011 H   0  0  0  0  0  0  0  0  0  0  0  0
  149.8033  131.9222  153.3022 H   0  0  0  0  0  0  0  0  0  0  0  0
  149.2872  133.3099  154.2517 H   0  0  0  0  0  0  0  0  0  0  0  0
  151.2405  134.6836  155.1126 H   0  0  0  0  0  0  0  0  0  0  0  0
  151.8378  134.8014  156.7525 H   0  0  0  0  0  0  0  0  0  0  0  0
  152.9836  140.6079  159.2712 H   0  0  0  0  0  0  0  0  0  0  0  0
  153.8306  141.4225  161.3009 H   0  0  0  0  0  0  0  0  0  0  0  0
  152.7647  142.5492  162.1359 H   0  0  0  0  0  0  0  0  0  0  0  0
  154.2138  143.1417  161.3095 H   0  0  0  0  0  0  0  0  0  0  0  0
  151.4128  132.5374  154.9251 H   0  0  0  0  0  0  0  0  0  0  0  0
  149.8951  143.5811  155.9818 H   0  0  0  0  0  0  0  0  0  0  0  0
  1  2  1  0  0  0  0
  1 26  1  0  0  0  0
  1 27  1  0  0  0  0
  1 28  1  0  0  0  0
  2 24  1  0  0  0  0
  2  3  2  0  0  0  0
  3  4  1  0  0  0  0
  3 29  1  0  0  0  0
  4 22  2  0  0  0  0
  4  5  1  0  0  0  0
  5  6  2  0  0  0  0
  5 57  1  0  0  0  0
  6  7  1  0  0  0  0
  6 30  1  0  0  0  0
  7  8  1  0  0  0  0
  7 22  1  0  0  0  0
  8  9  1  0  0  0  0
  8 31  1  0  0  0  0
  8 32  1  0  0  0  0
  9 10  1  0  0  0  0
  9 11  1  0  0  0  0
  9 33  1  0  0  0  0
 10 34  1  0  0  0  0
 11 12  1  0  0  0  0
 11 35  1  0  0  0  0
 11 36  1  0  0  0  0
 12 21  1  0  0  0  0
 12 13  1  0  0  0  0
 13 14  1  0  0  0  0
 13 37  1  0  0  0  0
 13 38  1  0  0  0  0
 14 15  1  0  0  0  0
 14 39  1  0  0  0  0
 14 40  1  0  0  0  0
 15 16  1  0  0  0  0
 16 17  1  0  0  0  0
 16 21  1  0  0  0  0
 16 41  1  0  0  0  0
 17 18  1  0  0  0  0
 17 42  1  0  0  0  0
 17 43  1  0  0  0  0
 18 19  1  0  0  0  0
 18 20  1  0  0  0  0
 18 56  1  0  0  0  0
 19 44  1  0  0  0  0
 19 45  1  0  0  0  0
 19 46  1  0  0  0  0
 20 47  1  0  0  0  0
 20 48  1  0  0  0  0
 20 49  1  0  0  0  0
 21 50  1  0  0  0  0
 21 51  1  0  0  0  0
 22 23  1  0  0  0  0
 23 24  2  0  0  0  0
 23 52  1  0  0  0  0
 24 25  1  0  0  0  0
 25 53  1  0  0  0  0
 25 54  1  0  0  0  0
 25 55  1  0  0  0  0
M  CHG  1   5   1
M  CHG  1  18   1
M  END
> <s_m_source_file>
AV-unprocessed.smi

> <i_m_source_file_index>
1005

> <i_lp_mmshare_version>
43012

> <i_f3d_flags>
0

> <s_epik_input>
W0NIM11jKFtjSF0xKWMoW0NIM10pW2NIXWMoYzEyKW4oW2NIXW4yKVtDSDJdW0NASF0oW09IXSlbQ0gyXU4zW0NIMl1bQ0gyXU9bQ0BIXShbQ0gyXTMpW0NIMl1OKFtDSDNdKVtDSDNd

> <s_epik_cmdline>
J2VwaWtfcHl0aG9uJywgJy1waCcsICc3LjAnLCAnLXRuJywgJzgnLCAnLW1hJywgJzIwMCcsICctbWV0YWxfYmluZGluZycsICctaW1hZScsICc8aW5maWxlLm1hZT4nLCAnLW9tYWUnLCAnPG91dGZpbGUubWFlPic=

> <r_epik_Ionization_Penalty>
1.3281

> <r_epik_Ionization_Penalty_Charging>
1.21988

> <r_epik_Ionization_Penalty_Neutral>
0.10822

> <r_epik_State_Penalty>
1.32886

> <r_epik_Charging_Adjusted_Penalty>
2.54875

> <i_epik_Tot_Q>
2

> <i_epik_Tot_abs_Q>
2

> <r_epik_Metal_State_Penalty>
5.33912

> <b_epik_Metal_Only>
0

> <s_lp_Force_Field>
OPLS_2005

> <r_lp_Energy>
45.9182

> <b_lp_Chiralities_Consistent>
1

> <s_lp_Variant>
AV-unprocessed.smi:1005-16

> <Gold.Version>
5.8.1

> <Gold.Id.Protein>
6NUR|6NUR_protein|mol2

> <Gold.PLP.Fitness>
57.5317

> <Gold.PLP.PLP>
-47.2160

> <Gold.PLP.part.hbond>
-3.0000

> <Gold.PLP.part.metal>
0.0000

> <Gold.PLP.part.buried>
-5.9243

> <Gold.PLP.part.nonpolar>
-38.5553

> <Gold.PLP.part.repulsive>
0.1375

> <Gold.PLP.ligand.clash>
0.0000

> <Gold.PLP.ligand.torsion>
0.9173

> <Gold.PLP.Chemscore.Hbond>
4.0000

> <Gold.PLP.Chemscore.CHOScore>
0.0000

> <Gold.PLP.Chemscore.Metal>
0.0000

> <Gold.Chemscore.Hbonds>
donor molecule, donor type, donor heavy atom, donor atom, acceptor molecule, acceptor atom, score
      L1  H     5    57       P1  8028  2.00
      P1  H  6896  6908       L1    15  1.00
      P1  H  7989  7998       L1    10  1.00

> <Gold.PLP.Chemscore.Internal.Correction>
0.1503

> <Gold.Rescore>
     Score         DG    S(hbond)    S(metal)    S(lipo)     H(rot)  DE(clash)    DE(int)     intcor
     20.75     -22.92       2.58        0.00     129.88       2.49       0.32       1.86       ----

> <Gold.Chemscore.Fitness>
20.7477

> <Gold.Chemscore.DG>
-22.9237

> <Gold.Chemscore.ZeroCoef>
-5.4800

> <Gold.Chemscore.Hbond>
2.5814

> <Gold.Chemscore.Metal>
0.0000

> <Gold.Chemscore.Lipo>
129.8754

> <Gold.Chemscore.Internal_Hbond>
0.0000

> <Gold.Chemscore.DEClash>
0.3173

> <Gold.Chemscore.DEInternal>
1.8587

> <Gold.Chemscore.Rot>
2.4897

> <Gold.Chemscore.Internal.Correction>
   9.000000E+99

> <Gold.Chemscore.Hbonds>
donor molecule, donor type, donor heavy atom, donor atom, acceptor molecule, acceptor atom, score
      L1  H     5    57       P1  8028  0.95
      P1  H  6896  6908       L1    15  0.70
      P1  H  7989  7998       L1    10  0.80

> <Gold.Chemscore.Hbond.Weighted>
-8.6219

> <Gold.Chemscore.Metal.Weighted>
-0.0000

> <Gold.Chemscore.Lipo.Weighted>
-15.1954

> <Gold.Chemscore.Internal_Hbond.Weighted>
0.0000

> <Gold.Chemscore.DEClash.Weighted>
0.3173

> <Gold.Chemscore.DEInternal.Weighted>
1.8587

> <Gold.Chemscore.Rot.Weighted>
6.3737

> <Gold.Chemscore.Internal.Correction.Weighted>
   9.000000E+99

> <Gold.Protein.RotatedTorsions>
[ 6907 6896 6895 6894 ] final  131.89 input  -60.11 | X-H torsion
[ 7974 7965 7964 7962 ] final  144.12 input  175.53 | X-H torsion
[ 8008 7997 7996 7995 ] final   97.61 input   59.86 | X-H torsion
[ 10167 10162 10161 10158 ] final -127.84 input  -65.29 | X-H torsion
[ 10718 10713 10712 10709 ] final -126.96 input   66.30 | X-H torsion
[ 10763 10752 10751 10750 ] final   77.94 input  -60.55 | X-H torsion
[ 11005 11000 10999 10996 ] final   60.07 input  -57.11 | X-H torsion

> <Gold.Protein.ActiveResidues>
 VAL166  LYS551  ARG553  GLY616  TRP617  ASP618  TYR619  PRO620  LYS621  CYS622 
 ASP623  PHE694  ASN695  SER759  ASP760  ASP761  ALA762  ILE779  LEU786  VAL792 
 PHE793  MET794  SER795  GLU796  ALA797  LYS798  CYS799  TRP800  GLU811  SER814 

> <Gold.Protein.RotatedAtoms>
  152.3380  133.6034  159.5856 H   0  0  0  0  0  0  0  0  0  0  0  0  # atno 6907 bound_to 6896
  150.7462  133.9766  159.3571 H   0  0  0  0  0  0  0  0  0  0  0  0  # atno 6908 bound_to 6896
  151.7633  135.0805  160.0400 H   0  0  0  0  0  0  0  0  0  0  0  0  # atno 6909 bound_to 6896
  144.8862  139.5625  143.5820 H   0  0  0  0  0  0  0  0  0  0  0  0  # atno 7974 bound_to 7965
  156.0919  140.3256  155.7827 H   0  0  0  0  0  0  0  0  0  0  0  0  # atno 8008 bound_to 7997
  155.4982  140.0567  157.2960 H   0  0  0  0  0  0  0  0  0  0  0  0  # atno 8009 bound_to 7997
  154.4643  140.1981  156.0177 H   0  0  0  0  0  0  0  0  0  0  0  0  # atno 8010 bound_to 7997
  139.9566  143.5996  152.2458 H   0  0  0  0  0  0  0  0  0  0  0  0  # atno 10167 bound_to 10162
  156.1813  130.6734  151.0308 H   0  0  0  0  0  0  0  0  0  0  0  0  # atno 10718 bound_to 10713
  153.0836  135.4895  154.8553 H   0  0  0  0  0  0  0  0  0  0  0  0  # atno 10763 bound_to 10752
  154.7183  135.3034  154.9091 H   0  0  0  0  0  0  0  0  0  0  0  0  # atno 10764 bound_to 10752
  153.9763  135.6795  153.4801 H   0  0  0  0  0  0  0  0  0  0  0  0  # atno 10765 bound_to 10752
  140.0258  134.6085  155.9575 H   0  0  0  0  0  0  0  0  0  0  0  0  # atno 11005 bound_to 11000
  146.3026  139.7475  142.9080 LP  0  0  0  0  0  0  0  0  0  0  0  0  # atno 17320 bound_to 7965
  145.3864  141.0366  143.3148 LP  0  0  0  0  0  0  0  0  0  0  0  0  # atno 17321 bound_to 7965
  139.6587  144.7662  151.2006 LP  0  0  0  0  0  0  0  0  0  0  0  0  # atno 17342 bound_to 10162
  140.7566  143.6045  150.8666 LP  0  0  0  0  0  0  0  0  0  0  0  0  # atno 17343 bound_to 10162
  157.6870  131.0822  150.7215 LP  0  0  0  0  0  0  0  0  0  0  0  0  # atno 17370 bound_to 10713
  156.7272  130.4699  149.5508 LP  0  0  0  0  0  0  0  0  0  0  0  0  # atno 17371 bound_to 10713
  141.1802  133.6545  156.4988 LP  0  0  0  0  0  0  0  0  0  0  0  0  # atno 17394 bound_to 11000
  140.4309  134.7103  157.4941 LP  0  0  0  0  0  0  0  0  0  0  0  0  # atno 17395 bound_to 11000

$$$$
