AV-unprocessed.smi:1084|AV-procd|sdf|4717|dock9
  -GOLD-   22720 3243D 1   1.00000     0.00000
 Structure written by MMmdl.
 52 54  0  0  0  0  0  0  0  0  1 V2000
  145.4876  135.3287  150.8221 C   0  0  0  0  0  0  0  0  0  0  0  0
  145.1489  136.2379  152.0311 C   0  0  1  0  0  0  0  0  0  0  0  0
  145.7000  137.6672  151.7533 C   0  0  0  0  0  0  0  0  0  0  0  0
  147.0500  137.8812  152.2686 N   0  0  0  0  0  0  0  0  0  0  0  0
  147.3769  138.7556  153.2306 C   0  0  0  0  0  0  0  0  0  0  0  0
  146.5589  139.4847  153.7910 O   0  0  0  0  0  0  0  0  0  0  0  0
  148.6917  138.7062  153.5049 N   0  0  0  0  0  0  0  0  0  0  0  0
  149.4295  139.4796  154.4412 C   0  0  0  0  0  0  0  0  0  0  0  0
  148.8955  140.7181  154.8441 C   0  0  0  0  0  0  0  0  0  0  0  0
  149.5931  141.4986  155.7849 C   0  0  0  0  0  0  0  0  0  0  0  0
  150.8153  141.0148  156.3168 C   0  0  0  0  0  0  0  0  0  0  0  0
  151.5727  141.7518  157.2571 N   0  0  0  0  0  0  0  0  0  0  0  0
  152.0223  141.0331  158.4500 C   0  0  0  0  0  0  0  0  0  0  0  0
  153.1070  141.8338  159.1903 C   0  0  0  0  0  0  0  0  0  0  0  0
  152.6307  143.1442  159.4738 O   0  0  0  0  0  0  0  0  0  0  0  0
  152.3378  143.8628  158.2813 C   0  0  0  0  0  0  0  0  0  0  0  0
  151.2203  143.1486  157.5021 C   0  0  0  0  0  0  0  0  0  0  0  0
  151.3180  139.8152  155.9361 N   0  0  0  0  0  0  0  0  0  0  0  0
  150.6478  139.0707  155.0318 C   0  0  0  0  0  0  0  0  0  0  0  0
  143.7075  136.2228  152.3738 N   0  0  0  0  0  0  0  0  0  0  0  0
  143.2532  134.9069  152.8389 C   0  0  0  0  0  0  0  0  0  0  0  0
  141.7639  134.8894  153.2244 C   0  0  0  0  0  0  0  0  0  0  0  0
  141.5165  135.8695  154.2225 O   0  0  0  0  0  0  0  0  0  0  0  0
  141.8697  137.1744  153.7860 C   0  0  0  0  0  0  0  0  0  0  0  0
  143.3597  137.2093  153.4033 C   0  0  0  0  0  0  0  0  0  0  0  0
  146.5392  135.3808  150.5431 H   0  0  0  0  0  0  0  0  0  0  0  0
  144.9021  135.6052  149.9450 H   0  0  0  0  0  0  0  0  0  0  0  0
  145.3041  134.2759  151.0327 H   0  0  0  0  0  0  0  0  0  0  0  0
  145.6973  135.8425  152.8875 H   0  0  0  0  0  0  0  0  0  0  0  0
  145.7137  137.8563  150.6796 H   0  0  0  0  0  0  0  0  0  0  0  0
  145.0728  138.4414  152.1931 H   0  0  0  0  0  0  0  0  0  0  0  0
  147.7844  137.3168  151.8670 H   0  0  0  0  0  0  0  0  0  0  0  0
  149.2199  137.9956  153.0200 H   0  0  0  0  0  0  0  0  0  0  0  0
  147.9604  141.0728  154.4356 H   0  0  0  0  0  0  0  0  0  0  0  0
  149.1684  142.4450  156.0829 H   0  0  0  0  0  0  0  0  0  0  0  0
  151.1654  140.8707  159.1049 H   0  0  0  0  0  0  0  0  0  0  0  0
  152.4260  140.0513  158.2030 H   0  0  0  0  0  0  0  0  0  0  0  0
  153.3633  141.3390  160.1271 H   0  0  0  0  0  0  0  0  0  0  0  0
  154.0226  141.8871  158.5990 H   0  0  0  0  0  0  0  0  0  0  0  0
  152.0239  144.8732  158.5434 H   0  0  0  0  0  0  0  0  0  0  0  0
  153.2371  143.9582  157.6709 H   0  0  0  0  0  0  0  0  0  0  0  0
  151.0666  143.6736  156.5590 H   0  0  0  0  0  0  0  0  0  0  0  0
  150.2852  143.1911  158.0618 H   0  0  0  0  0  0  0  0  0  0  0  0
  151.1036  138.1195  154.8058 H   0  0  0  0  0  0  0  0  0  0  0  0
  143.3887  134.1569  152.0617 H   0  0  0  0  0  0  0  0  0  0  0  0
  143.8519  134.5900  153.6942 H   0  0  0  0  0  0  0  0  0  0  0  0
  141.1364  135.0789  152.3521 H   0  0  0  0  0  0  0  0  0  0  0  0
  141.4846  133.9094  153.6116 H   0  0  0  0  0  0  0  0  0  0  0  0
  141.2465  137.4649  152.9386 H   0  0  0  0  0  0  0  0  0  0  0  0
  141.6688  137.8843  154.5885 H   0  0  0  0  0  0  0  0  0  0  0  0
  143.9671  137.0441  154.2945 H   0  0  0  0  0  0  0  0  0  0  0  0
  143.5701  138.2194  153.0586 H   0  0  0  0  0  0  0  0  0  0  0  0
  1  2  1  0  0  0  0
  1 26  1  0  0  0  0
  1 27  1  0  0  0  0
  1 28  1  0  0  0  0
  2  3  1  0  0  0  0
  2 20  1  0  0  0  0
  2 29  1  0  0  0  0
  3  4  1  0  0  0  0
  3 30  1  0  0  0  0
  3 31  1  0  0  0  0
  4  5  1  0  0  0  0
  4 32  1  0  0  0  0
  5  6  2  0  0  0  0
  5  7  1  0  0  0  0
  7  8  1  0  0  0  0
  7 33  1  0  0  0  0
  8 19  1  0  0  0  0
  8  9  2  0  0  0  0
  9 10  1  0  0  0  0
  9 34  1  0  0  0  0
 10 11  2  0  0  0  0
 10 35  1  0  0  0  0
 11 12  1  0  0  0  0
 11 18  1  0  0  0  0
 12 17  1  0  0  0  0
 12 13  1  0  0  0  0
 13 14  1  0  0  0  0
 13 36  1  0  0  0  0
 13 37  1  0  0  0  0
 14 15  1  0  0  0  0
 14 38  1  0  0  0  0
 14 39  1  0  0  0  0
 15 16  1  0  0  0  0
 16 17  1  0  0  0  0
 16 40  1  0  0  0  0
 16 41  1  0  0  0  0
 17 42  1  0  0  0  0
 17 43  1  0  0  0  0
 18 19  2  0  0  0  0
 19 44  1  0  0  0  0
 20 25  1  0  0  0  0
 20 21  1  0  0  0  0
 21 22  1  0  0  0  0
 21 45  1  0  0  0  0
 21 46  1  0  0  0  0
 22 23  1  0  0  0  0
 22 47  1  0  0  0  0
 22 48  1  0  0  0  0
 23 24  1  0  0  0  0
 24 25  1  0  0  0  0
 24 49  1  0  0  0  0
 24 50  1  0  0  0  0
 25 51  1  0  0  0  0
 25 52  1  0  0  0  0
M  END
> <s_m_source_file>
AV-unprocessed.smi

> <i_m_source_file_index>
1084

> <i_lp_mmshare_version>
43012

> <i_f3d_flags>
0

> <s_epik_input>
W0NIMl0xW0NIMl1PW0NIMl1bQ0gyXU4xW0NASF0oW0NIM10pW0NIMl1bTkhdQyg9TylbTkhdYzJbY0hdW2NIXWMobltjSF0yKU4zW0NIMl1bQ0gyXU9bQ0gyXVtDSDJdMw==

> <s_epik_cmdline>
J2VwaWtfcHl0aG9uJywgJy1waCcsICc3LjAnLCAnLXRuJywgJzgnLCAnLW1hJywgJzIwMCcsICctbWV0YWxfYmluZGluZycsICctaW1hZScsICc8aW5maWxlLm1hZT4nLCAnLW9tYWUnLCAnPG91dGZpbGUubWFlPic=

> <r_lp_tautomer_probability>
1

> <r_epik_Ionization_Penalty>
0.268053

> <r_epik_Ionization_Penalty_Charging>
0

> <r_epik_Ionization_Penalty_Neutral>
0.268053

> <r_epik_State_Penalty>
0.269834

> <r_epik_Charging_Adjusted_Penalty>
0.269834

> <i_epik_Tot_Q>
0

> <i_epik_Tot_abs_Q>
0

> <r_epik_Metal_State_Penalty>
0.268436

> <b_epik_Metal_Only>
0

> <s_lp_Force_Field>
OPLS_2005

> <r_lp_Energy>
45.5603

> <b_lp_Chiralities_Consistent>
1

> <s_lp_Variant>
AV-unprocessed.smi:1084-2

> <Gold.Version>
5.8.1

> <Gold.Id.Protein>
6NUR|6NUR_protein|mol2

> <Gold.PLP.Fitness>
49.6507

> <Gold.PLP.PLP>
-45.7476

> <Gold.PLP.part.hbond>
-3.2663

> <Gold.PLP.part.metal>
0.0000

> <Gold.PLP.part.buried>
-5.0737

> <Gold.PLP.part.nonpolar>
-38.7192

> <Gold.PLP.part.repulsive>
0.5823

> <Gold.PLP.ligand.clash>
0.0000

> <Gold.PLP.ligand.torsion>
0.9111

> <Gold.PLP.Chemscore.Hbond>
1.7303

> <Gold.PLP.Chemscore.CHOScore>
0.0000

> <Gold.PLP.Chemscore.Metal>
0.0000

> <Gold.Chemscore.Hbonds>
donor molecule, donor type, donor heavy atom, donor atom, acceptor molecule, acceptor atom, score
      L1  H     4    32       P1  7948  1.00
      L1  H     7    33       P1  7948  0.72

> <Gold.PLP.Chemscore.Internal.Correction>
0.5342

> <Gold.Rescore>
     Score         DG    S(hbond)    S(metal)    S(lipo)     H(rot)  DE(clash)    DE(int)     intcor
     15.71     -19.18       1.73        0.00     103.14       1.62       1.18       2.29       ----

> <Gold.Chemscore.Fitness>
15.7124

> <Gold.Chemscore.DG>
-19.1787

> <Gold.Chemscore.ZeroCoef>
-5.4800

> <Gold.Chemscore.Hbond>
1.7308

> <Gold.Chemscore.Metal>
0.0000

> <Gold.Chemscore.Lipo>
103.1437

> <Gold.Chemscore.Internal_Hbond>
0.0000

> <Gold.Chemscore.DEClash>
1.1813

> <Gold.Chemscore.DEInternal>
2.2851

> <Gold.Chemscore.Rot>
1.6211

> <Gold.Chemscore.Internal.Correction>
   9.000000E+99

> <Gold.Chemscore.Hbonds>
donor molecule, donor type, donor heavy atom, donor atom, acceptor molecule, acceptor atom, score
      L1  H     4    32       P1  7948  0.96
      L1  H     7    33       P1  7948  0.69

> <Gold.Chemscore.Hbond.Weighted>
-5.7809

> <Gold.Chemscore.Metal.Weighted>
-0.0000

> <Gold.Chemscore.Lipo.Weighted>
-12.0678

> <Gold.Chemscore.Internal_Hbond.Weighted>
0.0000

> <Gold.Chemscore.DEClash.Weighted>
1.1813

> <Gold.Chemscore.DEInternal.Weighted>
2.2851

> <Gold.Chemscore.Rot.Weighted>
4.1501

> <Gold.Chemscore.Internal.Correction.Weighted>
   9.000000E+99

> <Gold.Protein.RotatedTorsions>
[ 6907 6896 6895 6894 ] final  -10.23 input  -60.11 | X-H torsion
[ 7974 7965 7964 7962 ] final -177.70 input  175.53 | X-H torsion
[ 8008 7997 7996 7995 ] final   64.37 input   59.86 | X-H torsion
[ 10167 10162 10161 10158 ] final  -62.68 input  -65.29 | X-H torsion
[ 10718 10713 10712 10709 ] final  144.42 input   66.30 | X-H torsion
[ 10763 10752 10751 10750 ] final  -16.50 input  -60.55 | X-H torsion
[ 11005 11000 10999 10996 ] final  -34.93 input  -57.11 | X-H torsion

> <Gold.Protein.ActiveResidues>
 VAL166  LYS551  ARG553  GLY616  TRP617  ASP618  TYR619  PRO620  LYS621  CYS622 
 ASP623  PHE694  ASN695  SER759  ASP760  ASP761  ALA762  ILE779  LEU786  VAL792 
 PHE793  MET794  SER795  GLU796  ALA797  LYS798  CYS799  TRP800  GLU811  SER814 

> <Gold.Protein.RotatedAtoms>
  151.4052  135.0977  159.9567 H   0  0  0  0  0  0  0  0  0  0  0  0  # atno 6907 bound_to 6896
  152.5038  133.8850  159.7376 H   0  0  0  0  0  0  0  0  0  0  0  0  # atno 6908 bound_to 6896
  150.9333  133.6685  159.2834 H   0  0  0  0  0  0  0  0  0  0  0  0  # atno 6909 bound_to 6896
  144.7128  140.0980  143.6418 H   0  0  0  0  0  0  0  0  0  0  0  0  # atno 7974 bound_to 7965
  155.6449  140.3497  155.4728 H   0  0  0  0  0  0  0  0  0  0  0  0  # atno 8008 bound_to 7997
  155.9895  140.1191  157.0674 H   0  0  0  0  0  0  0  0  0  0  0  0  # atno 8009 bound_to 7997
  154.4215  140.1122  156.5532 H   0  0  0  0  0  0  0  0  0  0  0  0  # atno 8010 bound_to 7997
  140.5922  143.2344  151.6113 H   0  0  0  0  0  0  0  0  0  0  0  0  # atno 10167 bound_to 10162
  157.3574  131.0960  151.0946 H   0  0  0  0  0  0  0  0  0  0  0  0  # atno 10718 bound_to 10713
  153.5594  135.7010  153.5554 H   0  0  0  0  0  0  0  0  0  0  0  0  # atno 10763 bound_to 10752
  153.3443  135.4012  155.1596 H   0  0  0  0  0  0  0  0  0  0  0  0  # atno 10764 bound_to 10752
  154.8650  135.3750  154.5111 H   0  0  0  0  0  0  0  0  0  0  0  0  # atno 10765 bound_to 10752
  140.9756  133.7085  156.1596 H   0  0  0  0  0  0  0  0  0  0  0  0  # atno 11005 bound_to 11000
  145.9563  139.2769  143.1182 LP  0  0  0  0  0  0  0  0  0  0  0  0  # atno 17320 bound_to 7965
  145.9269  140.9076  143.0376 LP  0  0  0  0  0  0  0  0  0  0  0  0  # atno 17321 bound_to 7965
  139.5235  144.3131  152.0976 LP  0  0  0  0  0  0  0  0  0  0  0  0  # atno 17342 bound_to 10162
  140.2297  144.4381  150.6305 LP  0  0  0  0  0  0  0  0  0  0  0  0  # atno 17343 bound_to 10162
  157.2099  130.6433  149.5770 LP  0  0  0  0  0  0  0  0  0  0  0  0  # atno 17370 bound_to 10713
  155.9731  130.4663  150.6285 LP  0  0  0  0  0  0  0  0  0  0  0  0  # atno 17371 bound_to 10713
  140.7264  134.4302  157.5570 LP  0  0  0  0  0  0  0  0  0  0  0  0  # atno 17394 bound_to 11000
  139.8929  134.8743  156.2249 LP  0  0  0  0  0  0  0  0  0  0  0  0  # atno 17395 bound_to 11000

$$$$
