AV-unprocessed.smi:1072|AV-procd|sdf|4685|dock8
  -GOLD-   22720 3203D 1   1.00000     0.00000
 Structure written by MMmdl.
 46 47  0  0  0  0  0  0  0  0  1 V2000
  151.3730  143.3302  157.4524 C   0  0  0  0  0  0  0  0  0  0  0  0
  151.2212  142.0265  156.6987 C   0  0  0  0  0  0  0  0  0  0  0  0
  150.2132  142.0470  155.7487 N   0  0  0  0  0  0  0  0  0  0  0  0
  149.9960  140.8969  155.0105 C   0  0  0  0  0  0  0  0  0  0  0  0
  148.8715  141.0014  153.9946 C   0  0  0  0  0  0  0  0  0  0  0  0
  150.7494  139.7846  155.2043 C   0  0  0  0  0  0  0  0  0  0  0  0
  150.5429  138.4980  154.4058 C   0  0  0  0  0  0  0  0  0  0  0  0
  150.4365  137.2124  155.2296 C   0  0  0  0  0  0  0  0  0  0  0  0
  151.4555  136.6227  155.5882 O   0  0  0  0  0  0  0  0  0  0  0  0
  149.1891  136.7972  155.5122 N   0  0  0  0  0  0  0  0  0  0  0  0
  148.7672  135.6056  156.2634 C   0  0  1  0  0  0  0  0  0  0  0  0
  149.0073  135.8262  157.7729 C   0  0  0  0  0  0  0  0  0  0  0  0
  147.2780  135.2585  155.9985 C   0  0  0  0  0  0  0  0  0  0  0  0
  147.0046  134.8790  154.5321 C   0  0  0  0  0  0  0  0  0  0  0  0
  147.8876  133.7014  154.0816 C   0  0  1  0  0  0  0  0  0  0  0  0
  147.6214  133.3272  152.6170 C   0  0  0  0  0  0  0  0  0  0  0  0
  149.3736  134.0234  154.3230 C   0  0  0  0  0  0  0  0  0  0  0  0
  149.6391  134.4180  155.7884 C   0  0  0  0  0  0  0  0  0  0  0  0
  151.8209  139.8270  156.2275 C   0  0  0  0  0  0  0  0  0  0  0  0
  152.5485  138.8578  156.4386 O   0  0  0  0  0  0  0  0  0  0  0  0
  151.9937  141.0152  156.9562 N   0  0  0  0  0  0  0  0  0  0  0  0
  149.6321  142.8533  155.5698 H   0  0  0  0  0  0  0  0  0  0  0  0
  152.0529  143.2144  158.2975 H   0  0  0  0  0  0  0  0  0  0  0  0
  150.4091  143.6661  157.8362 H   0  0  0  0  0  0  0  0  0  0  0  0
  151.7737  144.1020  156.7948 H   0  0  0  0  0  0  0  0  0  0  0  0
  148.0889  140.2757  154.2162 H   0  0  0  0  0  0  0  0  0  0  0  0
  149.2465  140.8099  152.9889 H   0  0  0  0  0  0  0  0  0  0  0  0
  148.4179  141.9933  153.9984 H   0  0  0  0  0  0  0  0  0  0  0  0
  151.3740  138.3953  153.7071 H   0  0  0  0  0  0  0  0  0  0  0  0
  149.6578  138.5721  153.7733 H   0  0  0  0  0  0  0  0  0  0  0  0
  148.4367  137.3740  155.1648 H   0  0  0  0  0  0  0  0  0  0  0  0
  148.7871  134.9231  158.3431 H   0  0  0  0  0  0  0  0  0  0  0  0
  148.3765  136.6176  158.1777 H   0  0  0  0  0  0  0  0  0  0  0  0
  150.0447  136.0951  157.9747 H   0  0  0  0  0  0  0  0  0  0  0  0
  146.9883  134.4193  156.6325 H   0  0  0  0  0  0  0  0  0  0  0  0
  146.6242  136.0798  156.2912 H   0  0  0  0  0  0  0  0  0  0  0  0
  145.9524  134.6173  154.4164 H   0  0  0  0  0  0  0  0  0  0  0  0
  147.1760  135.7423  153.8878 H   0  0  0  0  0  0  0  0  0  0  0  0
  147.6293  132.8355  154.6929 H   0  0  0  0  0  0  0  0  0  0  0  0
  147.8530  134.1558  151.9471 H   0  0  0  0  0  0  0  0  0  0  0  0
  146.5757  133.0584  152.4647 H   0  0  0  0  0  0  0  0  0  0  0  0
  148.2278  132.4734  152.3137 H   0  0  0  0  0  0  0  0  0  0  0  0
  149.9857  133.1584  154.0653 H   0  0  0  0  0  0  0  0  0  0  0  0
  149.6911  134.8283  153.6588 H   0  0  0  0  0  0  0  0  0  0  0  0
  150.6970  134.6526  155.9160 H   0  0  0  0  0  0  0  0  0  0  0  0
  149.4481  133.5498  156.4209 H   0  0  0  0  0  0  0  0  0  0  0  0
  1 23  1  0  0  0  0
  1 24  1  0  0  0  0
  1 25  1  0  0  0  0
  1  2  1  0  0  0  0
  2  3  1  0  0  0  0
  2 21  2  0  0  0  0
  3  4  1  0  0  0  0
  3 22  1  0  0  0  0
  4  6  2  0  0  0  0
  4  5  1  0  0  0  0
  5 26  1  0  0  0  0
  5 27  1  0  0  0  0
  5 28  1  0  0  0  0
  6 19  1  0  0  0  0
  6  7  1  0  0  0  0
  7  8  1  0  0  0  0
  7 29  1  0  0  0  0
  7 30  1  0  0  0  0
  8  9  2  0  0  0  0
  8 10  1  0  0  0  0
 10 11  1  0  0  0  0
 10 31  1  0  0  0  0
 11 18  1  0  0  0  0
 11 12  1  0  0  0  0
 11 13  1  0  0  0  0
 12 32  1  0  0  0  0
 12 33  1  0  0  0  0
 12 34  1  0  0  0  0
 13 14  1  0  0  0  0
 13 35  1  0  0  0  0
 13 36  1  0  0  0  0
 14 15  1  0  0  0  0
 14 37  1  0  0  0  0
 14 38  1  0  0  0  0
 15 16  1  0  0  0  0
 15 17  1  0  0  0  0
 15 39  1  0  0  0  0
 16 40  1  0  0  0  0
 16 41  1  0  0  0  0
 16 42  1  0  0  0  0
 17 18  1  0  0  0  0
 17 43  1  0  0  0  0
 17 44  1  0  0  0  0
 18 45  1  0  0  0  0
 18 46  1  0  0  0  0
 19 20  2  0  0  0  0
 19 21  1  0  0  0  0
M  END
> <s_m_source_file>
AV-unprocessed.smi

> <i_m_source_file_index>
1072

> <i_lp_mmshare_version>
43012

> <i_f3d_flags>
0

> <s_epik_input>
W0NIM11jMW5jKFtDSDNdKWMoYyg9TylbbkhdMSlbQ0gyXUMoPU8pW05IXVtDQEBdMihbQ0gzXSlbQ0gyXVtDSDJdW0NAQEhdKFtDSDNdKVtDSDJdW0NIMl0y

> <s_epik_cmdline>
J2VwaWtfcHl0aG9uJywgJy1waCcsICc3LjAnLCAnLXRuJywgJzgnLCAnLW1hJywgJzIwMCcsICctbWV0YWxfYmluZGluZycsICctaW1hZScsICc8aW5maWxlLm1hZT4nLCAnLW9tYWUnLCAnPG91dGZpbGUubWFlPic=

> <r_lp_tautomer_probability>
0.156392

> <r_epik_Ionization_Penalty>
0.0131066

> <r_epik_Ionization_Penalty_Charging>
0.0129643

> <r_epik_Ionization_Penalty_Neutral>
0.000142248

> <r_epik_State_Penalty>
1.15342

> <r_epik_Charging_Adjusted_Penalty>
1.16638

> <i_epik_Tot_Q>
0

> <i_epik_Tot_abs_Q>
0

> <r_epik_Metal_State_Penalty>
1.30766

> <b_epik_Metal_Only>
0

> <s_lp_Force_Field>
OPLS_2005

> <r_lp_Energy>
14.6826

> <b_lp_Chiralities_Consistent>
1

> <s_lp_Variant>
AV-unprocessed.smi:1072-3

> <Gold.Version>
5.8.1

> <Gold.Id.Protein>
6NUR|6NUR_protein|mol2

> <Gold.PLP.Fitness>
40.5394

> <Gold.PLP.PLP>
-33.0596

> <Gold.PLP.part.hbond>
-3.0000

> <Gold.PLP.part.metal>
0.0000

> <Gold.PLP.part.buried>
0.3041

> <Gold.PLP.part.nonpolar>
-29.6684

> <Gold.PLP.part.repulsive>
0.2301

> <Gold.PLP.ligand.clash>
0.0000

> <Gold.PLP.ligand.torsion>
0.7497

> <Gold.PLP.Chemscore.Hbond>
2.9913

> <Gold.PLP.Chemscore.CHOScore>
0.0000

> <Gold.PLP.Chemscore.Metal>
0.0000

> <Gold.Chemscore.Hbonds>
donor molecule, donor type, donor heavy atom, donor atom, acceptor molecule, acceptor atom, score
      L1  H     3    22       P1  8028  1.00
      P1  H  7997  8008       L1    20  0.40
      P1  H 10752 10763       L1     9  0.81

> <Gold.PLP.Chemscore.Internal.Correction>
0.0054

> <Gold.Rescore>
     Score         DG    S(hbond)    S(metal)    S(lipo)     H(rot)  DE(clash)    DE(int)     intcor
     11.99     -17.32       2.05        0.00      74.69       1.47       0.20       5.14       ----

> <Gold.Chemscore.Fitness>
11.9871

> <Gold.Chemscore.DG>
-17.3188

> <Gold.Chemscore.ZeroCoef>
-5.4800

> <Gold.Chemscore.Hbond>
2.0541

> <Gold.Chemscore.Metal>
0.0000

> <Gold.Chemscore.Lipo>
74.6904

> <Gold.Chemscore.Internal_Hbond>
0.0000

> <Gold.Chemscore.DEClash>
0.1954

> <Gold.Chemscore.DEInternal>
5.1364

> <Gold.Chemscore.Rot>
1.4690

> <Gold.Chemscore.Internal.Correction>
   9.000000E+99

> <Gold.Chemscore.Hbonds>
donor molecule, donor type, donor heavy atom, donor atom, acceptor molecule, acceptor atom, score
      L1  H     3    22       P1  8028  0.95
      P1  H  7997  8008       L1    20  0.04
      P1  H 10752 10763       L1     9  0.77

> <Gold.Chemscore.Hbond.Weighted>
-6.8607

> <Gold.Chemscore.Metal.Weighted>
-0.0000

> <Gold.Chemscore.Lipo.Weighted>
-8.7388

> <Gold.Chemscore.Internal_Hbond.Weighted>
0.0000

> <Gold.Chemscore.DEClash.Weighted>
0.1954

> <Gold.Chemscore.DEInternal.Weighted>
5.1364

> <Gold.Chemscore.Rot.Weighted>
3.7607

> <Gold.Chemscore.Internal.Correction.Weighted>
   9.000000E+99

> <Gold.Protein.RotatedTorsions>
[ 6907 6896 6895 6894 ] final  176.68 input  -60.11 | X-H torsion
[ 7974 7965 7964 7962 ] final -149.62 input  175.53 | X-H torsion
[ 8008 7997 7996 7995 ] final  -52.69 input   59.86 | X-H torsion
[ 10167 10162 10161 10158 ] final  -71.33 input  -65.29 | X-H torsion
[ 10718 10713 10712 10709 ] final  128.59 input   66.30 | X-H torsion
[ 10763 10752 10751 10750 ] final   50.82 input  -60.55 | X-H torsion
[ 11005 11000 10999 10996 ] final  149.70 input  -57.11 | X-H torsion

> <Gold.Protein.ActiveResidues>
 VAL166  LYS551  ARG553  GLY616  TRP617  ASP618  TYR619  PRO620  LYS621  CYS622 
 ASP623  PHE694  ASN695  SER759  ASP760  ASP761  ALA762  ILE779  LEU786  VAL792 
 PHE793  MET794  SER795  GLU796  ALA797  LYS798  CYS799  TRP800  GLU811  SER814 

> <Gold.Protein.RotatedAtoms>
  151.7161  133.3313  159.3303 H   0  0  0  0  0  0  0  0  0  0  0  0  # atno 6907 bound_to 6896
  150.7673  134.6489  159.6287 H   0  0  0  0  0  0  0  0  0  0  0  0  # atno 6908 bound_to 6896
  152.3681  134.6777  160.0237 H   0  0  0  0  0  0  0  0  0  0  0  0  # atno 6909 bound_to 6896
  144.7956  140.5041  143.5742 H   0  0  0  0  0  0  0  0  0  0  0  0  # atno 7974 bound_to 7965
  154.4113  140.1218  156.5033 H   0  0  0  0  0  0  0  0  0  0  0  0  # atno 8008 bound_to 7997
  155.6873  140.3495  155.4860 H   0  0  0  0  0  0  0  0  0  0  0  0  # atno 8009 bound_to 7997
  155.9499  140.1103  157.0975 H   0  0  0  0  0  0  0  0  0  0  0  0  # atno 8010 bound_to 7997
  140.5282  143.2324  151.7310 H   0  0  0  0  0  0  0  0  0  0  0  0  # atno 10167 bound_to 10162
  157.5230  131.1098  150.9124 H   0  0  0  0  0  0  0  0  0  0  0  0  # atno 10718 bound_to 10713
  152.9784  135.5866  154.4315 H   0  0  0  0  0  0  0  0  0  0  0  0  # atno 10763 bound_to 10752
  154.3927  135.2768  155.2147 H   0  0  0  0  0  0  0  0  0  0  0  0  # atno 10764 bound_to 10752
  154.4012  135.6103  153.5952 H   0  0  0  0  0  0  0  0  0  0  0  0  # atno 10765 bound_to 10752
  140.1067  134.8949  157.1877 H   0  0  0  0  0  0  0  0  0  0  0  0  # atno 11005 bound_to 11000
  145.5681  139.1482  143.3304 LP  0  0  0  0  0  0  0  0  0  0  0  0  # atno 17320 bound_to 7965
  146.2224  140.5815  142.9011 LP  0  0  0  0  0  0  0  0  0  0  0  0  # atno 17321 bound_to 7965
  139.4945  144.4154  152.0035 LP  0  0  0  0  0  0  0  0  0  0  0  0  # atno 17342 bound_to 10162
  140.3255  144.3378  150.5999 LP  0  0  0  0  0  0  0  0  0  0  0  0  # atno 17343 bound_to 10162
  156.9729  130.5498  149.5291 LP  0  0  0  0  0  0  0  0  0  0  0  0  # atno 17370 bound_to 10713
  156.0367  130.5454  150.8671 LP  0  0  0  0  0  0  0  0  0  0  0  0  # atno 17371 bound_to 10713
  140.3145  134.2985  155.7259 LP  0  0  0  0  0  0  0  0  0  0  0  0  # atno 17394 bound_to 11000
  141.2120  133.7671  156.9824 LP  0  0  0  0  0  0  0  0  0  0  0  0  # atno 17395 bound_to 11000

$$$$
