AV-unprocessed.smi:1792|AV-procd|sdf|7223|dock6
  -GOLD-   22720 8463D 1   1.00000     0.00000
 Structure written by MMmdl.
 43 44  0  0  0  0  0  0  0  0  2 V2000
  145.9116  138.1995  154.4428 C   0  0  0  0  0  0  0  0  0  0  0  0
  146.7803  139.3264  153.8310 C   0  0  0  0  0  0  0  0  0  0  0  0
  148.2128  139.1721  154.3923 C   0  0  0  0  0  0  0  0  0  0  0  0
  146.8317  139.1024  152.2896 C   0  0  0  0  0  0  0  0  0  0  0  0
  146.9525  137.6971  151.8977 N   0  0  0  0  0  0  0  0  0  0  0  0
  145.9298  136.8533  151.6968 C   0  0  0  0  0  0  0  0  0  0  0  0
  144.7487  137.1846  151.7990 O   0  0  0  0  0  0  0  0  0  0  0  0
  146.3682  135.6239  151.3732 N   0  0  0  0  0  0  0  0  0  0  0  0
  145.5970  134.4680  151.0777 C   0  0  0  0  0  0  0  0  0  0  0  0
  146.3468  133.3101  150.7704 C   0  0  0  0  0  0  0  0  0  0  0  0
  145.6750  132.1103  150.4656 C   0  0  0  0  0  0  0  0  0  0  0  0
  144.2688  132.0999  150.4745 C   0  0  0  0  0  0  0  0  0  0  0  0
  143.5987  133.2968  150.7875 C   0  0  0  0  0  0  0  0  0  0  0  0
  144.2407  134.4476  151.0801 N   0  0  0  0  0  0  0  0  0  0  0  0
  146.1956  140.6772  154.1585 N   0  3  0  0  0  0  0  0  0  0  0  0
  145.7318  140.8654  155.5623 C   0  0  0  0  0  0  0  0  0  0  0  0
  145.0077  142.2138  155.7175 C   0  0  0  0  0  0  0  0  0  0  0  0
  145.8653  143.2731  155.3172 O   0  0  0  0  0  0  0  0  0  0  0  0
  146.2427  143.1558  153.9530 C   0  0  0  0  0  0  0  0  0  0  0  0
  147.0219  141.8469  153.7471 C   0  0  0  0  0  0  0  0  0  0  0  0
  146.2019  137.2214  154.0577 H   0  0  0  0  0  0  0  0  0  0  0  0
  144.8533  138.3363  154.2194 H   0  0  0  0  0  0  0  0  0  0  0  0
  146.0159  138.1387  155.5261 H   0  0  0  0  0  0  0  0  0  0  0  0
  148.6092  138.1798  154.1744 H   0  0  0  0  0  0  0  0  0  0  0  0
  148.2461  139.2948  155.4748 H   0  0  0  0  0  0  0  0  0  0  0  0
  148.9077  139.8890  153.9555 H   0  0  0  0  0  0  0  0  0  0  0  0
  145.9264  139.4863  151.8199 H   0  0  0  0  0  0  0  0  0  0  0  0
  147.6364  139.6908  151.8447 H   0  0  0  0  0  0  0  0  0  0  0  0
  147.8890  137.3316  151.8053 H   0  0  0  0  0  0  0  0  0  0  0  0
  147.3687  135.4958  151.3399 H   0  0  0  0  0  0  0  0  0  0  0  0
  147.4269  133.3344  150.7693 H   0  0  0  0  0  0  0  0  0  0  0  0
  146.2294  131.2141  150.2297 H   0  0  0  0  0  0  0  0  0  0  0  0
  143.7186  131.1989  150.2471 H   0  0  0  0  0  0  0  0  0  0  0  0
  142.5194  133.3319  150.8034 H   0  0  0  0  0  0  0  0  0  0  0  0
  145.0357  140.0848  155.8633 H   0  0  0  0  0  0  0  0  0  0  0  0
  146.5792  140.8249  156.2470 H   0  0  0  0  0  0  0  0  0  0  0  0
  144.0881  142.2315  155.1301 H   0  0  0  0  0  0  0  0  0  0  0  0
  144.7215  142.3675  156.7580 H   0  0  0  0  0  0  0  0  0  0  0  0
  145.3613  143.1915  153.3105 H   0  0  0  0  0  0  0  0  0  0  0  0
  146.8659  144.0095  153.6857 H   0  0  0  0  0  0  0  0  0  0  0  0
  147.9422  141.8823  154.3310 H   0  0  0  0  0  0  0  0  0  0  0  0
  147.3092  141.7849  152.6993 H   0  0  0  0  0  0  0  0  0  0  0  0
  145.3575  140.7312  153.5975 H   0  0  0  0  0  0  0  0  0  0  0  0
  1  2  1  0  0  0  0
  1 21  1  0  0  0  0
  1 22  1  0  0  0  0
  1 23  1  0  0  0  0
  2  3  1  0  0  0  0
  2  4  1  0  0  0  0
  2 15  1  0  0  0  0
  3 24  1  0  0  0  0
  3 25  1  0  0  0  0
  3 26  1  0  0  0  0
  4  5  1  0  0  0  0
  4 27  1  0  0  0  0
  4 28  1  0  0  0  0
  5  6  1  0  0  0  0
  5 29  1  0  0  0  0
  6  7  2  0  0  0  0
  6  8  1  0  0  0  0
  8  9  1  0  0  0  0
  8 30  1  0  0  0  0
  9 14  1  0  0  0  0
  9 10  2  0  0  0  0
 10 11  1  0  0  0  0
 10 31  1  0  0  0  0
 11 12  2  0  0  0  0
 11 32  1  0  0  0  0
 12 13  1  0  0  0  0
 12 33  1  0  0  0  0
 13 14  2  0  0  0  0
 13 34  1  0  0  0  0
 15 20  1  0  0  0  0
 15 16  1  0  0  0  0
 15 43  1  0  0  0  0
 16 17  1  0  0  0  0
 16 35  1  0  0  0  0
 16 36  1  0  0  0  0
 17 18  1  0  0  0  0
 17 37  1  0  0  0  0
 17 38  1  0  0  0  0
 18 19  1  0  0  0  0
 19 20  1  0  0  0  0
 19 39  1  0  0  0  0
 19 40  1  0  0  0  0
 20 41  1  0  0  0  0
 20 42  1  0  0  0  0
M  CHG  1  15   1
M  END
> <s_m_source_file>
AV-unprocessed.smi

> <i_m_source_file_index>
1792

> <i_lp_mmshare_version>
43012

> <i_f3d_flags>
0

> <s_epik_input>
W0NIMl0xW0NIMl1PW0NIMl1bQ0gyXU4xQyhbQ0gzXSkoW0NIM10pW0NIMl1bTkhdQyg9TylbTkhdYzJbY0hdW2NIXVtjSF1bY0hdbjI=

> <s_epik_cmdline>
J2VwaWtfcHl0aG9uJywgJy1waCcsICc3LjAnLCAnLXRuJywgJzgnLCAnLW1hJywgJzIwMCcsICctbWV0YWxfYmluZGluZycsICctaW1hZScsICc8aW5maWxlLm1hZT4nLCAnLW9tYWUnLCAnPG91dGZpbGUubWFlPic=

> <r_epik_Ionization_Penalty>
0.602565

> <r_epik_Ionization_Penalty_Charging>
0.602531

> <r_epik_Ionization_Penalty_Neutral>
3.47415e-05

> <r_epik_State_Penalty>
0.617039

> <r_epik_Charging_Adjusted_Penalty>
1.21957

> <i_epik_Tot_Q>
1

> <i_epik_Tot_abs_Q>
1

> <r_epik_Metal_State_Penalty>
0.617041

> <b_epik_Metal_Only>
0

> <s_lp_Force_Field>
OPLS_2005

> <r_lp_Energy>
32.7628

> <b_lp_Chiralities_Consistent>
1

> <s_lp_Variant>
AV-unprocessed.smi:1792-2

> <Gold.Version>
5.8.1

> <Gold.Id.Protein>
6NUR|6NUR_protein|mol2

> <Gold.PLP.Fitness>
45.7642

> <Gold.PLP.PLP>
-32.3049

> <Gold.PLP.part.hbond>
-2.7856

> <Gold.PLP.part.metal>
0.0000

> <Gold.PLP.part.buried>
-5.1669

> <Gold.PLP.part.nonpolar>
-27.2412

> <Gold.PLP.part.repulsive>
3.3683

> <Gold.PLP.ligand.clash>
0.0000

> <Gold.PLP.ligand.torsion>
0.6607

> <Gold.PLP.Chemscore.Hbond>
3.9120

> <Gold.PLP.Chemscore.CHOScore>
0.9854

> <Gold.PLP.Chemscore.Metal>
0.0000

> <Gold.Chemscore.Hbonds>
donor molecule, donor type, donor heavy atom, donor atom, acceptor molecule, acceptor atom, score
      L1  H     5    29       P1  7948  0.93
      L1  H     8    30       P1  7948  0.90
      L1  H    15    43       P1 10175  2.00
      L1  C    13    34       P1 10186  1.00

> <Gold.PLP.Chemscore.Internal.Correction>
0.0886

> <Gold.Rescore>
     Score         DG    S(hbond)    S(metal)    S(lipo)     H(rot)  DE(clash)    DE(int)     intcor
     16.02     -19.74       2.75        0.00      77.21       1.55       1.53       2.19       ----

> <Gold.Chemscore.Fitness>
16.0204

> <Gold.Chemscore.DG>
-19.7384

> <Gold.Chemscore.ZeroCoef>
-5.4800

> <Gold.Chemscore.Hbond>
2.7507

> <Gold.Chemscore.Metal>
0.0000

> <Gold.Chemscore.Lipo>
77.2054

> <Gold.Chemscore.Internal_Hbond>
0.0000

> <Gold.Chemscore.DEClash>
1.5268

> <Gold.Chemscore.DEInternal>
2.1911

> <Gold.Chemscore.Rot>
1.5476

> <Gold.Chemscore.Internal.Correction>
   9.000000E+99

> <Gold.Chemscore.Hbonds>
donor molecule, donor type, donor heavy atom, donor atom, acceptor molecule, acceptor atom, score
      L1  H     5    29       P1  7948  0.87
      L1  H     8    30       P1  7948  0.78
      L1  H    15    43       P1 10175  0.87

> <Gold.Chemscore.Hbond.Weighted>
-9.1873

> <Gold.Chemscore.Metal.Weighted>
-0.0000

> <Gold.Chemscore.Lipo.Weighted>
-9.0330

> <Gold.Chemscore.Internal_Hbond.Weighted>
0.0000

> <Gold.Chemscore.DEClash.Weighted>
1.5268

> <Gold.Chemscore.DEInternal.Weighted>
2.1911

> <Gold.Chemscore.Rot.Weighted>
3.9619

> <Gold.Chemscore.Internal.Correction.Weighted>
   9.000000E+99

> <Gold.Protein.RotatedTorsions>
[ 6907 6896 6895 6894 ] final  -48.91 input  -60.11 | X-H torsion
[ 7974 7965 7964 7962 ] final   40.00 input  175.53 | X-H torsion
[ 8008 7997 7996 7995 ] final  -82.22 input   59.86 | X-H torsion
[ 10167 10162 10161 10158 ] final   21.87 input  -65.29 | X-H torsion
[ 10718 10713 10712 10709 ] final  100.10 input   66.30 | X-H torsion
[ 10763 10752 10751 10750 ] final  115.07 input  -60.55 | X-H torsion
[ 11005 11000 10999 10996 ] final -146.94 input  -57.11 | X-H torsion

> <Gold.Protein.ActiveResidues>
 VAL166  LYS551  ARG553  GLY616  TRP617  ASP618  TYR619  PRO620  LYS621  CYS622 
 ASP623  PHE694  ASN695  SER759  ASP760  ASP761  ALA762  ILE779  LEU786  VAL792 
 PHE793  MET794  SER795  GLU796  ALA797  LYS798  CYS799  TRP800  GLU811  SER814 

> <Gold.Protein.RotatedAtoms>
  150.8858  134.8256  159.7257 H   0  0  0  0  0  0  0  0  0  0  0  0  # atno 6907 bound_to 6896
  152.4807  134.4724  159.9649 H   0  0  0  0  0  0  0  0  0  0  0  0  # atno 6908 bound_to 6896
  151.4793  133.3511  159.2871 H   0  0  0  0  0  0  0  0  0  0  0  0  # atno 6909 bound_to 6896
  146.0939  139.5584  142.9458 H   0  0  0  0  0  0  0  0  0  0  0  0  # atno 7974 bound_to 7965
  154.6063  140.0636  156.9435 H   0  0  0  0  0  0  0  0  0  0  0  0  # atno 8008 bound_to 7997
  155.2047  140.3318  155.4319 H   0  0  0  0  0  0  0  0  0  0  0  0  # atno 8009 bound_to 7997
  156.2350  140.1858  156.7128 H   0  0  0  0  0  0  0  0  0  0  0  0  # atno 8010 bound_to 7997
  140.5393  143.9706  150.6509 H   0  0  0  0  0  0  0  0  0  0  0  0  # atno 10167 bound_to 10162
  157.6861  131.0689  150.5049 H   0  0  0  0  0  0  0  0  0  0  0  0  # atno 10718 bound_to 10713
  153.5167  135.3606  155.2613 H   0  0  0  0  0  0  0  0  0  0  0  0  # atno 10763 bound_to 10752
  154.8738  135.4036  154.3306 H   0  0  0  0  0  0  0  0  0  0  0  0  # atno 10764 bound_to 10752
  153.3969  135.7073  153.6521 H   0  0  0  0  0  0  0  0  0  0  0  0  # atno 10765 bound_to 10752
  140.7768  134.3126  157.5058 H   0  0  0  0  0  0  0  0  0  0  0  0  # atno 11005 bound_to 11000
  145.5985  141.0359  143.2031 LP  0  0  0  0  0  0  0  0  0  0  0  0  # atno 17320 bound_to 7965
  144.7381  139.7528  143.7321 LP  0  0  0  0  0  0  0  0  0  0  0  0  # atno 17321 bound_to 7965
  140.3102  143.3203  152.0886 LP  0  0  0  0  0  0  0  0  0  0  0  0  # atno 17342 bound_to 10162
  139.4982  144.6641  151.6397 LP  0  0  0  0  0  0  0  0  0  0  0  0  # atno 17343 bound_to 10162
  156.5369  130.4198  149.6173 LP  0  0  0  0  0  0  0  0  0  0  0  0  # atno 17370 bound_to 10713
  156.3019  130.7182  151.2055 LP  0  0  0  0  0  0  0  0  0  0  0  0  # atno 17371 bound_to 10713
  139.8748  134.9294  156.3475 LP  0  0  0  0  0  0  0  0  0  0  0  0  # atno 17394 bound_to 11000
  140.9521  133.7444  156.0286 LP  0  0  0  0  0  0  0  0  0  0  0  0  # atno 17395 bound_to 11000

$$$$
