AV-unprocessed.smi:367|AV-procd|sdf|2432|dock3
  -GOLD-   2262022373D 1   1.00000     0.00000
 Structure written by MMmdl.
 22 22  0  0  0  0  0  0  0  0  2 V2000
  151.3340  144.1906  158.1658 C   0  0  0  0  0  0  0  0  0  0  0  0
  151.3255  142.8211  157.5220 C   0  0  0  0  0  0  0  0  0  0  0  0
  150.4111  142.6979  156.4890 N   0  0  0  0  0  0  0  0  0  0  0  0
  150.3329  141.4807  155.8358 C   0  0  0  0  0  0  0  0  0  0  0  0
  149.3108  141.4318  154.7134 C   0  0  0  0  0  0  0  0  0  0  0  0
  151.1208  140.4366  156.1981 C   0  0  0  0  0  0  0  0  0  0  0  0
  151.0637  139.0758  155.5015 C   0  0  0  0  0  0  0  0  0  0  0  0
  152.3197  138.7175  154.6986 C   0  0  0  0  0  0  0  0  0  0  0  0
  153.2433  139.5600  154.7013 O   0  0  0  0  0  0  0  0  0  0  0  0
  152.3477  137.6177  154.1027 O   0  5  0  0  0  0  0  0  0  0  0  0
  152.0754  140.6273  157.3161 C   0  0  0  0  0  0  0  0  0  0  0  0
  152.8101  139.7178  157.6992 O   0  0  0  0  0  0  0  0  0  0  0  0
  152.1220  141.8849  157.9397 N   0  0  0  0  0  0  0  0  0  0  0  0
  149.8018  143.4452  156.1900 H   0  0  0  0  0  0  0  0  0  0  0  0
  152.1179  144.2620  158.9209 H   0  0  0  0  0  0  0  0  0  0  0  0
  150.3762  144.3875  158.6480 H   0  0  0  0  0  0  0  0  0  0  0  0
  151.5114  144.9631  157.4171 H   0  0  0  0  0  0  0  0  0  0  0  0
  149.8012  141.2311  153.7607 H   0  0  0  0  0  0  0  0  0  0  0  0
  148.7702  142.3744  154.6195 H   0  0  0  0  0  0  0  0  0  0  0  0
  148.5800  140.6443  154.8981 H   0  0  0  0  0  0  0  0  0  0  0  0
  150.1988  139.0103  154.8410 H   0  0  0  0  0  0  0  0  0  0  0  0
  150.9054  138.3027  156.2537 H   0  0  0  0  0  0  0  0  0  0  0  0
  1 15  1  0  0  0  0
  1 16  1  0  0  0  0
  1 17  1  0  0  0  0
  1  2  1  0  0  0  0
  2  3  1  0  0  0  0
  2 13  2  0  0  0  0
  3  4  1  0  0  0  0
  3 14  1  0  0  0  0
  4  6  2  0  0  0  0
  4  5  1  0  0  0  0
  5 18  1  0  0  0  0
  5 19  1  0  0  0  0
  5 20  1  0  0  0  0
  6 11  1  0  0  0  0
  6  7  1  0  0  0  0
  7  8  1  0  0  0  0
  7 21  1  0  0  0  0
  7 22  1  0  0  0  0
  8  9  2  0  0  0  0
  8 10  1  0  0  0  0
 11 12  2  0  0  0  0
 11 13  1  0  0  0  0
M  CHG  1  10  -1
M  END
> <s_m_source_file>
AV-unprocessed.smi

> <i_m_source_file_index>
367

> <i_lp_mmshare_version>
43012

> <i_f3d_flags>
0

> <s_epik_input>
W0NIM11jMW5jKFtDSDNdKWMoYyg9TylbbkhdMSlbQ0gyXUMoPU8pW09IXQ==

> <s_epik_cmdline>
J2VwaWtfcHl0aG9uJywgJy1waCcsICc3LjAnLCAnLXRuJywgJzgnLCAnLW1hJywgJzIwMCcsICctbWV0YWxfYmluZGluZycsICctaW1hZScsICc8aW5maWxlLm1hZT4nLCAnLW9tYWUnLCAnPG91dGZpbGUubWFlPic=

> <r_lp_tautomer_probability>
0.156392

> <r_epik_Ionization_Penalty>
0.00675001

> <r_epik_Ionization_Penalty_Charging>
0.00587431

> <r_epik_Ionization_Penalty_Neutral>
0.000875703

> <r_epik_State_Penalty>
1.15342

> <r_epik_Charging_Adjusted_Penalty>
1.15929

> <i_epik_Tot_Q>
-1

> <i_epik_Tot_abs_Q>
1

> <r_epik_Metal_State_Penalty>
1.20317

> <b_epik_Metal_Only>
0

> <s_lp_Force_Field>
OPLS_2005

> <r_lp_Energy>
7.55918

> <b_lp_Chiralities_Consistent>
1

> <s_lp_Variant>
AV-unprocessed.smi:367-2

> <Gold.Version>
5.8.1

> <Gold.Id.Protein>
6NUR|6NUR_protein|mol2

> <Gold.PLP.Fitness>
42.7493

> <Gold.PLP.PLP>
-27.9606

> <Gold.PLP.part.hbond>
-5.0000

> <Gold.PLP.part.metal>
0.0000

> <Gold.PLP.part.buried>
-2.5116

> <Gold.PLP.part.nonpolar>
-19.8003

> <Gold.PLP.part.repulsive>
0.2473

> <Gold.PLP.ligand.clash>
0.0000

> <Gold.PLP.ligand.torsion>
0.0577

> <Gold.PLP.Chemscore.Hbond>
4.9680

> <Gold.PLP.Chemscore.CHOScore>
0.0000

> <Gold.PLP.Chemscore.Metal>
0.0000

> <Gold.Chemscore.Hbonds>
donor molecule, donor type, donor heavy atom, donor atom, acceptor molecule, acceptor atom, score
      L1  H     3    14       P1  8028  1.00
      P1  H  7989  7998       L1     9  0.01
      P1  H  7997  8008       L1     9  2.00
      P1  H  7997  8010       L1    12  0.45
      P1  H 10752 10765       L1    10  1.50

> <Gold.PLP.Chemscore.Internal.Correction>
0.0001

> <Gold.Rescore>
     Score         DG    S(hbond)    S(metal)    S(lipo)     H(rot)  DE(clash)    DE(int)     intcor
     16.57     -16.70       3.19        0.00      38.57       1.55       0.03       0.10       ----

> <Gold.Chemscore.Fitness>
16.5728

> <Gold.Chemscore.DG>
-16.6987

> <Gold.Chemscore.ZeroCoef>
-5.4800

> <Gold.Chemscore.Hbond>
3.1942

> <Gold.Chemscore.Metal>
0.0000

> <Gold.Chemscore.Lipo>
38.5659

> <Gold.Chemscore.Internal_Hbond>
0.0000

> <Gold.Chemscore.DEClash>
0.0250

> <Gold.Chemscore.DEInternal>
0.1009

> <Gold.Chemscore.Rot>
1.5477

> <Gold.Chemscore.Internal.Correction>
   9.000000E+99

> <Gold.Chemscore.Hbonds>
donor molecule, donor type, donor heavy atom, donor atom, acceptor molecule, acceptor atom, score
      L1  H     3    14       P1  8028  1.00
      P1  H  7997  8008       L1     9  0.94
      P1  H  7997  8010       L1    12  0.37
      P1  H 10752 10765       L1    10  0.70

> <Gold.Chemscore.Hbond.Weighted>
-10.6686

> <Gold.Chemscore.Metal.Weighted>
-0.0000

> <Gold.Chemscore.Lipo.Weighted>
-4.5122

> <Gold.Chemscore.Internal_Hbond.Weighted>
0.0000

> <Gold.Chemscore.DEClash.Weighted>
0.0250

> <Gold.Chemscore.DEInternal.Weighted>
0.1009

> <Gold.Chemscore.Rot.Weighted>
3.9621

> <Gold.Chemscore.Internal.Correction.Weighted>
   9.000000E+99

> <Gold.Protein.RotatedTorsions>
[ 6907 6896 6895 6894 ] final   64.66 input  -60.11 | X-H torsion
[ 7974 7965 7964 7962 ] final  117.56 input  175.53 | X-H torsion
[ 8008 7997 7996 7995 ] final   12.98 input   59.86 | X-H torsion
[ 10167 10162 10161 10158 ] final    9.16 input  -65.29 | X-H torsion
[ 10718 10713 10712 10709 ] final -137.73 input   66.30 | X-H torsion
[ 10763 10752 10751 10750 ] final  154.13 input  -60.55 | X-H torsion
[ 11005 11000 10999 10996 ] final  -79.97 input  -57.11 | X-H torsion

> <Gold.Protein.ActiveResidues>
 VAL166  LYS551  ARG553  GLY616  TRP617  ASP618  TYR619  PRO620  LYS621  CYS622 
 ASP623  PHE694  ASN695  SER759  ASP760  ASP761  ALA762  ILE779  LEU786  VAL792 
 PHE793  MET794  SER795  GLU796  ALA797  LYS798  CYS799  TRP800  GLU811  SER814 

> <Gold.Protein.RotatedAtoms>
  152.4348  134.5707  159.9920 H   0  0  0  0  0  0  0  0  0  0  0  0  # atno 6907 bound_to 6896
  151.5820  133.3371  159.3018 H   0  0  0  0  0  0  0  0  0  0  0  0  # atno 6908 bound_to 6896
  150.8245  134.7505  159.6865 H   0  0  0  0  0  0  0  0  0  0  0  0  # atno 6909 bound_to 6896
  145.1659  139.3129  143.4493 H   0  0  0  0  0  0  0  0  0  0  0  0  # atno 7974 bound_to 7965
  154.8282  140.2895  155.5740 H   0  0  0  0  0  0  0  0  0  0  0  0  # atno 8008 bound_to 7997
  156.3003  140.2537  156.3132 H   0  0  0  0  0  0  0  0  0  0  0  0  # atno 8009 bound_to 7997
  154.9262  140.0384  157.2013 H   0  0  0  0  0  0  0  0  0  0  0  0  # atno 8010 bound_to 7997
  140.6271  143.8076  150.7247 H   0  0  0  0  0  0  0  0  0  0  0  0  # atno 10167 bound_to 10162
  156.2914  130.7377  151.1403 H   0  0  0  0  0  0  0  0  0  0  0  0  # atno 10718 bound_to 10713
  154.1474  135.2817  155.3144 H   0  0  0  0  0  0  0  0  0  0  0  0  # atno 10763 bound_to 10752
  154.6243  135.5457  153.7612 H   0  0  0  0  0  0  0  0  0  0  0  0  # atno 10764 bound_to 10752
  153.0231  135.6446  154.1619 H   0  0  0  0  0  0  0  0  0  0  0  0  # atno 10765 bound_to 10752
  141.1668  133.7129  156.8202 H   0  0  0  0  0  0  0  0  0  0  0  0  # atno 11005 bound_to 11000
  146.3476  140.1786  142.8589 LP  0  0  0  0  0  0  0  0  0  0  0  0  # atno 17320 bound_to 7965
  145.0283  140.8850  143.5125 LP  0  0  0  0  0  0  0  0  0  0  0  0  # atno 17321 bound_to 7965
  140.1679  143.4219  152.2021 LP  0  0  0  0  0  0  0  0  0  0  0  0  # atno 17342 bound_to 10162
  139.5490  144.7322  151.4494 LP  0  0  0  0  0  0  0  0  0  0  0  0  # atno 17343 bound_to 10162
  157.7343  131.0583  150.5530 LP  0  0  0  0  0  0  0  0  0  0  0  0  # atno 17370 bound_to 10713
  156.5647  130.4264  149.6047 LP  0  0  0  0  0  0  0  0  0  0  0  0  # atno 17371 bound_to 10713
  140.2124  134.8817  157.3289 LP  0  0  0  0  0  0  0  0  0  0  0  0  # atno 17394 bound_to 11000
  140.2072  134.4182  155.7631 LP  0  0  0  0  0  0  0  0  0  0  0  0  # atno 17395 bound_to 11000

$$$$
