AV-unprocessed.smi:283|AV-procd|sdf|2149|dock1
  -GOLD-   2262021483D 1   1.00000     0.00000
 Structure written by MMmdl.
 48 51  0  0  0  0  0  0  0  0  1 V2000
  148.9151  142.1687  157.7230 C   0  0  0  0  0  0  0  0  0  0  0  0
  150.1499  141.7048  156.9391 C   0  0  2  0  0  0  0  0  0  0  0  0
  149.8286  140.5089  156.1621 N   0  0  0  0  0  0  0  0  0  0  0  0
  148.8664  140.5429  155.2129 C   0  0  0  0  0  0  0  0  0  0  0  0
  148.5966  141.6849  154.5283 N   0  0  0  0  0  0  0  0  0  0  0  0
  147.6404  141.6936  153.5957 C   0  0  0  0  0  0  0  0  0  0  0  0
  146.8510  140.6925  153.2024 N   0  0  0  0  0  0  0  0  0  0  0  0
  147.1122  139.5427  153.8904 C   0  0  0  0  0  0  0  0  0  0  0  0
  148.0995  139.3900  154.9041 C   0  0  0  0  0  0  0  0  0  0  0  0
  148.0916  138.0856  155.3793 N   0  0  0  0  0  0  0  0  0  0  0  0
  147.1497  137.5046  154.6863 C   0  0  0  0  0  0  0  0  0  0  0  0
  146.5051  138.3070  153.7707 N   0  0  0  0  0  0  0  0  0  0  0  0
  145.3832  137.9154  152.8567 C   0  0  2  0  0  0  0  0  0  0  0  0
  144.7721  136.7700  153.3655 O   0  0  0  0  0  0  0  0  0  0  0  0
  144.4689  135.8727  152.3030 C   0  0  2  0  0  0  0  0  0  0  0  0
  144.3102  134.4327  152.8226 C   0  0  0  0  0  0  0  0  0  0  0  0
  143.2203  134.3540  153.7167 O   0  0  0  0  0  0  0  0  0  0  0  0
  145.6115  136.0959  151.3011 C   0  0  2  0  0  0  0  0  0  0  0  0
  146.7528  135.3210  151.6282 O   0  0  0  0  0  0  0  0  0  0  0  0
  145.8611  137.5963  151.4242 C   0  0  2  0  0  0  0  0  0  0  0  0
  147.1913  137.9807  151.1155 O   0  0  0  0  0  0  0  0  0  0  0  0
  151.3475  141.5339  157.8760 C   0  0  0  0  0  0  0  0  0  0  0  0
  151.7747  140.2333  158.2313 C   0  0  0  0  0  0  0  0  0  0  0  0
  152.8742  140.0478  159.0900 C   0  0  0  0  0  0  0  0  0  0  0  0
  153.5569  141.1631  159.6075 C   0  0  0  0  0  0  0  0  0  0  0  0
  153.1346  142.4619  159.2691 C   0  0  0  0  0  0  0  0  0  0  0  0
  152.0335  142.6539  158.4103 C   0  0  0  0  0  0  0  0  0  0  0  0
  151.5534  144.2731  158.0399 Cl  0  0  0  0  0  0  0  0  0  0  0  0
  144.6969  138.7623  152.8936 H   0  0  0  0  0  0  0  0  0  0  0  0
  143.5415  136.2052  151.8323 H   0  0  0  0  0  0  0  0  0  0  0  0
  145.3092  135.8247  150.2890 H   0  0  0  0  0  0  0  0  0  0  0  0
  145.1891  138.1194  150.7423 H   0  0  0  0  0  0  0  0  0  0  0  0
  149.1143  143.1036  158.2477 H   0  0  0  0  0  0  0  0  0  0  0  0
  148.6120  141.4282  158.4640 H   0  0  0  0  0  0  0  0  0  0  0  0
  148.0687  142.3402  157.0573 H   0  0  0  0  0  0  0  0  0  0  0  0
  150.3744  142.4840  156.2119 H   0  0  0  0  0  0  0  0  0  0  0  0
  150.4911  139.7505  156.2359 H   0  0  0  0  0  0  0  0  0  0  0  0
  147.4845  142.6372  153.0942 H   0  0  0  0  0  0  0  0  0  0  0  0
  146.8904  136.4659  154.8300 H   0  0  0  0  0  0  0  0  0  0  0  0
  144.0989  133.7551  151.9947 H   0  0  0  0  0  0  0  0  0  0  0  0
  145.2220  134.0820  153.3072 H   0  0  0  0  0  0  0  0  0  0  0  0
  143.1583  133.4684  154.0403 H   0  0  0  0  0  0  0  0  0  0  0  0
  147.5279  135.8287  151.4431 H   0  0  0  0  0  0  0  0  0  0  0  0
  147.7838  137.4111  151.5812 H   0  0  0  0  0  0  0  0  0  0  0  0
  151.2590  139.3668  157.8437 H   0  0  0  0  0  0  0  0  0  0  0  0
  153.1928  139.0494  159.3513 H   0  0  0  0  0  0  0  0  0  0  0  0
  154.4016  141.0230  160.2659 H   0  0  0  0  0  0  0  0  0  0  0  0
  153.6586  143.3160  159.6723 H   0  0  0  0  0  0  0  0  0  0  0  0
  1  2  1  0  0  0  0
  1 33  1  0  0  0  0
  1 34  1  0  0  0  0
  1 35  1  0  0  0  0
  2  3  1  0  0  0  0
  2 22  1  0  0  0  0
  2 36  1  0  0  0  0
  3  4  1  0  0  0  0
  3 37  1  0  0  0  0
  4  9  1  0  0  0  0
  4  5  2  0  0  0  0
  5  6  1  0  0  0  0
  6  7  2  0  0  0  0
  6 38  1  0  0  0  0
  7  8  1  0  0  0  0
  8 12  1  0  0  0  0
  8  9  2  0  0  0  0
  9 10  1  0  0  0  0
 10 11  2  0  0  0  0
 11 12  1  0  0  0  0
 11 39  1  0  0  0  0
 12 13  1  0  0  0  0
 13 29  1  0  0  0  0
 13 20  1  0  0  0  0
 13 14  1  0  0  0  0
 14 15  1  0  0  0  0
 15 30  1  0  0  0  0
 15 16  1  0  0  0  0
 15 18  1  0  0  0  0
 16 17  1  0  0  0  0
 16 40  1  0  0  0  0
 16 41  1  0  0  0  0
 17 42  1  0  0  0  0
 18 31  1  0  0  0  0
 18 19  1  0  0  0  0
 18 20  1  0  0  0  0
 19 43  1  0  0  0  0
 20 32  1  0  0  0  0
 20 21  1  0  0  0  0
 21 44  1  0  0  0  0
 22 27  1  0  0  0  0
 22 23  2  0  0  0  0
 23 24  1  0  0  0  0
 23 45  1  0  0  0  0
 24 25  2  0  0  0  0
 24 46  1  0  0  0  0
 25 26  1  0  0  0  0
 25 47  1  0  0  0  0
 26 27  2  0  0  0  0
 26 48  1  0  0  0  0
 27 28  1  0  0  0  0
M  END
> <s_m_source_file>
AV-unprocessed.smi

> <i_m_source_file_index>
283

> <i_lp_mmshare_version>
43012

> <i_f3d_flags>
0

> <s_epik_input>
Q2xjMVtjSF1bY0hdW2NIXVtjSF1jMVtDQEhdKFtDSDNdKVtOSF1jKG5bY0hdbjIpYyhjMjMpbltjSF1uM1tDQEBIXTRPW0NASF0oW0NIMl1bT0hdKVtDQEBIXShbT0hdKVtDQEhdNFtPSF0=

> <s_epik_cmdline>
J2VwaWtfcHl0aG9uJywgJy1waCcsICc3LjAnLCAnLXRuJywgJzgnLCAnLW1hJywgJzIwMCcsICctbWV0YWxfYmluZGluZycsICctaW1hZScsICc8aW5maWxlLm1hZT4nLCAnLW9tYWUnLCAnPG91dGZpbGUubWFlPic=

> <r_lp_tautomer_probability>
1

> <r_epik_Ionization_Penalty>
0.000266407

> <r_epik_Ionization_Penalty_Charging>
0

> <r_epik_Ionization_Penalty_Neutral>
0.000266407

> <r_epik_State_Penalty>
-0

> <r_epik_Charging_Adjusted_Penalty>
0

> <i_epik_Tot_Q>
0

> <i_epik_Tot_abs_Q>
0

> <r_epik_Metal_State_Penalty>
-0

> <b_epik_Metal_Only>
0

> <s_epik_Chemistry_Notes>
This compound contains an acetal/aminal-like group ( X-CH(R)-Y where X, Y are N, S, or O) that may be acid/base labile, releasing an aldehyde.

> <s_lp_Force_Field>
OPLS_2005

> <r_lp_Energy>
56.6736

> <b_lp_Chiralities_Consistent>
1

> <s_lp_Variant>
AV-unprocessed.smi:283-25

> <Gold.Version>
5.8.1

> <Gold.Id.Protein>
6NUR|6NUR_protein|mol2

> <Gold.PLP.Fitness>
50.5957

> <Gold.PLP.PLP>
-41.3287

> <Gold.PLP.part.hbond>
-4.0399

> <Gold.PLP.part.metal>
0.0000

> <Gold.PLP.part.buried>
-4.0316

> <Gold.PLP.part.nonpolar>
-34.4297

> <Gold.PLP.part.repulsive>
0.5411

> <Gold.PLP.ligand.clash>
0.0000

> <Gold.PLP.ligand.torsion>
1.2167

> <Gold.PLP.Chemscore.Hbond>
3.8173

> <Gold.PLP.Chemscore.CHOScore>
0.0000

> <Gold.PLP.Chemscore.Metal>
0.0000

> <Gold.Chemscore.Hbonds>
donor molecule, donor type, donor heavy atom, donor atom, acceptor molecule, acceptor atom, score
      L1  H    17    42       P1 10957  1.00
      L1  H    19    43       P1  7948  0.89
      L1  H    21    44       P1  7948  1.00
      P1  H  7954  7966       L1    21  0.35

> <Gold.PLP.Chemscore.Internal.Correction>
0.2487

> <Gold.Rescore>
     Score         DG    S(hbond)    S(metal)    S(lipo)     H(rot)  DE(clash)    DE(int)     intcor
     14.98     -16.27       2.94        0.00      97.86       4.10       0.09       1.20       ----

> <Gold.Chemscore.Fitness>
14.9804

> <Gold.Chemscore.DG>
-16.2730

> <Gold.Chemscore.ZeroCoef>
-5.4800

> <Gold.Chemscore.Hbond>
2.9435

> <Gold.Chemscore.Metal>
0.0000

> <Gold.Chemscore.Lipo>
97.8613

> <Gold.Chemscore.Internal_Hbond>
0.0000

> <Gold.Chemscore.DEClash>
0.0916

> <Gold.Chemscore.DEInternal>
1.2011

> <Gold.Chemscore.Rot>
4.0968

> <Gold.Chemscore.Internal.Correction>
   9.000000E+99

> <Gold.Chemscore.Hbonds>
donor molecule, donor type, donor heavy atom, donor atom, acceptor molecule, acceptor atom, score
      L1  H    17    42       P1 10957  1.00
      L1  H    19    43       P1  7948  0.80
      L1  H    21    44       P1  7948  0.99
      P1  H  7954  7966       L1    21  0.01

> <Gold.Chemscore.Hbond.Weighted>
-9.8312

> <Gold.Chemscore.Metal.Weighted>
-0.0000

> <Gold.Chemscore.Lipo.Weighted>
-11.4498

> <Gold.Chemscore.Internal_Hbond.Weighted>
0.0000

> <Gold.Chemscore.DEClash.Weighted>
0.0916

> <Gold.Chemscore.DEInternal.Weighted>
1.2011

> <Gold.Chemscore.Rot.Weighted>
10.4879

> <Gold.Chemscore.Internal.Correction.Weighted>
   9.000000E+99

> <Gold.Protein.RotatedTorsions>
[ 6907 6896 6895 6894 ] final   40.58 input  -60.11 | X-H torsion
[ 7974 7965 7964 7962 ] final  -89.51 input  175.53 | X-H torsion
[ 8008 7997 7996 7995 ] final  -67.51 input   59.86 | X-H torsion
[ 10167 10162 10161 10158 ] final   68.29 input  -65.29 | X-H torsion
[ 10718 10713 10712 10709 ] final  -28.94 input   66.30 | X-H torsion
[ 10763 10752 10751 10750 ] final   20.99 input  -60.55 | X-H torsion
[ 11005 11000 10999 10996 ] final   -7.26 input  -57.11 | X-H torsion

> <Gold.Protein.ActiveResidues>
 VAL166  LYS551  ARG553  GLY616  TRP617  ASP618  TYR619  PRO620  LYS621  CYS622 
 ASP623  PHE694  ASN695  SER759  ASP760  ASP761  ALA762  ILE779  LEU786  VAL792 
 PHE793  MET794  SER795  GLU796  ALA797  LYS798  CYS799  TRP800  GLU811  SER814 

> <Gold.Protein.RotatedAtoms>
  152.1843  134.8727  160.0523 H   0  0  0  0  0  0  0  0  0  0  0  0  # atno 6907 bound_to 6896
  151.9640  133.3699  159.4054 H   0  0  0  0  0  0  0  0  0  0  0  0  # atno 6908 bound_to 6896
  150.6923  134.4134  159.5216 H   0  0  0  0  0  0  0  0  0  0  0  0  # atno 6909 bound_to 6896
  145.4389  140.9558  143.2086 H   0  0  0  0  0  0  0  0  0  0  0  0  # atno 7974 bound_to 7965
  154.4805  140.0891  156.7365 H   0  0  0  0  0  0  0  0  0  0  0  0  # atno 8008 bound_to 7997
  155.4483  140.3456  155.4279 H   0  0  0  0  0  0  0  0  0  0  0  0  # atno 8009 bound_to 7997
  156.1183  140.1467  156.9229 H   0  0  0  0  0  0  0  0  0  0  0  0  # atno 8010 bound_to 7997
  140.0803  144.5077  150.7167 H   0  0  0  0  0  0  0  0  0  0  0  0  # atno 10167 bound_to 10162
  156.4188  130.4422  149.7198 H   0  0  0  0  0  0  0  0  0  0  0  0  # atno 10718 bound_to 10713
  153.1032  135.6678  153.9635 H   0  0  0  0  0  0  0  0  0  0  0  0  # atno 10763 bound_to 10752
  153.9200  135.3015  155.3449 H   0  0  0  0  0  0  0  0  0  0  0  0  # atno 10764 bound_to 10752
  154.7453  135.5060  153.9268 H   0  0  0  0  0  0  0  0  0  0  0  0  # atno 10765 bound_to 10752
  140.7108  133.8910  155.8749 H   0  0  0  0  0  0  0  0  0  0  0  0  # atno 11005 bound_to 11000
  144.8134  139.5920  143.7019 LP  0  0  0  0  0  0  0  0  0  0  0  0  # atno 17320 bound_to 7965
  146.2567  139.6318  142.9390 LP  0  0  0  0  0  0  0  0  0  0  0  0  # atno 17321 bound_to 7965
  140.7081  143.2483  151.4665 LP  0  0  0  0  0  0  0  0  0  0  0  0  # atno 17342 bound_to 10162
  139.5783  144.1767  152.1934 LP  0  0  0  0  0  0  0  0  0  0  0  0  # atno 17343 bound_to 10162
  156.4147  130.7739  151.2754 LP  0  0  0  0  0  0  0  0  0  0  0  0  # atno 17370 bound_to 10713
  157.7508  131.0201  150.3693 LP  0  0  0  0  0  0  0  0  0  0  0  0  # atno 17371 bound_to 10713
  141.0086  134.1052  157.4245 LP  0  0  0  0  0  0  0  0  0  0  0  0  # atno 17394 bound_to 11000
  139.8872  135.0088  156.6546 LP  0  0  0  0  0  0  0  0  0  0  0  0  # atno 17395 bound_to 11000

$$$$
