AV-unprocessed.smi:1756|AV-procd|sdf|7071|dock6
  -GOLD-   22720 8293D 1   1.00000     0.00000
 Structure written by MMmdl.
 38 39  0  0  0  0  0  0  0  0  1 V2000
  149.2932  141.3291  158.7372 O   0  0  0  0  0  0  0  0  0  0  0  0
  149.3009  142.1778  157.8461 C   0  0  0  0  0  0  0  0  0  0  0  0
  149.5329  143.4788  158.0716 N   0  0  0  0  0  0  0  0  0  0  0  0
  149.7875  144.0817  159.3769 C   0  0  0  0  0  0  0  0  0  0  0  0
  151.2447  143.8874  159.8351 C   0  0  2  0  0  0  0  0  0  0  0  0
  151.9035  142.6093  159.2723 C   0  0  0  0  0  0  0  0  0  0  0  0
  153.3083  142.4203  159.8558 C   0  0  0  0  0  0  0  0  0  0  0  0
  153.2462  142.4758  161.3852 C   0  0  0  0  0  0  0  0  0  0  0  0
  152.5324  143.7576  161.8402 C   0  0  0  0  0  0  0  0  0  0  0  0
  151.2333  143.8192  161.2597 O   0  0  0  0  0  0  0  0  0  0  0  0
  149.1048  141.9475  156.5346 N   0  0  0  0  0  0  0  0  0  0  0  0
  148.8208  140.7415  155.8706 C   0  0  0  0  0  0  0  0  0  0  0  0
  148.4797  139.5759  156.4806 C   0  0  0  0  0  0  0  0  0  0  0  0
  148.1938  138.3656  155.7280 C   0  0  0  0  0  0  0  0  0  0  0  0
  147.7580  137.0822  156.4182 C   0  0  0  0  0  0  0  0  0  0  0  0
  146.5650  136.6781  155.9801 F   0  0  0  0  0  0  0  0  0  0  0  0
  148.6401  136.1145  156.1724 F   0  0  0  0  0  0  0  0  0  0  0  0
  147.6836  137.2503  157.7386 F   0  0  0  0  0  0  0  0  0  0  0  0
  148.2559  138.4638  154.3873 C   0  0  0  0  0  0  0  0  0  0  0  0
  148.6073  139.6569  153.7523 N   0  0  0  0  0  0  0  0  0  0  0  0
  148.8920  140.8081  154.4012 C   0  0  0  0  0  0  0  0  0  0  0  0
  149.1867  141.8210  153.7674 O   0  0  0  0  0  0  0  0  0  0  0  0
  148.6421  139.6466  152.7431 H   0  0  0  0  0  0  0  0  0  0  0  0
  149.5297  144.1047  157.2794 H   0  0  0  0  0  0  0  0  0  0  0  0
  149.5787  145.1479  159.2858 H   0  0  0  0  0  0  0  0  0  0  0  0
  149.0957  143.7029  160.1312 H   0  0  0  0  0  0  0  0  0  0  0  0
  151.8252  144.7613  159.5332 H   0  0  0  0  0  0  0  0  0  0  0  0
  151.2878  141.7421  159.5147 H   0  0  0  0  0  0  0  0  0  0  0  0
  151.9659  142.6543  158.1853 H   0  0  0  0  0  0  0  0  0  0  0  0
  153.7336  141.4722  159.5258 H   0  0  0  0  0  0  0  0  0  0  0  0
  153.9679  143.2064  159.4862 H   0  0  0  0  0  0  0  0  0  0  0  0
  152.7080  141.6057  161.7630 H   0  0  0  0  0  0  0  0  0  0  0  0
  154.2506  142.4313  161.8069 H   0  0  0  0  0  0  0  0  0  0  0  0
  152.4342  143.7661  162.9258 H   0  0  0  0  0  0  0  0  0  0  0  0
  153.1082  144.6427  161.5662 H   0  0  0  0  0  0  0  0  0  0  0  0
  149.2029  142.7455  155.9235 H   0  0  0  0  0  0  0  0  0  0  0  0
  148.3984  139.5114  157.5528 H   0  0  0  0  0  0  0  0  0  0  0  0
  148.0407  137.6526  153.7073 H   0  0  0  0  0  0  0  0  0  0  0  0
  1  2  2  0  0  0  0
  2  3  1  0  0  0  0
  2 11  1  0  0  0  0
  3  4  1  0  0  0  0
  3 24  1  0  0  0  0
  4  5  1  0  0  0  0
  4 25  1  0  0  0  0
  4 26  1  0  0  0  0
  5 10  1  0  0  0  0
  5  6  1  0  0  0  0
  5 27  1  0  0  0  0
  6  7  1  0  0  0  0
  6 28  1  0  0  0  0
  6 29  1  0  0  0  0
  7  8  1  0  0  0  0
  7 30  1  0  0  0  0
  7 31  1  0  0  0  0
  8  9  1  0  0  0  0
  8 32  1  0  0  0  0
  8 33  1  0  0  0  0
  9 10  1  0  0  0  0
  9 34  1  0  0  0  0
  9 35  1  0  0  0  0
 11 12  1  0  0  0  0
 11 36  1  0  0  0  0
 12 21  1  0  0  0  0
 12 13  2  0  0  0  0
 13 14  1  0  0  0  0
 13 37  1  0  0  0  0
 14 15  1  0  0  0  0
 14 19  2  0  0  0  0
 15 16  1  0  0  0  0
 15 17  1  0  0  0  0
 15 18  1  0  0  0  0
 19 20  1  0  0  0  0
 19 38  1  0  0  0  0
 20 23  1  0  0  0  0
 20 21  1  0  0  0  0
 21 22  2  0  0  0  0
M  END
> <s_m_source_file>
AV-unprocessed.smi

> <i_m_source_file_index>
1756

> <i_lp_mmshare_version>
43012

> <i_f3d_flags>
0

> <s_epik_input>
Tz1jMVtuSF1bY0hdYyhDKEYpKEYpRilbY0hdYzFbTkhdQyg9TylbTkhdW0NIMl1bQ0BASF0yW0NIMl1bQ0gyXVtDSDJdW0NIMl1PMg==

> <s_epik_cmdline>
J2VwaWtfcHl0aG9uJywgJy1waCcsICc3LjAnLCAnLXRuJywgJzgnLCAnLW1hJywgJzIwMCcsICctbWV0YWxfYmluZGluZycsICctaW1hZScsICc8aW5maWxlLm1hZT4nLCAnLW9tYWUnLCAnPG91dGZpbGUubWFlPic=

> <r_lp_tautomer_probability>
1

> <r_epik_Ionization_Penalty>
0.00380944

> <r_epik_Ionization_Penalty_Charging>
0.00379057

> <r_epik_Ionization_Penalty_Neutral>
1.88732e-05

> <r_epik_State_Penalty>
-0

> <r_epik_Charging_Adjusted_Penalty>
0.00379057

> <i_epik_Tot_Q>
0

> <i_epik_Tot_abs_Q>
0

> <r_epik_Metal_State_Penalty>
0.371099

> <b_epik_Metal_Only>
0

> <s_lp_Force_Field>
OPLS_2005

> <r_lp_Energy>
19.4174

> <b_lp_Chiralities_Consistent>
1

> <s_lp_Variant>
AV-unprocessed.smi:1756-1

> <Gold.Version>
5.8.1

> <Gold.Id.Protein>
6NUR|6NUR_protein|mol2

> <Gold.PLP.Fitness>
44.8845

> <Gold.PLP.PLP>
-32.5273

> <Gold.PLP.part.hbond>
-8.1829

> <Gold.PLP.part.metal>
0.0000

> <Gold.PLP.part.buried>
-2.9381

> <Gold.PLP.part.nonpolar>
-21.4224

> <Gold.PLP.part.repulsive>
0.5696

> <Gold.PLP.ligand.clash>
0.0346

> <Gold.PLP.ligand.torsion>
0.5958

> <Gold.PLP.Chemscore.Hbond>
3.5120

> <Gold.PLP.Chemscore.CHOScore>
1.0000

> <Gold.PLP.Chemscore.Metal>
0.0000

> <Gold.Chemscore.Hbonds>
donor molecule, donor type, donor heavy atom, donor atom, acceptor molecule, acceptor atom, score
      L1  H     3    24       P1  8028  1.00
      L1  H    11    36       P1  8028  0.94
      L1  H    20    23       P1  7957  0.98
      P1  H  8011  8017       L1    22  0.58
      L1  C    19    38       P1  7948  1.00

> <Gold.PLP.Chemscore.Internal.Correction>
0.0474

> <Gold.Rescore>
     Score         DG    S(hbond)    S(metal)    S(lipo)     H(rot)  DE(clash)    DE(int)     intcor
     17.88     -19.95       2.83        0.00      72.03       1.33       0.17       1.90       ----

> <Gold.Chemscore.Fitness>
17.8758

> <Gold.Chemscore.DG>
-19.9476

> <Gold.Chemscore.ZeroCoef>
-5.4800

> <Gold.Chemscore.Hbond>
2.8310

> <Gold.Chemscore.Metal>
0.0000

> <Gold.Chemscore.Lipo>
72.0343

> <Gold.Chemscore.Internal_Hbond>
0.0000

> <Gold.Chemscore.DEClash>
0.1672

> <Gold.Chemscore.DEInternal>
1.9045

> <Gold.Chemscore.Rot>
1.3344

> <Gold.Chemscore.Internal.Correction>
   9.000000E+99

> <Gold.Chemscore.Hbonds>
donor molecule, donor type, donor heavy atom, donor atom, acceptor molecule, acceptor atom, score
      L1  H     3    24       P1  8028  0.34
      L1  H    11    36       P1  8028  0.86
      L1  H    20    23       P1  7957  0.93
      P1  H  8011  8017       L1    22  0.58

> <Gold.Chemscore.Hbond.Weighted>
-9.4555

> <Gold.Chemscore.Metal.Weighted>
-0.0000

> <Gold.Chemscore.Lipo.Weighted>
-8.4280

> <Gold.Chemscore.Internal_Hbond.Weighted>
0.0000

> <Gold.Chemscore.DEClash.Weighted>
0.1672

> <Gold.Chemscore.DEInternal.Weighted>
1.9045

> <Gold.Chemscore.Rot.Weighted>
3.4160

> <Gold.Chemscore.Internal.Correction.Weighted>
   9.000000E+99

> <Gold.Protein.RotatedTorsions>
[ 6907 6896 6895 6894 ] final  124.03 input  -60.11 | X-H torsion
[ 7974 7965 7964 7962 ] final  -25.84 input  175.53 | X-H torsion
[ 8008 7997 7996 7995 ] final    8.21 input   59.86 | X-H torsion
[ 10167 10162 10161 10158 ] final  -26.53 input  -65.29 | X-H torsion
[ 10718 10713 10712 10709 ] final  -49.41 input   66.30 | X-H torsion
[ 10763 10752 10751 10750 ] final  -49.01 input  -60.55 | X-H torsion
[ 11005 11000 10999 10996 ] final  111.13 input  -57.11 | X-H torsion

> <Gold.Protein.ActiveResidues>
 VAL166  LYS551  ARG553  GLY616  TRP617  ASP618  TYR619  PRO620  LYS621  CYS622 
 ASP623  PHE694  ASN695  SER759  ASP760  ASP761  ALA762  ILE779  LEU786  VAL792 
 PHE793  MET794  SER795  GLU796  ALA797  LYS798  CYS799  TRP800  GLU811  SER814 

> <Gold.Protein.RotatedAtoms>
  152.4112  133.6967  159.6399 H   0  0  0  0  0  0  0  0  0  0  0  0  # atno 6907 bound_to 6896
  150.7993  133.8620  159.3243 H   0  0  0  0  0  0  0  0  0  0  0  0  # atno 6908 bound_to 6896
  151.6362  135.1019  160.0183 H   0  0  0  0  0  0  0  0  0  0  0  0  # atno 6909 bound_to 6896
  146.1465  140.4940  142.8629 H   0  0  0  0  0  0  0  0  0  0  0  0  # atno 7974 bound_to 7965
  154.7638  140.2789  155.6192 H   0  0  0  0  0  0  0  0  0  0  0  0  # atno 8008 bound_to 7997
  156.2921  140.2654  156.2351 H   0  0  0  0  0  0  0  0  0  0  0  0  # atno 8009 bound_to 7997
  154.9984  140.0373  157.2339 H   0  0  0  0  0  0  0  0  0  0  0  0  # atno 8010 bound_to 7997
  140.7282  143.4170  151.1012 H   0  0  0  0  0  0  0  0  0  0  0  0  # atno 10167 bound_to 10162
  156.1896  130.4152  149.9391 H   0  0  0  0  0  0  0  0  0  0  0  0  # atno 10718 bound_to 10713
  154.0871  135.6583  153.4846 H   0  0  0  0  0  0  0  0  0  0  0  0  # atno 10763 bound_to 10752
  153.0335  135.5193  154.7417 H   0  0  0  0  0  0  0  0  0  0  0  0  # atno 10764 bound_to 10752
  154.6529  135.3004  154.9932 H   0  0  0  0  0  0  0  0  0  0  0  0  # atno 10765 bound_to 10752
  139.8897  134.9501  156.6385 H   0  0  0  0  0  0  0  0  0  0  0  0  # atno 11005 bound_to 11000
  144.7852  140.5922  143.6578 LP  0  0  0  0  0  0  0  0  0  0  0  0  # atno 17320 bound_to 7965
  145.4926  139.1488  143.3701 LP  0  0  0  0  0  0  0  0  0  0  0  0  # atno 17321 bound_to 7965
  139.7811  143.8354  152.3137 LP  0  0  0  0  0  0  0  0  0  0  0  0  # atno 17342 bound_to 10162
  139.8305  144.7255  150.9456 LP  0  0  0  0  0  0  0  0  0  0  0  0  # atno 17343 bound_to 10162
  156.7135  130.8979  151.3611 LP  0  0  0  0  0  0  0  0  0  0  0  0  # atno 17370 bound_to 10713
  157.6920  130.9243  150.0541 LP  0  0  0  0  0  0  0  0  0  0  0  0  # atno 17371 bound_to 10713
  140.7612  133.8816  155.8419 LP  0  0  0  0  0  0  0  0  0  0  0  0  # atno 17394 bound_to 11000
  140.9920  134.1265  157.4399 LP  0  0  0  0  0  0  0  0  0  0  0  0  # atno 17395 bound_to 11000

$$$$
