AV-unprocessed.smi:1641|AV-procd|sdf|6565|dock5
  -GOLD-   22720 7253D 1   1.00000     0.00000
 Structure written by MMmdl.
 40 41  0  0  0  0  0  0  0  0  2 V2000
  144.6275  134.2820  163.2767 C   0  0  0  0  0  0  0  0  0  0  0  0
  145.7087  134.8936  162.4535 C   0  0  0  0  0  0  0  0  0  0  0  0
  146.6771  134.1716  161.8847 N   0  0  0  0  0  0  0  0  0  0  0  0
  147.5660  134.9610  161.1693 N   0  0  0  0  0  0  0  0  0  0  0  0
  147.2643  136.2664  161.2141 C   0  0  0  0  0  0  0  0  0  0  0  0
  147.9984  137.1956  160.5798 N   0  5  0  0  0  0  0  0  0  0  0  0
  148.9490  136.8200  159.6939 C   0  0  0  0  0  0  0  0  0  0  0  0
  149.1321  135.6821  159.2554 O   0  0  0  0  0  0  0  0  0  0  0  0
  149.7377  137.8252  159.2913 N   0  0  0  0  0  0  0  0  0  0  0  0
  150.8366  137.7066  158.3427 C   0  0  0  0  0  0  0  0  0  0  0  0
  151.8566  138.8334  158.5715 C   0  0  0  0  0  0  0  0  0  0  0  0
  151.3204  140.1879  158.4458 N   0  0  0  0  0  0  0  0  0  0  0  0
  150.7327  140.4364  157.1309 C   0  0  0  0  0  0  0  0  0  0  0  0
  150.2022  141.8763  156.9755 C   0  0  1  0  0  0  0  0  0  0  0  0
  148.8901  142.1268  157.7380 C   0  0  0  0  0  0  0  0  0  0  0  0
  151.2117  142.8218  157.3338 O   0  0  0  0  0  0  0  0  0  0  0  0
  151.8070  142.6178  158.6140 C   0  0  2  0  0  0  0  0  0  0  0  0
  152.9079  143.6671  158.8018 C   0  0  0  0  0  0  0  0  0  0  0  0
  152.3552  141.1824  158.6974 C   0  0  0  0  0  0  0  0  0  0  0  0
  145.8123  136.6201  162.1511 S   0  0  0  0  0  0  0  0  0  0  0  0
  145.0542  133.8044  164.1588 H   0  0  0  0  0  0  0  0  0  0  0  0
  144.0918  133.5323  162.6939 H   0  0  0  0  0  0  0  0  0  0  0  0
  143.9186  135.0442  163.6006 H   0  0  0  0  0  0  0  0  0  0  0  0
  149.5564  138.7419  159.6729 H   0  0  0  0  0  0  0  0  0  0  0  0
  151.2950  136.7259  158.4703 H   0  0  0  0  0  0  0  0  0  0  0  0
  150.4509  137.7577  157.3229 H   0  0  0  0  0  0  0  0  0  0  0  0
  152.2611  138.7093  159.5772 H   0  0  0  0  0  0  0  0  0  0  0  0
  152.7008  138.7073  157.8920 H   0  0  0  0  0  0  0  0  0  0  0  0
  151.4832  140.2537  156.3602 H   0  0  0  0  0  0  0  0  0  0  0  0
  149.9183  139.7389  156.9372 H   0  0  0  0  0  0  0  0  0  0  0  0
  149.9905  142.0419  155.9188 H   0  0  0  0  0  0  0  0  0  0  0  0
  148.0984  141.4732  157.3709 H   0  0  0  0  0  0  0  0  0  0  0  0
  148.5556  143.1561  157.6087 H   0  0  0  0  0  0  0  0  0  0  0  0
  148.9947  141.9405  158.8066 H   0  0  0  0  0  0  0  0  0  0  0  0
  151.0561  142.7668  159.3906 H   0  0  0  0  0  0  0  0  0  0  0  0
  153.3860  143.5640  159.7761 H   0  0  0  0  0  0  0  0  0  0  0  0
  152.4994  144.6757  158.7373 H   0  0  0  0  0  0  0  0  0  0  0  0
  153.6799  143.5708  158.0378 H   0  0  0  0  0  0  0  0  0  0  0  0
  152.7869  141.0223  159.6862 H   0  0  0  0  0  0  0  0  0  0  0  0
  153.1678  141.0589  157.9795 H   0  0  0  0  0  0  0  0  0  0  0  0
  1  2  1  0  0  0  0
  1 21  1  0  0  0  0
  1 22  1  0  0  0  0
  1 23  1  0  0  0  0
  2 20  1  0  0  0  0
  2  3  2  0  0  0  0
  3  4  1  0  0  0  0
  4  5  2  0  0  0  0
  5  6  1  0  0  0  0
  5 20  1  0  0  0  0
  6  7  1  0  0  0  0
  7  8  2  0  0  0  0
  7  9  1  0  0  0  0
  9 10  1  0  0  0  0
  9 24  1  0  0  0  0
 10 11  1  0  0  0  0
 10 25  1  0  0  0  0
 10 26  1  0  0  0  0
 11 12  1  0  0  0  0
 11 27  1  0  0  0  0
 11 28  1  0  0  0  0
 12 19  1  0  0  0  0
 12 13  1  0  0  0  0
 13 14  1  0  0  0  0
 13 29  1  0  0  0  0
 13 30  1  0  0  0  0
 14 15  1  0  0  0  0
 14 16  1  0  0  0  0
 14 31  1  0  0  0  0
 15 32  1  0  0  0  0
 15 33  1  0  0  0  0
 15 34  1  0  0  0  0
 16 17  1  0  0  0  0
 17 18  1  0  0  0  0
 17 19  1  0  0  0  0
 17 35  1  0  0  0  0
 18 36  1  0  0  0  0
 18 37  1  0  0  0  0
 18 38  1  0  0  0  0
 19 39  1  0  0  0  0
 19 40  1  0  0  0  0
M  CHG  1   6  -1
M  END
> <s_m_source_file>
AV-unprocessed.smi

> <i_m_source_file_index>
1641

> <i_lp_mmshare_version>
43012

> <i_f3d_flags>
0

> <s_epik_input>
W0NIM11jMW5uYyhzMSlbTkhdQyg9TylbTkhdW0NIMl1bQ0gyXU4yW0NIMl1bQ0BASF0oW0NIM10pT1tDQEBIXShbQ0gzXSlbQ0gyXTI=

> <s_epik_cmdline>
J2VwaWtfcHl0aG9uJywgJy1waCcsICc3LjAnLCAnLXRuJywgJzgnLCAnLW1hJywgJzIwMCcsICctbWV0YWxfYmluZGluZycsICctaW1hZScsICc8aW5maWxlLm1hZT4nLCAnLW9tYWUnLCAnPG91dGZpbGUubWFlPic=

> <r_lp_tautomer_probability>
1

> <r_epik_Ionization_Penalty>
3.81681

> <r_epik_Ionization_Penalty_Charging>
3.36369

> <r_epik_Ionization_Penalty_Neutral>
0.45313

> <r_epik_State_Penalty>
3.571

> <r_epik_Charging_Adjusted_Penalty>
6.93469

> <i_epik_Tot_Q>
-1

> <i_epik_Tot_abs_Q>
1

> <r_epik_Metal_State_Penalty>
0.710322

> <b_epik_Metal_Only>
1

> <s_lp_Force_Field>
OPLS_2005

> <r_lp_Energy>
20.315

> <b_lp_Chiralities_Consistent>
1

> <s_lp_Variant>
AV-unprocessed.smi:1641-10

> <Gold.Version>
5.8.1

> <Gold.Id.Protein>
6NUR|6NUR_protein|mol2

> <Gold.PLP.Fitness>
43.0878

> <Gold.PLP.PLP>
-31.1054

> <Gold.PLP.part.hbond>
-3.0000

> <Gold.PLP.part.metal>
0.0000

> <Gold.PLP.part.buried>
-6.3865

> <Gold.PLP.part.nonpolar>
-23.6775

> <Gold.PLP.part.repulsive>
1.2969

> <Gold.PLP.ligand.clash>
0.0000

> <Gold.PLP.ligand.torsion>
0.2238

> <Gold.PLP.Chemscore.Hbond>
4.1360

> <Gold.PLP.Chemscore.CHOScore>
0.0000

> <Gold.PLP.Chemscore.Metal>
0.0000

> <Gold.Chemscore.Hbonds>
donor molecule, donor type, donor heavy atom, donor atom, acceptor molecule, acceptor atom, score
      P1  H  6896  6908       L1     8  1.00
      P1  H  6931  6943       L1     6  1.57
      P1  H  6934  6947       L1     6  1.54

> <Gold.PLP.Chemscore.Internal.Correction>
0.0220

> <Gold.Rescore>
     Score         DG    S(hbond)    S(metal)    S(lipo)     H(rot)  DE(clash)    DE(int)     intcor
     13.81     -16.02       1.60        0.00      78.68       1.57       0.35       1.86       ----

> <Gold.Chemscore.Fitness>
13.8108

> <Gold.Chemscore.DG>
-16.0196

> <Gold.Chemscore.ZeroCoef>
-5.4800

> <Gold.Chemscore.Hbond>
1.6019

> <Gold.Chemscore.Metal>
0.0000

> <Gold.Chemscore.Lipo>
78.6753

> <Gold.Chemscore.Internal_Hbond>
0.0000

> <Gold.Chemscore.DEClash>
0.3507

> <Gold.Chemscore.DEInternal>
1.8581

> <Gold.Chemscore.Rot>
1.5686

> <Gold.Chemscore.Internal.Correction>
   9.000000E+99

> <Gold.Chemscore.Hbonds>
donor molecule, donor type, donor heavy atom, donor atom, acceptor molecule, acceptor atom, score
      P1  H  6896  6908       L1     8  0.93
      P1  H  6931  6943       L1     6  0.20
      P1  H  6934  6947       L1     6  0.50

> <Gold.Chemscore.Hbond.Weighted>
-5.3503

> <Gold.Chemscore.Metal.Weighted>
-0.0000

> <Gold.Chemscore.Lipo.Weighted>
-9.2050

> <Gold.Chemscore.Internal_Hbond.Weighted>
0.0000

> <Gold.Chemscore.DEClash.Weighted>
0.3507

> <Gold.Chemscore.DEInternal.Weighted>
1.8581

> <Gold.Chemscore.Rot.Weighted>
4.0157

> <Gold.Chemscore.Internal.Correction.Weighted>
   9.000000E+99

> <Gold.Protein.RotatedTorsions>
[ 6907 6896 6895 6894 ] final  158.30 input  -60.11 | X-H torsion
[ 7974 7965 7964 7962 ] final  -64.84 input  175.53 | X-H torsion
[ 8008 7997 7996 7995 ] final   93.82 input   59.86 | X-H torsion
[ 10167 10162 10161 10158 ] final -118.05 input  -65.29 | X-H torsion
[ 10718 10713 10712 10709 ] final  176.66 input   66.30 | X-H torsion
[ 10763 10752 10751 10750 ] final  -16.34 input  -60.55 | X-H torsion
[ 11005 11000 10999 10996 ] final  119.13 input  -57.11 | X-H torsion

> <Gold.Protein.ActiveResidues>
 VAL166  LYS551  ARG553  GLY616  TRP617  ASP618  TYR619  PRO620  LYS621  CYS622 
 ASP623  PHE694  ASN695  SER759  ASP760  ASP761  ALA762  ILE779  LEU786  VAL792 
 PHE793  MET794  SER795  GLU796  ALA797  LYS798  CYS799  TRP800  GLU811  SER814 

> <Gold.Protein.RotatedAtoms>
  152.0024  133.3830  159.4186 H   0  0  0  0  0  0  0  0  0  0  0  0  # atno 6907 bound_to 6896
  150.6908  134.3819  159.5047 H   0  0  0  0  0  0  0  0  0  0  0  0  # atno 6908 bound_to 6896
  152.1568  134.8944  160.0595 H   0  0  0  0  0  0  0  0  0  0  0  0  # atno 6909 bound_to 6896
  145.7617  140.8858  143.0426 H   0  0  0  0  0  0  0  0  0  0  0  0  # atno 7974 bound_to 7965
  156.0510  140.3308  155.7351 H   0  0  0  0  0  0  0  0  0  0  0  0  # atno 8008 bound_to 7997
  155.5601  140.0618  157.2848 H   0  0  0  0  0  0  0  0  0  0  0  0  # atno 8009 bound_to 7997
  154.4436  140.1879  156.0762 H   0  0  0  0  0  0  0  0  0  0  0  0  # atno 8010 bound_to 7997
  140.0617  143.4961  152.2028 H   0  0  0  0  0  0  0  0  0  0  0  0  # atno 10167 bound_to 10162
  156.9168  130.9928  151.3011 H   0  0  0  0  0  0  0  0  0  0  0  0  # atno 10718 bound_to 10713
  153.5570  135.7010  153.5565 H   0  0  0  0  0  0  0  0  0  0  0  0  # atno 10763 bound_to 10752
  153.3463  135.4007  155.1611 H   0  0  0  0  0  0  0  0  0  0  0  0  # atno 10764 bound_to 10752
  154.8653  135.3754  154.5085 H   0  0  0  0  0  0  0  0  0  0  0  0  # atno 10765 bound_to 10752
  139.9135  134.9626  156.7608 H   0  0  0  0  0  0  0  0  0  0  0  0  # atno 11005 bound_to 11000
  144.6829  139.9732  143.7482 LP  0  0  0  0  0  0  0  0  0  0  0  0  # atno 17320 bound_to 7965
  146.0257  139.3290  143.0786 LP  0  0  0  0  0  0  0  0  0  0  0  0  # atno 17321 bound_to 7965
  139.5889  144.7542  151.3449 LP  0  0  0  0  0  0  0  0  0  0  0  0  # atno 17342 bound_to 10162
  140.7168  143.7243  150.7671 LP  0  0  0  0  0  0  0  0  0  0  0  0  # atno 17343 bound_to 10162
  157.5933  130.8459  149.8691 LP  0  0  0  0  0  0  0  0  0  0  0  0  # atno 17370 bound_to 10713
  156.0510  130.3718  150.1202 LP  0  0  0  0  0  0  0  0  0  0  0  0  # atno 17371 bound_to 10713
  140.6699  133.9569  155.7850 LP  0  0  0  0  0  0  0  0  0  0  0  0  # atno 17394 bound_to 11000
  141.0585  134.0381  157.3690 LP  0  0  0  0  0  0  0  0  0  0  0  0  # atno 17395 bound_to 11000

$$$$
