AV-unprocessed.smi:148|AV-procd|sdf|1229|dock4
  -GOLD-   2262018433D 1   1.00000     0.00000
 Structure written by MMmdl.
 63 67  0  0  0  0  0  0  0  0  1 V2000
  142.4546  142.6453  154.4069 O   0  0  0  0  0  0  0  0  0  0  0  0
  142.8654  143.2818  155.5991 C   0  0  0  0  0  0  0  0  0  0  0  0
  144.4092  143.3641  155.6914 C   0  0  1  0  0  0  0  0  0  0  0  0
  145.0620  141.9704  155.8860 C   0  0  0  0  0  0  0  0  0  0  0  0
  146.4191  142.0361  156.3995 N   0  0  0  0  0  0  0  0  0  0  0  0
  146.8106  142.5082  157.6323 C   0  0  0  0  0  0  0  0  0  0  0  0
  148.0960  142.4751  157.8587 N   0  0  0  0  0  0  0  0  0  0  0  0
  148.6284  141.9409  156.6925 C   0  0  0  0  0  0  0  0  0  0  0  0
  149.9451  141.6443  156.2542 C   0  0  0  0  0  0  0  0  0  0  0  0
  151.0299  141.8890  157.0249 N   0  0  0  0  0  0  0  0  0  0  0  0
  151.1298  143.3235  157.2996 C   0  0  0  0  0  0  0  0  0  0  0  0
  152.4433  143.6748  158.0101 C   0  0  0  0  0  0  0  0  0  0  0  0
  152.5956  142.8420  159.2866 C   0  0  0  0  0  0  0  0  0  0  0  0
  152.5168  141.3503  158.9413 C   0  0  0  0  0  0  0  0  0  0  0  0
  151.2029  141.0004  158.1909 C   0  0  2  0  0  0  0  0  0  0  0  0
  151.0767  139.4756  157.8446 C   0  0  2  0  0  0  0  0  0  0  0  0
  151.1738  138.5703  159.0947 C   0  0  0  0  0  0  0  0  0  0  0  0
  152.2610  137.5244  158.8139 C   0  0  0  0  0  0  0  0  0  0  0  0
  153.1122  138.1190  157.6954 C   0  0  0  0  0  0  0  0  0  0  0  0
  152.0931  138.8717  156.8431 C   0  0  2  0  0  0  0  0  0  0  0  0
  152.7056  139.7766  155.9475 O   0  0  0  0  0  0  0  0  0  0  0  0
  150.0986  141.1065  155.0148 N   0  0  0  0  0  0  0  0  0  0  0  0
  149.0271  140.8831  154.2480 C   0  0  0  0  0  0  0  0  0  0  0  0
  147.7417  141.1211  154.5194 N   0  0  0  0  0  0  0  0  0  0  0  0
  147.5887  141.6562  155.7649 C   0  0  0  0  0  0  0  0  0  0  0  0
  145.0076  144.1693  154.5027 C   0  0  1  0  0  0  0  0  0  0  0  0
  145.3707  143.3843  153.2546 C   0  0  0  0  0  0  0  0  0  0  0  0
  145.5735  144.5098  152.2469 C   0  0  0  0  0  0  0  0  0  0  0  0
  144.5989  145.4915  152.5842 O   0  0  0  0  0  0  0  0  0  0  0  0
  144.1405  145.2916  153.9199 C   0  0  0  0  0  0  0  0  0  0  0  0
  143.0305  142.9152  153.7079 H   0  0  0  0  0  0  0  0  0  0  0  0
  142.4132  144.2731  155.5976 H   0  0  0  0  0  0  0  0  0  0  0  0
  142.4521  142.7473  156.4548 H   0  0  0  0  0  0  0  0  0  0  0  0
  144.6363  143.9327  156.5946 H   0  0  0  0  0  0  0  0  0  0  0  0
  144.4729  141.3557  156.5656 H   0  0  0  0  0  0  0  0  0  0  0  0
  145.1074  141.4295  154.9416 H   0  0  0  0  0  0  0  0  0  0  0  0
  146.1069  142.8811  158.3623 H   0  0  0  0  0  0  0  0  0  0  0  0
  151.0623  143.8845  156.3662 H   0  0  0  0  0  0  0  0  0  0  0  0
  150.2866  143.6348  157.9185 H   0  0  0  0  0  0  0  0  0  0  0  0
  153.2857  143.4870  157.3431 H   0  0  0  0  0  0  0  0  0  0  0  0
  152.4656  144.7380  158.2503 H   0  0  0  0  0  0  0  0  0  0  0  0
  153.5458  143.0668  159.7720 H   0  0  0  0  0  0  0  0  0  0  0  0
  151.8098  143.1009  159.9972 H   0  0  0  0  0  0  0  0  0  0  0  0
  153.3847  141.0970  158.3342 H   0  0  0  0  0  0  0  0  0  0  0  0
  152.6116  140.7713  159.8585 H   0  0  0  0  0  0  0  0  0  0  0  0
  150.3826  141.2367  158.8706 H   0  0  0  0  0  0  0  0  0  0  0  0
  150.0843  139.2981  157.4307 H   0  0  0  0  0  0  0  0  0  0  0  0
  151.4265  139.1406  159.9876 H   0  0  0  0  0  0  0  0  0  0  0  0
  150.2201  138.0852  159.3056 H   0  0  0  0  0  0  0  0  0  0  0  0
  152.8474  137.2832  159.7009 H   0  0  0  0  0  0  0  0  0  0  0  0
  151.7969  136.6011  158.4644 H   0  0  0  0  0  0  0  0  0  0  0  0
  153.8469  138.8064  158.1158 H   0  0  0  0  0  0  0  0  0  0  0  0
  153.6522  137.3587  157.1303 H   0  0  0  0  0  0  0  0  0  0  0  0
  151.5649  138.1379  156.2322 H   0  0  0  0  0  0  0  0  0  0  0  0
  152.1394  140.5264  155.8417 H   0  0  0  0  0  0  0  0  0  0  0  0
  149.2285  140.4554  153.2768 H   0  0  0  0  0  0  0  0  0  0  0  0
  145.9353  144.6296  154.8463 H   0  0  0  0  0  0  0  0  0  0  0  0
  146.2571  142.7623  153.3805 H   0  0  0  0  0  0  0  0  0  0  0  0
  144.5507  142.7515  152.9180 H   0  0  0  0  0  0  0  0  0  0  0  0
  146.5660  144.9481  152.3598 H   0  0  0  0  0  0  0  0  0  0  0  0
  145.4649  144.1759  151.2149 H   0  0  0  0  0  0  0  0  0  0  0  0
  143.0880  145.0153  153.8749 H   0  0  0  0  0  0  0  0  0  0  0  0
  144.2195  146.2114  154.5001 H   0  0  0  0  0  0  0  0  0  0  0  0
  1  2  1  0  0  0  0
  1 31  1  0  0  0  0
  2  3  1  0  0  0  0
  2 32  1  0  0  0  0
  2 33  1  0  0  0  0
  3  4  1  0  0  0  0
  3 26  1  0  0  0  0
  3 34  1  0  0  0  0
  4  5  1  0  0  0  0
  4 35  1  0  0  0  0
  4 36  1  0  0  0  0
  5 25  1  0  0  0  0
  5  6  1  0  0  0  0
  6  7  2  0  0  0  0
  6 37  1  0  0  0  0
  7  8  1  0  0  0  0
  8 25  2  0  0  0  0
  8  9  1  0  0  0  0
  9 10  1  0  0  0  0
  9 22  2  0  0  0  0
 10 15  1  0  0  0  0
 10 11  1  0  0  0  0
 11 12  1  0  0  0  0
 11 38  1  0  0  0  0
 11 39  1  0  0  0  0
 12 13  1  0  0  0  0
 12 40  1  0  0  0  0
 12 41  1  0  0  0  0
 13 14  1  0  0  0  0
 13 42  1  0  0  0  0
 13 43  1  0  0  0  0
 14 15  1  0  0  0  0
 14 44  1  0  0  0  0
 14 45  1  0  0  0  0
 15 16  1  0  0  0  0
 15 46  1  0  0  0  0
 16 20  1  0  0  0  0
 16 17  1  0  0  0  0
 16 47  1  0  0  0  0
 17 18  1  0  0  0  0
 17 48  1  0  0  0  0
 17 49  1  0  0  0  0
 18 19  1  0  0  0  0
 18 50  1  0  0  0  0
 18 51  1  0  0  0  0
 19 20  1  0  0  0  0
 19 52  1  0  0  0  0
 19 53  1  0  0  0  0
 20 21  1  0  0  0  0
 20 54  1  0  0  0  0
 21 55  1  0  0  0  0
 22 23  1  0  0  0  0
 23 24  2  0  0  0  0
 23 56  1  0  0  0  0
 24 25  1  0  0  0  0
 26 30  1  0  0  0  0
 26 27  1  0  0  0  0
 26 57  1  0  0  0  0
 27 28  1  0  0  0  0
 27 58  1  0  0  0  0
 27 59  1  0  0  0  0
 28 29  1  0  0  0  0
 28 60  1  0  0  0  0
 28 61  1  0  0  0  0
 29 30  1  0  0  0  0
 30 62  1  0  0  0  0
 30 63  1  0  0  0  0
M  END
> <s_m_source_file>
AV-unprocessed.smi

> <i_m_source_file_index>
148

> <i_lp_mmshare_version>
43012

> <i_f3d_flags>
0

> <s_epik_input>
W0NIMl0xT1tDSDJdW0NIMl1bQ0BIXTFbQ0BIXShbQ0gyXVtPSF0pW0NIMl1uKFtjSF1uMiljKGMyMyluW2NIXW5jM040W0NIMl1bQ0gyXVtDSDJdW0NIMl1bQ0BIXTRbQ0BASF01W0NIMl1bQ0gyXVtDSDJdW0NASF01W09IXQ==

> <s_epik_cmdline>
J2VwaWtfcHl0aG9uJywgJy1waCcsICc3LjAnLCAnLXRuJywgJzgnLCAnLW1hJywgJzIwMCcsICctbWV0YWxfYmluZGluZycsICctaW1hZScsICc8aW5maWxlLm1hZT4nLCAnLW9tYWUnLCAnPG91dGZpbGUubWFlPic=

> <r_lp_tautomer_probability>
1

> <r_epik_Ionization_Penalty>
0.00556303

> <r_epik_Ionization_Penalty_Charging>
0

> <r_epik_Ionization_Penalty_Neutral>
0.00556303

> <r_epik_State_Penalty>
0.00401767

> <r_epik_Charging_Adjusted_Penalty>
0.00401767

> <i_epik_Tot_Q>
0

> <i_epik_Tot_abs_Q>
0

> <r_epik_Metal_State_Penalty>
-0

> <b_epik_Metal_Only>
0

> <s_lp_Force_Field>
OPLS_2005

> <r_lp_Energy>
73.9782

> <b_lp_Chiralities_Consistent>
1

> <s_lp_Variant>
AV-unprocessed.smi:148-28

> <Gold.Version>
5.8.1

> <Gold.Id.Protein>
6NUR|6NUR_protein|mol2

> <Gold.PLP.Fitness>
51.0085

> <Gold.PLP.PLP>
-44.0089

> <Gold.PLP.part.hbond>
-4.3136

> <Gold.PLP.part.metal>
0.0000

> <Gold.PLP.part.buried>
-3.1009

> <Gold.PLP.part.nonpolar>
-36.8825

> <Gold.PLP.part.repulsive>
0.5774

> <Gold.PLP.ligand.clash>
0.0000

> <Gold.PLP.ligand.torsion>
0.8732

> <Gold.PLP.Chemscore.Hbond>
1.7525

> <Gold.PLP.Chemscore.CHOScore>
1.0000

> <Gold.PLP.Chemscore.Metal>
0.0000

> <Gold.Chemscore.Hbonds>
donor molecule, donor type, donor heavy atom, donor atom, acceptor molecule, acceptor atom, score
      L1  H     1    31       P1 10174  0.38
      P1  H  7989  7998       L1    22  0.39
      P1  H  7997  8009       L1    21  1.00
      L1  C    23    56       P1  7957  1.00

> <Gold.PLP.Chemscore.Internal.Correction>
0.4885

> <Gold.Rescore>
     Score         DG    S(hbond)    S(metal)    S(lipo)     H(rot)  DE(clash)    DE(int)     intcor
      9.82     -13.79       1.54        0.00      99.62       3.32       1.57       2.40       ----

> <Gold.Chemscore.Fitness>
9.8210

> <Gold.Chemscore.DG>
-13.7929

> <Gold.Chemscore.ZeroCoef>
-5.4800

> <Gold.Chemscore.Hbond>
1.5440

> <Gold.Chemscore.Metal>
0.0000

> <Gold.Chemscore.Lipo>
99.6227

> <Gold.Chemscore.Internal_Hbond>
0.0000

> <Gold.Chemscore.DEClash>
1.5688

> <Gold.Chemscore.DEInternal>
2.4031

> <Gold.Chemscore.Rot>
3.3203

> <Gold.Chemscore.Internal.Correction>
   9.000000E+99

> <Gold.Chemscore.Hbonds>
donor molecule, donor type, donor heavy atom, donor atom, acceptor molecule, acceptor atom, score
      L1  H     1    31       P1 10174  0.30
      P1  H  7989  7998       L1    22  0.08
      P1  H  7997  8009       L1    21  0.81

> <Gold.Chemscore.Hbond.Weighted>
-5.1571

> <Gold.Chemscore.Metal.Weighted>
-0.0000

> <Gold.Chemscore.Lipo.Weighted>
-11.6559

> <Gold.Chemscore.Internal_Hbond.Weighted>
0.0000

> <Gold.Chemscore.DEClash.Weighted>
1.5688

> <Gold.Chemscore.DEInternal.Weighted>
2.4031

> <Gold.Chemscore.Rot.Weighted>
8.5000

> <Gold.Chemscore.Internal.Correction.Weighted>
   9.000000E+99

> <Gold.Protein.RotatedTorsions>
[ 6907 6896 6895 6894 ] final  -84.90 input  -60.11 | X-H torsion
[ 7974 7965 7964 7962 ] final   64.44 input  175.53 | X-H torsion
[ 8008 7997 7996 7995 ] final -137.43 input   59.86 | X-H torsion
[ 10167 10162 10161 10158 ] final  -48.34 input  -65.29 | X-H torsion
[ 10718 10713 10712 10709 ] final  143.29 input   66.30 | X-H torsion
[ 10763 10752 10751 10750 ] final  163.16 input  -60.55 | X-H torsion
[ 11005 11000 10999 10996 ] final   32.39 input  -57.11 | X-H torsion

> <Gold.Protein.ActiveResidues>
 VAL166  LYS551  ARG553  GLY616  TRP617  ASP618  TYR619  PRO620  LYS621  CYS622 
 ASP623  PHE694  ASN695  SER759  ASP760  ASP761  ALA762  ILE779  LEU786  VAL792 
 PHE793  MET794  SER795  GLU796  ALA797  LYS798  CYS799  TRP800  GLU811  SER814 

> <Gold.Protein.RotatedAtoms>
  150.6873  134.3287  159.4817 H   0  0  0  0  0  0  0  0  0  0  0  0  # atno 6907 bound_to 6896
  152.1154  134.9241  160.0574 H   0  0  0  0  0  0  0  0  0  0  0  0  # atno 6908 bound_to 6896
  152.0468  133.3966  159.4397 H   0  0  0  0  0  0  0  0  0  0  0  0  # atno 6909 bound_to 6896
  145.8502  139.3249  143.0880 H   0  0  0  0  0  0  0  0  0  0  0  0  # atno 7974 bound_to 7965
  155.4117  140.0512  157.3031 H   0  0  0  0  0  0  0  0  0  0  0  0  # atno 8008 bound_to 7997
  154.4943  140.2132  155.9440 H   0  0  0  0  0  0  0  0  0  0  0  0  # atno 8009 bound_to 7997
  156.1384  140.3159  155.8462 H   0  0  0  0  0  0  0  0  0  0  0  0  # atno 8010 bound_to 7997
  140.6735  143.2744  151.4057 H   0  0  0  0  0  0  0  0  0  0  0  0  # atno 10167 bound_to 10162
  157.3707  131.0978  151.0831 H   0  0  0  0  0  0  0  0  0  0  0  0  # atno 10718 bound_to 10713
  154.2894  135.2761  155.2661 H   0  0  0  0  0  0  0  0  0  0  0  0  # atno 10763 bound_to 10752
  154.5147  135.5773  153.6636 H   0  0  0  0  0  0  0  0  0  0  0  0  # atno 10764 bound_to 10752
  152.9916  135.6189  154.3058 H   0  0  0  0  0  0  0  0  0  0  0  0  # atno 10765 bound_to 10752
  140.2740  134.3050  155.7819 H   0  0  0  0  0  0  0  0  0  0  0  0  # atno 11005 bound_to 11000
  145.9366  140.9010  143.0329 LP  0  0  0  0  0  0  0  0  0  0  0  0  # atno 17320 bound_to 7965
  144.6729  140.1491  143.7431 LP  0  0  0  0  0  0  0  0  0  0  0  0  # atno 17321 bound_to 7965
  139.6015  144.1285  152.2203 LP  0  0  0  0  0  0  0  0  0  0  0  0  # atno 17342 bound_to 10162
  140.0671  144.5810  150.7219 LP  0  0  0  0  0  0  0  0  0  0  0  0  # atno 17343 bound_to 10162
  157.1936  130.6363  149.5713 LP  0  0  0  0  0  0  0  0  0  0  0  0  # atno 17370 bound_to 10713
  155.9755  130.4714  150.6463 LP  0  0  0  0  0  0  0  0  0  0  0  0  # atno 17371 bound_to 10713
  141.2173  133.7484  156.9378 LP  0  0  0  0  0  0  0  0  0  0  0  0  # atno 17394 bound_to 11000
  140.1346  134.9333  157.2384 LP  0  0  0  0  0  0  0  0  0  0  0  0  # atno 17395 bound_to 11000

$$$$
