AV-unprocessed.smi:391|AV-procd|sdf|2479|dock4
  -GOLD-   2262022423D 1   1.00000     0.00000
 Structure written by MMmdl.
 36 37  0  0  0  0  0  0  0  0  1 V2000
  145.9870  143.2084  153.5929 C   0  0  0  0  0  0  0  0  0  0  0  0
  146.5248  142.1385  154.5523 C   0  0  0  0  0  0  0  0  0  0  0  0
  145.7003  142.0725  155.8477 C   0  0  0  0  0  0  0  0  0  0  0  0
  147.9258  142.4173  154.8532 N   0  0  0  0  0  0  0  0  0  0  0  0
  148.9199  141.5162  154.8424 C   0  0  0  0  0  0  0  0  0  0  0  0
  148.7528  140.3292  154.5580 O   0  0  0  0  0  0  0  0  0  0  0  0
  150.3116  142.0550  155.2070 C   0  0  0  0  0  0  0  0  0  0  0  0
  151.0328  141.2151  156.1884 N   0  0  0  0  0  0  0  0  0  0  0  0
  151.3682  139.8832  155.8348 C   0  0  0  0  0  0  0  0  0  0  0  0
  151.0848  139.4294  154.7250 O   0  0  0  0  0  0  0  0  0  0  0  0
  152.0462  139.1090  156.8723 C   0  0  0  0  0  0  0  0  0  0  0  0
  152.3753  137.7567  156.5651 C   0  0  0  0  0  0  0  0  0  0  0  0
  152.6214  136.6511  156.3266 N   0  0  0  0  0  0  0  0  0  0  0  0
  152.3402  139.6579  158.0689 C   0  0  0  0  0  0  0  0  0  0  0  0
  152.0376  140.9657  158.3792 N   0  0  0  0  0  0  0  0  0  0  0  0
  152.2152  141.4790  159.7081 C   0  0  0  0  0  0  0  0  0  0  0  0
  152.9204  142.8026  159.9325 C   0  0  0  0  0  0  0  0  0  0  0  0
  153.6065  141.5100  160.3015 C   0  0  0  0  0  0  0  0  0  0  0  0
  151.3251  141.7662  157.4597 C   0  0  0  0  0  0  0  0  0  0  0  0
  150.9581  142.9065  157.7553 O   0  0  0  0  0  0  0  0  0  0  0  0
  144.9485  143.0096  153.3271 H   0  0  0  0  0  0  0  0  0  0  0  0
  146.5643  143.2316  152.6680 H   0  0  0  0  0  0  0  0  0  0  0  0
  146.0313  144.2024  154.0394 H   0  0  0  0  0  0  0  0  0  0  0  0
  146.4550  141.1741  154.0460 H   0  0  0  0  0  0  0  0  0  0  0  0
  144.6525  141.8598  155.6344 H   0  0  0  0  0  0  0  0  0  0  0  0
  145.7433  143.0155  156.3940 H   0  0  0  0  0  0  0  0  0  0  0  0
  146.0649  141.2871  156.5105 H   0  0  0  0  0  0  0  0  0  0  0  0
  148.1568  143.3701  155.0950 H   0  0  0  0  0  0  0  0  0  0  0  0
  150.8826  142.1721  154.2847 H   0  0  0  0  0  0  0  0  0  0  0  0
  150.2083  143.0741  155.5844 H   0  0  0  0  0  0  0  0  0  0  0  0
  152.8368  139.0528  158.8139 H   0  0  0  0  0  0  0  0  0  0  0  0
  151.4102  141.2491  160.4039 H   0  0  0  0  0  0  0  0  0  0  0  0
  153.3031  143.3373  159.0651 H   0  0  0  0  0  0  0  0  0  0  0  0
  152.5582  143.4307  160.7435 H   0  0  0  0  0  0  0  0  0  0  0  0
  153.7048  141.2772  161.3597 H   0  0  0  0  0  0  0  0  0  0  0  0
  154.4387  141.1928  159.6758 H   0  0  0  0  0  0  0  0  0  0  0  0
  1  2  1  0  0  0  0
  1 21  1  0  0  0  0
  1 22  1  0  0  0  0
  1 23  1  0  0  0  0
  2  3  1  0  0  0  0
  2  4  1  0  0  0  0
  2 24  1  0  0  0  0
  3 25  1  0  0  0  0
  3 26  1  0  0  0  0
  3 27  1  0  0  0  0
  4  5  1  0  0  0  0
  4 28  1  0  0  0  0
  5  6  2  0  0  0  0
  5  7  1  0  0  0  0
  7  8  1  0  0  0  0
  7 29  1  0  0  0  0
  7 30  1  0  0  0  0
  8 19  1  0  0  0  0
  8  9  1  0  0  0  0
  9 10  2  0  0  0  0
  9 11  1  0  0  0  0
 11 12  1  0  0  0  0
 11 14  2  0  0  0  0
 12 13  3  0  0  0  0
 14 15  1  0  0  0  0
 14 31  1  0  0  0  0
 15 16  1  0  0  0  0
 15 19  1  0  0  0  0
 16 18  1  0  0  0  0
 16 17  1  0  0  0  0
 16 32  1  0  0  0  0
 17 18  1  0  0  0  0
 17 33  1  0  0  0  0
 17 34  1  0  0  0  0
 18 35  1  0  0  0  0
 18 36  1  0  0  0  0
 19 20  2  0  0  0  0
M  END
> <s_m_source_file>
AV-unprocessed.smi

> <i_m_source_file_index>
391

> <i_lp_mmshare_version>
43012

> <i_f3d_flags>
0

> <s_epik_input>
W0NIM11bQ0hdKFtDSDNdKVtOSF1DKD1PKVtDSDJdbjFjKD1PKWMoQyNOKVtjSF1uKGMxPU8pW0NIXTJbQ0gyXVtDSDJdMg==

> <s_epik_cmdline>
J2VwaWtfcHl0aG9uJywgJy1waCcsICc3LjAnLCAnLXRuJywgJzgnLCAnLW1hJywgJzIwMCcsICctbWV0YWxfYmluZGluZycsICctaW1hZScsICc8aW5maWxlLm1hZT4nLCAnLW9tYWUnLCAnPG91dGZpbGUubWFlPic=

> <r_lp_tautomer_probability>
1

> <r_epik_Ionization_Penalty>
2.07526e-08

> <r_epik_Ionization_Penalty_Charging>
8.22213e-11

> <r_epik_Ionization_Penalty_Neutral>
2.06703e-08

> <r_epik_State_Penalty>
-0

> <r_epik_Charging_Adjusted_Penalty>
8.22213e-11

> <i_epik_Tot_Q>
0

> <i_epik_Tot_abs_Q>
0

> <r_epik_Metal_State_Penalty>
-0

> <b_epik_Metal_Only>
0

> <s_lp_Force_Field>
OPLS_2005

> <r_lp_Energy>
27.641

> <b_lp_Chiralities_Consistent>
1

> <s_lp_Variant>
AV-unprocessed.smi:391-1

> <Gold.Version>
5.8.1

> <Gold.Id.Protein>
6NUR|6NUR_protein|mol2

> <Gold.PLP.Fitness>
45.2887

> <Gold.PLP.PLP>
-37.0075

> <Gold.PLP.part.hbond>
-3.0000

> <Gold.PLP.part.metal>
0.0000

> <Gold.PLP.part.buried>
-4.4979

> <Gold.PLP.part.nonpolar>
-30.5270

> <Gold.PLP.part.repulsive>
0.4256

> <Gold.PLP.ligand.clash>
0.0000

> <Gold.PLP.ligand.torsion>
0.4621

> <Gold.PLP.Chemscore.Hbond>
2.9920

> <Gold.PLP.Chemscore.CHOScore>
0.0000

> <Gold.PLP.Chemscore.Metal>
0.0000

> <Gold.Chemscore.Hbonds>
donor molecule, donor type, donor heavy atom, donor atom, acceptor molecule, acceptor atom, score
      L1  H     4    28       P1  8028  1.00
      P1  H  7989  7998       L1    10  1.00
      P1  H 10752 10765       L1    13  1.00

> <Gold.PLP.Chemscore.Internal.Correction>
0.2293

> <Gold.Rescore>
     Score         DG    S(hbond)    S(metal)    S(lipo)     H(rot)  DE(clash)    DE(int)     intcor
     10.71     -16.87       2.58        0.00      63.63       1.82       1.74       4.42       ----

> <Gold.Chemscore.Fitness>
10.7103

> <Gold.Chemscore.DG>
-16.8722

> <Gold.Chemscore.ZeroCoef>
-5.4800

> <Gold.Chemscore.Hbond>
2.5794

> <Gold.Chemscore.Metal>
0.0000

> <Gold.Chemscore.Lipo>
63.6316

> <Gold.Chemscore.Internal_Hbond>
0.0000

> <Gold.Chemscore.DEClash>
1.7415

> <Gold.Chemscore.DEInternal>
4.4203

> <Gold.Chemscore.Rot>
1.8234

> <Gold.Chemscore.Internal.Correction>
   9.000000E+99

> <Gold.Chemscore.Hbonds>
donor molecule, donor type, donor heavy atom, donor atom, acceptor molecule, acceptor atom, score
      L1  H     4    28       P1  8028  0.89
      P1  H  7989  7998       L1    10  0.39
      P1  H 10752 10765       L1    13  0.96

> <Gold.Chemscore.Hbond.Weighted>
-8.6152

> <Gold.Chemscore.Metal.Weighted>
-0.0000

> <Gold.Chemscore.Lipo.Weighted>
-7.4449

> <Gold.Chemscore.Internal_Hbond.Weighted>
0.0000

> <Gold.Chemscore.DEClash.Weighted>
1.7415

> <Gold.Chemscore.DEInternal.Weighted>
4.4203

> <Gold.Chemscore.Rot.Weighted>
4.6680

> <Gold.Chemscore.Internal.Correction.Weighted>
   9.000000E+99

> <Gold.Protein.RotatedTorsions>
[ 6907 6896 6895 6894 ] final -111.12 input  -60.11 | X-H torsion
[ 7974 7965 7964 7962 ] final   25.13 input  175.53 | X-H torsion
[ 8008 7997 7996 7995 ] final -156.79 input   59.86 | X-H torsion
[ 10167 10162 10161 10158 ] final -136.44 input  -65.29 | X-H torsion
[ 10718 10713 10712 10709 ] final  -30.63 input   66.30 | X-H torsion
[ 10763 10752 10751 10750 ] final -141.23 input  -60.55 | X-H torsion
[ 11005 11000 10999 10996 ] final   16.29 input  -57.11 | X-H torsion

> <Gold.Protein.ActiveResidues>
 VAL166  LYS551  ARG553  GLY616  TRP617  ASP618  TYR619  PRO620  LYS621  CYS622 
 ASP623  PHE694  ASN695  SER759  ASP760  ASP761  ALA762  ILE779  LEU786  VAL792 
 PHE793  MET794  SER795  GLU796  ALA797  LYS798  CYS799  TRP800  GLU811  SER814 

> <Gold.Protein.RotatedAtoms>
  150.7669  133.9282  159.3418 H   0  0  0  0  0  0  0  0  0  0  0  0  # atno 6907 bound_to 6896
  151.7177  135.0898  160.0288 H   0  0  0  0  0  0  0  0  0  0  0  0  # atno 6908 bound_to 6896
  152.3669  133.6331  159.6093 H   0  0  0  0  0  0  0  0  0  0  0  0  # atno 6909 bound_to 6896
  146.1904  139.7509  142.8836 H   0  0  0  0  0  0  0  0  0  0  0  0  # atno 7974 bound_to 7965
  155.7225  140.0792  157.2324 H   0  0  0  0  0  0  0  0  0  0  0  0  # atno 8008 bound_to 7997
  154.4043  140.1610  156.2473 H   0  0  0  0  0  0  0  0  0  0  0  0  # atno 8009 bound_to 7997
  155.9183  140.3399  155.6155 H   0  0  0  0  0  0  0  0  0  0  0  0  # atno 8010 bound_to 7997
  139.8678  143.6995  152.2643 H   0  0  0  0  0  0  0  0  0  0  0  0  # atno 10167 bound_to 10162
  156.3974  130.4384  149.7348 H   0  0  0  0  0  0  0  0  0  0  0  0  # atno 10718 bound_to 10713
  154.8552  135.3530  154.5835 H   0  0  0  0  0  0  0  0  0  0  0  0  # atno 10763 bound_to 10752
  153.6445  135.6997  153.5235 H   0  0  0  0  0  0  0  0  0  0  0  0  # atno 10764 bound_to 10752
  153.2944  135.4225  155.1154 H   0  0  0  0  0  0  0  0  0  0  0  0  # atno 10765 bound_to 10752
  140.4488  134.1246  155.7699 H   0  0  0  0  0  0  0  0  0  0  0  0  # atno 11005 bound_to 11000
  145.3811  141.0358  143.3177 LP  0  0  0  0  0  0  0  0  0  0  0  0  # atno 17320 bound_to 7965
  144.8475  139.5373  143.6871 LP  0  0  0  0  0  0  0  0  0  0  0  0  # atno 17321 bound_to 7965
  139.7312  144.7582  151.0798 LP  0  0  0  0  0  0  0  0  0  0  0  0  # atno 17342 bound_to 10162
  140.7765  143.5085  150.9682 LP  0  0  0  0  0  0  0  0  0  0  0  0  # atno 17343 bound_to 10162
  156.4378  130.7846  151.2867 LP  0  0  0  0  0  0  0  0  0  0  0  0  # atno 17370 bound_to 10713
  157.7502  131.0134  150.3423 LP  0  0  0  0  0  0  0  0  0  0  0  0  # atno 17371 bound_to 10713
  141.1673  133.8677  157.1676 LP  0  0  0  0  0  0  0  0  0  0  0  0  # atno 17394 bound_to 11000
  140.0021  135.0024  157.0212 LP  0  0  0  0  0  0  0  0  0  0  0  0  # atno 17395 bound_to 11000

$$$$
