AV-unprocessed.smi:290|AV-procd|sdf|2232|dock1
  -GOLD-   2262022 93D 1   1.00000     0.00000
 Structure written by MMmdl.
 59 62  0  0  0  0  0  0  0  0  2 V2000
  150.3481  138.4045  156.3397 C   0  0  0  0  0  0  0  0  0  0  0  0
  149.3007  139.5182  156.1664 C   0  0  1  0  0  0  0  0  0  0  0  0
  149.3546  140.3151  157.3514 O   0  0  0  0  0  0  0  0  0  0  0  0
  149.5555  141.6838  157.0265 C   0  0  0  0  0  0  0  0  0  0  0  0
  150.2548  141.6439  155.6764 C   0  0  0  0  0  0  0  0  0  0  0  0
  149.5436  140.4880  154.9828 C   0  0  1  0  0  0  0  0  0  0  0  0
  150.4026  139.9471  153.9937 O   0  0  0  0  0  0  0  0  0  0  0  0
  148.2057  140.8829  154.3021 C   0  0  0  0  0  0  0  0  0  0  0  0
  147.3485  139.7550  153.9701 N   0  0  0  0  0  0  0  0  0  0  0  0
  147.1719  139.1870  152.7281 C   0  0  0  0  0  0  0  0  0  0  0  0
  146.3479  138.1750  152.6899 N   0  0  0  0  0  0  0  0  0  0  0  0
  145.9314  138.0301  154.0079 C   0  0  0  0  0  0  0  0  0  0  0  0
  145.0474  137.1393  154.6798 C   0  0  0  0  0  0  0  0  0  0  0  0
  144.3619  136.1400  154.0827 N   0  0  0  0  0  0  0  0  0  0  0  0
  143.3978  136.5683  153.0799 C   0  0  0  0  0  0  0  0  0  0  0  0
  143.7095  135.7698  151.8195 C   0  0  0  0  0  0  0  0  0  0  0  0
  144.4096  134.5030  152.3310 C   0  0  1  0  0  0  0  0  0  0  0  0
  145.2361  133.8816  151.2509 N   0  3  1  0  0  0  0  0  0  0  0  0
  146.0466  132.7124  151.6685 C   0  0  0  0  0  0  0  0  0  0  0  0
  144.4470  133.5836  150.0245 C   0  0  0  0  0  0  0  0  0  0  0  0
  143.6233  132.2937  150.1715 C   0  0  0  0  0  0  0  0  0  0  0  0
  142.8534  132.0752  149.0081 O   0  0  0  0  0  0  0  0  0  0  0  0
  145.1858  135.0542  153.5528 C   0  0  2  0  0  0  0  0  0  0  0  0
  145.4561  134.0310  154.6753 C   0  0  0  0  0  0  0  0  0  0  0  0
  144.8804  137.2931  156.0156 N   0  0  0  0  0  0  0  0  0  0  0  0
  145.5378  138.2606  156.6627 C   0  0  0  0  0  0  0  0  0  0  0  0
  146.3907  139.1631  156.1724 N   0  0  0  0  0  0  0  0  0  0  0  0
  146.5576  139.0100  154.8273 C   0  0  0  0  0  0  0  0  0  0  0  0
  143.6605  133.7890  152.6792 H   0  0  0  0  0  0  0  0  0  0  0  0
  146.1360  135.4669  153.2106 H   0  0  0  0  0  0  0  0  0  0  0  0
  150.3438  137.7192  155.4919 H   0  0  0  0  0  0  0  0  0  0  0  0
  150.1429  137.8165  157.2345 H   0  0  0  0  0  0  0  0  0  0  0  0
  151.3536  138.8153  156.4373 H   0  0  0  0  0  0  0  0  0  0  0  0
  148.3138  139.0591  156.0928 H   0  0  0  0  0  0  0  0  0  0  0  0
  148.5892  142.1839  156.9504 H   0  0  0  0  0  0  0  0  0  0  0  0
  150.1432  142.1938  157.7899 H   0  0  0  0  0  0  0  0  0  0  0  0
  150.2146  142.5922  155.1424 H   0  0  0  0  0  0  0  0  0  0  0  0
  151.3079  141.4035  155.8318 H   0  0  0  0  0  0  0  0  0  0  0  0
  149.8986  139.7992  153.2084 H   0  0  0  0  0  0  0  0  0  0  0  0
  147.6425  141.5555  154.9505 H   0  0  0  0  0  0  0  0  0  0  0  0
  148.3955  141.4443  153.3866 H   0  0  0  0  0  0  0  0  0  0  0  0
  147.6760  139.5519  151.8446 H   0  0  0  0  0  0  0  0  0  0  0  0
  142.4012  136.3196  153.4458 H   0  0  0  0  0  0  0  0  0  0  0  0
  143.4163  137.6425  152.8885 H   0  0  0  0  0  0  0  0  0  0  0  0
  142.8115  135.5695  151.2354 H   0  0  0  0  0  0  0  0  0  0  0  0
  144.3922  136.3458  151.1926 H   0  0  0  0  0  0  0  0  0  0  0  0
  145.4142  131.9239  152.0777 H   0  0  0  0  0  0  0  0  0  0  0  0
  146.7936  132.9935  152.4101 H   0  0  0  0  0  0  0  0  0  0  0  0
  146.5950  132.2916  150.8263 H   0  0  0  0  0  0  0  0  0  0  0  0
  143.7894  134.4261  149.8046 H   0  0  0  0  0  0  0  0  0  0  0  0
  145.0882  133.4836  149.1490 H   0  0  0  0  0  0  0  0  0  0  0  0
  144.2550  131.4259  150.3593 H   0  0  0  0  0  0  0  0  0  0  0  0
  142.9429  132.3800  151.0191 H   0  0  0  0  0  0  0  0  0  0  0  0
  142.1967  132.7527  148.9465 H   0  0  0  0  0  0  0  0  0  0  0  0
  146.0875  133.2046  154.3595 H   0  0  0  0  0  0  0  0  0  0  0  0
  144.5249  133.6060  155.0511 H   0  0  0  0  0  0  0  0  0  0  0  0
  145.9614  134.5034  155.5182 H   0  0  0  0  0  0  0  0  0  0  0  0
  145.3547  138.3199  157.7256 H   0  0  0  0  0  0  0  0  0  0  0  0
  145.8999  134.5949  150.9832 H   0  0  0  0  0  0  0  0  0  0  0  0
  1  2  1  0  0  0  0
  1 31  1  0  0  0  0
  1 32  1  0  0  0  0
  1 33  1  0  0  0  0
  2  6  1  0  0  0  0
  2  3  1  0  0  0  0
  2 34  1  0  0  0  0
  3  4  1  0  0  0  0
  4  5  1  0  0  0  0
  4 35  1  0  0  0  0
  4 36  1  0  0  0  0
  5  6  1  0  0  0  0
  5 37  1  0  0  0  0
  5 38  1  0  0  0  0
  6  7  1  0  0  0  0
  6  8  1  0  0  0  0
  7 39  1  0  0  0  0
  8  9  1  0  0  0  0
  8 40  1  0  0  0  0
  8 41  1  0  0  0  0
  9 28  1  0  0  0  0
  9 10  1  0  0  0  0
 10 11  2  0  0  0  0
 10 42  1  0  0  0  0
 11 12  1  0  0  0  0
 12 28  2  0  0  0  0
 12 13  1  0  0  0  0
 13 14  1  0  0  0  0
 13 25  2  0  0  0  0
 14 23  1  0  0  0  0
 14 15  1  0  0  0  0
 15 16  1  0  0  0  0
 15 43  1  0  0  0  0
 15 44  1  0  0  0  0
 16 17  1  0  0  0  0
 16 45  1  0  0  0  0
 16 46  1  0  0  0  0
 17 29  1  0  0  0  0
 17 18  1  0  0  0  0
 17 23  1  0  0  0  0
 18 19  1  0  0  0  0
 18 20  1  0  0  0  0
 18 59  1  0  0  0  0
 19 47  1  0  0  0  0
 19 48  1  0  0  0  0
 19 49  1  0  0  0  0
 20 21  1  0  0  0  0
 20 50  1  0  0  0  0
 20 51  1  0  0  0  0
 21 22  1  0  0  0  0
 21 52  1  0  0  0  0
 21 53  1  0  0  0  0
 22 54  1  0  0  0  0
 23 30  1  0  0  0  0
 23 24  1  0  0  0  0
 24 55  1  0  0  0  0
 24 56  1  0  0  0  0
 24 57  1  0  0  0  0
 25 26  1  0  0  0  0
 26 27  2  0  0  0  0
 26 58  1  0  0  0  0
 27 28  1  0  0  0  0
M  CHG  1  18   1
M  END
> <s_m_source_file>
AV-unprocessed.smi

> <i_m_source_file_index>
290

> <i_lp_mmshare_version>
43012

> <i_f3d_flags>
0

> <s_epik_input>
W0NIMl0xW0NIMl1PW0NAQEhdKFtDSDNdKVtDQEBdMShbT0hdKVtDSDJdbihbY0hdbjIpYyhjMjMpbltjSF1uYzNONFtDSDJdW0NIMl1bQ0BIXShbQ0BIXTRbQ0gzXSlOKFtDSDNdKVtDSDJdW0NIMl1bT0hd

> <s_epik_cmdline>
J2VwaWtfcHl0aG9uJywgJy1waCcsICc3LjAnLCAnLXRuJywgJzgnLCAnLW1hJywgJzIwMCcsICctbWV0YWxfYmluZGluZycsICctaW1hZScsICc8aW5maWxlLm1hZT4nLCAnLW9tYWUnLCAnPG91dGZpbGUubWFlPic=

> <r_lp_tautomer_probability>
1

> <r_epik_Ionization_Penalty>
0.0036983

> <r_epik_Ionization_Penalty_Charging>
0.0032725

> <r_epik_Ionization_Penalty_Neutral>
0.000425798

> <r_epik_State_Penalty>
-0

> <r_epik_Charging_Adjusted_Penalty>
0.0032725

> <i_epik_Tot_Q>
1

> <i_epik_Tot_abs_Q>
1

> <r_epik_Metal_State_Penalty>
-0

> <b_epik_Metal_Only>
0

> <s_lp_Force_Field>
OPLS_2005

> <r_lp_Energy>
64.3392

> <b_lp_Chiralities_Consistent>
1

> <s_lp_Variant>
AV-unprocessed.smi:290-18

> <Gold.Version>
5.8.1

> <Gold.Id.Protein>
6NUR|6NUR_protein|mol2

> <Gold.PLP.Fitness>
48.2575

> <Gold.PLP.PLP>
-34.0911

> <Gold.PLP.part.hbond>
-4.7839

> <Gold.PLP.part.metal>
0.0000

> <Gold.PLP.part.buried>
-4.7603

> <Gold.PLP.part.nonpolar>
-24.0384

> <Gold.PLP.part.repulsive>
0.3360

> <Gold.PLP.ligand.clash>
0.0000

> <Gold.PLP.ligand.torsion>
0.5644

> <Gold.PLP.Chemscore.Hbond>
3.9753

> <Gold.PLP.Chemscore.CHOScore>
1.0000

> <Gold.PLP.Chemscore.Metal>
0.0000

> <Gold.Chemscore.Hbonds>
donor molecule, donor type, donor heavy atom, donor atom, acceptor molecule, acceptor atom, score
      L1  H     7    39       P1  7957  0.88
      L1  H    22    54       P1 10186  0.78
      P1  H  7989  7998       L1     7  1.00
      P1  H 10785 10796       L1    22  1.00
      L1  C    10    42       P1  7957  1.00

> <Gold.PLP.Chemscore.Internal.Correction>
0.3694

> <Gold.Rescore>
     Score         DG    S(hbond)    S(metal)    S(lipo)     H(rot)  DE(clash)    DE(int)     intcor
     13.97     -15.31       3.20        0.00      72.78       3.67       0.02       1.31       ----

> <Gold.Chemscore.Fitness>
13.9732

> <Gold.Chemscore.DG>
-15.3091

> <Gold.Chemscore.ZeroCoef>
-5.4800

> <Gold.Chemscore.Hbond>
3.2030

> <Gold.Chemscore.Metal>
0.0000

> <Gold.Chemscore.Lipo>
72.7818

> <Gold.Chemscore.Internal_Hbond>
0.0000

> <Gold.Chemscore.DEClash>
0.0236

> <Gold.Chemscore.DEInternal>
1.3124

> <Gold.Chemscore.Rot>
3.6658

> <Gold.Chemscore.Internal.Correction>
   9.000000E+99

> <Gold.Chemscore.Hbonds>
donor molecule, donor type, donor heavy atom, donor atom, acceptor molecule, acceptor atom, score
      L1  H     7    39       P1  7957  0.81
      L1  H    22    54       P1 10186  0.76
      P1  H  7989  7998       L1     7  0.36
      P1  H 10785 10796       L1    22  0.25

> <Gold.Chemscore.Hbond.Weighted>
-10.6981

> <Gold.Chemscore.Metal.Weighted>
-0.0000

> <Gold.Chemscore.Lipo.Weighted>
-8.5155

> <Gold.Chemscore.Internal_Hbond.Weighted>
0.0000

> <Gold.Chemscore.DEClash.Weighted>
0.0236

> <Gold.Chemscore.DEInternal.Weighted>
1.3124

> <Gold.Chemscore.Rot.Weighted>
9.3844

> <Gold.Chemscore.Internal.Correction.Weighted>
   9.000000E+99

> <Gold.Protein.RotatedTorsions>
[ 6907 6896 6895 6894 ] final  -51.24 input  -60.11 | X-H torsion
[ 7974 7965 7964 7962 ] final  -73.70 input  175.53 | X-H torsion
[ 8008 7997 7996 7995 ] final   75.42 input   59.86 | X-H torsion
[ 10167 10162 10161 10158 ] final  -72.10 input  -65.29 | X-H torsion
[ 10718 10713 10712 10709 ] final   37.92 input   66.30 | X-H torsion
[ 10763 10752 10751 10750 ] final  175.57 input  -60.55 | X-H torsion
[ 11005 11000 10999 10996 ] final  158.81 input  -57.11 | X-H torsion

> <Gold.Protein.ActiveResidues>
 VAL166  LYS551  ARG553  GLY616  TRP617  ASP618  TYR619  PRO620  LYS621  CYS622 
 ASP623  PHE694  ASN695  SER759  ASP760  ASP761  ALA762  ILE779  LEU786  VAL792 
 PHE793  MET794  SER795  GLU796  ALA797  LYS798  CYS799  TRP800  GLU811  SER814 

> <Gold.Protein.RotatedAtoms>
  150.8630  134.7986  159.7096 H   0  0  0  0  0  0  0  0  0  0  0  0  # atno 6907 bound_to 6896
  152.4661  134.5069  159.9752 H   0  0  0  0  0  0  0  0  0  0  0  0  # atno 6908 bound_to 6896
  151.5170  133.3435  159.2930 H   0  0  0  0  0  0  0  0  0  0  0  0  # atno 6909 bound_to 6896
  145.6487  140.9289  143.0996 H   0  0  0  0  0  0  0  0  0  0  0  0  # atno 7974 bound_to 7965
  155.8126  140.3472  155.5467 H   0  0  0  0  0  0  0  0  0  0  0  0  # atno 8008 bound_to 7997
  155.8424  140.0943  157.1746 H   0  0  0  0  0  0  0  0  0  0  0  0  # atno 8009 bound_to 7997
  154.4005  140.1392  156.3733 H   0  0  0  0  0  0  0  0  0  0  0  0  # atno 8010 bound_to 7997
  140.5219  143.2330  151.7414 H   0  0  0  0  0  0  0  0  0  0  0  0  # atno 10167 bound_to 10162
  157.3527  130.7607  149.6990 H   0  0  0  0  0  0  0  0  0  0  0  0  # atno 10718 bound_to 10713
  154.4694  135.2770  155.1654 H   0  0  0  0  0  0  0  0  0  0  0  0  # atno 10763 bound_to 10752
  154.3409  135.6170  153.5599 H   0  0  0  0  0  0  0  0  0  0  0  0  # atno 10764 bound_to 10752
  152.9862  135.5788  154.5072 H   0  0  0  0  0  0  0  0  0  0  0  0  # atno 10765 bound_to 10752
  140.1901  134.8413  157.2902 H   0  0  0  0  0  0  0  0  0  0  0  0  # atno 11005 bound_to 11000
  144.7130  139.8298  143.7408 LP  0  0  0  0  0  0  0  0  0  0  0  0  # atno 17320 bound_to 7965
  146.1222  139.4241  143.0221 LP  0  0  0  0  0  0  0  0  0  0  0  0  # atno 17321 bound_to 7965
  139.4926  144.4242  151.9945 LP  0  0  0  0  0  0  0  0  0  0  0  0  # atno 17342 bound_to 10162
  140.3339  144.3284  150.5981 LP  0  0  0  0  0  0  0  0  0  0  0  0  # atno 17343 bound_to 10162
  155.9724  130.4136  150.4090 LP  0  0  0  0  0  0  0  0  0  0  0  0  # atno 17370 bound_to 10713
  157.2155  131.0470  151.2575 LP  0  0  0  0  0  0  0  0  0  0  0  0  # atno 17371 bound_to 10713
  140.2169  134.4071  155.7585 LP  0  0  0  0  0  0  0  0  0  0  0  0  # atno 17394 bound_to 11000
  141.2226  133.7146  156.8428 LP  0  0  0  0  0  0  0  0  0  0  0  0  # atno 17395 bound_to 11000

$$$$
