AV-unprocessed.smi:1828|AV-procd|sdf|7424|dock1
  -GOLD-   22720 9103D 1   1.00000     0.00000
 Structure written by MMmdl.
 39 41  0  0  0  0  0  0  0  0  1 V2000
  153.3995  139.8116  154.6649 O   0  0  0  0  0  0  0  0  0  0  0  0
  152.3899  139.1215  155.3696 C   0  0  0  0  0  0  0  0  0  0  0  0
  151.0110  139.5242  154.9449 C   0  0  0  0  0  0  0  0  0  0  0  0
  150.2175  138.7016  154.2576 N   0  0  0  0  0  0  0  0  0  0  0  0
  149.0715  139.4540  154.0901 C   0  0  0  0  0  0  0  0  0  0  0  0
  147.8548  139.1433  153.4415 C   0  0  0  0  0  0  0  0  0  0  0  0
  146.8069  140.0865  153.3997 C   0  0  0  0  0  0  0  0  0  0  0  0
  146.9601  141.3511  154.0042 C   0  0  0  0  0  0  0  0  0  0  0  0
  148.1648  141.6815  154.6543 C   0  0  0  0  0  0  0  0  0  0  0  0
  149.2074  140.7364  154.6929 C   0  0  0  0  0  0  0  0  0  0  0  0
  150.4879  140.7425  155.2357 N   0  0  0  0  0  0  0  0  0  0  0  0
  151.1017  141.8458  155.9629 C   0  0  0  0  0  0  0  0  0  0  0  0
  150.5163  142.0212  157.3783 C   0  0  2  0  0  0  0  0  0  0  0  0
  150.0543  143.3467  157.5532 O   0  0  0  0  0  0  0  0  0  0  0  0
  151.5226  141.6184  158.4446 C   0  0  0  0  0  0  0  0  0  0  0  0
  152.0107  142.5686  159.3673 C   0  0  0  0  0  0  0  0  0  0  0  0
  152.9442  142.1870  160.3491 C   0  0  0  0  0  0  0  0  0  0  0  0
  153.4001  140.8563  160.4106 C   0  0  0  0  0  0  0  0  0  0  0  0
  152.9287  139.8993  159.4858 C   0  0  0  0  0  0  0  0  0  0  0  0
  153.4110  138.4573  159.5458 C   0  0  0  0  0  0  0  0  0  0  0  0
  154.1358  138.1639  158.4659 F   0  0  0  0  0  0  0  0  0  0  0  0
  154.1639  138.2406  160.6250 F   0  0  0  0  0  0  0  0  0  0  0  0
  152.3566  137.6442  159.5888 F   0  0  0  0  0  0  0  0  0  0  0  0
  151.9866  140.2872  158.5085 C   0  0  0  0  0  0  0  0  0  0  0  0
  153.4904  139.4182  153.8107 H   0  0  0  0  0  0  0  0  0  0  0  0
  152.5208  138.0480  155.2356 H   0  0  0  0  0  0  0  0  0  0  0  0
  152.5116  139.3207  156.4346 H   0  0  0  0  0  0  0  0  0  0  0  0
  147.7277  138.1770  152.9764 H   0  0  0  0  0  0  0  0  0  0  0  0
  145.8808  139.8383  152.9022 H   0  0  0  0  0  0  0  0  0  0  0  0
  146.1522  142.0674  153.9686 H   0  0  0  0  0  0  0  0  0  0  0  0
  148.2857  142.6490  155.1185 H   0  0  0  0  0  0  0  0  0  0  0  0
  152.1721  141.6469  156.0286 H   0  0  0  0  0  0  0  0  0  0  0  0
  151.0025  142.7666  155.3888 H   0  0  0  0  0  0  0  0  0  0  0  0
  149.6421  141.3764  157.4765 H   0  0  0  0  0  0  0  0  0  0  0  0
  149.5048  143.5710  156.8177 H   0  0  0  0  0  0  0  0  0  0  0  0
  151.6706  143.5930  159.3250 H   0  0  0  0  0  0  0  0  0  0  0  0
  153.3113  142.9163  161.0563 H   0  0  0  0  0  0  0  0  0  0  0  0
  154.1128  140.5766  161.1724 H   0  0  0  0  0  0  0  0  0  0  0  0
  151.6177  139.5567  157.8033 H   0  0  0  0  0  0  0  0  0  0  0  0
  1  2  1  0  0  0  0
  1 25  1  0  0  0  0
  2  3  1  0  0  0  0
  2 26  1  0  0  0  0
  2 27  1  0  0  0  0
  3 11  1  0  0  0  0
  3  4  2  0  0  0  0
  4  5  1  0  0  0  0
  5 10  2  0  0  0  0
  5  6  1  0  0  0  0
  6  7  2  0  0  0  0
  6 28  1  0  0  0  0
  7  8  1  0  0  0  0
  7 29  1  0  0  0  0
  8  9  2  0  0  0  0
  8 30  1  0  0  0  0
  9 10  1  0  0  0  0
  9 31  1  0  0  0  0
 10 11  1  0  0  0  0
 11 12  1  0  0  0  0
 12 13  1  0  0  0  0
 12 32  1  0  0  0  0
 12 33  1  0  0  0  0
 13 14  1  0  0  0  0
 13 15  1  0  0  0  0
 13 34  1  0  0  0  0
 14 35  1  0  0  0  0
 15 24  1  0  0  0  0
 15 16  2  0  0  0  0
 16 17  1  0  0  0  0
 16 36  1  0  0  0  0
 17 18  2  0  0  0  0
 17 37  1  0  0  0  0
 18 19  1  0  0  0  0
 18 38  1  0  0  0  0
 19 20  1  0  0  0  0
 19 24  2  0  0  0  0
 20 21  1  0  0  0  0
 20 22  1  0  0  0  0
 20 23  1  0  0  0  0
 24 39  1  0  0  0  0
M  END
> <s_m_source_file>
AV-unprocessed.smi

> <i_m_source_file_index>
1828

> <i_lp_mmshare_version>
43012

> <i_f3d_flags>
0

> <s_epik_input>
W2NIXTFbY0hdW2NIXVtjSF1jKGMxMiluKGMobjIpW0NIMl1bT0hdKVtDSDJdW0NASF0oW09IXSljM1tjSF1bY0hdW2NIXWMoQyhGKShGKUYpW2NIXTM=

> <s_epik_cmdline>
J2VwaWtfcHl0aG9uJywgJy1waCcsICc3LjAnLCAnLXRuJywgJzgnLCAnLW1hJywgJzIwMCcsICctbWV0YWxfYmluZGluZycsICctaW1hZScsICc8aW5maWxlLm1hZT4nLCAnLW9tYWUnLCAnPG91dGZpbGUubWFlPic=

> <r_epik_Ionization_Penalty>
0.0634719

> <r_epik_Ionization_Penalty_Charging>
0

> <r_epik_Ionization_Penalty_Neutral>
0.0634719

> <r_epik_State_Penalty>
0.0551572

> <r_epik_Charging_Adjusted_Penalty>
0.0551572

> <i_epik_Tot_Q>
0

> <i_epik_Tot_abs_Q>
0

> <r_epik_Metal_State_Penalty>
5.78034e-05

> <b_epik_Metal_Only>
0

> <s_lp_Force_Field>
OPLS_2005

> <r_lp_Energy>
12.8621

> <b_lp_Chiralities_Consistent>
1

> <s_lp_Variant>
AV-unprocessed.smi:1828-1

> <Gold.Version>
5.8.1

> <Gold.Id.Protein>
6NUR|6NUR_protein|mol2

> <Gold.PLP.Fitness>
52.8449

> <Gold.PLP.PLP>
-48.8334

> <Gold.PLP.part.hbond>
-2.9718

> <Gold.PLP.part.metal>
0.0000

> <Gold.PLP.part.buried>
-0.7746

> <Gold.PLP.part.nonpolar>
-42.4958

> <Gold.PLP.part.repulsive>
0.1987

> <Gold.PLP.ligand.clash>
0.5998

> <Gold.PLP.ligand.torsion>
1.1770

> <Gold.PLP.Chemscore.Hbond>
2.0000

> <Gold.PLP.Chemscore.CHOScore>
0.0000

> <Gold.PLP.Chemscore.Metal>
0.0000

> <Gold.Chemscore.Hbonds>
donor molecule, donor type, donor heavy atom, donor atom, acceptor molecule, acceptor atom, score
      L1  H    14    35       P1  8028  1.00
      P1  H  7997  8008       L1     1  1.00

> <Gold.PLP.Chemscore.Internal.Correction>
0.9654

> <Gold.Rescore>
     Score         DG    S(hbond)    S(metal)    S(lipo)     H(rot)  DE(clash)    DE(int)     intcor
     16.70     -17.93       1.95        0.00     114.41       2.91       0.26       0.98       ----

> <Gold.Chemscore.Fitness>
16.6987

> <Gold.Chemscore.DG>
-17.9300

> <Gold.Chemscore.ZeroCoef>
-5.4800

> <Gold.Chemscore.Hbond>
1.9534

> <Gold.Chemscore.Metal>
0.0000

> <Gold.Chemscore.Lipo>
114.4068

> <Gold.Chemscore.Internal_Hbond>
0.0000

> <Gold.Chemscore.DEClash>
0.2551

> <Gold.Chemscore.DEInternal>
0.9762

> <Gold.Chemscore.Rot>
2.9141

> <Gold.Chemscore.Internal.Correction>
   9.000000E+99

> <Gold.Chemscore.Hbonds>
donor molecule, donor type, donor heavy atom, donor atom, acceptor molecule, acceptor atom, score
      L1  H    14    35       P1  8028  0.93
      P1  H  7997  8008       L1     1  0.90

> <Gold.Chemscore.Hbond.Weighted>
-6.5244

> <Gold.Chemscore.Metal.Weighted>
-0.0000

> <Gold.Chemscore.Lipo.Weighted>
-13.3856

> <Gold.Chemscore.Internal_Hbond.Weighted>
0.0000

> <Gold.Chemscore.DEClash.Weighted>
0.2551

> <Gold.Chemscore.DEInternal.Weighted>
0.9762

> <Gold.Chemscore.Rot.Weighted>
7.4600

> <Gold.Chemscore.Internal.Correction.Weighted>
   9.000000E+99

> <Gold.Protein.RotatedTorsions>
[ 6907 6896 6895 6894 ] final -176.52 input  -60.11 | X-H torsion
[ 7974 7965 7964 7962 ] final  107.95 input  175.53 | X-H torsion
[ 8008 7997 7996 7995 ] final   10.41 input   59.86 | X-H torsion
[ 10167 10162 10161 10158 ] final  122.37 input  -65.29 | X-H torsion
[ 10718 10713 10712 10709 ] final  -14.55 input   66.30 | X-H torsion
[ 10763 10752 10751 10750 ] final  -65.01 input  -60.55 | X-H torsion
[ 11005 11000 10999 10996 ] final -166.03 input  -57.11 | X-H torsion

> <Gold.Protein.ActiveResidues>
 VAL166  LYS551  ARG553  GLY616  TRP617  ASP618  TYR619  PRO620  LYS621  CYS622 
 ASP623  PHE694  ASN695  SER759  ASP760  ASP761  ALA762  ILE779  LEU786  VAL792 
 PHE793  MET794  SER795  GLU796  ALA797  LYS798  CYS799  TRP800  GLU811  SER814 

> <Gold.Protein.RotatedAtoms>
  151.6061  133.3351  159.3057 H   0  0  0  0  0  0  0  0  0  0  0  0  # atno 6907 bound_to 6896
  150.8181  134.7378  159.6759 H   0  0  0  0  0  0  0  0  0  0  0  0  # atno 6908 bound_to 6896
  152.4276  134.5844  160.0008 H   0  0  0  0  0  0  0  0  0  0  0  0  # atno 6909 bound_to 6896
  145.2869  139.2613  143.3885 H   0  0  0  0  0  0  0  0  0  0  0  0  # atno 7974 bound_to 7965
  154.7930  140.2839  155.5977 H   0  0  0  0  0  0  0  0  0  0  0  0  # atno 8008 bound_to 7997
  156.2967  140.2601  156.2710 H   0  0  0  0  0  0  0  0  0  0  0  0  # atno 8009 bound_to 7997
  154.9648  140.0377  157.2196 H   0  0  0  0  0  0  0  0  0  0  0  0  # atno 8010 bound_to 7997
  139.5862  144.7007  151.3402 H   0  0  0  0  0  0  0  0  0  0  0  0  # atno 10167 bound_to 10162
  156.6144  130.4858  149.6189 H   0  0  0  0  0  0  0  0  0  0  0  0  # atno 10718 bound_to 10713
  154.3387  135.6161  153.5586 H   0  0  0  0  0  0  0  0  0  0  0  0  # atno 10763 bound_to 10752
  152.9806  135.5764  154.4878 H   0  0  0  0  0  0  0  0  0  0  0  0  # atno 10764 bound_to 10752
  154.4578  135.2855  155.1712 H   0  0  0  0  0  0  0  0  0  0  0  0  # atno 10765 bound_to 10752
  140.5691  134.5256  157.5158 H   0  0  0  0  0  0  0  0  0  0  0  0  # atno 11005 bound_to 11000
  146.3198  140.3351  142.8643 LP  0  0  0  0  0  0  0  0  0  0  0  0  # atno 17320 bound_to 7965
  144.9205  140.7862  143.5751 LP  0  0  0  0  0  0  0  0  0  0  0  0  # atno 17321 bound_to 7965
  140.7134  143.7331  150.7608 LP  0  0  0  0  0  0  0  0  0  0  0  0  # atno 17342 bound_to 10162
  140.0876  143.4908  152.2496 LP  0  0  0  0  0  0  0  0  0  0  0  0  # atno 17343 bound_to 10162
  156.2363  130.6825  151.1513 LP  0  0  0  0  0  0  0  0  0  0  0  0  # atno 17370 bound_to 10713
  157.7245  131.0659  150.5991 LP  0  0  0  0  0  0  0  0  0  0  0  0  # atno 17371 bound_to 10713
  139.9370  134.7856  156.0776 LP  0  0  0  0  0  0  0  0  0  0  0  0  # atno 17394 bound_to 11000
  141.1067  133.6657  156.2881 LP  0  0  0  0  0  0  0  0  0  0  0  0  # atno 17395 bound_to 11000

$$$$
