AV-unprocessed.smi:1510|AV-procd|sdf|6097|dock2
  -GOLD-   22720 6223D 1   1.00000     0.00000
 Structure written by MMmdl.
 33 34  0  0  0  0  0  0  0  0  1 V2000
  152.8730  136.8077  156.2620 O   0  0  0  0  0  0  0  0  0  0  0  0
  151.9563  137.3263  155.6229 C   0  0  0  0  0  0  0  0  0  0  0  0
  152.1603  138.6562  154.8818 C   0  0  0  0  0  0  0  0  0  0  0  0
  151.5655  139.8094  155.5728 N   0  0  0  0  0  0  0  0  0  0  0  0
  150.7091  140.5621  154.7835 N   0  0  0  0  0  0  0  0  0  0  0  0
  150.1108  141.5908  155.2816 C   0  0  0  0  0  0  0  0  0  0  0  0
  149.2678  142.3048  154.4659 O   0  0  0  0  0  0  0  0  0  0  0  0
  150.3185  141.9848  156.6575 C   0  0  0  0  0  0  0  0  0  0  0  0
  151.1580  141.2479  157.4173 C   0  0  0  0  0  0  0  0  0  0  0  0
  151.8509  140.0730  156.8851 C   0  0  0  0  0  0  0  0  0  0  0  0
  152.6192  139.3828  157.5547 O   0  0  0  0  0  0  0  0  0  0  0  0
  150.7297  136.7927  155.5415 N   0  0  0  0  0  0  0  0  0  0  0  0
  150.3272  135.5519  156.1884 C   0  0  0  0  0  0  0  0  0  0  0  0
  150.3385  134.3909  155.1849 C   0  0  1  0  0  0  0  0  0  0  0  0
  149.9688  133.0429  155.7990 C   0  0  0  0  0  0  0  0  0  0  0  0
  149.5067  132.2740  154.5822 C   0  0  0  0  0  0  0  0  0  0  0  0
  148.7817  133.3526  153.7803 C   0  0  0  0  0  0  0  0  0  0  0  0
  149.3665  134.5957  154.1629 O   0  0  0  0  0  0  0  0  0  0  0  0
  148.9973  143.0515  154.9780 H   0  0  0  0  0  0  0  0  0  0  0  0
  153.2275  138.8232  154.7243 H   0  0  0  0  0  0  0  0  0  0  0  0
  151.7312  138.5558  153.8833 H   0  0  0  0  0  0  0  0  0  0  0  0
  149.8100  142.8494  157.0580 H   0  0  0  0  0  0  0  0  0  0  0  0
  151.3230  141.5306  158.4466 H   0  0  0  0  0  0  0  0  0  0  0  0
  150.0260  137.2812  155.0068 H   0  0  0  0  0  0  0  0  0  0  0  0
  151.0135  135.3373  157.0092 H   0  0  0  0  0  0  0  0  0  0  0  0
  149.3324  135.6700  156.6206 H   0  0  0  0  0  0  0  0  0  0  0  0
  151.3179  134.3098  154.7098 H   0  0  0  0  0  0  0  0  0  0  0  0
  150.8024  132.5671  156.3161 H   0  0  0  0  0  0  0  0  0  0  0  0
  149.1445  133.1539  156.5052 H   0  0  0  0  0  0  0  0  0  0  0  0
  150.3694  131.9067  154.0246 H   0  0  0  0  0  0  0  0  0  0  0  0
  148.8702  131.4231  154.8263 H   0  0  0  0  0  0  0  0  0  0  0  0
  148.8646  133.1901  152.7054 H   0  0  0  0  0  0  0  0  0  0  0  0
  147.7222  133.3756  154.0377 H   0  0  0  0  0  0  0  0  0  0  0  0
  1  2  2  0  0  0  0
  2  3  1  0  0  0  0
  2 12  1  0  0  0  0
  3 20  1  0  0  0  0
  3 21  1  0  0  0  0
  3  4  1  0  0  0  0
  4  5  1  0  0  0  0
  4 10  1  0  0  0  0
  5  6  2  0  0  0  0
  6  7  1  0  0  0  0
  6  8  1  0  0  0  0
  7 19  1  0  0  0  0
  8 22  1  0  0  0  0
  8  9  2  0  0  0  0
  9 23  1  0  0  0  0
  9 10  1  0  0  0  0
 10 11  2  0  0  0  0
 12 13  1  0  0  0  0
 12 24  1  0  0  0  0
 13 14  1  0  0  0  0
 13 25  1  0  0  0  0
 13 26  1  0  0  0  0
 14 18  1  0  0  0  0
 14 15  1  0  0  0  0
 14 27  1  0  0  0  0
 15 16  1  0  0  0  0
 15 28  1  0  0  0  0
 15 29  1  0  0  0  0
 16 17  1  0  0  0  0
 16 30  1  0  0  0  0
 16 31  1  0  0  0  0
 17 18  1  0  0  0  0
 17 32  1  0  0  0  0
 17 33  1  0  0  0  0
M  END
> <s_m_source_file>
AV-unprocessed.smi

> <i_m_source_file_index>
1510

> <i_lp_mmshare_version>
43012

> <i_f3d_flags>
0

> <s_epik_input>
TzFbQ0gyXVtDSDJdW0NIMl1bQ0BIXTFbQ0gyXVtOSF1DKD1PKVtDSDJdbjJbbkhdYyg9TylbY0hdW2NIXWMyPU8=

> <s_epik_cmdline>
J2VwaWtfcHl0aG9uJywgJy1waCcsICc3LjAnLCAnLXRuJywgJzgnLCAnLW1hJywgJzIwMCcsICctbWV0YWxfYmluZGluZycsICctaW1hZScsICc8aW5maWxlLm1hZT4nLCAnLW9tYWUnLCAnPG91dGZpbGUubWFlPic=

> <r_lp_tautomer_probability>
0.9996

> <r_epik_Ionization_Penalty>
2.13037

> <r_epik_Ionization_Penalty_Charging>
3.76e-08

> <r_epik_Ionization_Penalty_Neutral>
2.13037

> <r_epik_State_Penalty>
1.70753

> <r_epik_Charging_Adjusted_Penalty>
1.70753

> <i_epik_Tot_Q>
0

> <i_epik_Tot_abs_Q>
0

> <r_epik_Metal_State_Penalty>
1.70753

> <b_epik_Metal_Only>
0

> <s_lp_Force_Field>
OPLS_2005

> <r_lp_Energy>
28.362

> <b_lp_Chiralities_Consistent>
1

> <s_lp_Variant>
AV-unprocessed.smi:1510-4

> <Gold.Version>
5.8.1

> <Gold.Id.Protein>
6NUR|6NUR_protein|mol2

> <Gold.PLP.Fitness>
42.3531

> <Gold.PLP.PLP>
-31.3799

> <Gold.PLP.part.hbond>
-5.0000

> <Gold.PLP.part.metal>
0.0000

> <Gold.PLP.part.buried>
-1.4043

> <Gold.PLP.part.nonpolar>
-24.1594

> <Gold.PLP.part.repulsive>
0.5940

> <Gold.PLP.ligand.clash>
0.0000

> <Gold.PLP.ligand.torsion>
0.4033

> <Gold.PLP.Chemscore.Hbond>
3.9242

> <Gold.PLP.Chemscore.CHOScore>
0.0000

> <Gold.PLP.Chemscore.Metal>
0.0000

> <Gold.Chemscore.Hbonds>
donor molecule, donor type, donor heavy atom, donor atom, acceptor molecule, acceptor atom, score
      L1  H     7    19       P1  8028  1.00
      P1  H  7989  7998       L1     5  1.00
      P1  H  7997  8010       L1    11  0.80
      P1  H  8011  8017       L1     7  0.12
      P1  H 10752 10765       L1     1  0.85

> <Gold.PLP.Chemscore.Internal.Correction>
0.0073

> <Gold.Rescore>
     Score         DG    S(hbond)    S(metal)    S(lipo)     H(rot)  DE(clash)    DE(int)     intcor
      9.11     -12.11       2.42        0.00      46.53       2.69       0.10       2.90       ----

> <Gold.Chemscore.Fitness>
9.1121

> <Gold.Chemscore.DG>
-12.1095

> <Gold.Chemscore.ZeroCoef>
-5.4800

> <Gold.Chemscore.Hbond>
2.4195

> <Gold.Chemscore.Metal>
0.0000

> <Gold.Chemscore.Lipo>
46.5314

> <Gold.Chemscore.Internal_Hbond>
0.0000

> <Gold.Chemscore.DEClash>
0.0998

> <Gold.Chemscore.DEInternal>
2.8976

> <Gold.Chemscore.Rot>
2.6937

> <Gold.Chemscore.Internal.Correction>
   9.000000E+99

> <Gold.Chemscore.Hbonds>
donor molecule, donor type, donor heavy atom, donor atom, acceptor molecule, acceptor atom, score
      L1  H     7    19       P1  8028  1.00
      P1  H  7989  7998       L1     5  0.29
      P1  H  7997  8010       L1    11  0.31
      P1  H  8011  8017       L1     7  0.12
      P1  H 10752 10765       L1     1  0.42

> <Gold.Chemscore.Hbond.Weighted>
-8.0813

> <Gold.Chemscore.Metal.Weighted>
-0.0000

> <Gold.Chemscore.Lipo.Weighted>
-5.4442

> <Gold.Chemscore.Internal_Hbond.Weighted>
0.0000

> <Gold.Chemscore.DEClash.Weighted>
0.0998

> <Gold.Chemscore.DEInternal.Weighted>
2.8976

> <Gold.Chemscore.Rot.Weighted>
6.8959

> <Gold.Chemscore.Internal.Correction.Weighted>
   9.000000E+99

> <Gold.Protein.RotatedTorsions>
[ 6907 6896 6895 6894 ] final   15.11 input  -60.11 | X-H torsion
[ 7974 7965 7964 7962 ] final  130.98 input  175.53 | X-H torsion
[ 8008 7997 7996 7995 ] final   39.57 input   59.86 | X-H torsion
[ 10167 10162 10161 10158 ] final -159.48 input  -65.29 | X-H torsion
[ 10718 10713 10712 10709 ] final  -31.81 input   66.30 | X-H torsion
[ 10763 10752 10751 10750 ] final -130.30 input  -60.55 | X-H torsion
[ 11005 11000 10999 10996 ] final -176.23 input  -57.11 | X-H torsion

> <Gold.Protein.ActiveResidues>
 VAL166  LYS551  ARG553  GLY616  TRP617  ASP618  TYR619  PRO620  LYS621  CYS622 
 ASP623  PHE694  ASN695  SER759  ASP760  ASP761  ALA762  ILE779  LEU786  VAL792 
 PHE793  MET794  SER795  GLU796  ALA797  LYS798  CYS799  TRP800  GLU811  SER814 

> <Gold.Protein.RotatedAtoms>
  151.8129  135.0675  160.0414 H   0  0  0  0  0  0  0  0  0  0  0  0  # atno 6907 bound_to 6896
  152.3007  133.5648  159.5625 H   0  0  0  0  0  0  0  0  0  0  0  0  # atno 6908 bound_to 6896
  150.7272  134.0211  159.3744 H   0  0  0  0  0  0  0  0  0  0  0  0  # atno 6909 bound_to 6896
  145.0122  139.4210  143.5239 H   0  0  0  0  0  0  0  0  0  0  0  0  # atno 7974 bound_to 7965
  155.2388  140.3344  155.4294 H   0  0  0  0  0  0  0  0  0  0  0  0  # atno 8008 bound_to 7997
  156.2264  140.1831  156.7397 H   0  0  0  0  0  0  0  0  0  0  0  0  # atno 8009 bound_to 7997
  154.5906  140.0638  156.9218 H   0  0  0  0  0  0  0  0  0  0  0  0  # atno 8010 bound_to 7997
  139.6612  143.9910  152.2226 H   0  0  0  0  0  0  0  0  0  0  0  0  # atno 10167 bound_to 10162
  156.3826  130.4359  149.7457 H   0  0  0  0  0  0  0  0  0  0  0  0  # atno 10718 bound_to 10713
  154.8756  135.3867  154.4060 H   0  0  0  0  0  0  0  0  0  0  0  0  # atno 10763 bound_to 10752
  153.4779  135.7030  153.5960 H   0  0  0  0  0  0  0  0  0  0  0  0  # atno 10764 bound_to 10752
  153.4388  135.3861  155.2183 H   0  0  0  0  0  0  0  0  0  0  0  0  # atno 10765 bound_to 10752
  140.4545  134.6313  157.4815 H   0  0  0  0  0  0  0  0  0  0  0  0  # atno 11005 bound_to 11000
  146.3472  139.9572  142.8721 LP  0  0  0  0  0  0  0  0  0  0  0  0  # atno 17320 bound_to 7965
  145.2008  140.9853  143.4157 LP  0  0  0  0  0  0  0  0  0  0  0  0  # atno 17321 bound_to 7965
  139.9649  144.6533  150.8044 LP  0  0  0  0  0  0  0  0  0  0  0  0  # atno 17342 bound_to 10162
  140.7580  143.3099  151.2870 LP  0  0  0  0  0  0  0  0  0  0  0  0  # atno 17343 bound_to 10162
  156.4541  130.7921  151.2942 LP  0  0  0  0  0  0  0  0  0  0  0  0  # atno 17370 bound_to 10713
  157.7493  131.0086  150.3235 LP  0  0  0  0  0  0  0  0  0  0  0  0  # atno 17371 bound_to 10713
  139.9985  134.6873  155.9569 LP  0  0  0  0  0  0  0  0  0  0  0  0  # atno 17394 bound_to 11000
  141.1649  133.6537  156.4446 LP  0  0  0  0  0  0  0  0  0  0  0  0  # atno 17395 bound_to 11000

$$$$
