AV-unprocessed.smi:46|AV-procd|sdf|421|dock1
  -GOLD-   2262016303D 1   1.00000     0.00000
 Structure written by MMmdl.
 35 36  0  0  0  0  0  0  0  0  2 V2000
  152.0645  143.5637  160.2492 C   0  0  0  0  0  0  0  0  0  0  0  0
  152.4418  143.3913  158.7696 C   0  0  0  0  0  0  0  0  0  0  0  0
  152.2608  144.6915  157.9732 C   0  0  0  0  0  0  0  0  0  0  0  0
  151.6869  142.3066  158.1605 N   0  0  0  0  0  0  0  0  0  0  0  0
  150.9312  142.3204  157.0065 C   0  0  0  0  0  0  0  0  0  0  0  0
  150.4194  141.0642  156.8267 C   0  0  0  0  0  0  0  0  0  0  0  0
  149.5130  140.5276  155.7382 C   0  0  2  0  0  0  0  0  0  0  0  0
  149.1821  141.5682  154.6619 C   0  0  0  0  0  0  0  0  0  0  0  0
  147.9995  142.3029  155.1470 N   0  3  0  0  0  0  0  0  0  0  0  0
  147.3305  141.4746  156.1702 C   0  0  0  0  0  0  0  0  0  0  0  0
  148.1084  140.1510  156.2482 C   0  0  2  0  0  0  0  0  0  0  0  0
  148.0209  139.4729  157.6302 C   0  0  0  0  0  0  0  0  0  0  0  0
  146.6927  139.5145  158.1065 O   0  0  0  0  0  0  0  0  0  0  0  0
  150.9444  140.3404  157.9351 C   0  0  0  0  0  0  0  0  0  0  0  0
  151.7007  141.0817  158.7260 N   0  0  0  0  0  0  0  0  0  0  0  0
  149.9803  139.6585  155.2729 H   0  0  0  0  0  0  0  0  0  0  0  0
  147.6636  139.4811  155.5097 H   0  0  0  0  0  0  0  0  0  0  0  0
  152.6789  144.3310  160.7208 H   0  0  0  0  0  0  0  0  0  0  0  0
  152.2151  142.6363  160.8026 H   0  0  0  0  0  0  0  0  0  0  0  0
  151.0214  143.8584  160.3671 H   0  0  0  0  0  0  0  0  0  0  0  0
  153.4996  143.1241  158.7316 H   0  0  0  0  0  0  0  0  0  0  0  0
  152.8686  145.4940  158.3921 H   0  0  0  0  0  0  0  0  0  0  0  0
  151.2221  145.0232  157.9800 H   0  0  0  0  0  0  0  0  0  0  0  0
  152.5624  144.5590  156.9337 H   0  0  0  0  0  0  0  0  0  0  0  0
  150.8181  143.2184  156.4175 H   0  0  0  0  0  0  0  0  0  0  0  0
  150.0154  142.2300  154.4231 H   0  0  0  0  0  0  0  0  0  0  0  0
  148.8927  141.0584  153.7419 H   0  0  0  0  0  0  0  0  0  0  0  0
  148.2966  143.1678  155.5757 H   0  0  0  0  0  0  0  0  0  0  0  0
  147.3716  142.0090  157.1200 H   0  0  0  0  0  0  0  0  0  0  0  0
  146.2808  141.3150  155.9219 H   0  0  0  0  0  0  0  0  0  0  0  0
  148.3660  138.4390  157.5998 H   0  0  0  0  0  0  0  0  0  0  0  0
  148.6572  139.9967  158.3443 H   0  0  0  0  0  0  0  0  0  0  0  0
  146.3344  138.6400  158.0810 H   0  0  0  0  0  0  0  0  0  0  0  0
  150.7931  139.3016  158.1891 H   0  0  0  0  0  0  0  0  0  0  0  0
  147.3737  142.5015  154.3794 H   0  0  0  0  0  0  0  0  0  0  0  0
  1  2  1  0  0  0  0
  1 18  1  0  0  0  0
  1 19  1  0  0  0  0
  1 20  1  0  0  0  0
  2  3  1  0  0  0  0
  2  4  1  0  0  0  0
  2 21  1  0  0  0  0
  3 22  1  0  0  0  0
  3 23  1  0  0  0  0
  3 24  1  0  0  0  0
  4 15  1  0  0  0  0
  4  5  1  0  0  0  0
  5  6  2  0  0  0  0
  5 25  1  0  0  0  0
  6  7  1  0  0  0  0
  6 14  1  0  0  0  0
  7 16  1  0  0  0  0
  7 11  1  0  0  0  0
  7  8  1  0  0  0  0
  8  9  1  0  0  0  0
  8 26  1  0  0  0  0
  8 27  1  0  0  0  0
  9 10  1  0  0  0  0
  9 28  1  0  0  0  0
  9 35  1  0  0  0  0
 10 11  1  0  0  0  0
 10 29  1  0  0  0  0
 10 30  1  0  0  0  0
 11 17  1  0  0  0  0
 11 12  1  0  0  0  0
 12 13  1  0  0  0  0
 12 31  1  0  0  0  0
 12 32  1  0  0  0  0
 13 33  1  0  0  0  0
 14 15  2  0  0  0  0
 14 34  1  0  0  0  0
M  CHG  1   9   1
M  END
> <s_m_source_file>
AV-unprocessed.smi

> <i_m_source_file_index>
46

> <i_lp_mmshare_version>
43012

> <i_f3d_flags>
0

> <s_epik_input>
W0NIM11bQ0hdKFtDSDNdKW4xW2NIXWMoW2NIXW4xKVtDQEBIXTJbQ0gyXVtOSF1bQ0gyXVtDQEhdMltDSDJdW09IXQ==

> <s_epik_cmdline>
J2VwaWtfcHl0aG9uJywgJy1waCcsICc3LjAnLCAnLXRuJywgJzgnLCAnLW1hJywgJzIwMCcsICctbWV0YWxfYmluZGluZycsICctaW1hZScsICc8aW5maWxlLm1hZT4nLCAnLW9tYWUnLCAnPG91dGZpbGUubWFlPic=

> <r_lp_tautomer_probability>
1

> <r_epik_Ionization_Penalty>
0.000236226

> <r_epik_Ionization_Penalty_Charging>
0.00021985

> <r_epik_Ionization_Penalty_Neutral>
1.63752e-05

> <r_epik_State_Penalty>
-0

> <r_epik_Charging_Adjusted_Penalty>
0.00021985

> <i_epik_Tot_Q>
1

> <i_epik_Tot_abs_Q>
1

> <r_epik_Metal_State_Penalty>
-0

> <b_epik_Metal_Only>
0

> <s_lp_Force_Field>
OPLS_2005

> <r_lp_Energy>
33.6612

> <b_lp_Chiralities_Consistent>
1

> <s_lp_Variant>
AV-unprocessed.smi:46-3

> <Gold.Version>
5.8.1

> <Gold.Id.Protein>
6NUR|6NUR_protein|mol2

> <Gold.PLP.Fitness>
37.1897

> <Gold.PLP.PLP>
-28.7320

> <Gold.PLP.part.hbond>
-1.8245

> <Gold.PLP.part.metal>
0.0000

> <Gold.PLP.part.buried>
-4.0843

> <Gold.PLP.part.nonpolar>
-23.5904

> <Gold.PLP.part.repulsive>
0.1356

> <Gold.PLP.ligand.clash>
0.0000

> <Gold.PLP.ligand.torsion>
0.2345

> <Gold.PLP.Chemscore.Hbond>
2.0000

> <Gold.PLP.Chemscore.CHOScore>
0.9538

> <Gold.PLP.Chemscore.Metal>
0.0000

> <Gold.Chemscore.Hbonds>
donor molecule, donor type, donor heavy atom, donor atom, acceptor molecule, acceptor atom, score
      L1  H     9    28       P1  8028  2.00
      L1  C     5    25       P1  8028  0.95

> <Gold.PLP.Chemscore.Internal.Correction>
0.0653

> <Gold.Rescore>
     Score         DG    S(hbond)    S(metal)    S(lipo)     H(rot)  DE(clash)    DE(int)     intcor
     12.33     -12.53       0.99        0.00      73.61       1.90       0.02       0.18       ----

> <Gold.Chemscore.Fitness>
12.3304

> <Gold.Chemscore.DG>
-12.5278

> <Gold.Chemscore.ZeroCoef>
-5.4800

> <Gold.Chemscore.Hbond>
0.9862

> <Gold.Chemscore.Metal>
0.0000

> <Gold.Chemscore.Lipo>
73.6059

> <Gold.Chemscore.Internal_Hbond>
0.0000

> <Gold.Chemscore.DEClash>
0.0202

> <Gold.Chemscore.DEInternal>
0.1772

> <Gold.Chemscore.Rot>
1.8976

> <Gold.Chemscore.Internal.Correction>
   9.000000E+99

> <Gold.Chemscore.Hbonds>
donor molecule, donor type, donor heavy atom, donor atom, acceptor molecule, acceptor atom, score
      L1  H     9    28       P1  8028  0.93

> <Gold.Chemscore.Hbond.Weighted>
-3.2938

> <Gold.Chemscore.Metal.Weighted>
-0.0000

> <Gold.Chemscore.Lipo.Weighted>
-8.6119

> <Gold.Chemscore.Internal_Hbond.Weighted>
0.0000

> <Gold.Chemscore.DEClash.Weighted>
0.0202

> <Gold.Chemscore.DEInternal.Weighted>
0.1772

> <Gold.Chemscore.Rot.Weighted>
4.8579

> <Gold.Chemscore.Internal.Correction.Weighted>
   9.000000E+99

> <Gold.Protein.RotatedTorsions>
[ 6907 6896 6895 6894 ] final   86.92 input  -60.11 | X-H torsion
[ 7974 7965 7964 7962 ] final -126.93 input  175.53 | X-H torsion
[ 8008 7997 7996 7995 ] final  130.33 input   59.86 | X-H torsion
[ 10167 10162 10161 10158 ] final  -81.30 input  -65.29 | X-H torsion
[ 10718 10713 10712 10709 ] final -172.74 input   66.30 | X-H torsion
[ 10763 10752 10751 10750 ] final  175.03 input  -60.55 | X-H torsion
[ 11005 11000 10999 10996 ] final  152.86 input  -57.11 | X-H torsion

> <Gold.Protein.ActiveResidues>
 VAL166  LYS551  ARG553  GLY616  TRP617  ASP618  TYR619  PRO620  LYS621  CYS622 
 ASP623  PHE694  ASN695  SER759  ASP760  ASP761  ALA762  ILE779  LEU786  VAL792 
 PHE793  MET794  SER795  GLU796  ALA797  LYS798  CYS799  TRP800  GLU811  SER814 

> <Gold.Protein.RotatedAtoms>
  152.5402  134.2357  159.8842 H   0  0  0  0  0  0  0  0  0  0  0  0  # atno 6907 bound_to 6896
  151.2327  133.4435  159.2612 H   0  0  0  0  0  0  0  0  0  0  0  0  # atno 6908 bound_to 6896
  151.0700  134.9806  159.8360 H   0  0  0  0  0  0  0  0  0  0  0  0  # atno 6909 bound_to 6896
  144.9822  140.7651  143.4605 H   0  0  0  0  0  0  0  0  0  0  0  0  # atno 7974 bound_to 7965
  156.2952  140.2599  156.2744 H   0  0  0  0  0  0  0  0  0  0  0  0  # atno 8008 bound_to 7997
  154.9663  140.0392  157.2232 H   0  0  0  0  0  0  0  0  0  0  0  0  # atno 8009 bound_to 7997
  154.7899  140.2810  155.6004 H   0  0  0  0  0  0  0  0  0  0  0  0  # atno 8010 bound_to 7997
  140.4425  143.2510  151.8606 H   0  0  0  0  0  0  0  0  0  0  0  0  # atno 10167 bound_to 10162
  156.7600  130.9410  151.3117 H   0  0  0  0  0  0  0  0  0  0  0  0  # atno 10718 bound_to 10713
  154.4621  135.2768  155.1705 H   0  0  0  0  0  0  0  0  0  0  0  0  # atno 10763 bound_to 10752
  154.3489  135.6154  153.5636 H   0  0  0  0  0  0  0  0  0  0  0  0  # atno 10764 bound_to 10752
  152.9856  135.5806  154.4985 H   0  0  0  0  0  0  0  0  0  0  0  0  # atno 10765 bound_to 10752
  140.1346  134.8779  157.2249 H   0  0  0  0  0  0  0  0  0  0  0  0  # atno 11005 bound_to 11000
  145.2404  139.2075  143.4995 LP  0  0  0  0  0  0  0  0  0  0  0  0  # atno 17320 bound_to 7965
  146.3411  140.2299  142.8593 LP  0  0  0  0  0  0  0  0  0  0  0  0  # atno 17321 bound_to 7965
  139.4790  144.5213  151.8797 LP  0  0  0  0  0  0  0  0  0  0  0  0  # atno 17342 bound_to 10162
  140.4302  144.2126  150.5888 LP  0  0  0  0  0  0  0  0  0  0  0  0  # atno 17343 bound_to 10162
  157.6739  130.9076  150.0103 LP  0  0  0  0  0  0  0  0  0  0  0  0  # atno 17370 bound_to 10713
  156.1345  130.3643  149.9679 LP  0  0  0  0  0  0  0  0  0  0  0  0  # atno 17371 bound_to 10713
  140.2799  134.3362  155.7346 LP  0  0  0  0  0  0  0  0  0  0  0  0  # atno 17394 bound_to 11000
  141.2176  133.7472  156.9348 LP  0  0  0  0  0  0  0  0  0  0  0  0  # atno 17395 bound_to 11000

$$$$
