AV-unprocessed.smi:1205|AV-procd|sdf|5041|dock2
  -GOLD-   22720 4 63D 1   1.00000     0.00000
 Structure written by MMmdl.
 49 50  0  0  0  0  0  0  0  0  2 V2000
  137.4428  137.4023  154.6022 C   0  0  0  0  0  0  0  0  0  0  0  0
  138.7694  138.0216  154.2757 C   0  0  0  0  0  0  0  0  0  0  0  0
  139.9213  137.3889  153.7241 C   0  0  0  0  0  0  0  0  0  0  0  0
  140.8203  138.4172  153.6436 C   0  0  0  0  0  0  0  0  0  0  0  0
  142.1032  138.3982  153.1932 N   0  0  0  0  0  0  0  0  0  0  0  0
  143.0081  137.4077  153.2806 C   0  0  0  0  0  0  0  0  0  0  0  0
  142.8157  136.3052  153.7938 O   0  0  0  0  0  0  0  0  0  0  0  0
  144.1778  137.7671  152.7326 N   0  0  0  0  0  0  0  0  0  0  0  0
  145.3627  136.9170  152.6691 C   0  0  0  0  0  0  0  0  0  0  0  0
  145.3331  135.9410  151.4691 C   0  0  2  0  0  0  0  0  0  0  0  0
  143.8982  135.6010  151.0114 C   0  0  0  0  0  0  0  0  0  0  0  0
  146.1565  134.7299  151.7550 N   0  3  2  0  0  0  0  0  0  0  0  0
  146.0693  133.6893  150.6966 C   0  0  0  0  0  0  0  0  0  0  0  0
  147.1412  132.6080  150.9059 C   0  0  0  0  0  0  0  0  0  0  0  0
  147.0379  131.9897  152.3079 C   0  0  0  0  0  0  0  0  0  0  0  0
  147.0556  133.0727  153.4036 C   0  0  1  0  0  0  0  0  0  0  0  0
  148.4521  133.6826  153.6176 C   0  0  0  0  0  0  0  0  0  0  0  0
  145.9881  134.1480  153.1159 C   0  0  0  0  0  0  0  0  0  0  0  0
  140.2264  139.5653  154.1183 N   0  0  0  0  0  0  0  0  0  0  0  0
  140.7721  140.9033  154.2375 C   0  0  0  0  0  0  0  0  0  0  0  0
  138.9575  139.3158  154.5081 N   0  0  0  0  0  0  0  0  0  0  0  0
  137.4400  136.3358  154.3759 H   0  0  0  0  0  0  0  0  0  0  0  0
  136.6406  137.8658  154.0272 H   0  0  0  0  0  0  0  0  0  0  0  0
  137.2056  137.5169  155.6603 H   0  0  0  0  0  0  0  0  0  0  0  0
  140.0442  136.3537  153.4440 H   0  0  0  0  0  0  0  0  0  0  0  0
  142.4083  139.2426  152.7321 H   0  0  0  0  0  0  0  0  0  0  0  0
  144.2537  138.6897  152.3291 H   0  0  0  0  0  0  0  0  0  0  0  0
  146.2569  137.5417  152.6287 H   0  0  0  0  0  0  0  0  0  0  0  0
  145.4144  136.3699  153.6099 H   0  0  0  0  0  0  0  0  0  0  0  0
  145.8189  136.4575  150.6402 H   0  0  0  0  0  0  0  0  0  0  0  0
  143.3721  136.4935  150.6718 H   0  0  0  0  0  0  0  0  0  0  0  0
  143.3071  135.1665  151.8176 H   0  0  0  0  0  0  0  0  0  0  0  0
  143.8975  134.8984  150.1781 H   0  0  0  0  0  0  0  0  0  0  0  0
  145.0763  133.2379  150.6991 H   0  0  0  0  0  0  0  0  0  0  0  0
  146.2110  134.1401  149.7137 H   0  0  0  0  0  0  0  0  0  0  0  0
  147.0353  131.8297  150.1496 H   0  0  0  0  0  0  0  0  0  0  0  0
  148.1321  133.0399  150.7611 H   0  0  0  0  0  0  0  0  0  0  0  0
  146.1075  131.4245  152.3781 H   0  0  0  0  0  0  0  0  0  0  0  0
  147.8430  131.2711  152.4658 H   0  0  0  0  0  0  0  0  0  0  0  0
  146.7861  132.5874  154.3427 H   0  0  0  0  0  0  0  0  0  0  0  0
  148.8036  134.2173  152.7353 H   0  0  0  0  0  0  0  0  0  0  0  0
  149.1852  132.9096  153.8505 H   0  0  0  0  0  0  0  0  0  0  0  0
  148.4469  134.3883  154.4488 H   0  0  0  0  0  0  0  0  0  0  0  0
  146.0425  134.9241  153.8786 H   0  0  0  0  0  0  0  0  0  0  0  0
  144.9974  133.6992  153.1993 H   0  0  0  0  0  0  0  0  0  0  0  0
  141.1735  141.2229  153.2752 H   0  0  0  0  0  0  0  0  0  0  0  0
  141.5727  140.9062  154.9775 H   0  0  0  0  0  0  0  0  0  0  0  0
  139.9988  141.6076  154.5479 H   0  0  0  0  0  0  0  0  0  0  0  0
  147.1117  135.0558  151.7153 H   0  0  0  0  0  0  0  0  0  0  0  0
  1  2  1  0  0  0  0
  1 22  1  0  0  0  0
  1 23  1  0  0  0  0
  1 24  1  0  0  0  0
  2 21  2  0  0  0  0
  2  3  1  0  0  0  0
  3  4  2  0  0  0  0
  3 25  1  0  0  0  0
  4  5  1  0  0  0  0
  4 19  1  0  0  0  0
  5  6  1  0  0  0  0
  5 26  1  0  0  0  0
  6  7  2  0  0  0  0
  6  8  1  0  0  0  0
  8  9  1  0  0  0  0
  8 27  1  0  0  0  0
  9 10  1  0  0  0  0
  9 28  1  0  0  0  0
  9 29  1  0  0  0  0
 10 11  1  0  0  0  0
 10 12  1  0  0  0  0
 10 30  1  0  0  0  0
 11 31  1  0  0  0  0
 11 32  1  0  0  0  0
 11 33  1  0  0  0  0
 12 18  1  0  0  0  0
 12 13  1  0  0  0  0
 12 49  1  0  0  0  0
 13 14  1  0  0  0  0
 13 34  1  0  0  0  0
 13 35  1  0  0  0  0
 14 15  1  0  0  0  0
 14 36  1  0  0  0  0
 14 37  1  0  0  0  0
 15 16  1  0  0  0  0
 15 38  1  0  0  0  0
 15 39  1  0  0  0  0
 16 17  1  0  0  0  0
 16 18  1  0  0  0  0
 16 40  1  0  0  0  0
 17 41  1  0  0  0  0
 17 42  1  0  0  0  0
 17 43  1  0  0  0  0
 18 44  1  0  0  0  0
 18 45  1  0  0  0  0
 19 20  1  0  0  0  0
 19 21  1  0  0  0  0
 20 46  1  0  0  0  0
 20 47  1  0  0  0  0
 20 48  1  0  0  0  0
M  CHG  1  12   1
M  END
> <s_m_source_file>
AV-unprocessed.smi

> <i_m_source_file_index>
1205

> <i_lp_mmshare_version>
43012

> <i_f3d_flags>
0

> <s_epik_input>
W0NIM11jMVtjSF1jKG4objEpW0NIM10pW05IXUMoPU8pW05IXVtDSDJdW0NASF0oW0NIM10pTjJbQ0gyXVtDSDJdW0NIMl1bQ0BASF0oW0NIM10pW0NIMl0y

> <s_epik_cmdline>
J2VwaWtfcHl0aG9uJywgJy1waCcsICc3LjAnLCAnLXRuJywgJzgnLCAnLW1hJywgJzIwMCcsICctbWV0YWxfYmluZGluZycsICctaW1hZScsICc8aW5maWxlLm1hZT4nLCAnLW9tYWUnLCAnPG91dGZpbGUubWFlPic=

> <r_lp_tautomer_probability>
1

> <r_epik_Ionization_Penalty>
0.0020309

> <r_epik_Ionization_Penalty_Charging>
0.00195276

> <r_epik_Ionization_Penalty_Neutral>
7.81448e-05

> <r_epik_State_Penalty>
0.00133177

> <r_epik_Charging_Adjusted_Penalty>
0.00328452

> <i_epik_Tot_Q>
1

> <i_epik_Tot_abs_Q>
1

> <r_epik_Metal_State_Penalty>
-0

> <b_epik_Metal_Only>
0

> <s_lp_Force_Field>
OPLS_2005

> <r_lp_Energy>
24.2768

> <b_lp_Chiralities_Consistent>
1

> <s_lp_Variant>
AV-unprocessed.smi:1205-3

> <Gold.Version>
5.8.1

> <Gold.Id.Protein>
6NUR|6NUR_protein|mol2

> <Gold.PLP.Fitness>
42.4952

> <Gold.PLP.PLP>
-32.4811

> <Gold.PLP.part.hbond>
-3.6768

> <Gold.PLP.part.metal>
0.0000

> <Gold.PLP.part.buried>
0.2893

> <Gold.PLP.part.nonpolar>
-28.5727

> <Gold.PLP.part.repulsive>
0.1817

> <Gold.PLP.ligand.clash>
0.0000

> <Gold.PLP.ligand.torsion>
1.0078

> <Gold.PLP.Chemscore.Hbond>
3.9680

> <Gold.PLP.Chemscore.CHOScore>
0.0000

> <Gold.PLP.Chemscore.Metal>
0.0000

> <Gold.Chemscore.Hbonds>
donor molecule, donor type, donor heavy atom, donor atom, acceptor molecule, acceptor atom, score
      L1  H     5    26       P1 10175  1.00
      L1  H     8    27       P1 10175  0.90
      L1  H    12    49       P1  7948  1.43

> <Gold.PLP.Chemscore.Internal.Correction>
0.1256

> <Gold.Rescore>
     Score         DG    S(hbond)    S(metal)    S(lipo)     H(rot)  DE(clash)    DE(int)     intcor
     17.27     -19.27       2.95        0.00      65.71       1.47       0.34       1.67       ----

> <Gold.Chemscore.Fitness>
17.2693

> <Gold.Chemscore.DG>
-19.2725

> <Gold.Chemscore.ZeroCoef>
-5.4800

> <Gold.Chemscore.Hbond>
2.9513

> <Gold.Chemscore.Metal>
0.0000

> <Gold.Chemscore.Lipo>
65.7075

> <Gold.Chemscore.Internal_Hbond>
0.0000

> <Gold.Chemscore.DEClash>
0.3351

> <Gold.Chemscore.DEInternal>
1.6681

> <Gold.Chemscore.Rot>
1.4658

> <Gold.Chemscore.Internal.Correction>
   9.000000E+99

> <Gold.Chemscore.Hbonds>
donor molecule, donor type, donor heavy atom, donor atom, acceptor molecule, acceptor atom, score
      L1  H     5    26       P1 10175  0.92
      L1  H     8    27       P1 10175  0.86
      L1  H    12    49       P1  7948  0.66

> <Gold.Chemscore.Hbond.Weighted>
-9.8573

> <Gold.Chemscore.Metal.Weighted>
-0.0000

> <Gold.Chemscore.Lipo.Weighted>
-7.6878

> <Gold.Chemscore.Internal_Hbond.Weighted>
0.0000

> <Gold.Chemscore.DEClash.Weighted>
0.3351

> <Gold.Chemscore.DEInternal.Weighted>
1.6681

> <Gold.Chemscore.Rot.Weighted>
3.7526

> <Gold.Chemscore.Internal.Correction.Weighted>
   9.000000E+99

> <Gold.Protein.RotatedTorsions>
[ 6907 6896 6895 6894 ] final  -68.11 input  -60.11 | X-H torsion
[ 7974 7965 7964 7962 ] final  -37.86 input  175.53 | X-H torsion
[ 8008 7997 7996 7995 ] final -161.94 input   59.86 | X-H torsion
[ 10167 10162 10161 10158 ] final -104.65 input  -65.29 | X-H torsion
[ 10718 10713 10712 10709 ] final  119.33 input   66.30 | X-H torsion
[ 10763 10752 10751 10750 ] final -163.06 input  -60.55 | X-H torsion
[ 11005 11000 10999 10996 ] final   71.59 input  -57.11 | X-H torsion

> <Gold.Protein.ActiveResidues>
 VAL166  LYS551  ARG553  GLY616  TRP617  ASP618  TYR619  PRO620  LYS621  CYS622 
 ASP623  PHE694  ASN695  SER759  ASP760  ASP761  ALA762  ILE779  LEU786  VAL792 
 PHE793  MET794  SER795  GLU796  ALA797  LYS798  CYS799  TRP800  GLU811  SER814 

> <Gold.Protein.RotatedAtoms>
  150.7373  134.5785  159.5926 H   0  0  0  0  0  0  0  0  0  0  0  0  # atno 6907 bound_to 6896
  152.3205  134.7383  160.0324 H   0  0  0  0  0  0  0  0  0  0  0  0  # atno 6908 bound_to 6896
  151.7900  133.3322  159.3533 H   0  0  0  0  0  0  0  0  0  0  0  0  # atno 6909 bound_to 6896
  146.0537  140.6445  142.9029 H   0  0  0  0  0  0  0  0  0  0  0  0  # atno 7974 bound_to 7965
  155.7996  140.0890  157.1964 H   0  0  0  0  0  0  0  0  0  0  0  0  # atno 8008 bound_to 7997
  154.3982  140.1475  156.3317 H   0  0  0  0  0  0  0  0  0  0  0  0  # atno 8009 bound_to 7997
  155.8476  140.3436  155.5675 H   0  0  0  0  0  0  0  0  0  0  0  0  # atno 8010 bound_to 7997
  140.2070  143.3775  152.1082 H   0  0  0  0  0  0  0  0  0  0  0  0  # atno 10167 bound_to 10162
  157.5969  131.1056  150.7881 H   0  0  0  0  0  0  0  0  0  0  0  0  # atno 10718 bound_to 10713
  154.7158  135.3015  154.9126 H   0  0  0  0  0  0  0  0  0  0  0  0  # atno 10763 bound_to 10752
  154.0014  135.6706  153.4763 H   0  0  0  0  0  0  0  0  0  0  0  0  # atno 10764 bound_to 10752
  153.0792  135.5018  154.8383 H   0  0  0  0  0  0  0  0  0  0  0  0  # atno 10765 bound_to 10752
  139.9535  134.7184  156.0806 H   0  0  0  0  0  0  0  0  0  0  0  0  # atno 11005 bound_to 11000
  144.7136  140.4131  143.7061 LP  0  0  0  0  0  0  0  0  0  0  0  0  # atno 17320 bound_to 7965
  145.6680  139.1593  143.2771 LP  0  0  0  0  0  0  0  0  0  0  0  0  # atno 17321 bound_to 7965
  139.5195  144.7020  151.5466 LP  0  0  0  0  0  0  0  0  0  0  0  0  # atno 17342 bound_to 10162
  140.6350  143.9001  150.6639 LP  0  0  0  0  0  0  0  0  0  0  0  0  # atno 17343 bound_to 10162
  156.8289  130.5009  149.5334 LP  0  0  0  0  0  0  0  0  0  0  0  0  # atno 17370 bound_to 10713
  156.1034  130.5986  150.9931 LP  0  0  0  0  0  0  0  0  0  0  0  0  # atno 17371 bound_to 10713
  141.1203  133.6615  156.3198 LP  0  0  0  0  0  0  0  0  0  0  0  0  # atno 17394 bound_to 11000
  140.5662  134.5885  157.5446 LP  0  0  0  0  0  0  0  0  0  0  0  0  # atno 17395 bound_to 11000

$$$$
