AV-unprocessed.smi:2976|AV-procd|sdf|11364|dock5
  -GOLD-   2272016283D 1   1.00000     0.00000
 Structure written by MMmdl.
 40 41  0  0  0  0  0  0  0  0  1 V2000
  151.7090  145.3470  160.4181 C   0  0  0  0  0  0  0  0  0  0  0  0
  152.4988  144.0917  160.0024 C   0  0  1  0  0  0  0  0  0  0  0  0
  152.8251  143.2526  161.2542 C   0  0  0  0  0  0  0  0  0  0  0  0
  153.6370  141.9996  160.9085 C   0  0  0  0  0  0  0  0  0  0  0  0
  152.8921  141.1409  159.8822 C   0  0  0  0  0  0  0  0  0  0  0  0
  152.5678  141.9431  158.6095 C   0  0  1  0  0  0  0  0  0  0  0  0
  151.8201  141.0788  157.6960 N   0  0  0  0  0  0  0  0  0  0  0  0
  152.1099  139.8016  157.4017 C   0  0  0  0  0  0  0  0  0  0  0  0
  153.0703  139.1967  157.8808 O   0  0  0  0  0  0  0  0  0  0  0  0
  151.1641  139.1219  156.3997 C   0  0  0  0  0  0  0  0  0  0  0  0
  150.0450  139.9735  155.9688 N   0  0  0  0  0  0  0  0  0  0  0  0
  150.1116  140.3596  154.6414 N   0  0  0  0  0  0  0  0  0  0  0  0
  149.1749  141.0925  154.1459 C   0  0  0  0  0  0  0  0  0  0  0  0
  148.0453  141.5353  154.9329 C   0  0  0  0  0  0  0  0  0  0  0  0
  146.8183  142.5166  154.2125 Cl  0  0  0  0  0  0  0  0  0  0  0  0
  147.9928  141.1570  156.2350 C   0  0  0  0  0  0  0  0  0  0  0  0
  146.6737  141.6500  157.2407 Cl  0  0  0  0  0  0  0  0  0  0  0  0
  149.0431  140.3218  156.8342 C   0  0  0  0  0  0  0  0  0  0  0  0
  149.0320  139.9580  158.0108 O   0  0  0  0  0  0  0  0  0  0  0  0
  151.7686  143.2372  158.9267 C   0  0  2  0  0  0  0  0  0  0  0  0
  151.4880  144.0460  157.6408 C   0  0  0  0  0  0  0  0  0  0  0  0
  150.7079  145.0886  160.7647 H   0  0  0  0  0  0  0  0  0  0  0  0
  151.6093  146.0569  159.5977 H   0  0  0  0  0  0  0  0  0  0  0  0
  152.2127  145.8751  161.2283 H   0  0  0  0  0  0  0  0  0  0  0  0
  153.4461  144.4285  159.5783 H   0  0  0  0  0  0  0  0  0  0  0  0
  153.3850  143.8550  161.9708 H   0  0  0  0  0  0  0  0  0  0  0  0
  151.9005  142.9605  161.7543 H   0  0  0  0  0  0  0  0  0  0  0  0
  154.6115  142.2877  160.5120 H   0  0  0  0  0  0  0  0  0  0  0  0
  153.8276  141.4188  161.8114 H   0  0  0  0  0  0  0  0  0  0  0  0
  153.4954  140.2676  159.6306 H   0  0  0  0  0  0  0  0  0  0  0  0
  151.9708  140.7622  160.3276 H   0  0  0  0  0  0  0  0  0  0  0  0
  153.5154  142.2391  158.1553 H   0  0  0  0  0  0  0  0  0  0  0  0
  151.0139  141.4903  157.2485 H   0  0  0  0  0  0  0  0  0  0  0  0
  151.7424  138.7906  155.5352 H   0  0  0  0  0  0  0  0  0  0  0  0
  150.7807  138.2089  156.8592 H   0  0  0  0  0  0  0  0  0  0  0  0
  149.1843  141.4185  153.1057 H   0  0  0  0  0  0  0  0  0  0  0  0
  150.8043  142.9377  159.3409 H   0  0  0  0  0  0  0  0  0  0  0  0
  152.4133  144.4136  157.1963 H   0  0  0  0  0  0  0  0  0  0  0  0
  150.8442  144.9033  157.8320 H   0  0  0  0  0  0  0  0  0  0  0  0
  150.9766  143.4474  156.8873 H   0  0  0  0  0  0  0  0  0  0  0  0
  1  2  1  0  0  0  0
  1 22  1  0  0  0  0
  1 23  1  0  0  0  0
  1 24  1  0  0  0  0
  2 20  1  0  0  0  0
  2  3  1  0  0  0  0
  2 25  1  0  0  0  0
  3  4  1  0  0  0  0
  3 26  1  0  0  0  0
  3 27  1  0  0  0  0
  4  5  1  0  0  0  0
  4 28  1  0  0  0  0
  4 29  1  0  0  0  0
  5  6  1  0  0  0  0
  5 30  1  0  0  0  0
  5 31  1  0  0  0  0
  6  7  1  0  0  0  0
  6 20  1  0  0  0  0
  6 32  1  0  0  0  0
  7  8  1  0  0  0  0
  7 33  1  0  0  0  0
  8  9  2  0  0  0  0
  8 10  1  0  0  0  0
 10 11  1  0  0  0  0
 10 34  1  0  0  0  0
 10 35  1  0  0  0  0
 11 18  1  0  0  0  0
 11 12  1  0  0  0  0
 12 13  2  0  0  0  0
 13 14  1  0  0  0  0
 13 36  1  0  0  0  0
 14 15  1  0  0  0  0
 14 16  2  0  0  0  0
 16 17  1  0  0  0  0
 16 18  1  0  0  0  0
 18 19  2  0  0  0  0
 20 21  1  0  0  0  0
 20 37  1  0  0  0  0
 21 38  1  0  0  0  0
 21 39  1  0  0  0  0
 21 40  1  0  0  0  0
M  END
> <s_m_source_file>
AV-unprocessed.smi

> <i_m_source_file_index>
2976

> <i_lp_mmshare_version>
43012

> <i_f3d_flags>
0

> <s_epik_input>
W0NIM11bQ0BASF0xW0NIMl1bQ0gyXVtDSDJdW0NASF0oW0NASF0xW0NIM10pW05IXUMoPU8pW0NIMl1uMm5bY0hdYyhDbCljKENsKWMyPU8=

> <s_epik_cmdline>
J2VwaWtfcHl0aG9uJywgJy1waCcsICc3LjAnLCAnLXRuJywgJzgnLCAnLW1hJywgJzIwMCcsICctbWV0YWxfYmluZGluZycsICctaW1hZScsICc8aW5maWxlLm1hZT4nLCAnLW9tYWUnLCAnPG91dGZpbGUubWFlPic=

> <r_lp_tautomer_probability>
1

> <r_epik_Ionization_Penalty>
1.90777e-08

> <r_epik_Ionization_Penalty_Charging>
3.07942e-11

> <r_epik_Ionization_Penalty_Neutral>
1.90469e-08

> <r_epik_State_Penalty>
-0

> <r_epik_Charging_Adjusted_Penalty>
3.07942e-11

> <i_epik_Tot_Q>
0

> <i_epik_Tot_abs_Q>
0

> <r_epik_Metal_State_Penalty>
-0

> <b_epik_Metal_Only>
0

> <s_lp_Force_Field>
OPLS_2005

> <r_lp_Energy>
26.9637

> <b_lp_Chiralities_Consistent>
1

> <s_lp_Variant>
AV-unprocessed.smi:2976-6

> <Gold.Version>
5.8.1

> <Gold.Id.Protein>
6NUR|6NUR_protein|mol2

> <Gold.PLP.Fitness>
51.2708

> <Gold.PLP.PLP>
-42.8925

> <Gold.PLP.part.hbond>
-2.0000

> <Gold.PLP.part.metal>
0.0000

> <Gold.PLP.part.buried>
-4.1129

> <Gold.PLP.part.nonpolar>
-37.0219

> <Gold.PLP.part.repulsive>
0.1696

> <Gold.PLP.ligand.clash>
0.0000

> <Gold.PLP.ligand.torsion>
0.2393

> <Gold.PLP.Chemscore.Hbond>
1.9920

> <Gold.PLP.Chemscore.CHOScore>
0.9579

> <Gold.PLP.Chemscore.Metal>
0.0000

> <Gold.Chemscore.Hbonds>
donor molecule, donor type, donor heavy atom, donor atom, acceptor molecule, acceptor atom, score
      P1  H  7989  7998       L1    12  0.99
      P1  H  7997  8010       L1     9  1.00
      L1  C    13    36       P1  7957  0.95

> <Gold.PLP.Chemscore.Internal.Correction>
0.0070

> <Gold.Rescore>
     Score         DG    S(hbond)    S(metal)    S(lipo)     H(rot)  DE(clash)    DE(int)     intcor
     18.71     -20.63       1.63        0.00     115.48       1.49       0.22       1.70       ----

> <Gold.Chemscore.Fitness>
18.7071

> <Gold.Chemscore.DG>
-20.6286

> <Gold.Chemscore.ZeroCoef>
-5.4800

> <Gold.Chemscore.Hbond>
1.6296

> <Gold.Chemscore.Metal>
0.0000

> <Gold.Chemscore.Lipo>
115.4828

> <Gold.Chemscore.Internal_Hbond>
0.0000

> <Gold.Chemscore.DEClash>
0.2185

> <Gold.Chemscore.DEInternal>
1.7031

> <Gold.Chemscore.Rot>
1.4866

> <Gold.Chemscore.Internal.Correction>
   9.000000E+99

> <Gold.Chemscore.Hbonds>
donor molecule, donor type, donor heavy atom, donor atom, acceptor molecule, acceptor atom, score
      P1  H  7989  7998       L1    12  0.23
      P1  H  7997  8010       L1     9  0.39

> <Gold.Chemscore.Hbond.Weighted>
-5.4428

> <Gold.Chemscore.Metal.Weighted>
-0.0000

> <Gold.Chemscore.Lipo.Weighted>
-13.5115

> <Gold.Chemscore.Internal_Hbond.Weighted>
0.0000

> <Gold.Chemscore.DEClash.Weighted>
0.2185

> <Gold.Chemscore.DEInternal.Weighted>
1.7031

> <Gold.Chemscore.Rot.Weighted>
3.8057

> <Gold.Chemscore.Internal.Correction.Weighted>
   9.000000E+99

> <Gold.Protein.RotatedTorsions>
[ 6907 6896 6895 6894 ] final  -36.88 input  -60.11 | X-H torsion
[ 7974 7965 7964 7962 ] final  170.92 input  175.53 | X-H torsion
[ 8008 7997 7996 7995 ] final   34.77 input   59.86 | X-H torsion
[ 10167 10162 10161 10158 ] final  153.17 input  -65.29 | X-H torsion
[ 10718 10713 10712 10709 ] final  149.41 input   66.30 | X-H torsion
[ 10763 10752 10751 10750 ] final   41.47 input  -60.55 | X-H torsion
[ 11005 11000 10999 10996 ] final   -3.93 input  -57.11 | X-H torsion

> <Gold.Protein.ActiveResidues>
 VAL166  LYS551  ARG553  GLY616  TRP617  ASP618  TYR619  PRO620  LYS621  CYS622 
 ASP623  PHE694  ASN695  SER759  ASP760  ASP761  ALA762  ILE779  LEU786  VAL792 
 PHE793  MET794  SER795  GLU796  ALA797  LYS798  CYS799  TRP800  GLU811  SER814 

> <Gold.Protein.RotatedAtoms>
  151.0216  134.9473  159.8062 H   0  0  0  0  0  0  0  0  0  0  0  0  # atno 6907 bound_to 6896
  152.5326  134.2896  159.9048 H   0  0  0  0  0  0  0  0  0  0  0  0  # atno 6908 bound_to 6896
  151.2903  133.4126  159.2667 H   0  0  0  0  0  0  0  0  0  0  0  0  # atno 6909 bound_to 6896
  144.7310  139.9273  143.6423 H   0  0  0  0  0  0  0  0  0  0  0  0  # atno 7974 bound_to 7965
  155.1603  140.3283  155.4413 H   0  0  0  0  0  0  0  0  0  0  0  0  # atno 8008 bound_to 7997
  156.2545  140.1961  156.6661 H   0  0  0  0  0  0  0  0  0  0  0  0  # atno 8009 bound_to 7997
  154.6410  140.0570  156.9832 H   0  0  0  0  0  0  0  0  0  0  0  0  # atno 8010 bound_to 7997
  139.4828  144.5296  151.7745 H   0  0  0  0  0  0  0  0  0  0  0  0  # atno 10167 bound_to 10162
  157.2964  131.0863  151.1423 H   0  0  0  0  0  0  0  0  0  0  0  0  # atno 10718 bound_to 10713
  152.9907  135.6161  154.2792 H   0  0  0  0  0  0  0  0  0  0  0  0  # atno 10763 bound_to 10752
  154.2522  135.2785  155.2814 H   0  0  0  0  0  0  0  0  0  0  0  0  # atno 10764 bound_to 10752
  154.5278  135.5796  153.6791 H   0  0  0  0  0  0  0  0  0  0  0  0  # atno 10765 bound_to 10752
  140.6747  133.9206  155.8517 H   0  0  0  0  0  0  0  0  0  0  0  0  # atno 11005 bound_to 11000
  146.0884  139.3873  143.0421 LP  0  0  0  0  0  0  0  0  0  0  0  0  # atno 17320 bound_to 7965
  145.7744  140.9883  143.1132 LP  0  0  0  0  0  0  0  0  0  0  0  0  # atno 17321 bound_to 7965
  140.4820  144.1436  150.5934 LP  0  0  0  0  0  0  0  0  0  0  0  0  # atno 17342 bound_to 10162
  140.4267  143.2586  151.9647 LP  0  0  0  0  0  0  0  0  0  0  0  0  # atno 17343 bound_to 10162
  157.2799  130.6745  149.6061 LP  0  0  0  0  0  0  0  0  0  0  0  0  # atno 17370 bound_to 10713
  155.9669  130.4453  150.5495 LP  0  0  0  0  0  0  0  0  0  0  0  0  # atno 17371 bound_to 10713
  141.0365  134.0683  157.3953 LP  0  0  0  0  0  0  0  0  0  0  0  0  # atno 17394 bound_to 11000
  139.8970  135.0148  156.7081 LP  0  0  0  0  0  0  0  0  0  0  0  0  # atno 17395 bound_to 11000

$$$$
