AV-unprocessed.smi:1375|AV-procd|sdf|5589|dock7
  -GOLD-   22720 5193D 1   1.00000     0.00000
 Structure written by MMmdl.
 36 37  0  0  0  0  0  0  0  0  1 V2000
  153.6277  143.3744  164.0096 C   0  0  0  0  0  0  0  0  0  0  0  0
  153.3348  143.0359  162.5881 C   0  0  0  0  0  0  0  0  0  0  0  0
  152.5993  143.8047  161.7809 N   0  0  0  0  0  0  0  0  0  0  0  0
  152.4707  143.2679  160.4959 C   0  0  0  0  0  0  0  0  0  0  0  0
  151.6808  143.9994  159.4535 C   0  0  0  0  0  0  0  0  0  0  0  0
  152.0712  143.5777  158.0272 C   0  0  0  0  0  0  0  0  0  0  0  0
  150.8980  143.3883  157.1824 N   0  0  0  0  0  0  0  0  0  0  0  0
  150.3867  142.1978  156.8260 C   0  0  0  0  0  0  0  0  0  0  0  0
  150.8667  141.1216  157.1773 O   0  0  0  0  0  0  0  0  0  0  0  0
  149.2883  142.2666  156.0528 N   0  0  0  0  0  0  0  0  0  0  0  0
  148.5023  141.1596  155.5029 C   0  0  0  0  0  0  0  0  0  0  0  0
  148.5960  141.0940  153.9630 C   0  0  0  0  0  0  0  0  0  0  0  0
  147.1575  140.9965  153.4520 C   0  0  0  0  0  0  0  0  0  0  0  0
  146.3329  141.7218  154.5100 C   0  0  0  0  0  0  0  0  0  0  0  0
  147.0093  141.3484  155.8292 C   0  0  0  0  0  0  0  0  0  0  0  0
  153.1284  142.0731  160.3406 C   0  0  0  0  0  0  0  0  0  0  0  0
  153.9315  141.5779  161.8049 S   0  0  0  0  0  0  0  0  0  0  0  0
  153.0272  144.2249  164.3341 H   0  0  0  0  0  0  0  0  0  0  0  0
  154.6821  143.6270  164.1220 H   0  0  0  0  0  0  0  0  0  0  0  0
  153.4004  142.5224  164.6503 H   0  0  0  0  0  0  0  0  0  0  0  0
  150.6159  143.8233  159.6101 H   0  0  0  0  0  0  0  0  0  0  0  0
  151.8240  145.0748  159.5670 H   0  0  0  0  0  0  0  0  0  0  0  0
  152.6956  144.3453  157.5693 H   0  0  0  0  0  0  0  0  0  0  0  0
  152.6677  142.6640  158.0483 H   0  0  0  0  0  0  0  0  0  0  0  0
  150.4359  144.2218  156.8491 H   0  0  0  0  0  0  0  0  0  0  0  0
  148.9527  143.1930  155.8319 H   0  0  0  0  0  0  0  0  0  0  0  0
  148.8357  140.2194  155.9457 H   0  0  0  0  0  0  0  0  0  0  0  0
  149.0510  142.0030  153.5664 H   0  0  0  0  0  0  0  0  0  0  0  0
  149.2055  140.2560  153.6234 H   0  0  0  0  0  0  0  0  0  0  0  0
  147.0357  141.4248  152.4568 H   0  0  0  0  0  0  0  0  0  0  0  0
  146.8537  139.9499  153.4043 H   0  0  0  0  0  0  0  0  0  0  0  0
  146.3996  142.7993  154.3539 H   0  0  0  0  0  0  0  0  0  0  0  0
  145.2786  141.4450  154.4852 H   0  0  0  0  0  0  0  0  0  0  0  0
  146.5982  140.4030  156.1856 H   0  0  0  0  0  0  0  0  0  0  0  0
  146.8247  142.0896  156.6084 H   0  0  0  0  0  0  0  0  0  0  0  0
  153.1903  141.4576  159.4554 H   0  0  0  0  0  0  0  0  0  0  0  0
  1  2  1  0  0  0  0
  1 18  1  0  0  0  0
  1 19  1  0  0  0  0
  1 20  1  0  0  0  0
  2 17  1  0  0  0  0
  2  3  2  0  0  0  0
  3  4  1  0  0  0  0
  4  5  1  0  0  0  0
  4 16  2  0  0  0  0
  5  6  1  0  0  0  0
  5 21  1  0  0  0  0
  5 22  1  0  0  0  0
  6  7  1  0  0  0  0
  6 23  1  0  0  0  0
  6 24  1  0  0  0  0
  7  8  1  0  0  0  0
  7 25  1  0  0  0  0
  8  9  2  0  0  0  0
  8 10  1  0  0  0  0
 10 11  1  0  0  0  0
 10 26  1  0  0  0  0
 11 15  1  0  0  0  0
 11 12  1  0  0  0  0
 11 27  1  0  0  0  0
 12 13  1  0  0  0  0
 12 28  1  0  0  0  0
 12 29  1  0  0  0  0
 13 14  1  0  0  0  0
 13 30  1  0  0  0  0
 13 31  1  0  0  0  0
 14 15  1  0  0  0  0
 14 32  1  0  0  0  0
 14 33  1  0  0  0  0
 15 34  1  0  0  0  0
 15 35  1  0  0  0  0
 16 17  1  0  0  0  0
 16 36  1  0  0  0  0
M  END
> <s_m_source_file>
AV-unprocessed.smi

> <i_m_source_file_index>
1375

> <i_lp_mmshare_version>
43012

> <i_f3d_flags>
0

> <s_epik_input>
W0NIM11jMW5jKFtjSF1zMSlbQ0gyXVtDSDJdW05IXUMoPU8pW05IXVtDSF0yW0NIMl1bQ0gyXVtDSDJdW0NIMl0y

> <s_epik_cmdline>
J2VwaWtfcHl0aG9uJywgJy1waCcsICc3LjAnLCAnLXRuJywgJzgnLCAnLW1hJywgJzIwMCcsICctbWV0YWxfYmluZGluZycsICctaW1hZScsICc8aW5maWxlLm1hZT4nLCAnLW9tYWUnLCAnPG91dGZpbGUubWFlPic=

> <r_epik_Ionization_Penalty>
0.00202185

> <r_epik_Ionization_Penalty_Charging>
0

> <r_epik_Ionization_Penalty_Neutral>
0.00202185

> <r_epik_State_Penalty>
0.00133629

> <r_epik_Charging_Adjusted_Penalty>
0.00133629

> <i_epik_Tot_Q>
0

> <i_epik_Tot_abs_Q>
0

> <r_epik_Metal_State_Penalty>
-0

> <b_epik_Metal_Only>
0

> <s_lp_Force_Field>
OPLS_2005

> <r_lp_Energy>
21.3593

> <b_lp_Chiralities_Consistent>
1

> <s_lp_Variant>
AV-unprocessed.smi:1375-1

> <Gold.Version>
5.8.1

> <Gold.Id.Protein>
6NUR|6NUR_protein|mol2

> <Gold.PLP.Fitness>
44.0759

> <Gold.PLP.PLP>
-40.2047

> <Gold.PLP.part.hbond>
-1.9431

> <Gold.PLP.part.metal>
0.0000

> <Gold.PLP.part.buried>
-2.7628

> <Gold.PLP.part.nonpolar>
-34.5830

> <Gold.PLP.part.repulsive>
0.2734

> <Gold.PLP.ligand.clash>
0.0000

> <Gold.PLP.ligand.torsion>
0.7755

> <Gold.PLP.Chemscore.Hbond>
1.8000

> <Gold.PLP.Chemscore.CHOScore>
0.0000

> <Gold.PLP.Chemscore.Metal>
0.0000

> <Gold.Chemscore.Hbonds>
donor molecule, donor type, donor heavy atom, donor atom, acceptor molecule, acceptor atom, score
      L1  H     7    25       P1  8028  0.80
      L1  H    10    26       P1  8028  1.00

> <Gold.PLP.Chemscore.Internal.Correction>
0.0221

> <Gold.Rescore>
     Score         DG    S(hbond)    S(metal)    S(lipo)     H(rot)  DE(clash)    DE(int)     intcor
     20.01     -20.85       1.85        0.00     111.56       1.51       0.23       0.61       ----

> <Gold.Chemscore.Fitness>
20.0130

> <Gold.Chemscore.DG>
-20.8507

> <Gold.Chemscore.ZeroCoef>
-5.4800

> <Gold.Chemscore.Hbond>
1.8485

> <Gold.Chemscore.Metal>
0.0000

> <Gold.Chemscore.Lipo>
111.5570

> <Gold.Chemscore.Internal_Hbond>
0.0000

> <Gold.Chemscore.DEClash>
0.2267

> <Gold.Chemscore.DEInternal>
0.6111

> <Gold.Chemscore.Rot>
1.5060

> <Gold.Chemscore.Internal.Correction>
   9.000000E+99

> <Gold.Chemscore.Hbonds>
donor molecule, donor type, donor heavy atom, donor atom, acceptor molecule, acceptor atom, score
      L1  H     7    25       P1  8028  0.75
      L1  H    10    26       P1  8028  0.93

> <Gold.Chemscore.Hbond.Weighted>
-6.1738

> <Gold.Chemscore.Metal.Weighted>
-0.0000

> <Gold.Chemscore.Lipo.Weighted>
-13.0522

> <Gold.Chemscore.Internal_Hbond.Weighted>
0.0000

> <Gold.Chemscore.DEClash.Weighted>
0.2267

> <Gold.Chemscore.DEInternal.Weighted>
0.6111

> <Gold.Chemscore.Rot.Weighted>
3.8553

> <Gold.Chemscore.Internal.Correction.Weighted>
   9.000000E+99

> <Gold.Protein.RotatedTorsions>
[ 6907 6896 6895 6894 ] final  -50.54 input  -60.11 | X-H torsion
[ 7974 7965 7964 7962 ] final   90.03 input  175.53 | X-H torsion
[ 8008 7997 7996 7995 ] final  120.30 input   59.86 | X-H torsion
[ 10167 10162 10161 10158 ] final -117.90 input  -65.29 | X-H torsion
[ 10718 10713 10712 10709 ] final -134.96 input   66.30 | X-H torsion
[ 10763 10752 10751 10750 ] final  -12.06 input  -60.55 | X-H torsion
[ 11005 11000 10999 10996 ] final  -85.82 input  -57.11 | X-H torsion

> <Gold.Protein.ActiveResidues>
 VAL166  LYS551  ARG553  GLY616  TRP617  ASP618  TYR619  PRO620  LYS621  CYS622 
 ASP623  PHE694  ASN695  SER759  ASP760  ASP761  ALA762  ILE779  LEU786  VAL792 
 PHE793  MET794  SER795  GLU796  ALA797  LYS798  CYS799  TRP800  GLU811  SER814 

> <Gold.Protein.RotatedAtoms>
  150.8698  134.8069  159.7145 H   0  0  0  0  0  0  0  0  0  0  0  0  # atno 6907 bound_to 6896
  152.4706  134.4965  159.9721 H   0  0  0  0  0  0  0  0  0  0  0  0  # atno 6908 bound_to 6896
  151.5056  133.3457  159.2912 H   0  0  0  0  0  0  0  0  0  0  0  0  # atno 6909 bound_to 6896
  145.5245  139.2280  143.2653 H   0  0  0  0  0  0  0  0  0  0  0  0  # atno 7974 bound_to 7965
  156.2636  140.2834  156.1129 H   0  0  0  0  0  0  0  0  0  0  0  0  # atno 8008 bound_to 7997
  155.1238  140.0392  157.2774 H   0  0  0  0  0  0  0  0  0  0  0  0  # atno 8009 bound_to 7997
  154.6650  140.2575  155.7074 H   0  0  0  0  0  0  0  0  0  0  0  0  # atno 8010 bound_to 7997
  140.0634  143.4946  152.2019 H   0  0  0  0  0  0  0  0  0  0  0  0  # atno 10167 bound_to 10162
  156.2611  130.7210  151.1144 H   0  0  0  0  0  0  0  0  0  0  0  0  # atno 10718 bound_to 10713
  153.4929  135.7017  153.5874 H   0  0  0  0  0  0  0  0  0  0  0  0  # atno 10763 bound_to 10752
  153.4039  135.3865  155.2006 H   0  0  0  0  0  0  0  0  0  0  0  0  # atno 10764 bound_to 10752
  154.8715  135.3888  154.4391 H   0  0  0  0  0  0  0  0  0  0  0  0  # atno 10765 bound_to 10752
  141.1637  133.7420  156.9070 H   0  0  0  0  0  0  0  0  0  0  0  0  # atno 11005 bound_to 11000
  146.2085  140.6058  142.9070 LP  0  0  0  0  0  0  0  0  0  0  0  0  # atno 17320 bound_to 7965
  144.7658  140.5528  143.6704 LP  0  0  0  0  0  0  0  0  0  0  0  0  # atno 17321 bound_to 7965
  139.5880  144.7539  151.3472 LP  0  0  0  0  0  0  0  0  0  0  0  0  # atno 17342 bound_to 10162
  140.7161  143.7263  150.7658 LP  0  0  0  0  0  0  0  0  0  0  0  0  # atno 17343 bound_to 10162
  157.7251  131.0655  150.5969 LP  0  0  0  0  0  0  0  0  0  0  0  0  # atno 17370 bound_to 10713
  156.6056  130.4366  149.5879 LP  0  0  0  0  0  0  0  0  0  0  0  0  # atno 17371 bound_to 10713
  140.1543  134.9209  157.2633 LP  0  0  0  0  0  0  0  0  0  0  0  0  # atno 17394 bound_to 11000
  140.2686  134.3487  155.7381 LP  0  0  0  0  0  0  0  0  0  0  0  0  # atno 17395 bound_to 11000

$$$$
