AV-unprocessed.smi:3205|AV-procd|sdf|12255|dock2
  -GOLD-   2272018 93D 1   1.00000     0.00000
 Structure written by MMmdl.
 38 39  0  0  0  0  0  0  0  0  2 V2000
  148.7116  142.0405  158.3493 C   0  0  0  0  0  0  0  0  0  0  0  0
  149.8236  141.5642  157.3939 C   0  0  1  0  0  0  0  0  0  0  0  0
  149.4653  141.9079  155.9988 N   0  3  0  0  0  0  0  0  0  0  0  0
  148.4568  141.0344  155.3608 C   0  0  0  0  0  0  0  0  0  0  0  0
  148.9341  140.5433  153.9851 C   0  0  0  0  0  0  0  0  0  0  0  0
  150.1737  139.7918  154.0739 N   0  0  0  0  0  0  0  0  0  0  0  0
  150.4001  138.4706  153.7501 C   0  0  0  0  0  0  0  0  0  0  0  0
  151.7142  138.2080  154.0124 C   0  0  0  0  0  0  0  0  0  0  0  0
  152.2172  139.4471  154.4983 C   0  0  0  0  0  0  0  0  0  0  0  0
  151.2919  140.3926  154.5361 N   0  0  0  0  0  0  0  0  0  0  0  0
  151.2133  142.1636  157.7361 C   0  0  0  0  0  0  0  0  0  0  0  0
  151.7971  141.5571  159.0315 C   0  0  0  0  0  0  0  0  0  0  0  0
  153.1400  142.2071  159.3999 C   0  0  0  0  0  0  0  0  0  0  0  0
  152.9730  143.6115  159.5423 O   0  0  0  0  0  0  0  0  0  0  0  0
  152.5589  144.2386  158.3354 C   0  0  0  0  0  0  0  0  0  0  0  0
  151.1864  143.6977  157.9027 C   0  0  0  0  0  0  0  0  0  0  0  0
  148.8888  141.7108  159.3725 H   0  0  0  0  0  0  0  0  0  0  0  0
  147.7381  141.6413  158.0659 H   0  0  0  0  0  0  0  0  0  0  0  0
  148.6333  143.1282  158.3564 H   0  0  0  0  0  0  0  0  0  0  0  0
  149.9019  140.4785  157.4687 H   0  0  0  0  0  0  0  0  0  0  0  0
  149.1565  142.8686  155.9579 H   0  0  0  0  0  0  0  0  0  0  0  0
  148.2470  140.1773  156.0024 H   0  0  0  0  0  0  0  0  0  0  0  0
  147.5229  141.5843  155.2465 H   0  0  0  0  0  0  0  0  0  0  0  0
  148.1765  139.8966  153.5405 H   0  0  0  0  0  0  0  0  0  0  0  0
  149.0706  141.3810  153.2993 H   0  0  0  0  0  0  0  0  0  0  0  0
  149.6168  137.8336  153.3661 H   0  0  0  0  0  0  0  0  0  0  0  0
  152.2372  137.2729  153.8768 H   0  0  0  0  0  0  0  0  0  0  0  0
  153.2190  139.6855  154.8236 H   0  0  0  0  0  0  0  0  0  0  0  0
  151.8964  141.9307  156.9174 H   0  0  0  0  0  0  0  0  0  0  0  0
  151.0946  141.6950  159.8544 H   0  0  0  0  0  0  0  0  0  0  0  0
  151.9441  140.4819  158.9272 H   0  0  0  0  0  0  0  0  0  0  0  0
  153.5059  141.8000  160.3427 H   0  0  0  0  0  0  0  0  0  0  0  0
  153.8983  141.9921  158.6452 H   0  0  0  0  0  0  0  0  0  0  0  0
  152.5006  145.3144  158.5018 H   0  0  0  0  0  0  0  0  0  0  0  0
  153.3040  144.0782  157.5546 H   0  0  0  0  0  0  0  0  0  0  0  0
  150.9038  144.1852  156.9702 H   0  0  0  0  0  0  0  0  0  0  0  0
  150.4366  143.9776  158.6439 H   0  0  0  0  0  0  0  0  0  0  0  0
  150.3076  141.8244  155.4466 H   0  0  0  0  0  0  0  0  0  0  0  0
  1  2  1  0  0  0  0
  1 17  1  0  0  0  0
  1 18  1  0  0  0  0
  1 19  1  0  0  0  0
  2  3  1  0  0  0  0
  2 11  1  0  0  0  0
  2 20  1  0  0  0  0
  3  4  1  0  0  0  0
  3 21  1  0  0  0  0
  3 38  1  0  0  0  0
  4  5  1  0  0  0  0
  4 22  1  0  0  0  0
  4 23  1  0  0  0  0
  5  6  1  0  0  0  0
  5 24  1  0  0  0  0
  5 25  1  0  0  0  0
  6 10  1  0  0  0  0
  6  7  1  0  0  0  0
  7  8  2  0  0  0  0
  7 26  1  0  0  0  0
  8  9  1  0  0  0  0
  8 27  1  0  0  0  0
  9 10  2  0  0  0  0
  9 28  1  0  0  0  0
 11 16  1  0  0  0  0
 11 12  1  0  0  0  0
 11 29  1  0  0  0  0
 12 13  1  0  0  0  0
 12 30  1  0  0  0  0
 12 31  1  0  0  0  0
 13 14  1  0  0  0  0
 13 32  1  0  0  0  0
 13 33  1  0  0  0  0
 14 15  1  0  0  0  0
 15 16  1  0  0  0  0
 15 34  1  0  0  0  0
 15 35  1  0  0  0  0
 16 36  1  0  0  0  0
 16 37  1  0  0  0  0
M  CHG  1   3   1
M  END
> <s_m_source_file>
AV-unprocessed.smi

> <i_m_source_file_index>
3205

> <i_lp_mmshare_version>
43012

> <i_f3d_flags>
0

> <s_epik_input>
W0NIMl0xW0NIMl1PW0NIMl1bQ0gyXVtDSF0xW0NASF0oW0NIM10pW05IXVtDSDJdW0NIMl1uMltjSF1bY0hdW2NIXW4y

> <s_epik_cmdline>
J2VwaWtfcHl0aG9uJywgJy1waCcsICc3LjAnLCAnLXRuJywgJzgnLCAnLW1hJywgJzIwMCcsICctbWV0YWxfYmluZGluZycsICctaW1hZScsICc8aW5maWxlLm1hZT4nLCAnLW9tYWUnLCAnPG91dGZpbGUubWFlPic=

> <r_lp_tautomer_probability>
1

> <r_epik_Ionization_Penalty>
0.00310903

> <r_epik_Ionization_Penalty_Charging>
0.00310601

> <r_epik_Ionization_Penalty_Neutral>
3.02836e-06

> <r_epik_State_Penalty>
-0

> <r_epik_Charging_Adjusted_Penalty>
0.00310601

> <i_epik_Tot_Q>
1

> <i_epik_Tot_abs_Q>
1

> <r_epik_Metal_State_Penalty>
-0

> <b_epik_Metal_Only>
0

> <s_lp_Force_Field>
OPLS_2005

> <r_lp_Energy>
14.7607

> <b_lp_Chiralities_Consistent>
1

> <s_lp_Variant>
AV-unprocessed.smi:3205-2

> <Gold.Version>
5.8.1

> <Gold.Id.Protein>
6NUR|6NUR_protein|mol2

> <Gold.PLP.Fitness>
48.2622

> <Gold.PLP.PLP>
-37.6321

> <Gold.PLP.part.hbond>
-2.0000

> <Gold.PLP.part.metal>
0.0000

> <Gold.PLP.part.buried>
-2.6887

> <Gold.PLP.part.nonpolar>
-33.3352

> <Gold.PLP.part.repulsive>
0.1681

> <Gold.PLP.ligand.clash>
0.0000

> <Gold.PLP.ligand.torsion>
0.6771

> <Gold.PLP.Chemscore.Hbond>
2.9500

> <Gold.PLP.Chemscore.CHOScore>
1.0000

> <Gold.PLP.Chemscore.Metal>
0.0000

> <Gold.Chemscore.Hbonds>
donor molecule, donor type, donor heavy atom, donor atom, acceptor molecule, acceptor atom, score
      L1  H     3    21       P1  8028  2.00
      P1  H  7989  7998       L1    10  0.08
      L1  C     7    26       P1  7948  1.00

> <Gold.PLP.Chemscore.Internal.Correction>
0.1344

> <Gold.Rescore>
     Score         DG    S(hbond)    S(metal)    S(lipo)     H(rot)  DE(clash)    DE(int)     intcor
     17.35     -18.91       1.98        0.00      94.71       1.66       0.05       1.51       ----

> <Gold.Chemscore.Fitness>
17.3451

> <Gold.Chemscore.DG>
-18.9134

> <Gold.Chemscore.ZeroCoef>
-5.4800

> <Gold.Chemscore.Hbond>
1.9763

> <Gold.Chemscore.Metal>
0.0000

> <Gold.Chemscore.Lipo>
94.7081

> <Gold.Chemscore.Internal_Hbond>
0.0000

> <Gold.Chemscore.DEClash>
0.0536

> <Gold.Chemscore.DEInternal>
1.5148

> <Gold.Chemscore.Rot>
1.6594

> <Gold.Chemscore.Internal.Correction>
   9.000000E+99

> <Gold.Chemscore.Hbonds>
donor molecule, donor type, donor heavy atom, donor atom, acceptor molecule, acceptor atom, score
      L1  H     3    21       P1  8028  1.00

> <Gold.Chemscore.Hbond.Weighted>
-6.6008

> <Gold.Chemscore.Metal.Weighted>
-0.0000

> <Gold.Chemscore.Lipo.Weighted>
-11.0808

> <Gold.Chemscore.Internal_Hbond.Weighted>
0.0000

> <Gold.Chemscore.DEClash.Weighted>
0.0536

> <Gold.Chemscore.DEInternal.Weighted>
1.5148

> <Gold.Chemscore.Rot.Weighted>
4.2482

> <Gold.Chemscore.Internal.Correction.Weighted>
   9.000000E+99

> <Gold.Protein.RotatedTorsions>
[ 6907 6896 6895 6894 ] final  -31.68 input  -60.11 | X-H torsion
[ 7974 7965 7964 7962 ] final -163.74 input  175.53 | X-H torsion
[ 8008 7997 7996 7995 ] final -126.26 input   59.86 | X-H torsion
[ 10167 10162 10161 10158 ] final  149.41 input  -65.29 | X-H torsion
[ 10718 10713 10712 10709 ] final   96.81 input   66.30 | X-H torsion
[ 10763 10752 10751 10750 ] final  -38.17 input  -60.55 | X-H torsion
[ 11005 11000 10999 10996 ] final  -38.67 input  -57.11 | X-H torsion

> <Gold.Protein.ActiveResidues>
 VAL166  LYS551  ARG553  GLY616  TRP617  ASP618  TYR619  PRO620  LYS621  CYS622 
 ASP623  PHE694  ASN695  SER759  ASP760  ASP761  ALA762  ILE779  LEU786  VAL792 
 PHE793  MET794  SER795  GLU796  ALA797  LYS798  CYS799  TRP800  GLU811  SER814 

> <Gold.Protein.RotatedAtoms>
  151.0889  134.9904  159.8392 H   0  0  0  0  0  0  0  0  0  0  0  0  # atno 6907 bound_to 6896
  152.5427  134.2090  159.8752 H   0  0  0  0  0  0  0  0  0  0  0  0  # atno 6908 bound_to 6896
  151.2125  133.4504  159.2632 H   0  0  0  0  0  0  0  0  0  0  0  0  # atno 6909 bound_to 6896
  144.7317  140.3063  143.6196 H   0  0  0  0  0  0  0  0  0  0  0  0  # atno 7974 bound_to 7965
  155.2267  140.0424  157.2956 H   0  0  0  0  0  0  0  0  0  0  0  0  # atno 8008 bound_to 7997
  154.5914  140.2428  155.7885 H   0  0  0  0  0  0  0  0  0  0  0  0  # atno 8009 bound_to 7997
  156.2262  140.2954  156.0081 H   0  0  0  0  0  0  0  0  0  0  0  0  # atno 8010 bound_to 7997
  139.4862  144.5604  151.7241 H   0  0  0  0  0  0  0  0  0  0  0  0  # atno 10167 bound_to 10162
  157.6922  131.0590  150.4548 H   0  0  0  0  0  0  0  0  0  0  0  0  # atno 10718 bound_to 10713
  153.9084  135.6795  153.4752 H   0  0  0  0  0  0  0  0  0  0  0  0  # atno 10763 bound_to 10752
  153.1092  135.4791  154.9002 H   0  0  0  0  0  0  0  0  0  0  0  0  # atno 10764 bound_to 10752
  154.7540  135.3192  154.8460 H   0  0  0  0  0  0  0  0  0  0  0  0  # atno 10765 bound_to 10752
  141.0045  133.6938  156.2084 H   0  0  0  0  0  0  0  0  0  0  0  0  # atno 11005 bound_to 11000
  145.7710  139.1857  143.2212 LP  0  0  0  0  0  0  0  0  0  0  0  0  # atno 17320 bound_to 7965
  146.0911  140.7655  142.9595 LP  0  0  0  0  0  0  0  0  0  0  0  0  # atno 17321 bound_to 7965
  140.5173  144.0933  150.6012 LP  0  0  0  0  0  0  0  0  0  0  0  0  # atno 17342 bound_to 10162
  140.3879  143.2768  152.0094 LP  0  0  0  0  0  0  0  0  0  0  0  0  # atno 17343 bound_to 10162
  156.4896  130.4092  149.6414 LP  0  0  0  0  0  0  0  0  0  0  0  0  # atno 17370 bound_to 10713
  156.3429  130.7391  151.2339 LP  0  0  0  0  0  0  0  0  0  0  0  0  # atno 17371 bound_to 10713
  140.6835  134.4742  157.5589 LP  0  0  0  0  0  0  0  0  0  0  0  0  # atno 17394 bound_to 11000
  139.9056  134.8457  156.1720 LP  0  0  0  0  0  0  0  0  0  0  0  0  # atno 17395 bound_to 11000

$$$$
