AV-unprocessed.smi:881|AV-procd|sdf|4035|dock3
  -GOLD-   22720 1523D 1   1.00000     0.00000
 Structure written by MMmdl.
 32 33  0  0  0  0  0  0  0  0  1 V2000
  150.5226  140.6289  156.1998 O   0  0  0  0  0  0  0  0  0  0  0  0
  149.9210  141.6972  156.0844 C   0  0  0  0  0  0  0  0  0  0  0  0
  148.8491  141.9050  155.2995 N   0  0  0  0  0  0  0  0  0  0  0  0
  148.1939  140.9826  154.4412 C   0  0  0  0  0  0  0  0  0  0  0  0
  148.5838  139.7081  154.2798 N   0  0  0  0  0  0  0  0  0  0  0  0
  147.7727  139.0262  153.3819 N   0  0  0  0  0  0  0  0  0  0  0  0
  146.8044  139.8118  152.9019 C   0  0  0  0  0  0  0  0  0  0  0  0
  146.7888  141.4622  153.4997 S   0  0  0  0  0  0  0  0  0  0  0  0
  150.2625  142.8147  156.7433 N   0  0  0  0  0  0  0  0  0  0  0  0
  151.3816  142.9444  157.6745 C   0  0  0  0  0  0  0  0  0  0  0  0
  151.4450  141.6900  158.5707 C   0  0  0  0  0  0  0  0  0  0  0  0
  152.5530  141.7005  159.6381 C   0  0  0  0  0  0  0  0  0  0  0  0
  152.2359  142.6351  160.8167 C   0  0  0  0  0  0  0  0  0  0  0  0
  152.6518  144.1039  160.6248 C   0  0  0  0  0  0  0  0  0  0  0  0
  152.5029  144.6815  159.2063 C   0  0  0  0  0  0  0  0  0  0  0  0
  151.2281  144.2688  158.4513 C   0  0  0  0  0  0  0  0  0  0  0  0
  148.4574  142.8349  155.3143 H   0  0  0  0  0  0  0  0  0  0  0  0
  146.0946  139.4167  152.1904 H   0  0  0  0  0  0  0  0  0  0  0  0
  149.7083  143.6439  156.5877 H   0  0  0  0  0  0  0  0  0  0  0  0
  152.3040  143.0032  157.0933 H   0  0  0  0  0  0  0  0  0  0  0  0
  150.4793  141.5276  159.0516 H   0  0  0  0  0  0  0  0  0  0  0  0
  151.6032  140.8190  157.9332 H   0  0  0  0  0  0  0  0  0  0  0  0
  152.6399  140.6866  160.0300 H   0  0  0  0  0  0  0  0  0  0  0  0
  153.5239  141.9328  159.1988 H   0  0  0  0  0  0  0  0  0  0  0  0
  151.1698  142.5842  161.0413 H   0  0  0  0  0  0  0  0  0  0  0  0
  152.7339  142.2599  161.7114 H   0  0  0  0  0  0  0  0  0  0  0  0
  152.0763  144.7137  161.3223 H   0  0  0  0  0  0  0  0  0  0  0  0
  153.6929  144.2209  160.9276 H   0  0  0  0  0  0  0  0  0  0  0  0
  152.5280  145.7688  159.2869 H   0  0  0  0  0  0  0  0  0  0  0  0
  153.3786  144.4212  158.6106 H   0  0  0  0  0  0  0  0  0  0  0  0
  151.0075  145.0586  157.7313 H   0  0  0  0  0  0  0  0  0  0  0  0
  150.3713  144.2343  159.1256 H   0  0  0  0  0  0  0  0  0  0  0  0
  1  2  2  0  0  0  0
  2  3  1  0  0  0  0
  2  9  1  0  0  0  0
  3  4  1  0  0  0  0
  3 17  1  0  0  0  0
  4  8  1  0  0  0  0
  4  5  2  0  0  0  0
  5  6  1  0  0  0  0
  6  7  2  0  0  0  0
  7  8  1  0  0  0  0
  7 18  1  0  0  0  0
  9 10  1  0  0  0  0
  9 19  1  0  0  0  0
 10 16  1  0  0  0  0
 10 11  1  0  0  0  0
 10 20  1  0  0  0  0
 11 12  1  0  0  0  0
 11 21  1  0  0  0  0
 11 22  1  0  0  0  0
 12 13  1  0  0  0  0
 12 23  1  0  0  0  0
 12 24  1  0  0  0  0
 13 14  1  0  0  0  0
 13 25  1  0  0  0  0
 13 26  1  0  0  0  0
 14 15  1  0  0  0  0
 14 27  1  0  0  0  0
 14 28  1  0  0  0  0
 15 16  1  0  0  0  0
 15 29  1  0  0  0  0
 15 30  1  0  0  0  0
 16 31  1  0  0  0  0
 16 32  1  0  0  0  0
M  END
> <s_m_source_file>
AV-unprocessed.smi

> <i_m_source_file_index>
881

> <i_lp_mmshare_version>
43012

> <i_f3d_flags>
0

> <s_epik_input>
czFbY0hdbm5jMVtOSF1DKD1PKVtOSF1bQ0hdMltDSDJdW0NIMl1bQ0gyXVtDSDJdW0NIMl1bQ0gyXTI=

> <s_epik_cmdline>
J2VwaWtfcHl0aG9uJywgJy1waCcsICc3LjAnLCAnLXRuJywgJzgnLCAnLW1hJywgJzIwMCcsICctbWV0YWxfYmluZGluZycsICctaW1hZScsICc8aW5maWxlLm1hZT4nLCAnLW9tYWUnLCAnPG91dGZpbGUubWFlPic=

> <r_lp_tautomer_probability>
1

> <r_epik_Ionization_Penalty>
0.000320184

> <r_epik_Ionization_Penalty_Charging>
0

> <r_epik_Ionization_Penalty_Neutral>
0.000320184

> <r_epik_State_Penalty>
-0

> <r_epik_Charging_Adjusted_Penalty>
0

> <i_epik_Tot_Q>
0

> <i_epik_Tot_abs_Q>
0

> <r_epik_Metal_State_Penalty>
0.170162

> <b_epik_Metal_Only>
0

> <s_lp_Force_Field>
OPLS_2005

> <r_lp_Energy>
13.8906

> <b_lp_Chiralities_Consistent>
1

> <s_lp_Variant>
AV-unprocessed.smi:881-1

> <Gold.Version>
5.8.1

> <Gold.Id.Protein>
6NUR|6NUR_protein|mol2

> <Gold.PLP.Fitness>
38.4296

> <Gold.PLP.PLP>
-31.7227

> <Gold.PLP.part.hbond>
-2.0000

> <Gold.PLP.part.metal>
0.0000

> <Gold.PLP.part.buried>
-5.6788

> <Gold.PLP.part.nonpolar>
-25.3710

> <Gold.PLP.part.repulsive>
1.1766

> <Gold.PLP.ligand.clash>
0.0000

> <Gold.PLP.ligand.torsion>
0.2017

> <Gold.PLP.Chemscore.Hbond>
1.8960

> <Gold.PLP.Chemscore.CHOScore>
0.4695

> <Gold.PLP.Chemscore.Metal>
0.0000

> <Gold.Chemscore.Hbonds>
donor molecule, donor type, donor heavy atom, donor atom, acceptor molecule, acceptor atom, score
      L1  H     3    17       P1  8028  0.90
      L1  H     9    19       P1  8028  1.00
      L1  C     7    18       P1 10175  0.48

> <Gold.PLP.Chemscore.Internal.Correction>
0.0137

> <Gold.Rescore>
     Score         DG    S(hbond)    S(metal)    S(lipo)     H(rot)  DE(clash)    DE(int)     intcor
     16.62     -19.68       1.90        0.00      89.01       1.00       0.08       2.98       ----

> <Gold.Chemscore.Fitness>
16.6226

> <Gold.Chemscore.DG>
-19.6820

> <Gold.Chemscore.ZeroCoef>
-5.4800

> <Gold.Chemscore.Hbond>
1.9005

> <Gold.Chemscore.Metal>
0.0000

> <Gold.Chemscore.Lipo>
89.0113

> <Gold.Chemscore.Internal_Hbond>
0.0000

> <Gold.Chemscore.DEClash>
0.0835

> <Gold.Chemscore.DEInternal>
2.9759

> <Gold.Chemscore.Rot>
1.0000

> <Gold.Chemscore.Internal.Correction>
   9.000000E+99

> <Gold.Chemscore.Hbonds>
donor molecule, donor type, donor heavy atom, donor atom, acceptor molecule, acceptor atom, score
      L1  H     3    17       P1  8028  0.87
      L1  H     9    19       P1  8028  0.98

> <Gold.Chemscore.Hbond.Weighted>
-6.3477

> <Gold.Chemscore.Metal.Weighted>
-0.0000

> <Gold.Chemscore.Lipo.Weighted>
-10.4143

> <Gold.Chemscore.Internal_Hbond.Weighted>
0.0000

> <Gold.Chemscore.DEClash.Weighted>
0.0835

> <Gold.Chemscore.DEInternal.Weighted>
2.9759

> <Gold.Chemscore.Rot.Weighted>
2.5600

> <Gold.Chemscore.Internal.Correction.Weighted>
   9.000000E+99

> <Gold.Protein.RotatedTorsions>
[ 6907 6896 6895 6894 ] final -177.02 input  -60.11 | X-H torsion
[ 7974 7965 7964 7962 ] final  -56.42 input  175.53 | X-H torsion
[ 8008 7997 7996 7995 ] final  -38.24 input   59.86 | X-H torsion
[ 10167 10162 10161 10158 ] final   81.93 input  -65.29 | X-H torsion
[ 10718 10713 10712 10709 ] final   -1.72 input   66.30 | X-H torsion
[ 10763 10752 10751 10750 ] final -168.29 input  -60.55 | X-H torsion
[ 11005 11000 10999 10996 ] final   91.32 input  -57.11 | X-H torsion

> <Gold.Protein.ActiveResidues>
 VAL166  LYS551  ARG553  GLY616  TRP617  ASP618  TYR619  PRO620  LYS621  CYS622 
 ASP623  PHE694  ASN695  SER759  ASP760  ASP761  ALA762  ILE779  LEU786  VAL792 
 PHE793  MET794  SER795  GLU796  ALA797  LYS798  CYS799  TRP800  GLU811  SER814 

> <Gold.Protein.RotatedAtoms>
  151.6142  133.3344  159.3073 H   0  0  0  0  0  0  0  0  0  0  0  0  # atno 6907 bound_to 6896
  150.8140  134.7315  159.6725 H   0  0  0  0  0  0  0  0  0  0  0  0  # atno 6908 bound_to 6896
  152.4236  134.5914  160.0027 H   0  0  0  0  0  0  0  0  0  0  0  0  # atno 6909 bound_to 6896
  145.8629  140.8272  142.9927 H   0  0  0  0  0  0  0  0  0  0  0  0  # atno 7974 bound_to 7965
  154.4040  140.1583  156.2668 H   0  0  0  0  0  0  0  0  0  0  0  0  # atno 8008 bound_to 7997
  155.8988  140.3434  155.5989 H   0  0  0  0  0  0  0  0  0  0  0  0  # atno 8009 bound_to 7997
  155.7472  140.0800  157.2209 H   0  0  0  0  0  0  0  0  0  0  0  0  # atno 8010 bound_to 7997
  139.9341  144.6133  150.8316 H   0  0  0  0  0  0  0  0  0  0  0  0  # atno 10167 bound_to 10162
  156.8014  130.5394  149.5721 H   0  0  0  0  0  0  0  0  0  0  0  0  # atno 10718 bound_to 10713
  154.6644  135.2930  154.9824 H   0  0  0  0  0  0  0  0  0  0  0  0  # atno 10763 bound_to 10752
  154.0873  135.6596  153.4851 H   0  0  0  0  0  0  0  0  0  0  0  0  # atno 10764 bound_to 10752
  153.0449  135.5211  154.7610 H   0  0  0  0  0  0  0  0  0  0  0  0  # atno 10765 bound_to 10752
  139.8841  134.8667  156.3412 H   0  0  0  0  0  0  0  0  0  0  0  0  # atno 11005 bound_to 11000
  144.6726  140.1123  143.7454 LP  0  0  0  0  0  0  0  0  0  0  0  0  # atno 17320 bound_to 7965
  145.9227  139.2556  143.1372 LP  0  0  0  0  0  0  0  0  0  0  0  0  # atno 17321 bound_to 7965
  140.7629  143.3210  151.2622 LP  0  0  0  0  0  0  0  0  0  0  0  0  # atno 17342 bound_to 10162
  139.6758  143.9940  152.2780 LP  0  0  0  0  0  0  0  0  0  0  0  0  # atno 17343 bound_to 10162
  156.1099  130.6032  151.0030 LP  0  0  0  0  0  0  0  0  0  0  0  0  # atno 17370 bound_to 10713
  157.6552  131.0890  150.7964 LP  0  0  0  0  0  0  0  0  0  0  0  0  # atno 17371 bound_to 10713
  140.9658  133.7359  156.0464 LP  0  0  0  0  0  0  0  0  0  0  0  0  # atno 17394 bound_to 11000
  140.7933  134.3592  157.5459 LP  0  0  0  0  0  0  0  0  0  0  0  0  # atno 17395 bound_to 11000

$$$$
