AV-unprocessed.smi:2847|AV-procd|sdf|10954|dock10
  -GOLD-   2272015413D 1   1.00000     0.00000
 Structure written by MMmdl.
 45 46  0  0  0  0  0  0  0  0  1 V2000
  143.5332  132.5704  150.6175 C   0  0  0  0  0  0  0  0  0  0  0  0
  144.9833  132.8361  151.0864 C   0  0  0  0  0  0  0  0  0  0  0  0
  145.2933  131.9639  152.3167 C   0  0  0  0  0  0  0  0  0  0  0  0
  145.8963  132.4161  149.9103 C   0  0  0  0  0  0  0  0  0  0  0  0
  145.1882  134.3188  151.4434 C   0  0  0  0  0  0  0  0  0  0  0  0
  144.1666  135.1513  151.2031 N   0  0  0  0  0  0  0  0  0  0  0  0
  144.2864  136.4277  151.6240 C   0  0  0  0  0  0  0  0  0  0  0  0
  145.4259  136.8812  152.3175 C   0  0  0  0  0  0  0  0  0  0  0  0
  145.4791  138.2344  152.7457 N   0  0  0  0  0  0  0  0  0  0  0  0
  146.4370  138.8446  153.4633 C   0  0  0  0  0  0  0  0  0  0  0  0
  147.4727  138.3101  153.8574 O   0  0  0  0  0  0  0  0  0  0  0  0
  146.1216  140.1316  153.6823 N   0  0  0  0  0  0  0  0  0  0  0  0
  146.8804  141.1535  154.4165 C   0  0  2  0  0  0  0  0  0  0  0  0
  146.2763  142.5532  154.1508 C   0  0  0  0  0  0  0  0  0  0  0  0
  148.3244  141.1046  153.8414 C   0  0  0  0  0  0  0  0  0  0  0  0
  149.1893  142.0271  154.4773 O   0  0  0  0  0  0  0  0  0  0  0  0
  146.8539  140.9028  155.9351 C   0  0  0  0  0  0  0  0  0  0  0  0
  145.7234  141.3238  156.8465 C   0  0  0  0  0  0  0  0  0  0  0  0
  147.0888  141.9713  156.9779 C   0  0  0  0  0  0  0  0  0  0  0  0
  146.4220  135.9072  152.5668 C   0  0  0  0  0  0  0  0  0  0  0  0
  146.2882  134.6329  152.1406 N   0  0  0  0  0  0  0  0  0  0  0  0
  143.3976  131.5310  150.3163 H   0  0  0  0  0  0  0  0  0  0  0  0
  143.2711  133.1954  149.7629 H   0  0  0  0  0  0  0  0  0  0  0  0
  142.8059  132.7656  151.4064 H   0  0  0  0  0  0  0  0  0  0  0  0
  144.6413  132.2143  153.1542 H   0  0  0  0  0  0  0  0  0  0  0  0
  146.3229  132.1005  152.6499 H   0  0  0  0  0  0  0  0  0  0  0  0
  145.1561  130.9045  152.0977 H   0  0  0  0  0  0  0  0  0  0  0  0
  145.7208  131.3787  149.6232 H   0  0  0  0  0  0  0  0  0  0  0  0
  146.9540  132.4968  150.1638 H   0  0  0  0  0  0  0  0  0  0  0  0
  145.7192  133.0341  149.0291 H   0  0  0  0  0  0  0  0  0  0  0  0
  143.4619  137.0910  151.4066 H   0  0  0  0  0  0  0  0  0  0  0  0
  144.7193  138.8197  152.4301 H   0  0  0  0  0  0  0  0  0  0  0  0
  145.2387  140.4470  153.3078 H   0  0  0  0  0  0  0  0  0  0  0  0
  146.9095  143.3376  154.5668 H   0  0  0  0  0  0  0  0  0  0  0  0
  145.2922  142.6662  154.6057 H   0  0  0  0  0  0  0  0  0  0  0  0
  146.1629  142.7539  153.0849 H   0  0  0  0  0  0  0  0  0  0  0  0
  148.7692  140.1186  153.9673 H   0  0  0  0  0  0  0  0  0  0  0  0
  148.3342  141.3284  152.7750 H   0  0  0  0  0  0  0  0  0  0  0  0
  148.6808  142.7749  154.7523 H   0  0  0  0  0  0  0  0  0  0  0  0
  147.2651  139.9296  156.1950 H   0  0  0  0  0  0  0  0  0  0  0  0
  144.9163  141.9328  156.4482 H   0  0  0  0  0  0  0  0  0  0  0  0
  145.4261  140.6242  157.6250 H   0  0  0  0  0  0  0  0  0  0  0  0
  147.6924  141.6978  157.8410 H   0  0  0  0  0  0  0  0  0  0  0  0
  147.1788  143.0089  156.6675 H   0  0  0  0  0  0  0  0  0  0  0  0
  147.3194  136.1186  153.1271 H   0  0  0  0  0  0  0  0  0  0  0  0
  1  2  1  0  0  0  0
  1 22  1  0  0  0  0
  1 23  1  0  0  0  0
  1 24  1  0  0  0  0
  2  3  1  0  0  0  0
  2  4  1  0  0  0  0
  2  5  1  0  0  0  0
  3 25  1  0  0  0  0
  3 26  1  0  0  0  0
  3 27  1  0  0  0  0
  4 28  1  0  0  0  0
  4 29  1  0  0  0  0
  4 30  1  0  0  0  0
  5 21  1  0  0  0  0
  5  6  2  0  0  0  0
  6  7  1  0  0  0  0
  7  8  2  0  0  0  0
  7 31  1  0  0  0  0
  8  9  1  0  0  0  0
  8 20  1  0  0  0  0
  9 10  1  0  0  0  0
  9 32  1  0  0  0  0
 10 11  2  0  0  0  0
 10 12  1  0  0  0  0
 12 13  1  0  0  0  0
 12 33  1  0  0  0  0
 13 14  1  0  0  0  0
 13 15  1  0  0  0  0
 13 17  1  0  0  0  0
 14 34  1  0  0  0  0
 14 35  1  0  0  0  0
 14 36  1  0  0  0  0
 15 16  1  0  0  0  0
 15 37  1  0  0  0  0
 15 38  1  0  0  0  0
 16 39  1  0  0  0  0
 17 19  1  0  0  0  0
 17 18  1  0  0  0  0
 17 40  1  0  0  0  0
 18 19  1  0  0  0  0
 18 41  1  0  0  0  0
 18 42  1  0  0  0  0
 19 43  1  0  0  0  0
 19 44  1  0  0  0  0
 20 21  2  0  0  0  0
 20 45  1  0  0  0  0
M  END
> <s_m_source_file>
AV-unprocessed.smi

> <i_m_source_file_index>
2847

> <i_lp_mmshare_version>
43012

> <i_f3d_flags>
0

> <s_epik_input>
W0NIM11DKFtDSDNdKShbQ0gzXSljMW5bY0hdYyhbY0hdbjEpW05IXUMoPU8pW05IXVtDQEBdKFtDSDNdKShbQ0gyXVtPSF0pW0NIXTJbQ0gyXVtDSDJdMg==

> <s_epik_cmdline>
J2VwaWtfcHl0aG9uJywgJy1waCcsICc3LjAnLCAnLXRuJywgJzgnLCAnLW1hJywgJzIwMCcsICctbWV0YWxfYmluZGluZycsICctaW1hZScsICc8aW5maWxlLm1hZT4nLCAnLW9tYWUnLCAnPG91dGZpbGUubWFlPic=

> <r_lp_tautomer_probability>
1

> <r_epik_Ionization_Penalty>
2.57177e-05

> <r_epik_Ionization_Penalty_Charging>
0

> <r_epik_Ionization_Penalty_Neutral>
2.57177e-05

> <r_epik_State_Penalty>
-0

> <r_epik_Charging_Adjusted_Penalty>
0

> <i_epik_Tot_Q>
0

> <i_epik_Tot_abs_Q>
0

> <r_epik_Metal_State_Penalty>
-0

> <b_epik_Metal_Only>
0

> <s_lp_Force_Field>
OPLS_2005

> <r_lp_Energy>
20.8954

> <b_lp_Chiralities_Consistent>
1

> <s_lp_Variant>
AV-unprocessed.smi:2847-2

> <Gold.Version>
5.8.1

> <Gold.Id.Protein>
6NUR|6NUR_protein|mol2

> <Gold.PLP.Fitness>
40.5357

> <Gold.PLP.PLP>
-29.5161

> <Gold.PLP.part.hbond>
-4.1712

> <Gold.PLP.part.metal>
0.0000

> <Gold.PLP.part.buried>
1.0297

> <Gold.PLP.part.nonpolar>
-26.2255

> <Gold.PLP.part.repulsive>
0.8769

> <Gold.PLP.ligand.clash>
0.0000

> <Gold.PLP.ligand.torsion>
1.2455

> <Gold.PLP.Chemscore.Hbond>
2.6780

> <Gold.PLP.Chemscore.CHOScore>
1.3092

> <Gold.PLP.Chemscore.Metal>
0.0000

> <Gold.Chemscore.Hbonds>
donor molecule, donor type, donor heavy atom, donor atom, acceptor molecule, acceptor atom, score
      L1  H     9    32       P1 10175  1.00
      L1  H    12    33       P1 10175  1.00
      L1  H    16    39       P1  8028  0.62
      P1  H  8011  8017       L1    16  0.02
      L1  C     7    31       P1 10171  0.71
      L1  C    20    45       P1  7948  0.60

> <Gold.PLP.Chemscore.Internal.Correction>
1.5492

> <Gold.Rescore>
     Score         DG    S(hbond)    S(metal)    S(lipo)     H(rot)  DE(clash)    DE(int)     intcor
     12.64     -17.45       2.72        0.00      72.07       2.17       2.74       2.06       ----

> <Gold.Chemscore.Fitness>
12.6433

> <Gold.Chemscore.DG>
-17.4455

> <Gold.Chemscore.ZeroCoef>
-5.4800

> <Gold.Chemscore.Hbond>
2.7195

> <Gold.Chemscore.Metal>
0.0000

> <Gold.Chemscore.Lipo>
72.0707

> <Gold.Chemscore.Internal_Hbond>
0.0000

> <Gold.Chemscore.DEClash>
2.7431

> <Gold.Chemscore.DEInternal>
2.0592

> <Gold.Chemscore.Rot>
2.1679

> <Gold.Chemscore.Internal.Correction>
   9.000000E+99

> <Gold.Chemscore.Hbonds>
donor molecule, donor type, donor heavy atom, donor atom, acceptor molecule, acceptor atom, score
      L1  H     9    32       P1 10175  0.96
      L1  H    12    33       P1 10175  0.98
      L1  H    16    39       P1  8028  0.62

> <Gold.Chemscore.Hbond.Weighted>
-9.0831

> <Gold.Chemscore.Metal.Weighted>
-0.0000

> <Gold.Chemscore.Lipo.Weighted>
-8.4323

> <Gold.Chemscore.Internal_Hbond.Weighted>
0.0000

> <Gold.Chemscore.DEClash.Weighted>
2.7431

> <Gold.Chemscore.DEInternal.Weighted>
2.0592

> <Gold.Chemscore.Rot.Weighted>
5.5499

> <Gold.Chemscore.Internal.Correction.Weighted>
   9.000000E+99

> <Gold.Protein.RotatedTorsions>
[ 6907 6896 6895 6894 ] final   53.12 input  -60.11 | X-H torsion
[ 7974 7965 7964 7962 ] final  -16.18 input  175.53 | X-H torsion
[ 8008 7997 7996 7995 ] final  -44.36 input   59.86 | X-H torsion
[ 10167 10162 10161 10158 ] final   70.81 input  -65.29 | X-H torsion
[ 10718 10713 10712 10709 ] final  -81.07 input   66.30 | X-H torsion
[ 10763 10752 10751 10750 ] final   84.81 input  -60.55 | X-H torsion
[ 11005 11000 10999 10996 ] final  110.71 input  -57.11 | X-H torsion

> <Gold.Protein.ActiveResidues>
 VAL166  LYS551  ARG553  GLY616  TRP617  ASP618  TYR619  PRO620  LYS621  CYS622 
 ASP623  PHE694  ASN695  SER759  ASP760  ASP761  ALA762  ILE779  LEU786  VAL792 
 PHE793  MET794  SER795  GLU796  ALA797  LYS798  CYS799  TRP800  GLU811  SER814 

> <Gold.Protein.RotatedAtoms>
  152.3304  134.7267  160.0290 H   0  0  0  0  0  0  0  0  0  0  0  0  # atno 6907 bound_to 6896
  151.7685  133.3334  159.3446 H   0  0  0  0  0  0  0  0  0  0  0  0  # atno 6908 bound_to 6896
  150.7419  134.5972  159.6062 H   0  0  0  0  0  0  0  0  0  0  0  0  # atno 6909 bound_to 6896
  146.1999  140.3599  142.8427 H   0  0  0  0  0  0  0  0  0  0  0  0  # atno 7974 bound_to 7965
  154.3997  140.1424  156.3670 H   0  0  0  0  0  0  0  0  0  0  0  0  # atno 8008 bound_to 7997
  155.8128  140.3472  155.5447 H   0  0  0  0  0  0  0  0  0  0  0  0  # atno 8009 bound_to 7997
  155.8369  140.0920  157.1749 H   0  0  0  0  0  0  0  0  0  0  0  0  # atno 8010 bound_to 7997
  140.0530  144.5296  150.7350 H   0  0  0  0  0  0  0  0  0  0  0  0  # atno 10167 bound_to 10162
  156.0057  130.4593  150.3897 H   0  0  0  0  0  0  0  0  0  0  0  0  # atno 10718 bound_to 10713
  153.1416  135.4640  154.9504 H   0  0  0  0  0  0  0  0  0  0  0  0  # atno 10763 bound_to 10752
  154.7751  135.3171  154.8110 H   0  0  0  0  0  0  0  0  0  0  0  0  # atno 10764 bound_to 10752
  153.8632  135.6910  153.4835 H   0  0  0  0  0  0  0  0  0  0  0  0  # atno 10765 bound_to 10752
  139.8888  134.9490  156.6321 H   0  0  0  0  0  0  0  0  0  0  0  0  # atno 11005 bound_to 11000
  144.8660  140.7207  143.6077 LP  0  0  0  0  0  0  0  0  0  0  0  0  # atno 17320 bound_to 7965
  145.3519  139.1704  143.4430 LP  0  0  0  0  0  0  0  0  0  0  0  0  # atno 17321 bound_to 7965
  140.7208  143.2587  151.4285 LP  0  0  0  0  0  0  0  0  0  0  0  0  # atno 17342 bound_to 10162
  139.5941  144.1435  152.2123 LP  0  0  0  0  0  0  0  0  0  0  0  0  # atno 17343 bound_to 10162
  157.1972  131.0429  151.2669 LP  0  0  0  0  0  0  0  0  0  0  0  0  # atno 17370 bound_to 10713
  157.4008  130.7332  149.6765 LP  0  0  0  0  0  0  0  0  0  0  0  0  # atno 17371 bound_to 10713
  140.7659  133.8779  155.8454 LP  0  0  0  0  0  0  0  0  0  0  0  0  # atno 17394 bound_to 11000
  140.9883  134.1313  157.4431 LP  0  0  0  0  0  0  0  0  0  0  0  0  # atno 17395 bound_to 11000

$$$$
