AV-unprocessed.smi:2648|AV-procd|sdf|10286|dock7
  -GOLD-   2272014303D 1   1.00000     0.00000
 Structure written by MMmdl.
 33 34  0  0  0  0  0  0  0  0  2 V2000
  153.6121  139.9492  159.8920 O   0  0  0  0  0  0  0  0  0  0  0  0
  154.0808  140.9387  160.4542 C   0  0  0  0  0  0  0  0  0  0  0  0
  155.0617  140.8745  161.3660 N   0  0  0  0  0  0  0  0  0  0  0  0
  155.7037  139.6432  161.8110 C   0  0  0  0  0  0  0  0  0  0  0  0
  155.6511  139.5034  163.3433 C   0  0  0  0  0  0  0  0  0  0  0  0
  155.4811  138.1046  163.7433 N   0  0  0  0  0  0  0  0  0  0  0  0
  154.7175  137.2216  163.0866 C   0  0  0  0  0  0  0  0  0  0  0  0
  154.0409  137.4199  162.0781 O   0  0  0  0  0  0  0  0  0  0  0  0
  154.8180  135.8855  163.7897 C   0  0  0  0  0  0  0  0  0  0  0  0
  155.7315  136.2476  164.8522 N   0  0  0  0  0  0  0  0  0  0  0  0
  156.0976  137.5347  164.7945 C   0  0  0  0  0  0  0  0  0  0  0  0
  156.8721  138.0871  165.5745 O   0  0  0  0  0  0  0  0  0  0  0  0
  153.6736  142.2055  160.2607 N   0  0  0  0  0  0  0  0  0  0  0  0
  152.6827  142.6874  159.3621 C   0  0  0  0  0  0  0  0  0  0  0  0
  151.7898  141.7454  158.8043 C   0  0  0  0  0  0  0  0  0  0  0  0
  150.7795  142.1811  157.9228 C   0  0  0  0  0  0  0  0  0  0  0  0
  150.6659  143.4935  157.6260 N   0  3  0  0  0  0  0  0  0  0  0  0
  151.4863  144.4324  158.1441 C   0  0  0  0  0  0  0  0  0  0  0  0
  152.5155  144.0566  159.0313 C   0  0  0  0  0  0  0  0  0  0  0  0
  155.3868  141.7338  161.7848 H   0  0  0  0  0  0  0  0  0  0  0  0
  155.2325  138.7838  161.3303 H   0  0  0  0  0  0  0  0  0  0  0  0
  156.7400  139.6560  161.4720 H   0  0  0  0  0  0  0  0  0  0  0  0
  156.5611  139.9110  163.7872 H   0  0  0  0  0  0  0  0  0  0  0  0
  154.8330  140.1014  163.7490 H   0  0  0  0  0  0  0  0  0  0  0  0
  153.8528  135.5620  164.1807 H   0  0  0  0  0  0  0  0  0  0  0  0
  155.2398  135.1186  163.1393 H   0  0  0  0  0  0  0  0  0  0  0  0
  156.0545  135.5912  165.5482 H   0  0  0  0  0  0  0  0  0  0  0  0
  154.0879  142.9006  160.8643 H   0  0  0  0  0  0  0  0  0  0  0  0
  151.8786  140.6952  159.0428 H   0  0  0  0  0  0  0  0  0  0  0  0
  150.0629  141.5245  157.4515 H   0  0  0  0  0  0  0  0  0  0  0  0
  151.2928  145.4511  157.8406 H   0  0  0  0  0  0  0  0  0  0  0  0
  153.1462  144.8263  159.4489 H   0  0  0  0  0  0  0  0  0  0  0  0
  149.9266  143.7888  156.9878 H   0  0  0  0  0  0  0  0  0  0  0  0
  1  2  2  0  0  0  0
  2  3  1  0  0  0  0
  2 13  1  0  0  0  0
  3  4  1  0  0  0  0
  3 20  1  0  0  0  0
  4  5  1  0  0  0  0
  4 21  1  0  0  0  0
  4 22  1  0  0  0  0
  5  6  1  0  0  0  0
  5 23  1  0  0  0  0
  5 24  1  0  0  0  0
  6 11  1  0  0  0  0
  6  7  1  0  0  0  0
  7  8  2  0  0  0  0
  7  9  1  0  0  0  0
  9 10  1  0  0  0  0
  9 25  1  0  0  0  0
  9 26  1  0  0  0  0
 10 11  1  0  0  0  0
 10 27  1  0  0  0  0
 11 12  2  0  0  0  0
 13 14  1  0  0  0  0
 13 28  1  0  0  0  0
 14 19  1  0  0  0  0
 14 15  2  0  0  0  0
 15 16  1  0  0  0  0
 15 29  1  0  0  0  0
 16 17  2  0  0  0  0
 16 30  1  0  0  0  0
 17 18  1  0  0  0  0
 17 33  1  0  0  0  0
 18 19  2  0  0  0  0
 18 31  1  0  0  0  0
 19 32  1  0  0  0  0
M  CHG  1  17   1
M  END
> <s_m_source_file>
AV-unprocessed.smi

> <i_m_source_file_index>
2648

> <i_lp_mmshare_version>
43012

> <i_f3d_flags>
0

> <s_epik_input>
W2NIXTFbY0hdbltjSF1bY0hdYzFbTkhdQyg9TylbTkhdW0NIMl1bQ0gyXU4yQyg9TylbQ0gyXVtOSF1DMj1P

> <s_epik_cmdline>
J2VwaWtfcHl0aG9uJywgJy1waCcsICc3LjAnLCAnLXRuJywgJzgnLCAnLW1hJywgJzIwMCcsICctbWV0YWxfYmluZGluZycsICctaW1hZScsICc8aW5maWxlLm1hZT4nLCAnLW9tYWUnLCAnPG91dGZpbGUubWFlPic=

> <r_lp_tautomer_probability>
1

> <r_epik_Ionization_Penalty>
1.05701

> <r_epik_Ionization_Penalty_Charging>
1.05694

> <r_epik_Ionization_Penalty_Neutral>
7.31213e-05

> <r_epik_State_Penalty>
1.11031

> <r_epik_Charging_Adjusted_Penalty>
2.16725

> <i_epik_Tot_Q>
1

> <i_epik_Tot_abs_Q>
1

> <r_epik_Metal_State_Penalty>
1.22924

> <b_epik_Metal_Only>
0

> <s_lp_Force_Field>
OPLS_2005

> <r_lp_Energy>
27.1091

> <b_lp_Chiralities_Consistent>
1

> <s_lp_Variant>
AV-unprocessed.smi:2648-2

> <Gold.Version>
5.8.1

> <Gold.Id.Protein>
6NUR|6NUR_protein|mol2

> <Gold.PLP.Fitness>
44.4172

> <Gold.PLP.PLP>
-39.6313

> <Gold.PLP.part.hbond>
-3.0000

> <Gold.PLP.part.metal>
0.0000

> <Gold.PLP.part.buried>
-7.2052

> <Gold.PLP.part.nonpolar>
-30.6507

> <Gold.PLP.part.repulsive>
0.2203

> <Gold.PLP.ligand.clash>
0.0000

> <Gold.PLP.ligand.torsion>
0.6125

> <Gold.PLP.Chemscore.Hbond>
2.0000

> <Gold.PLP.Chemscore.CHOScore>
0.0000

> <Gold.PLP.Chemscore.Metal>
0.0000

> <Gold.Chemscore.Hbonds>
donor molecule, donor type, donor heavy atom, donor atom, acceptor molecule, acceptor atom, score
      L1  H    17    33       P1  8028  2.00

> <Gold.PLP.Chemscore.Internal.Correction>
0.0109

> <Gold.Rescore>
     Score         DG    S(hbond)    S(metal)    S(lipo)     H(rot)  DE(clash)    DE(int)     intcor
     11.20     -12.87       1.00        0.00      77.71       1.96       0.10       1.57       ----

> <Gold.Chemscore.Fitness>
11.2009

> <Gold.Chemscore.DG>
-12.8669

> <Gold.Chemscore.ZeroCoef>
-5.4800

> <Gold.Chemscore.Hbond>
0.9955

> <Gold.Chemscore.Metal>
0.0000

> <Gold.Chemscore.Lipo>
77.7084

> <Gold.Chemscore.Internal_Hbond>
0.0000

> <Gold.Chemscore.DEClash>
0.0995

> <Gold.Chemscore.DEInternal>
1.5665

> <Gold.Chemscore.Rot>
1.9648

> <Gold.Chemscore.Internal.Correction>
   9.000000E+99

> <Gold.Chemscore.Hbonds>
donor molecule, donor type, donor heavy atom, donor atom, acceptor molecule, acceptor atom, score
      L1  H    17    33       P1  8028  0.96

> <Gold.Chemscore.Hbond.Weighted>
-3.3249

> <Gold.Chemscore.Metal.Weighted>
-0.0000

> <Gold.Chemscore.Lipo.Weighted>
-9.0919

> <Gold.Chemscore.Internal_Hbond.Weighted>
0.0000

> <Gold.Chemscore.DEClash.Weighted>
0.0995

> <Gold.Chemscore.DEInternal.Weighted>
1.5665

> <Gold.Chemscore.Rot.Weighted>
5.0299

> <Gold.Chemscore.Internal.Correction.Weighted>
   9.000000E+99

> <Gold.Protein.RotatedTorsions>
[ 6907 6896 6895 6894 ] final  110.75 input  -60.11 | X-H torsion
[ 7974 7965 7964 7962 ] final   44.80 input  175.53 | X-H torsion
[ 8008 7997 7996 7995 ] final  133.80 input   59.86 | X-H torsion
[ 10167 10162 10161 10158 ] final  -89.72 input  -65.29 | X-H torsion
[ 10718 10713 10712 10709 ] final  110.03 input   66.30 | X-H torsion
[ 10763 10752 10751 10750 ] final   10.72 input  -60.55 | X-H torsion
[ 11005 11000 10999 10996 ] final  149.57 input  -57.11 | X-H torsion

> <Gold.Protein.ActiveResidues>
 VAL166  LYS551  ARG553  GLY616  TRP617  ASP618  TYR619  PRO620  LYS621  CYS622 
 ASP623  PHE694  ASN695  SER759  ASP760  ASP761  ALA762  ILE779  LEU786  VAL792 
 PHE793  MET794  SER795  GLU796  ALA797  LYS798  CYS799  TRP800  GLU811  SER814 

> <Gold.Protein.RotatedAtoms>
  152.5004  133.8755  159.7319 H   0  0  0  0  0  0  0  0  0  0  0  0  # atno 6907 bound_to 6896
  150.9231  133.6848  159.2834 H   0  0  0  0  0  0  0  0  0  0  0  0  # atno 6908 bound_to 6896
  151.4218  135.1003  159.9668 H   0  0  0  0  0  0  0  0  0  0  0  0  # atno 6909 bound_to 6896
  146.0537  139.5035  142.9702 H   0  0  0  0  0  0  0  0  0  0  0  0  # atno 7974 bound_to 7965
  156.2995  140.2512  156.3312 H   0  0  0  0  0  0  0  0  0  0  0  0  # atno 8008 bound_to 7997
  154.9143  140.0402  157.1982 H   0  0  0  0  0  0  0  0  0  0  0  0  # atno 8009 bound_to 7997
  154.8374  140.2885  155.5686 H   0  0  0  0  0  0  0  0  0  0  0  0  # atno 8010 bound_to 7997
  140.3620  143.2837  151.9603 H   0  0  0  0  0  0  0  0  0  0  0  0  # atno 10167 bound_to 10162
  157.6513  131.0925  150.6542 H   0  0  0  0  0  0  0  0  0  0  0  0  # atno 10718 bound_to 10713
  153.2002  135.6855  153.8241 H   0  0  0  0  0  0  0  0  0  0  0  0  # atno 10763 bound_to 10752
  153.7510  135.3224  155.3322 H   0  0  0  0  0  0  0  0  0  0  0  0  # atno 10764 bound_to 10752
  154.8167  135.4681  154.0764 H   0  0  0  0  0  0  0  0  0  0  0  0  # atno 10765 bound_to 10752
  140.1056  134.8956  157.1861 H   0  0  0  0  0  0  0  0  0  0  0  0  # atno 11005 bound_to 11000
  145.6681  141.0223  143.1672 LP  0  0  0  0  0  0  0  0  0  0  0  0  # atno 17320 bound_to 7965
  144.7136  139.8278  143.7406 LP  0  0  0  0  0  0  0  0  0  0  0  0  # atno 17321 bound_to 7965
  139.4813  144.5984  151.7649 LP  0  0  0  0  0  0  0  0  0  0  0  0  # atno 17342 bound_to 10162
  140.5118  144.1014  150.5997 LP  0  0  0  0  0  0  0  0  0  0  0  0  # atno 17343 bound_to 10162
  156.6853  130.4579  149.5616 LP  0  0  0  0  0  0  0  0  0  0  0  0  # atno 17370 bound_to 10713
  156.1900  130.6554  151.1051 LP  0  0  0  0  0  0  0  0  0  0  0  0  # atno 17371 bound_to 10713
  140.3160  134.2969  155.7256 LP  0  0  0  0  0  0  0  0  0  0  0  0  # atno 17394 bound_to 11000
  141.2117  133.7680  156.9844 LP  0  0  0  0  0  0  0  0  0  0  0  0  # atno 17395 bound_to 11000

$$$$
