AV-unprocessed.smi:163|AV-procd|sdf|1380|dock7
  -GOLD-   2262019103D 1   1.00000     0.00000
 Structure written by MMmdl.
 48 51  0  0  0  0  0  0  0  0  1 V2000
  152.3068  144.3056  158.0120 N   0  0  0  0  0  0  0  0  0  0  0  0
  152.0514  143.2331  158.3642 C   0  0  0  0  0  0  0  0  0  0  0  0
  151.7281  141.8690  158.8151 C   0  0  0  0  0  0  0  0  0  0  0  0
  152.2514  140.7726  157.8779 C   0  0  0  0  0  0  0  0  0  0  0  0
  153.0845  139.9716  158.3039 O   0  0  0  0  0  0  0  0  0  0  0  0
  151.7799  140.7232  156.6101 N   0  0  0  0  0  0  0  0  0  0  0  0
  152.1256  139.6998  155.6170 C   0  0  0  0  0  0  0  0  0  0  0  0
  150.8836  138.8315  155.3446 C   0  0  0  0  0  0  0  0  0  0  0  0
  149.7402  139.6638  154.9622 N   0  0  0  0  0  0  0  0  0  0  0  0
  148.6815  138.9849  154.4502 C   0  0  0  0  0  0  0  0  0  0  0  0
  147.8269  139.6094  153.5957 N   0  0  0  0  0  0  0  0  0  0  0  0
  146.7772  138.9552  153.0906 C   0  0  0  0  0  0  0  0  0  0  0  0
  146.4014  137.6927  153.3005 N   0  0  0  0  0  0  0  0  0  0  0  0
  147.2561  137.0573  154.1521 C   0  0  0  0  0  0  0  0  0  0  0  0
  148.4114  137.6220  154.7636 C   0  0  0  0  0  0  0  0  0  0  0  0
  149.0448  136.6638  155.5469 N   0  0  0  0  0  0  0  0  0  0  0  0
  148.3020  135.5995  155.4145 C   0  0  0  0  0  0  0  0  0  0  0  0
  147.2000  135.7495  154.6029 N   0  0  0  0  0  0  0  0  0  0  0  0
  146.2080  134.7348  154.2790 C   0  0  0  0  0  0  0  0  0  0  0  0
  146.5258  133.9405  152.9884 C   0  0  1  0  0  0  0  0  0  0  0  0
  146.5740  134.8383  151.8947 O   0  0  0  0  0  0  0  0  0  0  0  0
  147.8583  133.1929  153.0775 C   0  0  0  0  0  0  0  0  0  0  0  0
  147.4438  131.7309  153.1897 C   0  0  0  0  0  0  0  0  0  0  0  0
  146.2849  131.6752  152.3777 O   0  0  0  0  0  0  0  0  0  0  0  0
  145.5071  132.8237  152.6827 C   0  0  0  0  0  0  0  0  0  0  0  0
  149.4588  140.8020  155.8430 C   0  0  0  0  0  0  0  0  0  0  0  0
  150.7353  141.6221  156.1061 C   0  0  0  0  0  0  0  0  0  0  0  0
  152.1571  141.7457  159.8098 H   0  0  0  0  0  0  0  0  0  0  0  0
  150.6426  141.8039  158.8985 H   0  0  0  0  0  0  0  0  0  0  0  0
  152.4430  140.1916  154.6962 H   0  0  0  0  0  0  0  0  0  0  0  0
  152.9607  139.0670  155.9127 H   0  0  0  0  0  0  0  0  0  0  0  0
  151.1215  138.1009  154.5731 H   0  0  0  0  0  0  0  0  0  0  0  0
  150.6214  138.2662  156.2402 H   0  0  0  0  0  0  0  0  0  0  0  0
  146.1486  139.5250  152.4224 H   0  0  0  0  0  0  0  0  0  0  0  0
  148.5414  134.6694  155.9090 H   0  0  0  0  0  0  0  0  0  0  0  0
  146.1247  134.0556  155.1284 H   0  0  0  0  0  0  0  0  0  0  0  0
  145.2384  135.2258  154.1869 H   0  0  0  0  0  0  0  0  0  0  0  0
  147.4615  135.1490  151.8005 H   0  0  0  0  0  0  0  0  0  0  0  0
  148.4441  133.3251  152.1662 H   0  0  0  0  0  0  0  0  0  0  0  0
  148.4817  133.5117  153.9136 H   0  0  0  0  0  0  0  0  0  0  0  0
  148.2155  131.0444  152.8408 H   0  0  0  0  0  0  0  0  0  0  0  0
  147.1881  131.4729  154.2187 H   0  0  0  0  0  0  0  0  0  0  0  0
  144.9074  132.5858  153.5617 H   0  0  0  0  0  0  0  0  0  0  0  0
  144.8200  133.0678  151.8715 H   0  0  0  0  0  0  0  0  0  0  0  0
  148.7008  141.4432  155.3911 H   0  0  0  0  0  0  0  0  0  0  0  0
  149.0538  140.4371  156.7882 H   0  0  0  0  0  0  0  0  0  0  0  0
  150.5128  142.4422  156.7898 H   0  0  0  0  0  0  0  0  0  0  0  0
  151.0785  142.0881  155.1813 H   0  0  0  0  0  0  0  0  0  0  0  0
  1  2  3  0  0  0  0
  2  3  1  0  0  0  0
  3  4  1  0  0  0  0
  3 28  1  0  0  0  0
  3 29  1  0  0  0  0
  4  5  2  0  0  0  0
  4  6  1  0  0  0  0
  6 27  1  0  0  0  0
  6  7  1  0  0  0  0
  7  8  1  0  0  0  0
  7 30  1  0  0  0  0
  7 31  1  0  0  0  0
  8  9  1  0  0  0  0
  8 32  1  0  0  0  0
  8 33  1  0  0  0  0
  9 10  1  0  0  0  0
  9 26  1  0  0  0  0
 10 15  1  0  0  0  0
 10 11  2  0  0  0  0
 11 12  1  0  0  0  0
 12 13  2  0  0  0  0
 12 34  1  0  0  0  0
 13 14  1  0  0  0  0
 14 18  1  0  0  0  0
 14 15  2  0  0  0  0
 15 16  1  0  0  0  0
 16 17  2  0  0  0  0
 17 18  1  0  0  0  0
 17 35  1  0  0  0  0
 18 19  1  0  0  0  0
 19 20  1  0  0  0  0
 19 36  1  0  0  0  0
 19 37  1  0  0  0  0
 20 25  1  0  0  0  0
 20 21  1  0  0  0  0
 20 22  1  0  0  0  0
 21 38  1  0  0  0  0
 22 23  1  0  0  0  0
 22 39  1  0  0  0  0
 22 40  1  0  0  0  0
 23 24  1  0  0  0  0
 23 41  1  0  0  0  0
 23 42  1  0  0  0  0
 24 25  1  0  0  0  0
 25 43  1  0  0  0  0
 25 44  1  0  0  0  0
 26 27  1  0  0  0  0
 26 45  1  0  0  0  0
 26 46  1  0  0  0  0
 27 47  1  0  0  0  0
 27 48  1  0  0  0  0
M  END
> <s_m_source_file>
AV-unprocessed.smi

> <i_m_source_file_index>
163

> <i_lp_mmshare_version>
43012

> <i_f3d_flags>
0

> <s_epik_input>
TiNDW0NIMl1DKD1PKU4xW0NIMl1bQ0gyXU4oW0NIMl1bQ0gyXTEpYyhuW2NIXW4yKWMoYzIzKW5bY0hdbjNbQ0gyXVtDQEBdNChbT0hdKVtDSDJdW0NIMl1PW0NIMl00

> <s_epik_cmdline>
J2VwaWtfcHl0aG9uJywgJy1waCcsICc3LjAnLCAnLXRuJywgJzgnLCAnLW1hJywgJzIwMCcsICctbWV0YWxfYmluZGluZycsICctaW1hZScsICc8aW5maWxlLm1hZT4nLCAnLW9tYWUnLCAnPG91dGZpbGUubWFlPic=

> <r_lp_tautomer_probability>
1

> <r_epik_Ionization_Penalty>
0.000981096

> <r_epik_Ionization_Penalty_Charging>
0

> <r_epik_Ionization_Penalty_Neutral>
0.000981096

> <r_epik_State_Penalty>
0.000482875

> <r_epik_Charging_Adjusted_Penalty>
0.000482875

> <i_epik_Tot_Q>
0

> <i_epik_Tot_abs_Q>
0

> <r_epik_Metal_State_Penalty>
-0

> <b_epik_Metal_Only>
0

> <s_lp_Force_Field>
OPLS_2005

> <r_lp_Energy>
52.1528

> <b_lp_Chiralities_Consistent>
1

> <s_lp_Variant>
AV-unprocessed.smi:163-1

> <Gold.Version>
5.8.1

> <Gold.Id.Protein>
6NUR|6NUR_protein|mol2

> <Gold.PLP.Fitness>
40.3790

> <Gold.PLP.PLP>
-32.4434

> <Gold.PLP.part.hbond>
-2.0000

> <Gold.PLP.part.metal>
0.0000

> <Gold.PLP.part.buried>
-4.6229

> <Gold.PLP.part.nonpolar>
-26.7374

> <Gold.PLP.part.repulsive>
1.3604

> <Gold.PLP.ligand.clash>
0.0000

> <Gold.PLP.ligand.torsion>
0.7630

> <Gold.PLP.Chemscore.Hbond>
2.0000

> <Gold.PLP.Chemscore.CHOScore>
0.9992

> <Gold.PLP.Chemscore.Metal>
0.0000

> <Gold.Chemscore.Hbonds>
donor molecule, donor type, donor heavy atom, donor atom, acceptor molecule, acceptor atom, score
      L1  H    21    38       P1  7948  1.00
      P1  H  7997  8009       L1     5  1.00
      L1  C    12    34       P1 10175  0.74

> <Gold.PLP.Chemscore.Internal.Correction>
0.4638

> <Gold.Rescore>
     Score         DG    S(hbond)    S(metal)    S(lipo)     H(rot)  DE(clash)    DE(int)     intcor
      9.10     -11.29       1.84        0.00      56.78       2.72       0.03       2.15       ----

> <Gold.Chemscore.Fitness>
9.1044

> <Gold.Chemscore.DG>
-11.2930

> <Gold.Chemscore.ZeroCoef>
-5.4800

> <Gold.Chemscore.Hbond>
1.8384

> <Gold.Chemscore.Metal>
0.0000

> <Gold.Chemscore.Lipo>
56.7830

> <Gold.Chemscore.Internal_Hbond>
0.0000

> <Gold.Chemscore.DEClash>
0.0339

> <Gold.Chemscore.DEInternal>
2.1547

> <Gold.Chemscore.Rot>
2.7230

> <Gold.Chemscore.Internal.Correction>
   9.000000E+99

> <Gold.Chemscore.Hbonds>
donor molecule, donor type, donor heavy atom, donor atom, acceptor molecule, acceptor atom, score
      L1  H    21    38       P1  7948  0.90
      P1  H  7997  8009       L1     5  0.53

> <Gold.Chemscore.Hbond.Weighted>
-6.1403

> <Gold.Chemscore.Metal.Weighted>
-0.0000

> <Gold.Chemscore.Lipo.Weighted>
-6.6436

> <Gold.Chemscore.Internal_Hbond.Weighted>
0.0000

> <Gold.Chemscore.DEClash.Weighted>
0.0339

> <Gold.Chemscore.DEInternal.Weighted>
2.1547

> <Gold.Chemscore.Rot.Weighted>
6.9709

> <Gold.Chemscore.Internal.Correction.Weighted>
   9.000000E+99

> <Gold.Protein.RotatedTorsions>
[ 6907 6896 6895 6894 ] final   65.74 input  -60.11 | X-H torsion
[ 7974 7965 7964 7962 ] final   -2.08 input  175.53 | X-H torsion
[ 8008 7997 7996 7995 ] final  152.10 input   59.86 | X-H torsion
[ 10167 10162 10161 10158 ] final  -82.60 input  -65.29 | X-H torsion
[ 10718 10713 10712 10709 ] final  -58.04 input   66.30 | X-H torsion
[ 10763 10752 10751 10750 ] final  124.48 input  -60.55 | X-H torsion
[ 11005 11000 10999 10996 ] final -162.56 input  -57.11 | X-H torsion

> <Gold.Protein.ActiveResidues>
 VAL166  LYS551  ARG553  GLY616  TRP617  ASP618  TYR619  PRO620  LYS621  CYS622 
 ASP623  PHE694  ASN695  SER759  ASP760  ASP761  ALA762  ILE779  LEU786  VAL792 
 PHE793  MET794  SER795  GLU796  ALA797  LYS798  CYS799  TRP800  GLU811  SER814 

> <Gold.Protein.RotatedAtoms>
  152.4430  134.5552  159.9878 H   0  0  0  0  0  0  0  0  0  0  0  0  # atno 6907 bound_to 6896
  151.5644  133.3393  159.2985 H   0  0  0  0  0  0  0  0  0  0  0  0  # atno 6908 bound_to 6896
  150.8340  134.7639  159.6941 H   0  0  0  0  0  0  0  0  0  0  0  0  # atno 6909 bound_to 6896
  146.2409  140.1517  142.8334 H   0  0  0  0  0  0  0  0  0  0  0  0  # atno 7974 bound_to 7965
  156.2644  140.2030  156.6280 H   0  0  0  0  0  0  0  0  0  0  0  0  # atno 8008 bound_to 7997
  154.6705  140.0550  157.0185 H   0  0  0  0  0  0  0  0  0  0  0  0  # atno 8009 bound_to 7997
  155.1144  140.3218  155.4516 H   0  0  0  0  0  0  0  0  0  0  0  0  # atno 8010 bound_to 7997
  140.4304  143.2550  151.8767 H   0  0  0  0  0  0  0  0  0  0  0  0  # atno 10167 bound_to 10162
  156.1165  130.4170  150.0523 H   0  0  0  0  0  0  0  0  0  0  0  0  # atno 10718 bound_to 10713
  153.6620  135.3345  155.3130 H   0  0  0  0  0  0  0  0  0  0  0  0  # atno 10763 bound_to 10752
  154.8512  135.4366  154.1794 H   0  0  0  0  0  0  0  0  0  0  0  0  # atno 10764 bound_to 10752
  153.2763  135.7005  153.7505 H   0  0  0  0  0  0  0  0  0  0  0  0  # atno 10765 bound_to 10752
  140.6079  134.4880  157.5212 H   0  0  0  0  0  0  0  0  0  0  0  0  # atno 11005 bound_to 11000
  145.0162  140.8756  143.5194 LP  0  0  0  0  0  0  0  0  0  0  0  0  # atno 17320 bound_to 7965
  145.1558  139.2487  143.5417 LP  0  0  0  0  0  0  0  0  0  0  0  0  # atno 17321 bound_to 7965
  139.4785  144.5341  151.8624 LP  0  0  0  0  0  0  0  0  0  0  0  0  # atno 17342 bound_to 10162
  140.4433  144.1956  150.5892 LP  0  0  0  0  0  0  0  0  0  0  0  0  # atno 17343 bound_to 10162
  156.8473  130.9446  151.3628 LP  0  0  0  0  0  0  0  0  0  0  0  0  # atno 17370 bound_to 10713
  157.6348  130.8758  149.9339 LP  0  0  0  0  0  0  0  0  0  0  0  0  # atno 17371 bound_to 10713
  139.9204  134.8159  156.1228 LP  0  0  0  0  0  0  0  0  0  0  0  0  # atno 17394 bound_to 11000
  141.0828  133.6747  156.2372 LP  0  0  0  0  0  0  0  0  0  0  0  0  # atno 17395 bound_to 11000

$$$$
