AV-unprocessed.smi:1740|AV-procd|sdf|7011|dock2
  -GOLD-   22720 8223D 1   1.00000     0.00000
 Structure written by MMmdl.
 53 55  0  0  0  0  0  0  0  0  3 V2000
  143.7078  133.8882  147.4483 N   0  0  0  0  0  0  0  0  0  0  0  0
  143.6045  132.9277  148.3691 C   0  0  0  0  0  0  0  0  0  0  0  0
  142.8943  131.9372  148.2052 O   0  0  0  0  0  0  0  0  0  0  0  0
  144.4313  133.1035  149.6474 C   0  0  0  0  0  0  0  0  0  0  0  0
  143.8776  134.1386  150.5580 N   0  3  2  0  0  0  0  0  0  0  0  0
  144.6429  135.4134  150.5287 C   0  0  0  0  0  0  0  0  0  0  0  0
  143.9387  136.5011  151.3593 C   0  0  0  0  0  0  0  0  0  0  0  0
  143.6771  136.0499  152.8071 C   0  0  2  0  0  0  0  0  0  0  0  0
  144.9215  136.0214  153.5761 N   0  0  0  0  0  0  0  0  0  0  0  0
  145.8567  136.9825  153.5579 C   0  0  0  0  0  0  0  0  0  0  0  0
  145.7601  138.0150  152.8948 O   0  0  0  0  0  0  0  0  0  0  0  0
  146.8879  136.6860  154.3662 N   0  0  0  0  0  0  0  0  0  0  0  0
  148.0470  137.4779  154.5999 C   0  0  0  0  0  0  0  0  0  0  0  0
  148.0624  138.8534  154.2535 C   0  0  0  0  0  0  0  0  0  0  0  0
  149.2385  139.6076  154.4211 C   0  0  0  0  0  0  0  0  0  0  0  0
  150.3886  138.9709  154.9178 C   0  0  0  0  0  0  0  0  0  0  0  0
  150.3453  137.6586  155.2279 N   0  3  0  0  0  0  0  0  0  0  0  0
  149.2396  136.8821  155.1039 C   0  0  0  0  0  0  0  0  0  0  0  0
  149.3400  135.5248  155.4869 N   0  0  0  0  0  0  0  0  0  0  0  0
  149.0693  134.4647  154.5218 C   0  0  0  0  0  0  0  0  0  0  0  0
  149.6389  133.1969  155.1526 C   0  0  0  0  0  0  0  0  0  0  0  0
  150.8648  133.7218  155.8934 C   0  0  0  0  0  0  0  0  0  0  0  0
  150.4347  135.1154  156.3618 C   0  0  0  0  0  0  0  0  0  0  0  0
  142.9705  134.6798  152.8155 C   0  0  0  0  0  0  0  0  0  0  0  0
  143.7038  133.6427  151.9465 C   0  0  0  0  0  0  0  0  0  0  0  0
  143.1854  133.8124  146.5870 H   0  0  0  0  0  0  0  0  0  0  0  0
  144.3083  134.6845  147.6067 H   0  0  0  0  0  0  0  0  0  0  0  0
  144.4347  132.1353  150.1498 H   0  0  0  0  0  0  0  0  0  0  0  0
  145.4698  133.3344  149.4042 H   0  0  0  0  0  0  0  0  0  0  0  0
  145.6525  135.2431  150.9056 H   0  0  0  0  0  0  0  0  0  0  0  0
  144.7484  135.7650  149.5022 H   0  0  0  0  0  0  0  0  0  0  0  0
  144.5239  137.4214  151.3480 H   0  0  0  0  0  0  0  0  0  0  0  0
  142.9866  136.7439  150.8852 H   0  0  0  0  0  0  0  0  0  0  0  0
  143.0146  136.7859  153.2668 H   0  0  0  0  0  0  0  0  0  0  0  0
  145.0881  135.2056  154.1472 H   0  0  0  0  0  0  0  0  0  0  0  0
  146.7915  135.8630  154.9429 H   0  0  0  0  0  0  0  0  0  0  0  0
  147.1895  139.3363  153.8395 H   0  0  0  0  0  0  0  0  0  0  0  0
  149.2603  140.6557  154.1601 H   0  0  0  0  0  0  0  0  0  0  0  0
  151.3365  139.4658  155.0726 H   0  0  0  0  0  0  0  0  0  0  0  0
  148.0016  134.3715  154.3202 H   0  0  0  0  0  0  0  0  0  0  0  0
  149.5823  134.6641  153.5800 H   0  0  0  0  0  0  0  0  0  0  0  0
  148.9247  132.7788  155.8636 H   0  0  0  0  0  0  0  0  0  0  0  0
  149.8790  132.4275  154.4184 H   0  0  0  0  0  0  0  0  0  0  0  0
  151.1773  133.0755  156.7141 H   0  0  0  0  0  0  0  0  0  0  0  0
  151.7011  133.8101  155.1984 H   0  0  0  0  0  0  0  0  0  0  0  0
  151.2701  135.8165  156.3356 H   0  0  0  0  0  0  0  0  0  0  0  0
  150.0628  135.0666  157.3856 H   0  0  0  0  0  0  0  0  0  0  0  0
  142.8650  134.3074  153.8351 H   0  0  0  0  0  0  0  0  0  0  0  0
  141.9552  134.8023  152.4358 H   0  0  0  0  0  0  0  0  0  0  0  0
  143.1274  132.7168  151.9382 H   0  0  0  0  0  0  0  0  0  0  0  0
  144.6784  133.4045  152.3757 H   0  0  0  0  0  0  0  0  0  0  0  0
  142.9506  134.3434  150.2118 H   0  0  0  0  0  0  0  0  0  0  0  0
  151.1967  137.2262  155.5867 H   0  0  0  0  0  0  0  0  0  0  0  0
  1  2  1  0  0  0  0
  1 26  1  0  0  0  0
  1 27  1  0  0  0  0
  2  3  2  0  0  0  0
  2  4  1  0  0  0  0
  4  5  1  0  0  0  0
  4 28  1  0  0  0  0
  4 29  1  0  0  0  0
  5 25  1  0  0  0  0
  5  6  1  0  0  0  0
  5 52  1  0  0  0  0
  6  7  1  0  0  0  0
  6 30  1  0  0  0  0
  6 31  1  0  0  0  0
  7  8  1  0  0  0  0
  7 32  1  0  0  0  0
  7 33  1  0  0  0  0
  8  9  1  0  0  0  0
  8 24  1  0  0  0  0
  8 34  1  0  0  0  0
  9 10  1  0  0  0  0
  9 35  1  0  0  0  0
 10 11  2  0  0  0  0
 10 12  1  0  0  0  0
 12 13  1  0  0  0  0
 12 36  1  0  0  0  0
 13 18  1  0  0  0  0
 13 14  2  0  0  0  0
 14 15  1  0  0  0  0
 14 37  1  0  0  0  0
 15 16  2  0  0  0  0
 15 38  1  0  0  0  0
 16 17  1  0  0  0  0
 16 39  1  0  0  0  0
 17 18  2  0  0  0  0
 17 53  1  0  0  0  0
 18 19  1  0  0  0  0
 19 23  1  0  0  0  0
 19 20  1  0  0  0  0
 20 21  1  0  0  0  0
 20 40  1  0  0  0  0
 20 41  1  0  0  0  0
 21 22  1  0  0  0  0
 21 42  1  0  0  0  0
 21 43  1  0  0  0  0
 22 23  1  0  0  0  0
 22 44  1  0  0  0  0
 22 45  1  0  0  0  0
 23 46  1  0  0  0  0
 23 47  1  0  0  0  0
 24 25  1  0  0  0  0
 24 48  1  0  0  0  0
 24 49  1  0  0  0  0
 25 50  1  0  0  0  0
 25 51  1  0  0  0  0
M  CHG  1   5   1
M  CHG  1  17   1
M  END
> <s_m_source_file>
AV-unprocessed.smi

> <i_m_source_file_index>
1740

> <i_lp_mmshare_version>
43012

> <i_f3d_flags>
0

> <s_epik_input>
W05IMl1DKD1PKVtDSDJdTjFbQ0gyXVtDSDJdW0NIXShbQ0gyXVtDSDJdMSlbTkhdQyg9TylbTkhdYzJbY0hdW2NIXVtjSF1uYzJOM1tDSDJdW0NIMl1bQ0gyXVtDSDJdMw==

> <s_epik_cmdline>
J2VwaWtfcHl0aG9uJywgJy1waCcsICc3LjAnLCAnLXRuJywgJzgnLCAnLW1hJywgJzIwMCcsICctbWV0YWxfYmluZGluZycsICctaW1hZScsICc8aW5maWxlLm1hZT4nLCAnLW9tYWUnLCAnPG91dGZpbGUubWFlPic=

> <r_lp_tautomer_probability>
0.999994

> <r_epik_Ionization_Penalty>
2.11361

> <r_epik_Ionization_Penalty_Charging>
2.11355

> <r_epik_Ionization_Penalty_Neutral>
5.98217e-05

> <r_epik_State_Penalty>
2.13444

> <r_epik_Charging_Adjusted_Penalty>
4.24799

> <i_epik_Tot_Q>
2

> <i_epik_Tot_abs_Q>
2

> <r_epik_Metal_State_Penalty>
2.23528

> <b_epik_Metal_Only>
0

> <s_lp_Force_Field>
OPLS_2005

> <r_lp_Energy>
48.4513

> <b_lp_Chiralities_Consistent>
1

> <s_lp_Variant>
AV-unprocessed.smi:1740-6

> <Gold.Version>
5.8.1

> <Gold.Id.Protein>
6NUR|6NUR_protein|mol2

> <Gold.PLP.Fitness>
41.6282

> <Gold.PLP.PLP>
-30.1499

> <Gold.PLP.part.hbond>
-4.3859

> <Gold.PLP.part.metal>
0.0000

> <Gold.PLP.part.buried>
-0.7753

> <Gold.PLP.part.nonpolar>
-30.6557

> <Gold.PLP.part.repulsive>
4.0123

> <Gold.PLP.ligand.clash>
0.0000

> <Gold.PLP.ligand.torsion>
1.3388

> <Gold.PLP.Chemscore.Hbond>
4.5840

> <Gold.PLP.Chemscore.CHOScore>
0.0000

> <Gold.PLP.Chemscore.Metal>
0.0000

> <Gold.Chemscore.Hbonds>
donor molecule, donor type, donor heavy atom, donor atom, acceptor molecule, acceptor atom, score
      L1  H     1    26       P1 10195  1.00
      L1  H     1    27       P1  7921  0.61
      L1  H     5    52       P1 10186  1.92
      P1  H 10785 10796       L1     3  0.72

> <Gold.PLP.Chemscore.Internal.Correction>
0.4039

> <Gold.Rescore>
     Score         DG    S(hbond)    S(metal)    S(lipo)     H(rot)  DE(clash)    DE(int)     intcor
     13.32     -20.79       3.62        0.00      76.13       2.22       3.32       4.16       ----

> <Gold.Chemscore.Fitness>
13.3206

> <Gold.Chemscore.DG>
-20.7950

> <Gold.Chemscore.ZeroCoef>
-5.4800

> <Gold.Chemscore.Hbond>
3.6207

> <Gold.Chemscore.Metal>
0.0000

> <Gold.Chemscore.Lipo>
76.1255

> <Gold.Chemscore.Internal_Hbond>
0.0000

> <Gold.Chemscore.DEClash>
3.3192

> <Gold.Chemscore.DEInternal>
4.1552

> <Gold.Chemscore.Rot>
2.2207

> <Gold.Chemscore.Internal.Correction>
   9.000000E+99

> <Gold.Chemscore.Hbonds>
donor molecule, donor type, donor heavy atom, donor atom, acceptor molecule, acceptor atom, score
      L1  H     1    26       P1 10195  0.98
      L1  H     1    27       P1  7921  0.60
      L1  H     5    52       P1 10186  0.77
      P1  H 10785 10796       L1     3  0.72

> <Gold.Chemscore.Hbond.Weighted>
-12.0932

> <Gold.Chemscore.Metal.Weighted>
-0.0000

> <Gold.Chemscore.Lipo.Weighted>
-8.9067

> <Gold.Chemscore.Internal_Hbond.Weighted>
0.0000

> <Gold.Chemscore.DEClash.Weighted>
3.3192

> <Gold.Chemscore.DEInternal.Weighted>
4.1552

> <Gold.Chemscore.Rot.Weighted>
5.6849

> <Gold.Chemscore.Internal.Correction.Weighted>
   9.000000E+99

> <Gold.Protein.RotatedTorsions>
[ 6907 6896 6895 6894 ] final -135.67 input  -60.11 | X-H torsion
[ 7974 7965 7964 7962 ] final  106.18 input  175.53 | X-H torsion
[ 8008 7997 7996 7995 ] final -119.24 input   59.86 | X-H torsion
[ 10167 10162 10161 10158 ] final  -59.63 input  -65.29 | X-H torsion
[ 10718 10713 10712 10709 ] final  -97.72 input   66.30 | X-H torsion
[ 10763 10752 10751 10750 ] final  -64.45 input  -60.55 | X-H torsion
[ 11005 11000 10999 10996 ] final  -83.52 input  -57.11 | X-H torsion

> <Gold.Protein.ActiveResidues>
 VAL166  LYS551  ARG553  GLY616  TRP617  ASP618  TYR619  PRO620  LYS621  CYS622 
 ASP623  PHE694  ASN695  SER759  ASP760  ASP761  ALA762  ILE779  LEU786  VAL792 
 PHE793  MET794  SER795  GLU796  ALA797  LYS798  CYS799  TRP800  GLU811  SER814 

> <Gold.Protein.RotatedAtoms>
  151.0006  133.6059  159.2695 H   0  0  0  0  0  0  0  0  0  0  0  0  # atno 6907 bound_to 6896
  151.3247  135.0826  159.9327 H   0  0  0  0  0  0  0  0  0  0  0  0  # atno 6908 bound_to 6896
  152.5273  133.9647  159.7788 H   0  0  0  0  0  0  0  0  0  0  0  0  # atno 6909 bound_to 6896
  145.3100  139.2543  143.3768 H   0  0  0  0  0  0  0  0  0  0  0  0  # atno 7974 bound_to 7965
  155.1126  140.0397  157.2728 H   0  0  0  0  0  0  0  0  0  0  0  0  # atno 8008 bound_to 7997
  154.6674  140.2604  155.7018 H   0  0  0  0  0  0  0  0  0  0  0  0  # atno 8009 bound_to 7997
  156.2644  140.2804  156.1169 H   0  0  0  0  0  0  0  0  0  0  0  0  # atno 8010 bound_to 7997
  140.6122  143.2391  151.5681 H   0  0  0  0  0  0  0  0  0  0  0  0  # atno 10167 bound_to 10162
  156.0090  130.5207  150.6416 H   0  0  0  0  0  0  0  0  0  0  0  0  # atno 10718 bound_to 10713
  154.3303  135.6178  153.5548 H   0  0  0  0  0  0  0  0  0  0  0  0  # atno 10763 bound_to 10752
  152.9812  135.5745  154.4969 H   0  0  0  0  0  0  0  0  0  0  0  0  # atno 10764 bound_to 10752
  154.4654  135.2857  155.1659 H   0  0  0  0  0  0  0  0  0  0  0  0  # atno 10765 bound_to 10752
  141.1657  133.7299  156.8732 H   0  0  0  0  0  0  0  0  0  0  0  0  # atno 11005 bound_to 11000
  146.3121  140.3633  142.8667 LP  0  0  0  0  0  0  0  0  0  0  0  0  # atno 17320 bound_to 7965
  144.9024  140.7658  143.5859 LP  0  0  0  0  0  0  0  0  0  0  0  0  # atno 17321 bound_to 7965
  139.5370  144.2752  152.1273 LP  0  0  0  0  0  0  0  0  0  0  0  0  # atno 17342 bound_to 10162
  140.1954  144.4711  150.6458 LP  0  0  0  0  0  0  0  0  0  0  0  0  # atno 17343 bound_to 10162
  157.4195  131.0835  151.1144 LP  0  0  0  0  0  0  0  0  0  0  0  0  # atno 17370 bound_to 10713
  157.1751  130.6284  149.5653 LP  0  0  0  0  0  0  0  0  0  0  0  0  # atno 17371 bound_to 10713
  140.1766  134.9062  157.2899 LP  0  0  0  0  0  0  0  0  0  0  0  0  # atno 17394 bound_to 11000
  140.2441  134.3760  155.7468 LP  0  0  0  0  0  0  0  0  0  0  0  0  # atno 17395 bound_to 11000

$$$$
